MODEL 1
REMARK VINA RESULT:    -4.870      0.000      0.000
REMARK INTER + INTRA:          -7.080
REMARK INTER:                  -6.579
REMARK INTRA:                  -0.501
REMARK UNBOUND:                -0.501
REMARK  7 active torsions:
REMARK  status: ('A' for Active; 'I' for Inactive)
REMARK    1  A    between atoms: C_2  and  C_8 
REMARK    2  A    between atoms: C_2  and  C_4 
REMARK    3  A    between atoms: O_6  and  C_8 
REMARK    4  A    between atoms: C_7  and  N_10 
REMARK    5  A    between atoms: C_7  and  C_8 
REMARK    6  A    between atoms: C_12  and  OXT_15 
REMARK    7  A    between atoms: C_12  and  CA_16 
ROOT
HETATM    1  C   UNK A   0       6.865  13.200   0.825  1.00  0.00     0.151 C 
ENDROOT
BRANCH   1   2
ATOM      2  N   ALA A   1       8.115  13.700   1.291  1.00  0.00    -0.386 N 
ATOM      3  CA  ALA A   1       8.258  14.591   2.168  1.00  0.00     0.075 C 
ATOM      4  CB  ALA A   1       7.327  15.689   2.653  1.00  0.00     0.075 C 
ATOM      5  HN  ALA A   1       8.961  13.304   0.880  1.00  0.00     0.159 HD
BRANCH   3   6
ATOM      6  C   ALA A   1       9.602  14.523   2.748  1.00  0.00     0.188 C 
ATOM      7  O   ALA A   1      10.465  15.342   2.780  1.00  0.00    -0.645 OA
BRANCH   6   8
ATOM      8  OXT ALA A   1       9.840  13.278   3.264  1.00  0.00    -0.772 OA
ATOM      9  HXT ALA A   1       8.929  13.104   3.550  1.00  0.00     0.167 HD
ENDBRANCH   6   8
ENDBRANCH   3   6
ENDBRANCH   1   2
BRANCH   1  10
HETATM   10  C   UNK A   0       6.598  11.714   1.012  1.00  0.00     0.139 C 
BRANCH  10  11
HETATM   11  C   UNK A   0       7.147  11.183   2.341  1.00  0.00     0.086 C 
BRANCH  11  12
HETATM   12  C   UNK A   0       6.262  11.413   3.593  1.00  0.00     0.268 C 
HETATM   13 CL   UNK A   0       6.589  12.667   4.802  1.00  0.00    -0.090 Cl
HETATM   14  F   UNK A   0       6.305  10.277   4.375  1.00  0.00    -0.233 F 
ENDBRANCH  11  12
ENDBRANCH  10  11
BRANCH  10  15
HETATM   15  O   UNK A   0       7.036  10.817   0.027  1.00  0.00    -0.394 OA
HETATM   16  H   UNK A   0       6.638   9.971   0.267  1.00  0.00     0.210 HD
ENDBRANCH  10  15
ENDBRANCH   1  10
TORSDOF 7
ENDMDL
MODEL 2
REMARK VINA RESULT:    -4.822     32.209     32.874
REMARK INTER + INTRA:          -7.015
REMARK INTER:                  -6.817
REMARK INTRA:                  -0.198
REMARK UNBOUND:                -0.501
REMARK  7 active torsions:
REMARK  status: ('A' for Active; 'I' for Inactive)
REMARK    1  A    between atoms: C_2  and  C_8 
REMARK    2  A    between atoms: C_2  and  C_4 
REMARK    3  A    between atoms: O_6  and  C_8 
REMARK    4  A    between atoms: C_7  and  N_10 
REMARK    5  A    between atoms: C_7  and  C_8 
REMARK    6  A    between atoms: C_12  and  OXT_15 
REMARK    7  A    between atoms: C_12  and  CA_16 
ROOT
HETATM    1  C   UNK A   0       0.788 -17.823   8.932  1.00  0.00     0.151 C 
ENDROOT
BRANCH   1   2
ATOM      2  N   ALA A   1       0.768 -17.177  10.202  1.00  0.00    -0.386 N 
ATOM      3  CA  ALA A   1      -0.257 -16.701  10.757  1.00  0.00     0.075 C 
ATOM      4  CB  ALA A   1      -1.586 -16.233  10.190  1.00  0.00     0.075 C 
ATOM      5  HN  ALA A   1       1.654 -17.093  10.700  1.00  0.00     0.159 HD
BRANCH   3   6
ATOM      6  C   ALA A   1      -0.036 -16.561  12.199  1.00  0.00     0.188 C 
ATOM      7  O   ALA A   1      -0.781 -16.212  13.058  1.00  0.00    -0.645 OA
BRANCH   6   8
ATOM      8  OXT ALA A   1       1.266 -16.845  12.515  1.00  0.00    -0.772 OA
ATOM      9  HXT ALA A   1       1.071 -17.542  13.160  1.00  0.00     0.167 HD
ENDBRANCH   6   8
ENDBRANCH   3   6
ENDBRANCH   1   2
BRANCH   1  10
HETATM   10  C   UNK A   0       2.140 -18.290   8.413  1.00  0.00     0.139 C 
BRANCH  10  11
HETATM   11  C   UNK A   0       2.620 -19.572   9.100  1.00  0.00     0.086 C 
BRANCH  11  12
HETATM   12  C   UNK A   0       3.013 -20.747   8.169  1.00  0.00     0.268 C 
HETATM   13 CL   UNK A   0       2.769 -22.451   8.592  1.00  0.00    -0.090 Cl
HETATM   14  F   UNK A   0       4.380 -20.718   7.979  1.00  0.00    -0.233 F 
ENDBRANCH  11  12
ENDBRANCH  10  11
BRANCH  10  15
HETATM   15  O   UNK A   0       3.224 -17.402   8.450  1.00  0.00    -0.394 OA
HETATM   16  H   UNK A   0       3.248 -17.077   9.358  1.00  0.00     0.210 HD
ENDBRANCH  10  15
ENDBRANCH   1  10
TORSDOF 7
ENDMDL
MODEL 3
REMARK VINA RESULT:    -4.616      2.612      2.750
REMARK INTER + INTRA:          -6.737
REMARK INTER:                  -6.501
REMARK INTRA:                  -0.236
REMARK UNBOUND:                -0.501
REMARK  7 active torsions:
REMARK  status: ('A' for Active; 'I' for Inactive)
REMARK    1  A    between atoms: C_2  and  C_8 
REMARK    2  A    between atoms: C_2  and  C_4 
REMARK    3  A    between atoms: O_6  and  C_8 
REMARK    4  A    between atoms: C_7  and  N_10 
REMARK    5  A    between atoms: C_7  and  C_8 
REMARK    6  A    between atoms: C_12  and  OXT_15 
REMARK    7  A    between atoms: C_12  and  CA_16 
ROOT
HETATM    1  C   UNK A   0       8.018  13.019   3.512  1.00  0.00     0.151 C 
ENDROOT
BRANCH   1   2
ATOM      2  N   ALA A   1       9.351  13.482   3.710  1.00  0.00    -0.386 N 
ATOM      3  CA  ALA A   1       9.760  14.645   3.454  1.00  0.00     0.075 C 
ATOM      4  CB  ALA A   1       9.236  15.715   2.512  1.00  0.00     0.075 C 
ATOM      5  HN  ALA A   1      10.027  12.819   4.088  1.00  0.00     0.159 HD
BRANCH   3   6
ATOM      6  C   ALA A   1      10.988  14.928   4.200  1.00  0.00     0.188 C 
ATOM      7  O   ALA A   1      11.828  15.750   4.012  1.00  0.00    -0.645 OA
BRANCH   6   8
ATOM      8  OXT ALA A   1      11.145  14.032   5.224  1.00  0.00    -0.772 OA
ATOM      9  HXT ALA A   1      12.007  13.691   4.938  1.00  0.00     0.167 HD
ENDBRANCH   6   8
ENDBRANCH   3   6
ENDBRANCH   1   2
BRANCH   1  10
HETATM   10  C   UNK A   0       7.738  11.557   3.825  1.00  0.00     0.139 C 
BRANCH  10  11
HETATM   11  C   UNK A   0       6.385  11.355   4.514  1.00  0.00     0.086 C 
BRANCH  11  12
HETATM   12  C   UNK A   0       5.624  10.049   4.171  1.00  0.00     0.268 C 
HETATM   13 CL   UNK A   0       5.778   8.554   5.111  1.00  0.00    -0.090 Cl
HETATM   14  F   UNK A   0       6.033   9.618   2.925  1.00  0.00    -0.233 F 
ENDBRANCH  11  12
ENDBRANCH  10  11
BRANCH  10  15
HETATM   15  O   UNK A   0       8.670  10.835   4.583  1.00  0.00    -0.394 OA
HETATM   16  H   UNK A   0       8.489   9.908   4.382  1.00  0.00     0.210 HD
ENDBRANCH  10  15
ENDBRANCH   1  10
TORSDOF 7
ENDMDL
MODEL 4
REMARK VINA RESULT:    -4.456     22.352     23.730
REMARK INTER + INTRA:          -6.521
REMARK INTER:                  -6.313
REMARK INTRA:                  -0.207
REMARK UNBOUND:                -0.501
REMARK  7 active torsions:
REMARK  status: ('A' for Active; 'I' for Inactive)
REMARK    1  A    between atoms: C_2  and  C_8 
REMARK    2  A    between atoms: C_2  and  C_4 
REMARK    3  A    between atoms: O_6  and  C_8 
REMARK    4  A    between atoms: C_7  and  N_10 
REMARK    5  A    between atoms: C_7  and  C_8 
REMARK    6  A    between atoms: C_12  and  OXT_15 
REMARK    7  A    between atoms: C_12  and  CA_16 
ROOT
HETATM    1  C   UNK A   0       9.436  -0.284  21.402  1.00  0.00     0.151 C 
ENDROOT
BRANCH   1   2
ATOM      2  N   ALA A   1       8.391  -0.490  20.455  1.00  0.00    -0.386 N 
ATOM      3  CA  ALA A   1       7.368   0.233  20.336  1.00  0.00     0.075 C 
ATOM      4  CB  ALA A   1       6.672   1.167  21.312  1.00  0.00     0.075 C 
ATOM      5  HN  ALA A   1       8.480  -1.287  19.825  1.00  0.00     0.159 HD
BRANCH   3   6
ATOM      6  C   ALA A   1       6.770   0.054  19.011  1.00  0.00     0.188 C 
ATOM      7  O   ALA A   1       5.774  -0.511  18.689  1.00  0.00    -0.645 OA
BRANCH   6   8
ATOM      8  OXT ALA A   1       7.568   0.608  18.045  1.00  0.00    -0.772 OA
ATOM      9  HXT ALA A   1       7.136   1.476  18.032  1.00  0.00     0.167 HD
ENDBRANCH   6   8
ENDBRANCH   3   6
ENDBRANCH   1   2
BRANCH   1  10
HETATM   10  C   UNK A   0       9.634  -1.357  22.462  1.00  0.00     0.139 C 
BRANCH  10  11
HETATM   11  C   UNK A   0      11.111  -1.575  22.805  1.00  0.00     0.086 C 
BRANCH  11  12
HETATM   12  C   UNK A   0      11.779  -0.492  23.690  1.00  0.00     0.268 C 
HETATM   13 CL   UNK A   0      13.481  -0.550  24.182  1.00  0.00    -0.090 Cl
HETATM   14  F   UNK A   0      11.151  -0.480  24.918  1.00  0.00    -0.233 F 
ENDBRANCH  11  12
ENDBRANCH  10  11
BRANCH  10  15
HETATM   15  O   UNK A   0       9.094  -2.633  22.244  1.00  0.00    -0.394 OA
HETATM   16  H   UNK A   0       8.263  -2.475  21.780  1.00  0.00     0.210 HD
ENDBRANCH  10  15
ENDBRANCH   1  10
TORSDOF 7
ENDMDL
MODEL 5
REMARK VINA RESULT:    -4.424     31.575     33.169
REMARK INTER + INTRA:          -6.477
REMARK INTER:                  -6.231
REMARK INTRA:                  -0.246
REMARK UNBOUND:                -0.501
REMARK  7 active torsions:
REMARK  status: ('A' for Active; 'I' for Inactive)
REMARK    1  A    between atoms: C_2  and  C_8 
REMARK    2  A    between atoms: C_2  and  C_4 
REMARK    3  A    between atoms: O_6  and  C_8 
REMARK    4  A    between atoms: C_7  and  N_10 
REMARK    5  A    between atoms: C_7  and  C_8 
REMARK    6  A    between atoms: C_12  and  OXT_15 
REMARK    7  A    between atoms: C_12  and  CA_16 
ROOT
HETATM    1  C   UNK A   0       1.893 -19.017   9.475  1.00  0.00     0.151 C 
ENDROOT
BRANCH   1   2
ATOM      2  N   ALA A   1       1.493 -17.649   9.457  1.00  0.00    -0.386 N 
ATOM      3  CA  ALA A   1       0.580 -17.170   8.735  1.00  0.00     0.075 C 
ATOM      4  CB  ALA A   1      -0.031 -17.650   7.430  1.00  0.00     0.075 C 
ATOM      5  HN  ALA A   1       1.986 -17.008  10.079  1.00  0.00     0.159 HD
BRANCH   3   6
ATOM      6  C   ALA A   1       0.106 -15.900   9.291  1.00  0.00     0.188 C 
ATOM      7  O   ALA A   1      -0.991 -15.564   9.606  1.00  0.00    -0.645 OA
BRANCH   6   8
ATOM      8  OXT ALA A   1       1.135 -15.001   9.381  1.00  0.00    -0.772 OA
ATOM      9  HXT ALA A   1       1.672 -15.380   8.667  1.00  0.00     0.167 HD
ENDBRANCH   6   8
ENDBRANCH   3   6
ENDBRANCH   1   2
BRANCH   1  10
HETATM   10  C   UNK A   0       3.174 -19.375   8.736  1.00  0.00     0.139 C 
BRANCH  10  11
HETATM   11  C   UNK A   0       3.412 -20.887   8.678  1.00  0.00     0.086 C 
BRANCH  11  12
HETATM   12  C   UNK A   0       2.236 -21.788   9.136  1.00  0.00     0.268 C 
HETATM   13 CL   UNK A   0       2.462 -23.345   9.954  1.00  0.00    -0.090 Cl
HETATM   14  F   UNK A   0       1.523 -22.179   8.021  1.00  0.00    -0.233 F 
ENDBRANCH  11  12
ENDBRANCH  10  11
BRANCH  10  15
HETATM   15  O   UNK A   0       4.383 -18.809   9.163  1.00  0.00    -0.394 OA
HETATM   16  H   UNK A   0       4.545 -18.080   8.551  1.00  0.00     0.210 HD
ENDBRANCH  10  15
ENDBRANCH   1  10
TORSDOF 7
ENDMDL
MODEL 6
REMARK VINA RESULT:    -4.416     22.317     23.651
REMARK INTER + INTRA:          -6.466
REMARK INTER:                  -6.175
REMARK INTRA:                  -0.291
REMARK UNBOUND:                -0.501
REMARK  7 active torsions:
REMARK  status: ('A' for Active; 'I' for Inactive)
REMARK    1  A    between atoms: C_2  and  C_8 
REMARK    2  A    between atoms: C_2  and  C_4 
REMARK    3  A    between atoms: O_6  and  C_8 
REMARK    4  A    between atoms: C_7  and  N_10 
REMARK    5  A    between atoms: C_7  and  C_8 
REMARK    6  A    between atoms: C_12  and  OXT_15 
REMARK    7  A    between atoms: C_12  and  CA_16 
ROOT
HETATM    1  C   UNK A   0      10.024   0.073  21.688  1.00  0.00     0.151 C 
ENDROOT
BRANCH   1   2
ATOM      2  N   ALA A   1       9.020  -0.062  20.686  1.00  0.00    -0.386 N 
ATOM      3  CA  ALA A   1       7.811  -0.339  20.904  1.00  0.00     0.075 C 
ATOM      4  CB  ALA A   1       7.130  -1.034  22.071  1.00  0.00     0.075 C 
ATOM      5  HN  ALA A   1       9.302   0.077  19.716  1.00  0.00     0.159 HD
BRANCH   3   6
ATOM      6  C   ALA A   1       6.982   0.068  19.768  1.00  0.00     0.188 C 
ATOM      7  O   ALA A   1       7.292   0.559  18.730  1.00  0.00    -0.645 OA
BRANCH   6   8
ATOM      8  OXT ALA A   1       5.656  -0.132  20.045  1.00  0.00    -0.772 OA
ATOM      9  HXT ALA A   1       5.380   0.790  19.927  1.00  0.00     0.167 HD
ENDBRANCH   6   8
ENDBRANCH   3   6
ENDBRANCH   1   2
BRANCH   1  10
HETATM   10  C   UNK A   0      10.542   1.477  21.966  1.00  0.00     0.139 C 
BRANCH  10  11
HETATM   11  C   UNK A   0      11.047   1.639  23.403  1.00  0.00     0.086 C 
BRANCH  11  12
HETATM   12  C   UNK A   0      11.132   0.347  24.254  1.00  0.00     0.268 C 
HETATM   13 CL   UNK A   0       9.947  -0.078  25.503  1.00  0.00    -0.090 Cl
HETATM   14  F   UNK A   0      12.294   0.387  24.998  1.00  0.00    -0.233 F 
ENDBRANCH  11  12
ENDBRANCH  10  11
BRANCH  10  15
HETATM   15  O   UNK A   0       9.698   2.571  21.726  1.00  0.00    -0.394 OA
HETATM   16  H   UNK A   0       8.809   2.197  21.699  1.00  0.00     0.210 HD
ENDBRANCH  10  15
ENDBRANCH   1  10
TORSDOF 7
ENDMDL
MODEL 7
REMARK VINA RESULT:    -4.364     25.429     26.424
REMARK INTER + INTRA:          -6.396
REMARK INTER:                  -6.184
REMARK INTRA:                  -0.213
REMARK UNBOUND:                -0.501
REMARK  7 active torsions:
REMARK  status: ('A' for Active; 'I' for Inactive)
REMARK    1  A    between atoms: C_2  and  C_8 
REMARK    2  A    between atoms: C_2  and  C_4 
REMARK    3  A    between atoms: O_6  and  C_8 
REMARK    4  A    between atoms: C_7  and  N_10 
REMARK    5  A    between atoms: C_7  and  C_8 
REMARK    6  A    between atoms: C_12  and  OXT_15 
REMARK    7  A    between atoms: C_12  and  CA_16 
ROOT
HETATM    1  C   UNK A   0       8.574  -2.174  23.036  1.00  0.00     0.151 C 
ENDROOT
BRANCH   1   2
ATOM      2  N   ALA A   1       8.044  -3.278  22.309  1.00  0.00    -0.386 N 
ATOM      3  CA  ALA A   1       7.515  -4.298  22.822  1.00  0.00     0.075 C 
ATOM      4  CB  ALA A   1       7.653  -4.921  24.201  1.00  0.00     0.075 C 
ATOM      5  HN  ALA A   1       8.097  -3.238  21.291  1.00  0.00     0.159 HD
BRANCH   3   6
ATOM      6  C   ALA A   1       6.666  -4.980  21.842  1.00  0.00     0.188 C 
ATOM      7  O   ALA A   1       5.818  -4.546  21.129  1.00  0.00    -0.645 OA
BRANCH   6   8
ATOM      8  OXT ALA A   1       6.913  -6.327  21.848  1.00  0.00    -0.772 OA
ATOM      9  HXT ALA A   1       7.829  -6.267  22.161  1.00  0.00     0.167 HD
ENDBRANCH   6   8
ENDBRANCH   3   6
ENDBRANCH   1   2
BRANCH   1  10
HETATM   10  C   UNK A   0      10.071  -1.926  22.929  1.00  0.00     0.139 C 
BRANCH  10  11
HETATM   11  C   UNK A   0      10.622  -1.141  24.123  1.00  0.00     0.086 C 
BRANCH  11  12
HETATM   12  C   UNK A   0      11.981  -0.426  23.910  1.00  0.00     0.268 C 
HETATM   13 CL   UNK A   0      13.507  -1.291  23.653  1.00  0.00    -0.090 Cl
HETATM   14  F   UNK A   0      12.278   0.299  25.046  1.00  0.00    -0.233 F 
ENDBRANCH  11  12
ENDBRANCH  10  11
BRANCH  10  15
HETATM   15  O   UNK A   0      10.573  -1.291  21.783  1.00  0.00    -0.394 OA
HETATM   16  H   UNK A   0       9.884  -1.404  21.116  1.00  0.00     0.210 HD
ENDBRANCH  10  15
ENDBRANCH   1  10
TORSDOF 7
ENDMDL
MODEL 8
REMARK VINA RESULT:    -4.296     33.951     35.549
REMARK INTER + INTRA:          -6.305
REMARK INTER:                  -6.027
REMARK INTRA:                  -0.277
REMARK UNBOUND:                -0.501
REMARK  7 active torsions:
REMARK  status: ('A' for Active; 'I' for Inactive)
REMARK    1  A    between atoms: C_2  and  C_8 
REMARK    2  A    between atoms: C_2  and  C_4 
REMARK    3  A    between atoms: O_6  and  C_8 
REMARK    4  A    between atoms: C_7  and  N_10 
REMARK    5  A    between atoms: C_7  and  C_8 
REMARK    6  A    between atoms: C_12  and  OXT_15 
REMARK    7  A    between atoms: C_12  and  CA_16 
ROOT
HETATM    1  C   UNK A   0       2.371 -21.867   9.139  1.00  0.00     0.151 C 
ENDROOT
BRANCH   1   2
ATOM      2  N   ALA A   1       1.943 -20.541   8.844  1.00  0.00    -0.386 N 
ATOM      3  CA  ALA A   1       2.698 -19.537   8.760  1.00  0.00     0.075 C 
ATOM      4  CB  ALA A   1       4.075 -19.258   9.339  1.00  0.00     0.075 C 
ATOM      5  HN  ALA A   1       0.945 -20.393   8.690  1.00  0.00     0.159 HD
BRANCH   3   6
ATOM      6  C   ALA A   1       2.047 -18.473   7.991  1.00  0.00     0.188 C 
ATOM      7  O   ALA A   1       1.421 -18.531   6.981  1.00  0.00    -0.645 OA
BRANCH   6   8
ATOM      8  OXT ALA A   1       2.287 -17.252   8.563  1.00  0.00    -0.772 OA
ATOM      9  HXT ALA A   1       3.059 -17.526   9.082  1.00  0.00     0.167 HD
ENDBRANCH   6   8
ENDBRANCH   3   6
ENDBRANCH   1   2
BRANCH   1  10
HETATM   10  C   UNK A   0       2.872 -22.709   7.975  1.00  0.00     0.139 C 
BRANCH  10  11
HETATM   11  C   UNK A   0       2.902 -24.205   8.304  1.00  0.00     0.086 C 
BRANCH  11  12
HETATM   12  C   UNK A   0       2.930 -24.578   9.808  1.00  0.00     0.268 C 
HETATM   13 CL   UNK A   0       4.139 -25.661  10.522  1.00  0.00    -0.090 Cl
HETATM   14  F   UNK A   0       1.764 -25.249  10.116  1.00  0.00    -0.233 F 
ENDBRANCH  11  12
ENDBRANCH  10  11
BRANCH  10  15
HETATM   15  O   UNK A   0       4.121 -22.412   7.410  1.00  0.00    -0.394 OA
HETATM   16  H   UNK A   0       3.927 -21.808   6.683  1.00  0.00     0.210 HD
ENDBRANCH  10  15
ENDBRANCH   1  10
TORSDOF 7
ENDMDL
MODEL 9
REMARK VINA RESULT:    -4.212     22.581     23.939
REMARK INTER + INTRA:          -6.191
REMARK INTER:                  -5.953
REMARK INTRA:                  -0.237
REMARK UNBOUND:                -0.501
REMARK  7 active torsions:
REMARK  status: ('A' for Active; 'I' for Inactive)
REMARK    1  A    between atoms: C_2  and  C_8 
REMARK    2  A    between atoms: C_2  and  C_4 
REMARK    3  A    between atoms: O_6  and  C_8 
REMARK    4  A    between atoms: C_7  and  N_10 
REMARK    5  A    between atoms: C_7  and  C_8 
REMARK    6  A    between atoms: C_12  and  OXT_15 
REMARK    7  A    between atoms: C_12  and  CA_16 
ROOT
HETATM    1  C   UNK A   0       9.498  -1.280  22.014  1.00  0.00     0.151 C 
ENDROOT
BRANCH   1   2
ATOM      2  N   ALA A   1      10.835  -0.984  22.407  1.00  0.00    -0.386 N 
ATOM      3  CA  ALA A   1      11.204  -0.720  23.581  1.00  0.00     0.075 C 
ATOM      4  CB  ALA A   1      10.442  -0.190  24.783  1.00  0.00     0.075 C 
ATOM      5  HN  ALA A   1      11.550  -0.987  21.678  1.00  0.00     0.159 HD
BRANCH   3   6
ATOM      6  C   ALA A   1      12.645  -0.945  23.725  1.00  0.00     0.188 C 
ATOM      7  O   ALA A   1      13.450  -0.362  24.378  1.00  0.00    -0.645 OA
BRANCH   6   8
ATOM      8  OXT ALA A   1      13.055  -1.966  22.909  1.00  0.00    -0.772 OA
ATOM      9  HXT ALA A   1      12.794  -1.548  22.074  1.00  0.00     0.167 HD
ENDBRANCH   6   8
ENDBRANCH   3   6
ENDBRANCH   1   2
BRANCH   1  10
HETATM   10  C   UNK A   0       8.600  -0.102  21.666  1.00  0.00     0.139 C 
BRANCH  10  11
HETATM   11  C   UNK A   0       7.413  -0.511  20.788  1.00  0.00     0.086 C 
BRANCH  11  12
HETATM   12  C   UNK A   0       7.078   0.430  19.602  1.00  0.00     0.268 C 
HETATM   13 CL   UNK A   0       5.653   1.484  19.567  1.00  0.00    -0.090 Cl
HETATM   14  F   UNK A   0       6.861  -0.341  18.478  1.00  0.00    -0.233 F 
ENDBRANCH  11  12
ENDBRANCH  10  11
BRANCH  10  15
HETATM   15  O   UNK A   0       9.167   1.024  21.052  1.00  0.00    -0.394 OA
HETATM   16  H   UNK A   0       9.930   0.686  20.569  1.00  0.00     0.210 HD
ENDBRANCH  10  15
ENDBRANCH   1  10
TORSDOF 7
ENDMDL
