stable:True satoms:24 tatoms:24 sratio:1.0
  -OEChem-07092417333D

 24 23  0     1  0  0  0  0  0999 V2000
    6.3198   -2.8095   25.5376 Cl  0  0  0  0  0  0  0  0  0  0  0  0
    8.9555   -1.7007   24.9121 C   0  0  0  0  0  0  0  0  0  0  0  0
    8.4836   -3.4031   26.5077 F   0  0  0  0  0  0  0  0  0  0  0  0
    8.0707   -2.9185   25.2843 C   0  0  1  0  0  0  0  0  0  0  0  0
   10.4787   -1.5342   21.2480 H   0  0  0  0  0  0  0  0  0  0  0  0
    8.1793   -3.6619   24.5041 H   0  0  0  0  0  0  0  0  0  0  0  0
    7.0894   -0.9825   23.3088 H   0  0  0  0  0  0  0  0  0  0  0  0
    9.9555   -1.8337   25.3389 H   0  0  0  0  0  0  0  0  0  0  0  0
    8.5263   -0.7900   25.3274 H   0  0  0  0  0  0  0  0  0  0  0  0
    9.6174    0.3872   23.5229 H   0  0  0  0  0  0  0  0  0  0  0  0
   10.8205    0.1946   21.4551 H   0  0  0  0  0  0  0  0  0  0  0  0
    7.6130   -2.3543   22.3378 H   0  0  0  0  0  0  0  0  0  0  0  0
   10.7561   -0.4802   19.8502 H   0  0  0  0  0  0  0  0  0  0  0  0
   10.1189   -0.4152   23.3326 O   0  0  0  0  0  0  0  0  0  0  0  0
    9.7428   -2.3129   22.9971 H   0  0  0  0  0  0  0  0  0  0  0  0
    7.8773   -1.3339   22.6441 C   0  0  0  0  0  0  0  0  0  0  0  0
   10.3032   -0.5509   20.8413 C   0  0  0  0  0  0  0  0  0  0  0  0
    7.8630   -0.4495   21.5270 N   0  3  0  0  0  0  0  0  0  0  0  0
    8.3170    0.2812   19.4603 C   0  0  0  0  0  0  0  0  0  0  0  0
    6.6022   -0.0394   19.1994 H   0  0  0  0  0  0  0  0  0  0  0  0
    8.8704    0.4404   18.4189 O   0  0  0  0  0  0  0  0  0  0  0  0
    7.0306    0.7268   19.6109 O   0  0  0  0  0  0  0  0  0  0  0  0
    8.8106   -0.2950   20.7134 C   0  0  3  0  0  0  0  0  0  0  0  0
    9.1822   -1.4552   23.4168 C   0  0  2  0  0  0  0  0  0  0  0  0
 19 21  2  0  0  0  0
 20 22  1  0  0  0  0
 19 22  1  0  0  0  0
 19 23  1  0  0  0  0
 13 17  1  0  0  0  0
 17 23  1  0  0  0  0
 18 23  1  0  0  0  0
  5 17  1  0  0  0  0
 11 17  1  0  0  0  0
 16 18  1  0  0  0  0
 12 16  1  0  0  0  0
  7 16  1  0  0  0  0
 16 24  1  0  0  0  0
 15 24  1  0  0  0  0
 14 24  1  0  0  0  0
 10 14  1  0  0  0  0
  2 24  1  0  0  0  0
  4  6  1  0  0  0  0
  2  4  1  0  0  0  0
  2  9  1  0  0  0  0
  2  8  1  0  0  0  0
  1  4  1  0  0  0  0
  3  4  1  0  0  0  0
M  CHG  1  18   1
M  END
> <Shapegauss>
-103.508377

$$$$
