MODEL 1
REMARK VINA RESULT:    -8.031      0.000      0.000
REMARK INTER + INTRA:         -10.626
REMARK INTER:                  -9.909
REMARK INTRA:                  -0.717
REMARK UNBOUND:                -0.717
REMARK  4 active torsions:
REMARK  status: ('A' for Active; 'I' for Inactive)
REMARK    1  A    between atoms: S_2  and  N_5 
REMARK    2  A    between atoms: N_5  and  C_7 
REMARK    3  A    between atoms: C_15  and  C_16 
REMARK       I    between atoms: C_16  and  N_18 
REMARK    4  A    between atoms: N_18  and  C_20 
ROOT
HETATM    1  C   UNL     1       8.491  -3.606  23.757  1.00  0.00     0.109 C 
HETATM    2  C   UNL     1       8.838  -2.478  23.300  1.00  0.00    -0.008 A 
HETATM    3  C   UNL     1       9.555  -1.419  23.392  1.00  0.00     0.057 A 
HETATM    4  C   UNL     1       9.693  -0.333  24.654  1.00  0.00    -0.007 C 
HETATM    5  C   UNL     1      10.558   0.181  24.923  1.00  0.00    -0.025 C 
HETATM    6  C   UNL     1      11.958   0.100  24.431  1.00  0.00     0.053 C 
HETATM    7  C   UNL     1      11.985  -0.975  23.432  1.00  0.00    -0.025 C 
HETATM    8  C   UNL     1      11.276  -1.580  23.033  1.00  0.00    -0.007 C 
HETATM    9  C   UNL     1       9.082  -0.949  22.390  1.00  0.00     0.040 A 
ENDROOT
BRANCH   9  10
HETATM   10  C   UNL     1       8.552  -0.352  21.309  1.00  0.00     0.254 C 
HETATM   11  O   UNL     1       9.269   0.333  20.725  1.00  0.00    -0.268 OA
HETATM   12  N   UNL     1       7.286  -0.659  21.154  1.00  0.00    -0.321 N 
ATOM     13  HN  UNL     1       6.812  -1.250  21.837  1.00  0.00     0.169 HD
BRANCH  12  14
HETATM   14  C   UNL     1       6.670  -0.219  20.163  1.00  0.00     0.056 A 
HETATM   15  C   UNL     1       6.343  -0.582  18.979  1.00  0.00     0.117 A 
HETATM   16  N   UNL     1       5.764  -0.382  17.859  1.00  0.00    -0.373 N 
HETATM   17  C   UNL     1       5.301   0.778  18.107  1.00  0.00     0.088 A 
ATOM     18  HN  UNL     1       5.694  -0.968  17.027  1.00  0.00     0.164 HD
HETATM   19  C   UNL     1       5.372   1.502  19.188  1.00  0.00     0.026 A 
HETATM   20  C   UNL     1       5.931   1.253  20.312  1.00  0.00    -0.033 A 
HETATM   21  C   UNL     1       5.985   2.041  21.512  1.00  0.00     0.050 C 
ENDBRANCH  12  14
ENDBRANCH   9  10
BRANCH   1  22
HETATM   22  N   UNL     1       7.738  -4.486  24.017  1.00  0.00    -0.295 N 
ATOM     23  HN  UNL     1       7.823  -4.874  24.957  1.00  0.00     0.177 HD
BRANCH  22  24
HETATM   24  S   UNL     1       6.583  -5.163  23.077  1.00  0.00     0.226 S 
HETATM   25  C   UNL     1       5.592  -3.845  22.523  1.00  0.00     0.186 C 
HETATM   26  O   UNL     1       7.165  -5.764  21.910  1.00  0.00    -0.206 OA
HETATM   27  O   UNL     1       5.734  -6.052  23.808  1.00  0.00    -0.206 OA
ENDBRANCH  22  24
ENDBRANCH   1  22
TORSDOF 4
ENDMDL
MODEL 2
REMARK VINA RESULT:    -7.956      1.535      1.749
REMARK INTER + INTRA:         -10.533
REMARK INTER:                  -9.896
REMARK INTRA:                  -0.637
REMARK UNBOUND:                -0.717
REMARK  4 active torsions:
REMARK  status: ('A' for Active; 'I' for Inactive)
REMARK    1  A    between atoms: S_2  and  N_5 
REMARK    2  A    between atoms: N_5  and  C_7 
REMARK    3  A    between atoms: C_15  and  C_16 
REMARK       I    between atoms: C_16  and  N_18 
REMARK    4  A    between atoms: N_18  and  C_20 
ROOT
HETATM    1  C   UNL     1       8.623  -3.357  24.274  1.00  0.00     0.109 C 
HETATM    2  C   UNL     1       8.971  -2.286  23.694  1.00  0.00    -0.008 A 
HETATM    3  C   UNL     1       9.723  -1.249  23.643  1.00  0.00     0.057 A 
HETATM    4  C   UNL     1       9.975  -0.060  24.789  1.00  0.00    -0.007 C 
HETATM    5  C   UNL     1      10.871   0.446  24.954  1.00  0.00    -0.025 C 
HETATM    6  C   UNL     1      12.233   0.273  24.384  1.00  0.00     0.053 C 
HETATM    7  C   UNL     1      12.162  -0.887  23.487  1.00  0.00    -0.025 C 
HETATM    8  C   UNL     1      11.411  -1.501  23.192  1.00  0.00    -0.007 C 
HETATM    9  C   UNL     1       9.198  -0.855  22.634  1.00  0.00     0.040 A 
ENDROOT
BRANCH   9  10
HETATM   10  C   UNL     1       8.615  -0.338  21.539  1.00  0.00     0.254 C 
HETATM   11  O   UNL     1       9.321   0.222  20.824  1.00  0.00    -0.268 OA
HETATM   12  N   UNL     1       7.323  -0.563  21.523  1.00  0.00    -0.321 N 
ATOM     13  HN  UNL     1       6.873  -1.040  22.305  1.00  0.00     0.169 HD
BRANCH  12  14
HETATM   14  C   UNL     1       6.651  -0.187  20.542  1.00  0.00     0.056 A 
HETATM   15  C   UNL     1       6.206  -0.646  19.432  1.00  0.00     0.117 A 
HETATM   16  N   UNL     1       5.546  -0.524  18.346  1.00  0.00    -0.373 N 
HETATM   17  C   UNL     1       5.173   0.683  18.504  1.00  0.00     0.088 A 
ATOM     18  HN  UNL     1       5.372  -1.186  17.590  1.00  0.00     0.164 HD
HETATM   19  C   UNL     1       5.376   1.507  19.492  1.00  0.00     0.026 A 
HETATM   20  C   UNL     1       6.013   1.338  20.589  1.00  0.00    -0.033 A 
HETATM   21  C   UNL     1       6.214   2.239  21.691  1.00  0.00     0.050 C 
ENDBRANCH  12  14
ENDBRANCH   9  10
BRANCH   1  22
HETATM   22  N   UNL     1       7.865  -4.183  24.661  1.00  0.00    -0.295 N 
ATOM     23  HN  UNL     1       7.330  -4.663  23.936  1.00  0.00     0.177 HD
BRANCH  22  24
HETATM   24  S   UNL     1       7.557  -4.659  26.196  1.00  0.00     0.226 S 
HETATM   25  C   UNL     1       6.396  -3.523  26.818  1.00  0.00     0.186 C 
HETATM   26  O   UNL     1       6.927  -5.948  26.212  1.00  0.00    -0.206 OA
HETATM   27  O   UNL     1       8.714  -4.583  27.034  1.00  0.00    -0.206 OA
ENDBRANCH  22  24
ENDBRANCH   1  22
TORSDOF 4
ENDMDL
MODEL 3
REMARK VINA RESULT:    -7.945      2.712      6.109
REMARK INTER + INTRA:         -10.520
REMARK INTER:                  -9.657
REMARK INTRA:                  -0.862
REMARK UNBOUND:                -0.717
REMARK  4 active torsions:
REMARK  status: ('A' for Active; 'I' for Inactive)
REMARK    1  A    between atoms: S_2  and  N_5 
REMARK    2  A    between atoms: N_5  and  C_7 
REMARK    3  A    between atoms: C_15  and  C_16 
REMARK       I    between atoms: C_16  and  N_18 
REMARK    4  A    between atoms: N_18  and  C_20 
ROOT
HETATM    1  C   UNL     1       8.355   0.625  22.423  1.00  0.00     0.109 C 
HETATM    2  C   UNL     1       8.945  -0.156  23.225  1.00  0.00    -0.008 A 
HETATM    3  C   UNL     1      10.031  -0.677  23.667  1.00  0.00     0.057 A 
HETATM    4  C   UNL     1      11.221  -1.513  22.845  1.00  0.00    -0.007 C 
HETATM    5  C   UNL     1      12.240  -1.491  23.061  1.00  0.00    -0.025 C 
HETATM    6  C   UNL     1      13.037  -0.689  24.026  1.00  0.00     0.053 C 
HETATM    7  C   UNL     1      12.094   0.227  24.681  1.00  0.00    -0.025 C 
HETATM    8  C   UNL     1      11.091   0.364  24.620  1.00  0.00    -0.007 C 
HETATM    9  C   UNL     1       9.443  -1.336  24.484  1.00  0.00     0.040 A 
ENDROOT
BRANCH   9  10
HETATM   10  C   UNL     1       8.837  -2.136  25.379  1.00  0.00     0.254 C 
HETATM   11  O   UNL     1       8.625  -1.654  26.402  1.00  0.00    -0.268 OA
HETATM   12  N   UNL     1       8.631  -3.338  24.897  1.00  0.00    -0.321 N 
ATOM     13  HN  UNL     1       8.958  -3.582  23.962  1.00  0.00     0.169 HD
BRANCH  12  14
HETATM   14  C   UNL     1       8.029  -4.179  25.595  1.00  0.00     0.056 A 
HETATM   15  C   UNL     1       8.254  -4.970  26.576  1.00  0.00     0.117 A 
HETATM   16  N   UNL     1       7.877  -5.843  27.428  1.00  0.00    -0.373 N 
HETATM   17  C   UNL     1       6.661  -5.929  27.063  1.00  0.00     0.088 A 
ATOM     18  HN  UNL     1       8.391  -6.321  28.169  1.00  0.00     0.164 HD
HETATM   19  C   UNL     1       6.011  -5.289  26.135  1.00  0.00     0.026 A 
HETATM   20  C   UNL     1       6.412  -4.387  25.320  1.00  0.00    -0.033 A 
HETATM   21  C   UNL     1       5.687  -3.661  24.313  1.00  0.00     0.050 C 
ENDBRANCH  12  14
ENDBRANCH   9  10
BRANCH   1  22
HETATM   22  N   UNL     1       7.487   0.979  21.695  1.00  0.00    -0.295 N 
ATOM     23  HN  UNL     1       7.028   1.853  21.950  1.00  0.00     0.177 HD
BRANCH  22  24
HETATM   24  S   UNL     1       6.924   0.257  20.338  1.00  0.00     0.226 S 
HETATM   25  C   UNL     1       5.633   1.271  19.764  1.00  0.00     0.186 C 
HETATM   26  O   UNL     1       7.930   0.245  19.315  1.00  0.00    -0.206 OA
HETATM   27  O   UNL     1       6.365  -1.034  20.597  1.00  0.00    -0.206 OA
ENDBRANCH  22  24
ENDBRANCH   1  22
TORSDOF 4
ENDMDL
MODEL 4
REMARK VINA RESULT:    -7.586      3.566      6.047
REMARK INTER + INTRA:         -10.077
REMARK INTER:                  -9.288
REMARK INTRA:                  -0.789
REMARK UNBOUND:                -0.717
REMARK  4 active torsions:
REMARK  status: ('A' for Active; 'I' for Inactive)
REMARK    1  A    between atoms: S_2  and  N_5 
REMARK    2  A    between atoms: N_5  and  C_7 
REMARK    3  A    between atoms: C_15  and  C_16 
REMARK       I    between atoms: C_16  and  N_18 
REMARK    4  A    between atoms: N_18  and  C_20 
ROOT
HETATM    1  C   UNL     1       7.102  -5.536  26.707  1.00  0.00     0.109 C 
HETATM    2  C   UNL     1       7.263  -4.780  25.704  1.00  0.00    -0.008 A 
HETATM    3  C   UNL     1       7.131  -4.565  24.447  1.00  0.00     0.057 A 
HETATM    4  C   UNL     1       7.661  -5.476  23.150  1.00  0.00    -0.007 C 
HETATM    5  C   UNL     1       7.169  -5.580  22.238  1.00  0.00    -0.025 C 
HETATM    6  C   UNL     1       5.842  -5.111  21.762  1.00  0.00     0.053 C 
HETATM    7  C   UNL     1       5.204  -4.447  22.906  1.00  0.00    -0.025 C 
HETATM    8  C   UNL     1       5.500  -4.241  23.853  1.00  0.00    -0.007 C 
HETATM    9  C   UNL     1       7.643  -3.479  24.525  1.00  0.00     0.040 A 
ENDROOT
BRANCH   9  10
HETATM   10  C   UNL     1       8.255  -2.283  24.544  1.00  0.00     0.254 C 
HETATM   11  O   UNL     1       7.702  -1.457  25.125  1.00  0.00    -0.268 OA
HETATM   12  N   UNL     1       9.371  -2.296  23.856  1.00  0.00    -0.321 N 
ATOM     13  HN  UNL     1       9.657  -3.137  23.354  1.00  0.00     0.169 HD
BRANCH  12  14
HETATM   14  C   UNL     1      10.079  -1.270  23.822  1.00  0.00     0.056 A 
HETATM   15  C   UNL     1      11.008  -0.704  24.497  1.00  0.00     0.117 A 
HETATM   16  N   UNL     1      11.851   0.236  24.686  1.00  0.00    -0.373 N 
HETATM   17  C   UNL     1      11.577   0.926  23.652  1.00  0.00     0.088 A 
ATOM     18  HN  UNL     1      12.532   0.386  25.431  1.00  0.00     0.164 HD
HETATM   19  C   UNL     1      10.726   0.705  22.691  1.00  0.00     0.026 A 
HETATM   20  C   UNL     1       9.920  -0.272  22.512  1.00  0.00    -0.033 A 
HETATM   21  C   UNL     1       9.001  -0.529  21.437  1.00  0.00     0.050 C 
ENDBRANCH  12  14
ENDBRANCH   9  10
BRANCH   1  22
HETATM   22  N   UNL     1       7.390  -6.040  27.742  1.00  0.00    -0.295 N 
ATOM     23  HN  UNL     1       8.373  -6.285  27.853  1.00  0.00     0.177 HD
BRANCH  22  24
HETATM   24  S   UNL     1       6.426  -6.394  29.016  1.00  0.00     0.226 S 
HETATM   25  C   UNL     1       4.838  -6.644  28.352  1.00  0.00     0.186 C 
HETATM   26  O   UNL     1       6.822  -7.633  29.623  1.00  0.00    -0.206 OA
HETATM   27  O   UNL     1       6.330  -5.313  29.947  1.00  0.00    -0.206 OA
ENDBRANCH  22  24
ENDBRANCH   1  22
TORSDOF 4
ENDMDL
MODEL 5
REMARK VINA RESULT:    -7.380      2.596      6.222
REMARK INTER + INTRA:          -9.823
REMARK INTER:                  -9.046
REMARK INTRA:                  -0.777
REMARK UNBOUND:                -0.717
REMARK  4 active torsions:
REMARK  status: ('A' for Active; 'I' for Inactive)
REMARK    1  A    between atoms: S_2  and  N_5 
REMARK    2  A    between atoms: N_5  and  C_7 
REMARK    3  A    between atoms: C_15  and  C_16 
REMARK       I    between atoms: C_16  and  N_18 
REMARK    4  A    between atoms: N_18  and  C_20 
ROOT
HETATM    1  C   UNL     1       9.383   0.094  21.504  1.00  0.00     0.109 C 
HETATM    2  C   UNL     1       8.195  -0.249  21.233  1.00  0.00    -0.008 A 
HETATM    3  C   UNL     1       7.060   0.018  20.700  1.00  0.00     0.057 A 
HETATM    4  C   UNL     1       6.040   1.316  20.960  1.00  0.00    -0.007 C 
HETATM    5  C   UNL     1       5.436   1.769  20.242  1.00  0.00    -0.025 C 
HETATM    6  C   UNL     1       5.308   1.565  18.775  1.00  0.00     0.053 C 
HETATM    7  C   UNL     1       6.310   0.557  18.408  1.00  0.00    -0.025 C 
HETATM    8  C   UNL     1       6.978   0.006  18.936  1.00  0.00    -0.007 C 
HETATM    9  C   UNL     1       6.597  -1.043  21.030  1.00  0.00     0.040 A 
ENDROOT
BRANCH   9  10
HETATM   10  C   UNL     1       6.010  -2.188  21.417  1.00  0.00     0.254 C 
HETATM   11  O   UNL     1       5.590  -2.837  20.565  1.00  0.00    -0.268 OA
HETATM   12  N   UNL     1       6.015  -2.321  22.722  1.00  0.00    -0.321 N 
ATOM     13  HN  UNL     1       6.395  -1.582  23.313  1.00  0.00     0.169 HD
BRANCH  12  14
HETATM   14  C   UNL     1       5.550  -3.360  23.230  1.00  0.00     0.056 A 
HETATM   15  C   UNL     1       4.418  -3.927  23.428  1.00  0.00     0.117 A 
HETATM   16  N   UNL     1       3.702  -4.893  23.855  1.00  0.00    -0.373 N 
HETATM   17  C   UNL     1       4.644  -5.625  24.300  1.00  0.00     0.088 A 
ATOM     18  HN  UNL     1       2.691  -5.034  23.844  1.00  0.00     0.164 HD
HETATM   19  C   UNL     1       5.933  -5.446  24.279  1.00  0.00     0.026 A 
HETATM   20  C   UNL     1       6.624  -4.479  23.805  1.00  0.00    -0.033 A 
HETATM   21  C   UNL     1       8.049  -4.296  23.758  1.00  0.00     0.050 C 
ENDBRANCH  12  14
ENDBRANCH   9  10
BRANCH   1  22
HETATM   22  N   UNL     1      10.366   0.170  22.164  1.00  0.00    -0.295 N 
ATOM     23  HN  UNL     1      10.902   1.031  22.057  1.00  0.00     0.177 HD
BRANCH  22  24
HETATM   24  S   UNL     1      10.980  -0.915  23.224  1.00  0.00     0.226 S 
HETATM   25  C   UNL     1      12.081  -0.021  24.231  1.00  0.00     0.186 C 
HETATM   26  O   UNL     1       9.950  -1.424  24.084  1.00  0.00    -0.206 OA
HETATM   27  O   UNL     1      11.737  -1.942  22.578  1.00  0.00    -0.206 OA
ENDBRANCH  22  24
ENDBRANCH   1  22
TORSDOF 4
ENDMDL
MODEL 6
REMARK VINA RESULT:    -7.076     14.546     16.036
REMARK INTER + INTRA:          -9.448
REMARK INTER:                  -8.652
REMARK INTRA:                  -0.795
REMARK UNBOUND:                -0.717
REMARK  4 active torsions:
REMARK  status: ('A' for Active; 'I' for Inactive)
REMARK    1  A    between atoms: S_2  and  N_5 
REMARK    2  A    between atoms: N_5  and  C_7 
REMARK    3  A    between atoms: C_15  and  C_16 
REMARK       I    between atoms: C_16  and  N_18 
REMARK    4  A    between atoms: N_18  and  C_20 
ROOT
HETATM    1  C   UNL     1      23.980  -4.160  24.331  1.00  0.00     0.109 C 
HETATM    2  C   UNL     1      23.673  -3.081  23.743  1.00  0.00    -0.008 A 
HETATM    3  C   UNL     1      23.068  -1.951  23.748  1.00  0.00     0.057 A 
HETATM    4  C   UNL     1      21.458  -1.607  24.034  1.00  0.00    -0.007 C 
HETATM    5  C   UNL     1      21.093  -0.752  24.503  1.00  0.00    -0.025 C 
HETATM    6  C   UNL     1      21.775   0.384  25.177  1.00  0.00     0.053 C 
HETATM    7  C   UNL     1      23.212   0.081  25.145  1.00  0.00    -0.025 C 
HETATM    8  C   UNL     1      23.762  -0.672  24.747  1.00  0.00    -0.007 C 
HETATM    9  C   UNL     1      23.434  -1.692  22.631  1.00  0.00     0.040 A 
ENDROOT
BRANCH   9  10
HETATM   10  C   UNL     1      23.768  -1.372  21.369  1.00  0.00     0.254 C 
HETATM   11  O   UNL     1      24.736  -0.760  21.257  1.00  0.00    -0.268 OA
HETATM   12  N   UNL     1      22.885  -1.813  20.505  1.00  0.00    -0.321 N 
ATOM     13  HN  UNL     1      22.045  -2.293  20.826  1.00  0.00     0.169 HD
BRANCH  12  14
HETATM   14  C   UNL     1      23.085  -1.637  19.287  1.00  0.00     0.056 A 
HETATM   15  C   UNL     1      22.870  -0.758  18.381  1.00  0.00     0.117 A 
HETATM   16  N   UNL     1      22.962  -0.330  17.181  1.00  0.00    -0.373 N 
HETATM   17  C   UNL     1      23.588  -1.324  16.690  1.00  0.00     0.088 A 
ATOM     18  HN  UNL     1      22.636   0.536  16.752  1.00  0.00     0.164 HD
HETATM   19  C   UNL     1      24.026  -2.410  17.258  1.00  0.00     0.026 A 
HETATM   20  C   UNL     1      23.950  -2.792  18.478  1.00  0.00    -0.033 A 
HETATM   21  C   UNL     1      24.457  -3.978  19.109  1.00  0.00     0.050 C 
ENDBRANCH  12  14
ENDBRANCH   9  10
BRANCH   1  22
HETATM   22  N   UNL     1      24.200  -5.323  24.418  1.00  0.00    -0.295 N 
ATOM     23  HN  UNL     1      24.239  -5.830  23.535  1.00  0.00     0.177 HD
BRANCH  22  24
HETATM   24  S   UNL     1      24.451  -6.224  25.761  1.00  0.00     0.226 S 
HETATM   25  C   UNL     1      26.177  -6.311  25.955  1.00  0.00     0.186 C 
HETATM   26  O   UNL     1      23.935  -5.559  26.923  1.00  0.00    -0.206 OA
HETATM   27  O   UNL     1      23.973  -7.565  25.617  1.00  0.00    -0.206 OA
ENDBRANCH  22  24
ENDBRANCH   1  22
TORSDOF 4
ENDMDL
MODEL 7
REMARK VINA RESULT:    -6.689     23.023     26.100
REMARK INTER + INTRA:          -8.971
REMARK INTER:                  -8.250
REMARK INTRA:                  -0.721
REMARK UNBOUND:                -0.717
REMARK  4 active torsions:
REMARK  status: ('A' for Active; 'I' for Inactive)
REMARK    1  A    between atoms: S_2  and  N_5 
REMARK    2  A    between atoms: N_5  and  C_7 
REMARK    3  A    between atoms: C_15  and  C_16 
REMARK       I    between atoms: C_16  and  N_18 
REMARK    4  A    between atoms: N_18  and  C_20 
ROOT
HETATM    1  C   UNL     1       7.880  14.181   2.286  1.00  0.00     0.109 C 
HETATM    2  C   UNL     1       8.467  15.276   2.526  1.00  0.00    -0.008 A 
HETATM    3  C   UNL     1       8.683  16.505   2.231  1.00  0.00     0.057 A 
HETATM    4  C   UNL     1       9.200  17.179   0.792  1.00  0.00    -0.007 C 
HETATM    5  C   UNL     1       8.912  18.107   0.417  1.00  0.00    -0.025 C 
HETATM    6  C   UNL     1       7.914  19.105   0.883  1.00  0.00     0.053 C 
HETATM    7  C   UNL     1       7.259  18.517   2.058  1.00  0.00    -0.025 C 
HETATM    8  C   UNL     1       7.386  17.653   2.574  1.00  0.00    -0.007 C 
HETATM    9  C   UNL     1       9.455  16.643   3.143  1.00  0.00     0.040 A 
ENDROOT
BRANCH   9  10
HETATM   10  C   UNL     1      10.366  16.841   4.111  1.00  0.00     0.254 C 
HETATM   11  O   UNL     1      11.212  16.063   4.156  1.00  0.00    -0.268 OA
HETATM   12  N   UNL     1      10.080  17.892   4.841  1.00  0.00    -0.321 N 
ATOM     13  HN  UNL     1       9.227  18.424   4.667  1.00  0.00     0.169 HD
BRANCH  12  14
HETATM   14  C   UNL     1      10.862  18.234   5.750  1.00  0.00     0.056 A 
HETATM   15  C   UNL     1      11.100  17.973   6.982  1.00  0.00     0.117 A 
HETATM   16  N   UNL     1      11.769  18.129   8.057  1.00  0.00    -0.373 N 
HETATM   17  C   UNL     1      12.599  18.990   7.622  1.00  0.00     0.088 A 
ATOM     18  HN  UNL     1      11.670  17.698   8.977  1.00  0.00     0.164 HD
HETATM   19  C   UNL     1      12.734  19.509   6.435  1.00  0.00     0.026 A 
HETATM   20  C   UNL     1      12.066  19.300   5.364  1.00  0.00    -0.033 A 
HETATM   21  C   UNL     1      12.233  19.853   4.048  1.00  0.00     0.050 C 
ENDBRANCH  12  14
ENDBRANCH   9  10
BRANCH   1  22
HETATM   22  N   UNL     1       7.775  13.001   2.204  1.00  0.00    -0.295 N 
ATOM     23  HN  UNL     1       7.896  12.614   1.268  1.00  0.00     0.177 HD
BRANCH  22  24
HETATM   24  S   UNL     1       7.465  11.912   3.384  1.00  0.00     0.226 S 
HETATM   25  C   UNL     1       6.325  12.681   4.449  1.00  0.00     0.186 C 
HETATM   26  O   UNL     1       6.814  10.751   2.847  1.00  0.00    -0.206 OA
HETATM   27  O   UNL     1       8.625  11.601   4.161  1.00  0.00    -0.206 OA
ENDBRANCH  22  24
ENDBRANCH   1  22
TORSDOF 4
ENDMDL
MODEL 8
REMARK VINA RESULT:    -6.662      3.200      6.638
REMARK INTER + INTRA:          -8.937
REMARK INTER:                  -8.166
REMARK INTRA:                  -0.771
REMARK UNBOUND:                -0.717
REMARK  4 active torsions:
REMARK  status: ('A' for Active; 'I' for Inactive)
REMARK    1  A    between atoms: S_2  and  N_5 
REMARK    2  A    between atoms: N_5  and  C_7 
REMARK    3  A    between atoms: C_15  and  C_16 
REMARK       I    between atoms: C_16  and  N_18 
REMARK    4  A    between atoms: N_18  and  C_20 
ROOT
HETATM    1  C   UNL     1       7.932   2.077  22.101  1.00  0.00     0.109 C 
HETATM    2  C   UNL     1       7.432   1.023  21.608  1.00  0.00    -0.008 A 
HETATM    3  C   UNL     1       6.759   0.445  20.682  1.00  0.00     0.057 A 
HETATM    4  C   UNL     1       5.223   0.779  20.116  1.00  0.00    -0.007 C 
HETATM    5  C   UNL     1       4.902   0.673  19.130  1.00  0.00    -0.025 C 
HETATM    6  C   UNL     1       5.624   0.328  17.878  1.00  0.00     0.053 C 
HETATM    7  C   UNL     1       7.040   0.195  18.241  1.00  0.00    -0.025 C 
HETATM    8  C   UNL     1       7.550   0.253  19.115  1.00  0.00    -0.007 C 
HETATM    9  C   UNL     1       6.865  -0.633  21.207  1.00  0.00     0.040 A 
ENDROOT
BRANCH   9  10
HETATM   10  C   UNL     1       6.905  -1.851  21.773  1.00  0.00     0.254 C 
HETATM   11  O   UNL     1       7.946  -2.197  22.120  1.00  0.00    -0.268 OA
HETATM   12  N   UNL     1       5.724  -2.420  21.789  1.00  0.00    -0.321 N 
ATOM     13  HN  UNL     1       4.922  -1.954  21.364  1.00  0.00     0.169 HD
BRANCH  12  14
HETATM   14  C   UNL     1       5.592  -3.536  22.330  1.00  0.00     0.056 A 
HETATM   15  C   UNL     1       5.671  -4.779  22.032  1.00  0.00     0.117 A 
HETATM   16  N   UNL     1       5.616  -6.016  22.339  1.00  0.00    -0.373 N 
HETATM   17  C   UNL     1       5.332  -5.877  23.573  1.00  0.00     0.088 A 
ATOM     18  HN  UNL     1       5.755  -6.854  21.774  1.00  0.00     0.164 HD
HETATM   19  C   UNL     1       5.187  -4.799  24.289  1.00  0.00     0.026 A 
HETATM   20  C   UNL     1       5.289  -3.568  23.956  1.00  0.00    -0.033 A 
HETATM   21  C   UNL     1       5.156  -2.380  24.753  1.00  0.00     0.050 C 
ENDBRANCH  12  14
ENDBRANCH   9  10
BRANCH   1  22
HETATM   22  N   UNL     1       8.251   2.824  22.966  1.00  0.00    -0.295 N 
ATOM     23  HN  UNL     1       7.623   3.613  23.119  1.00  0.00     0.177 HD
BRANCH  22  24
HETATM   24  S   UNL     1       9.560   2.764  23.946  1.00  0.00     0.226 S 
HETATM   25  C   UNL     1      10.844   2.099  22.979  1.00  0.00     0.186 C 
HETATM   26  O   UNL     1       9.969   4.085  24.329  1.00  0.00    -0.206 OA
HETATM   27  O   UNL     1       9.370   1.885  25.059  1.00  0.00    -0.206 OA
ENDBRANCH  22  24
ENDBRANCH   1  22
TORSDOF 4
ENDMDL
MODEL 9
REMARK VINA RESULT:    -6.661     19.501     22.752
REMARK INTER + INTRA:          -8.936
REMARK INTER:                  -8.359
REMARK INTRA:                  -0.577
REMARK UNBOUND:                -0.717
REMARK  4 active torsions:
REMARK  status: ('A' for Active; 'I' for Inactive)
REMARK    1  A    between atoms: S_2  and  N_5 
REMARK    2  A    between atoms: N_5  and  C_7 
REMARK    3  A    between atoms: C_15  and  C_16 
REMARK       I    between atoms: C_16  and  N_18 
REMARK    4  A    between atoms: N_18  and  C_20 
ROOT
HETATM    1  C   UNL     1       8.154  12.562   3.273  1.00  0.00     0.109 C 
HETATM    2  C   UNL     1       7.071  11.954   3.523  1.00  0.00    -0.008 A 
HETATM    3  C   UNL     1       5.790  11.948   3.567  1.00  0.00     0.057 A 
HETATM    4  C   UNL     1       4.746  12.986   4.358  1.00  0.00    -0.007 C 
HETATM    5  C   UNL     1       3.805  13.277   4.019  1.00  0.00    -0.025 C 
HETATM    6  C   UNL     1       3.082  13.024   2.746  1.00  0.00     0.053 C 
HETATM    7  C   UNL     1       4.002  12.263   1.891  1.00  0.00    -0.025 C 
HETATM    8  C   UNL     1       4.934  11.887   2.024  1.00  0.00    -0.007 C 
HETATM    9  C   UNL     1       5.758  10.816   3.973  1.00  0.00     0.040 A 
ENDROOT
BRANCH   9  10
HETATM   10  C   UNL     1       5.662   9.574   4.478  1.00  0.00     0.254 C 
HETATM   11  O   UNL     1       6.441   9.310   5.283  1.00  0.00    -0.268 OA
HETATM   12  N   UNL     1       4.691   8.894   3.917  1.00  0.00    -0.321 N 
ATOM     13  HN  UNL     1       4.144   9.305   3.161  1.00  0.00     0.169 HD
BRANCH  12  14
HETATM   14  C   UNL     1       4.446   7.738   4.318  1.00  0.00     0.056 A 
HETATM   15  C   UNL     1       5.001   6.585   4.366  1.00  0.00     0.117 A 
HETATM   16  N   UNL     1       5.008   5.351   4.695  1.00  0.00    -0.373 N 
HETATM   17  C   UNL     1       3.858   5.310   5.240  1.00  0.00     0.088 A 
ATOM     18  HN  UNL     1       5.714   4.627   4.562  1.00  0.00     0.164 HD
HETATM   19  C   UNL     1       2.979   6.252   5.430  1.00  0.00     0.026 A 
HETATM   20  C   UNL     1       3.021   7.493   5.121  1.00  0.00    -0.033 A 
HETATM   21  C   UNL     1       2.062   8.537   5.356  1.00  0.00     0.050 C 
ENDBRANCH  12  14
ENDBRANCH   9  10
BRANCH   1  22
HETATM   22  N   UNL     1       9.287  12.871   3.440  1.00  0.00    -0.295 N 
ATOM     23  HN  UNL     1       9.968  12.118   3.335  1.00  0.00     0.177 HD
BRANCH  22  24
HETATM   24  S   UNL     1       9.909  14.337   3.816  1.00  0.00     0.226 S 
HETATM   25  C   UNL     1       8.565  15.293   4.366  1.00  0.00     0.186 C 
HETATM   26  O   UNL     1      10.824  14.234   4.917  1.00  0.00    -0.206 OA
HETATM   27  O   UNL     1      10.465  15.003   2.678  1.00  0.00    -0.206 OA
ENDBRANCH  22  24
ENDBRANCH   1  22
TORSDOF 4
ENDMDL
