REMARK  2 active torsions:
REMARK  status: ('A' for Active; 'I' for Inactive)
REMARK    1  A    between atoms: C_6  and  C_7 
REMARK    2  A    between atoms: C_16  and  O_17 
ROOT
HETATM    1  C   UNL     1       8.641  -1.191  21.981  1.00  0.00     0.078 C 
HETATM    2  C   UNL     1       9.238  -0.027  21.457  1.00  0.00     0.123 C 
HETATM    3  N   UNL     1       7.609  -1.317  21.082  1.00  0.00    -0.319 N 
ATOM      4  HN  UNL     1       6.997  -2.127  20.979  1.00  0.00     0.169 HD
HETATM    5  N   UNL     1       8.315   0.728  20.898  1.00  0.00    -0.330 N 
ATOM      6  HN  UNL     1       8.229   1.744  20.908  1.00  0.00     0.168 HD
HETATM    7  C   UNL     1       7.548  -0.140  20.336  1.00  0.00     0.223 C 
ENDROOT
BRANCH   1   8
HETATM    8  C   UNL     1       9.006  -1.914  23.110  1.00  0.00     0.066 C 
HETATM    9  N   UNL     1       8.122  -2.868  23.657  1.00  0.00    -0.360 N 
HETATM   10  C   UNL     1       8.169  -3.388  24.833  1.00  0.00     0.143 C 
ATOM     11  HN  UNL     1       7.361  -3.180  23.053  1.00  0.00     0.165 HD
HETATM   12  C   UNL     1       9.191  -3.040  25.750  1.00  0.00     0.187 C 
HETATM   13  C   UNL     1      10.104  -1.970  25.098  1.00  0.00     0.065 C 
HETATM   14  O   UNL     1       9.250  -3.403  26.907  1.00  0.00    -0.287 OA
HETATM   15  C   UNL     1      10.230  -1.678  23.796  1.00  0.00    -0.029 C 
HETATM   16  C   UNL     1      11.577  -1.184  23.300  1.00  0.00     0.050 C 
ENDBRANCH   1   8
BRANCH   7  17
HETATM   17  O   UNL     1       6.993   0.303  19.198  1.00  0.00    -0.327 OA
HETATM   18  C   UNL     1       5.628   0.532  19.457  1.00  0.00     0.213 C 
ENDBRANCH   7  17
TORSDOF 2
