stable:False satoms:22 tatoms:24 sratio:0.9166666666666666
  -OEChem-07092417363D

 24 25  0     1  0  0  0  0  0999 V2000
    7.3935   -4.0969   25.1708 H   0  0  0  0  0  0  0  0  0  0  0  0
    8.1687   -3.3878   24.8331 C   0  0  0  0  0  0  0  0  0  0  0  0
    9.1905   -3.0401   25.7495 C   0  0  0  0  0  0  0  0  0  0  0  0
    9.2503   -3.4027   26.9072 O   0  0  0  0  0  0  0  0  0  0  0  0
    8.1221   -2.8682   23.6570 N   0  0  0  0  0  0  0  0  0  0  0  0
    8.6410   -1.1914   21.9812 C   0  0  0  0  0  0  0  0  0  0  0  0
    9.0062   -1.9142   23.1105 C   0  0  0  0  0  0  0  0  0  0  0  0
   10.2301   -1.6781   23.7955 C   0  0  0  0  0  0  0  0  0  0  0  0
   10.7423   -1.4482   25.7992 H   0  0  0  0  0  0  0  0  0  0  0  0
   11.6312   -0.1010   23.3737 H   0  0  0  0  0  0  0  0  0  0  0  0
   12.4017   -1.5616   23.9254 H   0  0  0  0  0  0  0  0  0  0  0  0
   11.7595   -1.5303   22.2864 H   0  0  0  0  0  0  0  0  0  0  0  0
   11.5771   -1.1843   23.3004 C   0  0  0  0  0  0  0  0  0  0  0  0
   10.1039   -1.9704   25.0977 C   0  0  0  0  0  0  0  0  0  0  0  0
   10.2710    0.2355   21.4326 H   0  0  0  0  0  0  0  0  0  0  0  0
    9.2376   -0.0266   21.4575 C   0  0  0  0  0  0  0  0  0  0  0  0
    7.6090   -1.3172   21.0816 N   0  0  0  0  0  0  0  0  0  0  0  0
    8.3148    0.7277   20.8977 N   0  0  0  0  0  0  0  0  0  0  0  0
    7.5478   -0.1404   20.3362 C   0  0  3  0  0  0  0  0  0  0  0  0
    6.9926    0.3033   19.1975 O   0  0  0  0  0  0  0  0  0  0  0  0
    5.0950   -0.3158   19.0246 H   0  0  0  0  0  0  0  0  0  0  0  0
    5.2833    1.4192   18.8988 H   0  0  0  0  0  0  0  0  0  0  0  0
    5.6276    0.5318   19.4574 C   0  0  0  0  0  0  0  0  0  0  0  0
    5.3872    0.6674   20.5252 H   0  0  0  0  0  0  0  0  0  0  0  0
 22 23  1  0  0  0  0
 21 23  1  0  0  0  0
 20 23  1  0  0  0  0
 19 20  1  0  0  0  0
 23 24  1  0  0  0  0
 18 19  1  0  0  0  0
 17 19  1  0  0  0  0
 16 18  1  0  0  0  0
  6 17  1  0  0  0  0
 15 16  1  0  0  0  0
  6 16  2  0  0  0  0
  6  7  1  0  0  0  0
 12 13  1  0  0  0  0
  5  7  2  0  0  0  0
  7  8  1  0  0  0  0
 10 13  1  0  0  0  0
  8 13  1  0  0  0  0
 11 13  1  0  0  0  0
  2  5  1  0  0  0  0
  8 14  2  0  0  0  0
  1  2  1  0  0  0  0
  2  3  2  0  0  0  0
  3 14  1  0  0  0  0
  9 14  1  0  0  0  0
  3  4  1  0  0  0  0
M  END
> <Shapegauss>
-157.317047

$$$$
