REMARK  9 active torsions:
REMARK  status: ('A' for Active; 'I' for Inactive)
REMARK    1  A    between atoms: C_1  and  N_8 
REMARK    2  A    between atoms: C_1  and  N_14 
REMARK    3  A    between atoms: C_2  and  S_6 
REMARK    4  A    between atoms: C_2  and  S_7 
REMARK    5  A    between atoms: C_3  and  N_8 
REMARK    6  A    between atoms: N_4  and  N_10 
REMARK    7  A    between atoms: S_6  and  C_22 
REMARK    8  A    between atoms: S_7  and  C_16 
REMARK    9  A    between atoms: N_10  and  N_24 
ROOT
HETATM    1  N   UNL     1      10.294   1.123  22.058  1.00  0.00    -0.417 N 
ATOM      2  HN  UNL     1      10.963   1.347  22.795  1.00  0.00     0.154 HD
HETATM    3  H   UNL     1      10.636   0.485  21.369  1.00  0.00     0.154 HD
HETATM    4  C   UNL     1       9.222   1.676  22.169  1.00  0.00     0.108 C 
ENDROOT
TORSDOF 9
