stable:False satoms:20 tatoms:24 sratio:0.8333333333333334
  -OEChem-07092417343D

 24 24  0     0  0  0  0  0  0999 V2000
    7.4765   -4.2334   25.9501 H   0  0  0  0  0  0  0  0  0  0  0  0
    7.7678   -2.5265   26.2251 H   0  0  0  0  0  0  0  0  0  0  0  0
    8.1801   -3.4146   25.7387 C   0  0  0  0  0  0  0  0  0  0  0  0
    9.1421   -3.6267   26.2201 H   0  0  0  0  0  0  0  0  0  0  0  0
    8.2249   -3.1551   24.3287 N   0  0  0  0  0  0  0  0  0  0  0  0
   10.2520   -3.2520   24.0194 H   0  0  0  0  0  0  0  0  0  0  0  0
    9.3487   -2.7081   23.7732 C   0  0  0  0  0  0  0  0  0  0  0  0
    9.4942   -1.7948   22.8732 N   0  0  0  0  0  0  0  0  0  0  0  0
   10.1976   -0.6952   22.7037 C   0  0  0  0  0  0  0  0  0  0  0  0
   11.7006   -0.1820   24.2903 H   0  0  0  0  0  0  0  0  0  0  0  0
   11.5599   -0.7908   23.3823 C   0  0  0  0  0  0  0  0  0  0  0  0
   11.5185   -0.3866   22.2468 C   0  0  0  0  0  0  0  0  0  0  0  0
   11.9652   -1.8014   23.5588 H   0  0  0  0  0  0  0  0  0  0  0  0
    9.1331    0.2369   22.0342 C   0  0  0  0  0  0  0  0  0  0  0  0
    8.3951    0.4851   22.7841 H   0  0  0  0  0  0  0  0  0  0  0  0
    9.6265    1.1297   21.6737 H   0  0  0  0  0  0  0  0  0  0  0  0
    8.4580   -0.3515   20.9710 O   0  0  0  0  0  0  0  0  0  0  0  0
    6.7239   -1.2691   20.7506 H   0  0  0  0  0  0  0  0  0  0  0  0
    7.6657    0.4717   18.7274 H   0  0  0  0  0  0  0  0  0  0  0  0
    6.3582   -0.6626   18.6129 H   0  0  0  0  0  0  0  0  0  0  0  0
    7.0640   -0.2498   20.6408 C   0  0  0  0  0  0  0  0  0  0  0  0
    6.0068    0.9518   19.1869 H   0  0  0  0  0  0  0  0  0  0  0  0
    6.7526    0.1548   19.2111 C   0  0  0  0  0  0  0  0  0  0  0  0
    6.5719    0.3800   21.3938 H   0  0  0  0  0  0  0  0  0  0  0  0
 20 23  1  0  0  0  0
 19 23  1  0  0  0  0
 22 23  1  0  0  0  0
 21 23  1  0  0  0  0
 18 21  1  0  0  0  0
 17 21  1  0  0  0  0
 21 24  1  0  0  0  0
 14 17  1  0  0  0  0
 14 16  1  0  0  0  0
  9 14  1  0  0  0  0
 14 15  1  0  0  0  0
  9 12  1  0  0  0  0
 11 12  1  0  0  0  0
  8  9  1  0  0  0  0
  9 11  1  0  0  0  0
  7  8  2  3  0  0  0
 11 13  1  0  0  0  0
 10 11  1  0  0  0  0
  6  7  1  0  0  0  0
  5  7  1  0  0  0  0
  3  5  1  0  0  0  0
  1  3  1  0  0  0  0
  3  4  1  0  0  0  0
  2  3  1  0  0  0  0
M  END
> <Shapegauss>
-123.270203

$$$$
