stable:False satoms:20 tatoms:24 sratio:0.8333333333333334
  -OEChem-08062402273D

 28 28  0     0  0  0  0  0  0999 V2000
    7.7106   -3.5132   23.8486 H   0  0  0  0  0  0  0  0  0  0  0  0
    8.8213   -3.2647   25.1821 H   0  0  0  0  0  0  0  0  0  0  0  0
    8.7754   -3.3930   24.0973 C   0  0  0  0  0  0  0  0  0  0  0  0
    9.3122   -4.3193   23.8608 H   0  0  0  0  0  0  0  0  0  0  0  0
    9.2896   -2.1961   23.4971 N   0  0  0  0  0  0  0  0  0  0  0  0
   10.9287   -2.9658   22.5303 H   0  0  0  0  0  0  0  0  0  0  0  0
   10.5663   -2.1374   23.1258 C   0  0  0  0  0  0  0  0  0  0  0  0
   11.4012   -1.1631   23.2640 N   0  3  0  0  0  0  0  0  0  0  0  0
   12.6111   -0.9760   23.7475 C   0  0  0  0  0  0  0  0  0  0  0  0
   13.7183   -2.7882   24.4753 H   0  0  0  0  0  0  0  0  0  0  0  0
   13.4852   -2.2122   23.5650 C   0  0  0  0  0  0  0  0  0  0  0  0
   13.9453   -1.1410   23.2562 C   0  0  0  0  0  0  0  0  0  0  0  0
   13.2084   -2.9103   22.7570 H   0  0  0  0  0  0  0  0  0  0  0  0
   12.4350    0.4072   24.4588 C   0  0  0  0  0  0  0  0  0  0  0  0
   11.8045    0.2545   25.3236 H   0  0  0  0  0  0  0  0  0  0  0  0
   13.4082    0.7747   24.7559 H   0  0  0  0  0  0  0  0  0  0  0  0
   11.8231    1.3733   23.6686 O   0  0  0  0  0  0  0  0  0  0  0  0
    9.9831    2.0620   23.4741 H   0  0  0  0  0  0  0  0  0  0  0  0
   12.1783    3.8429   23.3304 H   0  0  0  0  0  0  0  0  0  0  0  0
   10.5341    4.1629   22.8792 H   0  0  0  0  0  0  0  0  0  0  0  0
   10.8443    2.3488   24.0597 C   0  0  0  0  0  0  0  0  0  0  0  0
   11.0094    4.4511   24.5376 H   0  0  0  0  0  0  0  0  0  0  0  0
   11.1589    3.7859   23.6848 C   0  0  0  0  0  0  0  0  0  0  0  0
   10.6204    2.2107   25.1258 H   0  0  0  0  0  0  0  0  0  0  0  0
    8.6903   -1.4077   23.3580 H   0  0  0  0  0  0  0  0  0  0  0  0
   14.1352   -0.9442   22.1908 H   0  0  0  0  0  0  0  0  0  0  0  0
   14.7742   -0.7384   23.8569 H   0  0  0  0  0  0  0  0  0  0  0  0
   11.0227   -0.3111   22.9023 H   0  0  0  0  0  0  0  0  0  0  0  0
 20 23  1  0  0  0  0
 19 23  1  0  0  0  0
 22 23  1  0  0  0  0
 21 23  1  0  0  0  0
 18 21  1  0  0  0  0
 17 21  1  0  0  0  0
 21 24  1  0  0  0  0
 14 17  1  0  0  0  0
 14 16  1  0  0  0  0
  9 14  1  0  0  0  0
 14 15  1  0  0  0  0
  9 12  1  0  0  0  0
 11 12  1  0  0  0  0
  8  9  1  0  0  0  0
  9 11  1  0  0  0  0
  7  8  2  3  0  0  0
 11 13  1  0  0  0  0
 10 11  1  0  0  0  0
  6  7  1  0  0  0  0
  5  7  1  0  0  0  0
  3  5  1  0  0  0  0
  1  3  1  0  0  0  0
  3  4  1  0  0  0  0
  2  3  1  0  0  0  0
  5 25  1  0  0  0  0
 12 26  1  0  0  0  0
 12 27  1  0  0  0  0
  8 28  1  0  0  0  0
M  CHG  1   8   1
M  END
> <Chemgauss4>
-5.954522

$$$$
