stable:False satoms:20 tatoms:24 sratio:0.8333333333333334
  -OEChem-08062402273D

 28 28  0     0  0  0  0  0  0999 V2000
   -7.6833   -3.4088  -23.7617 H   0  0  0  0  0  0  0  0  0  0  0  0
   -8.7941   -3.1602  -25.0953 H   0  0  0  0  0  0  0  0  0  0  0  0
   -8.7481   -3.2886  -24.0105 C   0  0  0  0  0  0  0  0  0  0  0  0
   -9.2849   -4.2149  -23.7739 H   0  0  0  0  0  0  0  0  0  0  0  0
   -9.2623   -2.0916  -23.4103 N   0  0  0  0  0  0  0  0  0  0  0  0
  -10.9015   -2.8614  -22.4434 H   0  0  0  0  0  0  0  0  0  0  0  0
  -10.5390   -2.0329  -23.0390 C   0  0  0  0  0  0  0  0  0  0  0  0
  -11.3739   -1.0586  -23.1772 N   0  3  0  0  0  0  0  0  0  0  0  0
  -12.5838   -0.8716  -23.6607 C   0  0  0  0  0  0  0  0  0  0  0  0
  -13.6911   -2.6837  -24.3885 H   0  0  0  0  0  0  0  0  0  0  0  0
  -13.4579   -2.1077  -23.4781 C   0  0  0  0  0  0  0  0  0  0  0  0
  -13.9180   -1.0366  -23.1694 C   0  0  0  0  0  0  0  0  0  0  0  0
  -13.1811   -2.8058  -22.6702 H   0  0  0  0  0  0  0  0  0  0  0  0
  -12.4077    0.5116  -24.3720 C   0  0  0  0  0  0  0  0  0  0  0  0
  -11.7773    0.3589  -25.2367 H   0  0  0  0  0  0  0  0  0  0  0  0
  -13.3810    0.8792  -24.6690 H   0  0  0  0  0  0  0  0  0  0  0  0
  -11.7959    1.4778  -23.5817 O   0  0  0  0  0  0  0  0  0  0  0  0
   -9.9559    2.1665  -23.3873 H   0  0  0  0  0  0  0  0  0  0  0  0
  -12.1510    3.9473  -23.2436 H   0  0  0  0  0  0  0  0  0  0  0  0
  -10.5069    4.2674  -22.7923 H   0  0  0  0  0  0  0  0  0  0  0  0
  -10.8170    2.4532  -23.9728 C   0  0  0  0  0  0  0  0  0  0  0  0
  -10.9821    4.5556  -24.4508 H   0  0  0  0  0  0  0  0  0  0  0  0
  -11.1316    3.8903  -23.5980 C   0  0  0  0  0  0  0  0  0  0  0  0
  -10.5931    2.3151  -25.0390 H   0  0  0  0  0  0  0  0  0  0  0  0
   -8.6631   -1.3032  -23.2712 H   0  0  0  0  0  0  0  0  0  0  0  0
  -14.1080   -0.8397  -22.1040 H   0  0  0  0  0  0  0  0  0  0  0  0
  -14.7469   -0.6340  -23.7701 H   0  0  0  0  0  0  0  0  0  0  0  0
  -10.9954   -0.2066  -22.8155 H   0  0  0  0  0  0  0  0  0  0  0  0
 20 23  1  0  0  0  0
 19 23  1  0  0  0  0
 22 23  1  0  0  0  0
 21 23  1  0  0  0  0
 18 21  1  0  0  0  0
 17 21  1  0  0  0  0
 21 24  1  0  0  0  0
 14 17  1  0  0  0  0
 14 16  1  0  0  0  0
  9 14  1  0  0  0  0
 14 15  1  0  0  0  0
  9 12  1  0  0  0  0
 11 12  1  0  0  0  0
  8  9  1  0  0  0  0
  9 11  1  0  0  0  0
  7  8  2  3  0  0  0
 11 13  1  0  0  0  0
 10 11  1  0  0  0  0
  6  7  1  0  0  0  0
  5  7  1  0  0  0  0
  3  5  1  0  0  0  0
  1  3  1  0  0  0  0
  3  4  1  0  0  0  0
  2  3  1  0  0  0  0
  5 25  1  0  0  0  0
 12 26  1  0  0  0  0
 12 27  1  0  0  0  0
  8 28  1  0  0  0  0
M  CHG  1   8   1
M  END
> <Chemgauss4>
-6.012720

$$$$
