MODEL 1
REMARK VINA RESULT:    -7.439      0.000      0.000
REMARK INTER + INTRA:         -11.038
REMARK INTER:                 -10.048
REMARK INTRA:                  -0.990
REMARK UNBOUND:                -0.990
REMARK  6 active torsions:
REMARK  status: ('A' for Active; 'I' for Inactive)
REMARK    1  A    between atoms: S_2  and  N_5 
REMARK    2  A    between atoms: C_7  and  C_8 
REMARK    3  A    between atoms: C_8  and  C_9 
REMARK    4  A    between atoms: C_9  and  C_15 
REMARK    5  A    between atoms: C_15  and  C_16 
REMARK       I    between atoms: C_16  and  N_18 
REMARK    6  A    between atoms: N_18  and  C_20 
ROOT
HETATM    1  C   UNL     1       9.595  -1.549  23.311  1.00  0.00     0.075 C 
HETATM    2  C   UNL     1       9.640  -0.524  24.681  1.00  0.00    -0.000 C 
HETATM    3  C   UNL     1      10.400   0.004  25.015  1.00  0.00    -0.025 C 
HETATM    4  C   UNL     1      11.864   0.059  24.430  1.00  0.00     0.054 C 
HETATM    5  C   UNL     1      11.979  -0.807  23.477  1.00  0.00    -0.025 C 
HETATM    6  C   UNL     1      11.349  -1.537  22.958  1.00  0.00    -0.000 C 
ENDROOT
BRANCH   1   7
HETATM    7  C   UNL     1       9.039  -2.689  23.143  1.00  0.00     0.021 C 
BRANCH   7   8
HETATM    8  C   UNL     1       8.066  -3.378  22.967  1.00  0.00     0.098 C 
HETATM    9  N   UNL     1       7.423  -4.371  22.543  1.00  0.00    -0.296 N 
ATOM     10  HN  UNL     1       7.873  -5.278  22.669  1.00  0.00     0.177 HD
BRANCH   9  11
HETATM   11  S   UNL     1       5.980  -4.396  21.828  1.00  0.00     0.226 S 
HETATM   12  C   UNL     1       4.932  -4.896  23.013  1.00  0.00     0.186 C 
HETATM   13  O   UNL     1       5.573  -3.076  21.404  1.00  0.00    -0.206 OA
HETATM   14  O   UNL     1       5.934  -5.333  20.759  1.00  0.00    -0.206 OA
ENDBRANCH   9  11
ENDBRANCH   7   8
ENDBRANCH   1   7
BRANCH   1  15
HETATM   15  C   UNL     1       9.111  -1.003  22.347  1.00  0.00    -0.061 C 
BRANCH  15  16
HETATM   16  C   UNL     1       8.610  -0.343  21.333  1.00  0.00     0.290 C 
HETATM   17  O   UNL     1       9.303   0.349  20.798  1.00  0.00    -0.259 OA
HETATM   18  N   UNL     1       7.322  -0.594  21.132  1.00  0.00    -0.315 N 
ATOM     19  HN  UNL     1       6.813  -1.235  21.740  1.00  0.00     0.170 HD
BRANCH  18  20
HETATM   20  C   UNL     1       6.749  -0.022  20.174  1.00  0.00     0.060 A 
HETATM   21  C   UNL     1       6.593  -0.261  18.901  1.00  0.00     0.117 A 
HETATM   22  N   UNL     1       6.128   0.026  17.812  1.00  0.00    -0.373 N 
HETATM   23  C   UNL     1       5.528   1.190  18.108  1.00  0.00     0.088 A 
ATOM     24  HN  UNL     1       6.181  -0.477  16.926  1.00  0.00     0.164 HD
HETATM   25  C   UNL     1       5.464   1.763  19.283  1.00  0.00     0.030 A 
HETATM   26  C   UNL     1       5.985   1.348  20.444  1.00  0.00    -0.016 A 
HETATM   27  C   UNL     1       5.945   1.874  21.593  1.00  0.00     0.026 C 
ENDBRANCH  18  20
ENDBRANCH  15  16
ENDBRANCH   1  15
TORSDOF 6
ENDMDL
MODEL 2
REMARK VINA RESULT:    -7.240      2.748      5.892
REMARK INTER + INTRA:         -10.769
REMARK INTER:                  -9.929
REMARK INTRA:                  -0.840
REMARK UNBOUND:                -0.990
REMARK  6 active torsions:
REMARK  status: ('A' for Active; 'I' for Inactive)
REMARK    1  A    between atoms: S_2  and  N_5 
REMARK    2  A    between atoms: C_7  and  C_8 
REMARK    3  A    between atoms: C_8  and  C_9 
REMARK    4  A    between atoms: C_9  and  C_15 
REMARK    5  A    between atoms: C_15  and  C_16 
REMARK       I    between atoms: C_16  and  N_18 
REMARK    6  A    between atoms: N_18  and  C_20 
ROOT
HETATM    1  C   UNL     1      10.261  -0.876  23.437  1.00  0.00     0.075 C 
HETATM    2  C   UNL     1      11.699  -1.638  22.904  1.00  0.00    -0.000 C 
HETATM    3  C   UNL     1      12.618  -1.475  23.213  1.00  0.00    -0.025 C 
HETATM    4  C   UNL     1      13.101  -0.420  24.281  1.00  0.00     0.054 C 
HETATM    5  C   UNL     1      12.103   0.321  24.635  1.00  0.00    -0.025 C 
HETATM    6  C   UNL     1      11.032   0.403  24.422  1.00  0.00    -0.000 C 
ENDROOT
BRANCH   1   7
HETATM    7  C   UNL     1       9.237  -0.480  22.780  1.00  0.00     0.021 C 
BRANCH   7   8
HETATM    8  C   UNL     1       8.536  -0.495  21.800  1.00  0.00     0.098 C 
HETATM    9  N   UNL     1       8.274  -0.414  20.574  1.00  0.00    -0.296 N 
ATOM     10  HN  UNL     1       8.922  -0.893  19.948  1.00  0.00     0.177 HD
BRANCH   9  11
HETATM   11  S   UNL     1       7.045   0.348  19.862  1.00  0.00     0.226 S 
HETATM   12  C   UNL     1       5.825  -0.775  19.815  1.00  0.00     0.186 C 
HETATM   13  O   UNL     1       6.586   1.468  20.651  1.00  0.00    -0.206 OA
HETATM   14  O   UNL     1       7.359   0.731  18.530  1.00  0.00    -0.206 OA
ENDBRANCH   9  11
ENDBRANCH   7   8
ENDBRANCH   1   7
BRANCH   1  15
HETATM   15  C   UNL     1       9.668  -1.540  24.254  1.00  0.00    -0.061 C 
BRANCH  15  16
HETATM   16  C   UNL     1       8.967  -2.268  25.088  1.00  0.00     0.290 C 
HETATM   17  O   UNL     1       8.711  -1.795  26.066  1.00  0.00    -0.259 OA
HETATM   18  N   UNL     1       8.704  -3.483  24.626  1.00  0.00    -0.315 N 
ATOM     19  HN  UNL     1       9.044  -3.781  23.711  1.00  0.00     0.170 HD
BRANCH  18  20
HETATM   20  C   UNL     1       8.024  -4.256  25.344  1.00  0.00     0.060 A 
HETATM   21  C   UNL     1       8.265  -5.048  26.353  1.00  0.00     0.117 A 
HETATM   22  N   UNL     1       7.887  -5.825  27.210  1.00  0.00    -0.373 N 
HETATM   23  C   UNL     1       6.586  -5.917  26.893  1.00  0.00     0.088 A 
ATOM     24  HN  UNL     1       8.412  -6.279  27.958  1.00  0.00     0.164 HD
HETATM   25  C   UNL     1       5.964  -5.272  25.939  1.00  0.00     0.030 A 
HETATM   26  C   UNL     1       6.466  -4.399  25.057  1.00  0.00    -0.016 A 
HETATM   27  C   UNL     1       5.897  -3.761  24.125  1.00  0.00     0.026 C 
ENDBRANCH  18  20
ENDBRANCH  15  16
ENDBRANCH   1  15
TORSDOF 6
ENDMDL
MODEL 3
REMARK VINA RESULT:    -6.894      4.178      6.248
REMARK INTER + INTRA:         -10.302
REMARK INTER:                  -9.841
REMARK INTRA:                  -0.460
REMARK UNBOUND:                -0.990
REMARK  6 active torsions:
REMARK  status: ('A' for Active; 'I' for Inactive)
REMARK    1  A    between atoms: S_2  and  N_5 
REMARK    2  A    between atoms: C_7  and  C_8 
REMARK    3  A    between atoms: C_8  and  C_9 
REMARK    4  A    between atoms: C_9  and  C_15 
REMARK    5  A    between atoms: C_15  and  C_16 
REMARK       I    between atoms: C_16  and  N_18 
REMARK    6  A    between atoms: N_18  and  C_20 
ROOT
HETATM    1  C   UNL     1       7.568  -4.620  24.201  1.00  0.00     0.075 C 
HETATM    2  C   UNL     1       7.576  -5.776  22.938  1.00  0.00    -0.000 C 
HETATM    3  C   UNL     1       6.908  -5.896  22.226  1.00  0.00    -0.025 C 
HETATM    4  C   UNL     1       5.566  -5.092  22.019  1.00  0.00     0.054 C 
HETATM    5  C   UNL     1       5.387  -4.291  23.019  1.00  0.00    -0.025 C 
HETATM    6  C   UNL     1       5.908  -4.004  23.937  1.00  0.00    -0.000 C 
ENDROOT
BRANCH   1   7
HETATM    7  C   UNL     1       7.891  -4.733  25.434  1.00  0.00     0.021 C 
BRANCH   7   8
HETATM    8  C   UNL     1       7.693  -5.147  26.547  1.00  0.00     0.098 C 
HETATM    9  N   UNL     1       7.651  -6.008  27.462  1.00  0.00    -0.296 N 
ATOM     10  HN  UNL     1       8.452  -6.637  27.519  1.00  0.00     0.177 HD
BRANCH   9  11
HETATM   11  S   UNL     1       6.492  -6.247  28.556  1.00  0.00     0.226 S 
HETATM   12  C   UNL     1       5.103  -6.425  27.666  1.00  0.00     0.186 C 
HETATM   13  O   UNL     1       6.704  -7.470  29.296  1.00  0.00    -0.206 OA
HETATM   14  O   UNL     1       6.337  -5.127  29.417  1.00  0.00    -0.206 OA
ENDBRANCH   9  11
ENDBRANCH   7   8
ENDBRANCH   1   7
BRANCH   1  15
HETATM   15  C   UNL     1       8.264  -3.664  23.950  1.00  0.00    -0.061 C 
BRANCH  15  16
HETATM   16  C   UNL     1       8.957  -2.595  23.645  1.00  0.00     0.290 C 
HETATM   17  O   UNL     1       9.031  -2.342  22.561  1.00  0.00    -0.259 OA
HETATM   18  N   UNL     1       9.490  -2.000  24.705  1.00  0.00    -0.315 N 
ATOM     19  HN  UNL     1       9.357  -2.380  25.642  1.00  0.00     0.170 HD
BRANCH  18  20
HETATM   20  C   UNL     1      10.163  -0.956  24.522  1.00  0.00     0.060 A 
HETATM   21  C   UNL     1      11.383  -0.684  24.147  1.00  0.00     0.117 A 
HETATM   22  N   UNL     1      12.257   0.116  23.865  1.00  0.00    -0.373 N 
HETATM   23  C   UNL     1      11.620   1.268  24.126  1.00  0.00     0.088 A 
ATOM     24  HN  UNL     1      13.206  -0.045  23.527  1.00  0.00     0.164 HD
HETATM   25  C   UNL     1      10.380   1.407  24.522  1.00  0.00     0.030 A 
HETATM   26  C   UNL     1       9.474   0.455  24.777  1.00  0.00    -0.016 A 
HETATM   27  C   UNL     1       8.273   0.552  25.161  1.00  0.00     0.026 C 
ENDBRANCH  18  20
ENDBRANCH  15  16
ENDBRANCH   1  15
TORSDOF 6
ENDMDL
MODEL 4
REMARK VINA RESULT:    -6.857      2.237      6.025
REMARK INTER + INTRA:         -10.253
REMARK INTER:                  -9.288
REMARK INTRA:                  -0.965
REMARK UNBOUND:                -0.990
REMARK  6 active torsions:
REMARK  status: ('A' for Active; 'I' for Inactive)
REMARK    1  A    between atoms: S_2  and  N_5 
REMARK    2  A    between atoms: C_7  and  C_8 
REMARK    3  A    between atoms: C_8  and  C_9 
REMARK    4  A    between atoms: C_9  and  C_15 
REMARK    5  A    between atoms: C_15  and  C_16 
REMARK       I    between atoms: C_16  and  N_18 
REMARK    6  A    between atoms: N_18  and  C_20 
ROOT
HETATM    1  C   UNL     1       7.016   0.454  20.466  1.00  0.00     0.075 C 
HETATM    2  C   UNL     1       5.996   1.663  21.121  1.00  0.00    -0.000 C 
HETATM    3  C   UNL     1       5.243   2.120  20.682  1.00  0.00    -0.025 C 
HETATM    4  C   UNL     1       4.737   1.935  19.200  1.00  0.00     0.054 C 
HETATM    5  C   UNL     1       5.545   1.150  18.565  1.00  0.00    -0.025 C 
HETATM    6  C   UNL     1       6.451   0.572  18.772  1.00  0.00    -0.000 C 
ENDROOT
BRANCH   1   7
HETATM    7  C   UNL     1       8.278   0.279  20.582  1.00  0.00     0.021 C 
BRANCH   7   8
HETATM    8  C   UNL     1       9.242  -0.116  21.187  1.00  0.00     0.098 C 
HETATM    9  N   UNL     1      10.204  -0.885  21.440  1.00  0.00    -0.296 N 
ATOM     10  HN  UNL     1      10.756  -1.186  20.638  1.00  0.00     0.177 HD
BRANCH   9  11
HETATM   11  S   UNL     1      10.676  -1.456  22.871  1.00  0.00     0.226 S 
HETATM   12  C   UNL     1      10.627  -0.143  23.885  1.00  0.00     0.186 C 
HETATM   13  O   UNL     1       9.753  -2.444  23.380  1.00  0.00    -0.206 OA
HETATM   14  O   UNL     1      12.010  -1.946  22.832  1.00  0.00    -0.206 OA
ENDBRANCH   9  11
ENDBRANCH   7   8
ENDBRANCH   1   7
BRANCH   1  15
HETATM   15  C   UNL     1       6.679  -0.658  20.797  1.00  0.00    -0.061 C 
BRANCH  15  16
HETATM   16  C   UNL     1       6.282  -1.872  21.086  1.00  0.00     0.290 C 
HETATM   17  O   UNL     1       5.475  -2.298  20.444  1.00  0.00    -0.259 OA
HETATM   18  N   UNL     1       6.904  -2.387  22.139  1.00  0.00    -0.315 N 
ATOM     19  HN  UNL     1       7.605  -1.850  22.649  1.00  0.00     0.170 HD
BRANCH  18  20
HETATM   20  C   UNL     1       6.605  -3.555  22.491  1.00  0.00     0.060 A 
HETATM   21  C   UNL     1       6.905  -4.758  22.086  1.00  0.00     0.117 A 
HETATM   22  N   UNL     1       6.832  -5.968  22.198  1.00  0.00    -0.373 N 
HETATM   23  C   UNL     1       5.978  -6.062  23.229  1.00  0.00     0.088 A 
ATOM     24  HN  UNL     1       7.290  -6.703  21.659  1.00  0.00     0.164 HD
HETATM   25  C   UNL     1       5.454  -5.072  23.906  1.00  0.00     0.030 A 
HETATM   26  C   UNL     1       5.623  -3.757  23.727  1.00  0.00    -0.016 A 
HETATM   27  C   UNL     1       5.134  -2.776  24.358  1.00  0.00     0.026 C 
ENDBRANCH  18  20
ENDBRANCH  15  16
ENDBRANCH   1  15
TORSDOF 6
ENDMDL
MODEL 5
REMARK VINA RESULT:    -6.555      2.526      5.318
REMARK INTER + INTRA:          -9.844
REMARK INTER:                  -8.987
REMARK INTRA:                  -0.857
REMARK UNBOUND:                -0.990
REMARK  6 active torsions:
REMARK  status: ('A' for Active; 'I' for Inactive)
REMARK    1  A    between atoms: S_2  and  N_5 
REMARK    2  A    between atoms: C_7  and  C_8 
REMARK    3  A    between atoms: C_8  and  C_9 
REMARK    4  A    between atoms: C_9  and  C_15 
REMARK    5  A    between atoms: C_15  and  C_16 
REMARK       I    between atoms: C_16  and  N_18 
REMARK    6  A    between atoms: N_18  and  C_20 
ROOT
HETATM    1  C   UNL     1       6.307  -2.976  22.285  1.00  0.00     0.075 C 
HETATM    2  C   UNL     1       5.594  -3.249  23.817  1.00  0.00    -0.000 C 
HETATM    3  C   UNL     1       5.743  -4.009  24.425  1.00  0.00    -0.025 C 
HETATM    4  C   UNL     1       6.659  -5.270  24.183  1.00  0.00     0.054 C 
HETATM    5  C   UNL     1       7.126  -5.236  22.977  1.00  0.00    -0.025 C 
HETATM    6  C   UNL     1       7.083  -4.578  22.104  1.00  0.00    -0.000 C 
ENDROOT
BRANCH   1   7
HETATM    7  C   UNL     1       5.801  -2.517  21.203  1.00  0.00     0.021 C 
BRANCH   7   8
HETATM    8  C   UNL     1       5.649  -1.638  20.393  1.00  0.00     0.098 C 
HETATM    9  N   UNL     1       5.701  -1.098  19.260  1.00  0.00    -0.296 N 
ATOM     10  HN  UNL     1       5.410  -1.682  18.475  1.00  0.00     0.177 HD
BRANCH   9  11
HETATM   11  S   UNL     1       6.169   0.398  18.885  1.00  0.00     0.226 S 
HETATM   12  C   UNL     1       5.268   1.379  19.874  1.00  0.00     0.186 C 
HETATM   13  O   UNL     1       7.563   0.613  19.198  1.00  0.00    -0.206 OA
HETATM   14  O   UNL     1       5.872   0.724  17.534  1.00  0.00    -0.206 OA
ENDBRANCH   9  11
ENDBRANCH   7   8
ENDBRANCH   1   7
BRANCH   1  15
HETATM   15  C   UNL     1       7.245  -2.215  22.346  1.00  0.00    -0.061 C 
BRANCH  15  16
HETATM   16  C   UNL     1       8.293  -1.430  22.354  1.00  0.00     0.290 C 
HETATM   17  O   UNL     1       9.204  -1.812  21.834  1.00  0.00    -0.259 OA
HETATM   18  N   UNL     1       8.095  -0.301  23.021  1.00  0.00    -0.315 N 
ATOM     19  HN  UNL     1       7.202  -0.112  23.477  1.00  0.00     0.170 HD
BRANCH  18  20
HETATM   20  C   UNL     1       9.035   0.529  23.076  1.00  0.00     0.060 A 
HETATM   21  C   UNL     1       9.527   1.438  22.280  1.00  0.00     0.117 A 
HETATM   22  N   UNL     1      10.315   2.336  22.047  1.00  0.00    -0.373 N 
HETATM   23  C   UNL     1      11.045   2.311  23.174  1.00  0.00     0.088 A 
ATOM     24  HN  UNL     1      10.398   2.937  21.227  1.00  0.00     0.164 HD
HETATM   25  C   UNL     1      10.859   1.536  24.212  1.00  0.00     0.030 A 
HETATM   26  C   UNL     1       9.930   0.589  24.390  1.00  0.00    -0.016 A 
HETATM   27  C   UNL     1       9.722  -0.177  25.375  1.00  0.00     0.026 C 
ENDBRANCH  18  20
ENDBRANCH  15  16
ENDBRANCH   1  15
TORSDOF 6
ENDMDL
MODEL 6
REMARK VINA RESULT:    -6.375      2.572      4.749
REMARK INTER + INTRA:          -9.601
REMARK INTER:                  -8.776
REMARK INTRA:                  -0.825
REMARK UNBOUND:                -0.990
REMARK  6 active torsions:
REMARK  status: ('A' for Active; 'I' for Inactive)
REMARK    1  A    between atoms: S_2  and  N_5 
REMARK    2  A    between atoms: C_7  and  C_8 
REMARK    3  A    between atoms: C_8  and  C_9 
REMARK    4  A    between atoms: C_9  and  C_15 
REMARK    5  A    between atoms: C_15  and  C_16 
REMARK       I    between atoms: C_16  and  N_18 
REMARK    6  A    between atoms: N_18  and  C_20 
ROOT
HETATM    1  C   UNL     1       8.018  -2.345  24.111  1.00  0.00     0.075 C 
HETATM    2  C   UNL     1       8.449  -3.994  23.956  1.00  0.00    -0.000 C 
HETATM    3  C   UNL     1       7.868  -4.782  24.056  1.00  0.00    -0.025 C 
HETATM    4  C   UNL     1       6.338  -4.807  24.439  1.00  0.00     0.054 C 
HETATM    5  C   UNL     1       5.950  -3.609  24.732  1.00  0.00    -0.025 C 
HETATM    6  C   UNL     1       6.372  -2.600  24.765  1.00  0.00    -0.000 C 
ENDROOT
BRANCH   1   7
HETATM    7  C   UNL     1       8.646  -1.368  24.648  1.00  0.00     0.021 C 
BRANCH   7   8
HETATM    8  C   UNL     1       9.497  -0.516  24.627  1.00  0.00     0.098 C 
HETATM    9  N   UNL     1       9.949   0.657  24.597  1.00  0.00    -0.296 N 
ATOM     10  HN  UNL     1       9.487   1.327  25.212  1.00  0.00     0.177 HD
BRANCH   9  11
HETATM   11  S   UNL     1      11.163   1.238  23.711  1.00  0.00     0.226 S 
HETATM   12  C   UNL     1      10.978   2.885  23.775  1.00  0.00     0.186 C 
HETATM   13  O   UNL     1      12.446   0.912  24.288  1.00  0.00    -0.206 OA
HETATM   14  O   UNL     1      11.072   0.826  22.353  1.00  0.00    -0.206 OA
ENDBRANCH   9  11
ENDBRANCH   7   8
ENDBRANCH   1   7
BRANCH   1  15
HETATM   15  C   UNL     1       7.816  -1.823  23.040  1.00  0.00    -0.061 C 
BRANCH  15  16
HETATM   16  C   UNL     1       7.662  -1.291  21.853  1.00  0.00     0.290 C 
HETATM   17  O   UNL     1       8.596  -1.077  21.279  1.00  0.00    -0.259 OA
HETATM   18  N   UNL     1       6.392  -1.064  21.543  1.00  0.00    -0.315 N 
ATOM     19  HN  UNL     1       5.645  -1.287  22.201  1.00  0.00     0.170 HD
BRANCH  18  20
HETATM   20  C   UNL     1       6.135  -0.569  20.419  1.00  0.00     0.060 A 
HETATM   21  C   UNL     1       5.939  -1.033  19.216  1.00  0.00     0.117 A 
HETATM   22  N   UNL     1       5.669  -0.866  18.040  1.00  0.00    -0.373 N 
HETATM   23  C   UNL     1       5.586   0.474  18.003  1.00  0.00     0.088 A 
ATOM     24  HN  UNL     1       5.542  -1.550  17.295  1.00  0.00     0.164 HD
HETATM   25  C   UNL     1       5.721   1.297  19.012  1.00  0.00     0.030 A 
HETATM   26  C   UNL     1       5.988   1.011  20.292  1.00  0.00    -0.016 A 
HETATM   27  C   UNL     1       6.126   1.776  21.289  1.00  0.00     0.026 C 
ENDBRANCH  18  20
ENDBRANCH  15  16
ENDBRANCH   1  15
TORSDOF 6
ENDMDL
MODEL 7
REMARK VINA RESULT:    -6.300     14.679     16.167
REMARK INTER + INTRA:          -9.499
REMARK INTER:                  -8.744
REMARK INTRA:                  -0.756
REMARK UNBOUND:                -0.990
REMARK  6 active torsions:
REMARK  status: ('A' for Active; 'I' for Inactive)
REMARK    1  A    between atoms: S_2  and  N_5 
REMARK    2  A    between atoms: C_7  and  C_8 
REMARK    3  A    between atoms: C_8  and  C_9 
REMARK    4  A    between atoms: C_9  and  C_15 
REMARK    5  A    between atoms: C_15  and  C_16 
REMARK       I    between atoms: C_16  and  N_18 
REMARK    6  A    between atoms: N_18  and  C_20 
ROOT
HETATM    1  C   UNL     1      23.179  -1.684  23.538  1.00  0.00     0.075 C 
HETATM    2  C   UNL     1      21.744  -1.410  24.431  1.00  0.00    -0.000 C 
HETATM    3  C   UNL     1      21.451  -0.574  24.861  1.00  0.00    -0.025 C 
HETATM    4  C   UNL     1      22.223   0.801  24.917  1.00  0.00     0.054 C 
HETATM    5  C   UNL     1      23.399   0.655  24.401  1.00  0.00    -0.025 C 
HETATM    6  C   UNL     1      23.988  -0.135  23.923  1.00  0.00    -0.000 C 
ENDROOT
BRANCH   1   7
HETATM    7  C   UNL     1      23.967  -2.692  23.519  1.00  0.00     0.021 C 
BRANCH   7   8
HETATM    8  C   UNL     1      24.277  -3.801  23.873  1.00  0.00     0.098 C 
HETATM    9  N   UNL     1      24.126  -5.036  24.045  1.00  0.00    -0.296 N 
ATOM     10  HN  UNL     1      23.724  -5.549  23.260  1.00  0.00     0.177 HD
BRANCH   9  11
HETATM   11  S   UNL     1      24.484  -5.916  25.347  1.00  0.00     0.226 S 
HETATM   12  C   UNL     1      24.481  -7.485  24.808  1.00  0.00     0.186 C 
HETATM   13  O   UNL     1      25.810  -5.619  25.840  1.00  0.00    -0.206 OA
HETATM   14  O   UNL     1      23.499  -5.784  26.363  1.00  0.00    -0.206 OA
ENDBRANCH   9  11
ENDBRANCH   7   8
ENDBRANCH   1   7
BRANCH   1  15
HETATM   15  C   UNL     1      22.994  -1.615  22.345  1.00  0.00    -0.061 C 
BRANCH  15  16
HETATM   16  C   UNL     1      22.767  -1.613  21.055  1.00  0.00     0.290 C 
HETATM   17  O   UNL     1      21.722  -1.835  20.734  1.00  0.00    -0.259 OA
HETATM   18  N   UNL     1      23.855  -1.371  20.335  1.00  0.00    -0.315 N 
ATOM     19  HN  UNL     1      24.758  -1.220  20.783  1.00  0.00     0.170 HD
BRANCH  18  20
HETATM   20  C   UNL     1      23.741  -1.333  19.085  1.00  0.00     0.060 A 
HETATM   21  C   UNL     1      23.369  -0.442  18.207  1.00  0.00     0.117 A 
HETATM   22  N   UNL     1      23.188  -0.094  17.055  1.00  0.00    -0.373 N 
HETATM   23  C   UNL     1      23.491  -1.232  16.411  1.00  0.00     0.088 A 
ATOM     24  HN  UNL     1      22.890   0.808  16.684  1.00  0.00     0.164 HD
HETATM   25  C   UNL     1      23.908  -2.350  16.948  1.00  0.00     0.030 A 
HETATM   26  C   UNL     1      24.111  -2.630  18.241  1.00  0.00    -0.016 A 
HETATM   27  C   UNL     1      24.511  -3.695  18.794  1.00  0.00     0.026 C 
ENDBRANCH  18  20
ENDBRANCH  15  16
ENDBRANCH   1  15
TORSDOF 6
ENDMDL
MODEL 8
REMARK VINA RESULT:    -6.251      2.823      6.039
REMARK INTER + INTRA:          -9.434
REMARK INTER:                  -8.587
REMARK INTRA:                  -0.847
REMARK UNBOUND:                -0.990
REMARK  6 active torsions:
REMARK  status: ('A' for Active; 'I' for Inactive)
REMARK    1  A    between atoms: S_2  and  N_5 
REMARK    2  A    between atoms: C_7  and  C_8 
REMARK    3  A    between atoms: C_8  and  C_9 
REMARK    4  A    between atoms: C_9  and  C_15 
REMARK    5  A    between atoms: C_15  and  C_16 
REMARK       I    between atoms: C_16  and  N_18 
REMARK    6  A    between atoms: N_18  and  C_20 
ROOT
HETATM    1  C   UNL     1       6.488   3.252  22.297  1.00  0.00     0.075 C 
HETATM    2  C   UNL     1       6.840   4.925  22.200  1.00  0.00    -0.000 C 
HETATM    3  C   UNL     1       6.887   5.575  22.937  1.00  0.00    -0.025 C 
HETATM    4  C   UNL     1       6.611   5.316  24.468  1.00  0.00     0.054 C 
HETATM    5  C   UNL     1       6.182   4.107  24.628  1.00  0.00    -0.025 C 
HETATM    6  C   UNL     1       5.984   3.224  24.014  1.00  0.00    -0.000 C 
ENDROOT
BRANCH   1   7
HETATM    7  C   UNL     1       5.783   2.506  21.535  1.00  0.00     0.021 C 
BRANCH   7   8
HETATM    8  C   UNL     1       5.654   1.800  20.567  1.00  0.00     0.098 C 
HETATM    9  N   UNL     1       5.524   0.716  19.944  1.00  0.00    -0.296 N 
ATOM     10  HN  UNL     1       4.870   0.046  20.348  1.00  0.00     0.177 HD
BRANCH   9  11
HETATM   11  S   UNL     1       6.261   0.247  18.590  1.00  0.00     0.226 S 
HETATM   12  C   UNL     1       5.941   1.455  17.498  1.00  0.00     0.186 C 
HETATM   13  O   UNL     1       7.693   0.173  18.761  1.00  0.00    -0.206 OA
HETATM   14  O   UNL     1       5.723  -0.969  18.087  1.00  0.00    -0.206 OA
ENDBRANCH   9  11
ENDBRANCH   7   8
ENDBRANCH   1   7
BRANCH   1  15
HETATM   15  C   UNL     1       7.489   2.574  22.287  1.00  0.00    -0.061 C 
BRANCH  15  16
HETATM   16  C   UNL     1       8.578   1.851  22.201  1.00  0.00     0.290 C 
HETATM   17  O   UNL     1       9.365   2.219  21.500  1.00  0.00    -0.259 OA
HETATM   18  N   UNL     1       8.542   0.761  22.957  1.00  0.00    -0.315 N 
ATOM     19  HN  UNL     1       7.722   0.543  23.523  1.00  0.00     0.170 HD
BRANCH  18  20
HETATM   20  C   UNL     1       9.545   0.007  22.956  1.00  0.00     0.060 A 
HETATM   21  C   UNL     1      10.044  -0.883  22.143  1.00  0.00     0.117 A 
HETATM   22  N   UNL     1      10.911  -1.684  21.843  1.00  0.00    -0.373 N 
HETATM   23  C   UNL     1      11.686  -1.618  22.937  1.00  0.00     0.088 A 
ATOM     24  HN  UNL     1      11.017  -2.247  20.999  1.00  0.00     0.164 HD
HETATM   25  C   UNL     1      11.513  -0.840  23.975  1.00  0.00     0.030 A 
HETATM   26  C   UNL     1      10.535   0.045  24.201  1.00  0.00    -0.016 A 
HETATM   27  C   UNL     1      10.336   0.810  25.189  1.00  0.00     0.026 C 
ENDBRANCH  18  20
ENDBRANCH  15  16
ENDBRANCH   1  15
TORSDOF 6
ENDMDL
MODEL 9
REMARK VINA RESULT:    -5.757      3.821      6.128
REMARK INTER + INTRA:          -8.766
REMARK INTER:                  -7.966
REMARK INTRA:                  -0.801
REMARK UNBOUND:                -0.990
REMARK  6 active torsions:
REMARK  status: ('A' for Active; 'I' for Inactive)
REMARK    1  A    between atoms: S_2  and  N_5 
REMARK    2  A    between atoms: C_7  and  C_8 
REMARK    3  A    between atoms: C_8  and  C_9 
REMARK    4  A    between atoms: C_9  and  C_15 
REMARK    5  A    between atoms: C_15  and  C_16 
REMARK       I    between atoms: C_16  and  N_18 
REMARK    6  A    between atoms: N_18  and  C_20 
ROOT
HETATM    1  C   UNL     1       6.541  -3.837  23.772  1.00  0.00     0.075 C 
HETATM    2  C   UNL     1       7.468  -5.251  23.506  1.00  0.00    -0.000 C 
HETATM    3  C   UNL     1       7.511  -5.800  22.690  1.00  0.00    -0.025 C 
HETATM    4  C   UNL     1       6.704  -5.596  21.350  1.00  0.00     0.054 C 
HETATM    5  C   UNL     1       5.851  -4.636  21.504  1.00  0.00    -0.025 C 
HETATM    6  C   UNL     1       5.555  -3.925  22.281  1.00  0.00    -0.000 C 
ENDROOT
BRANCH   1   7
HETATM    7  C   UNL     1       5.890  -3.452  24.804  1.00  0.00     0.021 C 
BRANCH   7   8
HETATM    8  C   UNL     1       5.575  -3.565  25.962  1.00  0.00     0.098 C 
HETATM    9  N   UNL     1       5.692  -3.413  27.204  1.00  0.00    -0.296 N 
ATOM     10  HN  UNL     1       5.973  -2.483  27.514  1.00  0.00     0.177 HD
BRANCH   9  11
HETATM   11  S   UNL     1       5.453  -4.500  28.370  1.00  0.00     0.226 S 
HETATM   12  C   UNL     1       4.335  -5.552  27.741  1.00  0.00     0.186 C 
HETATM   13  O   UNL     1       6.656  -5.248  28.653  1.00  0.00    -0.206 OA
HETATM   14  O   UNL     1       4.909  -3.909  29.542  1.00  0.00    -0.206 OA
ENDBRANCH   9  11
ENDBRANCH   7   8
ENDBRANCH   1   7
BRANCH   1  15
HETATM   15  C   UNL     1       7.191  -2.829  23.620  1.00  0.00    -0.061 C 
BRANCH  15  16
HETATM   16  C   UNL     1       7.863  -1.709  23.520  1.00  0.00     0.290 C 
HETATM   17  O   UNL     1       7.469  -0.955  22.797  1.00  0.00    -0.259 OA
HETATM   18  N   UNL     1       8.941  -1.677  24.293  1.00  0.00    -0.315 N 
ATOM     19  HN  UNL     1       9.188  -2.473  24.881  1.00  0.00     0.170 HD
BRANCH  18  20
HETATM   20  C   UNL     1       9.647  -0.640  24.282  1.00  0.00     0.060 A 
HETATM   21  C   UNL     1       9.564   0.554  24.802  1.00  0.00     0.117 A 
HETATM   22  N   UNL     1      10.024   1.663  25.002  1.00  0.00    -0.373 N 
HETATM   23  C   UNL     1      11.147   1.592  24.269  1.00  0.00     0.088 A 
ATOM     24  HN  UNL     1       9.659   2.431  25.565  1.00  0.00     0.164 HD
HETATM   25  C   UNL     1      11.580   0.555  23.597  1.00  0.00     0.030 A 
HETATM   26  C   UNL     1      11.013  -0.650  23.464  1.00  0.00    -0.016 A 
HETATM   27  C   UNL     1      11.400  -1.670  22.825  1.00  0.00     0.026 C 
ENDBRANCH  18  20
ENDBRANCH  15  16
ENDBRANCH   1  15
TORSDOF 6
ENDMDL
