stable:False satoms:6 tatoms:24 sratio:0.25
  -OEChem-07092417483D

 24 25  0     1  0  0  0  0  0999 V2000
    6.6467   -4.8396   26.4320 C   0  0  0  0  0  0  0  0  0  0  0  0
    8.1976   -4.3345   26.1283 S   0  0  0  0  0  0  0  0  0  0  0  0
    9.0465   -5.5039   26.0917 O   0  0  0  0  0  0  0  0  0  0  0  0
    8.5868   -3.4293   27.1519 O   0  0  0  0  0  0  0  0  0  0  0  0
    8.1183   -3.6156   24.6879 N   0  0  0  0  0  0  0  0  0  0  0  0
    8.9923   -2.9169   24.1155 C   0  0  0  0  0  0  0  0  0  0  0  0
    9.4154   -1.9825   23.4851 C   0  0  0  0  0  0  0  0  0  0  0  0
   10.3038   -1.0924   23.2509 C   0  0  1  0  0  0  0  0  0  0  0  0
   11.0572    0.0307   24.3009 C   0  0  0  0  0  0  0  0  0  0  0  0
   12.0015    0.3054   24.3135 C   0  0  0  0  0  0  0  0  0  0  0  0
   13.1705   -0.2276   23.3993 C   0  0  0  0  0  0  0  0  0  0  0  0
   12.7349   -1.2023   22.6691 C   0  0  0  0  0  0  0  0  0  0  0  0
   11.7945   -1.7328   22.4950 C   0  0  0  0  0  0  0  0  0  0  0  0
    9.7346   -0.5495   22.3331 C   0  0  0  0  0  0  0  0  0  0  0  0
    9.0526    0.0364   21.3802 C   0  0  0  0  0  0  0  0  0  0  0  0
    9.4974    0.9649   20.9492 O   0  0  0  0  0  0  0  0  0  0  0  0
    7.9077   -0.5764   21.1068 N   0  0  0  0  0  0  0  0  0  0  0  0
    7.1854   -0.1019   20.1967 C   0  0  0  0  0  0  0  0  0  0  0  0
    7.2610   -0.0055   18.8984 C   0  0  0  0  0  0  0  0  0  0  0  0
    6.7876    0.3225   17.8252 N   0  0  0  0  0  0  0  0  0  0  0  0
    5.6513    0.9082   18.2344 C   0  0  0  0  0  0  0  0  0  0  0  0
    5.2201    1.0086   19.4660 C   0  0  0  0  0  0  0  0  0  0  0  0
    5.8026    0.5813   20.5917 C   0  0  0  0  0  0  0  0  0  0  0  0
    5.4176    0.6624   21.7941 C   0  0  0  0  0  0  0  0  0  0  0  0
 20 21  2  0  0  0  0
 19 20  1  0  0  0  0
 21 22  1  0  0  0  0
 18 19  2  0  0  0  0
 22 23  2  0  0  0  0
 18 23  1  0  0  0  0
 17 18  1  0  0  0  0
 23 24  1  0  0  0  0
 15 16  2  0  0  0  0
 15 17  1  0  0  0  0
 14 15  1  0  0  0  0
  8 14  1  0  0  0  0
 12 13  1  0  0  0  0
  8 13  1  0  0  0  0
 11 12  2  0  0  0  0
  7  8  1  0  0  0  0
  8  9  1  0  0  0  0
 10 11  1  0  0  0  0
  6  7  2  3  0  0  0
  5  6  1  0  0  0  0
  9 10  2  0  0  0  0
  2  5  1  0  0  0  0
  2  3  2  0  0  0  0
  1  2  1  0  0  0  0
  2  4  2  0  0  0  0
M  END
> <Shapegauss>
-286.513641

$$$$
