stable:False satoms:7 tatoms:24 sratio:0.2916666666666667
  -OEChem-07092417483D

 24 24  0     1  0  0  0  0  0999 V2000
    6.6124   -4.8986   26.4779 C   0  0  0  0  0  0  0  0  0  0  0  0
    8.2142   -4.3074   26.1183 S   0  0  0  0  0  0  0  0  0  0  0  0
    9.0831   -5.4574   26.0147 O   0  0  0  0  0  0  0  0  0  0  0  0
    8.6055   -3.4552   27.1936 O   0  0  0  0  0  0  0  0  0  0  0  0
    8.1064   -3.5346   24.6973 N   0  0  0  0  0  0  0  0  0  0  0  0
    8.9869   -2.9474   24.1679 C   0  0  0  0  0  0  0  0  0  0  0  0
    9.4542   -1.9796   23.5148 C   0  0  0  0  0  0  0  0  0  0  0  0
   10.2921   -1.0876   23.3029 C   0  0  2  0  0  0  0  0  0  0  0  0
   11.0298   -0.0231   24.2816 C   0  0  0  0  0  0  0  0  0  0  0  0
   11.9983    0.3425   24.2872 C   0  0  0  0  0  0  0  0  0  0  0  0
   13.1799   -0.1477   23.4975 C   0  0  0  0  0  0  0  0  0  0  0  0
   12.7085   -1.3001   22.6375 C   0  0  0  0  0  0  0  0  0  0  0  0
   11.8204   -1.7355   22.5101 C   0  0  0  0  0  0  0  0  0  0  0  0
    9.7216   -0.6007   22.3507 C   0  0  0  0  0  0  0  0  0  0  0  0
    9.0490    0.0521   21.3687 C   0  0  0  0  0  0  0  0  0  0  0  0
    9.5363    0.9856   20.9434 O   0  0  0  0  0  0  0  0  0  0  0  0
    7.9308   -0.5487   21.0705 N   0  0  0  0  0  0  0  0  0  0  0  0
    7.1820   -0.0985   20.1588 C   0  0  0  0  0  0  0  0  0  0  0  0
    7.2610   -0.0255   18.8309 C   0  0  0  0  0  0  0  0  0  0  0  0
    6.7796    0.3461   17.8150 N   0  0  0  0  0  0  0  0  0  0  0  0
    5.6155    0.9074   18.1909 C   0  0  0  0  0  0  0  0  0  0  0  0
    5.2507    0.9587   19.3800 C   0  0  0  0  0  0  0  0  0  0  0  0
    5.8262    0.5574   20.5144 C   0  0  0  0  0  0  0  0  0  0  0  0
    5.3397    0.7074   21.9720 C   0  0  0  0  0  0  0  0  0  0  0  0
 20 21  2  0  0  0  0
 19 20  1  0  0  0  0
 21 22  1  0  0  0  0
 18 19  2  0  0  0  0
 22 23  2  0  0  0  0
 18 23  1  0  0  0  0
 17 18  1  0  0  0  0
 23 24  1  0  0  0  0
 15 16  2  0  0  0  0
 15 17  1  0  0  0  0
 14 15  1  0  0  0  0
  8 14  1  0  0  0  0
 12 13  2  0  0  0  0
 11 12  1  0  0  0  0
  7  8  1  0  0  0  0
  8  9  1  0  0  0  0
 10 11  1  0  0  0  0
  6  7  2  3  0  0  0
  5  6  1  0  0  0  0
  9 10  2  0  0  0  0
  2  5  1  0  0  0  0
  2  3  2  0  0  0  0
  1  2  1  0  0  0  0
  2  4  2  0  0  0  0
M  END
> <Shapegauss>
-285.666870

$$$$
