stable:False satoms:7 tatoms:24 sratio:0.2916666666666667
  -OEChem-08062417293D

 47 47  0     1  0  0  0  0  0999 V2000
   -6.1068   -5.2010  -26.0840 C   0  0  0  0  0  0  0  0  0  0  0  0
   -7.7416   -4.6145  -25.9165 S   0  0  0  0  0  0  0  0  0  0  0  0
   -8.6063   -5.7696  -25.8377 O   0  0  0  0  0  0  0  0  0  0  0  0
   -8.0317   -3.8254  -27.0693 O   0  0  0  0  0  0  0  0  0  0  0  0
   -7.7823   -3.7668  -24.5352 N   0  0  0  0  0  0  0  0  0  0  0  0
   -8.7162   -3.1651  -24.1276 C   0  0  0  0  0  0  0  0  0  0  0  0
   -9.2546   -2.1711  -23.5766 C   0  0  0  0  0  0  0  0  0  0  0  0
  -10.1173   -1.2812  -23.4965 C   0  0  2  0  0  0  0  0  0  0  0  0
  -10.7636   -0.2800  -24.5989 C   0  0  0  0  0  0  0  0  0  0  0  0
  -11.7300    0.0711  -24.7196 C   0  0  0  0  0  0  0  0  0  0  0  0
  -12.9797   -0.3937  -24.0253 C   0  0  0  0  0  0  0  0  0  0  0  0
  -12.5859   -1.4926  -23.0624 C   0  0  0  0  0  0  0  0  0  0  0  0
  -11.7110   -1.9081  -22.8249 C   0  0  0  0  0  0  0  0  0  0  0  0
   -9.6486   -0.7370  -22.5201 C   0  0  0  0  0  0  0  0  0  0  0  0
   -9.0826   -0.0241  -21.5129 C   0  0  0  0  0  0  0  0  0  0  0  0
   -9.6180    0.9234  -21.1884 O   0  0  0  0  0  0  0  0  0  0  0  0
   -7.9943   -0.5926  -21.0740 N   0  0  0  0  0  0  0  0  0  0  0  0
   -7.3438   -0.0847  -20.1183 C   0  0  0  0  0  0  0  0  0  0  0  0
   -7.5549    0.0567  -18.8105 C   0  0  0  0  0  0  0  0  0  0  0  0
   -7.1801    0.4879  -17.7735 N   0  0  0  0  0  0  0  0  0  0  0  0
   -5.9894    1.0451  -18.0622 C   0  0  0  0  0  0  0  0  0  0  0  0
   -5.5088    1.0391  -19.2105 C   0  0  0  0  0  0  0  0  0  0  0  0
   -5.9652    0.5708  -20.3730 C   0  0  0  0  0  0  0  0  0  0  0  0
   -5.3377    0.6510  -21.7814 C   0  0  0  0  0  0  0  0  0  0  0  0
   -6.0203   -5.7873  -27.0107 H   0  0  0  0  0  0  0  0  0  0  0  0
   -5.4136   -4.3479  -26.1240 H   0  0  0  0  0  0  0  0  0  0  0  0
   -5.8557   -5.8375  -25.2228 H   0  0  0  0  0  0  0  0  0  0  0  0
   -7.0480   -3.0928  -24.6164 H   0  0  0  0  0  0  0  0  0  0  0  0
   -9.5502   -3.8164  -24.3438 H   0  0  0  0  0  0  0  0  0  0  0  0
   -8.6356   -1.9995  -22.7084 H   0  0  0  0  0  0  0  0  0  0  0  0
  -11.0154   -1.7989  -23.1286 H   0  0  0  0  0  0  0  0  0  0  0  0
  -10.0624    0.0836  -25.3355 H   0  0  0  0  0  0  0  0  0  0  0  0
  -11.8561    0.8714  -25.4338 H   0  0  0  0  0  0  0  0  0  0  0  0
  -13.6972   -0.7811  -24.7636 H   0  0  0  0  0  0  0  0  0  0  0  0
  -13.4358    0.4421  -23.4744 H   0  0  0  0  0  0  0  0  0  0  0  0
  -13.4221   -1.9122  -22.5230 H   0  0  0  0  0  0  0  0  0  0  0  0
  -11.6704   -2.6986  -22.0900 H   0  0  0  0  0  0  0  0  0  0  0  0
  -10.8041   -1.5677  -23.3024 H   0  0  0  0  0  0  0  0  0  0  0  0
   -9.0535   -1.6273  -22.2687 H   0  0  0  0  0  0  0  0  0  0  0  0
  -10.6129   -0.7795  -21.9926 H   0  0  0  0  0  0  0  0  0  0  0  0
   -7.6718   -1.4388  -21.4983 H   0  0  0  0  0  0  0  0  0  0  0  0
   -8.4863   -0.4491  -18.6032 H   0  0  0  0  0  0  0  0  0  0  0  0
   -5.4296    1.5153  -17.2672 H   0  0  0  0  0  0  0  0  0  0  0  0
   -4.5354    1.5020  -19.2785 H   0  0  0  0  0  0  0  0  0  0  0  0
   -4.7126   -0.2371  -21.9560 H   0  0  0  0  0  0  0  0  0  0  0  0
   -6.1363    0.6913  -22.5367 H   0  0  0  0  0  0  0  0  0  0  0  0
   -4.7172    1.5563  -21.8552 H   0  0  0  0  0  0  0  0  0  0  0  0
 20 21  2  0  0  0  0
 19 20  1  0  0  0  0
 21 22  1  0  0  0  0
 18 19  2  0  0  0  0
 22 23  2  0  0  0  0
 18 23  1  0  0  0  0
 17 18  1  0  0  0  0
 23 24  1  0  0  0  0
 15 16  2  0  0  0  0
 15 17  1  0  0  0  0
 14 15  1  0  0  0  0
  8 14  1  0  0  0  0
 12 13  2  0  0  0  0
 11 12  1  0  0  0  0
  7  8  1  0  0  0  0
  8  9  1  0  0  0  0
 10 11  1  0  0  0  0
  6  7  2  3  0  0  0
  5  6  1  0  0  0  0
  9 10  2  0  0  0  0
  2  5  1  0  0  0  0
  2  3  2  0  0  0  0
  1  2  1  0  0  0  0
  2  4  2  0  0  0  0
  1 25  1  0  0  0  0
  1 26  1  0  0  0  0
  1 27  1  0  0  0  0
  5 28  1  0  0  0  0
  6 29  1  0  0  0  0
  7 30  1  0  0  0  0
  8 31  1  0  0  0  0
  9 32  1  0  0  0  0
 10 33  1  0  0  0  0
 11 34  1  0  0  0  0
 11 35  1  0  0  0  0
 12 36  1  0  0  0  0
 13 37  1  0  0  0  0
 13 38  1  0  0  0  0
 14 39  1  0  0  0  0
 14 40  1  0  0  0  0
 17 41  1  0  0  0  0
 19 42  1  0  0  0  0
 21 43  1  0  0  0  0
 22 44  1  0  0  0  0
 24 45  1  0  0  0  0
 24 46  1  0  0  0  0
 24 47  1  0  0  0  0
M  END
> <Chemgauss4>
-13.243225

$$$$
