stable:False satoms:7 tatoms:24 sratio:0.2916666666666667
  -OEChem-08062417293D

 47 47  0     1  0  0  0  0  0999 V2000
    5.9145   -5.2212   25.8620 C   0  0  0  0  0  0  0  0  0  0  0  0
    7.5493   -4.6347   25.6945 S   0  0  0  0  0  0  0  0  0  0  0  0
    8.4139   -5.7898   25.6157 O   0  0  0  0  0  0  0  0  0  0  0  0
    7.8394   -3.8457   26.8473 O   0  0  0  0  0  0  0  0  0  0  0  0
    7.5900   -3.7870   24.3132 N   0  0  0  0  0  0  0  0  0  0  0  0
    8.5239   -3.1853   23.9056 C   0  0  0  0  0  0  0  0  0  0  0  0
    9.0623   -2.1913   23.3546 C   0  0  0  0  0  0  0  0  0  0  0  0
    9.9250   -1.3014   23.2745 C   0  0  2  0  0  0  0  0  0  0  0  0
   10.5713   -0.3002   24.3769 C   0  0  0  0  0  0  0  0  0  0  0  0
   11.5376    0.0509   24.4976 C   0  0  0  0  0  0  0  0  0  0  0  0
   12.7874   -0.4139   23.8033 C   0  0  0  0  0  0  0  0  0  0  0  0
   12.3935   -1.5128   22.8404 C   0  0  0  0  0  0  0  0  0  0  0  0
   11.5187   -1.9283   22.6028 C   0  0  0  0  0  0  0  0  0  0  0  0
    9.4562   -0.7572   22.2981 C   0  0  0  0  0  0  0  0  0  0  0  0
    8.8903   -0.0443   21.2909 C   0  0  0  0  0  0  0  0  0  0  0  0
    9.4257    0.9032   20.9664 O   0  0  0  0  0  0  0  0  0  0  0  0
    7.8020   -0.6128   20.8520 N   0  0  0  0  0  0  0  0  0  0  0  0
    7.1514   -0.1049   19.8963 C   0  0  0  0  0  0  0  0  0  0  0  0
    7.3626    0.0365   18.5885 C   0  0  0  0  0  0  0  0  0  0  0  0
    6.9877    0.4677   17.5514 N   0  0  0  0  0  0  0  0  0  0  0  0
    5.7971    1.0249   17.8401 C   0  0  0  0  0  0  0  0  0  0  0  0
    5.3165    1.0189   18.9885 C   0  0  0  0  0  0  0  0  0  0  0  0
    5.7729    0.5506   20.1510 C   0  0  0  0  0  0  0  0  0  0  0  0
    5.1454    0.6308   21.5594 C   0  0  0  0  0  0  0  0  0  0  0  0
    5.8279   -5.8075   26.7887 H   0  0  0  0  0  0  0  0  0  0  0  0
    5.2213   -4.3681   25.9019 H   0  0  0  0  0  0  0  0  0  0  0  0
    5.6634   -5.8577   25.0007 H   0  0  0  0  0  0  0  0  0  0  0  0
    6.8557   -3.1130   24.3944 H   0  0  0  0  0  0  0  0  0  0  0  0
    9.3578   -3.8366   24.1218 H   0  0  0  0  0  0  0  0  0  0  0  0
    8.4433   -2.0197   22.4864 H   0  0  0  0  0  0  0  0  0  0  0  0
   10.8231   -1.8191   22.9066 H   0  0  0  0  0  0  0  0  0  0  0  0
    9.8701    0.0634   25.1135 H   0  0  0  0  0  0  0  0  0  0  0  0
   11.6637    0.8512   25.2118 H   0  0  0  0  0  0  0  0  0  0  0  0
   13.5049   -0.8013   24.5416 H   0  0  0  0  0  0  0  0  0  0  0  0
   13.2435    0.4219   23.2524 H   0  0  0  0  0  0  0  0  0  0  0  0
   13.2298   -1.9324   22.3009 H   0  0  0  0  0  0  0  0  0  0  0  0
   11.4781   -2.7188   21.8680 H   0  0  0  0  0  0  0  0  0  0  0  0
   10.6118   -1.5879   23.0804 H   0  0  0  0  0  0  0  0  0  0  0  0
    8.8612   -1.6475   22.0467 H   0  0  0  0  0  0  0  0  0  0  0  0
   10.4205   -0.7997   21.7706 H   0  0  0  0  0  0  0  0  0  0  0  0
    7.4794   -1.4590   21.2763 H   0  0  0  0  0  0  0  0  0  0  0  0
    8.2940   -0.4693   18.3812 H   0  0  0  0  0  0  0  0  0  0  0  0
    5.2373    1.4951   17.0452 H   0  0  0  0  0  0  0  0  0  0  0  0
    4.3431    1.4818   19.0565 H   0  0  0  0  0  0  0  0  0  0  0  0
    4.5202   -0.2573   21.7340 H   0  0  0  0  0  0  0  0  0  0  0  0
    5.9440    0.6711   22.3147 H   0  0  0  0  0  0  0  0  0  0  0  0
    4.5249    1.5361   21.6332 H   0  0  0  0  0  0  0  0  0  0  0  0
 20 21  2  0  0  0  0
 19 20  1  0  0  0  0
 21 22  1  0  0  0  0
 18 19  2  0  0  0  0
 22 23  2  0  0  0  0
 18 23  1  0  0  0  0
 17 18  1  0  0  0  0
 23 24  1  0  0  0  0
 15 16  2  0  0  0  0
 15 17  1  0  0  0  0
 14 15  1  0  0  0  0
  8 14  1  0  0  0  0
 12 13  2  0  0  0  0
 11 12  1  0  0  0  0
  7  8  1  0  0  0  0
  8  9  1  0  0  0  0
 10 11  1  0  0  0  0
  6  7  2  3  0  0  0
  5  6  1  0  0  0  0
  9 10  2  0  0  0  0
  2  5  1  0  0  0  0
  2  3  2  0  0  0  0
  1  2  1  0  0  0  0
  2  4  2  0  0  0  0
  1 25  1  0  0  0  0
  1 26  1  0  0  0  0
  1 27  1  0  0  0  0
  5 28  1  0  0  0  0
  6 29  1  0  0  0  0
  7 30  1  0  0  0  0
  8 31  1  0  0  0  0
  9 32  1  0  0  0  0
 10 33  1  0  0  0  0
 11 34  1  0  0  0  0
 11 35  1  0  0  0  0
 12 36  1  0  0  0  0
 13 37  1  0  0  0  0
 13 38  1  0  0  0  0
 14 39  1  0  0  0  0
 14 40  1  0  0  0  0
 17 41  1  0  0  0  0
 19 42  1  0  0  0  0
 21 43  1  0  0  0  0
 22 44  1  0  0  0  0
 24 45  1  0  0  0  0
 24 46  1  0  0  0  0
 24 47  1  0  0  0  0
M  END
> <Chemgauss4>
-12.898879

$$$$
