MODEL 1
REMARK VINA RESULT:    -6.347      0.000      0.000
REMARK INTER + INTRA:          -7.716
REMARK INTER:                  -7.460
REMARK INTRA:                  -0.256
REMARK UNBOUND:                -0.256
REMARK  3 active torsions:
REMARK  status: ('A' for Active; 'I' for Inactive)
REMARK    1  A    between atoms: O_1  and  C_20 
REMARK    2  A    between atoms: N_3  and  C_10 
REMARK       I    between atoms: N_3  and  C_14 
REMARK    3  A    between atoms: C_7  and  C_13 
ROOT
HETATM    1  H   UNL     1      11.308  -0.445  21.019  1.00  0.00     0.189 HD
HETATM    2  N   UNL     1      10.392  -0.397  21.440  1.00  0.00    -0.278 N 
HETATM    3  C   UNL     1       8.250  -0.126  21.161  1.00  0.00     0.153 C 
HETATM    4  C   UNL     1      10.126  -0.504  22.726  1.00  0.00     0.169 C 
HETATM    5  S   UNL     1       8.319  -0.342  22.911  1.00  0.00    -0.028 SA
HETATM    6  N   UNL     1       9.395  -0.304  20.604  1.00  0.00    -0.288 N 
ATOM      7  HN  UNL     1       9.515  -0.367  19.593  1.00  0.00     0.188 HD
ENDROOT
BRANCH   3   8
HETATM    8  C   UNL     1       7.231   0.329  20.206  1.00  0.00     0.249 C 
HETATM    9  O   UNL     1       5.961   0.684  20.439  1.00  0.00    -0.259 OA
HETATM   10  C   UNL     1       5.145   1.175  19.481  1.00  0.00     0.205 C 
HETATM   11  C   UNL     1       5.671   1.088  18.177  1.00  0.00     0.178 C 
HETATM   12  N   UNL     1       6.826   0.530  17.998  1.00  0.00    -0.265 N 
HETATM   13  H   UNL     1       7.271   0.191  17.165  1.00  0.00     0.194 HD
HETATM   14  O   UNL     1       7.738   0.416  19.054  1.00  0.00    -0.209 OA
BRANCH  10  15
HETATM   15  O   UNL     1       4.013   1.720  19.838  1.00  0.00    -0.334 OA
HETATM   16  C   UNL     1       3.970   2.670  20.892  1.00  0.00     0.212 C 
ENDBRANCH  10  15
ENDBRANCH   3   8
BRANCH   4  17
HETATM   17  N   UNL     1      11.235  -0.643  23.508  1.00  0.00    -0.293 N 
HETATM   18  H   UNL     1      11.611  -1.567  23.716  1.00  0.00     0.172 HD
HETATM   19  C   UNL     1      11.839   0.383  24.236  1.00  0.00     0.317 C 
HETATM   20  S   UNL     1      11.318   1.942  23.837  1.00  0.00    -0.015 SA
HETATM   21  O   UNL     1      12.685   0.082  25.041  1.00  0.00    -0.255 OA
ENDBRANCH   4  17
TORSDOF 3
ENDMDL
MODEL 2
REMARK VINA RESULT:    -6.045     20.787     22.276
REMARK INTER + INTRA:          -7.361
REMARK INTER:                  -7.182
REMARK INTRA:                  -0.179
REMARK UNBOUND:                -0.256
REMARK  3 active torsions:
REMARK  status: ('A' for Active; 'I' for Inactive)
REMARK    1  A    between atoms: O_1  and  C_20 
REMARK    2  A    between atoms: N_3  and  C_10 
REMARK       I    between atoms: N_3  and  C_14 
REMARK    3  A    between atoms: C_7  and  C_13 
ROOT
HETATM    1  H   UNL     1       1.818 -16.885  10.406  1.00  0.00     0.189 HD
HETATM    2  N   UNL     1       0.855 -16.786  10.693  1.00  0.00    -0.278 N 
HETATM    3  C   UNL     1      -0.562 -16.536  12.326  1.00  0.00     0.153 C 
HETATM    4  C   UNL     1      -0.194 -16.802   9.896  1.00  0.00     0.169 C 
HETATM    5  S   UNL     1      -1.666 -16.584  10.951  1.00  0.00    -0.028 SA
HETATM    6  N   UNL     1       0.671 -16.541  11.960  1.00  0.00    -0.288 N 
ATOM      7  HN  UNL     1       1.441 -16.367  12.607  1.00  0.00     0.188 HD
ENDROOT
BRANCH   3   8
HETATM    8  C   UNL     1      -0.710 -16.618  13.785  1.00  0.00     0.249 C 
HETATM    9  O   UNL     1      -1.756 -16.268  14.544  1.00  0.00    -0.259 OA
HETATM   10  C   UNL     1      -1.804 -16.479  15.877  1.00  0.00     0.205 C 
HETATM   11  C   UNL     1      -0.583 -16.907  16.436  1.00  0.00     0.178 C 
HETATM   12  N   UNL     1       0.456 -17.020  15.672  1.00  0.00    -0.265 N 
HETATM   13  H   UNL     1       1.431 -17.104  15.895  1.00  0.00     0.194 HD
HETATM   14  O   UNL     1       0.315 -17.158  14.286  1.00  0.00    -0.209 OA
BRANCH  10  15
HETATM   15  O   UNL     1      -2.944 -16.332  16.497  1.00  0.00    -0.334 OA
HETATM   16  C   UNL     1      -4.131 -16.060  15.767  1.00  0.00     0.212 C 
ENDBRANCH  10  15
ENDBRANCH   3   8
BRANCH   4  17
HETATM   17  N   UNL     1       0.113 -17.020   8.585  1.00  0.00    -0.293 N 
HETATM   18  H   UNL     1       0.186 -16.241   7.932  1.00  0.00     0.172 HD
HETATM   19  C   UNL     1       0.168 -18.272   7.970  1.00  0.00     0.317 C 
HETATM   20  S   UNL     1       0.160 -19.588   9.031  1.00  0.00    -0.015 SA
HETATM   21  O   UNL     1       0.249 -18.307   6.767  1.00  0.00    -0.255 OA
ENDBRANCH   4  17
TORSDOF 3
ENDMDL
MODEL 3
REMARK VINA RESULT:    -5.750      5.922      7.707
REMARK INTER + INTRA:          -7.014
REMARK INTER:                  -6.770
REMARK INTRA:                  -0.244
REMARK UNBOUND:                -0.256
REMARK  3 active torsions:
REMARK  status: ('A' for Active; 'I' for Inactive)
REMARK    1  A    between atoms: O_1  and  C_20 
REMARK    2  A    between atoms: N_3  and  C_10 
REMARK       I    between atoms: N_3  and  C_14 
REMARK    3  A    between atoms: C_7  and  C_13 
ROOT
HETATM    1  H   UNL     1       8.684  -6.604  26.548  1.00  0.00     0.189 HD
HETATM    2  N   UNL     1       8.238  -5.704  26.453  1.00  0.00    -0.278 N 
HETATM    3  C   UNL     1       8.131  -3.808  25.389  1.00  0.00     0.153 C 
HETATM    4  C   UNL     1       7.266  -5.239  27.211  1.00  0.00     0.169 C 
HETATM    5  S   UNL     1       6.854  -3.575  26.585  1.00  0.00    -0.028 SA
HETATM    6  N   UNL     1       8.622  -4.995  25.428  1.00  0.00    -0.288 N 
ATOM      7  HN  UNL     1       9.259  -5.353  24.716  1.00  0.00     0.188 HD
ENDROOT
BRANCH   3   8
HETATM    8  C   UNL     1       8.850  -2.937  24.449  1.00  0.00     0.249 C 
HETATM    9  O   UNL     1       9.643  -1.892  24.712  1.00  0.00    -0.259 OA
HETATM   10  C   UNL     1      10.325  -1.224  23.756  1.00  0.00     0.205 C 
HETATM   11  C   UNL     1       9.971  -1.584  22.440  1.00  0.00     0.178 C 
HETATM   12  N   UNL     1       9.033  -2.457  22.254  1.00  0.00    -0.265 N 
HETATM   13  H   UNL     1       8.504  -2.691  21.434  1.00  0.00     0.194 HD
HETATM   14  O   UNL     1       8.676  -3.352  23.270  1.00  0.00    -0.209 OA
BRANCH  10  15
HETATM   15  O   UNL     1      11.255  -0.381  24.118  1.00  0.00    -0.334 OA
HETATM   16  C   UNL     1      11.261   0.946  23.614  1.00  0.00     0.212 C 
ENDBRANCH  10  15
ENDBRANCH   3   8
BRANCH   4  17
HETATM   17  N   UNL     1       6.909  -6.076  28.225  1.00  0.00    -0.293 N 
HETATM   18  H   UNL     1       7.531  -6.223  29.020  1.00  0.00     0.172 HD
HETATM   19  C   UNL     1       5.808  -6.934  28.211  1.00  0.00     0.317 C 
HETATM   20  S   UNL     1       4.698  -6.646  26.969  1.00  0.00    -0.015 SA
HETATM   21  O   UNL     1       5.726  -7.763  29.083  1.00  0.00    -0.255 OA
ENDBRANCH   4  17
TORSDOF 3
ENDMDL
MODEL 4
REMARK VINA RESULT:    -5.595      4.834      5.786
REMARK INTER + INTRA:          -6.832
REMARK INTER:                  -6.596
REMARK INTRA:                  -0.237
REMARK UNBOUND:                -0.256
REMARK  3 active torsions:
REMARK  status: ('A' for Active; 'I' for Inactive)
REMARK    1  A    between atoms: O_1  and  C_20 
REMARK    2  A    between atoms: N_3  and  C_10 
REMARK       I    between atoms: N_3  and  C_14 
REMARK    3  A    between atoms: C_7  and  C_13 
ROOT
HETATM    1  H   UNL     1       9.253  -3.516  26.239  1.00  0.00     0.189 HD
HETATM    2  N   UNL     1       8.618  -3.811  25.511  1.00  0.00    -0.278 N 
HETATM    3  C   UNL     1       7.731  -3.401  23.566  1.00  0.00     0.153 C 
HETATM    4  C   UNL     1       7.867  -4.893  25.533  1.00  0.00     0.169 C 
HETATM    5  S   UNL     1       6.930  -4.921  23.968  1.00  0.00    -0.028 SA
HETATM    6  N   UNL     1       8.627  -3.081  24.431  1.00  0.00    -0.288 N 
ATOM      7  HN  UNL     1       9.289  -2.318  24.284  1.00  0.00     0.188 HD
ENDROOT
BRANCH   3   8
HETATM    8  C   UNL     1       7.535  -2.356  22.553  1.00  0.00     0.249 C 
HETATM    9  O   UNL     1       8.316  -1.306  22.268  1.00  0.00    -0.259 OA
HETATM   10  C   UNL     1       8.070  -0.461  21.243  1.00  0.00     0.205 C 
HETATM   11  C   UNL     1       6.816  -0.651  20.629  1.00  0.00     0.178 C 
HETATM   12  N   UNL     1       6.013  -1.551  21.098  1.00  0.00    -0.265 N 
HETATM   13  H   UNL     1       5.032  -1.700  20.949  1.00  0.00     0.194 HD
HETATM   14  O   UNL     1       6.498  -2.607  21.880  1.00  0.00    -0.209 OA
BRANCH  10  15
HETATM   15  O   UNL     1       9.001   0.383  20.887  1.00  0.00    -0.334 OA
HETATM   16  C   UNL     1      10.191   0.509  21.652  1.00  0.00     0.212 C 
ENDBRANCH  10  15
ENDBRANCH   3   8
BRANCH   4  17
HETATM   17  N   UNL     1       7.966  -5.610  26.689  1.00  0.00    -0.293 N 
HETATM   18  H   UNL     1       8.693  -6.316  26.800  1.00  0.00     0.172 HD
HETATM   19  C   UNL     1       7.026  -5.606  27.720  1.00  0.00     0.317 C 
HETATM   20  S   UNL     1       5.869  -4.378  27.625  1.00  0.00    -0.015 SA
HETATM   21  O   UNL     1       7.137  -6.437  28.588  1.00  0.00    -0.255 OA
ENDBRANCH   4  17
TORSDOF 3
ENDMDL
MODEL 5
REMARK VINA RESULT:    -5.591      5.177      6.417
REMARK INTER + INTRA:          -6.828
REMARK INTER:                  -6.569
REMARK INTRA:                  -0.259
REMARK UNBOUND:                -0.256
REMARK  3 active torsions:
REMARK  status: ('A' for Active; 'I' for Inactive)
REMARK    1  A    between atoms: O_1  and  C_20 
REMARK    2  A    between atoms: N_3  and  C_10 
REMARK       I    between atoms: N_3  and  C_14 
REMARK    3  A    between atoms: C_7  and  C_13 
ROOT
HETATM    1  H   UNL     1       3.707  -4.206  23.043  1.00  0.00     0.189 HD
HETATM    2  N   UNL     1       4.701  -4.197  22.866  1.00  0.00    -0.278 N 
HETATM    3  C   UNL     1       6.452  -3.053  22.261  1.00  0.00     0.153 C 
HETATM    4  C   UNL     1       5.513  -5.229  22.964  1.00  0.00     0.169 C 
HETATM    5  S   UNL     1       7.183  -4.636  22.532  1.00  0.00    -0.028 SA
HETATM    6  N   UNL     1       5.211  -3.027  22.598  1.00  0.00    -0.288 N 
ATOM      7  HN  UNL     1       4.671  -2.163  22.652  1.00  0.00     0.188 HD
ENDROOT
BRANCH   3   8
HETATM    8  C   UNL     1       6.884  -1.799  21.630  1.00  0.00     0.249 C 
HETATM    9  O   UNL     1       8.053  -1.157  21.753  1.00  0.00    -0.259 OA
HETATM   10  C   UNL     1       8.365  -0.051  21.043  1.00  0.00     0.205 C 
HETATM   11  C   UNL     1       7.285   0.491  20.318  1.00  0.00     0.178 C 
HETATM   12  N   UNL     1       6.118  -0.061  20.416  1.00  0.00    -0.265 N 
HETATM   13  H   UNL     1       5.207   0.274  20.162  1.00  0.00     0.194 HD
HETATM   14  O   UNL     1       5.986  -1.388  20.845  1.00  0.00    -0.209 OA
BRANCH  10  15
HETATM   15  O   UNL     1       9.602   0.368  21.042  1.00  0.00    -0.334 OA
HETATM   16  C   UNL     1      10.003   1.431  21.893  1.00  0.00     0.212 C 
ENDBRANCH  10  15
ENDBRANCH   3   8
BRANCH   4  17
HETATM   17  N   UNL     1       4.885  -6.395  23.293  1.00  0.00    -0.293 N 
HETATM   18  H   UNL     1       4.437  -6.963  22.574  1.00  0.00     0.172 HD
HETATM   19  C   UNL     1       4.623  -6.829  24.593  1.00  0.00     0.317 C 
HETATM   20  S   UNL     1       5.438  -5.977  25.805  1.00  0.00    -0.015 SA
HETATM   21  O   UNL     1       3.885  -7.771  24.736  1.00  0.00    -0.255 OA
ENDBRANCH   4  17
TORSDOF 3
ENDMDL
MODEL 6
REMARK VINA RESULT:    -5.560      5.509      6.939
REMARK INTER + INTRA:          -6.791
REMARK INTER:                  -6.545
REMARK INTRA:                  -0.246
REMARK UNBOUND:                -0.256
REMARK  3 active torsions:
REMARK  status: ('A' for Active; 'I' for Inactive)
REMARK    1  A    between atoms: O_1  and  C_20 
REMARK    2  A    between atoms: N_3  and  C_10 
REMARK       I    between atoms: N_3  and  C_14 
REMARK    3  A    between atoms: C_7  and  C_13 
ROOT
HETATM    1  H   UNL     1       7.157  -6.846  22.925  1.00  0.00     0.189 HD
HETATM    2  N   UNL     1       6.737  -5.928  22.901  1.00  0.00    -0.278 N 
HETATM    3  C   UNL     1       6.999  -3.794  22.560  1.00  0.00     0.153 C 
HETATM    4  C   UNL     1       5.481  -5.644  23.181  1.00  0.00     0.169 C 
HETATM    5  S   UNL     1       5.285  -3.843  22.975  1.00  0.00    -0.028 SA
HETATM    6  N   UNL     1       7.511  -4.970  22.472  1.00  0.00    -0.288 N 
ATOM      7  HN  UNL     1       8.445  -5.140  22.097  1.00  0.00     0.188 HD
ENDROOT
BRANCH   3   8
HETATM    8  C   UNL     1       8.007  -2.735  22.414  1.00  0.00     0.249 C 
HETATM    9  O   UNL     1       7.951  -1.620  21.675  1.00  0.00    -0.259 OA
HETATM   10  C   UNL     1       8.914  -0.672  21.698  1.00  0.00     0.205 C 
HETATM   11  C   UNL     1      10.075  -1.048  22.400  1.00  0.00     0.178 C 
HETATM   12  N   UNL     1      10.147  -2.235  22.913  1.00  0.00    -0.265 N 
HETATM   13  H   UNL     1      10.932  -2.757  23.257  1.00  0.00     0.194 HD
HETATM   14  O   UNL     1       8.987  -2.976  23.171  1.00  0.00    -0.209 OA
BRANCH  10  15
HETATM   15  O   UNL     1       8.671   0.484  21.140  1.00  0.00    -0.334 OA
HETATM   16  C   UNL     1       8.897   1.690  21.854  1.00  0.00     0.212 C 
ENDBRANCH  10  15
ENDBRANCH   3   8
BRANCH   4  17
HETATM   17  N   UNL     1       4.748  -6.724  23.576  1.00  0.00    -0.293 N 
HETATM   18  H   UNL     1       4.275  -7.310  22.889  1.00  0.00     0.172 HD
HETATM   19  C   UNL     1       4.412  -7.028  24.896  1.00  0.00     0.317 C 
HETATM   20  S   UNL     1       5.259  -6.151  26.067  1.00  0.00    -0.015 SA
HETATM   21  O   UNL     1       3.592  -7.893  25.085  1.00  0.00    -0.255 OA
ENDBRANCH   4  17
TORSDOF 3
ENDMDL
MODEL 7
REMARK VINA RESULT:    -5.510      5.118      6.188
REMARK INTER + INTRA:          -6.733
REMARK INTER:                  -6.472
REMARK INTRA:                  -0.261
REMARK UNBOUND:                -0.256
REMARK  3 active torsions:
REMARK  status: ('A' for Active; 'I' for Inactive)
REMARK    1  A    between atoms: O_1  and  C_20 
REMARK    2  A    between atoms: N_3  and  C_10 
REMARK       I    between atoms: N_3  and  C_14 
REMARK    3  A    between atoms: C_7  and  C_13 
ROOT
HETATM    1  H   UNL     1       3.725  -4.130  23.030  1.00  0.00     0.189 HD
HETATM    2  N   UNL     1       4.719  -4.180  22.862  1.00  0.00    -0.278 N 
HETATM    3  C   UNL     1       6.536  -3.147  22.253  1.00  0.00     0.153 C 
HETATM    4  C   UNL     1       5.471  -5.254  22.989  1.00  0.00     0.169 C 
HETATM    5  S   UNL     1       7.175  -4.763  22.561  1.00  0.00    -0.028 SA
HETATM    6  N   UNL     1       5.296  -3.046  22.578  1.00  0.00    -0.288 N 
ATOM      7  HN  UNL     1       4.804  -2.152  22.610  1.00  0.00     0.188 HD
ENDROOT
BRANCH   3   8
HETATM    8  C   UNL     1       7.043  -1.932  21.603  1.00  0.00     0.249 C 
HETATM    9  O   UNL     1       6.388  -1.059  20.827  1.00  0.00    -0.259 OA
HETATM   10  C   UNL     1       6.949   0.077  20.360  1.00  0.00     0.205 C 
HETATM   11  C   UNL     1       8.337   0.168  20.583  1.00  0.00     0.178 C 
HETATM   12  N   UNL     1       8.951  -0.818  21.154  1.00  0.00    -0.265 N 
HETATM   13  H   UNL     1       9.928  -1.039  21.216  1.00  0.00     0.194 HD
HETATM   14  O   UNL     1       8.247  -1.746  21.932  1.00  0.00    -0.209 OA
BRANCH  10  15
HETATM   15  O   UNL     1       6.178   0.983  19.818  1.00  0.00    -0.334 OA
HETATM   16  C   UNL     1       5.159   0.608  18.903  1.00  0.00     0.212 C 
ENDBRANCH  10  15
ENDBRANCH   3   8
BRANCH   4  17
HETATM   17  N   UNL     1       4.777  -6.376  23.333  1.00  0.00    -0.293 N 
HETATM   18  H   UNL     1       4.255  -6.899  22.631  1.00  0.00     0.172 HD
HETATM   19  C   UNL     1       4.547  -6.811  24.639  1.00  0.00     0.317 C 
HETATM   20  S   UNL     1       5.480  -6.040  25.820  1.00  0.00    -0.015 SA
HETATM   21  O   UNL     1       3.750  -7.700  24.806  1.00  0.00    -0.255 OA
ENDBRANCH   4  17
TORSDOF 3
ENDMDL
MODEL 8
REMARK VINA RESULT:    -5.475      5.110      7.335
REMARK INTER + INTRA:          -6.692
REMARK INTER:                  -6.462
REMARK INTRA:                  -0.230
REMARK UNBOUND:                -0.256
REMARK  3 active torsions:
REMARK  status: ('A' for Active; 'I' for Inactive)
REMARK    1  A    between atoms: O_1  and  C_20 
REMARK    2  A    between atoms: N_3  and  C_10 
REMARK       I    between atoms: N_3  and  C_14 
REMARK    3  A    between atoms: C_7  and  C_13 
ROOT
HETATM    1  H   UNL     1       7.377  -6.262  23.106  1.00  0.00     0.189 HD
HETATM    2  N   UNL     1       7.241  -5.329  23.465  1.00  0.00    -0.278 N 
HETATM    3  C   UNL     1       7.837  -3.235  23.420  1.00  0.00     0.153 C 
HETATM    4  C   UNL     1       6.383  -4.978  24.401  1.00  0.00     0.169 C 
HETATM    5  S   UNL     1       6.571  -3.180  24.648  1.00  0.00    -0.028 SA
HETATM    6  N   UNL     1       7.933  -4.395  22.873  1.00  0.00    -0.288 N 
ATOM      7  HN  UNL     1       8.503  -4.571  22.045  1.00  0.00     0.188 HD
ENDROOT
BRANCH   3   8
HETATM    8  C   UNL     1       8.886  -2.315  22.961  1.00  0.00     0.249 C 
HETATM    9  O   UNL     1      10.203  -2.359  23.195  1.00  0.00    -0.259 OA
HETATM   10  C   UNL     1      11.081  -1.498  22.636  1.00  0.00     0.205 C 
HETATM   11  C   UNL     1      10.477  -0.422  21.955  1.00  0.00     0.178 C 
HETATM   12  N   UNL     1       9.186  -0.322  21.951  1.00  0.00    -0.265 N 
HETATM   13  H   UNL     1       8.586   0.447  21.715  1.00  0.00     0.194 HD
HETATM   14  O   UNL     1       8.379  -1.438  22.208  1.00  0.00    -0.209 OA
BRANCH  10  15
HETATM   15  O   UNL     1      12.358  -1.757  22.722  1.00  0.00    -0.334 OA
HETATM   16  C   UNL     1      13.166  -1.092  23.681  1.00  0.00     0.212 C 
ENDBRANCH  10  15
ENDBRANCH   3   8
BRANCH   4  17
HETATM   17  N   UNL     1       5.678  -6.022  24.922  1.00  0.00    -0.293 N 
HETATM   18  H   UNL     1       6.081  -6.605  25.656  1.00  0.00     0.172 HD
HETATM   19  C   UNL     1       4.475  -6.514  24.415  1.00  0.00     0.317 C 
HETATM   20  S   UNL     1       3.722  -5.517  23.275  1.00  0.00    -0.015 SA
HETATM   21  O   UNL     1       4.067  -7.564  24.846  1.00  0.00    -0.255 OA
ENDBRANCH   4  17
TORSDOF 3
ENDMDL
MODEL 9
REMARK VINA RESULT:    -5.453      4.801      5.703
REMARK INTER + INTRA:          -6.665
REMARK INTER:                  -6.422
REMARK INTRA:                  -0.243
REMARK UNBOUND:                -0.256
REMARK  3 active torsions:
REMARK  status: ('A' for Active; 'I' for Inactive)
REMARK    1  A    between atoms: O_1  and  C_20 
REMARK    2  A    between atoms: N_3  and  C_10 
REMARK       I    between atoms: N_3  and  C_14 
REMARK    3  A    between atoms: C_7  and  C_13 
ROOT
HETATM    1  H   UNL     1      11.750  -0.236  22.241  1.00  0.00     0.189 HD
HETATM    2  N   UNL     1      11.147  -0.369  23.038  1.00  0.00    -0.278 N 
HETATM    3  C   UNL     1       9.738  -1.658  24.084  1.00  0.00     0.153 C 
HETATM    4  C   UNL     1      10.947   0.497  24.011  1.00  0.00     0.169 C 
HETATM    5  S   UNL     1       9.769  -0.270  25.172  1.00  0.00    -0.028 SA
HETATM    6  N   UNL     1      10.592  -1.546  23.130  1.00  0.00    -0.288 N 
ATOM      7  HN  UNL     1      10.818  -2.314  22.497  1.00  0.00     0.188 HD
ENDROOT
BRANCH   3   8
HETATM    8  C   UNL     1       8.888  -2.847  23.935  1.00  0.00     0.249 C 
HETATM    9  O   UNL     1       8.530  -3.745  24.861  1.00  0.00    -0.259 OA
HETATM   10  C   UNL     1       7.664  -4.751  24.617  1.00  0.00     0.205 C 
HETATM   11  C   UNL     1       7.328  -4.904  23.257  1.00  0.00     0.178 C 
HETATM   12  N   UNL     1       7.883  -4.131  22.379  1.00  0.00    -0.265 N 
HETATM   13  H   UNL     1       7.942  -4.206  21.380  1.00  0.00     0.194 HD
HETATM   14  O   UNL     1       8.443  -2.904  22.756  1.00  0.00    -0.209 OA
BRANCH  10  15
HETATM   15  O   UNL     1       7.185  -5.429  25.626  1.00  0.00    -0.334 OA
HETATM   16  C   UNL     1       7.778  -5.321  26.912  1.00  0.00     0.212 C 
ENDBRANCH  10  15
ENDBRANCH   3   8
BRANCH   4  17
HETATM   17  N   UNL     1      11.608   1.678  23.841  1.00  0.00    -0.293 N 
HETATM   18  H   UNL     1      12.615   1.734  23.986  1.00  0.00     0.172 HD
HETATM   19  C   UNL     1      11.000   2.920  23.651  1.00  0.00     0.317 C 
HETATM   20  S   UNL     1       9.347   2.857  23.297  1.00  0.00    -0.015 SA
HETATM   21  O   UNL     1      11.693   3.904  23.718  1.00  0.00    -0.255 OA
ENDBRANCH   4  17
TORSDOF 3
ENDMDL
