stable:False satoms:8 tatoms:24 sratio:0.3333333333333333
  -OEChem-07092417503D

 24 25  0     1  0  0  0  0  0999 V2000
    6.6796   -4.8693   26.4280 C   0  0  0  0  0  0  0  0  0  0  0  0
    8.1927   -4.3379   26.1089 S   0  0  0  0  0  0  0  0  0  0  0  0
    9.0849   -5.4697   26.0040 O   0  0  0  0  0  0  0  0  0  0  0  0
    8.6172   -3.4489   27.1556 O   0  0  0  0  0  0  0  0  0  0  0  0
    8.0891   -3.5599   24.6988 N   0  0  0  0  0  0  0  0  0  0  0  0
    8.9751   -2.9146   24.1647 C   0  0  0  0  0  0  0  0  0  0  0  0
    9.4165   -1.9753   23.5275 C   0  0  0  0  0  0  0  0  0  0  0  0
   10.3144   -1.1072   23.2795 C   0  0  1  0  0  0  0  0  0  0  0  0
   10.9611   -0.0312   24.2841 C   0  0  0  0  0  0  0  0  0  0  0  0
   12.1534    0.2927   24.2222 C   0  0  0  0  0  0  0  0  0  0  0  0
   13.0720   -0.0773   23.5646 C   0  0  0  0  0  0  0  0  0  0  0  0
   12.7039   -1.2975   22.6170 C   0  0  0  0  0  0  0  0  0  0  0  0
   11.8043   -1.7231   22.4975 C   0  0  0  0  0  0  0  0  0  0  0  0
    9.7430   -0.5397   22.3382 C   0  0  0  0  0  0  0  0  0  0  0  0
    9.0519    0.0648   21.3918 C   0  0  0  0  0  0  0  0  0  0  0  0
    9.5064    1.0167   20.9751 O   0  0  0  0  0  0  0  0  0  0  0  0
    7.9266   -0.5799   21.0885 N   0  0  0  0  0  0  0  0  0  0  0  0
    7.1960   -0.1081   20.1704 C   0  0  0  0  0  0  0  0  0  0  0  0
    7.2840   -0.0256   18.8519 C   0  0  0  0  0  0  0  0  0  0  0  0
    6.7955    0.2882   17.7848 N   0  0  0  0  0  0  0  0  0  0  0  0
    5.6291    0.8748   18.2298 C   0  0  0  0  0  0  0  0  0  0  0  0
    5.2753    0.9590   19.4070 C   0  0  0  0  0  0  0  0  0  0  0  0
    5.8080    0.5766   20.5331 C   0  0  0  0  0  0  0  0  0  0  0  0
    5.3042    0.7024   21.9735 C   0  0  0  0  0  0  0  0  0  0  0  0
 20 21  2  0  0  0  0
 19 20  1  0  0  0  0
 21 22  1  0  0  0  0
 18 19  2  0  0  0  0
 22 23  2  0  0  0  0
 18 23  1  0  0  0  0
 17 18  1  0  0  0  0
 23 24  1  0  0  0  0
 15 16  2  0  0  0  0
 15 17  1  0  0  0  0
 14 15  1  0  0  0  0
  8 14  1  0  0  0  0
 12 13  1  0  0  0  0
  8 13  1  0  0  0  0
 11 12  2  0  0  0  0
  7  8  1  0  0  0  0
  8  9  1  0  0  0  0
  6  7  2  3  0  0  0
 10 11  1  0  0  0  0
  5  6  1  0  0  0  0
  9 10  2  0  0  0  0
  2  5  1  0  0  0  0
  2  3  2  0  0  0  0
  1  2  1  0  0  0  0
  2  4  2  0  0  0  0
M  END
> <Shapegauss>
-285.963409

$$$$
