stable:False satoms:8 tatoms:24 sratio:0.3333333333333333
  -OEChem-08062416233D

 45 46  0     1  0  0  0  0  0999 V2000
   -6.0522   -5.1220  -25.7837 C   0  0  0  0  0  0  0  0  0  0  0  0
   -7.5974   -4.5993  -25.6707 S   0  0  0  0  0  0  0  0  0  0  0  0
   -8.4835   -5.7384  -25.5983 O   0  0  0  0  0  0  0  0  0  0  0  0
   -7.9095   -3.7818  -26.8110 O   0  0  0  0  0  0  0  0  0  0  0  0
   -7.6634   -3.7371  -24.3081 N   0  0  0  0  0  0  0  0  0  0  0  0
   -8.6114   -3.0768  -23.9180 C   0  0  0  0  0  0  0  0  0  0  0  0
   -9.1325   -2.1092  -23.3934 C   0  0  0  0  0  0  0  0  0  0  0  0
  -10.0621   -1.2439  -23.3020 C   0  0  1  0  0  0  0  0  0  0  0  0
  -10.6018   -0.2411  -24.4371 C   0  0  0  0  0  0  0  0  0  0  0  0
  -11.7968    0.0648  -24.5303 C   0  0  0  0  0  0  0  0  0  0  0  0
  -12.7802   -0.2815  -23.9594 C   0  0  0  0  0  0  0  0  0  0  0  0
  -12.5093   -1.4365  -22.9034 C   0  0  0  0  0  0  0  0  0  0  0  0
  -11.6247   -1.8383  -22.6572 C   0  0  0  0  0  0  0  0  0  0  0  0
   -9.6078   -0.6114  -22.3386 C   0  0  0  0  0  0  0  0  0  0  0  0
   -9.0355    0.0605  -21.3589 C   0  0  0  0  0  0  0  0  0  0  0  0
   -9.5447    1.0273  -21.0552 O   0  0  0  0  0  0  0  0  0  0  0  0
   -7.9452   -0.5451  -20.8915 N   0  0  0  0  0  0  0  0  0  0  0  0
   -7.3290   -0.0067  -19.9273 C   0  0  0  0  0  0  0  0  0  0  0  0
   -7.5675    0.1525  -18.6347 C   0  0  0  0  0  0  0  0  0  0  0  0
   -7.2071    0.5378  -17.5404 N   0  0  0  0  0  0  0  0  0  0  0  0
   -6.0040    1.1174  -17.8858 C   0  0  0  0  0  0  0  0  0  0  0  0
   -5.5193    1.1376  -19.0184 C   0  0  0  0  0  0  0  0  0  0  0  0
   -5.9162    0.6796  -20.1720 C   0  0  0  0  0  0  0  0  0  0  0  0
   -5.2530    0.7283  -21.5512 C   0  0  0  0  0  0  0  0  0  0  0  0
   -5.9335   -5.7223  -26.6978 H   0  0  0  0  0  0  0  0  0  0  0  0
   -5.3744   -4.2565  -25.8229 H   0  0  0  0  0  0  0  0  0  0  0  0
   -5.8088   -5.7388  -24.9060 H   0  0  0  0  0  0  0  0  0  0  0  0
   -6.9033   -3.0904  -24.3714 H   0  0  0  0  0  0  0  0  0  0  0  0
   -9.4587   -3.6903  -24.1867 H   0  0  0  0  0  0  0  0  0  0  0  0
   -8.4571   -1.8523  -22.5908 H   0  0  0  0  0  0  0  0  0  0  0  0
   -9.8983    0.1788  -25.1409 H   0  0  0  0  0  0  0  0  0  0  0  0
  -11.9873    0.8048  -25.2936 H   0  0  0  0  0  0  0  0  0  0  0  0
  -13.7560    0.1447  -24.1399 H   0  0  0  0  0  0  0  0  0  0  0  0
  -13.3749   -1.8332  -22.3938 H   0  0  0  0  0  0  0  0  0  0  0  0
  -11.5502   -1.7567  -21.5628 H   0  0  0  0  0  0  0  0  0  0  0  0
  -11.6850   -2.8989  -22.9426 H   0  0  0  0  0  0  0  0  0  0  0  0
   -9.9716   -1.3746  -21.6350 H   0  0  0  0  0  0  0  0  0  0  0  0
  -10.3726    0.1698  -22.4599 H   0  0  0  0  0  0  0  0  0  0  0  0
   -7.6225   -1.4025  -21.2923 H   0  0  0  0  0  0  0  0  0  0  0  0
   -8.5552   -0.2553  -18.4783 H   0  0  0  0  0  0  0  0  0  0  0  0
   -5.4396    1.5932  -17.0975 H   0  0  0  0  0  0  0  0  0  0  0  0
   -4.5649    1.6408  -19.0649 H   0  0  0  0  0  0  0  0  0  0  0  0
   -4.6216   -0.1622  -21.6867 H   0  0  0  0  0  0  0  0  0  0  0  0
   -6.0290    0.7493  -22.3305 H   0  0  0  0  0  0  0  0  0  0  0  0
   -4.6320    1.6330  -21.6275 H   0  0  0  0  0  0  0  0  0  0  0  0
 20 21  2  0  0  0  0
 19 20  1  0  0  0  0
 21 22  1  0  0  0  0
 18 19  2  0  0  0  0
 22 23  2  0  0  0  0
 18 23  1  0  0  0  0
 17 18  1  0  0  0  0
 23 24  1  0  0  0  0
 15 16  2  0  0  0  0
 15 17  1  0  0  0  0
 14 15  1  0  0  0  0
  8 14  1  0  0  0  0
 12 13  1  0  0  0  0
  8 13  1  0  0  0  0
 11 12  2  0  0  0  0
  7  8  1  0  0  0  0
  8  9  1  0  0  0  0
  6  7  2  3  0  0  0
 10 11  1  0  0  0  0
  5  6  1  0  0  0  0
  9 10  2  0  0  0  0
  2  5  1  0  0  0  0
  2  3  2  0  0  0  0
  1  2  1  0  0  0  0
  2  4  2  0  0  0  0
  1 25  1  0  0  0  0
  1 26  1  0  0  0  0
  1 27  1  0  0  0  0
  5 28  1  0  0  0  0
  6 29  1  0  0  0  0
  7 30  1  0  0  0  0
  9 31  1  0  0  0  0
 10 32  1  0  0  0  0
 11 33  1  0  0  0  0
 12 34  1  0  0  0  0
 13 35  1  0  0  0  0
 13 36  1  0  0  0  0
 14 37  1  0  0  0  0
 14 38  1  0  0  0  0
 17 39  1  0  0  0  0
 19 40  1  0  0  0  0
 21 41  1  0  0  0  0
 22 42  1  0  0  0  0
 24 43  1  0  0  0  0
 24 44  1  0  0  0  0
 24 45  1  0  0  0  0
M  END
> <Chemgauss4>
-13.044765

$$$$
