stable:False satoms:8 tatoms:24 sratio:0.3333333333333333
  -OEChem-08062416233D

 45 46  0     1  0  0  0  0  0999 V2000
    5.9769   -5.1828   26.0434 C   0  0  0  0  0  0  0  0  0  0  0  0
    7.5222   -4.6601   25.9305 S   0  0  0  0  0  0  0  0  0  0  0  0
    8.4083   -5.7992   25.8581 O   0  0  0  0  0  0  0  0  0  0  0  0
    7.8342   -3.8426   27.0708 O   0  0  0  0  0  0  0  0  0  0  0  0
    7.5882   -3.7979   24.5679 N   0  0  0  0  0  0  0  0  0  0  0  0
    8.5361   -3.1377   24.1778 C   0  0  0  0  0  0  0  0  0  0  0  0
    9.0573   -2.1700   23.6532 C   0  0  0  0  0  0  0  0  0  0  0  0
    9.9869   -1.3047   23.5618 C   0  0  1  0  0  0  0  0  0  0  0  0
   10.5265   -0.3019   24.6969 C   0  0  0  0  0  0  0  0  0  0  0  0
   11.7215    0.0040   24.7901 C   0  0  0  0  0  0  0  0  0  0  0  0
   12.7050   -0.3423   24.2191 C   0  0  0  0  0  0  0  0  0  0  0  0
   12.4341   -1.4973   23.1632 C   0  0  0  0  0  0  0  0  0  0  0  0
   11.5494   -1.8991   22.9170 C   0  0  0  0  0  0  0  0  0  0  0  0
    9.5325   -0.6722   22.5984 C   0  0  0  0  0  0  0  0  0  0  0  0
    8.9602   -0.0003   21.6187 C   0  0  0  0  0  0  0  0  0  0  0  0
    9.4694    0.9665   21.3150 O   0  0  0  0  0  0  0  0  0  0  0  0
    7.8699   -0.6059   21.1513 N   0  0  0  0  0  0  0  0  0  0  0  0
    7.2538   -0.0675   20.1871 C   0  0  0  0  0  0  0  0  0  0  0  0
    7.4922    0.0917   18.8945 C   0  0  0  0  0  0  0  0  0  0  0  0
    7.1318    0.4770   17.8002 N   0  0  0  0  0  0  0  0  0  0  0  0
    5.9287    1.0566   18.1455 C   0  0  0  0  0  0  0  0  0  0  0  0
    5.4441    1.0768   19.2781 C   0  0  0  0  0  0  0  0  0  0  0  0
    5.8409    0.6187   20.4317 C   0  0  0  0  0  0  0  0  0  0  0  0
    5.1778    0.6675   21.8109 C   0  0  0  0  0  0  0  0  0  0  0  0
    5.8582   -5.7831   26.9575 H   0  0  0  0  0  0  0  0  0  0  0  0
    5.2992   -4.3173   26.0827 H   0  0  0  0  0  0  0  0  0  0  0  0
    5.7335   -5.7996   25.1657 H   0  0  0  0  0  0  0  0  0  0  0  0
    6.8281   -3.1512   24.6312 H   0  0  0  0  0  0  0  0  0  0  0  0
    9.3834   -3.7511   24.4465 H   0  0  0  0  0  0  0  0  0  0  0  0
    8.3819   -1.9131   22.8506 H   0  0  0  0  0  0  0  0  0  0  0  0
    9.8231    0.1180   25.4007 H   0  0  0  0  0  0  0  0  0  0  0  0
   11.9120    0.7440   25.5533 H   0  0  0  0  0  0  0  0  0  0  0  0
   13.6808    0.0839   24.3996 H   0  0  0  0  0  0  0  0  0  0  0  0
   13.2997   -1.8940   22.6535 H   0  0  0  0  0  0  0  0  0  0  0  0
   11.4750   -1.8175   21.8226 H   0  0  0  0  0  0  0  0  0  0  0  0
   11.6098   -2.9597   23.2023 H   0  0  0  0  0  0  0  0  0  0  0  0
    9.8963   -1.4355   21.8948 H   0  0  0  0  0  0  0  0  0  0  0  0
   10.2974    0.1090   22.7197 H   0  0  0  0  0  0  0  0  0  0  0  0
    7.5472   -1.4634   21.5521 H   0  0  0  0  0  0  0  0  0  0  0  0
    8.4799   -0.3162   18.7381 H   0  0  0  0  0  0  0  0  0  0  0  0
    5.3643    1.5324   17.3572 H   0  0  0  0  0  0  0  0  0  0  0  0
    4.4896    1.5800   19.3246 H   0  0  0  0  0  0  0  0  0  0  0  0
    4.5463   -0.2230   21.9464 H   0  0  0  0  0  0  0  0  0  0  0  0
    5.9538    0.6885   22.5903 H   0  0  0  0  0  0  0  0  0  0  0  0
    4.5568    1.5722   21.8873 H   0  0  0  0  0  0  0  0  0  0  0  0
 20 21  2  0  0  0  0
 19 20  1  0  0  0  0
 21 22  1  0  0  0  0
 18 19  2  0  0  0  0
 22 23  2  0  0  0  0
 18 23  1  0  0  0  0
 17 18  1  0  0  0  0
 23 24  1  0  0  0  0
 15 16  2  0  0  0  0
 15 17  1  0  0  0  0
 14 15  1  0  0  0  0
  8 14  1  0  0  0  0
 12 13  1  0  0  0  0
  8 13  1  0  0  0  0
 11 12  2  0  0  0  0
  7  8  1  0  0  0  0
  8  9  1  0  0  0  0
  6  7  2  3  0  0  0
 10 11  1  0  0  0  0
  5  6  1  0  0  0  0
  9 10  2  0  0  0  0
  2  5  1  0  0  0  0
  2  3  2  0  0  0  0
  1  2  1  0  0  0  0
  2  4  2  0  0  0  0
  1 25  1  0  0  0  0
  1 26  1  0  0  0  0
  1 27  1  0  0  0  0
  5 28  1  0  0  0  0
  6 29  1  0  0  0  0
  7 30  1  0  0  0  0
  9 31  1  0  0  0  0
 10 32  1  0  0  0  0
 11 33  1  0  0  0  0
 12 34  1  0  0  0  0
 13 35  1  0  0  0  0
 13 36  1  0  0  0  0
 14 37  1  0  0  0  0
 14 38  1  0  0  0  0
 17 39  1  0  0  0  0
 19 40  1  0  0  0  0
 21 41  1  0  0  0  0
 22 42  1  0  0  0  0
 24 43  1  0  0  0  0
 24 44  1  0  0  0  0
 24 45  1  0  0  0  0
M  END
> <Chemgauss4>
-13.041961

$$$$
