MODEL 1
REMARK VINA RESULT:    -4.480      0.000      0.000
REMARK INTER + INTRA:          -4.789
REMARK INTER:                  -4.742
REMARK INTRA:                  -0.047
REMARK UNBOUND:                -0.047
REMARK  1 active torsions:
REMARK  status: ('A' for Active; 'I' for Inactive)
REMARK    1  A    between atoms: C_9  and  N_11 
ROOT
HETATM    1  C   UNL     1       4.797  11.973   4.851  1.00  0.00     0.047 C 
HETATM    2  O   UNL     1       6.079  13.239   3.459  1.00  0.00    -0.380 OA
HETATM    3  N   UNL     1       8.098  11.308   3.046  1.00  0.00    -0.233 NA
HETATM    4  H   UNL     1       7.939  10.408   2.629  1.00  0.00     0.142 HD
HETATM    5  C   UNL     1       7.275  13.674   2.831  1.00  0.00     0.221 C 
HETATM    6  C   UNL     1       7.518  11.499   4.274  1.00  0.00     0.190 A 
HETATM    7  C   UNL     1       6.257  12.494   4.591  1.00  0.00     0.148 C 
HETATM    8  C   UNL     1       8.559  13.456   3.671  1.00  0.00     0.334 C 
HETATM    9  N   UNL     1       8.748  12.079   4.091  1.00  0.00    -0.194 NA
ENDROOT
BRANCH   8  10
HETATM   10  N   UNL     1       9.827  13.709   3.012  1.00  0.00     0.100 N 
HETATM   11  C   UNL     1       9.712  14.917   2.247  1.00  0.00     0.309 C 
HETATM   12  H   UNL     1      10.607  13.620   3.677  1.00  0.00     0.317 HD
ENDBRANCH   8  10
TORSDOF 1
ENDMDL
MODEL 2
REMARK VINA RESULT:    -4.160     32.123     33.405
REMARK INTER + INTRA:          -4.450
REMARK INTER:                  -4.415
REMARK INTRA:                  -0.034
REMARK UNBOUND:                -0.047
REMARK  1 active torsions:
REMARK  status: ('A' for Active; 'I' for Inactive)
REMARK    1  A    between atoms: C_9  and  N_11 
ROOT
HETATM    1  C   UNL     1       1.731 -22.732   9.363  1.00  0.00     0.047 C 
HETATM    2  O   UNL     1       0.577 -20.789   9.081  1.00  0.00    -0.380 OA
HETATM    3  N   UNL     1       2.458 -19.548   7.378  1.00  0.00    -0.233 NA
HETATM    4  H   UNL     1       2.729 -19.910   6.481  1.00  0.00     0.142 HD
HETATM    5  C   UNL     1       0.408 -19.403   8.828  1.00  0.00     0.221 C 
HETATM    6  C   UNL     1       2.843 -20.302   8.458  1.00  0.00     0.190 A 
HETATM    7  C   UNL     1       1.844 -21.165   9.427  1.00  0.00     0.148 C 
HETATM    8  C   UNL     1       1.615 -18.523   9.237  1.00  0.00     0.334 C 
HETATM    9  N   UNL     1       2.868 -18.940   8.632  1.00  0.00    -0.194 NA
ENDROOT
BRANCH   8  10
HETATM   10  N   UNL     1       1.579 -17.128   8.837  1.00  0.00     0.100 N 
HETATM   11  C   UNL     1       0.402 -16.524   9.391  1.00  0.00     0.309 C 
HETATM   12  H   UNL     1       2.489 -16.677   9.004  1.00  0.00     0.317 HD
ENDBRANCH   8  10
TORSDOF 1
ENDMDL
MODEL 3
REMARK VINA RESULT:    -4.131      2.800      3.839
REMARK INTER + INTRA:          -4.420
REMARK INTER:                  -4.367
REMARK INTRA:                  -0.052
REMARK UNBOUND:                -0.047
REMARK  1 active torsions:
REMARK  status: ('A' for Active; 'I' for Inactive)
REMARK    1  A    between atoms: C_9  and  N_11 
ROOT
HETATM    1  C   UNL     1       7.298  14.239   4.434  1.00  0.00     0.047 C 
HETATM    2  O   UNL     1       7.116  15.857   2.843  1.00  0.00    -0.380 OA
HETATM    3  N   UNL     1       8.710  14.570   0.899  1.00  0.00    -0.233 NA
HETATM    4  H   UNL     1       8.492  13.676   0.495  1.00  0.00     0.142 HD
HETATM    5  C   UNL     1       7.517  16.626   1.720  1.00  0.00     0.221 C 
HETATM    6  C   UNL     1       9.034  14.550   2.232  1.00  0.00     0.190 A 
HETATM    7  C   UNL     1       8.116  15.150   3.448  1.00  0.00     0.148 C 
HETATM    8  C   UNL     1       9.051  16.738   1.532  1.00  0.00     0.334 C 
HETATM    9  N   UNL     1       9.720  15.451   1.457  1.00  0.00    -0.194 NA
ENDROOT
BRANCH   8  10
HETATM   10  N   UNL     1       9.521  17.352   0.304  1.00  0.00     0.100 N 
HETATM   11  C   UNL     1       8.641  18.434  -0.032  1.00  0.00     0.309 C 
HETATM   12  H   UNL     1      10.532  17.537   0.352  1.00  0.00     0.317 HD
ENDBRANCH   8  10
TORSDOF 1
ENDMDL
MODEL 4
REMARK VINA RESULT:    -4.053     30.327     31.275
REMARK INTER + INTRA:          -4.337
REMARK INTER:                  -4.258
REMARK INTRA:                  -0.079
REMARK UNBOUND:                -0.047
REMARK  1 active torsions:
REMARK  status: ('A' for Active; 'I' for Inactive)
REMARK    1  A    between atoms: C_9  and  N_11 
ROOT
HETATM    1  C   UNL     1      -0.800 -16.533  12.340  1.00  0.00     0.047 C 
HETATM    2  O   UNL     1       0.511 -17.687  10.879  1.00  0.00    -0.380 OA
HETATM    3  N   UNL     1       1.037 -15.519   9.147  1.00  0.00    -0.233 NA
HETATM    4  H   UNL     1       1.508 -14.677   9.427  1.00  0.00     0.142 HD
HETATM    5  C   UNL     1       1.109 -17.986   9.628  1.00  0.00     0.221 C 
HETATM    6  C   UNL     1      -0.199 -15.716   9.707  1.00  0.00     0.190 A 
HETATM    7  C   UNL     1      -0.574 -16.859  10.819  1.00  0.00     0.148 C 
HETATM    8  C   UNL     1       0.282 -17.540   8.396  1.00  0.00     0.334 C 
HETATM    9  N   UNL     1      -0.054 -16.127   8.406  1.00  0.00    -0.194 NA
ENDROOT
BRANCH   8  10
HETATM   10  N   UNL     1       0.922 -17.650   7.098  1.00  0.00     0.100 N 
HETATM   11  C   UNL     1      -0.026 -17.276   6.088  1.00  0.00     0.309 C 
HETATM   12  H   UNL     1       1.842 -17.189   7.104  1.00  0.00     0.317 HD
ENDBRANCH   8  10
TORSDOF 1
ENDMDL
MODEL 5
REMARK VINA RESULT:    -4.024     32.182     33.473
REMARK INTER + INTRA:          -4.307
REMARK INTER:                  -4.300
REMARK INTRA:                  -0.006
REMARK UNBOUND:                -0.047
REMARK  1 active torsions:
REMARK  status: ('A' for Active; 'I' for Inactive)
REMARK    1  A    between atoms: C_9  and  N_11 
ROOT
HETATM    1  C   UNL     1       3.439 -22.575   7.855  1.00  0.00     0.047 C 
HETATM    2  O   UNL     1       3.814 -20.476   8.654  1.00  0.00    -0.380 OA
HETATM    3  N   UNL     1       1.252 -20.107   9.786  1.00  0.00    -0.233 NA
HETATM    4  H   UNL     1       0.872 -20.681  10.517  1.00  0.00     0.142 HD
HETATM    5  C   UNL     1       3.471 -19.163   9.069  1.00  0.00     0.221 C 
HETATM    6  C   UNL     1       1.428 -20.732   8.577  1.00  0.00     0.190 A 
HETATM    7  C   UNL     1       2.869 -21.110   7.897  1.00  0.00     0.148 C 
HETATM    8  C   UNL     1       2.210 -18.580   8.382  1.00  0.00     0.334 C 
HETATM    9  N   UNL     1       1.033 -19.418   8.526  1.00  0.00    -0.194 NA
ENDROOT
BRANCH   8  10
HETATM   10  N   UNL     1       1.703 -17.321   8.896  1.00  0.00     0.100 N 
HETATM   11  C   UNL     1       0.381 -17.115   8.377  1.00  0.00     0.309 C 
HETATM   12  H   UNL     1       1.848 -17.257   9.913  1.00  0.00     0.317 HD
ENDBRANCH   8  10
TORSDOF 1
ENDMDL
MODEL 6
REMARK VINA RESULT:    -4.001     21.014     22.058
REMARK INTER + INTRA:          -4.281
REMARK INTER:                  -4.258
REMARK INTRA:                  -0.024
REMARK UNBOUND:                -0.047
REMARK  1 active torsions:
REMARK  status: ('A' for Active; 'I' for Inactive)
REMARK    1  A    between atoms: C_9  and  N_11 
ROOT
HETATM    1  C   UNL     1       6.690   2.705  21.798  1.00  0.00     0.047 C 
HETATM    2  O   UNL     1       8.893   2.129  21.792  1.00  0.00    -0.380 OA
HETATM    3  N   UNL     1       8.644  -0.053  20.015  1.00  0.00    -0.233 NA
HETATM    4  H   UNL     1       8.315   0.026  19.069  1.00  0.00     0.142 HD
HETATM    5  C   UNL     1      10.008   1.260  21.670  1.00  0.00     0.221 C 
HETATM    6  C   UNL     1       7.709   0.202  20.986  1.00  0.00     0.190 A 
HETATM    7  C   UNL     1       7.691   1.505  21.977  1.00  0.00     0.148 C 
HETATM    8  C   UNL     1       9.715  -0.219  22.027  1.00  0.00     0.334 C 
HETATM    9  N   UNL     1       8.616  -0.790  21.267  1.00  0.00    -0.194 NA
ENDROOT
BRANCH   8  10
HETATM   10  N   UNL     1      10.761  -1.184  21.746  1.00  0.00     0.100 N 
HETATM   11  C   UNL     1      11.554  -1.356  22.929  1.00  0.00     0.309 C 
HETATM   12  H   UNL     1      10.372  -2.021  21.288  1.00  0.00     0.317 HD
ENDBRANCH   8  10
TORSDOF 1
ENDMDL
MODEL 7
REMARK VINA RESULT:    -3.912     24.335     25.170
REMARK INTER + INTRA:          -4.187
REMARK INTER:                  -4.125
REMARK INTRA:                  -0.062
REMARK UNBOUND:                -0.047
REMARK  1 active torsions:
REMARK  status: ('A' for Active; 'I' for Inactive)
REMARK    1  A    between atoms: C_9  and  N_11 
ROOT
HETATM    1  C   UNL     1      24.328  -1.746  19.569  1.00  0.00     0.047 C 
HETATM    2  O   UNL     1      23.809  -0.342  17.853  1.00  0.00    -0.380 OA
HETATM    3  N   UNL     1      22.711  -2.312  16.153  1.00  0.00    -0.233 NA
HETATM    4  H   UNL     1      21.909  -2.871  16.384  1.00  0.00     0.142 HD
HETATM    5  C   UNL     1      23.564   0.027  16.505  1.00  0.00     0.221 C 
HETATM    6  C   UNL     1      23.831  -2.549  16.910  1.00  0.00     0.190 A 
HETATM    7  C   UNL     1      24.470  -1.527  18.018  1.00  0.00     0.148 C 
HETATM    8  C   UNL     1      24.309  -0.836  15.456  1.00  0.00     0.334 C 
HETATM    9  N   UNL     1      24.048  -2.259  15.586  1.00  0.00    -0.194 NA
ENDROOT
BRANCH   8  10
HETATM   10  N   UNL     1      23.957  -0.629  14.063  1.00  0.00     0.100 N 
HETATM   11  C   UNL     1      25.053  -1.063  13.246  1.00  0.00     0.309 C 
HETATM   12  H   UNL     1      23.017  -1.000  13.865  1.00  0.00     0.317 HD
ENDBRANCH   8  10
TORSDOF 1
ENDMDL
MODEL 8
REMARK VINA RESULT:    -3.883     21.801     22.835
REMARK INTER + INTRA:          -4.156
REMARK INTER:                  -4.112
REMARK INTRA:                  -0.045
REMARK UNBOUND:                -0.047
REMARK  1 active torsions:
REMARK  status: ('A' for Active; 'I' for Inactive)
REMARK    1  A    between atoms: C_9  and  N_11 
ROOT
HETATM    1  C   UNL     1       8.217   3.401  24.571  1.00  0.00     0.047 C 
HETATM    2  O   UNL     1       9.870   1.842  24.418  1.00  0.00    -0.380 OA
HETATM    3  N   UNL     1      10.383   2.196  21.663  1.00  0.00    -0.233 NA
HETATM    4  H   UNL     1      10.697   3.059  21.255  1.00  0.00     0.142 HD
HETATM    5  C   UNL     1      10.686   0.873  23.780  1.00  0.00     0.221 C 
HETATM    6  C   UNL     1       9.109   2.214  22.172  1.00  0.00     0.190 A 
HETATM    7  C   UNL     1       8.712   2.149  23.759  1.00  0.00     0.148 C 
HETATM    8  C   UNL     1      10.010   0.143  22.592  1.00  0.00     0.334 C 
HETATM    9  N   UNL     1       9.503   1.044  21.572  1.00  0.00    -0.194 NA
ENDROOT
BRANCH   8  10
HETATM   10  N   UNL     1      10.850  -0.723  21.787  1.00  0.00     0.100 N 
HETATM   11  C   UNL     1      11.655  -1.523  22.664  1.00  0.00     0.309 C 
HETATM   12  H   UNL     1      10.296  -1.196  21.059  1.00  0.00     0.317 HD
ENDBRANCH   8  10
TORSDOF 1
ENDMDL
MODEL 9
REMARK VINA RESULT:    -3.826     24.599     25.676
REMARK INTER + INTRA:          -4.096
REMARK INTER:                  -4.054
REMARK INTRA:                  -0.043
REMARK UNBOUND:                -0.047
REMARK  1 active torsions:
REMARK  status: ('A' for Active; 'I' for Inactive)
REMARK    1  A    between atoms: C_9  and  N_11 
ROOT
HETATM    1  C   UNL     1       3.346  -5.922  23.115  1.00  0.00     0.047 C 
HETATM    2  O   UNL     1       4.588  -4.142  22.427  1.00  0.00    -0.380 OA
HETATM    3  N   UNL     1       6.722  -5.645  21.346  1.00  0.00    -0.233 NA
HETATM    4  H   UNL     1       6.623  -6.298  20.589  1.00  0.00     0.142 HD
HETATM    5  C   UNL     1       5.772  -3.438  22.088  1.00  0.00     0.221 C 
HETATM    6  C   UNL     1       6.102  -6.003  22.516  1.00  0.00     0.190 A 
HETATM    7  C   UNL     1       4.781  -5.280  23.159  1.00  0.00     0.148 C 
HETATM    8  C   UNL     1       7.046  -3.930  22.819  1.00  0.00     0.334 C 
HETATM    9  N   UNL     1       7.303  -5.349  22.644  1.00  0.00    -0.194 NA
ENDROOT
BRANCH   8  10
HETATM   10  N   UNL     1       8.314  -3.376  22.381  1.00  0.00     0.100 N 
HETATM   11  C   UNL     1       8.179  -1.951  22.279  1.00  0.00     0.309 C 
HETATM   12  H   UNL     1       9.091  -3.758  22.937  1.00  0.00     0.317 HD
ENDBRANCH   8  10
TORSDOF 1
ENDMDL
