REMARK  1 active torsions:
REMARK  status: ('A' for Active; 'I' for Inactive)
REMARK    1  A    between atoms: C_6  and  C_11 
ROOT
HETATM    1  N   UNL     1       6.383   0.503  21.580  1.00  0.00    -0.172 NA
HETATM    2  C   UNL     1       8.811   0.293  23.894  1.00  0.00     0.169 C 
HETATM    3  C   UNL     1       8.020  -1.878  23.205  1.00  0.00     0.052 C 
HETATM    4  C   UNL     1       8.545  -2.583  24.340  1.00  0.00     0.072 C 
HETATM    5  N   UNL     1       8.121  -0.607  22.991  1.00  0.00    -0.291 N 
HETATM    6  C   UNL     1       7.171  -0.030  22.177  1.00  0.00     0.184 C 
ENDROOT
BRANCH   3   7
HETATM    7  C   UNL     1       6.985  -2.659  22.378  1.00  0.00     0.107 A 
HETATM    8  N   UNL     1       6.618  -3.772  22.340  1.00  0.00    -0.208 NA
HETATM    9  H   UNL     1       6.361  -4.510  21.737  1.00  0.00     0.148 HD
HETATM   10  N   UNL     1       6.137  -2.392  21.666  1.00  0.00    -0.208 NA
HETATM   11  H   UNL     1       5.464  -2.487  20.996  1.00  0.00     0.148 HD
ENDBRANCH   3   7
TORSDOF 1
