MODEL 1
REMARK VINA RESULT:    -6.510      0.000      0.000
REMARK INTER + INTRA:         -10.236
REMARK INTER:                  -9.174
REMARK INTRA:                  -1.062
REMARK UNBOUND:                -1.062
REMARK  7 active torsions:
REMARK  status: ('A' for Active; 'I' for Inactive)
REMARK    1  A    between atoms: N_2  and  N_4 
REMARK    2  A    between atoms: N_4  and  C_6 
REMARK    3  A    between atoms: C_6  and  C_17 
REMARK    4  A    between atoms: C_7  and  C_17 
REMARK    5  A    between atoms: C_17  and  C_18 
REMARK       I    between atoms: C_18  and  N_20 
REMARK    6  A    between atoms: N_20  and  C_22 
REMARK    7  A    between atoms: C_22  and  N_23 
ROOT
HETATM    1  C   UNL     1       8.865  15.033   1.833  1.00  0.00     0.125 C 
ENDROOT
BRANCH   1   2
HETATM    2  C   UNL     1       9.033  16.071   1.143  1.00  0.00    -0.006 C 
BRANCH   2   3
HETATM    3  N   UNL     1       9.479  16.950   0.351  1.00  0.00    -0.269 N 
ATOM      4  HN  UNL     1       9.502  16.642  -0.621  1.00  0.00     0.196 HD
BRANCH   3   5
HETATM    5  N   UNL     1       9.898  18.118   0.509  1.00  0.00    -0.334 N 
HETATM    6  C   UNL     1       9.673  19.079   1.529  1.00  0.00     0.168 C 
ATOM      7  HN  UNL     1      10.516  18.441  -0.235  1.00  0.00     0.180 HD
ENDBRANCH   3   5
ENDBRANCH   2   3
ENDBRANCH   1   2
BRANCH   1   8
HETATM    8  C   UNL     1       9.725  15.226   2.826  1.00  0.00     0.091 A 
HETATM    9  N   UNL     1      10.925  14.635   3.001  1.00  0.00    -0.282 N 
HETATM   10  N   UNL     1      11.713  14.991   3.918  1.00  0.00    -0.228 N 
ATOM     11  HN  UNL     1      11.203  13.879   2.375  1.00  0.00     0.188 HD
HETATM   12  N   UNL     1      11.503  15.934   4.728  1.00  0.00    -0.229 N 
ATOM     13  HN  UNL     1      12.589  14.476   4.012  1.00  0.00     0.210 HD
HETATM   14  N   UNL     1      10.391  16.645   4.676  1.00  0.00    -0.294 N 
ATOM     15  HN  UNL     1      12.204  16.152   5.436  1.00  0.00     0.210 HD
HETATM   16  C   UNL     1       9.802  16.169   3.859  1.00  0.00     0.141 A 
ATOM     17  HN  UNL     1      10.131  17.446   5.252  1.00  0.00     0.187 HD
ENDBRANCH   1   8
BRANCH   1  18
HETATM   18  C   UNL     1       7.948  13.771   1.777  1.00  0.00     0.269 C 
HETATM   19  O   UNL     1       7.218  13.629   0.834  1.00  0.00    -0.266 OA
HETATM   20  N   UNL     1       8.048  12.928   2.812  1.00  0.00    -0.308 N 
ATOM     21  HN  UNL     1       8.677  13.225   3.559  1.00  0.00     0.170 HD
BRANCH  20  22
HETATM   22  C   UNL     1       7.421  11.714   3.013  1.00  0.00     0.112 C 
HETATM   23  C   UNL     1       7.227  11.275   4.309  1.00  0.00     0.065 C 
BRANCH  22  24
HETATM   24  N   UNL     1       7.082  10.916   1.993  1.00  0.00    -0.293 N 
HETATM   25  N   UNL     1       5.985  10.830   1.363  1.00  0.00    -0.344 N 
HETATM   26  H   UNL     1       5.232  11.459   1.306  1.00  0.00     0.176 HD
ATOM     27  HN  UNL     1       5.864   9.968   0.831  1.00  0.00     0.176 HD
ATOM     28  HN  UNL     1       7.817  10.283   1.675  1.00  0.00     0.188 HD
ENDBRANCH  22  24
ENDBRANCH  20  22
ENDBRANCH   1  18
TORSDOF 7
ENDMDL
MODEL 2
REMARK VINA RESULT:    -6.203      2.718      6.758
REMARK INTER + INTRA:          -9.803
REMARK INTER:                  -8.950
REMARK INTRA:                  -0.853
REMARK UNBOUND:                -1.062
REMARK  7 active torsions:
REMARK  status: ('A' for Active; 'I' for Inactive)
REMARK    1  A    between atoms: N_2  and  N_4 
REMARK    2  A    between atoms: N_4  and  C_6 
REMARK    3  A    between atoms: C_6  and  C_17 
REMARK    4  A    between atoms: C_7  and  C_17 
REMARK    5  A    between atoms: C_17  and  C_18 
REMARK       I    between atoms: C_18  and  N_20 
REMARK    6  A    between atoms: N_20  and  C_22 
REMARK    7  A    between atoms: C_22  and  N_23 
ROOT
HETATM    1  C   UNL     1       6.341  11.555   2.874  1.00  0.00     0.125 C 
ENDROOT
BRANCH   1   2
HETATM    2  C   UNL     1       5.258  11.840   2.299  1.00  0.00    -0.006 C 
BRANCH   2   3
HETATM    3  N   UNL     1       4.376  12.296   1.517  1.00  0.00    -0.269 N 
ATOM      4  HN  UNL     1       4.764  12.707   0.669  1.00  0.00     0.196 HD
BRANCH   3   5
HETATM    5  N   UNL     1       3.128  12.349   1.565  1.00  0.00    -0.334 N 
HETATM    6  C   UNL     1       2.232  13.403   1.885  1.00  0.00     0.168 C 
ATOM      7  HN  UNL     1       2.666  11.470   1.330  1.00  0.00     0.180 HD
ENDBRANCH   3   5
ENDBRANCH   2   3
ENDBRANCH   1   2
BRANCH   1   8
HETATM    8  C   UNL     1       6.105  10.320   3.300  1.00  0.00     0.091 A 
HETATM    9  N   UNL     1       6.460   9.776   4.483  1.00  0.00    -0.282 N 
HETATM   10  N   UNL     1       6.070   8.629   4.830  1.00  0.00    -0.228 N 
ATOM     11  HN  UNL     1       7.061  10.307   5.113  1.00  0.00     0.188 HD
HETATM   12  N   UNL     1       5.296   7.893   4.159  1.00  0.00    -0.229 N 
ATOM     13  HN  UNL     1       6.407   8.268   5.723  1.00  0.00     0.210 HD
HETATM   14  N   UNL     1       4.822   8.285   2.991  1.00  0.00    -0.294 N 
ATOM     15  HN  UNL     1       5.032   6.979   4.525  1.00  0.00     0.210 HD
HETATM   16  C   UNL     1       5.301   9.277   2.822  1.00  0.00     0.141 A 
ATOM     17  HN  UNL     1       4.167   7.793   2.382  1.00  0.00     0.187 HD
ENDBRANCH   1   8
BRANCH   1  18
HETATM   18  C   UNL     1       7.716  12.254   3.111  1.00  0.00     0.269 C 
HETATM   19  O   UNL     1       8.515  11.725   3.836  1.00  0.00    -0.266 OA
HETATM   20  N   UNL     1       7.899  13.418   2.475  1.00  0.00    -0.308 N 
ATOM     21  HN  UNL     1       7.097  13.755   1.940  1.00  0.00     0.170 HD
BRANCH  20  22
HETATM   22  C   UNL     1       9.018  14.227   2.439  1.00  0.00     0.112 C 
HETATM   23  C   UNL     1       9.008  15.335   1.614  1.00  0.00     0.065 C 
BRANCH  22  24
HETATM   24  N   UNL     1      10.136  13.916   3.106  1.00  0.00    -0.293 N 
HETATM   25  N   UNL     1      11.172  14.616   3.319  1.00  0.00    -0.344 N 
HETATM   26  H   UNL     1      11.306  15.588   3.263  1.00  0.00     0.176 HD
ATOM     27  HN  UNL     1      11.999  14.084   3.592  1.00  0.00     0.176 HD
ATOM     28  HN  UNL     1      10.158  12.976   3.503  1.00  0.00     0.188 HD
ENDBRANCH  22  24
ENDBRANCH  20  22
ENDBRANCH   1  18
TORSDOF 7
ENDMDL
MODEL 3
REMARK VINA RESULT:    -6.118      2.073      5.279
REMARK INTER + INTRA:          -9.684
REMARK INTER:                  -8.759
REMARK INTRA:                  -0.925
REMARK UNBOUND:                -1.062
REMARK  7 active torsions:
REMARK  status: ('A' for Active; 'I' for Inactive)
REMARK    1  A    between atoms: N_2  and  N_4 
REMARK    2  A    between atoms: N_4  and  C_6 
REMARK    3  A    between atoms: C_6  and  C_17 
REMARK    4  A    between atoms: C_7  and  C_17 
REMARK    5  A    between atoms: C_17  and  C_18 
REMARK       I    between atoms: C_18  and  N_20 
REMARK    6  A    between atoms: N_20  and  C_22 
REMARK    7  A    between atoms: C_22  and  N_23 
ROOT
HETATM    1  C   UNL     1       9.712  15.325   2.624  1.00  0.00     0.125 C 
ENDROOT
BRANCH   1   2
HETATM    2  C   UNL     1       9.388  15.769   1.492  1.00  0.00    -0.006 C 
BRANCH   2   3
HETATM    3  N   UNL     1       9.355  16.378   0.385  1.00  0.00    -0.269 N 
ATOM      4  HN  UNL     1       9.187  15.760  -0.409  1.00  0.00     0.196 HD
BRANCH   3   5
HETATM    5  N   UNL     1       9.485  17.577   0.057  1.00  0.00    -0.334 N 
HETATM    6  C   UNL     1       8.563  18.657   0.015  1.00  0.00     0.168 C 
ATOM      7  HN  UNL     1      10.429  17.828  -0.234  1.00  0.00     0.180 HD
ENDBRANCH   3   5
ENDBRANCH   2   3
ENDBRANCH   1   2
BRANCH   1   8
HETATM    8  C   UNL     1       9.072  14.162   2.652  1.00  0.00     0.091 A 
HETATM    9  N   UNL     1       9.411  13.053   3.342  1.00  0.00    -0.282 N 
HETATM   10  N   UNL     1       8.656  12.045   3.392  1.00  0.00    -0.228 N 
ATOM     11  HN  UNL     1      10.302  13.030   3.837  1.00  0.00     0.188 HD
HETATM   12  N   UNL     1       7.516  11.967   2.858  1.00  0.00    -0.229 N 
ATOM     13  HN  UNL     1       8.993  11.230   3.904  1.00  0.00     0.210 HD
HETATM   14  N   UNL     1       7.012  12.976   2.173  1.00  0.00    -0.294 N 
ATOM     15  HN  UNL     1       6.975  11.108   2.956  1.00  0.00     0.210 HD
HETATM   16  C   UNL     1       7.817  13.745   2.188  1.00  0.00     0.141 A 
ATOM     17  HN  UNL     1       6.094  13.038   1.731  1.00  0.00     0.187 HD
ENDBRANCH   1   8
BRANCH   1  18
HETATM   18  C   UNL     1      10.617  15.790   3.807  1.00  0.00     0.269 C 
HETATM   19  O   UNL     1      11.437  15.027   4.241  1.00  0.00    -0.266 OA
HETATM   20  N   UNL     1      10.401  17.032   4.257  1.00  0.00    -0.308 N 
ATOM     21  HN  UNL     1       9.628  17.530   3.814  1.00  0.00     0.170 HD
BRANCH  20  22
HETATM   22  C   UNL     1      11.075  17.736   5.236  1.00  0.00     0.112 C 
HETATM   23  C   UNL     1      10.348  18.299   6.267  1.00  0.00     0.065 C 
BRANCH  22  24
HETATM   24  N   UNL     1      12.393  17.963   5.163  1.00  0.00    -0.293 N 
HETATM   25  N   UNL     1      13.094  18.339   4.177  1.00  0.00    -0.344 N 
HETATM   26  H   UNL     1      12.830  18.771   3.334  1.00  0.00     0.176 HD
ATOM     27  HN  UNL     1      14.095  18.165   4.273  1.00  0.00     0.176 HD
ATOM     28  HN  UNL     1      12.908  17.809   6.030  1.00  0.00     0.188 HD
ENDBRANCH  22  24
ENDBRANCH  20  22
ENDBRANCH   1  18
TORSDOF 7
ENDMDL
MODEL 4
REMARK VINA RESULT:    -6.085     21.676     23.618
REMARK INTER + INTRA:          -9.638
REMARK INTER:                  -8.806
REMARK INTRA:                  -0.832
REMARK UNBOUND:                -1.062
REMARK  7 active torsions:
REMARK  status: ('A' for Active; 'I' for Inactive)
REMARK    1  A    between atoms: N_2  and  N_4 
REMARK    2  A    between atoms: N_4  and  C_6 
REMARK    3  A    between atoms: C_6  and  C_17 
REMARK    4  A    between atoms: C_7  and  C_17 
REMARK    5  A    between atoms: C_17  and  C_18 
REMARK       I    between atoms: C_18  and  N_20 
REMARK    6  A    between atoms: N_20  and  C_22 
REMARK    7  A    between atoms: C_22  and  N_23 
ROOT
HETATM    1  C   UNL     1       8.514   0.792  21.154  1.00  0.00     0.125 C 
ENDROOT
BRANCH   1   2
HETATM    2  C   UNL     1       8.853   1.702  21.955  1.00  0.00    -0.006 C 
BRANCH   2   3
HETATM    3  N   UNL     1       9.380   2.713  22.498  1.00  0.00    -0.269 N 
ATOM      4  HN  UNL     1       8.696   3.384  22.848  1.00  0.00     0.196 HD
BRANCH   3   5
HETATM    5  N   UNL     1      10.563   3.064  22.698  1.00  0.00    -0.334 N 
HETATM    6  C   UNL     1      11.152   3.915  23.671  1.00  0.00     0.168 C 
ATOM      7  HN  UNL     1      11.231   2.666  22.038  1.00  0.00     0.180 HD
ENDBRANCH   3   5
ENDBRANCH   2   3
ENDBRANCH   1   2
BRANCH   1   8
HETATM    8  C   UNL     1       9.185  -0.251  21.628  1.00  0.00     0.091 A 
HETATM    9  N   UNL     1      10.516  -0.466  21.576  1.00  0.00    -0.282 N 
HETATM   10  N   UNL     1      11.056  -1.434  22.174  1.00  0.00    -0.228 N 
ATOM     11  HN  UNL     1      11.102   0.173  21.039  1.00  0.00     0.188 HD
HETATM   12  N   UNL     1      10.448  -2.267  22.901  1.00  0.00    -0.229 N 
ATOM     13  HN  UNL     1      12.063  -1.554  22.062  1.00  0.00     0.210 HD
HETATM   14  N   UNL     1       9.144  -2.184  23.091  1.00  0.00    -0.294 N 
ATOM     15  HN  UNL     1      10.973  -3.018  23.349  1.00  0.00     0.210 HD
HETATM   16  C   UNL     1       8.831  -1.321  22.461  1.00  0.00     0.141 A 
ATOM     17  HN  UNL     1       8.558  -2.776  23.681  1.00  0.00     0.187 HD
ENDBRANCH   1   8
BRANCH   1  18
HETATM   18  C   UNL     1       7.567   0.663  19.919  1.00  0.00     0.269 C 
HETATM   19  O   UNL     1       7.952   0.055  18.958  1.00  0.00    -0.266 OA
HETATM   20  N   UNL     1       6.373   1.258  20.032  1.00  0.00    -0.308 N 
ATOM     21  HN  UNL     1       6.225   1.781  20.896  1.00  0.00     0.170 HD
BRANCH  20  22
HETATM   22  C   UNL     1       5.313   1.265  19.146  1.00  0.00     0.112 C 
HETATM   23  C   UNL     1       4.096   1.759  19.574  1.00  0.00     0.065 C 
BRANCH  22  24
HETATM   24  N   UNL     1       5.410   0.725  17.925  1.00  0.00    -0.293 N 
HETATM   25  N   UNL     1       5.515  -0.491  17.585  1.00  0.00    -0.344 N 
HETATM   26  H   UNL     1       5.315  -1.313  18.086  1.00  0.00     0.176 HD
ATOM     27  HN  UNL     1       5.863  -0.642  16.637  1.00  0.00     0.176 HD
ATOM     28  HN  UNL     1       5.398   1.393  17.153  1.00  0.00     0.188 HD
ENDBRANCH  22  24
ENDBRANCH  20  22
ENDBRANCH   1  18
TORSDOF 7
ENDMDL
MODEL 5
REMARK VINA RESULT:    -5.957     22.138     24.748
REMARK INTER + INTRA:          -9.456
REMARK INTER:                  -8.414
REMARK INTRA:                  -1.043
REMARK UNBOUND:                -1.062
REMARK  7 active torsions:
REMARK  status: ('A' for Active; 'I' for Inactive)
REMARK    1  A    between atoms: N_2  and  N_4 
REMARK    2  A    between atoms: N_4  and  C_6 
REMARK    3  A    between atoms: C_6  and  C_17 
REMARK    4  A    between atoms: C_7  and  C_17 
REMARK    5  A    between atoms: C_17  and  C_18 
REMARK       I    between atoms: C_18  and  N_20 
REMARK    6  A    between atoms: N_20  and  C_22 
REMARK    7  A    between atoms: C_22  and  N_23 
ROOT
HETATM    1  C   UNL     1       7.461  -0.647  21.813  1.00  0.00     0.125 C 
ENDROOT
BRANCH   1   2
HETATM    2  C   UNL     1       6.879  -1.248  22.753  1.00  0.00    -0.006 C 
BRANCH   2   3
HETATM    3  N   UNL     1       6.111  -1.976  23.444  1.00  0.00    -0.269 N 
ATOM      4  HN  UNL     1       6.226  -1.841  24.449  1.00  0.00     0.196 HD
BRANCH   3   5
HETATM    5  N   UNL     1       5.240  -2.825  23.157  1.00  0.00    -0.334 N 
HETATM    6  C   UNL     1       5.331  -4.132  22.609  1.00  0.00     0.168 C 
ATOM      7  HN  UNL     1       4.286  -2.524  23.351  1.00  0.00     0.180 HD
ENDBRANCH   3   5
ENDBRANCH   2   3
ENDBRANCH   1   2
BRANCH   1   8
HETATM    8  C   UNL     1       8.735  -0.755  22.171  1.00  0.00     0.091 A 
HETATM    9  N   UNL     1       9.749  -1.285  21.455  1.00  0.00    -0.282 N 
HETATM   10  N   UNL     1      10.944  -1.218  21.846  1.00  0.00    -0.228 N 
ATOM     11  HN  UNL     1       9.542  -1.753  20.572  1.00  0.00     0.188 HD
HETATM   12  N   UNL     1      11.332  -0.634  22.895  1.00  0.00    -0.229 N 
ATOM     13  HN  UNL     1      11.654  -1.672  21.271  1.00  0.00     0.210 HD
HETATM   14  N   UNL     1      10.475  -0.029  23.697  1.00  0.00    -0.294 N 
ATOM     15  HN  UNL     1      12.324  -0.630  23.128  1.00  0.00     0.210 HD
HETATM   16  C   UNL     1       9.481  -0.229  23.234  1.00  0.00     0.141 A 
ATOM     17  HN  UNL     1      10.676   0.500  24.546  1.00  0.00     0.187 HD
ENDBRANCH   1   8
BRANCH   1  18
HETATM   18  C   UNL     1       7.040   0.059  20.486  1.00  0.00     0.269 C 
HETATM   19  O   UNL     1       7.889   0.319  19.677  1.00  0.00    -0.266 OA
HETATM   20  N   UNL     1       5.736   0.327  20.353  1.00  0.00    -0.308 N 
ATOM     21  HN  UNL     1       5.156   0.089  21.159  1.00  0.00     0.170 HD
BRANCH  20  22
HETATM   22  C   UNL     1       5.062   0.880  19.281  1.00  0.00     0.112 C 
HETATM   23  C   UNL     1       4.091   1.831  19.528  1.00  0.00     0.065 C 
BRANCH  22  24
HETATM   24  N   UNL     1       5.260   0.454  18.027  1.00  0.00    -0.293 N 
HETATM   25  N   UNL     1       5.656  -0.675  17.610  1.00  0.00    -0.344 N 
HETATM   26  H   UNL     1       5.680  -1.549  18.060  1.00  0.00     0.176 HD
ATOM     27  HN  UNL     1       6.008  -0.678  16.652  1.00  0.00     0.176 HD
ATOM     28  HN  UNL     1       5.063   1.142  17.300  1.00  0.00     0.188 HD
ENDBRANCH  22  24
ENDBRANCH  20  22
ENDBRANCH   1  18
TORSDOF 7
ENDMDL
MODEL 6
REMARK VINA RESULT:    -5.907     21.753     23.994
REMARK INTER + INTRA:          -9.387
REMARK INTER:                  -8.505
REMARK INTRA:                  -0.882
REMARK UNBOUND:                -1.062
REMARK  7 active torsions:
REMARK  status: ('A' for Active; 'I' for Inactive)
REMARK    1  A    between atoms: N_2  and  N_4 
REMARK    2  A    between atoms: N_4  and  C_6 
REMARK    3  A    between atoms: C_6  and  C_17 
REMARK    4  A    between atoms: C_7  and  C_17 
REMARK    5  A    between atoms: C_17  and  C_18 
REMARK       I    between atoms: C_18  and  N_20 
REMARK    6  A    between atoms: N_20  and  C_22 
REMARK    7  A    between atoms: C_22  and  N_23 
ROOT
HETATM    1  C   UNL     1       6.912   0.736  21.267  1.00  0.00     0.125 C 
ENDROOT
BRANCH   1   2
HETATM    2  C   UNL     1       6.140   1.726  21.348  1.00  0.00    -0.006 C 
BRANCH   2   3
HETATM    3  N   UNL     1       5.439   2.748  21.104  1.00  0.00    -0.269 N 
ATOM      4  HN  UNL     1       5.939   3.624  21.257  1.00  0.00     0.196 HD
BRANCH   3   5
HETATM    5  N   UNL     1       4.263   2.913  20.714  1.00  0.00    -0.334 N 
HETATM    6  C   UNL     1       3.472   2.224  19.757  1.00  0.00     0.168 C 
ATOM      7  HN  UNL     1       3.780   3.688  21.168  1.00  0.00     0.180 HD
ENDBRANCH   3   5
ENDBRANCH   2   3
ENDBRANCH   1   2
BRANCH   1   8
HETATM    8  C   UNL     1       6.547   0.201  20.108  1.00  0.00     0.091 A 
HETATM    9  N   UNL     1       5.696  -0.828  19.909  1.00  0.00    -0.282 N 
HETATM   10  N   UNL     1       5.326  -1.168  18.754  1.00  0.00    -0.228 N 
ATOM     11  HN  UNL     1       5.343  -1.344  20.715  1.00  0.00     0.188 HD
HETATM   12  N   UNL     1       5.659  -0.587  17.685  1.00  0.00    -0.229 N 
ATOM     13  HN  UNL     1       4.709  -1.977  18.677  1.00  0.00     0.210 HD
HETATM   14  N   UNL     1       6.459   0.463  17.699  1.00  0.00    -0.294 N 
ATOM     15  HN  UNL     1       5.304  -0.934  16.794  1.00  0.00     0.210 HD
HETATM   16  C   UNL     1       6.724   0.589  18.774  1.00  0.00     0.141 A 
ATOM     17  HN  UNL     1       6.765   1.029  16.907  1.00  0.00     0.187 HD
ENDBRANCH   1   8
BRANCH   1  18
HETATM   18  C   UNL     1       8.072   0.130  22.119  1.00  0.00     0.269 C 
HETATM   19  O   UNL     1       8.802   0.876  22.714  1.00  0.00    -0.266 OA
HETATM   20  N   UNL     1       8.165  -1.205  22.116  1.00  0.00    -0.308 N 
ATOM     21  HN  UNL     1       7.498  -1.689  21.513  1.00  0.00     0.170 HD
BRANCH  20  22
HETATM   22  C   UNL     1       9.034  -2.022  22.813  1.00  0.00     0.112 C 
HETATM   23  C   UNL     1       8.521  -2.859  23.785  1.00  0.00     0.065 C 
BRANCH  22  24
HETATM   24  N   UNL     1      10.360  -1.956  22.637  1.00  0.00    -0.293 N 
HETATM   25  N   UNL     1      11.038  -1.194  21.884  1.00  0.00    -0.344 N 
HETATM   26  H   UNL     1      10.796  -0.346  21.451  1.00  0.00     0.176 HD
ATOM     27  HN  UNL     1      11.989  -1.514  21.697  1.00  0.00     0.176 HD
ATOM     28  HN  UNL     1      10.905  -2.617  23.191  1.00  0.00     0.188 HD
ENDBRANCH  22  24
ENDBRANCH  20  22
ENDBRANCH   1  18
TORSDOF 7
ENDMDL
MODEL 7
REMARK VINA RESULT:    -5.904     22.510     25.154
REMARK INTER + INTRA:          -9.382
REMARK INTER:                  -8.535
REMARK INTRA:                  -0.848
REMARK UNBOUND:                -1.062
REMARK  7 active torsions:
REMARK  status: ('A' for Active; 'I' for Inactive)
REMARK    1  A    between atoms: N_2  and  N_4 
REMARK    2  A    between atoms: N_4  and  C_6 
REMARK    3  A    between atoms: C_6  and  C_17 
REMARK    4  A    between atoms: C_7  and  C_17 
REMARK    5  A    between atoms: C_17  and  C_18 
REMARK       I    between atoms: C_18  and  N_20 
REMARK    6  A    between atoms: N_20  and  C_22 
REMARK    7  A    between atoms: C_22  and  N_23 
ROOT
HETATM    1  C   UNL     1       6.830  -1.247  21.081  1.00  0.00     0.125 C 
ENDROOT
BRANCH   1   2
HETATM    2  C   UNL     1       7.730  -0.394  21.293  1.00  0.00    -0.006 C 
BRANCH   2   3
HETATM    3  N   UNL     1       8.795   0.286  21.269  1.00  0.00    -0.269 N 
ATOM      4  HN  UNL     1       8.631   1.286  21.156  1.00  0.00     0.196 HD
BRANCH   3   5
HETATM    5  N   UNL     1      10.008  -0.009  21.353  1.00  0.00    -0.334 N 
HETATM    6  C   UNL     1      10.725  -0.834  22.260  1.00  0.00     0.168 C 
ATOM      7  HN  UNL     1      10.591   0.424  20.638  1.00  0.00     0.180 HD
ENDBRANCH   3   5
ENDBRANCH   2   3
ENDBRANCH   1   2
BRANCH   1   8
HETATM    8  C   UNL     1       6.106  -0.650  20.141  1.00  0.00     0.091 A 
HETATM    9  N   UNL     1       5.331   0.447  20.273  1.00  0.00    -0.282 N 
HETATM   10  N   UNL     1       4.789   1.000  19.278  1.00  0.00    -0.228 N 
ATOM     11  HN  UNL     1       5.180   0.840  21.201  1.00  0.00     0.188 HD
HETATM   12  N   UNL     1       4.931   0.634  18.079  1.00  0.00    -0.229 N 
ATOM     13  HN  UNL     1       4.189   1.805  19.457  1.00  0.00     0.210 HD
HETATM   14  N   UNL     1       5.687  -0.402  17.766  1.00  0.00    -0.294 N 
ATOM     15  HN  UNL     1       4.454   1.148  17.339  1.00  0.00     0.210 HD
HETATM   16  C   UNL     1       6.037  -0.792  18.749  1.00  0.00     0.141 A 
ATOM     17  HN  UNL     1       5.901  -0.764  16.836  1.00  0.00     0.187 HD
ENDBRANCH   1   8
BRANCH   1  18
HETATM   18  C   UNL     1       6.476  -2.675  21.603  1.00  0.00     0.269 C 
HETATM   19  O   UNL     1       5.372  -3.105  21.404  1.00  0.00    -0.266 OA
HETATM   20  N   UNL     1       7.454  -3.322  22.249  1.00  0.00    -0.308 N 
ATOM     21  HN  UNL     1       8.316  -2.792  22.380  1.00  0.00     0.170 HD
BRANCH  20  22
HETATM   22  C   UNL     1       7.462  -4.604  22.763  1.00  0.00     0.112 C 
HETATM   23  C   UNL     1       7.759  -4.779  24.101  1.00  0.00     0.065 C 
BRANCH  22  24
HETATM   24  N   UNL     1       7.281  -5.678  21.985  1.00  0.00    -0.293 N 
HETATM   25  N   UNL     1       6.378  -6.566  22.030  1.00  0.00    -0.344 N 
HETATM   26  H   UNL     1       5.496  -6.557  22.464  1.00  0.00     0.176 HD
ATOM     27  HN  UNL     1       6.603  -7.431  21.536  1.00  0.00     0.176 HD
ATOM     28  HN  UNL     1       7.974  -5.800  21.245  1.00  0.00     0.188 HD
ENDBRANCH  22  24
ENDBRANCH  20  22
ENDBRANCH   1  18
TORSDOF 7
ENDMDL
MODEL 8
REMARK VINA RESULT:    -5.866     33.051     34.151
REMARK INTER + INTRA:          -9.329
REMARK INTER:                  -8.150
REMARK INTRA:                  -1.179
REMARK UNBOUND:                -1.062
REMARK  7 active torsions:
REMARK  status: ('A' for Active; 'I' for Inactive)
REMARK    1  A    between atoms: N_2  and  N_4 
REMARK    2  A    between atoms: N_4  and  C_6 
REMARK    3  A    between atoms: C_6  and  C_17 
REMARK    4  A    between atoms: C_7  and  C_17 
REMARK    5  A    between atoms: C_17  and  C_18 
REMARK       I    between atoms: C_18  and  N_20 
REMARK    6  A    between atoms: N_20  and  C_22 
REMARK    7  A    between atoms: C_22  and  N_23 
ROOT
HETATM    1  C   UNL     1      -0.974 -16.195  10.855  1.00  0.00     0.125 C 
ENDROOT
BRANCH   1   2
HETATM    2  C   UNL     1      -1.873 -15.535  10.273  1.00  0.00    -0.006 C 
BRANCH   2   3
HETATM    3  N   UNL     1      -2.840 -14.767  10.002  1.00  0.00    -0.269 N 
ATOM      4  HN  UNL     1      -2.619 -14.083   9.279  1.00  0.00     0.196 HD
BRANCH   3   5
HETATM    5  N   UNL     1      -4.010 -14.670  10.433  1.00  0.00    -0.334 N 
HETATM    6  C   UNL     1      -5.242 -15.203   9.969  1.00  0.00     0.168 C 
ATOM      7  HN  UNL     1      -4.095 -14.102  11.276  1.00  0.00     0.180 HD
ENDBRANCH   3   5
ENDBRANCH   2   3
ENDBRANCH   1   2
BRANCH   1   8
HETATM    8  C   UNL     1      -0.198 -16.551   9.838  1.00  0.00     0.091 A 
HETATM    9  N   UNL     1       1.133 -16.368   9.716  1.00  0.00    -0.282 N 
HETATM   10  N   UNL     1       1.786 -16.863   8.758  1.00  0.00    -0.228 N 
ATOM     11  HN  UNL     1       1.625 -15.816  10.418  1.00  0.00     0.188 HD
HETATM   12  N   UNL     1       1.301 -17.595   7.852  1.00  0.00    -0.229 N 
ATOM     13  HN  UNL     1       2.784 -16.654   8.712  1.00  0.00     0.210 HD
HETATM   14  N   UNL     1       0.018 -17.905   7.838  1.00  0.00    -0.294 N 
ATOM     15  HN  UNL     1       1.912 -17.953   7.118  1.00  0.00     0.210 HD
HETATM   16  C   UNL     1      -0.405 -17.353   8.708  1.00  0.00     0.141 A 
ATOM     17  HN  UNL     1      -0.473 -18.512   7.181  1.00  0.00     0.187 HD
ENDBRANCH   1   8
BRANCH   1  18
HETATM   18  C   UNL     1      -0.625 -16.584  12.326  1.00  0.00     0.269 C 
HETATM   19  O   UNL     1       0.491 -16.951  12.576  1.00  0.00    -0.266 OA
HETATM   20  N   UNL     1      -1.622 -16.477  13.212  1.00  0.00    -0.308 N 
ATOM     21  HN  UNL     1      -2.525 -16.202  12.824  1.00  0.00     0.170 HD
BRANCH  20  22
HETATM   22  C   UNL     1      -1.603 -16.686  14.578  1.00  0.00     0.112 C 
HETATM   23  C   UNL     1      -2.799 -16.922  15.228  1.00  0.00     0.065 C 
BRANCH  22  24
HETATM   24  N   UNL     1      -0.478 -16.575  15.294  1.00  0.00    -0.293 N 
HETATM   25  N   UNL     1       0.340 -17.472  15.658  1.00  0.00    -0.344 N 
HETATM   26  H   UNL     1       0.479 -18.384  15.319  1.00  0.00     0.176 HD
ATOM     27  HN  UNL     1       0.955 -17.204  16.428  1.00  0.00     0.176 HD
ATOM     28  HN  UNL     1      -0.244 -15.627  15.590  1.00  0.00     0.188 HD
ENDBRANCH  22  24
ENDBRANCH  20  22
ENDBRANCH   1  18
TORSDOF 7
ENDMDL
MODEL 9
REMARK VINA RESULT:    -5.826      4.169      6.586
REMARK INTER + INTRA:          -9.272
REMARK INTER:                  -8.290
REMARK INTRA:                  -0.982
REMARK UNBOUND:                -1.062
REMARK  7 active torsions:
REMARK  status: ('A' for Active; 'I' for Inactive)
REMARK    1  A    between atoms: N_2  and  N_4 
REMARK    2  A    between atoms: N_4  and  C_6 
REMARK    3  A    between atoms: C_6  and  C_17 
REMARK    4  A    between atoms: C_7  and  C_17 
REMARK    5  A    between atoms: C_17  and  C_18 
REMARK       I    between atoms: C_18  and  N_20 
REMARK    6  A    between atoms: N_20  and  C_22 
REMARK    7  A    between atoms: C_22  and  N_23 
ROOT
HETATM    1  C   UNL     1       5.389  10.344   2.959  1.00  0.00     0.125 C 
ENDROOT
BRANCH   1   2
HETATM    2  C   UNL     1       4.690  11.068   2.204  1.00  0.00    -0.006 C 
BRANCH   2   3
HETATM    3  N   UNL     1       3.736  11.648   1.611  1.00  0.00    -0.269 N 
ATOM      4  HN  UNL     1       3.906  12.641   1.453  1.00  0.00     0.196 HD
BRANCH   3   5
HETATM    5  N   UNL     1       2.629  11.261   1.179  1.00  0.00    -0.334 N 
HETATM    6  C   UNL     1       1.304  11.710   1.420  1.00  0.00     0.168 C 
ATOM      7  HN  UNL     1       2.688  10.475   0.532  1.00  0.00     0.180 HD
ENDBRANCH   3   5
ENDBRANCH   2   3
ENDBRANCH   1   2
BRANCH   1   8
HETATM    8  C   UNL     1       6.482  11.083   3.108  1.00  0.00     0.091 A 
HETATM    9  N   UNL     1       7.578  10.794   3.841  1.00  0.00    -0.282 N 
HETATM   10  N   UNL     1       8.610  11.516   3.806  1.00  0.00    -0.228 N 
ATOM     11  HN  UNL     1       7.571   9.969   4.440  1.00  0.00     0.188 HD
HETATM   12  N   UNL     1       8.756  12.536   3.078  1.00  0.00    -0.229 N 
ATOM     13  HN  UNL     1       9.387  11.256   4.412  1.00  0.00     0.210 HD
HETATM   14  N   UNL     1       7.794  12.942   2.269  1.00  0.00    -0.294 N 
ATOM     15  HN  UNL     1       9.632  13.056   3.115  1.00  0.00     0.210 HD
HETATM   16  C   UNL     1       6.957  12.234   2.465  1.00  0.00     0.141 A 
ATOM     17  HN  UNL     1       7.814  13.725   1.615  1.00  0.00     0.187 HD
ENDBRANCH   1   8
BRANCH   1  18
HETATM   18  C   UNL     1       5.227   8.969   3.680  1.00  0.00     0.269 C 
HETATM   19  O   UNL     1       5.675   8.841   4.787  1.00  0.00    -0.266 OA
HETATM   20  N   UNL     1       4.587   8.017   2.989  1.00  0.00    -0.308 N 
ATOM     21  HN  UNL     1       4.318   8.273   2.039  1.00  0.00     0.170 HD
BRANCH  20  22
HETATM   22  C   UNL     1       4.241   6.738   3.380  1.00  0.00     0.112 C 
HETATM   23  C   UNL     1       3.220   6.094   2.707  1.00  0.00     0.065 C 
BRANCH  22  24
HETATM   24  N   UNL     1       4.801   6.148   4.443  1.00  0.00    -0.293 N 
HETATM   25  N   UNL     1       5.930   5.583   4.552  1.00  0.00    -0.344 N 
HETATM   26  H   UNL     1       6.733   5.648   3.988  1.00  0.00     0.176 HD
ATOM     27  HN  UNL     1       6.020   4.960   5.355  1.00  0.00     0.176 HD
ATOM     28  HN  UNL     1       4.233   6.154   5.291  1.00  0.00     0.188 HD
ENDBRANCH  22  24
ENDBRANCH  20  22
ENDBRANCH   1  18
TORSDOF 7
ENDMDL
