REMARK  7 active torsions:
REMARK  status: ('A' for Active; 'I' for Inactive)
REMARK    1  A    between atoms: N_2  and  N_4 
REMARK    2  A    between atoms: N_4  and  C_6 
REMARK    3  A    between atoms: C_6  and  C_17 
REMARK    4  A    between atoms: C_7  and  C_17 
REMARK    5  A    between atoms: C_17  and  C_18 
REMARK       I    between atoms: C_18  and  N_20 
REMARK    6  A    between atoms: N_20  and  C_22 
REMARK    7  A    between atoms: C_22  and  N_23 
ROOT
HETATM    1  C   UNL     1       9.498  -1.020  22.694  1.00  0.00     0.125 C 
ENDROOT
BRANCH   1   2
HETATM    2  C   UNL     1       9.113  -1.946  23.454  1.00  0.00    -0.006 C 
BRANCH   2   3
HETATM    3  N   UNL     1       9.055  -2.899  24.282  1.00  0.00    -0.269 N 
ATOM      4  HN  UNL     1       9.925  -3.427  24.349  1.00  0.00     0.196 HD
BRANCH   3   5
HETATM    5  N   UNL     1       8.156  -3.331  25.036  1.00  0.00    -0.334 N 
HETATM    6  C   UNL     1       8.187  -4.227  26.137  1.00  0.00     0.168 C 
ATOM      7  HN  UNL     1       7.226  -2.973  24.820  1.00  0.00     0.180 HD
ENDBRANCH   3   5
ENDBRANCH   2   3
ENDBRANCH   1   2
BRANCH   1   8
HETATM    8  C   UNL     1      10.784  -0.926  23.011  1.00  0.00     0.091 A 
HETATM    9  N   UNL     1      11.830  -1.506  22.386  1.00  0.00    -0.282 N 
HETATM   10  N   UNL     1      13.021  -1.242  22.701  1.00  0.00    -0.228 N 
ATOM     11  HN  UNL     1      11.652  -2.176  21.638  1.00  0.00     0.188 HD
HETATM   12  N   UNL     1      13.370  -0.405  23.578  1.00  0.00    -0.229 N 
ATOM     13  HN  UNL     1      13.760  -1.744  22.209  1.00  0.00     0.210 HD
HETATM   14  N   UNL     1      12.474   0.281  24.263  1.00  0.00    -0.294 N 
ATOM     15  HN  UNL     1      14.362  -0.256  23.761  1.00  0.00     0.210 HD
HETATM   16  C   UNL     1      11.496  -0.109  23.899  1.00  0.00     0.141 A 
ATOM     17  HN  UNL     1      12.639   1.003  24.965  1.00  0.00     0.187 HD
ENDBRANCH   1   8
BRANCH   1  18
HETATM   18  C   UNL     1       8.860  -0.123  21.587  1.00  0.00     0.269 C 
HETATM   19  O   UNL     1       9.488   0.812  21.169  1.00  0.00    -0.266 OA
HETATM   20  N   UNL     1       7.633  -0.474  21.184  1.00  0.00    -0.308 N 
ATOM     21  HN  UNL     1       7.218  -1.263  21.681  1.00  0.00     0.170 HD
BRANCH  20  22
HETATM   22  C   UNL     1       6.848   0.080  20.191  1.00  0.00     0.112 C 
HETATM   23  C   UNL     1       5.621   0.613  20.537  1.00  0.00     0.065 C 
BRANCH  22  24
HETATM   24  N   UNL     1       7.202   0.031  18.901  1.00  0.00    -0.293 N 
HETATM   25  N   UNL     1       6.504   0.236  17.863  1.00  0.00    -0.344 N 
HETATM   26  H   UNL     1       5.642   0.696  17.755  1.00  0.00     0.176 HD
ATOM     27  HN  UNL     1       6.901  -0.137  17.000  1.00  0.00     0.176 HD
ATOM     28  HN  UNL     1       8.179  -0.207  18.728  1.00  0.00     0.188 HD
ENDBRANCH  22  24
ENDBRANCH  20  22
ENDBRANCH   1  18
TORSDOF 7
