stable:False satoms:17 tatoms:24 sratio:0.7083333333333334
  -OEChem-07092417393D

 24 24  0     0  0  0  0  0  0999 V2000
    7.1595   -4.6727   26.2696 H   0  0  0  0  0  0  0  0  0  0  0  0
    8.1866   -4.2270   26.1370 C   0  0  0  0  0  0  0  0  0  0  0  0
    8.9154   -5.0657   25.9783 H   0  0  0  0  0  0  0  0  0  0  0  0
    8.4720   -3.7137   27.0857 H   0  0  0  0  0  0  0  0  0  0  0  0
    8.1564   -3.3310   25.0357 N   0  0  0  0  0  0  0  0  0  0  0  0
    9.0546   -2.8991   24.2825 N   0  0  0  0  0  0  0  0  0  0  0  0
    9.1130   -1.9455   23.4536 C   0  0  0  0  0  0  0  0  0  0  0  0
   10.7844   -0.9257   23.0114 C   0  0  0  0  0  0  0  0  0  0  0  0
   11.4956   -0.1087   23.8987 C   0  0  0  0  0  0  0  0  0  0  0  0
   12.4741    0.2813   24.2626 N   0  0  0  0  0  0  0  0  0  0  0  0
   13.3697   -0.4051   23.5778 N   0  0  0  0  0  0  0  0  0  0  0  0
   13.0211   -1.2425   22.7010 N   0  0  0  0  0  0  0  0  0  0  0  0
   11.8302   -1.5061   22.3863 N   0  0  0  0  0  0  0  0  0  0  0  0
    9.4975   -1.0200   22.6940 C   0  0  0  0  0  0  0  0  0  0  0  0
    8.8597   -0.1229   21.5875 C   0  0  0  0  0  0  0  0  0  0  0  0
    9.4879    0.8125   21.1695 O   0  0  0  0  0  0  0  0  0  0  0  0
    7.6332   -0.4737   21.1845 N   0  0  0  0  0  0  0  0  0  0  0  0
    6.8484    0.0800   20.1911 C   0  0  0  0  0  0  0  0  0  0  0  0
    7.2018    0.0308   18.9009 N   0  0  0  0  0  0  0  0  0  0  0  0
    6.5041    0.2360   17.8633 N   0  5  0  0  0  0  0  0  0  0  0  0
    5.6424    0.6955   17.7549 H   0  0  0  0  0  0  0  0  0  0  0  0
    4.9293    0.9086   19.7674 H   0  0  0  0  0  0  0  0  0  0  0  0
    5.6208    0.6130   20.5373 C   0  5  0  0  0  0  0  0  0  0  0  0
    5.3267    0.7115   21.5663 H   0  0  0  0  0  0  0  0  0  0  0  0
 20 21  1  0  0  0  0
 19 20  1  0  0  0  0
 18 19  2  0  0  0  0
 22 23  1  0  0  0  0
 18 23  1  0  0  0  0
 17 18  1  0  0  0  0
 23 24  1  0  0  0  0
 15 16  2  0  0  0  0
 15 17  1  0  0  0  0
 14 15  1  0  0  0  0
 12 13  2  0  0  0  0
  8 13  1  0  0  0  0
  8 14  1  0  0  0  0
  7 14  2  0  0  0  0
 11 12  1  0  0  0  0
  8  9  2  0  0  0  0
  6  7  1  0  0  0  0
 10 11  2  0  0  0  0
  9 10  1  0  0  0  0
  5  6  2  0  0  0  0
  2  5  1  0  0  0  0
  2  3  1  0  0  0  0
  1  2  1  0  0  0  0
  2  4  1  0  0  0  0
M  CHG  2  20  -1  23  -1
M  END
> <Shapegauss>
-208.608704

$$$$
