stable:False satoms:20 tatoms:24 sratio:0.8333333333333334
  -OEChem-07092417343D

 24 23  0     0  0  0  0  0  0999 V2000
    7.4268   -2.5947   25.1023 H   0  0  0  0  0  0  0  0  0  0  0  0
    9.3838   -4.2940   25.5055 H   0  0  0  0  0  0  0  0  0  0  0  0
    8.5235   -4.1164   25.6940 O   0  0  0  0  0  0  0  0  0  0  0  0
    8.3999   -2.9893   24.7981 C   0  0  0  0  0  0  0  0  0  0  0  0
    9.4384   -2.0446   24.6835 N   0  0  0  0  0  0  0  0  0  0  0  0
    8.2846   -3.3484   23.7270 H   0  0  0  0  0  0  0  0  0  0  0  0
   10.5767   -1.8820   23.7812 C   0  0  0  0  0  0  0  0  0  0  0  0
   10.7845   -0.4501   23.2982 C   0  0  0  0  0  0  0  0  0  0  0  0
    9.4992   -1.1844   25.2313 H   0  0  0  0  0  0  0  0  0  0  0  0
   10.6657    0.2950   24.0899 H   0  0  0  0  0  0  0  0  0  0  0  0
   11.7971   -0.2938   22.8752 H   0  0  0  0  0  0  0  0  0  0  0  0
   11.5668   -2.1623   24.1619 H   0  0  0  0  0  0  0  0  0  0  0  0
    9.8146   -0.3663   22.3129 O   0  0  0  0  0  0  0  0  0  0  0  0
   10.3773   -2.4887   22.8987 H   0  0  0  0  0  0  0  0  0  0  0  0
   10.1631   -0.5748   21.1136 N   0  0  0  0  0  0  0  0  0  0  0  0
    7.7730    0.0654   20.9354 N   0  0  0  0  0  0  0  0  0  0  0  0
    6.4643    0.0595   21.1065 C   0  0  0  0  0  0  0  0  0  0  0  0
    8.4094   -0.0558   19.8203 C   0  0  0  0  0  0  0  0  0  0  0  0
    9.6306   -0.4569   19.9859 N   0  0  0  0  0  0  0  0  0  0  0  0
    8.0991    0.1746   18.7899 H   0  0  0  0  0  0  0  0  0  0  0  0
    4.6202    0.3939   20.0383 H   0  0  0  0  0  0  0  0  0  0  0  0
    5.6554    0.4095   20.0652 C   0  0  0  0  0  0  0  0  0  0  0  0
    6.1342    0.7362   19.1844 H   0  0  0  0  0  0  0  0  0  0  0  0
    6.0960   -0.1216   22.0973 H   0  0  0  0  0  0  0  0  0  0  0  0
 18 20  1  0  0  0  0
 22 23  1  0  0  0  0
 18 19  1  0  0  0  0
 16 18  2  0  0  0  0
 15 19  2  0  0  0  0
 21 22  1  0  0  0  0
 17 22  2  0  0  0  0
 16 17  1  0  0  0  0
 17 24  1  0  0  0  0
 13 15  1  0  0  0  0
  8 13  1  0  0  0  0
  8 11  1  0  0  0  0
  7 14  1  0  0  0  0
  7  8  1  0  0  0  0
  8 10  1  0  0  0  0
  4  6  1  0  0  0  0
  7 12  1  0  0  0  0
  5  7  1  0  0  0  0
  4  5  1  0  0  0  0
  5  9  1  0  0  0  0
  1  4  1  0  0  0  0
  3  4  1  0  0  0  0
  2  3  1  0  0  0  0
M  END
> <Shapegauss>
-117.612312

$$$$
