stable:False satoms:20 tatoms:24 sratio:0.8333333333333334
  -OEChem-08062401533D

 26 25  0     0  0  0  0  0  0999 V2000
   -6.7207    1.7273  -22.3887 H   0  0  0  0  0  0  0  0  0  0  0  0
   -5.4345    0.4852  -20.4696 H   0  0  0  0  0  0  0  0  0  0  0  0
   -5.5607    1.2826  -20.8639 O   0  0  0  0  0  0  0  0  0  0  0  0
   -6.6296    0.8542  -21.7370 C   0  0  0  0  0  0  0  0  0  0  0  0
   -6.5712   -0.3946  -22.3860 N   0  3  0  0  0  0  0  0  0  0  0  0
   -7.6037    0.7773  -21.1586 H   0  0  0  0  0  0  0  0  0  0  0  0
   -7.0818   -1.7296  -22.0805 C   0  0  0  0  0  0  0  0  0  0  0  0
   -7.7132   -2.4392  -23.2741 C   0  0  0  0  0  0  0  0  0  0  0  0
   -5.5883   -0.5485  -22.4874 H   0  0  0  0  0  0  0  0  0  0  0  0
   -7.1401   -2.3243  -24.1984 H   0  0  0  0  0  0  0  0  0  0  0  0
   -7.8152   -3.5302  -23.1065 H   0  0  0  0  0  0  0  0  0  0  0  0
   -6.3659   -2.4695  -21.7014 H   0  0  0  0  0  0  0  0  0  0  0  0
   -8.9532   -1.8233  -23.3147 O   0  0  0  0  0  0  0  0  0  0  0  0
   -7.8640   -1.6116  -21.3315 H   0  0  0  0  0  0  0  0  0  0  0  0
   -9.9265   -2.4042  -22.7504 N   0  0  0  0  0  0  0  0  0  0  0  0
  -10.9573   -0.4135  -23.8127 N   0  3  0  0  0  0  0  0  0  0  0  0
  -11.2097    0.8444  -24.1228 C   0  0  0  0  0  0  0  0  0  0  0  0
  -11.7762   -1.2625  -23.2914 C   0  0  0  0  0  0  0  0  0  0  0  0
  -11.1672   -2.2399  -22.6968 N   0  0  0  0  0  0  0  0  0  0  0  0
  -12.8753   -1.3089  -23.3217 H   0  0  0  0  0  0  0  0  0  0  0  0
  -12.8461    2.1792  -24.5632 H   0  0  0  0  0  0  0  0  0  0  0  0
  -12.4969    1.2239  -24.3680 C   0  0  0  0  0  0  0  0  0  0  0  0
  -13.2239    0.4602  -24.3611 H   0  0  0  0  0  0  0  0  0  0  0  0
  -10.3702    1.4950  -24.2714 H   0  0  0  0  0  0  0  0  0  0  0  0
   -6.9724   -0.2007  -23.2812 H   0  0  0  0  0  0  0  0  0  0  0  0
  -10.0325   -0.7433  -24.0021 H   0  0  0  0  0  0  0  0  0  0  0  0
 18 20  1  0  0  0  0
 22 23  1  0  0  0  0
 18 19  1  0  0  0  0
 16 18  2  0  0  0  0
 15 19  2  0  0  0  0
 21 22  1  0  0  0  0
 17 22  2  0  0  0  0
 16 17  1  0  0  0  0
 17 24  1  0  0  0  0
 13 15  1  0  0  0  0
  8 13  1  0  0  0  0
  8 11  1  0  0  0  0
  7 14  1  0  0  0  0
  7  8  1  0  0  0  0
  8 10  1  0  0  0  0
  4  6  1  0  0  0  0
  7 12  1  0  0  0  0
  5  7  1  0  0  0  0
  4  5  1  0  0  0  0
  5  9  1  0  0  0  0
  1  4  1  0  0  0  0
  3  4  1  0  0  0  0
  2  3  1  0  0  0  0
  5 25  1  0  0  0  0
 16 26  1  0  0  0  0
M  CHG  2   5   1  16   1
M  END
> <Chemgauss4>
-5.814161

$$$$
