stable:False satoms:20 tatoms:24 sratio:0.8333333333333334
  -OEChem-08062401533D

 26 25  0     0  0  0  0  0  0999 V2000
    6.6027    2.1782   21.9990 H   0  0  0  0  0  0  0  0  0  0  0  0
    5.2189    0.9037   20.1712 H   0  0  0  0  0  0  0  0  0  0  0  0
    5.4217    1.7167   20.4954 O   0  0  0  0  0  0  0  0  0  0  0  0
    6.4300    1.2633   21.4260 C   0  0  0  0  0  0  0  0  0  0  0  0
    6.2354    0.0912   22.1825 N   0  3  0  0  0  0  0  0  0  0  0  0
    7.3981    1.0356   20.8778 H   0  0  0  0  0  0  0  0  0  0  0  0
    6.6094   -1.3110   22.0085 C   0  0  0  0  0  0  0  0  0  0  0  0
    7.1497   -1.9695   23.2739 C   0  0  0  0  0  0  0  0  0  0  0  0
    5.2407    0.0476   22.2761 H   0  0  0  0  0  0  0  0  0  0  0  0
    6.5802   -1.7133   24.1717 H   0  0  0  0  0  0  0  0  0  0  0  0
    7.1408   -3.0759   23.2066 H   0  0  0  0  0  0  0  0  0  0  0  0
    5.8257   -2.0058   21.6816 H   0  0  0  0  0  0  0  0  0  0  0  0
    8.4460   -1.4815   23.2860 O   0  0  0  0  0  0  0  0  0  0  0  0
    7.4086   -1.3417   21.2689 H   0  0  0  0  0  0  0  0  0  0  0  0
    9.3610   -2.2072   22.7968 N   0  0  0  0  0  0  0  0  0  0  0  0
   10.5784   -0.2430   23.6990 N   0  3  0  0  0  0  0  0  0  0  0  0
   10.9553    1.0057   23.9010 C   0  0  0  0  0  0  0  0  0  0  0  0
   11.3117   -1.2147   23.2733 C   0  0  0  0  0  0  0  0  0  0  0  0
   10.6126   -2.1752   22.7555 N   0  0  0  0  0  0  0  0  0  0  0  0
   12.3998   -1.3695   23.3313 H   0  0  0  0  0  0  0  0  0  0  0  0
   12.7150    2.2021   24.2555 H   0  0  0  0  0  0  0  0  0  0  0  0
   12.2717    1.2734   24.1389 C   0  0  0  0  0  0  0  0  0  0  0  0
   12.9161    0.4424   24.2159 H   0  0  0  0  0  0  0  0  0  0  0  0
   10.1856    1.7490   23.9728 H   0  0  0  0  0  0  0  0  0  0  0  0
    6.6434    0.3239   23.0652 H   0  0  0  0  0  0  0  0  0  0  0  0
    9.6223   -0.4586   23.8973 H   0  0  0  0  0  0  0  0  0  0  0  0
 18 20  1  0  0  0  0
 22 23  1  0  0  0  0
 18 19  1  0  0  0  0
 16 18  2  0  0  0  0
 15 19  2  0  0  0  0
 21 22  1  0  0  0  0
 17 22  2  0  0  0  0
 16 17  1  0  0  0  0
 17 24  1  0  0  0  0
 13 15  1  0  0  0  0
  8 13  1  0  0  0  0
  8 11  1  0  0  0  0
  7 14  1  0  0  0  0
  7  8  1  0  0  0  0
  8 10  1  0  0  0  0
  4  6  1  0  0  0  0
  7 12  1  0  0  0  0
  5  7  1  0  0  0  0
  4  5  1  0  0  0  0
  5  9  1  0  0  0  0
  1  4  1  0  0  0  0
  3  4  1  0  0  0  0
  2  3  1  0  0  0  0
  5 25  1  0  0  0  0
 16 26  1  0  0  0  0
M  CHG  2   5   1  16   1
M  END
> <Chemgauss4>
-5.722172

$$$$
