stable:False satoms:14 tatoms:24 sratio:0.5833333333333334
  -OEChem-07092417393D

 24 23  0     1  0  0  0  0  0999 V2000
    7.0281   -4.6168   26.2776 H   0  0  0  0  0  0  0  0  0  0  0  0
    8.0514   -4.2328   26.1093 C   0  0  0  0  0  0  0  0  0  0  0  0
    8.7983   -5.0571   26.0933 H   0  0  0  0  0  0  0  0  0  0  0  0
    8.3690   -3.4713   27.2239 F   0  0  0  0  0  0  0  0  0  0  0  0
    8.0036   -3.4649   24.9290 N   0  0  0  0  0  0  0  0  0  0  0  0
    9.0677   -2.9905   24.4866 N   0  0  0  0  0  0  0  0  0  0  0  0
    9.3799   -1.9304   24.0021 N   0  0  0  0  0  0  0  0  0  0  0  0
   10.0919   -0.3871   22.4491 C   0  0  0  0  0  0  0  0  0  0  0  0
   10.2809   -1.0388   24.1684 N   0  0  0  0  0  0  0  0  0  0  0  0
   12.5333   -0.4665   24.2275 H   0  0  0  0  0  0  0  0  0  0  0  0
   12.8829   -0.1872   22.5636 H   0  0  0  0  0  0  0  0  0  0  0  0
   12.3515   -0.7942   23.2218 C   0  0  0  0  0  0  0  0  0  0  0  0
   12.4507   -1.8314   23.0353 H   0  0  0  0  0  0  0  0  0  0  0  0
   10.7593   -0.6804   23.1378 C   0  0  0  0  0  0  0  0  0  0  0  0
    9.0136    0.0289   21.2634 C   0  0  0  0  0  0  0  0  0  0  0  0
    9.8489    0.8023   21.0762 O   0  0  0  0  0  0  0  0  0  0  0  0
    7.8462   -0.5171   20.9757 N   0  0  0  0  0  0  0  0  0  0  0  0
    7.2467    0.0344   20.3782 C   0  0  0  0  0  0  0  0  0  0  0  0
    6.7878    0.3555   18.6286 C   0  5  0  0  0  0  0  0  0  0  0  0
    7.3278    0.2961   17.7413 H   0  0  0  0  0  0  0  0  0  0  0  0
    4.8311    1.0616   18.3900 H   0  0  0  0  0  0  0  0  0  0  0  0
    5.6483    0.6896   19.0908 C   0  0  0  0  0  0  0  0  0  0  0  0
    5.7460    0.5176   20.4502 C   0  5  3  0  0  0  0  0  0  0  0  0
    5.2393    0.5903   21.3771 H   0  0  0  0  0  0  0  0  0  0  0  0
 19 20  1  0  0  0  0
 21 22  1  0  0  0  0
 19 22  2  0  0  0  0
 22 23  1  0  0  0  0
 18 23  1  0  0  0  0
 17 18  1  0  0  0  0
 23 24  1  0  0  0  0
 15 17  1  0  0  0  0
 15 16  2  0  0  0  0
  8 15  1  0  0  0  0
  8 14  2  3  0  0  0
 11 12  1  0  0  0  0
 12 13  1  0  0  0  0
 12 14  1  0  0  0  0
  9 14  1  0  0  0  0
 10 12  1  0  0  0  0
  7  9  2  3  0  0  0
  6  7  1  0  0  0  0
  5  6  2  3  0  0  0
  2  5  1  0  0  0  0
  2  3  1  0  0  0  0
  1  2  1  0  0  0  0
  2  4  1  0  0  0  0
M  CHG  2  19  -1  23  -1
M  END
> <Shapegauss>
-182.850021

$$$$
