stable:False satoms:14 tatoms:24 sratio:0.5833333333333334
  -OEChem-08062408023D

 30 29  0     1  0  0  0  0  0999 V2000
  -13.0848    1.1143  -23.7487 H   0  0  0  0  0  0  0  0  0  0  0  0
  -12.5998    0.2782  -24.2860 C   0  0  0  0  0  0  0  0  0  0  0  0
  -12.5708    0.4611  -25.3829 H   0  0  0  0  0  0  0  0  0  0  0  0
  -13.4266   -0.8226  -24.1192 F   0  0  0  0  0  0  0  0  0  0  0  0
  -11.3359    0.0968  -23.6904 N   0  0  0  0  0  0  0  0  0  0  0  0
  -10.5627   -0.7461  -24.1851 N   0  0  0  0  0  0  0  0  0  0  0  0
   -9.8128   -1.5725  -23.7261 N   0  0  0  0  0  0  0  0  0  0  0  0
   -7.8544   -2.6648  -23.2043 C   0  0  0  0  0  0  0  0  0  0  0  0
   -9.5722   -2.8200  -23.8689 N   0  0  0  0  0  0  0  0  0  0  0  0
   -8.9675   -4.5890  -25.2507 H   0  0  0  0  0  0  0  0  0  0  0  0
   -7.2475   -4.4886  -25.2409 H   0  0  0  0  0  0  0  0  0  0  0  0
   -8.1235   -3.9261  -25.2550 C   0  0  0  0  0  0  0  0  0  0  0  0
   -8.1325   -3.1508  -25.9756 H   0  0  0  0  0  0  0  0  0  0  0  0
   -8.4059   -3.0503  -23.9479 C   0  0  0  0  0  0  0  0  0  0  0  0
   -6.9059   -1.9761  -22.0348 C   0  0  0  0  0  0  0  0  0  0  0  0
   -6.3696   -2.9872  -22.1796 O   0  0  0  0  0  0  0  0  0  0  0  0
   -7.0258   -0.7932  -21.4603 N   0  0  0  0  0  0  0  0  0  0  0  0
   -6.4922   -0.6689  -20.6116 C   0  0  0  0  0  0  0  0  0  0  0  0
   -4.8779   -0.0986  -19.9455 C   0  0  0  0  0  0  0  0  0  0  0  0
   -5.3929   -0.5171  -20.7976 H   0  0  0  0  0  0  0  0  0  0  0  0
   -4.9819    0.5960  -17.9730 H   0  0  0  0  0  0  0  0  0  0  0  0
   -5.5245    0.1777  -18.8828 C   0  0  0  0  0  0  0  0  0  0  0  0
   -6.8257   -0.1714  -19.1514 C   0  0  3  0  0  0  0  0  0  0  0  0
   -7.2064   -0.9688  -18.4963 H   0  0  0  0  0  0  0  0  0  0  0  0
   -8.3262   -3.3126  -22.4803 H   0  0  0  0  0  0  0  0  0  0  0  0
   -7.6044   -0.0708  -21.8389 H   0  0  0  0  0  0  0  0  0  0  0  0
   -5.6902    0.0154  -20.9254 H   0  0  0  0  0  0  0  0  0  0  0  0
   -6.0724   -1.6708  -20.4382 H   0  0  0  0  0  0  0  0  0  0  0  0
   -3.8149    0.0859  -19.9941 H   0  0  0  0  0  0  0  0  0  0  0  0
   -7.5187    0.6826  -19.1303 H   0  0  0  0  0  0  0  0  0  0  0  0
 19 20  1  0  0  0  0
 21 22  1  0  0  0  0
 19 22  2  0  0  0  0
 22 23  1  0  0  0  0
 18 23  1  0  0  0  0
 17 18  1  0  0  0  0
 23 24  1  0  0  0  0
 15 17  1  0  0  0  0
 15 16  2  0  0  0  0
  8 15  1  0  0  0  0
  8 14  2  3  0  0  0
 11 12  1  0  0  0  0
 12 13  1  0  0  0  0
 12 14  1  0  0  0  0
  9 14  1  0  0  0  0
 10 12  1  0  0  0  0
  7  9  2  3  0  0  0
  6  7  1  0  0  0  0
  5  6  2  3  0  0  0
  2  5  1  0  0  0  0
  2  3  1  0  0  0  0
  1  2  1  0  0  0  0
  2  4  1  0  0  0  0
  8 25  1  0  0  0  0
 17 26  1  0  0  0  0
 18 27  1  0  0  0  0
 18 28  1  0  0  0  0
 19 29  1  0  0  0  0
 23 30  1  0  0  0  0
M  END
> <Chemgauss4>
-6.407806

$$$$
