stable:False satoms:14 tatoms:24 sratio:0.5833333333333334
  -OEChem-08062408023D

 30 29  0     1  0  0  0  0  0999 V2000
   13.0638    1.0060   23.8752 H   0  0  0  0  0  0  0  0  0  0  0  0
   12.5270    0.1678   24.3569 C   0  0  0  0  0  0  0  0  0  0  0  0
   12.4307    0.3228   25.4543 H   0  0  0  0  0  0  0  0  0  0  0  0
   13.3390   -0.9473   24.2136 F   0  0  0  0  0  0  0  0  0  0  0  0
   11.3009    0.0314   23.6765 N   0  0  0  0  0  0  0  0  0  0  0  0
   10.4791   -0.8058   24.0970 N   0  0  0  0  0  0  0  0  0  0  0  0
    9.7431   -1.6025   23.5682 N   0  0  0  0  0  0  0  0  0  0  0  0
    7.7997   -2.6349   22.8916 C   0  0  0  0  0  0  0  0  0  0  0  0
    9.4669   -2.8473   23.6609 N   0  0  0  0  0  0  0  0  0  0  0  0
    8.7358   -4.6371   24.9518 H   0  0  0  0  0  0  0  0  0  0  0  0
    7.0226   -4.4965   24.8341 H   0  0  0  0  0  0  0  0  0  0  0  0
    7.9077   -3.9550   24.9199 C   0  0  0  0  0  0  0  0  0  0  0  0
    7.8865   -3.1992   25.6606 H   0  0  0  0  0  0  0  0  0  0  0  0
    8.2933   -3.0524   23.6583 C   0  0  0  0  0  0  0  0  0  0  0  0
    6.9442   -1.8942   21.6828 C   0  0  0  0  0  0  0  0  0  0  0  0
    6.3780   -2.8960   21.7650 O   0  0  0  0  0  0  0  0  0  0  0  0
    7.1266   -0.6999   21.1499 N   0  0  0  0  0  0  0  0  0  0  0  0
    6.6521   -0.5412   20.2723 C   0  0  0  0  0  0  0  0  0  0  0  0
    5.0971    0.0837   19.5196 C   0  0  0  0  0  0  0  0  0  0  0  0
    5.5465   -0.3688   20.3912 H   0  0  0  0  0  0  0  0  0  0  0  0
    5.3440    0.8267   17.5777 H   0  0  0  0  0  0  0  0  0  0  0  0
    5.8173    0.3724   18.5088 C   0  0  0  0  0  0  0  0  0  0  0  0
    7.0904   -0.0138   18.8509 C   0  0  3  0  0  0  0  0  0  0  0  0
    7.4957   -0.8025   18.2000 H   0  0  0  0  0  0  0  0  0  0  0  0
    8.3035   -3.2745   22.1820 H   0  0  0  0  0  0  0  0  0  0  0  0
    7.6948   -0.0012   21.5847 H   0  0  0  0  0  0  0  0  0  0  0  0
    5.8463    0.1532   20.5525 H   0  0  0  0  0  0  0  0  0  0  0  0
    6.2230   -1.5282   20.0448 H   0  0  0  0  0  0  0  0  0  0  0  0
    4.0374    0.2914   19.5047 H   0  0  0  0  0  0  0  0  0  0  0  0
    7.8015    0.8242   18.8979 H   0  0  0  0  0  0  0  0  0  0  0  0
 19 20  1  0  0  0  0
 21 22  1  0  0  0  0
 19 22  2  0  0  0  0
 22 23  1  0  0  0  0
 18 23  1  0  0  0  0
 17 18  1  0  0  0  0
 23 24  1  0  0  0  0
 15 17  1  0  0  0  0
 15 16  2  0  0  0  0
  8 15  1  0  0  0  0
  8 14  2  3  0  0  0
 11 12  1  0  0  0  0
 12 13  1  0  0  0  0
 12 14  1  0  0  0  0
  9 14  1  0  0  0  0
 10 12  1  0  0  0  0
  7  9  2  3  0  0  0
  6  7  1  0  0  0  0
  5  6  2  3  0  0  0
  2  5  1  0  0  0  0
  2  3  1  0  0  0  0
  1  2  1  0  0  0  0
  2  4  1  0  0  0  0
  8 25  1  0  0  0  0
 17 26  1  0  0  0  0
 18 27  1  0  0  0  0
 18 28  1  0  0  0  0
 19 29  1  0  0  0  0
 23 30  1  0  0  0  0
M  END
> <Chemgauss4>
-7.177669

$$$$
