MODEL 1
REMARK VINA RESULT:    -5.973      0.000      0.000
REMARK INTER + INTRA:          -7.771
REMARK INTER:                  -7.370
REMARK INTRA:                  -0.401
REMARK UNBOUND:                -0.401
REMARK  4 active torsions:
REMARK  status: ('A' for Active; 'I' for Inactive)
REMARK    1  A    between atoms: N_2  and  C_4 
REMARK    2  A    between atoms: C_5  and  C_6 
REMARK    3  A    between atoms: C_6  and  C_9 
REMARK       I    between atoms: N_10  and  C_12 
REMARK       I    between atoms: C_12  and  N_14 
REMARK    4  A    between atoms: N_14  and  C_16 
ROOT
HETATM    1  C   UNL     1      10.766  -0.334  23.760  1.00  0.00     0.124 C 
HETATM    2  N   UNL     1      10.376   0.539  23.005  1.00  0.00    -0.299 N 
ATOM      3  HN  UNL     1      10.865   1.403  23.243  1.00  0.00     0.171 HD
HETATM    4  C   UNL     1       9.551   0.799  21.984  1.00  0.00     0.327 C 
HETATM    5  O   UNL     1       9.802   1.832  21.417  1.00  0.00    -0.247 OA
HETATM    6  N   UNL     1       8.505  -0.057  21.727  1.00  0.00    -0.287 N 
ATOM      7  HN  UNL     1       8.239  -0.802  22.372  1.00  0.00     0.172 HD
ENDROOT
BRANCH   1   8
HETATM    8  C   UNL     1      10.033  -1.354  24.257  1.00  0.00    -0.023 C 
HETATM    9  C   UNL     1       9.171  -2.012  24.691  1.00  0.00     0.012 C 
BRANCH   9  10
HETATM   10  N   UNL     1       8.378  -2.763  25.200  1.00  0.00    -0.354 N 
HETATM   11  C   UNL     1       8.081  -4.142  25.106  1.00  0.00     0.157 C 
ATOM     12  HN  UNL     1       7.769  -2.285  25.864  1.00  0.00     0.169 HD
ENDBRANCH   9  10
ENDBRANCH   1   8
BRANCH   1  13
HETATM   13  C   UNL     1      12.168  -0.151  24.113  1.00  0.00     0.106 A 
HETATM   14  C   UNL     1      13.134  -1.098  23.666  1.00  0.00     0.243 A 
HETATM   15  O   UNL     1      13.160   0.166  24.515  1.00  0.00    -0.344 OA
ENDBRANCH   1  13
BRANCH   6  16
HETATM   16  C   UNL     1       7.855   0.153  20.567  1.00  0.00     0.175 A 
HETATM   17  O   UNL     1       8.334  -0.051  19.282  1.00  0.00    -0.220 OA
HETATM   18  N   UNL     1       7.406   0.240  18.338  1.00  0.00    -0.270 N 
HETATM   19  C   UNL     1       6.383   0.670  19.038  1.00  0.00     0.119 A 
ATOM     20  HN  UNL     1       7.484   0.146  17.326  1.00  0.00     0.194 HD
HETATM   21  C   UNL     1       6.590   0.613  20.484  1.00  0.00     0.077 A 
ENDBRANCH   6  16
TORSDOF 4
ENDMDL
MODEL 2
REMARK VINA RESULT:    -5.817      3.091      5.666
REMARK INTER + INTRA:          -7.578
REMARK INTER:                  -7.187
REMARK INTRA:                  -0.391
REMARK UNBOUND:                -0.401
REMARK  4 active torsions:
REMARK  status: ('A' for Active; 'I' for Inactive)
REMARK    1  A    between atoms: N_2  and  C_4 
REMARK    2  A    between atoms: C_5  and  C_6 
REMARK    3  A    between atoms: C_6  and  C_9 
REMARK       I    between atoms: N_10  and  C_12 
REMARK       I    between atoms: C_12  and  N_14 
REMARK    4  A    between atoms: N_14  and  C_16 
ROOT
HETATM    1  C   UNL     1       7.575  -4.240  23.119  1.00  0.00     0.124 C 
HETATM    2  N   UNL     1       8.235  -3.381  22.562  1.00  0.00    -0.299 N 
ATOM      3  HN  UNL     1       8.134  -3.510  21.554  1.00  0.00     0.171 HD
HETATM    4  C   UNL     1       9.041  -2.332  22.766  1.00  0.00     0.327 C 
HETATM    5  O   UNL     1       9.184  -1.641  21.789  1.00  0.00    -0.247 OA
HETATM    6  N   UNL     1       9.656  -2.181  23.987  1.00  0.00    -0.287 N 
ATOM      7  HN  UNL     1       9.644  -2.914  24.697  1.00  0.00     0.172 HD
ENDROOT
BRANCH   1   8
HETATM    8  C   UNL     1       7.877  -4.859  24.281  1.00  0.00    -0.023 C 
HETATM    9  C   UNL     1       7.879  -5.239  25.385  1.00  0.00     0.012 C 
BRANCH   9  10
HETATM   10  N   UNL     1       8.014  -5.642  26.512  1.00  0.00    -0.354 N 
HETATM   11  C   UNL     1       7.219  -5.675  27.680  1.00  0.00     0.157 C 
ATOM     12  HN  UNL     1       8.931  -6.063  26.661  1.00  0.00     0.169 HD
ENDBRANCH   9  10
ENDBRANCH   1   8
BRANCH   1  13
HETATM   13  C   UNL     1       6.376  -4.571  22.360  1.00  0.00     0.106 A 
HETATM   14  C   UNL     1       6.404  -5.661  21.442  1.00  0.00     0.243 A 
HETATM   15  O   UNL     1       5.372  -4.628  21.874  1.00  0.00    -0.344 OA
ENDBRANCH   1  13
BRANCH   6  16
HETATM   16  C   UNL     1      10.275  -1.003  24.183  1.00  0.00     0.175 A 
HETATM   17  O   UNL     1       9.699   0.201  24.562  1.00  0.00    -0.220 OA
HETATM   18  N   UNL     1      10.618   1.188  24.693  1.00  0.00    -0.270 N 
HETATM   19  C   UNL     1      11.742   0.608  24.344  1.00  0.00     0.119 A 
ATOM     20  HN  UNL     1      10.471   2.152  24.990  1.00  0.00     0.194 HD
HETATM   21  C   UNL     1      11.602  -0.813  24.033  1.00  0.00     0.077 A 
ENDBRANCH   6  16
TORSDOF 4
ENDMDL
MODEL 3
REMARK VINA RESULT:    -5.456      2.209      2.551
REMARK INTER + INTRA:          -7.133
REMARK INTER:                  -6.721
REMARK INTRA:                  -0.411
REMARK UNBOUND:                -0.401
REMARK  4 active torsions:
REMARK  status: ('A' for Active; 'I' for Inactive)
REMARK    1  A    between atoms: N_2  and  C_4 
REMARK    2  A    between atoms: C_5  and  C_6 
REMARK    3  A    between atoms: C_6  and  C_9 
REMARK       I    between atoms: N_10  and  C_12 
REMARK       I    between atoms: C_12  and  N_14 
REMARK    4  A    between atoms: N_14  and  C_16 
ROOT
HETATM    1  C   UNL     1       8.505  -1.200  23.888  1.00  0.00     0.124 C 
HETATM    2  N   UNL     1       7.867  -0.316  23.343  1.00  0.00    -0.299 N 
ATOM      3  HN  UNL     1       7.653   0.395  24.043  1.00  0.00     0.171 HD
HETATM    4  C   UNL     1       7.339   0.078  22.178  1.00  0.00     0.327 C 
HETATM    5  O   UNL     1       7.041   1.245  22.158  1.00  0.00    -0.247 OA
HETATM    6  N   UNL     1       7.133  -0.850  21.182  1.00  0.00    -0.287 N 
ATOM      7  HN  UNL     1       7.225  -1.853  21.345  1.00  0.00     0.172 HD
ENDROOT
BRANCH   1   8
HETATM    8  C   UNL     1       8.447  -2.520  23.611  1.00  0.00    -0.023 C 
HETATM    9  C   UNL     1       8.087  -3.598  23.340  1.00  0.00     0.012 C 
BRANCH   9  10
HETATM   10  N   UNL     1       7.820  -4.754  23.134  1.00  0.00    -0.354 N 
HETATM   11  C   UNL     1       7.127  -5.472  22.132  1.00  0.00     0.157 C 
ATOM     12  HN  UNL     1       8.184  -5.368  23.862  1.00  0.00     0.169 HD
ENDBRANCH   9  10
ENDBRANCH   1   8
BRANCH   1  13
HETATM   13  C   UNL     1       9.365  -0.670  24.938  1.00  0.00     0.106 A 
HETATM   14  C   UNL     1       8.946  -0.755  26.297  1.00  0.00     0.243 A 
HETATM   15  O   UNL     1      10.152  -0.184  25.564  1.00  0.00    -0.344 OA
ENDBRANCH   1  13
BRANCH   6  16
HETATM   16  C   UNL     1       6.801  -0.346  19.980  1.00  0.00     0.175 A 
HETATM   17  O   UNL     1       7.634   0.295  19.074  1.00  0.00    -0.220 OA
HETATM   18  N   UNL     1       6.979   0.657  17.945  1.00  0.00    -0.270 N 
HETATM   19  C   UNL     1       5.741   0.290  18.178  1.00  0.00     0.119 A 
ATOM     20  HN  UNL     1       7.357   1.108  17.112  1.00  0.00     0.194 HD
HETATM   21  C   UNL     1       5.558  -0.392  19.458  1.00  0.00     0.077 A 
ENDBRANCH   6  16
TORSDOF 4
ENDMDL
MODEL 4
REMARK VINA RESULT:    -5.429      2.580      5.355
REMARK INTER + INTRA:          -7.099
REMARK INTER:                  -6.652
REMARK INTRA:                  -0.447
REMARK UNBOUND:                -0.401
REMARK  4 active torsions:
REMARK  status: ('A' for Active; 'I' for Inactive)
REMARK    1  A    between atoms: N_2  and  C_4 
REMARK    2  A    between atoms: C_5  and  C_6 
REMARK    3  A    between atoms: C_6  and  C_9 
REMARK       I    between atoms: N_10  and  C_12 
REMARK       I    between atoms: C_12  and  N_14 
REMARK    4  A    between atoms: N_14  and  C_16 
ROOT
HETATM    1  C   UNL     1       9.211   0.045  21.312  1.00  0.00     0.124 C 
HETATM    2  N   UNL     1       9.441  -0.955  21.970  1.00  0.00    -0.299 N 
ATOM      3  HN  UNL     1      10.434  -0.958  22.202  1.00  0.00     0.171 HD
HETATM    4  C   UNL     1       8.888  -2.051  22.503  1.00  0.00     0.327 C 
HETATM    5  O   UNL     1       9.575  -2.573  23.344  1.00  0.00    -0.247 OA
HETATM    6  N   UNL     1       7.678  -2.499  22.024  1.00  0.00    -0.287 N 
ATOM      7  HN  UNL     1       7.254  -2.119  21.177  1.00  0.00     0.172 HD
ENDROOT
BRANCH   1   8
HETATM    8  C   UNL     1       8.320   0.157  20.304  1.00  0.00    -0.023 C 
HETATM    9  C   UNL     1       7.694  -0.012  19.332  1.00  0.00     0.012 C 
BRANCH   9  10
HETATM   10  N   UNL     1       7.032  -0.053  18.327  1.00  0.00    -0.354 N 
HETATM   11  C   UNL     1       5.662   0.087  18.006  1.00  0.00     0.157 C 
ATOM     12  HN  UNL     1       7.602  -0.233  17.500  1.00  0.00     0.169 HD
ENDBRANCH   9  10
ENDBRANCH   1   8
BRANCH   1  13
HETATM   13  C   UNL     1      10.052   1.161  21.724  1.00  0.00     0.106 A 
HETATM   14  C   UNL     1      10.189   1.463  23.110  1.00  0.00     0.243 A 
HETATM   15  O   UNL     1      10.710   2.059  21.810  1.00  0.00    -0.344 OA
ENDBRANCH   1  13
BRANCH   6  16
HETATM   16  C   UNL     1       7.092  -3.471  22.746  1.00  0.00     0.175 A 
HETATM   17  O   UNL     1       6.477  -3.349  23.983  1.00  0.00    -0.220 OA
HETATM   18  N   UNL     1       5.966  -4.526  24.418  1.00  0.00    -0.270 N 
HETATM   19  C   UNL     1       6.312  -5.375  23.479  1.00  0.00     0.119 A 
ATOM     20  HN  UNL     1       5.439  -4.709  25.271  1.00  0.00     0.194 HD
HETATM   21  C   UNL     1       7.014  -4.759  22.354  1.00  0.00     0.077 A 
ENDBRANCH   6  16
TORSDOF 4
ENDMDL
MODEL 5
REMARK VINA RESULT:    -5.300      5.154      8.229
REMARK INTER + INTRA:          -6.941
REMARK INTER:                  -6.510
REMARK INTRA:                  -0.431
REMARK UNBOUND:                -0.401
REMARK  4 active torsions:
REMARK  status: ('A' for Active; 'I' for Inactive)
REMARK    1  A    between atoms: N_2  and  C_4 
REMARK    2  A    between atoms: C_5  and  C_6 
REMARK    3  A    between atoms: C_6  and  C_9 
REMARK       I    between atoms: N_10  and  C_12 
REMARK       I    between atoms: C_12  and  N_14 
REMARK    4  A    between atoms: N_14  and  C_16 
ROOT
HETATM    1  C   UNL     1       7.983  -4.455  24.555  1.00  0.00     0.124 C 
HETATM    2  N   UNL     1       8.061  -4.791  25.724  1.00  0.00    -0.299 N 
ATOM      3  HN  UNL     1       8.996  -4.555  26.058  1.00  0.00     0.171 HD
HETATM    4  C   UNL     1       7.389  -5.351  26.736  1.00  0.00     0.327 C 
HETATM    5  O   UNL     1       7.898  -5.162  27.811  1.00  0.00    -0.247 OA
HETATM    6  N   UNL     1       6.274  -6.111  26.468  1.00  0.00    -0.287 N 
ATOM      7  HN  UNL     1       6.020  -6.391  25.520  1.00  0.00     0.172 HD
ENDROOT
BRANCH   1   8
HETATM    8  C   UNL     1       7.292  -5.085  23.581  1.00  0.00    -0.023 C 
HETATM    9  C   UNL     1       6.985  -5.731  22.657  1.00  0.00     0.012 C 
BRANCH   9  10
HETATM   10  N   UNL     1       6.565  -6.312  21.689  1.00  0.00    -0.354 N 
HETATM   11  C   UNL     1       5.922  -5.946  20.485  1.00  0.00     0.157 C 
ATOM     12  HN  UNL     1       6.709  -7.319  21.755  1.00  0.00     0.169 HD
ENDBRANCH   9  10
ENDBRANCH   1   8
BRANCH   1  13
HETATM   13  C   UNL     1       8.769  -3.256  24.289  1.00  0.00     0.106 A 
HETATM   14  C   UNL     1       8.678  -2.146  25.178  1.00  0.00     0.243 A 
HETATM   15  O   UNL     1       9.424  -2.447  23.885  1.00  0.00    -0.344 OA
ENDBRANCH   1  13
BRANCH   6  16
HETATM   16  C   UNL     1       5.538  -6.461  27.539  1.00  0.00     0.175 A 
HETATM   17  O   UNL     1       5.721  -7.559  28.366  1.00  0.00    -0.220 OA
HETATM   18  N   UNL     1       4.811  -7.599  29.370  1.00  0.00    -0.270 N 
HETATM   19  C   UNL     1       4.044  -6.562  29.129  1.00  0.00     0.119 A 
ATOM     20  HN  UNL     1       4.741  -8.273  30.132  1.00  0.00     0.194 HD
HETATM   21  C   UNL     1       4.471  -5.764  27.981  1.00  0.00     0.077 A 
ENDBRANCH   6  16
TORSDOF 4
ENDMDL
MODEL 6
REMARK VINA RESULT:    -5.274      5.420      8.968
REMARK INTER + INTRA:          -6.908
REMARK INTER:                  -6.516
REMARK INTRA:                  -0.392
REMARK UNBOUND:                -0.401
REMARK  4 active torsions:
REMARK  status: ('A' for Active; 'I' for Inactive)
REMARK    1  A    between atoms: N_2  and  C_4 
REMARK    2  A    between atoms: C_5  and  C_6 
REMARK    3  A    between atoms: C_6  and  C_9 
REMARK       I    between atoms: N_10  and  C_12 
REMARK       I    between atoms: C_12  and  N_14 
REMARK    4  A    between atoms: N_14  and  C_16 
ROOT
HETATM    1  C   UNL     1       6.752  -5.065  24.493  1.00  0.00     0.124 C 
HETATM    2  N   UNL     1       7.427  -5.225  25.495  1.00  0.00    -0.299 N 
ATOM      3  HN  UNL     1       8.400  -5.038  25.252  1.00  0.00     0.171 HD
HETATM    4  C   UNL     1       7.380  -5.553  26.791  1.00  0.00     0.327 C 
HETATM    5  O   UNL     1       8.378  -5.254  27.397  1.00  0.00    -0.247 OA
HETATM    6  N   UNL     1       6.283  -6.226  27.278  1.00  0.00    -0.287 N 
ATOM      7  HN  UNL     1       5.570  -6.620  26.665  1.00  0.00     0.172 HD
ENDROOT
BRANCH   1   8
HETATM    8  C   UNL     1       5.649  -5.763  24.147  1.00  0.00    -0.023 C 
HETATM    9  C   UNL     1       4.693  -6.435  24.160  1.00  0.00     0.012 C 
BRANCH   9  10
HETATM   10  N   UNL     1       3.737  -7.158  24.046  1.00  0.00    -0.354 N 
HETATM   11  C   UNL     1       2.826  -7.785  24.927  1.00  0.00     0.157 C 
ATOM     12  HN  UNL     1       3.534  -7.374  23.070  1.00  0.00     0.169 HD
ENDBRANCH   9  10
ENDBRANCH   1   8
BRANCH   1  13
HETATM   13  C   UNL     1       7.291  -4.008  23.647  1.00  0.00     0.106 A 
HETATM   14  C   UNL     1       8.421  -3.262  24.090  1.00  0.00     0.243 A 
HETATM   15  O   UNL     1       7.515  -3.241  22.867  1.00  0.00    -0.344 OA
ENDBRANCH   1  13
BRANCH   6  16
HETATM   16  C   UNL     1       6.214  -6.331  28.618  1.00  0.00     0.175 A 
HETATM   17  O   UNL     1       6.618  -7.400  29.403  1.00  0.00    -0.220 OA
HETATM   18  N   UNL     1       6.428  -7.165  30.724  1.00  0.00    -0.270 N 
HETATM   19  C   UNL     1       5.862  -5.982  30.745  1.00  0.00     0.119 A 
ATOM     20  HN  UNL     1       6.668  -7.765  31.513  1.00  0.00     0.194 HD
HETATM   21  C   UNL     1       5.721  -5.370  29.425  1.00  0.00     0.077 A 
ENDBRANCH   6  16
TORSDOF 4
ENDMDL
MODEL 7
REMARK VINA RESULT:    -5.196      2.592      3.227
REMARK INTER + INTRA:          -6.811
REMARK INTER:                  -6.405
REMARK INTRA:                  -0.407
REMARK UNBOUND:                -0.401
REMARK  4 active torsions:
REMARK  status: ('A' for Active; 'I' for Inactive)
REMARK    1  A    between atoms: N_2  and  C_4 
REMARK    2  A    between atoms: C_5  and  C_6 
REMARK    3  A    between atoms: C_6  and  C_9 
REMARK       I    between atoms: N_10  and  C_12 
REMARK       I    between atoms: C_12  and  N_14 
REMARK    4  A    between atoms: N_14  and  C_16 
ROOT
HETATM    1  C   UNL     1       9.911   2.601  23.430  1.00  0.00     0.124 C 
HETATM    2  N   UNL     1       8.823   2.671  22.886  1.00  0.00    -0.299 N 
ATOM      3  HN  UNL     1       8.327   3.474  23.275  1.00  0.00     0.171 HD
HETATM    4  C   UNL     1       8.030   2.098  21.973  1.00  0.00     0.327 C 
HETATM    5  O   UNL     1       7.119   2.803  21.620  1.00  0.00    -0.247 OA
HETATM    6  N   UNL     1       8.271   0.799  21.589  1.00  0.00    -0.287 N 
ATOM      7  HN  UNL     1       8.938   0.201  22.079  1.00  0.00     0.172 HD
ENDROOT
BRANCH   1   8
HETATM    8  C   UNL     1      10.585   1.472  23.738  1.00  0.00    -0.023 C 
HETATM    9  C   UNL     1      11.073   0.411  23.711  1.00  0.00     0.012 C 
BRANCH   9  10
HETATM   10  N   UNL     1      11.562  -0.684  23.817  1.00  0.00    -0.354 N 
HETATM   11  C   UNL     1      12.309  -1.548  22.984  1.00  0.00     0.157 C 
ATOM     12  HN  UNL     1      11.396  -1.091  24.738  1.00  0.00     0.169 HD
ENDBRANCH   9  10
ENDBRANCH   1   8
BRANCH   1  13
HETATM   13  C   UNL     1      10.433   3.922  23.755  1.00  0.00     0.106 A 
HETATM   14  C   UNL     1      11.820   4.193  23.575  1.00  0.00     0.243 A 
HETATM   15  O   UNL     1      10.617   4.972  24.088  1.00  0.00    -0.344 OA
ENDBRANCH   1  13
BRANCH   6  16
HETATM   16  C   UNL     1       7.570   0.368  20.525  1.00  0.00     0.175 A 
HETATM   17  O   UNL     1       7.817   0.637  19.187  1.00  0.00    -0.220 OA
HETATM   18  N   UNL     1       6.926   0.023  18.370  1.00  0.00    -0.270 N 
HETATM   19  C   UNL     1       6.107  -0.573  19.203  1.00  0.00     0.119 A 
ATOM     20  HN  UNL     1       6.900   0.025  17.350  1.00  0.00     0.194 HD
HETATM   21  C   UNL     1       6.479  -0.420  20.609  1.00  0.00     0.077 A 
ENDBRANCH   6  16
TORSDOF 4
ENDMDL
MODEL 8
REMARK VINA RESULT:    -5.162      3.734      5.626
REMARK INTER + INTRA:          -6.770
REMARK INTER:                  -6.341
REMARK INTRA:                  -0.428
REMARK UNBOUND:                -0.401
REMARK  4 active torsions:
REMARK  status: ('A' for Active; 'I' for Inactive)
REMARK    1  A    between atoms: N_2  and  C_4 
REMARK    2  A    between atoms: C_5  and  C_6 
REMARK    3  A    between atoms: C_6  and  C_9 
REMARK       I    between atoms: N_10  and  C_12 
REMARK       I    between atoms: C_12  and  N_14 
REMARK    4  A    between atoms: N_14  and  C_16 
ROOT
HETATM    1  C   UNL     1       8.762  -1.926  22.252  1.00  0.00     0.124 C 
HETATM    2  N   UNL     1       8.476  -3.081  22.518  1.00  0.00    -0.299 N 
ATOM      3  HN  UNL     1       9.346  -3.601  22.636  1.00  0.00     0.171 HD
HETATM    4  C   UNL     1       7.458  -3.926  22.714  1.00  0.00     0.327 C 
HETATM    5  O   UNL     1       7.783  -4.948  23.263  1.00  0.00    -0.247 OA
HETATM    6  N   UNL     1       6.209  -3.601  22.237  1.00  0.00    -0.287 N 
ATOM      7  HN  UNL     1       6.054  -2.812  21.609  1.00  0.00     0.172 HD
ENDROOT
BRANCH   1   8
HETATM    8  C   UNL     1       8.081  -1.098  21.431  1.00  0.00    -0.023 C 
HETATM    9  C   UNL     1       7.299  -0.361  20.974  1.00  0.00     0.012 C 
BRANCH   9  10
HETATM   10  N   UNL     1       6.524   0.347  20.383  1.00  0.00    -0.354 N 
HETATM   11  C   UNL     1       5.674   0.208  19.262  1.00  0.00     0.157 C 
ATOM     12  HN  UNL     1       6.467   1.279  20.793  1.00  0.00     0.169 HD
ENDBRANCH   9  10
ENDBRANCH   1   8
BRANCH   1  13
HETATM   13  C   UNL     1       9.988  -1.510  22.922  1.00  0.00     0.106 A 
HETATM   14  C   UNL     1       9.990  -1.334  24.336  1.00  0.00     0.243 A 
HETATM   15  O   UNL     1      11.009  -1.167  23.217  1.00  0.00    -0.344 OA
ENDBRANCH   1  13
BRANCH   6  16
HETATM   16  C   UNL     1       5.204  -4.392  22.655  1.00  0.00     0.175 A 
HETATM   17  O   UNL     1       4.846  -5.636  22.156  1.00  0.00    -0.220 OA
HETATM   18  N   UNL     1       3.797  -6.172  22.825  1.00  0.00    -0.270 N 
HETATM   19  C   UNL     1       3.479  -5.240  23.693  1.00  0.00     0.119 A 
ATOM     20  HN  UNL     1       3.359  -7.083  22.687  1.00  0.00     0.194 HD
HETATM   21  C   UNL     1       4.363  -4.077  23.661  1.00  0.00     0.077 A 
ENDBRANCH   6  16
TORSDOF 4
ENDMDL
MODEL 9
REMARK VINA RESULT:    -5.159      2.420      3.932
REMARK INTER + INTRA:          -6.766
REMARK INTER:                  -6.334
REMARK INTRA:                  -0.433
REMARK UNBOUND:                -0.401
REMARK  4 active torsions:
REMARK  status: ('A' for Active; 'I' for Inactive)
REMARK    1  A    between atoms: N_2  and  C_4 
REMARK    2  A    between atoms: C_5  and  C_6 
REMARK    3  A    between atoms: C_6  and  C_9 
REMARK       I    between atoms: N_10  and  C_12 
REMARK       I    between atoms: C_12  and  N_14 
REMARK    4  A    between atoms: N_14  and  C_16 
ROOT
HETATM    1  C   UNL     1       9.312   0.409  23.925  1.00  0.00     0.124 C 
HETATM    2  N   UNL     1       8.868  -0.335  23.067  1.00  0.00    -0.299 N 
ATOM      3  HN  UNL     1       9.071  -1.295  23.348  1.00  0.00     0.171 HD
HETATM    4  C   UNL     1       8.218  -0.374  21.899  1.00  0.00     0.327 C 
HETATM    5  O   UNL     1       7.771  -1.462  21.636  1.00  0.00    -0.247 OA
HETATM    6  N   UNL     1       8.175   0.753  21.111  1.00  0.00    -0.287 N 
ATOM      7  HN  UNL     1       8.745   1.577  21.308  1.00  0.00     0.172 HD
ENDROOT
BRANCH   1   8
HETATM    8  C   UNL     1       9.849   1.632  23.728  1.00  0.00    -0.023 C 
HETATM    9  C   UNL     1      10.453   2.542  23.313  1.00  0.00     0.012 C 
BRANCH   9  10
HETATM   10  N   UNL     1      11.078   3.526  23.011  1.00  0.00    -0.354 N 
HETATM   11  C   UNL     1      11.823   4.508  23.704  1.00  0.00     0.157 C 
ATOM     12  HN  UNL     1      11.068   3.693  22.005  1.00  0.00     0.169 HD
ENDBRANCH   9  10
ENDBRANCH   1   8
BRANCH   1  13
HETATM   13  C   UNL     1       9.223  -0.189  25.251  1.00  0.00     0.106 A 
HETATM   14  C   UNL     1       8.050  -0.909  25.619  1.00  0.00     0.243 A 
HETATM   15  O   UNL     1       9.356  -0.533  26.305  1.00  0.00    -0.344 OA
ENDBRANCH   1  13
BRANCH   6  16
HETATM   16  C   UNL     1       7.332   0.699  20.064  1.00  0.00     0.175 A 
HETATM   17  O   UNL     1       7.619   0.290  18.770  1.00  0.00    -0.220 OA
HETATM   18  N   UNL     1       6.528   0.336  17.966  1.00  0.00    -0.270 N 
HETATM   19  C   UNL     1       5.593   0.820  18.748  1.00  0.00     0.119 A 
ATOM     20  HN  UNL     1       6.453   0.059  16.988  1.00  0.00     0.194 HD
HETATM   21  C   UNL     1       6.031   1.049  20.124  1.00  0.00     0.077 A 
ENDBRANCH   6  16
TORSDOF 4
ENDMDL
