REMARK  4 active torsions:
REMARK  status: ('A' for Active; 'I' for Inactive)
REMARK    1  A    between atoms: N_2  and  C_4 
REMARK    2  A    between atoms: C_5  and  C_6 
REMARK    3  A    between atoms: C_6  and  C_9 
REMARK       I    between atoms: N_10  and  C_12 
REMARK       I    between atoms: C_12  and  N_14 
REMARK    4  A    between atoms: N_14  and  C_16 
ROOT
HETATM    1  C   UNL     1      10.158  -1.228  23.087  1.00  0.00     0.124 C 
HETATM    2  N   UNL     1       9.915  -0.289  22.349  1.00  0.00    -0.299 N 
ATOM      3  HN  UNL     1      10.615   0.434  22.518  1.00  0.00     0.171 HD
HETATM    4  C   UNL     1       9.081   0.156  21.402  1.00  0.00     0.327 C 
HETATM    5  O   UNL     1       9.513   1.098  20.788  1.00  0.00    -0.247 OA
HETATM    6  N   UNL     1       7.842  -0.427  21.265  1.00  0.00    -0.287 N 
ATOM      7  HN  UNL     1       7.471  -1.085  21.951  1.00  0.00     0.172 HD
ENDROOT
BRANCH   1   8
HETATM    8  C   UNL     1       9.256  -2.042  23.676  1.00  0.00    -0.023 C 
HETATM    9  C   UNL     1       8.737  -2.861  24.328  1.00  0.00     0.012 C 
BRANCH   9  10
HETATM   10  N   UNL     1       8.108  -3.711  24.904  1.00  0.00    -0.354 N 
HETATM   11  C   UNL     1       8.153  -4.318  26.180  1.00  0.00     0.157 C 
ATOM     12  HN  UNL     1       7.355  -4.087  24.328  1.00  0.00     0.169 HD
ENDBRANCH   9  10
ENDBRANCH   1   8
BRANCH   1  13
HETATM   13  C   UNL     1      11.591  -1.382  23.303  1.00  0.00     0.106 A 
HETATM   14  C   UNL     1      12.355  -0.271  23.763  1.00  0.00     0.243 A 
HETATM   15  O   UNL     1      12.656  -1.711  23.372  1.00  0.00    -0.344 OA
ENDBRANCH   1  13
BRANCH   6  16
HETATM   16  C   UNL     1       7.152  -0.072  20.166  1.00  0.00     0.175 A 
HETATM   17  O   UNL     1       7.604  -0.053  18.855  1.00  0.00    -0.220 OA
HETATM   18  N   UNL     1       6.638   0.335  17.987  1.00  0.00    -0.270 N 
HETATM   19  C   UNL     1       5.617   0.604  18.766  1.00  0.00     0.119 A 
ATOM     20  HN  UNL     1       6.692   0.402  16.971  1.00  0.00     0.194 HD
HETATM   21  C   UNL     1       5.866   0.335  20.181  1.00  0.00     0.077 A 
ENDBRANCH   6  16
TORSDOF 4
