stable:False satoms:16 tatoms:24 sratio:0.6666666666666666
  -OEChem-07092417383D

 24 25  0     1  0  0  0  0  0999 V2000
    7.1288   -4.6616   26.4206 H   0  0  0  0  0  0  0  0  0  0  0  0
    8.1533   -4.3177   26.1804 C   0  0  0  0  0  0  0  0  0  0  0  0
    8.8160   -5.2090   26.1856 H   0  0  0  0  0  0  0  0  0  0  0  0
    8.5067   -3.6236   26.9608 H   0  0  0  0  0  0  0  0  0  0  0  0
    8.1085   -3.7109   24.9037 N   0  3  0  0  0  0  0  0  0  0  0  0
    8.7366   -2.8615   24.3278 C   0  0  0  0  0  0  0  0  0  0  0  0
    9.2558   -2.0424   23.6761 C   0  0  0  0  0  0  0  0  0  0  0  0
   10.1575   -1.2284   23.0875 C   0  0  3  0  0  0  0  0  0  0  0  0
   11.6311    0.4132   24.2361 H   0  0  0  0  0  0  0  0  0  0  0  0
   12.3547   -0.2708   23.7633 C   0  0  0  0  0  0  0  0  0  0  0  0
   13.3193    0.1827   23.6060 H   0  0  0  0  0  0  0  0  0  0  0  0
   12.6565   -1.7107   23.3722 O   0  0  0  0  0  0  0  0  0  0  0  0
   11.5910   -1.3822   23.3031 C   0  0  3  0  0  0  0  0  0  0  0  0
    9.9145   -0.2893   22.3493 N   0  0  0  0  0  0  0  0  0  0  0  0
    9.0807    0.1559   21.4017 C   0  0  0  0  0  0  0  0  0  0  0  0
    9.5126    1.0979   20.7882 O   0  0  0  0  0  0  0  0  0  0  0  0
    7.8419   -0.4272   21.2655 N   0  0  0  0  0  0  0  0  0  0  0  0
    7.1517   -0.0724   20.1663 C   0  0  0  0  0  0  0  0  0  0  0  0
    7.6041   -0.0534   18.8555 O   0  0  0  0  0  0  0  0  0  0  0  0
    6.6381    0.3351   17.9873 N   0  0  0  0  0  0  0  0  0  0  0  0
    5.6165    0.6042   18.7664 C   0  0  0  0  0  0  0  0  0  0  0  0
    4.6975    0.9895   18.4343 H   0  0  0  0  0  0  0  0  0  0  0  0
    5.8663    0.3351   20.1814 C   0  0  0  0  0  0  0  0  0  0  0  0
    5.2444    0.4575   21.0775 H   0  0  0  0  0  0  0  0  0  0  0  0
 20 21  2  0  0  0  0
 19 20  1  0  0  0  0
 21 22  1  0  0  0  0
 21 23  1  0  0  0  0
 18 19  1  0  0  0  0
 18 23  2  0  0  0  0
 17 18  1  0  0  0  0
 23 24  1  0  0  0  0
 15 16  2  0  0  0  0
 15 17  1  0  0  0  0
 14 15  1  0  0  0  0
  8 14  1  0  0  0  0
  8 13  1  0  0  0  0
  7  8  1  0  0  0  0
 12 13  1  0  0  0  0
 10 13  1  0  0  0  0
 10 12  1  0  0  0  0
 10 11  1  0  0  0  0
  6  7  3  0  0  0  0
  9 10  1  0  0  0  0
  5  6  1  0  0  0  0
  2  5  1  0  0  0  0
  2  3  1  0  0  0  0
  1  2  1  0  0  0  0
  2  4  1  0  0  0  0
M  CHG  1   5   1
M  END
> <Shapegauss>
-206.493149

$$$$
