REMARK  6 active torsions:
REMARK  status: ('A' for Active; 'I' for Inactive)
REMARK    1  A    between atoms: S_2  and  N_5 
REMARK    2  A    between atoms: N_5  and  C_7 
REMARK    3  A    between atoms: C_7  and  C_8 
REMARK    4  A    between atoms: C_9  and  N_13 
REMARK    5  A    between atoms: C_9  and  C_10 
REMARK    6  A    between atoms: C_15  and  C_16 
REMARK       I    between atoms: C_16  and  N_18 
ROOT
HETATM    1  C   UNL     1       9.366  -1.918  23.518  1.00  0.00     0.054 A 
HETATM    2  C   UNL     1      10.590  -1.006  23.213  1.00  0.00     0.108 A 
HETATM    3  C   UNL     1       9.563  -0.860  22.555  1.00  0.00     0.062 A 
ENDROOT
BRANCH   3   4
HETATM    4  C   UNL     1       8.960  -0.036  21.442  1.00  0.00     0.257 C 
HETATM    5  N   UNL     1       7.798  -0.525  21.052  1.00  0.00    -0.308 N 
HETATM    6  C   UNL     1       7.079  -0.094  20.106  1.00  0.00     0.122 A 
ATOM      7  HN  UNL     1       7.444  -1.332  21.566  1.00  0.00     0.170 HD
HETATM    8  N   UNL     1       7.326  -0.162  18.808  1.00  0.00    -0.286 N 
HETATM    9  C   UNL     1       5.766   0.515  20.501  1.00  0.00     0.051 A 
HETATM   10  N   UNL     1       6.645   0.208  17.857  1.00  0.00    -0.310 N 
ATOM     11  HN  UNL     1       8.219  -0.587  18.560  1.00  0.00     0.188 HD
HETATM   12  C   UNL     1       5.734   0.698  18.296  1.00  0.00     0.107 A 
ATOM     13  HN  UNL     1       6.862   0.094  16.867  1.00  0.00     0.186 HD
HETATM   14  C   UNL     1       5.302   0.869  19.429  1.00  0.00     0.022 A 
HETATM   15  O   UNL     1       9.518   0.924  21.054  1.00  0.00    -0.267 OA
ENDBRANCH   3   4
BRANCH   1  16
HETATM   16  C   UNL     1       8.860  -2.779  24.124  1.00  0.00    -0.018 C 
BRANCH  16  17
HETATM   17  N   UNL     1       8.135  -3.562  24.639  1.00  0.00    -0.230 N 
ATOM     18  HN  UNL     1       7.346  -3.832  24.052  1.00  0.00     0.191 HD
BRANCH  17  19
HETATM   19  S   UNL     1       8.142  -4.295  26.094  1.00  0.00     0.215 S 
HETATM   20  O   UNL     1       6.495  -4.840  26.371  1.00  0.00    -0.577 OA
HETATM   21  O   UNL     1       9.012  -5.433  26.014  1.00  0.00    -0.577 OA
HETATM   22  O   UNL     1       8.475  -3.384  27.144  1.00  0.00    -0.577 OA
ENDBRANCH  17  19
ENDBRANCH  16  17
ENDBRANCH   1  16
BRANCH   2  23
HETATM   23  N   UNL     1      11.784  -1.608  22.702  1.00  0.00    -0.390 N 
HETATM   24  C   UNL     1      12.675  -1.190  22.730  1.00  0.00     0.113 C 
ATOM     25  HN  UNL     1      11.706  -2.533  22.280  1.00  0.00     0.159 HD
ENDBRANCH   2  23
BRANCH   2  26
HETATM   26  C   UNL     1      11.314  -0.025  24.070  1.00  0.00     0.111 C 
HETATM   27  C   UNL     1      12.381   0.169  24.016  1.00  0.00    -0.076 C 
ENDBRANCH   2  26
TORSDOF 6
