MODEL 1
REMARK VINA RESULT:    -6.980      0.000      0.000
REMARK INTER + INTRA:          -9.919
REMARK INTER:                  -9.428
REMARK INTRA:                  -0.491
REMARK UNBOUND:                -0.491
REMARK  6 active torsions:
REMARK  status: ('A' for Active; 'I' for Inactive)
REMARK    1  A    between atoms: S_2  and  N_5 
REMARK    2  A    between atoms: N_5  and  C_7 
REMARK    3  A    between atoms: C_7  and  C_8 
REMARK    4  A    between atoms: C_9  and  N_13 
REMARK    5  A    between atoms: C_9  and  C_10 
REMARK    6  A    between atoms: C_15  and  C_16 
REMARK       I    between atoms: C_16  and  N_18 
ROOT
HETATM    1  C   UNL     1       8.423  -2.587  22.719  1.00  0.00     0.054 A 
HETATM    2  C   UNL     1       9.583  -1.601  23.044  1.00  0.00     0.108 A 
HETATM    3  C   UNL     1       8.779  -1.301  22.166  1.00  0.00     0.062 A 
ENDROOT
BRANCH   3   4
HETATM    4  C   UNL     1       8.439  -0.216  21.173  1.00  0.00     0.257 C 
HETATM    5  N   UNL     1       7.266  -0.427  20.606  1.00  0.00    -0.308 N 
HETATM    6  C   UNL     1       6.733   0.269  19.696  1.00  0.00     0.122 A 
ATOM      7  HN  UNL     1       6.736  -1.234  20.936  1.00  0.00     0.170 HD
HETATM    8  N   UNL     1       7.110   0.372  18.432  1.00  0.00    -0.286 N 
HETATM    9  C   UNL     1       5.494   1.022  20.083  1.00  0.00     0.051 A 
HETATM   10  N   UNL     1       6.605   1.004  17.509  1.00  0.00    -0.310 N 
ATOM     11  HN  UNL     1       7.948  -0.153  18.187  1.00  0.00     0.188 HD
HETATM   12  C   UNL     1       5.737   1.565  17.952  1.00  0.00     0.107 A 
ATOM     13  HN  UNL     1       6.911   1.018  16.537  1.00  0.00     0.186 HD
HETATM   14  C   UNL     1       5.213   1.620  19.057  1.00  0.00     0.022 A 
HETATM   15  O   UNL     1       9.178   0.685  21.011  1.00  0.00    -0.267 OA
ENDBRANCH   3   4
BRANCH   1  16
HETATM   16  C   UNL     1       7.856  -3.592  22.901  1.00  0.00    -0.018 C 
BRANCH  16  17
HETATM   17  N   UNL     1       7.245  -4.605  22.838  1.00  0.00    -0.230 N 
ATOM     18  HN  UNL     1       7.741  -5.403  23.235  1.00  0.00     0.191 HD
BRANCH  17  19
HETATM   19  S   UNL     1       5.776  -4.983  22.245  1.00  0.00     0.215 S 
HETATM   20  O   UNL     1       5.090  -6.156  23.359  1.00  0.00    -0.577 OA
HETATM   21  O   UNL     1       4.974  -3.794  22.254  1.00  0.00    -0.577 OA
HETATM   22  O   UNL     1       5.867  -5.611  20.964  1.00  0.00    -0.577 OA
ENDBRANCH  17  19
ENDBRANCH  16  17
ENDBRANCH   1  16
BRANCH   2  23
HETATM   23  N   UNL     1      10.929  -2.015  22.784  1.00  0.00    -0.390 N 
HETATM   24  C   UNL     1      11.689  -1.400  22.671  1.00  0.00     0.113 C 
ATOM     25  HN  UNL     1      11.112  -3.015  22.710  1.00  0.00     0.159 HD
ENDBRANCH   2  23
BRANCH   2  26
HETATM   26  C   UNL     1       9.927  -0.879  24.302  1.00  0.00     0.111 C 
HETATM   27  C   UNL     1       9.271  -0.175  24.806  1.00  0.00    -0.076 C 
ENDBRANCH   2  26
TORSDOF 6
ENDMDL
MODEL 2
REMARK VINA RESULT:    -6.510      1.898      2.126
REMARK INTER + INTRA:          -9.285
REMARK INTER:                  -9.097
REMARK INTRA:                  -0.188
REMARK UNBOUND:                -0.491
REMARK  6 active torsions:
REMARK  status: ('A' for Active; 'I' for Inactive)
REMARK    1  A    between atoms: S_2  and  N_5 
REMARK    2  A    between atoms: N_5  and  C_7 
REMARK    3  A    between atoms: C_7  and  C_8 
REMARK    4  A    between atoms: C_9  and  N_13 
REMARK    5  A    between atoms: C_9  and  C_10 
REMARK    6  A    between atoms: C_15  and  C_16 
REMARK       I    between atoms: C_16  and  N_18 
ROOT
HETATM    1  C   UNL     1       9.353  -2.067  23.165  1.00  0.00     0.054 A 
HETATM    2  C   UNL     1      10.547  -1.075  23.055  1.00  0.00     0.108 A 
HETATM    3  C   UNL     1       9.551  -0.884  22.362  1.00  0.00     0.062 A 
ENDROOT
BRANCH   3   4
HETATM    4  C   UNL     1       8.970   0.056  21.332  1.00  0.00     0.257 C 
HETATM    5  N   UNL     1       7.817  -0.387  20.867  1.00  0.00    -0.308 N 
HETATM    6  C   UNL     1       7.118   0.144  19.958  1.00  0.00     0.122 A 
ATOM      7  HN  UNL     1       7.454  -1.244  21.284  1.00  0.00     0.170 HD
HETATM    8  N   UNL     1       7.392   0.216  18.666  1.00  0.00    -0.286 N 
HETATM    9  C   UNL     1       5.796   0.709  20.389  1.00  0.00     0.051 A 
HETATM   10  N   UNL     1       6.730   0.687  17.746  1.00  0.00    -0.310 N 
ATOM     11  HN  UNL     1       8.290  -0.180  18.392  1.00  0.00     0.188 HD
HETATM   12  C   UNL     1       5.810   1.128  18.217  1.00  0.00     0.107 A 
ATOM     13  HN  UNL     1       6.968   0.680  16.755  1.00  0.00     0.186 HD
HETATM   14  C   UNL     1       5.354   1.177  19.352  1.00  0.00     0.022 A 
HETATM   15  O   UNL     1       9.535   1.052  21.061  1.00  0.00    -0.267 OA
ENDBRANCH   3   4
BRANCH   1  16
HETATM   16  C   UNL     1       8.856  -3.020  23.623  1.00  0.00    -0.018 C 
BRANCH  16  17
HETATM   17  N   UNL     1       8.189  -3.960  23.899  1.00  0.00    -0.230 N 
ATOM     18  HN  UNL     1       7.806  -4.439  23.085  1.00  0.00     0.191 HD
BRANCH  17  19
HETATM   19  S   UNL     1       7.758  -4.640  25.315  1.00  0.00     0.215 S 
HETATM   20  O   UNL     1       7.691  -3.330  26.483  1.00  0.00    -0.577 OA
HETATM   21  O   UNL     1       6.448  -5.204  25.157  1.00  0.00    -0.577 OA
HETATM   22  O   UNL     1       8.738  -5.574  25.774  1.00  0.00    -0.577 OA
ENDBRANCH  17  19
ENDBRANCH  16  17
ENDBRANCH   1  16
BRANCH   2  23
HETATM   23  N   UNL     1      11.794  -1.555  22.542  1.00  0.00    -0.390 N 
HETATM   24  C   UNL     1      12.626  -1.614  23.065  1.00  0.00     0.113 C 
ATOM     25  HN  UNL     1      11.822  -1.858  21.569  1.00  0.00     0.159 HD
ENDBRANCH   2  23
BRANCH   2  26
HETATM   26  C   UNL     1      11.177  -0.188  24.074  1.00  0.00     0.111 C 
HETATM   27  C   UNL     1      10.755   0.752  24.416  1.00  0.00    -0.076 C 
ENDBRANCH   2  26
TORSDOF 6
ENDMDL
MODEL 3
REMARK VINA RESULT:    -6.324      4.045      5.712
REMARK INTER + INTRA:          -9.033
REMARK INTER:                  -8.843
REMARK INTRA:                  -0.190
REMARK UNBOUND:                -0.491
REMARK  6 active torsions:
REMARK  status: ('A' for Active; 'I' for Inactive)
REMARK    1  A    between atoms: S_2  and  N_5 
REMARK    2  A    between atoms: N_5  and  C_7 
REMARK    3  A    between atoms: C_7  and  C_8 
REMARK    4  A    between atoms: C_9  and  N_13 
REMARK    5  A    between atoms: C_9  and  C_10 
REMARK    6  A    between atoms: C_15  and  C_16 
REMARK       I    between atoms: C_16  and  N_18 
ROOT
HETATM    1  C   UNL     1       7.906  -4.453  24.713  1.00  0.00     0.054 A 
HETATM    2  C   UNL     1       7.114  -4.180  23.402  1.00  0.00     0.108 A 
HETATM    3  C   UNL     1       8.087  -3.478  23.663  1.00  0.00     0.062 A 
ENDROOT
BRANCH   3   4
HETATM    4  C   UNL     1       8.910  -2.325  23.137  1.00  0.00     0.257 C 
HETATM    5  N   UNL     1       9.470  -1.643  24.118  1.00  0.00    -0.308 N 
HETATM    6  C   UNL     1      10.167  -0.594  24.003  1.00  0.00     0.122 A 
ATOM      7  HN  UNL     1       9.327  -1.997  25.064  1.00  0.00     0.170 HD
HETATM    8  N   UNL     1       9.757   0.614  23.653  1.00  0.00    -0.286 N 
HETATM    9  C   UNL     1      11.618  -0.726  24.360  1.00  0.00     0.051 A 
HETATM   10  N   UNL     1      10.387   1.663  23.564  1.00  0.00    -0.310 N 
ATOM     11  HN  UNL     1       8.767   0.684  23.423  1.00  0.00     0.188 HD
HETATM   12  C   UNL     1      11.457   1.406  23.791  1.00  0.00     0.107 A 
ATOM     13  HN  UNL     1      10.014   2.583  23.329  1.00  0.00     0.186 HD
HETATM   14  C   UNL     1      12.052   0.392  24.134  1.00  0.00     0.022 A 
HETATM   15  O   UNL     1       9.003  -2.152  21.977  1.00  0.00    -0.267 OA
ENDBRANCH   3   4
BRANCH   1  16
HETATM   16  C   UNL     1       8.070  -5.055  25.701  1.00  0.00    -0.018 C 
BRANCH  16  17
HETATM   17  N   UNL     1       7.985  -5.671  26.709  1.00  0.00    -0.230 N 
ATOM     18  HN  UNL     1       8.864  -6.101  26.997  1.00  0.00     0.191 HD
BRANCH  17  19
HETATM   19  S   UNL     1       6.751  -5.972  27.729  1.00  0.00     0.215 S 
HETATM   20  O   UNL     1       6.073  -4.406  28.146  1.00  0.00    -0.577 OA
HETATM   21  O   UNL     1       5.768  -6.742  27.022  1.00  0.00    -0.577 OA
HETATM   22  O   UNL     1       7.202  -6.581  28.941  1.00  0.00    -0.577 OA
ENDBRANCH  17  19
ENDBRANCH  16  17
ENDBRANCH   1  16
BRANCH   2  23
HETATM   23  N   UNL     1       5.758  -3.729  23.500  1.00  0.00    -0.390 N 
HETATM   24  C   UNL     1       5.196  -3.481  22.731  1.00  0.00     0.113 C 
ATOM     25  HN  UNL     1       5.347  -3.661  24.431  1.00  0.00     0.159 HD
ENDBRANCH   2  23
BRANCH   2  26
HETATM   26  C   UNL     1       6.861  -5.046  22.216  1.00  0.00     0.111 C 
HETATM   27  C   UNL     1       7.380  -5.978  22.013  1.00  0.00    -0.076 C 
ENDBRANCH   2  26
TORSDOF 6
ENDMDL
MODEL 4
REMARK VINA RESULT:    -6.321     14.751     17.752
REMARK INTER + INTRA:          -9.030
REMARK INTER:                  -8.535
REMARK INTRA:                  -0.495
REMARK UNBOUND:                -0.491
REMARK  6 active torsions:
REMARK  status: ('A' for Active; 'I' for Inactive)
REMARK    1  A    between atoms: S_2  and  N_5 
REMARK    2  A    between atoms: N_5  and  C_7 
REMARK    3  A    between atoms: C_7  and  C_8 
REMARK    4  A    between atoms: C_9  and  N_13 
REMARK    5  A    between atoms: C_9  and  C_10 
REMARK    6  A    between atoms: C_15  and  C_16 
REMARK       I    between atoms: C_16  and  N_18 
ROOT
HETATM    1  C   UNL     1      23.392  -3.350  24.871  1.00  0.00     0.054 A 
HETATM    2  C   UNL     1      22.618  -2.014  24.671  1.00  0.00     0.108 A 
HETATM    3  C   UNL     1      23.088  -2.267  25.778  1.00  0.00     0.062 A 
ENDROOT
BRANCH   3   4
HETATM    4  C   UNL     1      23.227  -1.714  27.176  1.00  0.00     0.257 C 
HETATM    5  N   UNL     1      23.637  -2.638  28.024  1.00  0.00    -0.308 N 
HETATM    6  C   UNL     1      23.792  -2.499  29.271  1.00  0.00     0.122 A 
ATOM      7  HN  UNL     1      23.850  -3.556  27.635  1.00  0.00     0.170 HD
HETATM    8  N   UNL     1      22.853  -2.345  30.190  1.00  0.00    -0.286 N 
HETATM    9  C   UNL     1      25.204  -2.576  29.772  1.00  0.00     0.051 A 
HETATM   10  N   UNL     1      22.953  -2.243  31.408  1.00  0.00    -0.310 N 
ATOM     11  HN  UNL     1      21.899  -2.304  29.830  1.00  0.00     0.188 HD
HETATM   12  C   UNL     1      24.054  -2.250  31.634  1.00  0.00     0.107 A 
ATOM     13  HN  UNL     1      22.191  -2.168  32.082  1.00  0.00     0.186 HD
HETATM   14  C   UNL     1      25.074  -2.382  30.970  1.00  0.00     0.022 A 
HETATM   15  O   UNL     1      23.003  -0.578  27.382  1.00  0.00    -0.267 OA
ENDBRANCH   3   4
BRANCH   1  16
HETATM   16  C   UNL     1      23.803  -4.363  24.460  1.00  0.00    -0.018 C 
BRANCH  16  17
HETATM   17  N   UNL     1      24.040  -5.491  24.185  1.00  0.00    -0.230 N 
ATOM     18  HN  UNL     1      23.889  -5.709  23.200  1.00  0.00     0.191 HD
BRANCH  17  19
HETATM   19  S   UNL     1      24.558  -6.764  25.059  1.00  0.00     0.215 S 
HETATM   20  O   UNL     1      24.156  -6.401  26.730  1.00  0.00    -0.577 OA
HETATM   21  O   UNL     1      23.826  -7.922  24.635  1.00  0.00    -0.577 OA
HETATM   22  O   UNL     1      25.978  -6.916  24.983  1.00  0.00    -0.577 OA
ENDBRANCH  17  19
ENDBRANCH  16  17
ENDBRANCH   1  16
BRANCH   2  23
HETATM   23  N   UNL     1      21.220  -2.069  24.369  1.00  0.00    -0.390 N 
HETATM   24  C   UNL     1      20.568  -1.374  24.616  1.00  0.00     0.113 C 
ATOM     25  HN  UNL     1      20.875  -2.885  23.864  1.00  0.00     0.159 HD
ENDBRANCH   2  23
BRANCH   2  26
HETATM   26  C   UNL     1      22.884  -0.857  23.771  1.00  0.00     0.111 C 
HETATM   27  C   UNL     1      23.855  -0.388  23.642  1.00  0.00    -0.076 C 
ENDBRANCH   2  26
TORSDOF 6
ENDMDL
MODEL 5
REMARK VINA RESULT:    -6.267      3.638      5.323
REMARK INTER + INTRA:          -8.956
REMARK INTER:                  -8.626
REMARK INTRA:                  -0.330
REMARK UNBOUND:                -0.491
REMARK  6 active torsions:
REMARK  status: ('A' for Active; 'I' for Inactive)
REMARK    1  A    between atoms: S_2  and  N_5 
REMARK    2  A    between atoms: N_5  and  C_7 
REMARK    3  A    between atoms: C_7  and  C_8 
REMARK    4  A    between atoms: C_9  and  N_13 
REMARK    5  A    between atoms: C_9  and  C_10 
REMARK    6  A    between atoms: C_15  and  C_16 
REMARK       I    between atoms: C_16  and  N_18 
ROOT
HETATM    1  C   UNL     1       7.371  -4.946  25.694  1.00  0.00     0.054 A 
HETATM    2  C   UNL     1       6.625  -4.729  24.345  1.00  0.00     0.108 A 
HETATM    3  C   UNL     1       7.514  -3.943  24.664  1.00  0.00     0.062 A 
ENDROOT
BRANCH   3   4
HETATM    4  C   UNL     1       8.250  -2.711  24.194  1.00  0.00     0.257 C 
HETATM    5  N   UNL     1       7.796  -2.291  23.028  1.00  0.00    -0.308 N 
HETATM    6  C   UNL     1       8.245  -1.323  22.350  1.00  0.00     0.122 A 
ATOM      7  HN  UNL     1       7.004  -2.799  22.634  1.00  0.00     0.170 HD
HETATM    8  N   UNL     1       9.400  -1.252  21.709  1.00  0.00    -0.286 N 
HETATM    9  C   UNL     1       7.334  -0.140  22.209  1.00  0.00     0.051 A 
HETATM   10  N   UNL     1       9.860  -0.353  21.013  1.00  0.00    -0.310 N 
ATOM     11  HN  UNL     1      10.001  -2.070  21.810  1.00  0.00     0.188 HD
HETATM   12  C   UNL     1       9.112   0.485  21.050  1.00  0.00     0.107 A 
ATOM     13  HN  UNL     1      10.743  -0.364  20.503  1.00  0.00     0.186 HD
HETATM   14  C   UNL     1       8.008   0.640  21.555  1.00  0.00     0.022 A 
HETATM   15  O   UNL     1       9.091  -2.238  24.866  1.00  0.00    -0.267 OA
ENDBRANCH   3   4
BRANCH   1  16
HETATM   16  C   UNL     1       7.539  -5.544  26.683  1.00  0.00    -0.018 C 
BRANCH  16  17
HETATM   17  N   UNL     1       7.468  -6.096  27.729  1.00  0.00    -0.230 N 
ATOM     18  HN  UNL     1       8.365  -6.450  28.062  1.00  0.00     0.191 HD
BRANCH  17  19
HETATM   19  S   UNL     1       6.231  -6.403  28.744  1.00  0.00     0.215 S 
HETATM   20  O   UNL     1       6.451  -5.328  30.116  1.00  0.00    -0.577 OA
HETATM   21  O   UNL     1       5.010  -6.068  28.069  1.00  0.00    -0.577 OA
HETATM   22  O   UNL     1       6.272  -7.744  29.237  1.00  0.00    -0.577 OA
ENDBRANCH  17  19
ENDBRANCH  16  17
ENDBRANCH   1  16
BRANCH   2  23
HETATM   23  N   UNL     1       5.230  -4.409  24.375  1.00  0.00    -0.390 N 
HETATM   24  C   UNL     1       4.724  -4.049  23.611  1.00  0.00     0.113 C 
ATOM     25  HN  UNL     1       4.727  -4.565  25.248  1.00  0.00     0.159 HD
ENDBRANCH   2  23
BRANCH   2  26
HETATM   26  C   UNL     1       6.517  -5.597  23.138  1.00  0.00     0.111 C 
HETATM   27  C   UNL     1       7.346  -5.844  22.482  1.00  0.00    -0.076 C 
ENDBRANCH   2  26
TORSDOF 6
ENDMDL
MODEL 6
REMARK VINA RESULT:    -6.126      1.913      5.366
REMARK INTER + INTRA:          -8.766
REMARK INTER:                  -8.576
REMARK INTRA:                  -0.190
REMARK UNBOUND:                -0.491
REMARK  6 active torsions:
REMARK  status: ('A' for Active; 'I' for Inactive)
REMARK    1  A    between atoms: S_2  and  N_5 
REMARK    2  A    between atoms: N_5  and  C_7 
REMARK    3  A    between atoms: C_7  and  C_8 
REMARK    4  A    between atoms: C_9  and  N_13 
REMARK    5  A    between atoms: C_9  and  C_10 
REMARK    6  A    between atoms: C_15  and  C_16 
REMARK       I    between atoms: C_16  and  N_18 
ROOT
HETATM    1  C   UNL     1       6.752  -1.373  22.051  1.00  0.00     0.054 A 
HETATM    2  C   UNL     1       6.809  -0.200  21.028  1.00  0.00     0.108 A 
HETATM    3  C   UNL     1       7.814  -0.465  21.683  1.00  0.00     0.062 A 
ENDROOT
BRANCH   3   4
HETATM    4  C   UNL     1       9.250  -0.048  21.895  1.00  0.00     0.257 C 
HETATM    5  N   UNL     1       9.848  -0.810  22.791  1.00  0.00    -0.308 N 
HETATM    6  C   UNL     1      11.028  -0.677  23.225  1.00  0.00     0.122 A 
ATOM      7  HN  UNL     1       9.304  -1.585  23.171  1.00  0.00     0.170 HD
HETATM    8  N   UNL     1      11.498   0.281  24.008  1.00  0.00    -0.286 N 
HETATM    9  C   UNL     1      11.993  -1.765  22.855  1.00  0.00     0.051 A 
HETATM   10  N   UNL     1      12.619   0.431  24.481  1.00  0.00    -0.310 N 
ATOM     11  HN  UNL     1      10.824   1.005  24.255  1.00  0.00     0.188 HD
HETATM   12  C   UNL     1      13.246  -0.407  24.073  1.00  0.00     0.107 A 
ATOM     13  HN  UNL     1      12.922   1.168  25.117  1.00  0.00     0.186 HD
HETATM   14  C   UNL     1      13.036  -1.381  23.360  1.00  0.00     0.022 A 
HETATM   15  O   UNL     1       9.701   0.841  21.271  1.00  0.00    -0.267 OA
ENDBRANCH   3   4
BRANCH   1  16
HETATM   16  C   UNL     1       6.173  -2.235  22.584  1.00  0.00    -0.018 C 
BRANCH  16  17
HETATM   17  N   UNL     1       5.392  -3.030  22.987  1.00  0.00    -0.230 N 
ATOM     18  HN  UNL     1       4.734  -2.645  23.665  1.00  0.00     0.191 HD
BRANCH  17  19
HETATM   19  S   UNL     1       5.155  -4.612  22.679  1.00  0.00     0.215 S 
HETATM   20  O   UNL     1       5.765  -4.887  21.054  1.00  0.00    -0.577 OA
HETATM   21  O   UNL     1       5.936  -5.369  23.614  1.00  0.00    -0.577 OA
HETATM   22  O   UNL     1       3.765  -4.949  22.678  1.00  0.00    -0.577 OA
ENDBRANCH  17  19
ENDBRANCH  16  17
ENDBRANCH   1  16
BRANCH   2  23
HETATM   23  N   UNL     1       5.990   0.951  21.258  1.00  0.00    -0.390 N 
HETATM   24  C   UNL     1       6.325   1.876  21.289  1.00  0.00     0.113 C 
ATOM     25  HN  UNL     1       4.991   0.802  21.401  1.00  0.00     0.159 HD
ENDBRANCH   2  23
BRANCH   2  26
HETATM   26  C   UNL     1       6.617  -0.184  19.551  1.00  0.00     0.111 C 
HETATM   27  C   UNL     1       5.768  -0.624  19.036  1.00  0.00    -0.076 C 
ENDBRANCH   2  26
TORSDOF 6
ENDMDL
MODEL 7
REMARK VINA RESULT:    -6.098     19.671     22.378
REMARK INTER + INTRA:          -8.728
REMARK INTER:                  -8.462
REMARK INTRA:                  -0.266
REMARK UNBOUND:                -0.491
REMARK  6 active torsions:
REMARK  status: ('A' for Active; 'I' for Inactive)
REMARK    1  A    between atoms: S_2  and  N_5 
REMARK    2  A    between atoms: N_5  and  C_7 
REMARK    3  A    between atoms: C_7  and  C_8 
REMARK    4  A    between atoms: C_9  and  N_13 
REMARK    5  A    between atoms: C_9  and  C_10 
REMARK    6  A    between atoms: C_15  and  C_16 
REMARK       I    between atoms: C_16  and  N_18 
ROOT
HETATM    1  C   UNL     1       6.951  11.773   3.360  1.00  0.00     0.054 A 
HETATM    2  C   UNL     1       5.427  12.003   3.573  1.00  0.00     0.108 A 
HETATM    3  C   UNL     1       5.834  10.859   3.384  1.00  0.00     0.062 A 
ENDROOT
BRANCH   3   4
HETATM    4  C   UNL     1       5.371   9.425   3.276  1.00  0.00     0.257 C 
HETATM    5  N   UNL     1       5.169   8.890   4.465  1.00  0.00    -0.308 N 
HETATM    6  C   UNL     1       4.836   7.695   4.706  1.00  0.00     0.122 A 
ATOM      7  HN  UNL     1       5.294   9.503   5.271  1.00  0.00     0.170 HD
HETATM    8  N   UNL     1       5.570   6.605   4.552  1.00  0.00    -0.286 N 
HETATM    9  C   UNL     1       3.467   7.497   5.287  1.00  0.00     0.051 A 
HETATM   10  N   UNL     1       5.304   5.435   4.805  1.00  0.00    -0.310 N 
ATOM     11  HN  UNL     1       6.500   6.762   4.164  1.00  0.00     0.188 HD
HETATM   12  C   UNL     1       4.240   5.426   5.165  1.00  0.00     0.107 A 
ATOM     13  HN  UNL     1       5.924   4.630   4.708  1.00  0.00     0.186 HD
HETATM   14  C   UNL     1       3.392   6.282   5.387  1.00  0.00     0.022 A 
HETATM   15  O   UNL     1       5.212   8.939   2.217  1.00  0.00    -0.267 OA
ENDBRANCH   3   4
BRANCH   1  16
HETATM   16  C   UNL     1       8.043  12.180   3.273  1.00  0.00    -0.018 C 
BRANCH  16  17
HETATM   17  N   UNL     1       9.119  12.651   3.427  1.00  0.00    -0.230 N 
ATOM     18  HN  UNL     1       9.873  11.966   3.373  1.00  0.00     0.191 HD
BRANCH  17  19
HETATM   19  S   UNL     1       9.641  14.168   3.709  1.00  0.00     0.215 S 
HETATM   20  O   UNL     1       8.215  15.098   4.144  1.00  0.00    -0.577 OA
HETATM   21  O   UNL     1      10.541  14.128   4.826  1.00  0.00    -0.577 OA
HETATM   22  O   UNL     1      10.200  14.762   2.536  1.00  0.00    -0.577 OA
ENDBRANCH  17  19
ENDBRANCH  16  17
ENDBRANCH   1  16
BRANCH   2  23
HETATM   23  N   UNL     1       4.704  12.761   2.597  1.00  0.00    -0.390 N 
HETATM   24  C   UNL     1       3.950  12.414   2.067  1.00  0.00     0.113 C 
ATOM     25  HN  UNL     1       4.989  13.728   2.440  1.00  0.00     0.159 HD
ENDBRANCH   2  23
BRANCH   2  26
HETATM   26  C   UNL     1       4.676  12.563   4.732  1.00  0.00     0.111 C 
HETATM   27  C   UNL     1       4.193  11.965   5.499  1.00  0.00    -0.076 C 
ENDBRANCH   2  26
TORSDOF 6
ENDMDL
MODEL 8
REMARK VINA RESULT:    -5.942      4.148      6.416
REMARK INTER + INTRA:          -8.517
REMARK INTER:                  -8.219
REMARK INTRA:                  -0.298
REMARK UNBOUND:                -0.491
REMARK  6 active torsions:
REMARK  status: ('A' for Active; 'I' for Inactive)
REMARK    1  A    between atoms: S_2  and  N_5 
REMARK    2  A    between atoms: N_5  and  C_7 
REMARK    3  A    between atoms: C_7  and  C_8 
REMARK    4  A    between atoms: C_9  and  N_13 
REMARK    5  A    between atoms: C_9  and  C_10 
REMARK    6  A    between atoms: C_15  and  C_16 
REMARK       I    between atoms: C_16  and  N_18 
ROOT
HETATM    1  C   UNL     1       9.753   2.192  24.159  1.00  0.00     0.054 A 
HETATM    2  C   UNL     1      10.302   0.808  24.611  1.00  0.00     0.108 A 
HETATM    3  C   UNL     1       9.607   0.868  23.601  1.00  0.00     0.062 A 
ENDROOT
BRANCH   3   4
HETATM    4  C   UNL     1       9.020   0.020  22.498  1.00  0.00     0.257 C 
HETATM    5  N   UNL     1       7.888   0.527  22.046  1.00  0.00    -0.308 N 
HETATM    6  C   UNL     1       7.133   0.020  21.169  1.00  0.00     0.122 A 
ATOM      7  HN  UNL     1       7.594   1.419  22.445  1.00  0.00     0.170 HD
HETATM    8  N   UNL     1       6.380  -1.062  21.278  1.00  0.00    -0.286 N 
HETATM    9  C   UNL     1       7.036   0.767  19.871  1.00  0.00     0.051 A 
HETATM   10  N   UNL     1       5.608  -1.569  20.471  1.00  0.00    -0.310 N 
ATOM     11  HN  UNL     1       6.453  -1.550  22.171  1.00  0.00     0.188 HD
HETATM   12  C   UNL     1       5.685  -0.953  19.534  1.00  0.00     0.107 A 
ATOM     13  HN  UNL     1       5.015  -2.385  20.620  1.00  0.00     0.186 HD
HETATM   14  C   UNL     1       6.290   0.062  19.211  1.00  0.00     0.022 A 
HETATM   15  O   UNL     1       9.587  -0.944  22.133  1.00  0.00    -0.267 OA
ENDBRANCH   3   4
BRANCH   1  16
HETATM   16  C   UNL     1       9.646   3.346  24.306  1.00  0.00    -0.018 C 
BRANCH  16  17
HETATM   17  N   UNL     1       9.307   4.458  24.534  1.00  0.00    -0.230 N 
ATOM     18  HN  UNL     1       8.526   4.519  25.187  1.00  0.00     0.191 HD
BRANCH  17  19
HETATM   19  S   UNL     1       9.834   5.910  24.015  1.00  0.00     0.215 S 
HETATM   20  O   UNL     1       8.697   6.426  22.779  1.00  0.00    -0.577 OA
HETATM   21  O   UNL     1       9.780   6.823  25.121  1.00  0.00    -0.577 OA
HETATM   22  O   UNL     1      11.122   5.818  23.403  1.00  0.00    -0.577 OA
ENDBRANCH  17  19
ENDBRANCH  16  17
ENDBRANCH   1  16
BRANCH   2  23
HETATM   23  N   UNL     1       9.851   0.265  25.857  1.00  0.00    -0.390 N 
HETATM   24  C   UNL     1       9.227  -0.492  25.941  1.00  0.00     0.113 C 
ATOM     25  HN  UNL     1      10.200   0.691  26.715  1.00  0.00     0.159 HD
ENDBRANCH   2  23
BRANCH   2  26
HETATM   26  C   UNL     1      11.700   0.317  24.772  1.00  0.00     0.111 C 
HETATM   27  C   UNL     1      12.281  -0.155  23.985  1.00  0.00    -0.076 C 
ENDBRANCH   2  26
TORSDOF 6
ENDMDL
MODEL 9
REMARK VINA RESULT:    -5.797     23.489     25.811
REMARK INTER + INTRA:          -8.322
REMARK INTER:                  -7.917
REMARK INTRA:                  -0.405
REMARK UNBOUND:                -0.491
REMARK  6 active torsions:
REMARK  status: ('A' for Active; 'I' for Inactive)
REMARK    1  A    between atoms: S_2  and  N_5 
REMARK    2  A    between atoms: N_5  and  C_7 
REMARK    3  A    between atoms: C_7  and  C_8 
REMARK    4  A    between atoms: C_9  and  N_13 
REMARK    5  A    between atoms: C_9  and  C_10 
REMARK    6  A    between atoms: C_15  and  C_16 
REMARK       I    between atoms: C_16  and  N_18 
ROOT
HETATM    1  C   UNL     1      10.181  17.483   4.165  1.00  0.00     0.054 A 
HETATM    2  C   UNL     1       9.268  17.890   2.972  1.00  0.00     0.108 A 
HETATM    3  C   UNL     1       9.529  16.702   3.140  1.00  0.00     0.062 A 
ENDROOT
BRANCH   3   4
HETATM    4  C   UNL     1       9.269  15.326   2.574  1.00  0.00     0.257 C 
HETATM    5  N   UNL     1       8.362  14.676   3.279  1.00  0.00    -0.308 N 
HETATM    6  C   UNL     1       7.973  13.488   3.092  1.00  0.00     0.122 A 
ATOM      7  HN  UNL     1       7.932  15.183   4.052  1.00  0.00     0.170 HD
HETATM    8  N   UNL     1       8.655  12.373   3.298  1.00  0.00    -0.286 N 
HETATM    9  C   UNL     1       6.553  13.323   2.638  1.00  0.00     0.051 A 
HETATM   10  N   UNL     1       8.309  11.203   3.166  1.00  0.00    -0.310 N 
ATOM     11  HN  UNL     1       9.615  12.506   3.615  1.00  0.00     0.188 HD
HETATM   12  C   UNL     1       7.261  11.230   2.763  1.00  0.00     0.107 A 
ATOM     13  HN  UNL     1       8.862  10.373   3.380  1.00  0.00     0.186 HD
HETATM   14  C   UNL     1       6.453  12.114   2.506  1.00  0.00     0.022 A 
HETATM   15  O   UNL     1       9.832  14.975   1.603  1.00  0.00    -0.267 OA
ENDBRANCH   3   4
BRANCH   1  16
HETATM   16  C   UNL     1      10.828  17.761   5.097  1.00  0.00    -0.018 C 
BRANCH  16  17
HETATM   17  N   UNL     1      11.386  17.835   6.140  1.00  0.00    -0.230 N 
ATOM     18  HN  UNL     1      11.532  16.930   6.587  1.00  0.00     0.191 HD
BRANCH  17  19
HETATM   19  S   UNL     1      11.967  19.087   7.005  1.00  0.00     0.215 S 
HETATM   20  O   UNL     1      12.125  18.505   8.655  1.00  0.00    -0.577 OA
HETATM   21  O   UNL     1      13.265  19.418   6.491  1.00  0.00    -0.577 OA
HETATM   22  O   UNL     1      11.053  20.186   7.023  1.00  0.00    -0.577 OA
ENDBRANCH  17  19
ENDBRANCH  16  17
ENDBRANCH   1  16
BRANCH   2  23
HETATM   23  N   UNL     1       9.826  18.687   1.922  1.00  0.00    -0.390 N 
HETATM   24  C   UNL     1       9.567  18.621   0.974  1.00  0.00     0.113 C 
ATOM     25  HN  UNL     1      10.539  19.371   2.173  1.00  0.00     0.159 HD
ENDBRANCH   2  23
BRANCH   2  26
HETATM   26  C   UNL     1       7.944  18.575   2.945  1.00  0.00     0.111 C 
HETATM   27  C   UNL     1       7.028  18.158   3.351  1.00  0.00    -0.076 C 
ENDBRANCH   2  26
TORSDOF 6
ENDMDL
