
 OpenBabel07202414123D

 77 80  0  0  1  0  0  0  0  0999 V2000
    2.0648  -10.8119   -0.2601 C   0  0  0  0  0  0  0  0  0  0  0  0
    2.5602  -10.7113   -1.7107 C   0  0  0  0  0  0  0  0  0  0  0  0
    3.3399  -11.9599   -2.1439 C   0  0  0  0  0  0  0  0  0  0  0  0
    1.3242  -10.5824   -2.6173 C   0  0  0  0  0  0  0  0  0  0  0  0
    3.3532   -9.5119   -1.9379 O   0  0  0  0  0  0  0  0  0  0  0  0
    4.5280   -9.3530   -1.2688 C   0  0  0  0  0  0  0  0  0  0  0  0
    4.9623  -10.1297   -0.4252 O   0  0  0  0  0  0  0  0  0  0  0  0
    5.1998   -8.2133   -1.6290 N   0  0  0  0  0  0  0  0  0  0  0  0
    6.4126   -7.8082   -0.9543 C   0  0  0  0  0  0  0  0  0  0  0  0
    6.3816   -6.2944   -1.0553 C   0  0  0  0  0  0  0  0  0  0  0  0
    5.7880   -6.0621   -2.4431 C   0  0  3  0  0  0  0  0  0  0  0  0
    6.8513   -6.0624   -3.4467 N   0  0  0  0  0  0  0  0  0  0  0  0
    6.7335   -5.3032   -4.5820 C   0  0  0  0  0  0  0  0  0  0  0  0
    5.7288   -4.6081   -4.7885 O   0  0  0  0  0  0  0  0  0  0  0  0
    7.8222   -5.4722   -5.6684 C   0  0  3  0  0  0  0  0  0  0  0  0
    9.2554   -5.5678   -5.2052 N   0  0  0  0  0  0  0  0  0  0  0  0
   10.0566   -6.7251   -5.0568 C   0  0  0  0  0  0  0  0  0  0  0  0
   11.2661   -6.6849   -4.8311 O   0  0  0  0  0  0  0  0  0  0  0  0
    9.4708   -8.0492   -5.1324 C   0  0  0  0  0  0  0  0  0  0  0  0
   10.1369   -9.1529   -5.6257 C   0  0  0  0  0  0  0  0  0  0  0  0
    9.3362  -10.2391   -5.4803 O   0  0  0  0  0  0  0  0  0  0  0  0
    8.2313   -9.7417   -4.8606 C   0  0  0  0  0  0  0  0  0  0  0  0
    8.2700   -8.4536   -4.5772 N   0  0  0  0  0  0  0  0  0  0  0  0
    9.9097   -4.3001   -4.9246 C   0  0  0  0  0  0  0  0  0  0  0  0
   11.1937   -4.0404   -5.4163 C   0  0  0  0  0  0  0  0  0  0  0  0
   11.9029   -2.8859   -5.0622 C   0  0  0  0  0  0  0  0  0  0  0  0
   11.3527   -1.9196   -4.2131 C   0  0  0  0  0  0  0  0  0  0  0  0
   12.1220   -0.6423   -3.8238 C   0  0  0  0  0  0  0  0  0  0  0  0
   13.5360   -0.5607   -4.4496 C   0  0  0  0  0  0  0  0  0  0  0  0
   11.3353    0.5930   -4.3085 C   0  0  0  0  0  0  0  0  0  0  0  0
   12.3078   -0.5498   -2.2938 C   0  0  0  0  0  0  0  0  0  0  0  0
   10.0453   -2.1616   -3.7506 C   0  0  0  0  0  0  0  0  0  0  0  0
    9.3289   -3.3237   -4.1087 C   0  0  0  0  0  0  0  0  0  0  0  0
    7.3563   -6.4287   -6.7657 C   0  0  0  0  0  0  0  0  0  0  0  0
    7.7469   -6.2759   -8.0992 C   0  0  0  0  0  0  0  0  0  0  0  0
    7.2337   -7.1330   -9.0764 C   0  0  0  0  0  0  0  0  0  0  0  0
    6.3559   -8.1342   -8.6942 C   0  0  0  0  0  0  0  0  0  0  0  0
    5.9467   -8.3152   -7.4273 N   0  0  0  0  0  0  0  0  0  0  0  0
    6.4323   -7.4494   -6.5132 C   0  0  0  0  0  0  0  0  0  0  0  0
    4.7745   -7.2171   -2.6024 C   0  0  0  0  0  0  0  0  0  0  0  0
    1.4203  -11.6876   -0.1221 H   0  0  0  0  0  0  0  0  0  0  0  0
    1.4936   -9.9186    0.0179 H   0  0  0  0  0  0  0  0  0  0  0  0
    2.8821  -10.8943    0.4607 H   0  0  0  0  0  0  0  0  0  0  0  0
    2.7223  -12.8615   -2.0794 H   0  0  0  0  0  0  0  0  0  0  0  0
    4.2283  -12.1283   -1.5290 H   0  0  0  0  0  0  0  0  0  0  0  0
    3.6930  -11.8515   -3.1759 H   0  0  0  0  0  0  0  0  0  0  0  0
    0.6762  -11.4633   -2.5388 H   0  0  0  0  0  0  0  0  0  0  0  0
    1.6152  -10.4610   -3.6664 H   0  0  0  0  0  0  0  0  0  0  0  0
    0.7320   -9.6989   -2.3523 H   0  0  0  0  0  0  0  0  0  0  0  0
    7.2556   -8.2279   -1.5152 H   0  0  0  0  0  0  0  0  0  0  0  0
    6.4569   -8.1663    0.0768 H   0  0  0  0  0  0  0  0  0  0  0  0
    7.3668   -5.8407   -0.9121 H   0  0  0  0  0  0  0  0  0  0  0  0
    5.6995   -5.8905   -0.2963 H   0  0  0  0  0  0  0  0  0  0  0  0
    5.2702   -5.0968   -2.4849 H   0  0  0  0  0  0  0  0  0  0  0  0
    7.5029   -6.8496   -3.4757 H   0  0  0  0  0  0  0  0  0  0  0  0
    7.7881   -4.4908   -6.1740 H   0  0  0  0  0  0  0  0  0  0  0  0
   11.1086   -9.3136   -6.0695 H   0  0  0  0  0  0  0  0  0  0  0  0
    7.4344  -10.4485   -4.6675 H   0  0  0  0  0  0  0  0  0  0  0  0
   11.6860   -4.7405   -6.0879 H   0  0  0  0  0  0  0  0  0  0  0  0
   12.9051   -2.7848   -5.4693 H   0  0  0  0  0  0  0  0  0  0  0  0
   13.4953   -0.5861   -5.5449 H   0  0  0  0  0  0  0  0  0  0  0  0
   14.1722   -1.3883   -4.1127 H   0  0  0  0  0  0  0  0  0  0  0  0
   14.0443    0.3695   -4.1694 H   0  0  0  0  0  0  0  0  0  0  0  0
   11.1692    0.5536   -5.3914 H   0  0  0  0  0  0  0  0  0  0  0  0
   11.8782    1.5196   -4.0878 H   0  0  0  0  0  0  0  0  0  0  0  0
   10.3552    0.6715   -3.8257 H   0  0  0  0  0  0  0  0  0  0  0  0
   12.8878   -1.3977   -1.9111 H   0  0  0  0  0  0  0  0  0  0  0  0
   11.3535   -0.5304   -1.7577 H   0  0  0  0  0  0  0  0  0  0  0  0
   12.8479    0.3664   -2.0215 H   0  0  0  0  0  0  0  0  0  0  0  0
    9.5617   -1.4502   -3.0827 H   0  0  0  0  0  0  0  0  0  0  0  0
    8.3468   -3.4577   -3.6659 H   0  0  0  0  0  0  0  0  0  0  0  0
    8.4163   -5.4717   -8.3947 H   0  0  0  0  0  0  0  0  0  0  0  0
    7.4993   -7.0144  -10.1213 H   0  0  0  0  0  0  0  0  0  0  0  0
    5.9372   -8.8305   -9.4168 H   0  0  0  0  0  0  0  0  0  0  0  0
    6.0442   -7.6354   -5.5161 H   0  0  0  0  0  0  0  0  0  0  0  0
    4.7728   -7.6656   -3.6000 H   0  0  0  0  0  0  0  0  0  0  0  0
    3.7561   -6.9012   -2.3533 H   0  0  0  0  0  0  0  0  0  0  0  0
  1  2  1  0  0  0  0
  1 41  1  0  0  0  0
  1 42  1  0  0  0  0
  1 43  1  0  0  0  0
  2  3  1  0  0  0  0
  2  4  1  0  0  0  0
  2  5  1  0  0  0  0
  3 44  1  0  0  0  0
  3 45  1  0  0  0  0
  3 46  1  0  0  0  0
  4 47  1  0  0  0  0
  4 48  1  0  0  0  0
  4 49  1  0  0  0  0
  5  6  1  0  0  0  0
  6  7  2  0  0  0  0
  6  8  1  0  0  0  0
  8  9  1  0  0  0  0
  8 40  1  0  0  0  0
  9 10  1  0  0  0  0
  9 50  1  0  0  0  0
  9 51  1  0  0  0  0
 10 11  1  0  0  0  0
 10 52  1  0  0  0  0
 10 53  1  0  0  0  0
 11 12  1  0  0  0  0
 11 40  1  0  0  0  0
 11 54  1  0  0  0  0
 12 13  1  0  0  0  0
 12 55  1  0  0  0  0
 13 14  2  0  0  0  0
 13 15  1  0  0  0  0
 15 16  1  0  0  0  0
 15 34  1  0  0  0  0
 15 56  1  0  0  0  0
 16 17  1  0  0  0  0
 16 24  1  0  0  0  0
 17 18  2  0  0  0  0
 17 19  1  0  0  0  0
 19 20  2  0  0  0  0
 19 23  1  0  0  0  0
 20 21  1  0  0  0  0
 20 57  1  0  0  0  0
 21 22  1  0  0  0  0
 22 23  2  0  0  0  0
 22 58  1  0  0  0  0
 24 25  1  0  0  0  0
 24 33  2  0  0  0  0
 25 26  2  0  0  0  0
 25 59  1  0  0  0  0
 26 27  1  0  0  0  0
 26 60  1  0  0  0  0
 27 28  1  0  0  0  0
 27 32  2  0  0  0  0
 28 29  1  0  0  0  0
 28 30  1  0  0  0  0
 28 31  1  0  0  0  0
 29 61  1  0  0  0  0
 29 62  1  0  0  0  0
 29 63  1  0  0  0  0
 30 64  1  0  0  0  0
 30 65  1  0  0  0  0
 30 66  1  0  0  0  0
 31 67  1  0  0  0  0
 31 68  1  0  0  0  0
 31 69  1  0  0  0  0
 32 33  1  0  0  0  0
 32 70  1  0  0  0  0
 33 71  1  0  0  0  0
 34 35  1  0  0  0  0
 34 39  2  0  0  0  0
 35 36  2  0  0  0  0
 35 72  1  0  0  0  0
 36 37  1  0  0  0  0
 36 73  1  0  0  0  0
 37 38  2  0  0  0  0
 37 74  1  0  0  0  0
 38 39  1  0  0  0  0
 39 75  1  0  0  0  0
 40 76  1  0  0  0  0
 40 77  1  0  0  0  0
M  END
$$$$
