stable:False satoms:6 tatoms:24 sratio:0.25
  -OEChem-08062413233D

 43 45  0     1  0  0  0  0  0999 V2000
   -6.1844   -5.4920  -25.4382 C   0  0  0  0  0  0  0  0  0  0  0  0
   -7.9151   -4.8567  -25.3686 S   0  0  0  0  0  0  0  0  0  0  0  0
   -8.7518   -6.0186  -25.2911 O   0  0  0  0  0  0  0  0  0  0  0  0
   -8.1500   -4.0825  -26.5714 O   0  0  0  0  0  0  0  0  0  0  0  0
   -7.9524   -3.9704  -23.9989 N   0  0  0  0  0  0  0  0  0  0  0  0
   -8.7894   -3.2646  -23.6458 C   0  0  0  0  0  0  0  0  0  0  0  0
   -9.3451   -2.2361  -23.1968 C   0  0  0  0  0  0  0  0  0  0  0  0
  -10.3144   -1.3154  -23.2113 C   0  0  1  0  0  0  0  0  0  0  0  0
  -10.8864   -0.3961  -24.3567 C   0  0  0  0  0  0  0  0  0  0  0  0
  -11.9523   -0.0760  -24.5098 C   0  0  0  0  0  0  0  0  0  0  0  0
  -13.0256   -0.3988  -23.8399 C   0  0  0  0  0  0  0  0  0  0  0  0
  -12.7213   -1.3865  -22.8314 C   0  0  0  0  0  0  0  0  0  0  0  0
  -11.8390   -1.8343  -22.5392 C   0  0  0  0  0  0  0  0  0  0  0  0
   -9.6406   -0.8696  -22.3549 C   0  0  3  0  0  0  0  0  0  0  0  0
   -9.1590   -0.0168  -21.3230 C   0  0  0  0  0  0  0  0  0  0  0  0
   -9.7065    0.9990  -21.1211 O   0  0  0  0  0  0  0  0  0  0  0  0
   -8.1129   -0.5765  -20.7875 N   0  0  0  0  0  0  0  0  0  0  0  0
   -7.4594   -0.0216  -19.8893 C   0  0  0  0  0  0  0  0  0  0  0  0
   -7.5879    0.2214  -18.5977 C   0  0  0  0  0  0  0  0  0  0  0  0
   -7.2698    0.6403  -17.5422 N   0  0  0  0  0  0  0  0  0  0  0  0
   -6.1263    1.1497  -17.8904 C   0  0  0  0  0  0  0  0  0  0  0  0
   -5.6151    1.1334  -19.0273 C   0  0  0  0  0  0  0  0  0  0  0  0
   -6.0316    0.6164  -20.1845 C   0  0  0  0  0  0  0  0  0  0  0  0
   -5.5685    0.6045  -21.1227 C   0  0  0  0  0  0  0  0  0  0  0  0
   -6.0561   -6.1102  -26.3389 H   0  0  0  0  0  0  0  0  0  0  0  0
   -5.4840   -4.6444  -25.4726 H   0  0  0  0  0  0  0  0  0  0  0  0
   -5.9808   -6.0998  -24.5443 H   0  0  0  0  0  0  0  0  0  0  0  0
   -7.1352   -3.3958  -24.0438 H   0  0  0  0  0  0  0  0  0  0  0  0
   -9.6516   -3.8958  -23.8026 H   0  0  0  0  0  0  0  0  0  0  0  0
  -10.1703   -0.0315  -25.0783 H   0  0  0  0  0  0  0  0  0  0  0  0
  -12.1137    0.6008  -25.3358 H   0  0  0  0  0  0  0  0  0  0  0  0
  -14.0070    0.0163  -24.0161 H   0  0  0  0  0  0  0  0  0  0  0  0
  -13.5845   -1.7213  -22.2753 H   0  0  0  0  0  0  0  0  0  0  0  0
  -11.7642   -1.7012  -21.4499 H   0  0  0  0  0  0  0  0  0  0  0  0
  -11.9373   -2.9049  -22.7719 H   0  0  0  0  0  0  0  0  0  0  0  0
   -9.0772   -0.2881  -23.0995 H   0  0  0  0  0  0  0  0  0  0  0  0
   -7.8274   -1.4794  -21.1088 H   0  0  0  0  0  0  0  0  0  0  0  0
   -8.5468   -0.2258  -18.3807 H   0  0  0  0  0  0  0  0  0  0  0  0
   -5.5587    1.6390  -17.1127 H   0  0  0  0  0  0  0  0  0  0  0  0
   -4.6577    1.6297  -19.0864 H   0  0  0  0  0  0  0  0  0  0  0  0
   -4.9514   -0.3013  -21.2161 H   0  0  0  0  0  0  0  0  0  0  0  0
   -6.3362    0.6079  -21.9105 H   0  0  0  0  0  0  0  0  0  0  0  0
   -4.9310    1.4947  -21.2282 H   0  0  0  0  0  0  0  0  0  0  0  0
 20 21  2  0  0  0  0
 19 20  1  0  0  0  0
 21 22  1  0  0  0  0
 18 19  2  0  0  0  0
 22 23  2  0  0  0  0
 18 23  1  0  0  0  0
 17 18  1  0  0  0  0
 23 24  1  0  0  0  0
 15 16  2  0  0  0  0
 15 17  1  0  0  0  0
 14 15  1  0  0  0  0
  8 14  1  0  0  0  0
  7 14  1  0  0  0  0
 12 13  1  0  0  0  0
  8 13  1  0  0  0  0
 11 12  2  0  0  0  0
  7  8  1  0  0  0  0
  8  9  1  0  0  0  0
  6  7  2  3  0  0  0
 10 11  1  0  0  0  0
  5  6  1  0  0  0  0
  9 10  2  0  0  0  0
  2  5  1  0  0  0  0
  2  3  2  0  0  0  0
  1  2  1  0  0  0  0
  2  4  2  0  0  0  0
  1 25  1  0  0  0  0
  1 26  1  0  0  0  0
  1 27  1  0  0  0  0
  5 28  1  0  0  0  0
  6 29  1  0  0  0  0
  9 30  1  0  0  0  0
 10 31  1  0  0  0  0
 11 32  1  0  0  0  0
 12 33  1  0  0  0  0
 13 34  1  0  0  0  0
 13 35  1  0  0  0  0
 14 36  1  0  0  0  0
 17 37  1  0  0  0  0
 19 38  1  0  0  0  0
 21 39  1  0  0  0  0
 22 40  1  0  0  0  0
 24 41  1  0  0  0  0
 24 42  1  0  0  0  0
 24 43  1  0  0  0  0
M  END
> <Chemgauss4>
-12.988054

$$$$
