stable:False satoms:6 tatoms:24 sratio:0.25
  -OEChem-08062413233D

 43 45  0     1  0  0  0  0  0999 V2000
    6.1844   -5.4920   25.7715 C   0  0  0  0  0  0  0  0  0  0  0  0
    7.9151   -4.8567   25.7020 S   0  0  0  0  0  0  0  0  0  0  0  0
    8.7518   -6.0186   25.6244 O   0  0  0  0  0  0  0  0  0  0  0  0
    8.1500   -4.0825   26.9048 O   0  0  0  0  0  0  0  0  0  0  0  0
    7.9524   -3.9704   24.3323 N   0  0  0  0  0  0  0  0  0  0  0  0
    8.7894   -3.2646   23.9792 C   0  0  0  0  0  0  0  0  0  0  0  0
    9.3451   -2.2361   23.5301 C   0  0  0  0  0  0  0  0  0  0  0  0
   10.3144   -1.3154   23.5446 C   0  0  1  0  0  0  0  0  0  0  0  0
   10.8864   -0.3961   24.6900 C   0  0  0  0  0  0  0  0  0  0  0  0
   11.9523   -0.0760   24.8432 C   0  0  0  0  0  0  0  0  0  0  0  0
   13.0256   -0.3988   24.1733 C   0  0  0  0  0  0  0  0  0  0  0  0
   12.7213   -1.3865   23.1647 C   0  0  0  0  0  0  0  0  0  0  0  0
   11.8390   -1.8343   22.8725 C   0  0  0  0  0  0  0  0  0  0  0  0
    9.6406   -0.8696   22.6882 C   0  0  3  0  0  0  0  0  0  0  0  0
    9.1590   -0.0168   21.6563 C   0  0  0  0  0  0  0  0  0  0  0  0
    9.7065    0.9990   21.4544 O   0  0  0  0  0  0  0  0  0  0  0  0
    8.1129   -0.5765   21.1208 N   0  0  0  0  0  0  0  0  0  0  0  0
    7.4594   -0.0216   20.2226 C   0  0  0  0  0  0  0  0  0  0  0  0
    7.5879    0.2214   18.9310 C   0  0  0  0  0  0  0  0  0  0  0  0
    7.2698    0.6403   17.8755 N   0  0  0  0  0  0  0  0  0  0  0  0
    6.1263    1.1497   18.2237 C   0  0  0  0  0  0  0  0  0  0  0  0
    5.6151    1.1334   19.3606 C   0  0  0  0  0  0  0  0  0  0  0  0
    6.0316    0.6164   20.5178 C   0  0  0  0  0  0  0  0  0  0  0  0
    5.5685    0.6045   21.4561 C   0  0  0  0  0  0  0  0  0  0  0  0
    6.0561   -6.1102   26.6723 H   0  0  0  0  0  0  0  0  0  0  0  0
    5.4840   -4.6444   25.8059 H   0  0  0  0  0  0  0  0  0  0  0  0
    5.9808   -6.0998   24.8777 H   0  0  0  0  0  0  0  0  0  0  0  0
    7.1352   -3.3958   24.3771 H   0  0  0  0  0  0  0  0  0  0  0  0
    9.6516   -3.8958   24.1359 H   0  0  0  0  0  0  0  0  0  0  0  0
   10.1703   -0.0315   25.4116 H   0  0  0  0  0  0  0  0  0  0  0  0
   12.1137    0.6008   25.6692 H   0  0  0  0  0  0  0  0  0  0  0  0
   14.0070    0.0163   24.3494 H   0  0  0  0  0  0  0  0  0  0  0  0
   13.5845   -1.7213   22.6086 H   0  0  0  0  0  0  0  0  0  0  0  0
   11.7642   -1.7012   21.7832 H   0  0  0  0  0  0  0  0  0  0  0  0
   11.9373   -2.9049   23.1052 H   0  0  0  0  0  0  0  0  0  0  0  0
    9.0772   -0.2881   23.4328 H   0  0  0  0  0  0  0  0  0  0  0  0
    7.8274   -1.4794   21.4421 H   0  0  0  0  0  0  0  0  0  0  0  0
    8.5468   -0.2258   18.7141 H   0  0  0  0  0  0  0  0  0  0  0  0
    5.5587    1.6390   17.4460 H   0  0  0  0  0  0  0  0  0  0  0  0
    4.6577    1.6297   19.4197 H   0  0  0  0  0  0  0  0  0  0  0  0
    4.9514   -0.3013   21.5494 H   0  0  0  0  0  0  0  0  0  0  0  0
    6.3362    0.6079   22.2439 H   0  0  0  0  0  0  0  0  0  0  0  0
    4.9310    1.4947   21.5615 H   0  0  0  0  0  0  0  0  0  0  0  0
 20 21  2  0  0  0  0
 19 20  1  0  0  0  0
 21 22  1  0  0  0  0
 18 19  2  0  0  0  0
 22 23  2  0  0  0  0
 18 23  1  0  0  0  0
 17 18  1  0  0  0  0
 23 24  1  0  0  0  0
 15 16  2  0  0  0  0
 15 17  1  0  0  0  0
 14 15  1  0  0  0  0
  8 14  1  0  0  0  0
  7 14  1  0  0  0  0
 12 13  1  0  0  0  0
  8 13  1  0  0  0  0
 11 12  2  0  0  0  0
  7  8  1  0  0  0  0
  8  9  1  0  0  0  0
  6  7  2  3  0  0  0
 10 11  1  0  0  0  0
  5  6  1  0  0  0  0
  9 10  2  0  0  0  0
  2  5  1  0  0  0  0
  2  3  2  0  0  0  0
  1  2  1  0  0  0  0
  2  4  2  0  0  0  0
  1 25  1  0  0  0  0
  1 26  1  0  0  0  0
  1 27  1  0  0  0  0
  5 28  1  0  0  0  0
  6 29  1  0  0  0  0
  9 30  1  0  0  0  0
 10 31  1  0  0  0  0
 11 32  1  0  0  0  0
 12 33  1  0  0  0  0
 13 34  1  0  0  0  0
 13 35  1  0  0  0  0
 14 36  1  0  0  0  0
 17 37  1  0  0  0  0
 19 38  1  0  0  0  0
 21 39  1  0  0  0  0
 22 40  1  0  0  0  0
 24 41  1  0  0  0  0
 24 42  1  0  0  0  0
 24 43  1  0  0  0  0
M  END
> <Chemgauss4>
-13.182066

$$$$
