REMARK  5 active torsions:
REMARK  status: ('A' for Active; 'I' for Inactive)
REMARK    1  A    between atoms: C_2  and  N_5 
REMARK    2  A    between atoms: N_5  and  C_7 
REMARK    3  A    between atoms: C_7  and  C_8 
REMARK    4  A    between atoms: C_9  and  O_10 
REMARK    5  A    between atoms: C_12  and  C_13 
REMARK       I    between atoms: C_13  and  N_15 
ROOT
HETATM    1  C   UNL     1       9.242  -2.018  23.585  1.00  0.00     0.080 A 
HETATM    2  C   UNL     1      10.366  -0.947  23.560  1.00  0.00     0.106 A 
HETATM    3  C   UNL     1       9.509  -0.892  22.670  1.00  0.00     0.089 A 
ENDROOT
BRANCH   3   4
HETATM    4  C   UNL     1       9.016  -0.042  21.483  1.00  0.00     0.261 C 
HETATM    5  O   UNL     1       9.690   0.789  20.996  1.00  0.00    -0.267 OA
HETATM    6  N   UNL     1       7.811  -0.439  21.253  1.00  0.00    -0.317 N 
HETATM    7  C   UNL     1       6.789   0.096  20.587  1.00  0.00     0.076 A 
ATOM      8  HN  UNL     1       7.597  -1.347  21.665  1.00  0.00     0.169 HD
HETATM    9  C   UNL     1       6.856   0.177  19.257  1.00  0.00     0.038 A 
HETATM   10  S   UNL     1       5.262   0.601  21.269  1.00  0.00    -0.084 SA
HETATM   11  C   UNL     1       5.741   0.799  18.690  1.00  0.00     0.010 A 
HETATM   12  C   UNL     1       4.983   0.974  19.658  1.00  0.00     0.052 A 
ENDBRANCH   3   4
BRANCH   1  13
HETATM   13  C   UNL     1       8.770  -2.938  24.094  1.00  0.00    -0.024 C 
BRANCH  13  14
HETATM   14  N   UNL     1       8.099  -3.732  24.614  1.00  0.00    -0.263 N 
ATOM     15  HN  UNL     1       7.298  -4.049  24.068  1.00  0.00     0.178 HD
BRANCH  14  16
HETATM   16  C   UNL     1       8.232  -4.331  25.908  1.00  0.00     0.491 C 
HETATM   17  F   UNL     1       6.991  -4.872  26.315  1.00  0.00    -0.150 F 
HETATM   18  F   UNL     1       9.121  -5.341  25.946  1.00  0.00    -0.150 F 
HETATM   19  F   UNL     1       8.646  -3.477  26.873  1.00  0.00    -0.150 F 
ENDBRANCH  14  16
ENDBRANCH  13  14
ENDBRANCH   1  13
BRANCH   2  20
HETATM   20  O   UNL     1      11.072  -0.513  24.454  1.00  0.00    -0.353 OA
HETATM   21  C   UNL     1      12.264  -0.495  23.592  1.00  0.00     0.210 C 
ENDBRANCH   2  20
TORSDOF 5
