
 OpenBabel07202414173D

 66 71  0  0  1  0  0  0  0  0999 V2000
    0.9215   -0.1210   -0.0451 Cl  0  0  0  0  0  0  0  0  0  0  0  0
    2.6389   -0.1421    0.0574 C   0  0  0  0  0  0  0  0  0  0  0  0
    3.3476    1.0472   -0.0748 C   0  0  0  0  0  0  0  0  0  0  0  0
    4.7389    1.0288   -0.0107 C   0  0  0  0  0  0  0  0  0  0  0  0
    5.4315   -0.1776    0.1935 C   0  0  0  0  0  0  0  0  0  0  0  0
    4.7145   -1.3790    0.3394 C   0  0  0  0  0  0  0  0  0  0  0  0
    3.3104   -1.3480    0.2647 C   0  0  0  0  0  0  0  0  0  0  0  0
    5.4521   -2.6934    0.5978 C   0  0  3  0  0  0  0  0  0  0  0  0
    5.3196   -3.1459    2.0774 C   0  0  0  0  0  0  0  0  0  0  0  0
    4.3377   -2.8150    2.7421 O   0  0  0  0  0  0  0  0  0  0  0  0
    6.2845   -4.0283    2.5365 N   0  0  0  0  0  0  0  0  0  0  0  0
    6.3818   -4.6086    3.8356 C   0  0  0  0  0  0  0  0  0  0  0  0
    5.4536   -4.3686    4.8493 C   0  0  0  0  0  0  0  0  0  0  0  0
    5.6159   -4.7438    6.1397 N   0  0  0  0  0  0  0  0  0  0  0  0
    6.7225   -5.4560    6.4284 C   0  0  0  0  0  0  0  0  0  0  0  0
    7.6529   -5.8897    5.4857 C   0  0  0  0  0  0  0  0  0  0  0  0
    8.7071   -6.7545    5.8507 C   0  0  0  0  0  0  0  0  0  0  0  0
    9.6233   -7.1951    4.8988 C   0  0  0  0  0  0  0  0  0  0  0  0
   10.6519   -8.1372    5.2431 N   0  0  0  0  0  0  0  0  0  0  0  0
   10.2143   -9.7784    5.0390 S   0  0  0  0  0  0  0  0  0  0  0  0
    9.5609  -10.1688    6.2713 O   0  0  0  0  0  0  0  0  0  0  0  0
    9.5765   -9.9463    3.7529 O   0  0  0  0  0  0  0  0  0  0  0  0
   11.7321  -10.7808    4.9468 C   0  0  0  0  0  0  0  0  0  0  0  0
   12.6157  -10.6946    6.1646 C   0  0  0  0  0  0  0  0  0  0  0  0
   13.0347  -10.0299    4.8821 C   0  0  0  0  0  0  0  0  0  0  0  0
    9.4939   -6.7799    3.5806 C   0  0  0  0  0  0  0  0  0  0  0  0
    8.4565   -5.9135    3.2125 C   0  0  0  0  0  0  0  0  0  0  0  0
    7.4947   -5.4500    4.1484 C   0  0  0  0  0  0  0  0  0  0  0  0
    6.8797   -2.5894    0.0340 C   0  0  0  0  0  0  0  0  0  0  0  0
    7.6124   -1.4089    0.6025 N   0  0  0  0  0  0  0  0  0  0  0  0
    9.2954   -1.4424    0.2242 S   0  0  0  0  0  0  0  0  0  0  0  0
    9.8278   -2.6345    0.8454 O   0  0  0  0  0  0  0  0  0  0  0  0
    9.3805   -1.2467   -1.2081 O   0  0  0  0  0  0  0  0  0  0  0  0
    9.9216    0.0078    1.0933 C   0  0  0  0  0  0  0  0  0  0  0  0
   11.3812    0.1899    0.7443 C   0  0  0  0  0  0  0  0  0  0  0  0
   11.6813    0.4727   -0.6477 C   0  0  0  0  0  0  0  0  0  0  0  0
   11.9482    0.7591   -1.7410 N   0  0  0  0  0  0  0  0  0  0  0  0
   12.4686   -0.4328    1.6029 C   0  0  0  0  0  0  0  0  0  0  0  0
   12.1854    1.0324    1.7359 C   0  0  0  0  0  0  0  0  0  0  0  0
    6.9405   -0.1433    0.1804 C   0  0  0  0  0  0  0  0  0  0  0  0
    2.8264    1.9876   -0.2327 H   0  0  0  0  0  0  0  0  0  0  0  0
    5.2841    1.9638   -0.1286 H   0  0  0  0  0  0  0  0  0  0  0  0
    2.7362   -2.2642    0.3872 H   0  0  0  0  0  0  0  0  0  0  0  0
    4.9444   -3.4766    0.0163 H   0  0  0  0  0  0  0  0  0  0  0  0
    7.1002   -4.1666    1.9642 H   0  0  0  0  0  0  0  0  0  0  0  0
    4.5184   -3.8461    4.6796 H   0  0  0  0  0  0  0  0  0  0  0  0
    6.8370   -5.6851    7.4852 H   0  0  0  0  0  0  0  0  0  0  0  0
    8.7810   -7.1098    6.8762 H   0  0  0  0  0  0  0  0  0  0  0  0
   10.9519   -8.0294    6.2128 H   0  0  0  0  0  0  0  0  0  0  0  0
   11.6443  -11.7306    4.4391 H   0  0  0  0  0  0  0  0  0  0  0  0
   13.1395  -11.5965    6.4648 H   0  0  0  0  0  0  0  0  0  0  0  0
   12.3157  -10.0715    6.9982 H   0  0  0  0  0  0  0  0  0  0  0  0
   13.8476  -10.4825    4.3229 H   0  0  0  0  0  0  0  0  0  0  0  0
   13.0419   -8.9483    4.8403 H   0  0  0  0  0  0  0  0  0  0  0  0
   10.1874   -7.1370    2.8233 H   0  0  0  0  0  0  0  0  0  0  0  0
    8.4016   -5.6469    2.1608 H   0  0  0  0  0  0  0  0  0  0  0  0
    6.8313   -2.4797   -1.0584 H   0  0  0  0  0  0  0  0  0  0  0  0
    7.4428   -3.5079    0.2177 H   0  0  0  0  0  0  0  0  0  0  0  0
    9.7666   -0.1668    2.1632 H   0  0  0  0  0  0  0  0  0  0  0  0
    9.3658    0.8900    0.7720 H   0  0  0  0  0  0  0  0  0  0  0  0
   13.4070   -0.7174    1.1345 H   0  0  0  0  0  0  0  0  0  0  0  0
   12.1859   -1.0821    2.4237 H   0  0  0  0  0  0  0  0  0  0  0  0
   12.9235    1.7325    1.3516 H   0  0  0  0  0  0  0  0  0  0  0  0
   11.7065    1.3776    2.6467 H   0  0  0  0  0  0  0  0  0  0  0  0
    7.2515    0.1251   -0.8359 H   0  0  0  0  0  0  0  0  0  0  0  0
    7.2470    0.6466    0.8738 H   0  0  0  0  0  0  0  0  0  0  0  0
  1  2  1  0  0  0  0
  2  3  1  0  0  0  0
  2  7  2  0  0  0  0
  3  4  2  0  0  0  0
  3 41  1  0  0  0  0
  4  5  1  0  0  0  0
  4 42  1  0  0  0  0
  5  6  2  0  0  0  0
  5 40  1  0  0  0  0
  6  7  1  0  0  0  0
  6  8  1  0  0  0  0
  7 43  1  0  0  0  0
  8  9  1  0  0  0  0
  8 29  1  0  0  0  0
  8 44  1  0  0  0  0
  9 10  2  0  0  0  0
  9 11  1  0  0  0  0
 11 12  1  0  0  0  0
 11 45  1  0  0  0  0
 12 13  1  0  0  0  0
 12 28  2  0  0  0  0
 13 14  2  0  0  0  0
 13 46  1  0  0  0  0
 14 15  1  0  0  0  0
 15 16  2  0  0  0  0
 15 47  1  0  0  0  0
 16 17  1  0  0  0  0
 16 28  1  0  0  0  0
 17 18  2  0  0  0  0
 17 48  1  0  0  0  0
 18 19  1  0  0  0  0
 18 26  1  0  0  0  0
 19 20  1  0  0  0  0
 19 49  1  0  0  0  0
 20 21  2  0  0  0  0
 20 22  2  0  0  0  0
 20 23  1  0  0  0  0
 23 24  1  0  0  0  0
 23 25  1  0  0  0  0
 23 50  1  0  0  0  0
 24 25  1  0  0  0  0
 24 51  1  0  0  0  0
 24 52  1  0  0  0  0
 25 53  1  0  0  0  0
 25 54  1  0  0  0  0
 26 27  2  0  0  0  0
 26 55  1  0  0  0  0
 27 28  1  0  0  0  0
 27 56  1  0  0  0  0
 29 30  1  0  0  0  0
 29 57  1  0  0  0  0
 29 58  1  0  0  0  0
 30 31  1  0  0  0  0
 30 40  1  0  0  0  0
 31 32  2  0  0  0  0
 31 33  2  0  0  0  0
 31 34  1  0  0  0  0
 34 35  1  0  0  0  0
 34 59  1  0  0  0  0
 34 60  1  0  0  0  0
 35 36  1  0  0  0  0
 35 38  1  0  0  0  0
 35 39  1  0  0  0  0
 36 37  3  0  0  0  0
 38 39  1  0  0  0  0
 38 61  1  0  0  0  0
 38 62  1  0  0  0  0
 39 63  1  0  0  0  0
 39 64  1  0  0  0  0
 40 65  1  0  0  0  0
 40 66  1  0  0  0  0
M  END
$$$$
