stable:False satoms:16 tatoms:24 sratio:0.6666666666666666
  -OEChem-07092417373D

 24 24  0     1  0  0  0  0  0999 V2000
    7.1399   -4.4418   26.2497 H   0  0  0  0  0  0  0  0  0  0  0  0
    8.2087   -4.2063   25.9842 C   0  0  0  0  0  0  0  0  0  0  0  0
    8.7523   -5.1812   25.8935 H   0  0  0  0  0  0  0  0  0  0  0  0
    8.6585   -3.6269   26.8512 H   0  0  0  0  0  0  0  0  0  0  0  0
    8.2624   -3.5231   24.7223 N   0  0  0  0  0  0  0  0  0  0  0  0
    9.0749   -2.6845   24.2759 N   0  0  0  0  0  0  0  0  0  0  0  0
    9.1046   -2.0037   23.5449 H   0  0  0  0  0  0  0  0  0  0  0  0
   10.8618   -0.8759   22.9677 C   0  0  1  0  0  0  0  0  0  0  0  0
   10.9133   -1.1827   24.8264 H   0  0  0  0  0  0  0  0  0  0  0  0
   12.7849    0.1599   24.1447 H   0  0  0  0  0  0  0  0  0  0  0  0
   12.5386   -0.6214   23.4990 C   0  0  0  0  0  0  0  0  0  0  0  0
   13.1751   -0.9442   22.7463 H   0  0  0  0  0  0  0  0  0  0  0  0
   11.3364   -1.4003   23.9152 N   0  0  0  0  0  0  0  0  0  0  0  0
   10.3677   -0.3701   22.0600 N   0  0  0  0  0  0  0  0  0  0  0  0
    9.3316   -0.0991   21.8415 C   0  0  0  0  0  0  0  0  0  0  0  0
    8.3663    0.5307   21.4193 N   0  0  0  0  0  0  0  0  0  0  0  0
    7.4232    0.1858   20.6111 C   0  0  0  0  0  0  0  0  0  0  0  0
    6.8167    0.1175   18.6657 C   0  0  0  0  0  0  0  0  0  0  0  0
    7.6665   -0.3446   19.4245 N   0  0  0  0  0  0  0  0  0  0  0  0
    6.9548    0.0834   17.5749 H   0  0  0  0  0  0  0  0  0  0  0  0
    4.8640    1.0894   18.6992 H   0  0  0  0  0  0  0  0  0  0  0  0
    5.6632    0.6706   19.2950 C   0  0  0  0  0  0  0  0  0  0  0  0
    5.9492    0.5907   20.5917 C   0  0  0  0  0  0  0  0  0  0  0  0
    5.3693    0.7876   21.4928 H   0  0  0  0  0  0  0  0  0  0  0  0
 18 20  1  0  0  0  0
 18 22  2  0  0  0  0
 18 19  1  0  0  0  0
 21 22  1  0  0  0  0
 22 23  1  0  0  0  0
 17 19  1  0  0  0  0
 17 23  2  0  0  0  0
 23 24  1  0  0  0  0
 16 17  1  0  0  0  0
 15 16  1  0  0  0  0
 14 15  2  3  0  0  0
  8 14  1  0  0  0  0
 11 12  1  0  0  0  0
  8 11  1  0  0  0  0
  8 13  1  0  0  0  0
 11 13  1  0  0  0  0
 10 11  1  0  0  0  0
  6  7  1  0  0  0  0
  9 13  1  0  0  0  0
  5  6  2  0  0  0  0
  2  5  1  0  0  0  0
  2  3  1  0  0  0  0
  1  2  1  0  0  0  0
  2  4  1  0  0  0  0
M  END
> <Shapegauss>
-174.511002

$$$$
