stable:False satoms:18 tatoms:24 sratio:0.75
  -OEChem-07092417283D

 24 25  0     1  0  0  0  0  0999 V2000
    7.5624   -1.3353   24.8184 C   0  0  0  0  0  0  0  0  0  0  0  0
    6.4837   -1.7838   25.4235 C   0  0  0  0  0  0  0  0  0  0  0  0
   10.4715    0.1723   18.2998 H   0  0  0  0  0  0  0  0  0  0  0  0
   10.7906   -1.5382   19.5110 H   0  0  0  0  0  0  0  0  0  0  0  0
    8.7349   -1.5965   25.8788 C   0  0  3  0  0  0  0  0  0  0  0  0
    6.6419   -0.1316   23.3227 H   0  0  0  0  0  0  0  0  0  0  0  0
    9.8520   -1.7702   26.1912 N   0  0  0  0  0  0  0  0  0  0  0  0
    9.8218   -2.4212   23.7840 O   0  0  0  0  0  0  0  0  0  0  0  0
    9.0621   -0.4658   20.2849 C   0  0  0  0  0  0  0  0  0  0  0  0
   10.7383   -2.5954   23.9870 H   0  0  0  0  0  0  0  0  0  0  0  0
    6.3942   -2.8133   25.7133 H   0  0  0  0  0  0  0  0  0  0  0  0
    9.6171    0.6910   18.2925 N   0  5  0  0  0  0  0  0  0  0  0  0
   10.1323   -1.3802   20.3471 C   0  0  0  0  0  0  0  0  0  0  0  0
    7.4862   -0.7918   23.5491 C   0  5  3  0  0  0  0  0  0  0  0  0
    8.2037    1.2609   19.5594 H   0  0  0  0  0  0  0  0  0  0  0  0
    9.5242   -1.8721   22.6059 C   0  0  0  0  0  0  0  0  0  0  0  0
    8.0529   -0.5276   21.2193 C   0  0  0  0  0  0  0  0  0  0  0  0
    8.3487   -1.0679   22.4687 C   0  0  0  0  0  0  0  0  0  0  0  0
    8.9747    0.6126   19.4015 N   0  0  0  0  0  0  0  0  0  0  0  0
   10.3251   -2.0982   21.4986 C   0  0  0  0  0  0  0  0  0  0  0  0
   11.0912   -2.8512   21.5532 H   0  0  0  0  0  0  0  0  0  0  0  0
    7.0698   -0.1393   20.9945 H   0  0  0  0  0  0  0  0  0  0  0  0
    5.6569   -1.1133   25.6027 H   0  0  0  0  0  0  0  0  0  0  0  0
    8.5477   -1.7340   26.9897 O   0  0  0  0  0  0  0  0  0  0  0  0
  3 12  1  0  0  0  0
 12 19  1  0  0  0  0
 15 19  1  0  0  0  0
  9 19  1  0  0  0  0
  4 13  1  0  0  0  0
  9 13  2  0  0  0  0
  9 17  1  0  0  0  0
 13 20  1  0  0  0  0
 17 22  1  0  0  0  0
 17 18  2  0  0  0  0
 20 21  1  0  0  0  0
 16 20  2  0  0  0  0
 16 18  1  0  0  0  0
 14 18  1  0  0  0  0
  8 16  1  0  0  0  0
  6 14  1  0  0  0  0
  1 14  1  0  0  0  0
  8 10  1  0  0  0  0
  1  2  2  0  0  0  0
  1  5  1  0  0  0  0
  2 23  1  0  0  0  0
  2 11  1  0  0  0  0
  5  7  1  0  0  0  0
  5 24  1  0  0  0  0
  7 24  1  0  0  0  0
M  CHG  2  12  -1  14  -1
M  END
> <Shapegauss>
-97.613350

$$$$
