REMARK  0 active torsions:
REMARK  status: ('A' for Active; 'I' for Inactive)
ROOT
HETATM    1  C   UNL     1       7.744  -4.714  23.864  1.00  0.00     0.027 A 
HETATM    2  C   UNL     1       9.208   1.758  20.890  1.00  0.00     0.018 C 
HETATM    3  H   UNL     1       6.420   0.890  22.156  1.00  0.00     0.159 HD
HETATM    4  C   UNL     1       8.818  -1.417  22.824  1.00  0.00    -0.005 C 
HETATM    5  C   UNL     1      10.357   1.505  21.619  1.00  0.00     0.020 C 
HETATM    6  C   UNL     1       7.526  -0.638  22.803  1.00  0.00     0.160 C 
HETATM    7  C   UNL     1      10.123  -0.949  22.557  1.00  0.00     0.030 C 
HETATM    8  C   UNL     1       7.398  -3.390  23.632  1.00  0.00     0.040 A 
HETATM    9  C   UNL     1       7.974   1.122  20.953  1.00  0.00     0.083 C 
HETATM   10 BR   UNL     1      12.584   0.369  22.953  1.00  0.00    -0.051 Br
HETATM   11  C   UNL     1       9.101  -4.778  23.715  1.00  0.00     0.142 A 
HETATM   12  N   UNL     1       7.402   0.607  22.022  1.00  0.00    -0.394 N 
HETATM   13  C   UNL     1       8.585  -2.739  23.227  1.00  0.00     0.083 A 
HETATM   14  C   UNL     1      10.733   0.320  22.288  1.00  0.00     0.011 C 
HETATM   15  O   UNL     1       9.622  -3.630  23.323  1.00  0.00    -0.322 OA
ENDROOT
TORSDOF 0
