MODEL 1
REMARK VINA RESULT:    -5.216      0.000      0.000
REMARK INTER + INTRA:          -5.216
REMARK INTER:                  -5.216
REMARK INTRA:                   0.000
REMARK UNBOUND:                 0.000
REMARK  0 active torsions:
REMARK  status: ('A' for Active; 'I' for Inactive)
ROOT
HETATM    1  C   UNL     1       5.981   0.848  19.183  1.00  0.00     0.027 A 
HETATM    2  C   UNL     1      11.200   2.492  23.972  1.00  0.00     0.018 C 
HETATM    3  H   UNL     1       8.187   3.508  24.096  1.00  0.00     0.159 HD
HETATM    4  C   UNL     1       8.557   1.121  21.712  1.00  0.00    -0.005 C 
HETATM    5  C   UNL     1      11.420   1.143  23.752  1.00  0.00     0.020 C 
HETATM    6  C   UNL     1       7.974   2.127  22.673  1.00  0.00     0.160 C 
HETATM    7  C   UNL     1       9.780   0.424  21.815  1.00  0.00     0.030 C 
HETATM    8  C   UNL     1       6.369   1.380  20.405  1.00  0.00     0.040 A 
HETATM    9  C   UNL     1      10.095   3.265  23.635  1.00  0.00     0.083 C 
HETATM   10 BR   UNL     1      11.666  -1.477  22.701  1.00  0.00    -0.051 Br
HETATM   11  C   UNL     1       6.973  -0.019  18.820  1.00  0.00     0.142 A 
HETATM   12  N   UNL     1       8.837   2.877  23.605  1.00  0.00    -0.394 N 
HETATM   13  C   UNL     1       7.667   0.881  20.656  1.00  0.00     0.083 A 
HETATM   14  C   UNL     1      10.821   0.297  22.793  1.00  0.00     0.011 C 
HETATM   15  O   UNL     1       7.989  -0.007  19.663  1.00  0.00    -0.322 OA
ENDROOT
TORSDOF 0
ENDMDL
MODEL 2
REMARK VINA RESULT:    -5.131     13.951     15.841
REMARK INTER + INTRA:          -5.131
REMARK INTER:                  -5.131
REMARK INTRA:                   0.000
REMARK UNBOUND:                 0.000
REMARK  0 active torsions:
REMARK  status: ('A' for Active; 'I' for Inactive)
ROOT
HETATM    1  C   UNL     1      24.508  -6.788  26.278  1.00  0.00     0.027 A 
HETATM    2  C   UNL     1      21.638  -0.174  25.331  1.00  0.00     0.018 C 
HETATM    3  H   UNL     1      23.167  -1.173  27.938  1.00  0.00     0.159 HD
HETATM    4  C   UNL     1      23.482  -3.424  25.417  1.00  0.00    -0.005 C 
HETATM    5  C   UNL     1      22.227  -0.415  24.103  1.00  0.00     0.020 C 
HETATM    6  C   UNL     1      23.631  -2.687  26.725  1.00  0.00     0.160 C 
HETATM    7  C   UNL     1      23.092  -2.906  24.163  1.00  0.00     0.030 C 
HETATM    8  C   UNL     1      24.365  -5.468  26.684  1.00  0.00     0.040 A 
HETATM    9  C   UNL     1      21.811  -0.851  26.533  1.00  0.00     0.083 C 
HETATM   10 BR   UNL     1      23.267  -1.525  21.711  1.00  0.00    -0.051 Br
HETATM   11  C   UNL     1      24.209  -6.803  24.945  1.00  0.00     0.142 A 
HETATM   12  N   UNL     1      22.916  -1.420  26.969  1.00  0.00    -0.394 N 
HETATM   13  C   UNL     1      23.858  -4.766  25.568  1.00  0.00     0.083 A 
HETATM   14  C   UNL     1      22.806  -1.610  23.622  1.00  0.00     0.011 C 
HETATM   15  O   UNL     1      23.807  -5.627  24.502  1.00  0.00    -0.322 OA
ENDROOT
TORSDOF 0
ENDMDL
MODEL 3
REMARK VINA RESULT:    -5.125      2.283      2.912
REMARK INTER + INTRA:          -5.125
REMARK INTER:                  -5.125
REMARK INTRA:                   0.000
REMARK UNBOUND:                 0.000
REMARK  0 active torsions:
REMARK  status: ('A' for Active; 'I' for Inactive)
ROOT
HETATM    1  C   UNL     1       5.579   1.052  19.905  1.00  0.00     0.027 A 
HETATM    2  C   UNL     1      11.518  -0.367  23.853  1.00  0.00     0.018 C 
HETATM    3  H   UNL     1      10.612  -1.942  21.239  1.00  0.00     0.159 HD
HETATM    4  C   UNL     1       8.724   0.844  21.684  1.00  0.00    -0.005 C 
HETATM    5  C   UNL     1      11.521   1.016  23.807  1.00  0.00     0.020 C 
HETATM    6  C   UNL     1       9.349  -0.403  21.109  1.00  0.00     0.160 C 
HETATM    7  C   UNL     1       9.268   1.732  22.638  1.00  0.00     0.030 C 
HETATM    8  C   UNL     1       6.796   0.402  20.057  1.00  0.00     0.040 A 
HETATM    9  C   UNL     1      10.780  -1.266  23.092  1.00  0.00     0.083 C 
HETATM   10 BR   UNL     1      10.883   3.775  23.718  1.00  0.00    -0.051 Br
HETATM   11  C   UNL     1       5.629   2.140  20.730  1.00  0.00     0.142 A 
HETATM   12  N   UNL     1      10.412  -1.124  21.835  1.00  0.00    -0.394 N 
HETATM   13  C   UNL     1       7.481   1.088  21.085  1.00  0.00     0.083 A 
HETATM   14  C   UNL     1      10.523   1.884  23.313  1.00  0.00     0.011 C 
HETATM   15  O   UNL     1       6.734   2.177  21.452  1.00  0.00    -0.322 OA
ENDROOT
TORSDOF 0
ENDMDL
MODEL 4
REMARK VINA RESULT:    -4.989     17.133     18.313
REMARK INTER + INTRA:          -4.989
REMARK INTER:                  -4.989
REMARK INTRA:                   0.000
REMARK UNBOUND:                 0.000
REMARK  0 active torsions:
REMARK  status: ('A' for Active; 'I' for Inactive)
ROOT
HETATM    1  C   UNL     1      22.954  -1.449  17.119  1.00  0.00     0.027 A 
HETATM    2  C   UNL     1      25.739   1.254  10.969  1.00  0.00     0.018 C 
HETATM    3  H   UNL     1      25.143   2.914  13.619  1.00  0.00     0.159 HD
HETATM    4  C   UNL     1      24.795  -0.416  14.178  1.00  0.00    -0.005 C 
HETATM    5  C   UNL     1      26.418   0.055  11.095  1.00  0.00     0.020 C 
HETATM    6  C   UNL     1      24.901   1.078  14.360  1.00  0.00     0.160 C 
HETATM    7  C   UNL     1      25.335  -1.208  13.141  1.00  0.00     0.030 C 
HETATM    8  C   UNL     1      23.577  -0.417  16.431  1.00  0.00     0.040 A 
HETATM    9  C   UNL     1      24.971   1.928  11.912  1.00  0.00     0.083 C 
HETATM   10 BR   UNL     1      27.250  -2.604  11.614  1.00  0.00    -0.051 Br
HETATM   11  C   UNL     1      23.233  -2.588  16.416  1.00  0.00     0.142 A 
HETATM   12  N   UNL     1      25.169   1.966  13.213  1.00  0.00    -0.394 N 
HETATM   13  C   UNL     1      24.109  -0.992  15.255  1.00  0.00     0.083 A 
HETATM   14  C   UNL     1      26.193  -0.993  12.013  1.00  0.00     0.011 C 
HETATM   15  O   UNL     1      23.900  -2.346  15.303  1.00  0.00    -0.322 OA
ENDROOT
TORSDOF 0
ENDMDL
MODEL 5
REMARK VINA RESULT:    -4.933      8.169      9.094
REMARK INTER + INTRA:          -4.933
REMARK INTER:                  -4.933
REMARK INTRA:                   0.000
REMARK UNBOUND:                 0.000
REMARK  0 active torsions:
REMARK  status: ('A' for Active; 'I' for Inactive)
ROOT
HETATM    1  C   UNL     1       5.370  -7.056  28.861  1.00  0.00     0.027 A 
HETATM    2  C   UNL     1       7.121  -5.038  22.098  1.00  0.00     0.018 C 
HETATM    3  H   UNL     1       4.326  -6.265  23.000  1.00  0.00     0.159 HD
HETATM    4  C   UNL     1       6.245  -5.525  25.700  1.00  0.00    -0.005 C 
HETATM    5  C   UNL     1       7.651  -4.009  22.857  1.00  0.00     0.020 C 
HETATM    6  C   UNL     1       5.095  -5.925  24.808  1.00  0.00     0.160 C 
HETATM    7  C   UNL     1       7.352  -4.709  25.382  1.00  0.00     0.030 C 
HETATM    8  C   UNL     1       4.997  -6.777  27.554  1.00  0.00     0.040 A 
HETATM    9  C   UNL     1       6.219  -6.026  22.473  1.00  0.00     0.083 C 
HETATM   10 BR   UNL     1       8.838  -2.374  24.844  1.00  0.00    -0.051 Br
HETATM   11  C   UNL     1       6.544  -6.387  29.067  1.00  0.00     0.142 A 
HETATM   12  N   UNL     1       5.232  -5.911  23.339  1.00  0.00    -0.394 N 
HETATM   13  C   UNL     1       6.059  -6.032  26.993  1.00  0.00     0.083 A 
HETATM   14  C   UNL     1       7.768  -3.919  24.261  1.00  0.00     0.011 C 
HETATM   15  O   UNL     1       6.982  -5.787  27.976  1.00  0.00    -0.322 OA
ENDROOT
TORSDOF 0
ENDMDL
MODEL 6
REMARK VINA RESULT:    -4.902      5.077      6.354
REMARK INTER + INTRA:          -4.902
REMARK INTER:                  -4.902
REMARK INTRA:                   0.000
REMARK UNBOUND:                 0.000
REMARK  0 active torsions:
REMARK  status: ('A' for Active; 'I' for Inactive)
ROOT
HETATM    1  C   UNL     1      11.213  -0.033  23.322  1.00  0.00     0.027 A 
HETATM    2  C   UNL     1       7.160  -5.463  25.960  1.00  0.00     0.018 C 
HETATM    3  H   UNL     1       8.072  -2.878  27.577  1.00  0.00     0.159 HD
HETATM    4  C   UNL     1       8.798  -2.554  24.278  1.00  0.00    -0.005 C 
HETATM    5  C   UNL     1       6.619  -5.281  24.700  1.00  0.00     0.020 C 
HETATM    6  C   UNL     1       8.599  -2.283  25.749  1.00  0.00     0.160 C 
HETATM    7  C   UNL     1       8.153  -3.520  23.474  1.00  0.00     0.030 C 
HETATM    8  C   UNL     1      10.392  -0.550  24.314  1.00  0.00     0.040 A 
HETATM    9  C   UNL     1       8.022  -4.636  26.671  1.00  0.00     0.083 C 
HETATM   10 BR   UNL     1       6.124  -4.759  21.959  1.00  0.00    -0.051 Br
HETATM   11  C   UNL     1      10.913  -0.732  22.186  1.00  0.00     0.142 A 
HETATM   12  N   UNL     1       8.056  -3.319  26.646  1.00  0.00    -0.394 N 
HETATM   13  C   UNL     1       9.711  -1.642  23.732  1.00  0.00     0.083 A 
HETATM   14  C   UNL     1       7.093  -4.469  23.646  1.00  0.00     0.011 C 
HETATM   15  O   UNL     1      10.041  -1.699  22.403  1.00  0.00    -0.322 OA
ENDROOT
TORSDOF 0
ENDMDL
MODEL 7
REMARK VINA RESULT:    -4.893     13.996     16.213
REMARK INTER + INTRA:          -4.893
REMARK INTER:                  -4.893
REMARK INTRA:                   0.000
REMARK UNBOUND:                 0.000
REMARK  0 active torsions:
REMARK  status: ('A' for Active; 'I' for Inactive)
ROOT
HETATM    1  C   UNL     1      20.993  -0.824  24.543  1.00  0.00     0.027 A 
HETATM    2  C   UNL     1      24.912  -6.677  26.349  1.00  0.00     0.018 C 
HETATM    3  H   UNL     1      23.908  -5.954  23.417  1.00  0.00     0.159 HD
HETATM    4  C   UNL     1      23.360  -3.371  25.550  1.00  0.00    -0.005 C 
HETATM    5  C   UNL     1      25.520  -5.678  27.090  1.00  0.00     0.020 C 
HETATM    6  C   UNL     1      23.479  -4.224  24.310  1.00  0.00     0.160 C 
HETATM    7  C   UNL     1      24.050  -3.511  26.774  1.00  0.00     0.030 C 
HETATM    8  C   UNL     1      21.761  -1.920  24.173  1.00  0.00     0.040 A 
HETATM    9  C   UNL     1      24.011  -6.561  25.297  1.00  0.00     0.083 C 
HETATM   10 BR   UNL     1      26.162  -3.394  28.638  1.00  0.00    -0.051 Br
HETATM   11  C   UNL     1      21.357  -0.529  25.827  1.00  0.00     0.142 A 
HETATM   12  N   UNL     1      23.975  -5.610  24.386  1.00  0.00    -0.394 N 
HETATM   13  C   UNL     1      22.475  -2.307  25.329  1.00  0.00     0.083 A 
HETATM   14  C   UNL     1      25.102  -4.344  27.280  1.00  0.00     0.011 C 
HETATM   15  O   UNL     1      22.218  -1.398  26.322  1.00  0.00    -0.322 OA
ENDROOT
TORSDOF 0
ENDMDL
MODEL 8
REMARK VINA RESULT:    -4.874      4.280      5.244
REMARK INTER + INTRA:          -4.874
REMARK INTER:                  -4.874
REMARK INTRA:                   0.000
REMARK UNBOUND:                 0.000
REMARK  0 active torsions:
REMARK  status: ('A' for Active; 'I' for Inactive)
ROOT
HETATM    1  C   UNL     1       6.751  -5.560  22.789  1.00  0.00     0.027 A 
HETATM    2  C   UNL     1       6.635   1.676  22.080  1.00  0.00     0.018 C 
HETATM    3  H   UNL     1       8.575   0.034  23.996  1.00  0.00     0.159 HD
HETATM    4  C   UNL     1       6.888  -2.050  21.914  1.00  0.00    -0.005 C 
HETATM    5  C   UNL     1       6.509   1.252  20.768  1.00  0.00     0.020 C 
HETATM    6  C   UNL     1       7.848  -1.490  22.935  1.00  0.00     0.160 C 
HETATM    7  C   UNL     1       6.252  -1.372  20.851  1.00  0.00     0.030 C 
HETATM    8  C   UNL     1       7.327  -4.318  23.020  1.00  0.00     0.040 A 
HETATM    9  C   UNL     1       7.009   0.948  23.203  1.00  0.00     0.083 C 
HETATM   10 BR   UNL     1       5.922  -0.108  18.353  1.00  0.00    -0.051 Br
HETATM   11  C   UNL     1       5.945  -5.401  21.697  1.00  0.00     0.142 A 
HETATM   12  N   UNL     1       7.868  -0.050  23.250  1.00  0.00    -0.394 N 
HETATM   13  C   UNL     1       6.726  -3.429  22.101  1.00  0.00     0.083 A 
HETATM   14  C   UNL     1       6.308  -0.058  20.281  1.00  0.00     0.011 C 
HETATM   15  O   UNL     1       5.898  -4.150  21.280  1.00  0.00    -0.322 OA
ENDROOT
TORSDOF 0
ENDMDL
MODEL 9
REMARK VINA RESULT:    -4.603     23.699     25.848
REMARK INTER + INTRA:          -4.603
REMARK INTER:                  -4.603
REMARK INTRA:                   0.000
REMARK UNBOUND:                 0.000
REMARK  0 active torsions:
REMARK  status: ('A' for Active; 'I' for Inactive)
ROOT
HETATM    1  C   UNL     1       2.346 -22.518   9.435  1.00  0.00     0.027 A 
HETATM    2  C   UNL     1      -0.683 -15.907   9.420  1.00  0.00     0.018 C 
HETATM    3  H   UNL     1       2.231 -16.611   8.351  1.00  0.00     0.159 HD
HETATM    4  C   UNL     1       0.484 -19.438   9.041  1.00  0.00    -0.005 C 
HETATM    5  C   UNL     1      -1.734 -16.711   9.013  1.00  0.00     0.020 C 
HETATM    6  C   UNL     1       1.540 -18.469   8.570  1.00  0.00     0.160 C 
HETATM    7  C   UNL     1      -0.896 -19.203   9.225  1.00  0.00     0.030 C 
HETATM    8  C   UNL     1       2.350 -21.193   9.022  1.00  0.00     0.040 A 
HETATM    9  C   UNL     1       0.671 -16.211   9.500  1.00  0.00     0.083 C 
HETATM   10 BR   UNL     1      -3.609 -18.790   8.578  1.00  0.00    -0.051 Br
HETATM   11  C   UNL     1       1.048 -22.807   9.752  1.00  0.00     0.142 A 
HETATM   12  N   UNL     1       1.351 -17.013   8.707  1.00  0.00    -0.394 N 
HETATM   13  C   UNL     1       1.039 -20.710   9.234  1.00  0.00     0.083 A 
HETATM   14  C   UNL     1      -1.803 -18.120   8.979  1.00  0.00     0.011 C 
HETATM   15  O   UNL     1       0.258 -21.753   9.658  1.00  0.00    -0.322 OA
ENDROOT
TORSDOF 0
ENDMDL
