stable:False satoms:14 tatoms:24 sratio:0.5833333333333334
  -OEChem-07092417323D

 24 23  0     1  0  0  0  0  0999 V2000
    6.4245   -0.5962   24.5395 C   0  0  0  0  0  0  0  0  0  0  0  0
    7.7211   -2.4135   26.7008 H   0  0  0  0  0  0  0  0  0  0  0  0
    8.9427   -3.8173   22.9119 H   0  0  0  0  0  0  0  0  0  0  0  0
    8.9444   -2.0079   25.0868 N   0  3  0  0  0  0  0  0  0  0  0  0
    8.7069   -3.4543   22.0811 O   0  0  0  0  0  0  0  0  0  0  0  0
    8.9632   -2.3123   21.5625 C   0  0  0  0  0  0  0  0  0  0  0  0
    6.7791   -1.2856   25.3516 N   0  0  0  0  0  0  0  0  0  0  0  0
    9.3701   -2.8324   24.7052 H   0  0  0  0  0  0  0  0  0  0  0  0
    9.0554   -1.5892   22.4313 C   0  0  0  0  0  0  0  0  0  0  0  0
   11.2084    0.2996   22.8635 H   0  0  0  0  0  0  0  0  0  0  0  0
    9.2521   -1.1884   24.5809 H   0  0  0  0  0  0  0  0  0  0  0  0
   10.4596    0.0782   22.1473 C   0  0  0  0  0  0  0  0  0  0  0  0
    7.8582   -1.9510   25.7488 C   0  0  0  0  0  0  0  0  0  0  0  0
   10.6499    0.1821   20.7920 C   0  0  0  0  0  0  0  0  0  0  0  0
    9.1951   -0.3278   22.4847 C   0  0  0  0  0  0  0  0  0  0  0  0
    8.9718   -1.5778   20.1355 C   0  0  2  0  0  0  0  0  0  0  0  0
   10.0485   -0.3027   18.8484 H   0  0  0  0  0  0  0  0  0  0  0  0
    8.2863    0.1963   22.4901 H   0  0  0  0  0  0  0  0  0  0  0  0
   11.3726    0.8591   20.4182 H   0  0  0  0  0  0  0  0  0  0  0  0
    9.9190   -0.5276   19.8711 C   0  0  0  0  0  0  0  0  0  0  0  0
    7.3021   -1.0731   19.8905 Cl  0  0  0  0  0  0  0  0  0  0  0  0
    5.2210    0.7041   22.8505 N   0  0  0  0  0  0  0  0  0  0  0  0
    9.0852   -2.5177   19.1738 F   0  0  0  0  0  0  0  0  0  0  0  0
    5.8469    0.1653   23.6309 C   0  0  0  0  0  0  0  0  0  0  0  0
 17 20  1  0  0  0  0
 16 23  1  0  0  0  0
 16 20  1  0  0  0  0
 14 20  2  0  0  0  0
 16 21  1  0  0  0  0
  6 16  1  0  0  0  0
 14 19  1  0  0  0  0
 12 14  1  0  0  0  0
  5  6  1  0  0  0  0
  6  9  2  0  0  0  0
  3  5  1  0  0  0  0
 12 15  2  0  0  0  0
 10 12  1  0  0  0  0
  9 15  1  0  0  0  0
 15 18  1  0  0  0  0
 22 24  3  0  0  0  0
  1 24  1  0  0  0  0
  1  7  1  0  0  0  0
  4 11  1  0  0  0  0
  4  8  1  0  0  0  0
  4 13  2  0  0  0  0
  7 13  1  0  0  0  0
  2 13  1  0  0  0  0
M  CHG  1   4   1
M  END
> <Shapegauss>
-99.876190

$$$$
