MODEL 1
REMARK VINA RESULT:    -6.495      0.000      0.000
REMARK INTER + INTRA:         -10.962
REMARK INTER:                  -9.533
REMARK INTRA:                  -1.429
REMARK UNBOUND:                -1.429
REMARK  8 active torsions:
REMARK  status: ('A' for Active; 'I' for Inactive)
REMARK    1  A    between atoms: S_2  and  N_5 
REMARK    2  A    between atoms: N_5  and  C_7 
REMARK    3  A    between atoms: C_9  and  C_10 
REMARK    4  A    between atoms: C_10  and  C_11 
REMARK    5  A    between atoms: C_11  and  C_12 
REMARK    6  A    between atoms: C_12  and  C_13 
REMARK    7  A    between atoms: C_15  and  C_16 
REMARK       I    between atoms: C_16  and  N_18 
REMARK    8  A    between atoms: N_18  and  C_20 
ROOT
HETATM    1  C   UNL     1      23.994  -4.243  24.391  1.00  0.00     0.108 C 
HETATM    2  C   UNL     1      23.994  -3.175  23.664  1.00  0.00    -0.017 A 
HETATM    3  C   UNL     1      24.248  -1.964  23.572  1.00  0.00     0.082 A 
HETATM    4  C   UNL     1      23.850  -1.887  22.433  1.00  0.00     0.031 A 
ENDROOT
BRANCH   4   5
HETATM    5  C   UNL     1      23.334  -1.779  21.204  1.00  0.00     0.253 C 
HETATM    6  O   UNL     1      22.215  -1.884  21.127  1.00  0.00    -0.268 OA
HETATM    7  N   UNL     1      24.245  -1.574  20.287  1.00  0.00    -0.321 N 
ATOM      8  HN  UNL     1      25.229  -1.518  20.547  1.00  0.00     0.169 HD
BRANCH   7   9
HETATM    9  C   UNL     1      23.906  -1.449  19.095  1.00  0.00     0.056 A 
HETATM   10  C   UNL     1      23.478  -0.479  18.337  1.00  0.00     0.117 A 
HETATM   11  N   UNL     1      23.123  -0.071  17.252  1.00  0.00    -0.373 N 
HETATM   12  C   UNL     1      23.189  -1.193  16.514  1.00  0.00     0.088 A 
ATOM     13  HN  UNL     1      22.847   0.871  16.973  1.00  0.00     0.164 HD
HETATM   14  C   UNL     1      23.578  -2.285  16.916  1.00  0.00     0.026 A 
HETATM   15  C   UNL     1      24.018  -2.687  18.105  1.00  0.00    -0.033 A 
HETATM   16  C   UNL     1      24.524  -4.076  18.603  1.00  0.00     0.050 C 
ENDBRANCH   7   9
ENDBRANCH   4   5
BRANCH   3  17
HETATM   17  C   UNL     1      23.908  -0.634  24.509  1.00  0.00    -0.016 C 
BRANCH  17  18
HETATM   18  C   UNL     1      23.076  -0.451  25.067  1.00  0.00    -0.026 C 
BRANCH  18  19
HETATM   19  C   UNL     1      21.851   0.234  24.770  1.00  0.00     0.053 C 
BRANCH  19  20
HETATM   20  C   UNL     1      20.814  -0.788  24.439  1.00  0.00    -0.033 C 
HETATM   21  C   UNL     1      20.560  -1.652  24.812  1.00  0.00     0.007 C 
ENDBRANCH  19  20
ENDBRANCH  18  19
ENDBRANCH  17  18
ENDBRANCH   3  17
BRANCH   1  22
HETATM   22  N   UNL     1      23.518  -5.242  24.801  1.00  0.00    -0.295 N 
ATOM     23  HN  UNL     1      22.514  -5.228  24.979  1.00  0.00     0.177 HD
BRANCH  22  24
HETATM   24  S   UNL     1      24.284  -6.623  25.111  1.00  0.00     0.226 S 
HETATM   25  C   UNL     1      26.030  -6.266  24.965  1.00  0.00     0.186 C 
HETATM   26  O   UNL     1      24.073  -7.075  26.465  1.00  0.00    -0.206 OA
HETATM   27  O   UNL     1      24.025  -7.641  24.134  1.00  0.00    -0.206 OA
ENDBRANCH  22  24
ENDBRANCH   1  22
TORSDOF 8
ENDMDL
MODEL 2
REMARK VINA RESULT:    -6.296     14.432     16.353
REMARK INTER + INTRA:         -10.669
REMARK INTER:                  -9.475
REMARK INTRA:                  -1.194
REMARK UNBOUND:                -1.429
REMARK  8 active torsions:
REMARK  status: ('A' for Active; 'I' for Inactive)
REMARK    1  A    between atoms: S_2  and  N_5 
REMARK    2  A    between atoms: N_5  and  C_7 
REMARK    3  A    between atoms: C_9  and  C_10 
REMARK    4  A    between atoms: C_10  and  C_11 
REMARK    5  A    between atoms: C_11  and  C_12 
REMARK    6  A    between atoms: C_12  and  C_13 
REMARK    7  A    between atoms: C_15  and  C_16 
REMARK       I    between atoms: C_16  and  N_18 
REMARK    8  A    between atoms: N_18  and  C_20 
ROOT
HETATM    1  C   UNL     1       7.956  -3.842  23.544  1.00  0.00     0.108 C 
HETATM    2  C   UNL     1       8.471  -2.754  23.075  1.00  0.00    -0.017 A 
HETATM    3  C   UNL     1       9.345  -1.878  23.167  1.00  0.00     0.082 A 
HETATM    4  C   UNL     1       8.935  -1.257  22.214  1.00  0.00     0.031 A 
ENDROOT
BRANCH   4   5
HETATM    5  C   UNL     1       8.434  -0.525  21.213  1.00  0.00     0.253 C 
HETATM    6  O   UNL     1       9.145   0.202  20.728  1.00  0.00    -0.268 OA
HETATM    7  N   UNL     1       7.173  -0.784  20.976  1.00  0.00    -0.321 N 
ATOM      8  HN  UNL     1       6.680  -1.480  21.535  1.00  0.00     0.169 HD
BRANCH   7   9
HETATM    9  C   UNL     1       6.576  -0.180  20.066  1.00  0.00     0.056 A 
HETATM   10  C   UNL     1       6.256  -0.426  18.827  1.00  0.00     0.117 A 
HETATM   11  N   UNL     1       5.716  -0.092  17.794  1.00  0.00    -0.373 N 
HETATM   12  C   UNL     1       5.276   1.138  18.113  1.00  0.00     0.088 A 
ATOM     13  HN  UNL     1       5.621  -0.605  16.917  1.00  0.00     0.164 HD
HETATM   14  C   UNL     1       5.390   1.670  19.213  1.00  0.00     0.026 A 
HETATM   15  C   UNL     1       5.941   1.249  20.347  1.00  0.00    -0.033 A 
HETATM   16  C   UNL     1       6.070   1.928  21.746  1.00  0.00     0.050 C 
ENDBRANCH   7   9
ENDBRANCH   4   5
BRANCH   3  17
HETATM   17  C   UNL     1       9.909  -0.930  24.410  1.00  0.00    -0.016 C 
BRANCH  17  18
HETATM   18  C   UNL     1      10.038   0.080  24.426  1.00  0.00    -0.026 C 
BRANCH  18  19
HETATM   19  C   UNL     1      11.207   0.902  24.308  1.00  0.00     0.053 C 
BRANCH  19  20
HETATM   20  C   UNL     1      10.896   2.022  23.370  1.00  0.00    -0.033 C 
HETATM   21  C   UNL     1      10.120   2.590  23.215  1.00  0.00     0.007 C 
ENDBRANCH  19  20
ENDBRANCH  18  19
ENDBRANCH  17  18
ENDBRANCH   3  17
BRANCH   1  22
HETATM   22  N   UNL     1       7.053  -4.535  23.854  1.00  0.00    -0.295 N 
ATOM     23  HN  UNL     1       7.001  -4.804  24.836  1.00  0.00     0.177 HD
BRANCH  22  24
HETATM   24  S   UNL     1       5.894  -5.103  22.891  1.00  0.00     0.226 S 
HETATM   25  C   UNL     1       6.727  -5.804  21.473  1.00  0.00     0.186 C 
HETATM   26  O   UNL     1       5.154  -6.180  23.502  1.00  0.00    -0.206 OA
HETATM   27  O   UNL     1       5.049  -4.073  22.360  1.00  0.00    -0.206 OA
ENDBRANCH  22  24
ENDBRANCH   1  22
TORSDOF 8
ENDMDL
MODEL 3
REMARK VINA RESULT:    -6.083     15.100     17.503
REMARK INTER + INTRA:         -10.357
REMARK INTER:                  -9.207
REMARK INTRA:                  -1.150
REMARK UNBOUND:                -1.429
REMARK  8 active torsions:
REMARK  status: ('A' for Active; 'I' for Inactive)
REMARK    1  A    between atoms: S_2  and  N_5 
REMARK    2  A    between atoms: N_5  and  C_7 
REMARK    3  A    between atoms: C_9  and  C_10 
REMARK    4  A    between atoms: C_10  and  C_11 
REMARK    5  A    between atoms: C_11  and  C_12 
REMARK    6  A    between atoms: C_12  and  C_13 
REMARK    7  A    between atoms: C_15  and  C_16 
REMARK       I    between atoms: C_16  and  N_18 
REMARK    8  A    between atoms: N_18  and  C_20 
ROOT
HETATM    1  C   UNL     1       5.585  -6.516  28.114  1.00  0.00     0.108 C 
HETATM    2  C   UNL     1       5.861  -5.908  27.007  1.00  0.00    -0.017 A 
HETATM    3  C   UNL     1       5.511  -5.608  25.856  1.00  0.00     0.082 A 
HETATM    4  C   UNL     1       6.529  -5.001  25.619  1.00  0.00     0.031 A 
ENDROOT
BRANCH   4   5
HETATM    5  C   UNL     1       7.688  -4.402  25.326  1.00  0.00     0.253 C 
HETATM    6  O   UNL     1       8.620  -4.924  25.684  1.00  0.00    -0.268 OA
HETATM    7  N   UNL     1       7.529  -3.282  24.667  1.00  0.00    -0.321 N 
ATOM      8  HN  UNL     1       6.591  -2.954  24.436  1.00  0.00     0.169 HD
BRANCH   7   9
HETATM    9  C   UNL     1       8.524  -2.619  24.322  1.00  0.00     0.056 A 
HETATM   10  C   UNL     1       9.346  -2.614  23.310  1.00  0.00     0.117 A 
HETATM   11  N   UNL     1      10.296  -2.134  22.730  1.00  0.00    -0.373 N 
HETATM   12  C   UNL     1      10.668  -1.168  23.587  1.00  0.00     0.088 A 
ATOM     13  HN  UNL     1      10.705  -2.395  21.832  1.00  0.00     0.164 HD
HETATM   14  C   UNL     1      10.092  -0.886  24.633  1.00  0.00     0.026 A 
HETATM   15  C   UNL     1       9.011  -1.398  25.215  1.00  0.00    -0.033 A 
HETATM   16  C   UNL     1       8.277  -1.023  26.539  1.00  0.00     0.050 C 
ENDBRANCH   7   9
ENDBRANCH   4   5
BRANCH   3  17
HETATM   17  C   UNL     1       4.910  -6.467  24.565  1.00  0.00    -0.016 C 
BRANCH  17  18
HETATM   18  C   UNL     1       5.203  -6.430  23.591  1.00  0.00    -0.026 C 
BRANCH  18  19
HETATM   19  C   UNL     1       5.010  -5.447  22.565  1.00  0.00     0.053 C 
BRANCH  19  20
HETATM   20  C   UNL     1       6.156  -5.537  21.612  1.00  0.00    -0.033 C 
HETATM   21  C   UNL     1       7.117  -5.666  21.706  1.00  0.00     0.007 C 
ENDBRANCH  19  20
ENDBRANCH  18  19
ENDBRANCH  17  18
ENDBRANCH   3  17
BRANCH   1  22
HETATM   22  N   UNL     1       5.854  -7.190  29.044  1.00  0.00    -0.295 N 
ATOM     23  HN  UNL     1       6.018  -8.180  28.857  1.00  0.00     0.177 HD
BRANCH  22  24
HETATM   24  S   UNL     1       5.988  -6.717  30.576  1.00  0.00     0.226 S 
HETATM   25  C   UNL     1       4.323  -6.670  31.228  1.00  0.00     0.186 C 
HETATM   26  O   UNL     1       6.713  -7.668  31.382  1.00  0.00    -0.206 OA
HETATM   27  O   UNL     1       6.482  -5.377  30.710  1.00  0.00    -0.206 OA
ENDBRANCH  22  24
ENDBRANCH   1  22
TORSDOF 8
ENDMDL
MODEL 4
REMARK VINA RESULT:    -5.973     14.549     17.625
REMARK INTER + INTRA:         -10.196
REMARK INTER:                  -9.070
REMARK INTRA:                  -1.125
REMARK UNBOUND:                -1.429
REMARK  8 active torsions:
REMARK  status: ('A' for Active; 'I' for Inactive)
REMARK    1  A    between atoms: S_2  and  N_5 
REMARK    2  A    between atoms: N_5  and  C_7 
REMARK    3  A    between atoms: C_9  and  C_10 
REMARK    4  A    between atoms: C_10  and  C_11 
REMARK    5  A    between atoms: C_11  and  C_12 
REMARK    6  A    between atoms: C_12  and  C_13 
REMARK    7  A    between atoms: C_15  and  C_16 
REMARK       I    between atoms: C_16  and  N_18 
REMARK    8  A    between atoms: N_18  and  C_20 
ROOT
HETATM    1  C   UNL     1       7.176  -0.058  22.248  1.00  0.00     0.108 C 
HETATM    2  C   UNL     1       7.756  -1.056  22.829  1.00  0.00    -0.017 A 
HETATM    3  C   UNL     1       8.806  -1.559  23.257  1.00  0.00     0.082 A 
HETATM    4  C   UNL     1       8.262  -2.574  23.626  1.00  0.00     0.031 A 
ENDROOT
BRANCH   4   5
HETATM    5  C   UNL     1       7.679  -3.731  23.957  1.00  0.00     0.253 C 
HETATM    6  O   UNL     1       7.948  -4.621  23.320  1.00  0.00    -0.268 OA
HETATM    7  N   UNL     1       6.873  -3.618  24.982  1.00  0.00    -0.321 N 
ATOM      8  HN  UNL     1       6.743  -2.713  25.433  1.00  0.00     0.169 HD
BRANCH   7   9
HETATM    9  C   UNL     1       6.264  -4.618  25.405  1.00  0.00     0.056 A 
HETATM   10  C   UNL     1       6.440  -5.492  26.356  1.00  0.00     0.117 A 
HETATM   11  N   UNL     1       6.060  -6.464  26.974  1.00  0.00    -0.373 N 
HETATM   12  C   UNL     1       4.931  -6.772  26.313  1.00  0.00     0.088 A 
ATOM     13  HN  UNL     1       6.484  -6.925  27.780  1.00  0.00     0.164 HD
HETATM   14  C   UNL     1       4.461  -6.136  25.375  1.00  0.00     0.026 A 
HETATM   15  C   UNL     1       4.875  -5.035  24.755  1.00  0.00    -0.033 A 
HETATM   16  C   UNL     1       4.263  -4.225  23.570  1.00  0.00     0.050 C 
ENDBRANCH   7   9
ENDBRANCH   4   5
BRANCH   3  17
HETATM   17  C   UNL     1      10.325  -1.787  22.622  1.00  0.00    -0.016 C 
BRANCH  17  18
HETATM   18  C   UNL     1      11.192  -1.317  22.874  1.00  0.00    -0.026 C 
BRANCH  18  19
HETATM   19  C   UNL     1      11.544  -0.479  23.984  1.00  0.00     0.053 C 
BRANCH  19  20
HETATM   20  C   UNL     1      11.307   0.941  23.589  1.00  0.00    -0.033 C 
HETATM   21  C   UNL     1      11.519   1.806  23.983  1.00  0.00     0.007 C 
ENDBRANCH  19  20
ENDBRANCH  18  19
ENDBRANCH  17  18
ENDBRANCH   3  17
BRANCH   1  22
HETATM   22  N   UNL     1       6.415   0.423  21.486  1.00  0.00    -0.295 N 
ATOM     23  HN  UNL     1       5.746   1.091  21.870  1.00  0.00     0.177 HD
BRANCH  22  24
HETATM   24  S   UNL     1       6.319   0.139  19.904  1.00  0.00     0.226 S 
HETATM   25  C   UNL     1       5.156   1.333  19.256  1.00  0.00     0.186 C 
HETATM   26  O   UNL     1       7.570   0.381  19.227  1.00  0.00    -0.206 OA
HETATM   27  O   UNL     1       5.754  -1.143  19.596  1.00  0.00    -0.206 OA
ENDBRANCH  22  24
ENDBRANCH   1  22
TORSDOF 8
ENDMDL
MODEL 5
REMARK VINA RESULT:    -5.826     29.207     31.845
REMARK INTER + INTRA:          -9.980
REMARK INTER:                  -8.682
REMARK INTRA:                  -1.298
REMARK UNBOUND:                -1.429
REMARK  8 active torsions:
REMARK  status: ('A' for Active; 'I' for Inactive)
REMARK    1  A    between atoms: S_2  and  N_5 
REMARK    2  A    between atoms: N_5  and  C_7 
REMARK    3  A    between atoms: C_9  and  C_10 
REMARK    4  A    between atoms: C_10  and  C_11 
REMARK    5  A    between atoms: C_11  and  C_12 
REMARK    6  A    between atoms: C_12  and  C_13 
REMARK    7  A    between atoms: C_15  and  C_16 
REMARK       I    between atoms: C_16  and  N_18 
REMARK    8  A    between atoms: N_18  and  C_20 
ROOT
HETATM    1  C   UNL     1       7.913  14.889   1.893  1.00  0.00     0.108 C 
HETATM    2  C   UNL     1       8.113  16.158   2.033  1.00  0.00    -0.017 A 
HETATM    3  C   UNL     1       8.012  17.298   1.554  1.00  0.00     0.082 A 
HETATM    4  C   UNL     1       8.532  17.830   2.508  1.00  0.00     0.031 A 
ENDROOT
BRANCH   4   5
HETATM    5  C   UNL     1       9.183  18.410   3.522  1.00  0.00     0.253 C 
HETATM    6  O   UNL     1       8.547  18.752   4.387  1.00  0.00    -0.268 OA
HETATM    7  N   UNL     1      10.474  18.487   3.320  1.00  0.00    -0.321 N 
ATOM      8  HN  UNL     1      10.878  18.127   2.455  1.00  0.00     0.169 HD
BRANCH   7   9
HETATM    9  C   UNL     1      11.207  19.000   4.185  1.00  0.00     0.056 A 
HETATM   10  C   UNL     1      11.836  18.586   5.249  1.00  0.00     0.117 A 
HETATM   11  N   UNL     1      12.571  18.807   6.188  1.00  0.00    -0.373 N 
HETATM   12  C   UNL     1      12.799  20.123   6.041  1.00  0.00     0.088 A 
ATOM     13  HN  UNL     1      12.922  18.165   6.900  1.00  0.00     0.164 HD
HETATM   14  C   UNL     1      12.374  20.820   5.125  1.00  0.00     0.026 A 
HETATM   15  C   UNL     1      11.613  20.532   4.073  1.00  0.00    -0.033 A 
HETATM   16  C   UNL     1      11.088  21.423   2.904  1.00  0.00     0.050 C 
ENDBRANCH   7   9
ENDBRANCH   4   5
BRANCH   3  17
HETATM   17  C   UNL     1       8.406  17.980   0.091  1.00  0.00    -0.016 C 
BRANCH  17  18
HETATM   18  C   UNL     1       8.296  18.948  -0.205  1.00  0.00    -0.026 C 
BRANCH  18  19
HETATM   19  C   UNL     1       9.207  20.056  -0.229  1.00  0.00     0.053 C 
BRANCH  19  20
HETATM   20  C   UNL     1       8.407  21.316  -0.275  1.00  0.00    -0.033 C 
HETATM   21  C   UNL     1       8.382  22.132   0.257  1.00  0.00     0.007 C 
ENDBRANCH  19  20
ENDBRANCH  18  19
ENDBRANCH  17  18
ENDBRANCH   3  17
BRANCH   1  22
HETATM   22  N   UNL     1       8.225  13.755   1.982  1.00  0.00    -0.295 N 
ATOM     23  HN  UNL     1       8.596  13.316   1.139  1.00  0.00     0.177 HD
BRANCH  22  24
HETATM   24  S   UNL     1       8.127  12.824   3.292  1.00  0.00     0.226 S 
HETATM   25  C   UNL     1       7.042  13.680   4.428  1.00  0.00     0.186 C 
HETATM   26  O   UNL     1       7.504  11.553   3.015  1.00  0.00    -0.206 OA
HETATM   27  O   UNL     1       9.375  12.697   3.987  1.00  0.00    -0.206 OA
ENDBRANCH  22  24
ENDBRANCH   1  22
TORSDOF 8
ENDMDL
MODEL 6
REMARK VINA RESULT:    -5.648      1.844      2.124
REMARK INTER + INTRA:          -9.718
REMARK INTER:                  -8.420
REMARK INTRA:                  -1.299
REMARK UNBOUND:                -1.429
REMARK  8 active torsions:
REMARK  status: ('A' for Active; 'I' for Inactive)
REMARK    1  A    between atoms: S_2  and  N_5 
REMARK    2  A    between atoms: N_5  and  C_7 
REMARK    3  A    between atoms: C_9  and  C_10 
REMARK    4  A    between atoms: C_10  and  C_11 
REMARK    5  A    between atoms: C_11  and  C_12 
REMARK    6  A    between atoms: C_12  and  C_13 
REMARK    7  A    between atoms: C_15  and  C_16 
REMARK       I    between atoms: C_16  and  N_18 
REMARK    8  A    between atoms: N_18  and  C_20 
ROOT
HETATM    1  C   UNL     1      25.244  -5.456  22.987  1.00  0.00     0.108 C 
HETATM    2  C   UNL     1      24.912  -4.237  22.715  1.00  0.00    -0.017 A 
HETATM    3  C   UNL     1      24.839  -3.057  23.091  1.00  0.00     0.082 A 
HETATM    4  C   UNL     1      24.343  -2.675  22.056  1.00  0.00     0.031 A 
ENDROOT
BRANCH   4   5
HETATM    5  C   UNL     1      23.717  -2.266  20.947  1.00  0.00     0.253 C 
HETATM    6  O   UNL     1      22.599  -2.152  21.023  1.00  0.00    -0.268 OA
HETATM    7  N   UNL     1      24.536  -2.074  19.944  1.00  0.00    -0.321 N 
ATOM      8  HN  UNL     1      25.535  -2.242  20.060  1.00  0.00     0.169 HD
BRANCH   7   9
HETATM    9  C   UNL     1      24.092  -1.686  18.848  1.00  0.00     0.056 A 
HETATM   10  C   UNL     1      23.676  -0.556  18.349  1.00  0.00     0.117 A 
HETATM   11  N   UNL     1      23.250   0.087  17.413  1.00  0.00    -0.373 N 
HETATM   12  C   UNL     1      23.144  -0.862  16.468  1.00  0.00     0.088 A 
ATOM     13  HN  UNL     1      23.031   1.082  17.358  1.00  0.00     0.164 HD
HETATM   14  C   UNL     1      23.475  -2.037  16.600  1.00  0.00     0.026 A 
HETATM   15  C   UNL     1      23.995  -2.700  17.628  1.00  0.00    -0.033 A 
HETATM   16  C   UNL     1      24.426  -4.192  17.783  1.00  0.00     0.050 C 
ENDBRANCH   7   9
ENDBRANCH   4   5
BRANCH   3  17
HETATM   17  C   UNL     1      24.247  -2.308  24.451  1.00  0.00    -0.016 C 
BRANCH  17  18
HETATM   18  C   UNL     1      23.304  -1.967  24.625  1.00  0.00    -0.026 C 
BRANCH  18  19
HETATM   19  C   UNL     1      22.069  -2.648  24.891  1.00  0.00     0.053 C 
BRANCH  19  20
HETATM   20  C   UNL     1      20.954  -1.824  24.338  1.00  0.00    -0.033 C 
HETATM   21  C   UNL     1      20.785  -0.868  24.254  1.00  0.00     0.007 C 
ENDBRANCH  19  20
ENDBRANCH  18  19
ENDBRANCH  17  18
ENDBRANCH   3  17
BRANCH   1  22
HETATM   22  N   UNL     1      25.074  -6.623  22.981  1.00  0.00    -0.295 N 
ATOM     23  HN  UNL     1      24.547  -7.011  23.764  1.00  0.00     0.177 HD
BRANCH  22  24
HETATM   24  S   UNL     1      25.585  -7.670  21.871  1.00  0.00     0.226 S 
HETATM   25  C   UNL     1      26.507  -8.921  22.756  1.00  0.00     0.186 C 
HETATM   26  O   UNL     1      24.495  -8.354  21.220  1.00  0.00    -0.206 OA
HETATM   27  O   UNL     1      26.520  -7.098  20.946  1.00  0.00    -0.206 OA
ENDBRANCH  22  24
ENDBRANCH   1  22
TORSDOF 8
ENDMDL
MODEL 7
REMARK VINA RESULT:    -5.620     14.472     16.762
REMARK INTER + INTRA:          -9.678
REMARK INTER:                  -8.678
REMARK INTRA:                  -1.000
REMARK UNBOUND:                -1.429
REMARK  8 active torsions:
REMARK  status: ('A' for Active; 'I' for Inactive)
REMARK    1  A    between atoms: S_2  and  N_5 
REMARK    2  A    between atoms: N_5  and  C_7 
REMARK    3  A    between atoms: C_9  and  C_10 
REMARK    4  A    between atoms: C_10  and  C_11 
REMARK    5  A    between atoms: C_11  and  C_12 
REMARK    6  A    between atoms: C_12  and  C_13 
REMARK    7  A    between atoms: C_15  and  C_16 
REMARK       I    between atoms: C_16  and  N_18 
REMARK    8  A    between atoms: N_18  and  C_20 
ROOT
HETATM    1  C   UNL     1       6.087  -5.609  23.289  1.00  0.00     0.108 C 
HETATM    2  C   UNL     1       7.133  -4.956  23.676  1.00  0.00    -0.017 A 
HETATM    3  C   UNL     1       8.181  -4.946  24.340  1.00  0.00     0.082 A 
HETATM    4  C   UNL     1       8.450  -3.804  24.045  1.00  0.00     0.031 A 
ENDROOT
BRANCH   4   5
HETATM    5  C   UNL     1       8.706  -2.517  23.789  1.00  0.00     0.253 C 
HETATM    6  O   UNL     1       8.209  -2.087  22.874  1.00  0.00    -0.268 OA
HETATM    7  N   UNL     1       9.514  -1.976  24.665  1.00  0.00    -0.321 N 
ATOM      8  HN  UNL     1       9.880  -2.534  25.436  1.00  0.00     0.169 HD
BRANCH   7   9
HETATM    9  C   UNL     1       9.835  -0.778  24.554  1.00  0.00     0.056 A 
HETATM   10  C   UNL     1       9.382   0.361  24.996  1.00  0.00     0.117 A 
HETATM   11  N   UNL     1       9.472   1.568  25.080  1.00  0.00    -0.373 N 
HETATM   12  C   UNL     1      10.550   1.805  24.313  1.00  0.00     0.088 A 
ATOM     13  HN  UNL     1       8.887   2.226  25.594  1.00  0.00     0.164 HD
HETATM   14  C   UNL     1      11.233   0.947  23.761  1.00  0.00     0.026 A 
HETATM   15  C   UNL     1      11.139  -0.379  23.738  1.00  0.00    -0.033 A 
HETATM   16  C   UNL     1      12.020  -1.464  23.044  1.00  0.00     0.050 C 
ENDBRANCH   7   9
ENDBRANCH   4   5
BRANCH   3  17
HETATM   17  C   UNL     1       8.568  -5.358  25.903  1.00  0.00    -0.016 C 
BRANCH  17  18
HETATM   18  C   UNL     1       8.255  -4.920  26.767  1.00  0.00    -0.026 C 
BRANCH  18  19
HETATM   19  C   UNL     1       6.963  -4.824  27.384  1.00  0.00     0.053 C 
BRANCH  19  20
HETATM   20  C   UNL     1       6.765  -6.030  28.241  1.00  0.00    -0.033 C 
HETATM   21  C   UNL     1       6.014  -6.401  28.738  1.00  0.00     0.007 C 
ENDBRANCH  19  20
ENDBRANCH  18  19
ENDBRANCH  17  18
ENDBRANCH   3  17
BRANCH   1  22
HETATM   22  N   UNL     1       4.938  -5.713  23.046  1.00  0.00    -0.295 N 
ATOM     23  HN  UNL     1       4.644  -5.445  22.106  1.00  0.00     0.177 HD
BRANCH  22  24
HETATM   24  S   UNL     1       3.781  -6.231  24.039  1.00  0.00     0.226 S 
HETATM   25  C   UNL     1       2.285  -6.305  23.062  1.00  0.00     0.186 C 
HETATM   26  O   UNL     1       4.025  -7.573  24.510  1.00  0.00    -0.206 OA
HETATM   27  O   UNL     1       3.494  -5.308  25.098  1.00  0.00    -0.206 OA
ENDBRANCH  22  24
ENDBRANCH   1  22
TORSDOF 8
ENDMDL
MODEL 8
REMARK VINA RESULT:    -5.573     15.965     18.241
REMARK INTER + INTRA:          -9.609
REMARK INTER:                  -8.696
REMARK INTRA:                  -0.913
REMARK UNBOUND:                -1.429
REMARK  8 active torsions:
REMARK  status: ('A' for Active; 'I' for Inactive)
REMARK    1  A    between atoms: S_2  and  N_5 
REMARK    2  A    between atoms: N_5  and  C_7 
REMARK    3  A    between atoms: C_9  and  C_10 
REMARK    4  A    between atoms: C_10  and  C_11 
REMARK    5  A    between atoms: C_11  and  C_12 
REMARK    6  A    between atoms: C_12  and  C_13 
REMARK    7  A    between atoms: C_15  and  C_16 
REMARK       I    between atoms: C_16  and  N_18 
REMARK    8  A    between atoms: N_18  and  C_20 
ROOT
HETATM    1  C   UNL     1       5.574  -6.615  27.937  1.00  0.00     0.108 C 
HETATM    2  C   UNL     1       5.742  -6.095  26.766  1.00  0.00    -0.017 A 
HETATM    3  C   UNL     1       5.288  -5.894  25.629  1.00  0.00     0.082 A 
HETATM    4  C   UNL     1       6.270  -5.294  25.257  1.00  0.00     0.031 A 
ENDROOT
BRANCH   4   5
HETATM    5  C   UNL     1       7.386  -4.704  24.817  1.00  0.00     0.253 C 
HETATM    6  O   UNL     1       8.336  -5.300  24.925  1.00  0.00    -0.268 OA
HETATM    7  N   UNL     1       7.172  -3.506  24.336  1.00  0.00    -0.321 N 
ATOM      8  HN  UNL     1       6.229  -3.118  24.331  1.00  0.00     0.169 HD
BRANCH   7   9
HETATM    9  C   UNL     1       8.123  -2.840  23.885  1.00  0.00     0.056 A 
HETATM   10  C   UNL     1       8.677  -2.664  22.718  1.00  0.00     0.117 A 
HETATM   11  N   UNL     1       9.508  -2.125  22.020  1.00  0.00    -0.373 N 
HETATM   12  C   UNL     1      10.174  -1.387  22.925  1.00  0.00     0.088 A 
ATOM     13  HN  UNL     1       9.662  -2.210  21.015  1.00  0.00     0.164 HD
HETATM   14  C   UNL     1       9.895  -1.304  24.117  1.00  0.00     0.026 A 
HETATM   15  C   UNL     1       8.935  -1.867  24.844  1.00  0.00    -0.033 A 
HETATM   16  C   UNL     1       8.580  -1.745  26.358  1.00  0.00     0.050 C 
ENDBRANCH   7   9
ENDBRANCH   4   5
BRANCH   3  17
HETATM   17  C   UNL     1       4.597  -6.863  24.468  1.00  0.00    -0.016 C 
BRANCH  17  18
HETATM   18  C   UNL     1       3.611  -7.067  24.321  1.00  0.00    -0.026 C 
BRANCH  18  19
HETATM   19  C   UNL     1       2.657  -7.809  25.093  1.00  0.00     0.053 C 
BRANCH  19  20
HETATM   20  C   UNL     1       1.782  -8.566  24.150  1.00  0.00    -0.033 C 
HETATM   21  C   UNL     1       1.386  -8.376  23.280  1.00  0.00     0.007 C 
ENDBRANCH  19  20
ENDBRANCH  18  19
ENDBRANCH  17  18
ENDBRANCH   3  17
BRANCH   1  22
HETATM   22  N   UNL     1       5.936  -7.208  28.891  1.00  0.00    -0.295 N 
ATOM     23  HN  UNL     1       6.256  -8.164  28.738  1.00  0.00     0.177 HD
BRANCH  22  24
HETATM   24  S   UNL     1       5.978  -6.669  30.407  1.00  0.00     0.226 S 
HETATM   25  C   UNL     1       4.281  -6.630  30.967  1.00  0.00     0.186 C 
HETATM   26  O   UNL     1       6.677  -7.571  31.289  1.00  0.00    -0.206 OA
HETATM   27  O   UNL     1       6.440  -5.314  30.510  1.00  0.00    -0.206 OA
ENDBRANCH  22  24
ENDBRANCH   1  22
TORSDOF 8
ENDMDL
MODEL 9
REMARK VINA RESULT:    -5.222     28.210     30.876
REMARK INTER + INTRA:          -9.094
REMARK INTER:                  -7.689
REMARK INTRA:                  -1.405
REMARK UNBOUND:                -1.429
REMARK  8 active torsions:
REMARK  status: ('A' for Active; 'I' for Inactive)
REMARK    1  A    between atoms: S_2  and  N_5 
REMARK    2  A    between atoms: N_5  and  C_7 
REMARK    3  A    between atoms: C_9  and  C_10 
REMARK    4  A    between atoms: C_10  and  C_11 
REMARK    5  A    between atoms: C_11  and  C_12 
REMARK    6  A    between atoms: C_12  and  C_13 
REMARK    7  A    between atoms: C_15  and  C_16 
REMARK       I    between atoms: C_16  and  N_18 
REMARK    8  A    between atoms: N_18  and  C_20 
ROOT
HETATM    1  C   UNL     1       7.100  14.716   2.697  1.00  0.00     0.108 C 
HETATM    2  C   UNL     1       7.750  15.825   2.834  1.00  0.00    -0.017 A 
HETATM    3  C   UNL     1       7.961  16.978   2.428  1.00  0.00     0.082 A 
HETATM    4  C   UNL     1       8.805  17.202   3.265  1.00  0.00     0.031 A 
ENDROOT
BRANCH   4   5
HETATM    5  C   UNL     1       9.796  17.423   4.134  1.00  0.00     0.253 C 
HETATM    6  O   UNL     1      10.827  17.120   3.796  1.00  0.00    -0.268 OA
HETATM    7  N   UNL     1       9.380  17.959   5.253  1.00  0.00    -0.321 N 
ATOM      8  HN  UNL     1       8.389  18.158   5.388  1.00  0.00     0.169 HD
BRANCH   7   9
HETATM    9  C   UNL     1      10.197  18.226   6.154  1.00  0.00     0.056 A 
HETATM   10  C   UNL     1      10.789  17.567   7.111  1.00  0.00     0.117 A 
HETATM   11  N   UNL     1      11.569  17.535   8.039  1.00  0.00    -0.373 N 
HETATM   12  C   UNL     1      11.971  18.817   8.090  1.00  0.00     0.088 A 
ATOM     13  HN  UNL     1      11.845  16.747   8.625  1.00  0.00     0.164 HD
HETATM   14  C   UNL     1      11.623  19.701   7.314  1.00  0.00     0.026 A 
HETATM   15  C   UNL     1      10.806  19.689   6.265  1.00  0.00    -0.033 A 
HETATM   16  C   UNL     1      10.380  20.817   5.275  1.00  0.00     0.050 C 
ENDBRANCH   7   9
ENDBRANCH   4   5
BRANCH   3  17
HETATM   17  C   UNL     1       8.280  17.642   0.938  1.00  0.00    -0.016 C 
BRANCH  17  18
HETATM   18  C   UNL     1       9.030  18.278   0.678  1.00  0.00    -0.026 C 
BRANCH  18  19
HETATM   19  C   UNL     1       9.023  19.635   0.211  1.00  0.00     0.053 C 
BRANCH  19  20
HETATM   20  C   UNL     1       9.703  20.483   1.234  1.00  0.00    -0.033 C 
HETATM   21  C   UNL     1      10.614  20.547   1.576  1.00  0.00     0.007 C 
ENDBRANCH  19  20
ENDBRANCH  18  19
ENDBRANCH  17  18
ENDBRANCH   3  17
BRANCH   1  22
HETATM   22  N   UNL     1       7.011  13.540   2.678  1.00  0.00    -0.295 N 
ATOM     23  HN  UNL     1       6.562  13.130   1.859  1.00  0.00     0.177 HD
BRANCH  22  24
HETATM   24  S   UNL     1       7.522  12.512   3.807  1.00  0.00     0.226 S 
HETATM   25  C   UNL     1       6.922  10.900   3.317  1.00  0.00     0.186 C 
HETATM   26  O   UNL     1       8.960  12.415   3.849  1.00  0.00    -0.206 OA
HETATM   27  O   UNL     1       6.938  12.755   5.094  1.00  0.00    -0.206 OA
ENDBRANCH  22  24
ENDBRANCH   1  22
TORSDOF 8
ENDMDL
