REMARK  8 active torsions:
REMARK  status: ('A' for Active; 'I' for Inactive)
REMARK    1  A    between atoms: S_2  and  N_5 
REMARK    2  A    between atoms: N_5  and  C_7 
REMARK    3  A    between atoms: C_9  and  C_10 
REMARK    4  A    between atoms: C_10  and  C_11 
REMARK    5  A    between atoms: C_11  and  C_12 
REMARK    6  A    between atoms: C_12  and  C_13 
REMARK    7  A    between atoms: C_15  and  C_16 
REMARK       I    between atoms: C_16  and  N_18 
REMARK    8  A    between atoms: N_18  and  C_20 
ROOT
HETATM    1  C   UNL     1       8.971  -2.944  24.144  1.00  0.00     0.108 C 
HETATM    2  C   UNL     1       9.402  -1.936  23.460  1.00  0.00    -0.017 A 
HETATM    3  C   UNL     1      10.283  -1.079  23.290  1.00  0.00     0.082 A 
HETATM    4  C   UNL     1       9.717  -0.570  22.350  1.00  0.00     0.031 A 
ENDROOT
BRANCH   4   5
HETATM    5  C   UNL     1       9.054   0.046  21.366  1.00  0.00     0.253 C 
HETATM    6  O   UNL     1       9.541   0.970  20.944  1.00  0.00    -0.268 OA
HETATM    7  N   UNL     1       7.925  -0.545  21.067  1.00  0.00    -0.321 N 
ATOM      8  HN  UNL     1       7.636  -1.382  21.573  1.00  0.00     0.169 HD
BRANCH   7   9
HETATM    9  C   UNL     1       7.204  -0.083  20.163  1.00  0.00     0.056 A 
HETATM   10  C   UNL     1       7.261  -0.005  18.863  1.00  0.00     0.117 A 
HETATM   11  N   UNL     1       6.765   0.325  17.807  1.00  0.00    -0.373 N 
HETATM   12  C   UNL     1       5.629   0.912  18.221  1.00  0.00     0.088 A 
ATOM     13  HN  UNL     1       7.116   0.193  16.858  1.00  0.00     0.164 HD
HETATM   14  C   UNL     1       5.254   0.990  19.387  1.00  0.00     0.026 A 
HETATM   15  C   UNL     1       5.798   0.564  20.523  1.00  0.00    -0.033 A 
HETATM   16  C   UNL     1       5.307   0.656  22.001  1.00  0.00     0.050 C 
ENDBRANCH   7   9
ENDBRANCH   4   5
BRANCH   3  17
HETATM   17  C   UNL     1      11.059  -0.000  24.288  1.00  0.00    -0.016 C 
BRANCH  17  18
HETATM   18  C   UNL     1      12.038   0.278  24.278  1.00  0.00    -0.026 C 
BRANCH  18  19
HETATM   19  C   UNL     1      13.154  -0.159  23.489  1.00  0.00     0.053 C 
BRANCH  19  20
HETATM   20  C   UNL     1      12.702  -1.295  22.632  1.00  0.00    -0.033 C 
HETATM   21  C   UNL     1      11.849  -1.740  22.478  1.00  0.00     0.007 C 
ENDBRANCH  19  20
ENDBRANCH  18  19
ENDBRANCH  17  18
ENDBRANCH   3  17
BRANCH   1  22
HETATM   22  N   UNL     1       8.132  -3.569  24.689  1.00  0.00    -0.295 N 
ATOM     23  HN  UNL     1       7.237  -3.649  24.206  1.00  0.00     0.177 HD
BRANCH  22  24
HETATM   24  S   UNL     1       8.248  -4.309  26.114  1.00  0.00     0.226 S 
HETATM   25  C   UNL     1       6.609  -4.916  26.492  1.00  0.00     0.186 C 
HETATM   26  O   UNL     1       9.108  -5.466  26.062  1.00  0.00    -0.206 OA
HETATM   27  O   UNL     1       8.575  -3.415  27.187  1.00  0.00    -0.206 OA
ENDBRANCH  22  24
ENDBRANCH   1  22
TORSDOF 8
