stable:False satoms:8 tatoms:24 sratio:0.3333333333333333
  -OEChem-07092417483D

 24 25  0     1  0  0  0  0  0999 V2000
    6.6087   -4.9160   26.4922 C   0  0  0  0  0  0  0  0  0  0  0  0
    8.2479   -4.3085   26.1145 S   0  0  0  0  0  0  0  0  0  0  0  0
    9.1076   -5.4658   26.0625 O   0  0  0  0  0  0  0  0  0  0  0  0
    8.5753   -3.4148   27.1871 O   0  0  0  0  0  0  0  0  0  0  0  0
    8.1316   -3.5690   24.6894 N   0  0  0  0  0  0  0  0  0  0  0  0
    8.9711   -2.9443   24.1436 C   0  0  0  0  0  0  0  0  0  0  0  0
    9.4019   -1.9359   23.4603 C   0  0  0  0  0  0  0  0  0  0  0  0
   10.2830   -1.0789   23.2904 C   0  0  2  0  0  0  0  0  0  0  0  0
   11.0595   -0.0003   24.2880 C   0  0  0  0  0  0  0  0  0  0  0  0
   12.0379    0.2778   24.2779 C   0  0  0  0  0  0  0  0  0  0  0  0
   13.1540   -0.1585   23.4891 C   0  0  0  0  0  0  0  0  0  0  0  0
   12.7021   -1.2952   22.6324 C   0  0  0  0  0  0  0  0  0  0  0  0
   11.8487   -1.7397   22.4781 C   0  0  0  0  0  0  0  0  0  0  0  0
    9.7174   -0.5696   22.3499 C   0  0  2  0  0  0  0  0  0  0  0  0
    9.0541    0.0459   21.3656 C   0  0  0  0  0  0  0  0  0  0  0  0
    9.5407    0.9697   20.9437 O   0  0  0  0  0  0  0  0  0  0  0  0
    7.9249   -0.5454   21.0671 N   0  0  0  0  0  0  0  0  0  0  0  0
    7.2040   -0.0831   20.1630 C   0  0  0  0  0  0  0  0  0  0  0  0
    7.2608   -0.0048   18.8626 C   0  0  0  0  0  0  0  0  0  0  0  0
    6.7647    0.3249   17.8074 N   0  0  0  0  0  0  0  0  0  0  0  0
    5.6293    0.9122   18.2209 C   0  0  0  0  0  0  0  0  0  0  0  0
    5.2536    0.9896   19.3875 C   0  0  0  0  0  0  0  0  0  0  0  0
    5.7981    0.5636   20.5226 C   0  0  0  0  0  0  0  0  0  0  0  0
    5.3073    0.6560   22.0011 C   0  0  0  0  0  0  0  0  0  0  0  0
 20 21  2  0  0  0  0
 19 20  1  0  0  0  0
 21 22  1  0  0  0  0
 18 19  2  0  0  0  0
 22 23  2  0  0  0  0
 18 23  1  0  0  0  0
 17 18  1  0  0  0  0
 23 24  1  0  0  0  0
 15 16  2  0  0  0  0
 15 17  1  0  0  0  0
 14 15  1  0  0  0  0
  8 14  1  0  0  0  0
  7 14  1  0  0  0  0
 12 13  2  0  0  0  0
 11 12  1  0  0  0  0
  7  8  1  0  0  0  0
  8  9  1  0  0  0  0
  6  7  2  3  0  0  0
 10 11  1  0  0  0  0
  5  6  1  0  0  0  0
  9 10  2  0  0  0  0
  2  5  1  0  0  0  0
  2  3  2  0  0  0  0
  1  2  1  0  0  0  0
  2  4  2  0  0  0  0
M  END
> <Shapegauss>
-285.991333

$$$$
