REMARK  7 active torsions:
REMARK  status: ('A' for Active; 'I' for Inactive)
REMARK    1  A    between atoms: S_2  and  N_5 
REMARK    2  A    between atoms: N_5  and  C_7 
REMARK    3  A    between atoms: C_8  and  C_9 
REMARK    4  A    between atoms: C_9  and  C_13 
REMARK    5  A    between atoms: C_12  and  C_13 
REMARK    6  A    between atoms: C_14  and  C_15 
REMARK       I    between atoms: C_15  and  N_17 
REMARK    7  A    between atoms: N_17  and  C_19 
ROOT
HETATM    1  C   UNL     1      10.357  -1.370  22.994  1.00  0.00     0.021 C 
HETATM    2  C   UNL     1       9.861  -0.392  22.300  1.00  0.00     0.094 C 
ENDROOT
BRANCH   1   3
HETATM    3  C   UNL     1       9.431  -2.226  23.546  1.00  0.00    -0.043 C 
HETATM    4  C   UNL     1       8.900  -3.002  24.152  1.00  0.00     0.027 C 
BRANCH   4   5
HETATM    5  N   UNL     1       8.173  -3.705  24.729  1.00  0.00    -0.229 N 
ATOM      6  HN  UNL     1       7.287  -3.897  24.263  1.00  0.00     0.190 HD
BRANCH   5   7
HETATM    7  S   UNL     1       8.371  -4.417  26.162  1.00  0.00     0.327 S 
HETATM    8 CL   UNL     1       6.574  -4.916  26.524  1.00  0.00     0.042 Cl
HETATM    9  O   UNL     1       9.134  -5.594  26.004  1.00  0.00    -0.188 OA
HETATM   10  O   UNL     1       8.762  -3.546  27.171  1.00  0.00    -0.188 OA
ENDBRANCH   5   7
ENDBRANCH   4   5
ENDBRANCH   1   3
BRANCH   1  11
HETATM   11  C   UNL     1      11.598  -1.664  23.031  1.00  0.00    -0.001 C 
BRANCH  11  12
HETATM   12  C   UNL     1      12.552  -0.565  23.416  1.00  0.00     0.010 A 
HETATM   13  C   UNL     1      11.543   0.226  24.348  1.00  0.00     0.009 A 
HETATM   14  C   UNL     1      12.294   0.329  24.342  1.00  0.00     0.009 A 
ENDBRANCH  11  12
ENDBRANCH   1  11
BRANCH   2  15
HETATM   15  C   UNL     1       9.135   0.138  21.333  1.00  0.00     0.247 C 
HETATM   16  O   UNL     1       9.540   1.087  20.701  1.00  0.00    -0.268 OA
HETATM   17  N   UNL     1       7.962  -0.522  21.164  1.00  0.00    -0.321 N 
ATOM     18  HN  UNL     1       7.701  -1.337  21.720  1.00  0.00     0.169 HD
BRANCH  17  19
HETATM   19  C   UNL     1       7.167  -0.009  20.196  1.00  0.00     0.069 A 
HETATM   20  C   UNL     1       7.252   0.060  18.934  1.00  0.00     0.118 A 
HETATM   21  N   UNL     1       6.524   0.456  17.955  1.00  0.00    -0.372 N 
HETATM   22  C   UNL     1       5.600   0.781  18.710  1.00  0.00     0.109 A 
ATOM     23  HN  UNL     1       6.656   0.490  16.944  1.00  0.00     0.164 HD
HETATM   24  C   UNL     1       5.901   0.508  20.305  1.00  0.00     0.054 A 
HETATM   25 BR   UNL     1       4.973   0.691  21.804  1.00  0.00    -0.047 Br
ENDBRANCH  17  19
ENDBRANCH   2  15
TORSDOF 7
