stable:False satoms:23 tatoms:24 sratio:0.9583333333333334
  -OEChem-08052414193D

 27 27  0     1  0  0  0  0  0999 V2000
    8.8079   -2.8914   22.7772 N   0  0  0  0  0  0  0  0  0  0  0  0
    9.4858   -0.1392   24.5233 O   0  0  0  0  0  0  0  0  0  0  0  0
    7.9169   -5.2814   24.1427 C   0  0  0  0  0  0  0  0  0  0  0  0
    7.5326   -6.2686   24.3812 H   0  0  0  0  0  0  0  0  0  0  0  0
    7.9470   -4.4546   25.3505 C   0  0  0  0  0  0  0  0  0  0  0  0
    8.7231   -2.4783   24.0111 C   0  0  3  0  0  0  0  0  0  0  0  0
   11.9248   -1.1162   23.4867 H   0  0  0  0  0  0  0  0  0  0  0  0
    9.1644   -1.8767   21.8391 C   0  0  0  0  0  0  0  0  0  0  0  0
    8.5540   -1.8588   26.2676 S   0  0  0  0  0  0  0  0  0  0  0  0
    8.9317   -5.3745   23.7429 H   0  0  0  0  0  0  0  0  0  0  0  0
    8.3035   -3.1373   25.1860 C   0  0  0  0  0  0  0  0  0  0  0  0
    7.3014   -4.8144   23.3705 H   0  0  0  0  0  0  0  0  0  0  0  0
   11.4324   -1.7967   22.7878 C   0  0  0  0  0  0  0  0  0  0  0  0
   10.4754   -0.0063   20.4282 H   0  0  0  0  0  0  0  0  0  0  0  0
    9.0440   -1.2321   24.7570 C   0  0  0  0  0  0  0  0  0  0  0  0
    9.3252   -2.3481   20.8525 H   0  0  0  0  0  0  0  0  0  0  0  0
   10.1685    0.9366   21.9074 H   0  0  0  0  0  0  0  0  0  0  0  0
   11.1136   -2.6906   23.3203 H   0  0  0  0  0  0  0  0  0  0  0  0
   10.7056    0.0751   21.4925 C   0  0  0  0  0  0  0  0  0  0  0  0
   12.1506   -2.0992   22.0138 H   0  0  0  0  0  0  0  0  0  0  0  0
    7.5706   -5.0193   26.8892 Cl  0  0  0  0  0  0  0  0  0  0  0  0
   11.7802    0.2712   21.6086 H   0  0  0  0  0  0  0  0  0  0  0  0
    8.3087   -1.1990   21.7290 H   0  0  0  0  0  0  0  0  0  0  0  0
   10.3145   -1.1058   22.2062 N   0  3  0  0  0  0  0  0  0  0  0  0
    7.9196   -3.2655   22.5109 H   0  0  0  0  0  0  0  0  0  0  0  0
    7.6984   -2.1201   23.8330 H   0  0  0  0  0  0  0  0  0  0  0  0
    9.9535   -0.6740   23.0328 H   0  0  0  0  0  0  0  0  0  0  0  0
 14 19  1  0  0  0  0
 17 19  1  0  0  0  0
 19 22  1  0  0  0  0
 19 24  1  0  0  0  0
  8 16  1  0  0  0  0
  8 23  1  0  0  0  0
  8 24  1  0  0  0  0
  1  8  1  0  0  0  0
 13 24  1  0  0  0  0
 13 20  1  0  0  0  0
  1  6  1  0  0  0  0
  7 13  1  0  0  0  0
 13 18  1  0  0  0  0
  2 15  2  0  0  0  0
  3 12  1  0  0  0  0
  6 15  1  0  0  0  0
  6 11  1  0  0  0  0
  9 15  1  0  0  0  0
  3 10  1  0  0  0  0
  3  4  1  0  0  0  0
  3  5  1  0  0  0  0
  9 11  1  0  0  0  0
  5 11  2  0  0  0  0
  5 21  1  0  0  0  0
  1 25  1  0  0  0  0
  6 26  1  0  0  0  0
 24 27  1  0  0  0  0
M  CHG  1  24   1
M  END
> <Chemgauss4>
-4.893970

$$$$
