stable:False satoms:23 tatoms:24 sratio:0.9583333333333334
  -OEChem-08052414193D

 27 27  0     1  0  0  0  0  0999 V2000
   -8.7845   -2.8288  -22.7018 N   0  0  0  0  0  0  0  0  0  0  0  0
   -9.2681   -0.0196  -24.4214 O   0  0  0  0  0  0  0  0  0  0  0  0
   -8.1059   -5.2723  -24.0946 C   0  0  0  0  0  0  0  0  0  0  0  0
   -7.8045   -6.2850  -24.3447 H   0  0  0  0  0  0  0  0  0  0  0  0
   -8.0882   -4.4372  -25.2970 C   0  0  0  0  0  0  0  0  0  0  0  0
   -8.6855   -2.4151  -23.9344 C   0  0  3  0  0  0  0  0  0  0  0  0
  -11.7611   -0.8077  -23.3532 H   0  0  0  0  0  0  0  0  0  0  0  0
   -9.0456   -1.7957  -21.7525 C   0  0  0  0  0  0  0  0  0  0  0  0
   -8.5013   -1.7953  -26.1897 S   0  0  0  0  0  0  0  0  0  0  0  0
   -9.1189   -5.2875  -23.6799 H   0  0  0  0  0  0  0  0  0  0  0  0
   -8.3368   -3.0971  -25.1194 C   0  0  0  0  0  0  0  0  0  0  0  0
   -7.4440   -4.8608  -23.3292 H   0  0  0  0  0  0  0  0  0  0  0  0
  -11.3139   -1.5300  -22.6660 C   0  0  0  0  0  0  0  0  0  0  0  0
  -10.1833    0.1627  -20.3110 H   0  0  0  0  0  0  0  0  0  0  0  0
   -8.9177   -1.1423  -24.6681 C   0  0  0  0  0  0  0  0  0  0  0  0
   -9.2286   -2.2598  -20.7663 H   0  0  0  0  0  0  0  0  0  0  0  0
   -9.8246    1.0886  -21.7891 H   0  0  0  0  0  0  0  0  0  0  0  0
  -11.0749   -2.4425  -23.2084 H   0  0  0  0  0  0  0  0  0  0  0  0
  -10.4220    0.2695  -21.3710 C   0  0  0  0  0  0  0  0  0  0  0  0
  -12.0423   -1.7801  -21.8827 H   0  0  0  0  0  0  0  0  0  0  0  0
   -7.7806   -5.0192  -26.8445 Cl  0  0  0  0  0  0  0  0  0  0  0  0
  -11.4793    0.5507  -21.4696 H   0  0  0  0  0  0  0  0  0  0  0  0
   -8.1374   -1.1886  -21.6516 H   0  0  0  0  0  0  0  0  0  0  0  0
  -10.1364   -0.9337  -22.0975 N   0  3  0  0  0  0  0  0  0  0  0  0
   -7.9248   -3.2739  -22.4513 H   0  0  0  0  0  0  0  0  0  0  0  0
   -7.6332   -2.1403  -23.7701 H   0  0  0  0  0  0  0  0  0  0  0  0
   -9.7546   -0.5261  -22.9270 H   0  0  0  0  0  0  0  0  0  0  0  0
 14 19  1  0  0  0  0
 17 19  1  0  0  0  0
 19 22  1  0  0  0  0
 19 24  1  0  0  0  0
  8 16  1  0  0  0  0
  8 23  1  0  0  0  0
  8 24  1  0  0  0  0
  1  8  1  0  0  0  0
 13 24  1  0  0  0  0
 13 20  1  0  0  0  0
  1  6  1  0  0  0  0
  7 13  1  0  0  0  0
 13 18  1  0  0  0  0
  2 15  2  0  0  0  0
  3 12  1  0  0  0  0
  6 15  1  0  0  0  0
  6 11  1  0  0  0  0
  9 15  1  0  0  0  0
  3 10  1  0  0  0  0
  3  4  1  0  0  0  0
  3  5  1  0  0  0  0
  9 11  1  0  0  0  0
  5 11  2  0  0  0  0
  5 21  1  0  0  0  0
  1 25  1  0  0  0  0
  6 26  1  0  0  0  0
 24 27  1  0  0  0  0
M  CHG  1  24   1
M  END
> <Chemgauss4>
-4.941013

$$$$
