
 OpenBabel07202414163D

 43 45  0  0  0  0  0  0  0  0999 V2000
   -1.6379   -1.1586   -1.0398 C   0  0  0  0  0  0  0  0  0  0  0  0
   -0.4264   -0.3183   -1.0379 C   0  0  0  0  0  0  0  0  0  0  0  0
   -0.4734    1.0209   -1.0043 N   0  0  0  0  0  0  0  0  0  0  0  0
    0.8719    1.3849   -1.0440 O   0  0  0  0  0  0  0  0  0  0  0  0
    1.5821    0.2247   -1.0862 C   0  0  0  0  0  0  0  0  0  0  0  0
    3.0553    0.3340   -1.2339 C   0  0  0  0  0  0  0  0  0  0  0  0
    3.5676    1.0829   -0.1259 O   0  0  0  0  0  0  0  0  0  0  0  0
    4.8423    1.5576   -0.2900 C   0  0  0  0  0  0  0  0  0  0  0  0
    5.1676    2.6850    0.4645 C   0  0  0  0  0  0  0  0  0  0  0  0
    6.4278    3.2655    0.3381 C   0  0  0  0  0  0  0  0  0  0  0  0
    6.8210    4.6675    1.2537 Cl  0  0  0  0  0  0  0  0  0  0  0  0
    7.3755    2.7224   -0.5282 C   0  0  0  0  0  0  0  0  0  0  0  0
    7.0692    1.5746   -1.2706 C   0  0  0  0  0  0  0  0  0  0  0  0
    8.0973    0.9539   -2.1863 C   0  0  0  0  0  0  0  0  0  0  0  0
    9.0041   -0.1095   -1.5873 C   0  0  0  0  0  0  0  0  0  0  0  0
    9.7126   -0.7877   -2.3314 O   0  0  0  0  0  0  0  0  0  0  0  0
    8.9640   -0.2552   -0.2148 N   0  0  0  0  0  0  0  0  0  0  0  0
    9.7751   -1.1686    0.4920 C   0  0  0  0  0  0  0  0  0  0  0  0
   11.1038   -1.4120    0.1385 C   0  0  0  0  0  0  0  0  0  0  0  0
   11.9270   -2.2615    0.7988 N   0  0  0  0  0  0  0  0  0  0  0  0
   11.3937   -2.9186    1.8464 C   0  0  0  0  0  0  0  0  0  0  0  0
   10.0853   -2.7506    2.2778 C   0  0  0  0  0  0  0  0  0  0  0  0
    9.2519   -1.8549    1.5969 C   0  0  0  0  0  0  0  0  0  0  0  0
    7.8211   -1.7032    2.0304 C   0  0  0  0  0  0  0  0  0  0  0  0
    5.8024    0.9871   -1.1309 C   0  0  0  0  0  0  0  0  0  0  0  0
    0.8289   -0.8568   -1.0937 N   0  0  0  0  0  0  0  0  0  0  0  0
   -2.5488   -0.5549   -1.0900 H   0  0  0  0  0  0  0  0  0  0  0  0
   -1.6762   -1.7644   -0.1296 H   0  0  0  0  0  0  0  0  0  0  0  0
   -1.6288   -1.8332   -1.9020 H   0  0  0  0  0  0  0  0  0  0  0  0
    3.2770    0.8348   -2.1848 H   0  0  0  0  0  0  0  0  0  0  0  0
    3.4944   -0.6706   -1.2301 H   0  0  0  0  0  0  0  0  0  0  0  0
    4.4294    3.1189    1.1345 H   0  0  0  0  0  0  0  0  0  0  0  0
    8.3533    3.1915   -0.6215 H   0  0  0  0  0  0  0  0  0  0  0  0
    8.7425    1.7384   -2.5987 H   0  0  0  0  0  0  0  0  0  0  0  0
    7.5759    0.4973   -3.0379 H   0  0  0  0  0  0  0  0  0  0  0  0
    8.1455    0.0901    0.2692 H   0  0  0  0  0  0  0  0  0  0  0  0
   11.5766   -0.8899   -0.6893 H   0  0  0  0  0  0  0  0  0  0  0  0
   12.0625   -3.6147    2.3446 H   0  0  0  0  0  0  0  0  0  0  0  0
    9.7225   -3.3316    3.1187 H   0  0  0  0  0  0  0  0  0  0  0  0
    7.5290   -2.4926    2.7303 H   0  0  0  0  0  0  0  0  0  0  0  0
    7.1497   -1.7832    1.1677 H   0  0  0  0  0  0  0  0  0  0  0  0
    7.6721   -0.7358    2.5178 H   0  0  0  0  0  0  0  0  0  0  0  0
    5.5877    0.0804   -1.6912 H   0  0  0  0  0  0  0  0  0  0  0  0
  1  2  1  0  0  0  0
  1 27  1  0  0  0  0
  1 28  1  0  0  0  0
  1 29  1  0  0  0  0
  2  3  2  0  0  0  0
  2 26  1  0  0  0  0
  3  4  1  0  0  0  0
  4  5  1  0  0  0  0
  5  6  1  0  0  0  0
  5 26  2  0  0  0  0
  6  7  1  0  0  0  0
  6 30  1  0  0  0  0
  6 31  1  0  0  0  0
  7  8  1  0  0  0  0
  8  9  1  0  0  0  0
  8 25  2  0  0  0  0
  9 10  2  0  0  0  0
  9 32  1  0  0  0  0
 10 11  1  0  0  0  0
 10 12  1  0  0  0  0
 12 13  2  0  0  0  0
 12 33  1  0  0  0  0
 13 14  1  0  0  0  0
 13 25  1  0  0  0  0
 14 15  1  0  0  0  0
 14 34  1  0  0  0  0
 14 35  1  0  0  0  0
 15 16  2  0  0  0  0
 15 17  1  0  0  0  0
 17 18  1  0  0  0  0
 17 36  1  0  0  0  0
 18 19  1  0  0  0  0
 18 23  2  0  0  0  0
 19 20  2  0  0  0  0
 19 37  1  0  0  0  0
 20 21  1  0  0  0  0
 21 22  2  0  0  0  0
 21 38  1  0  0  0  0
 22 23  1  0  0  0  0
 22 39  1  0  0  0  0
 23 24  1  0  0  0  0
 24 40  1  0  0  0  0
 24 41  1  0  0  0  0
 24 42  1  0  0  0  0
 25 43  1  0  0  0  0
M  END
$$$$
