stable:False satoms:18 tatoms:24 sratio:0.75
  -OEChem-07092417313D

 24 24  0     1  0  0  0  0  0999 V2000
    8.6335   -0.5963   24.8532 H   0  0  0  0  0  0  0  0  0  0  0  0
    9.1921   -0.5993   22.7229 C   0  0  1  0  0  0  0  0  0  0  0  0
    8.5611   -2.9732   22.3435 C   0  0  0  0  0  0  0  0  0  0  0  0
    8.7426   -2.8139   25.5268 H   0  0  0  0  0  0  0  0  0  0  0  0
    9.4822   -1.9275   22.3700 N   0  0  0  0  0  0  0  0  0  0  0  0
    9.2601   -2.7811   24.6003 C   0  0  0  0  0  0  0  0  0  0  0  0
    8.3749   -0.9353   20.3363 H   0  0  0  0  0  0  0  0  0  0  0  0
    9.8562   -3.6230   24.3341 H   0  0  0  0  0  0  0  0  0  0  0  0
   11.5539   -1.1410   21.7286 O   0  0  0  0  0  0  0  0  0  0  0  0
    8.4798   -0.2450   23.8657 C   0  5  0  0  0  0  0  0  0  0  0  0
    8.1772   -2.7950   23.6358 O   0  0  0  0  0  0  0  0  0  0  0  0
   10.0760   -1.9837   24.7624 H   0  0  0  0  0  0  0  0  0  0  0  0
   10.4973   -1.4001   22.1312 C   0  0  0  0  0  0  0  0  0  0  0  0
   10.1898    0.5034   21.1028 H   0  0  0  0  0  0  0  0  0  0  0  0
    9.0825    1.4430   22.0564 H   0  0  0  0  0  0  0  0  0  0  0  0
    9.2568    0.4714   21.6266 C   0  0  0  0  0  0  0  0  0  0  0  0
    8.9270   -3.9636   22.1498 H   0  0  0  0  0  0  0  0  0  0  0  0
    6.5893   -0.9841   21.9535 H   0  0  0  0  0  0  0  0  0  0  0  0
    7.8711   -2.7396   21.5119 H   0  0  0  0  0  0  0  0  0  0  0  0
    6.3380    0.8040   21.7378 H   0  0  0  0  0  0  0  0  0  0  0  0
    7.8848    0.7031   19.9016 H   0  0  0  0  0  0  0  0  0  0  0  0
    6.8893   -0.0645   21.5533 C   0  5  0  0  0  0  0  0  0  0  0  0
    8.0760    0.0219   20.7424 C   0  0  0  0  0  0  0  0  0  0  0  0
    7.5926    0.3293   23.7499 H   0  0  0  0  0  0  0  0  0  0  0  0
 21 23  1  0  0  0  0
  7 23  1  0  0  0  0
 22 23  1  0  0  0  0
 16 23  1  0  0  0  0
 14 16  1  0  0  0  0
  3 19  1  0  0  0  0
 20 22  1  0  0  0  0
 18 22  1  0  0  0  0
 15 16  1  0  0  0  0
  2 16  1  0  0  0  0
  9 13  2  0  0  0  0
  5 13  1  0  0  0  0
  2 13  1  0  0  0  0
  3 17  1  0  0  0  0
  3  5  1  0  0  0  0
  3 11  1  0  0  0  0
  2  5  1  0  0  0  0
  2 10  1  0  0  0  0
  6 11  1  0  0  0  0
 10 24  1  0  0  0  0
  1 10  1  0  0  0  0
  6  8  1  0  0  0  0
  6 12  1  0  0  0  0
  4  6  1  0  0  0  0
M  CHG  2  10  -1  22  -1
M  END
> <Shapegauss>
-98.832436

$$$$
