stable:False satoms:18 tatoms:24 sratio:0.75
  -OEChem-08052418453D

 26 26  0     1  0  0  0  0  0999 V2000
    9.8483   -1.1427   25.5456 H   0  0  0  0  0  0  0  0  0  0  0  0
   11.0037   -0.6654   23.9310 C   0  0  1  0  0  0  0  0  0  0  0  0
   10.4277   -0.1418   21.5706 C   0  0  0  0  0  0  0  0  0  0  0  0
    7.9224   -1.8795   22.5168 H   0  0  0  0  0  0  0  0  0  0  0  0
   11.1238   -0.8556   22.5445 N   0  0  0  0  0  0  0  0  0  0  0  0
    8.9596   -1.8577   22.2909 C   0  0  0  0  0  0  0  0  0  0  0  0
   12.4848    1.2046   23.0444 H   0  0  0  0  0  0  0  0  0  0  0  0
    9.2798   -2.3117   21.3819 H   0  0  0  0  0  0  0  0  0  0  0  0
   12.8936   -2.2479   23.0455 O   0  0  0  0  0  0  0  0  0  0  0  0
    9.7817   -0.5938   24.5946 C   0  0  0  0  0  0  0  0  0  0  0  0
    9.2060   -0.4433   22.0861 O   0  0  0  0  0  0  0  0  0  0  0  0
    9.4304   -2.5708   23.0639 H   0  0  0  0  0  0  0  0  0  0  0  0
   11.9626   -1.5631   22.9463 C   0  0  0  0  0  0  0  0  0  0  0  0
   13.1155   -0.6148   24.5422 H   0  0  0  0  0  0  0  0  0  0  0  0
   11.9906   -0.0566   25.7428 H   0  0  0  0  0  0  0  0  0  0  0  0
   12.2014   -0.0771   24.6872 C   0  0  0  0  0  0  0  0  0  0  0  0
   10.5356   -0.4471   20.5471 H   0  0  0  0  0  0  0  0  0  0  0  0
   10.1712    1.3445   23.7509 H   0  0  0  0  0  0  0  0  0  0  0  0
   10.8227    0.8896   21.6198 H   0  0  0  0  0  0  0  0  0  0  0  0
   10.9428    2.9643   23.8364 H   0  0  0  0  0  0  0  0  0  0  0  0
   12.9900    1.9890   24.5421 H   0  0  0  0  0  0  0  0  0  0  0  0
   10.9336    1.9503   24.2627 C   0  0  0  0  0  0  0  0  0  0  0  0
   12.2271    1.3429   24.0861 C   0  0  0  0  0  0  0  0  0  0  0  0
    8.9964   -1.0411   23.9675 H   0  0  0  0  0  0  0  0  0  0  0  0
    9.5349    0.4591   24.7956 H   0  0  0  0  0  0  0  0  0  0  0  0
   10.6982    2.0059   25.3357 H   0  0  0  0  0  0  0  0  0  0  0  0
 21 23  1  0  0  0  0
  7 23  1  0  0  0  0
 22 23  1  0  0  0  0
 16 23  1  0  0  0  0
 14 16  1  0  0  0  0
  3 19  1  0  0  0  0
 20 22  1  0  0  0  0
 18 22  1  0  0  0  0
 15 16  1  0  0  0  0
  2 16  1  0  0  0  0
  9 13  2  0  0  0  0
  5 13  1  0  0  0  0
  2 13  1  0  0  0  0
  3 17  1  0  0  0  0
  3  5  1  0  0  0  0
  3 11  1  0  0  0  0
  2  5  1  0  0  0  0
  2 10  1  0  0  0  0
  6 11  1  0  0  0  0
 10 24  1  0  0  0  0
  1 10  1  0  0  0  0
  6  8  1  0  0  0  0
  6 12  1  0  0  0  0
  4  6  1  0  0  0  0
 10 25  1  0  0  0  0
 22 26  1  0  0  0  0
M  END
> <Chemgauss4>
-5.182265

$$$$
