stable:False satoms:18 tatoms:24 sratio:0.75
  -OEChem-08052418453D

 26 26  0     1  0  0  0  0  0999 V2000
  -10.8823    0.1472  -21.0799 H   0  0  0  0  0  0  0  0  0  0  0  0
  -11.0792   -0.2572  -23.0717 C   0  0  1  0  0  0  0  0  0  0  0  0
  -10.5426    1.0753  -25.1000 C   0  0  0  0  0  0  0  0  0  0  0  0
  -10.9449    3.3365  -22.8826 H   0  0  0  0  0  0  0  0  0  0  0  0
  -11.4095    0.3270  -24.3056 N   0  0  0  0  0  0  0  0  0  0  0  0
  -11.3920    2.5765  -23.4741 C   0  0  0  0  0  0  0  0  0  0  0  0
  -10.1100   -1.7505  -24.8902 H   0  0  0  0  0  0  0  0  0  0  0  0
  -12.0089    2.8790  -24.2883 H   0  0  0  0  0  0  0  0  0  0  0  0
  -13.3874   -0.8511  -24.1578 O   0  0  0  0  0  0  0  0  0  0  0  0
  -10.4342    0.4271  -22.0447 C   0  0  0  0  0  0  0  0  0  0  0  0
  -10.2444    1.9586  -24.1100 O   0  0  0  0  0  0  0  0  0  0  0  0
  -12.1763    2.1021  -22.7759 H   0  0  0  0  0  0  0  0  0  0  0  0
  -12.3769   -0.2872  -24.0766 C   0  0  0  0  0  0  0  0  0  0  0  0
  -11.9008   -2.2817  -23.3211 H   0  0  0  0  0  0  0  0  0  0  0  0
  -10.8193   -2.0894  -21.9751 H   0  0  0  0  0  0  0  0  0  0  0  0
  -11.0108   -1.7873  -22.9906 C   0  0  0  0  0  0  0  0  0  0  0  0
  -10.9429    1.5498  -25.9758 H   0  0  0  0  0  0  0  0  0  0  0  0
   -8.9277   -0.2127  -23.4381 H   0  0  0  0  0  0  0  0  0  0  0  0
   -9.7836    0.3597  -25.4661 H   0  0  0  0  0  0  0  0  0  0  0  0
   -7.8006   -1.4644  -24.0619 H   0  0  0  0  0  0  0  0  0  0  0  0
   -9.5081   -3.1105  -23.9406 H   0  0  0  0  0  0  0  0  0  0  0  0
   -8.6741   -1.2829  -23.4185 C   0  0  0  0  0  0  0  0  0  0  0  0
   -9.7934   -2.0501  -23.9000 C   0  0  0  0  0  0  0  0  0  0  0  0
  -10.5445    1.5106  -22.1995 H   0  0  0  0  0  0  0  0  0  0  0  0
   -9.3662    0.1639  -22.0431 H   0  0  0  0  0  0  0  0  0  0  0  0
   -8.4390   -1.5851  -22.3873 H   0  0  0  0  0  0  0  0  0  0  0  0
 21 23  1  0  0  0  0
  7 23  1  0  0  0  0
 22 23  1  0  0  0  0
 16 23  1  0  0  0  0
 14 16  1  0  0  0  0
  3 19  1  0  0  0  0
 20 22  1  0  0  0  0
 18 22  1  0  0  0  0
 15 16  1  0  0  0  0
  2 16  1  0  0  0  0
  9 13  2  0  0  0  0
  5 13  1  0  0  0  0
  2 13  1  0  0  0  0
  3 17  1  0  0  0  0
  3  5  1  0  0  0  0
  3 11  1  0  0  0  0
  2  5  1  0  0  0  0
  2 10  1  0  0  0  0
  6 11  1  0  0  0  0
 10 24  1  0  0  0  0
  1 10  1  0  0  0  0
  6  8  1  0  0  0  0
  6 12  1  0  0  0  0
  4  6  1  0  0  0  0
 10 25  1  0  0  0  0
 22 26  1  0  0  0  0
M  END
> <Chemgauss4>
-5.149109

$$$$
