stable:False satoms:12 tatoms:24 sratio:0.5
  -OEChem-07092417403D

 24 23  0     0  0  0  0  0  0999 V2000
    7.0717   -4.6333   26.2495 H   0  0  0  0  0  0  0  0  0  0  0  0
    8.0922   -4.2689   26.0209 C   0  0  0  0  0  0  0  0  0  0  0  0
    8.7985   -5.1686   26.0020 H   0  0  0  0  0  0  0  0  0  0  0  0
    8.4085   -3.5519   26.7861 H   0  0  0  0  0  0  0  0  0  0  0  0
    8.0766   -3.6386   24.7362 O   0  0  0  0  0  0  0  0  0  0  0  0
    8.7281   -2.8499   24.1569 C   0  0  0  0  0  0  0  0  0  0  0  0
    9.1642   -1.9480   23.4718 C   0  0  0  0  0  0  0  0  0  0  0  0
   10.7389   -1.2340   22.2262 N   0  0  0  0  0  0  0  0  0  0  0  0
   11.3245   -0.1075   24.4208 H   0  0  0  0  0  0  0  0  0  0  0  0
   12.9722    0.3682   23.9454 H   0  0  0  0  0  0  0  0  0  0  0  0
   12.1519   -0.2094   23.7556 C   0  0  0  0  0  0  0  0  0  0  0  0
   12.7662   -1.5832   22.3158 H   0  0  0  0  0  0  0  0  0  0  0  0
   11.9410   -1.0691   22.7342 C   0  0  0  0  0  0  0  0  0  0  0  0
    9.6963   -1.1034   22.8044 N   0  0  0  0  0  0  0  0  0  0  0  0
    8.6346    0.2022   21.1054 C   0  3  0  0  0  0  0  0  0  0  0  0
    9.5683    0.7206   21.0665 H   0  0  0  0  0  0  0  0  0  0  0  0
    7.6722   -0.4152   21.6092 O   0  0  0  0  0  0  0  0  0  0  0  0
    7.6259    0.0136   20.3661 C   0  0  0  0  0  0  0  0  0  0  0  0
    7.0545    0.2014   19.1505 C   0  0  0  0  0  0  0  0  0  0  0  0
    7.4675    0.1067   18.2136 H   0  0  0  0  0  0  0  0  0  0  0  0
    5.1676    0.8655   18.5696 H   0  0  0  0  0  0  0  0  0  0  0  0
    5.7774    0.6143   19.3993 C   0  0  0  0  0  0  0  0  0  0  0  0
    5.4209    0.6715   20.5992 C   0  5  0  0  0  0  0  0  0  0  0  0
    5.2644    0.7267   21.5917 H   0  0  0  0  0  0  0  0  0  0  0  0
 19 20  1  0  0  0  0
 21 22  1  0  0  0  0
 19 22  1  0  0  0  0
 18 19  2  3  0  0  0
 22 23  2  0  0  0  0
 15 18  1  0  0  0  0
 17 18  1  0  0  0  0
 23 24  1  0  0  0  0
 15 16  1  0  0  0  0
 15 17  1  0  0  0  0
  8 13  1  0  0  0  0
  8 14  2  3  0  0  0
 12 13  1  0  0  0  0
 11 13  2  0  0  0  0
  7 14  1  0  0  0  0
  6  7  3  0  0  0  0
 10 11  1  0  0  0  0
  9 11  1  0  0  0  0
  5  6  1  0  0  0  0
  2  5  1  0  0  0  0
  2  3  1  0  0  0  0
  1  2  1  0  0  0  0
  2  4  1  0  0  0  0
M  CHG  2  15   1  23  -1
M  END
> <Shapegauss>
-166.405228

$$$$
