REMARK  5 active torsions:
REMARK  status: ('A' for Active; 'I' for Inactive)
REMARK    1  A    between atoms: O_2  and  C_3 
REMARK    2  A    between atoms: C_4  and  N_9 
REMARK    3  A    between atoms: N_5  and  C_8 
REMARK    4  A    between atoms: C_13  and  C_14 
REMARK    5  A    between atoms: C_14  and  C_15 
ROOT
HETATM    1  C   UNL     2       8.635   0.202  21.105  1.00  0.00     0.179 A 
HETATM    2  O   UNL     2       7.672  -0.415  21.609  1.00  0.00    -0.318 OA
HETATM    3  C   UNL     2       7.626   0.014  20.366  1.00  0.00     0.097 A 
ENDROOT
BRANCH   3   4
HETATM    4  C   UNL     2       7.054   0.201  19.151  1.00  0.00     0.046 C 
BRANCH   4   5
HETATM    5  C   UNL     2       5.777   0.614  19.399  1.00  0.00     0.042 C 
HETATM    6  C   UNL     2       5.421   0.671  20.599  1.00  0.00    -0.047 C 
ENDBRANCH   4   5
ENDBRANCH   3   4
TORSDOF 5
