stable:False satoms:22 tatoms:24 sratio:0.9166666666666666
  -OEChem-07092417303D

 24 24  0     1  0  0  0  0  0999 V2000
    6.4156   -2.4033   24.3956 H   0  0  0  0  0  0  0  0  0  0  0  0
    8.5223   -2.4917   25.3771 H   0  0  0  0  0  0  0  0  0  0  0  0
    8.3040   -3.8524   24.2278 H   0  0  0  0  0  0  0  0  0  0  0  0
    8.5072   -2.7843   24.3372 C   0  0  0  0  0  0  0  0  0  0  0  0
    7.1723   -2.0646   23.6734 C   0  0  0  0  0  0  0  0  0  0  0  0
    8.3773   -0.0753   23.8131 H   0  0  0  0  0  0  0  0  0  0  0  0
   10.8220    1.2659   20.8180 H   0  0  0  0  0  0  0  0  0  0  0  0
    9.8217   -0.9812   23.3515 H   0  0  0  0  0  0  0  0  0  0  0  0
   10.6318    1.1232   23.3883 H   0  0  0  0  0  0  0  0  0  0  0  0
    9.8516    0.9628   22.6373 C   0  0  0  0  0  0  0  0  0  0  0  0
    9.0882   -2.7366   21.8110 H   0  0  0  0  0  0  0  0  0  0  0  0
    9.5597   -2.6615   23.9684 H   0  0  0  0  0  0  0  0  0  0  0  0
   10.3086   -1.2665   20.6982 H   0  0  0  0  0  0  0  0  0  0  0  0
   10.3390    0.6096   21.3463 N   0  0  0  0  0  0  0  0  0  0  0  0
    8.5013   -0.7115   21.7120 N   0  3  1  0  0  0  0  0  0  0  0  0
    9.2194    1.8633   22.5642 H   0  0  0  0  0  0  0  0  0  0  0  0
    7.9978   -2.2904   20.4489 H   0  0  0  0  0  0  0  0  0  0  0  0
    7.0805   -2.5474   22.3077 N   0  0  0  0  0  0  0  0  0  0  0  0
    6.8736   -0.9869   23.5091 H   0  0  0  0  0  0  0  0  0  0  0  0
    9.1160   -0.2090   19.7996 H   0  0  0  0  0  0  0  0  0  0  0  0
    6.2356   -2.2249   21.8363 H   0  0  0  0  0  0  0  0  0  0  0  0
    9.5769   -0.4260   20.7692 C   0  0  0  0  0  0  0  0  0  0  0  0
    8.2135   -2.1191   21.5210 C   0  0  0  0  0  0  0  0  0  0  0  0
    9.0482   -0.2823   22.9856 C   0  0  0  0  0  0  0  0  0  0  0  0
 20 22  1  0  0  0  0
 17 23  1  0  0  0  0
 13 22  1  0  0  0  0
 14 22  1  0  0  0  0
 15 22  1  0  0  0  0
  7 14  1  0  0  0  0
 10 14  1  0  0  0  0
 15 23  1  0  0  0  0
 11 23  1  0  0  0  0
 18 23  1  0  0  0  0
 15 24  1  0  0  0  0
 18 21  1  0  0  0  0
  5 18  1  0  0  0  0
 10 16  1  0  0  0  0
 10 24  1  0  0  0  0
  9 10  1  0  0  0  0
  8 24  1  0  0  0  0
  6 24  1  0  0  0  0
  5 19  1  0  0  0  0
  4  5  1  0  0  0  0
  1  5  1  0  0  0  0
  4 12  1  0  0  0  0
  3  4  1  0  0  0  0
  2  4  1  0  0  0  0
M  CHG  1  15   1
M  END
> <Shapegauss>
-76.161850

$$$$
