stable:False satoms:22 tatoms:24 sratio:0.9166666666666666
  -OEChem-08052418423D

 26 26  0     1  0  0  0  0  0999 V2000
  -11.5787    0.8890  -25.7897 H   0  0  0  0  0  0  0  0  0  0  0  0
  -13.1474    0.8270  -24.0737 H   0  0  0  0  0  0  0  0  0  0  0  0
  -13.1166   -0.7346  -24.9572 H   0  0  0  0  0  0  0  0  0  0  0  0
  -12.6161   -0.1023  -24.2198 C   0  0  0  0  0  0  0  0  0  0  0  0
  -11.1857    0.2930  -24.9535 C   0  0  0  0  0  0  0  0  0  0  0  0
  -10.5431    1.1366  -22.8788 H   0  0  0  0  0  0  0  0  0  0  0  0
   -9.8654   -1.4029  -20.1601 H   0  0  0  0  0  0  0  0  0  0  0  0
  -11.3690   -0.2320  -22.1273 H   0  0  0  0  0  0  0  0  0  0  0  0
  -10.4268    0.7402  -20.3236 H   0  0  0  0  0  0  0  0  0  0  0  0
   -9.7018    0.3659  -21.0535 C   0  0  0  0  0  0  0  0  0  0  0  0
  -11.1079   -2.1322  -23.6484 H   0  0  0  0  0  0  0  0  0  0  0  0
  -12.7146   -0.6671  -23.2554 H   0  0  0  0  0  0  0  0  0  0  0  0
   -9.9414   -2.5167  -21.8098 H   0  0  0  0  0  0  0  0  0  0  0  0
   -9.2399   -0.9577  -20.8008 N   0  3  0  0  0  0  0  0  0  0  0  0
   -9.5594   -0.8209  -23.0670 N   0  0  1  0  0  0  0  0  0  0  0  0
   -8.8439    1.0565  -21.1086 H   0  0  0  0  0  0  0  0  0  0  0  0
   -9.4706   -2.4942  -24.3055 H   0  0  0  0  0  0  0  0  0  0  0  0
  -10.5194   -0.9599  -25.2586 N   0  3  0  0  0  0  0  0  0  0  0  0
  -10.2914    0.9041  -24.6301 H   0  0  0  0  0  0  0  0  0  0  0  0
   -8.2015   -2.1465  -22.2385 H   0  0  0  0  0  0  0  0  0  0  0  0
   -9.6820   -0.7671  -25.7701 H   0  0  0  0  0  0  0  0  0  0  0  0
   -9.1781   -1.7206  -21.9842 C   0  0  0  0  0  0  0  0  0  0  0  0
  -10.1792   -1.6816  -24.0547 C   0  0  0  0  0  0  0  0  0  0  0  0
  -10.3796    0.1751  -22.4030 C   0  0  0  0  0  0  0  0  0  0  0  0
   -8.3263   -0.9110  -20.3968 H   0  0  0  0  0  0  0  0  0  0  0  0
  -11.1279   -1.5248  -25.8159 H   0  0  0  0  0  0  0  0  0  0  0  0
 20 22  1  0  0  0  0
 17 23  1  0  0  0  0
 13 22  1  0  0  0  0
 14 22  1  0  0  0  0
 15 22  1  0  0  0  0
  7 14  1  0  0  0  0
 10 14  1  0  0  0  0
 15 23  1  0  0  0  0
 11 23  1  0  0  0  0
 18 23  1  0  0  0  0
 15 24  1  0  0  0  0
 18 21  1  0  0  0  0
  5 18  1  0  0  0  0
 10 16  1  0  0  0  0
 10 24  1  0  0  0  0
  9 10  1  0  0  0  0
  8 24  1  0  0  0  0
  6 24  1  0  0  0  0
  5 19  1  0  0  0  0
  4  5  1  0  0  0  0
  1  5  1  0  0  0  0
  4 12  1  0  0  0  0
  3  4  1  0  0  0  0
  2  4  1  0  0  0  0
 14 25  1  0  0  0  0
 18 26  1  0  0  0  0
M  CHG  2  14   1  18   1
M  END
> <Chemgauss4>
-5.039957

$$$$
