stable:False satoms:22 tatoms:24 sratio:0.9166666666666666
  -OEChem-08052418423D

 26 26  0     1  0  0  0  0  0999 V2000
   11.6025    0.8890   25.8891 H   0  0  0  0  0  0  0  0  0  0  0  0
   13.1713    0.8270   24.1731 H   0  0  0  0  0  0  0  0  0  0  0  0
   13.1404   -0.7346   25.0566 H   0  0  0  0  0  0  0  0  0  0  0  0
   12.6399   -0.1023   24.3192 C   0  0  0  0  0  0  0  0  0  0  0  0
   11.2095    0.2930   25.0529 C   0  0  0  0  0  0  0  0  0  0  0  0
   10.5670    1.1366   22.9782 H   0  0  0  0  0  0  0  0  0  0  0  0
    9.8893   -1.4029   20.2595 H   0  0  0  0  0  0  0  0  0  0  0  0
   11.3929   -0.2320   22.2267 H   0  0  0  0  0  0  0  0  0  0  0  0
   10.4507    0.7402   20.4230 H   0  0  0  0  0  0  0  0  0  0  0  0
    9.7257    0.3659   21.1528 C   0  0  0  0  0  0  0  0  0  0  0  0
   11.1318   -2.1322   23.7478 H   0  0  0  0  0  0  0  0  0  0  0  0
   12.7385   -0.6671   23.3548 H   0  0  0  0  0  0  0  0  0  0  0  0
    9.9653   -2.5167   21.9092 H   0  0  0  0  0  0  0  0  0  0  0  0
    9.2638   -0.9577   20.9002 N   0  3  0  0  0  0  0  0  0  0  0  0
    9.5833   -0.8209   23.1663 N   0  0  1  0  0  0  0  0  0  0  0  0
    8.8678    1.0565   21.2080 H   0  0  0  0  0  0  0  0  0  0  0  0
    9.4945   -2.4942   24.4049 H   0  0  0  0  0  0  0  0  0  0  0  0
   10.5433   -0.9599   25.3580 N   0  3  0  0  0  0  0  0  0  0  0  0
   10.3153    0.9041   24.7295 H   0  0  0  0  0  0  0  0  0  0  0  0
    8.2254   -2.1465   22.3378 H   0  0  0  0  0  0  0  0  0  0  0  0
    9.7059   -0.7671   25.8695 H   0  0  0  0  0  0  0  0  0  0  0  0
    9.2019   -1.7206   22.0836 C   0  0  0  0  0  0  0  0  0  0  0  0
   10.2031   -1.6816   24.1541 C   0  0  0  0  0  0  0  0  0  0  0  0
   10.4035    0.1751   22.5024 C   0  0  0  0  0  0  0  0  0  0  0  0
    8.3502   -0.9110   20.4962 H   0  0  0  0  0  0  0  0  0  0  0  0
   11.1518   -1.5248   25.9153 H   0  0  0  0  0  0  0  0  0  0  0  0
 20 22  1  0  0  0  0
 17 23  1  0  0  0  0
 13 22  1  0  0  0  0
 14 22  1  0  0  0  0
 15 22  1  0  0  0  0
  7 14  1  0  0  0  0
 10 14  1  0  0  0  0
 15 23  1  0  0  0  0
 11 23  1  0  0  0  0
 18 23  1  0  0  0  0
 15 24  1  0  0  0  0
 18 21  1  0  0  0  0
  5 18  1  0  0  0  0
 10 16  1  0  0  0  0
 10 24  1  0  0  0  0
  9 10  1  0  0  0  0
  8 24  1  0  0  0  0
  6 24  1  0  0  0  0
  5 19  1  0  0  0  0
  4  5  1  0  0  0  0
  1  5  1  0  0  0  0
  4 12  1  0  0  0  0
  3  4  1  0  0  0  0
  2  4  1  0  0  0  0
 14 25  1  0  0  0  0
 18 26  1  0  0  0  0
M  CHG  2  14   1  18   1
M  END
> <Chemgauss4>
-4.912374

$$$$
