stable:False satoms:8 tatoms:24 sratio:0.3333333333333333
  -OEChem-07092417413D

 24 27  0     1  0  0  0  0  0999 V2000
    6.4038   -4.9291   26.4732 Cl  0  0  0  0  0  0  0  0  0  0  0  0
    8.2521   -4.2917   26.1388 S   0  0  0  0  0  0  0  0  0  0  0  0
    9.0575   -5.4409   26.0506 O   0  0  0  0  0  0  0  0  0  0  0  0
    8.5602   -3.3816   27.1903 O   0  0  0  0  0  0  0  0  0  0  0  0
    8.1213   -3.5106   24.6985 N   0  0  0  0  0  0  0  0  0  0  0  0
    8.8505   -2.8295   24.1414 C   0  0  0  0  0  0  0  0  0  0  0  0
    9.3709   -1.8796   23.4803 C   0  0  0  0  0  0  0  0  0  0  0  0
   10.5728   -1.0743   23.2322 C   0  0  1  0  0  0  0  0  0  0  0  0
   11.1453   -0.0528   24.2290 C   0  0  0  0  0  0  0  0  0  0  0  0
   12.2000    0.3307   24.2543 C   0  0  0  0  0  0  0  0  0  0  0  0
   13.1552   -0.0999   23.5717 C   0  0  0  0  0  0  0  0  0  0  0  0
   12.7876   -1.0262   22.9723 C   0  0  0  0  0  0  0  0  0  0  0  0
   11.8433   -1.6652   22.7268 C   0  0  0  0  0  0  0  0  0  0  0  0
    9.5607   -0.8486   22.6115 C   0  0  3  0  0  0  0  0  0  0  0  0
    8.9695    0.0413   21.4974 C   0  0  0  0  0  0  0  0  0  0  0  0
    9.5579    0.9635   21.1163 O   0  0  0  0  0  0  0  0  0  0  0  0
    7.7858   -0.4470   21.1714 N   0  0  0  0  0  0  0  0  0  0  0  0
    7.0190   -0.0025   20.2575 C   0  0  0  0  0  0  0  0  0  0  0  0
    7.4457   -0.0534   18.5974 S   0  3  1  0  0  0  0  0  0  0  0  0
    6.4092    0.3707   17.2841 N   0  0  0  0  0  0  0  0  0  0  0  0
    6.1125    0.5233   18.2290 C   0  0  0  0  0  0  0  0  0  0  0  0
    5.3792    0.8348   19.3894 C   0  0  0  0  0  0  0  0  0  0  0  0
    5.7454    0.5400   20.4985 C   0  0  0  0  0  0  0  0  0  0  0  0
    5.2788    0.6386   21.4849 H   0  0  0  0  0  0  0  0  0  0  0  0
 20 21  1  0  0  0  0
 19 20  1  0  0  0  0
 19 21  1  0  0  0  0
 21 22  2  0  0  0  0
 18 19  1  0  0  0  0
 22 23  1  0  0  0  0
 18 23  2  0  0  0  0
 17 18  1  0  0  0  0
 23 24  1  0  0  0  0
 15 16  2  0  0  0  0
 15 17  1  0  0  0  0
 14 15  1  0  0  0  0
  8 14  1  0  0  0  0
  7 14  1  0  0  0  0
 12 13  1  0  0  0  0
  8 13  1  0  0  0  0
 11 12  2  0  0  0  0
  7  8  1  0  0  0  0
  8  9  1  0  0  0  0
  6  7  2  3  0  0  0
 10 11  1  0  0  0  0
  5  6  1  0  0  0  0
  9 10  2  0  0  0  0
  2  5  1  0  0  0  0
  2  3  2  0  0  0  0
  1  2  1  0  0  0  0
  2  4  2  0  0  0  0
M  CHG  1  19   1
M  END
> <Shapegauss>
-286.153625

$$$$
