stable:False satoms:13 tatoms:24 sratio:0.5416666666666666
  -OEChem-07092417433D

 24 26  0     1  0  0  0  0  0999 V2000
    6.3571   -4.8015   26.5035 Cl  0  0  0  0  0  0  0  0  0  0  0  0
    8.2189   -4.2522   26.1202 S   0  0  0  0  0  0  0  0  0  0  0  0
    9.0241   -5.4699   26.0585 O   0  0  0  0  0  0  0  0  0  0  0  0
    8.6064   -3.3085   27.1291 O   0  0  0  0  0  0  0  0  0  0  0  0
    8.0973   -3.5155   24.6864 N   0  0  0  0  0  0  0  0  0  0  0  0
    8.9014   -2.8957   24.1805 C   0  0  0  0  0  0  0  0  0  0  0  0
    9.4829   -1.9477   23.5093 C   0  0  0  0  0  0  0  0  0  0  0  0
   10.6327   -1.2588   23.2724 C   0  0  2  0  0  0  0  0  0  0  0  0
   11.1230    0.0448   24.5084 S   0  0  0  0  0  0  0  0  0  0  0  0
   12.5735   -0.0935   23.6816 C   0  3  0  0  0  0  0  0  0  0  0  0
   13.4130    0.3021   23.9395 H   0  0  0  0  0  0  0  0  0  0  0  0
   12.7903   -0.6710   22.7375 H   0  0  0  0  0  0  0  0  0  0  0  0
   11.4146   -1.9734   22.8640 H   0  0  0  0  0  0  0  0  0  0  0  0
    9.5985   -0.8410   22.5329 C   0  0  3  0  0  0  0  0  0  0  0  0
    8.9538   -0.0566   21.4957 C   0  0  0  0  0  0  0  0  0  0  0  0
    9.4857    0.9060   20.9594 O   0  0  0  0  0  0  0  0  0  0  0  0
    7.7238   -0.5161   21.2030 N   0  0  0  0  0  0  0  0  0  0  0  0
    7.0019   -0.0416   20.2723 C   0  0  0  0  0  0  0  0  0  0  0  0
    7.4013   -0.0149   18.5956 S   0  3  1  0  0  0  0  0  0  0  0  0
    6.4053    0.5832   17.3320 N   0  0  0  0  0  0  0  0  0  0  0  0
    6.0899    0.6376   18.2686 C   0  0  0  0  0  0  0  0  0  0  0  0
    5.3104    0.8154   19.4093 C   0  0  0  0  0  0  0  0  0  0  0  0
    5.7104    0.5007   20.5148 C   0  0  0  0  0  0  0  0  0  0  0  0
    5.2681    0.5778   21.5222 H   0  0  0  0  0  0  0  0  0  0  0  0
 20 21  1  0  0  0  0
 19 20  1  0  0  0  0
 19 21  1  0  0  0  0
 21 22  2  0  0  0  0
 18 19  1  0  0  0  0
 22 23  1  0  0  0  0
 18 23  2  0  0  0  0
 17 18  1  0  0  0  0
 23 24  1  0  0  0  0
 15 16  2  0  0  0  0
 15 17  1  0  0  0  0
 14 15  1  0  0  0  0
  8 14  1  0  0  0  0
  7 14  1  0  0  0  0
 10 12  1  0  0  0  0
  8 13  1  0  0  0  0
  7  8  1  0  0  0  0
  8  9  1  0  0  0  0
  6  7  2  0  0  0  0
 10 11  1  0  0  0  0
  9 10  1  0  0  0  0
  5  6  1  0  0  0  0
  2  5  1  0  0  0  0
  2  3  2  0  0  0  0
  1  2  1  0  0  0  0
  2  4  2  0  0  0  0
M  CHG  2  10   1  19   1
M  END
> <Shapegauss>
-257.064453

$$$$
