stable:False satoms:13 tatoms:24 sratio:0.5416666666666666
  -OEChem-08062411093D

 29 31  0     1  0  0  0  0  0999 V2000
   -6.5077   -4.7992  -26.7222 Cl  0  0  0  0  0  0  0  0  0  0  0  0
   -8.3645   -4.2324  -26.3400 S   0  0  0  0  0  0  0  0  0  0  0  0
   -9.1831   -5.4417  -26.2895 O   0  0  0  0  0  0  0  0  0  0  0  0
   -8.7388   -3.2772  -27.3431 O   0  0  0  0  0  0  0  0  0  0  0  0
   -8.2389   -3.5075  -24.9006 N   0  0  0  0  0  0  0  0  0  0  0  0
   -9.0377   -2.8827  -24.3924 C   0  0  0  0  0  0  0  0  0  0  0  0
   -9.6107   -1.9333  -23.7159 C   0  0  0  0  0  0  0  0  0  0  0  0
  -10.7536   -1.2336  -23.4772 C   0  0  2  0  0  0  0  0  0  0  0  0
  -11.2261    0.0842  -24.7050 S   0  0  0  0  0  0  0  0  0  0  0  0
  -12.6804   -0.0442  -23.8833 C   0  0  0  0  0  2  0  0  0  0  0  0
  -12.6804   -0.0442  -23.8833 H   0  0  0  0  0  0  0  0  0  0  0  0
  -11.5444   -1.9426  -23.0762 H   0  0  0  0  0  0  0  0  0  0  0  0
   -9.7170   -0.8325  -22.7318 C   0  0  3  0  0  0  0  0  0  0  0  0
   -9.0668   -0.0628  -21.6871 C   0  0  0  0  0  0  0  0  0  0  0  0
   -9.5897    0.9016  -21.1453 O   0  0  0  0  0  0  0  0  0  0  0  0
   -7.8427   -0.5378  -21.3943 N   0  0  0  0  0  0  0  0  0  0  0  0
   -7.1183   -0.0780  -20.4582 C   0  0  0  0  0  0  0  0  0  0  0  0
   -7.5222   -0.0592  -18.7825 S   0  3  1  0  0  0  0  0  0  0  0  0
   -6.5234    0.5188  -17.5118 N   0  0  0  0  0  0  0  0  0  0  0  0
   -6.2047    0.5766  -18.4471 C   0  0  0  0  0  0  0  0  0  0  0  0
   -5.4201    0.7541  -19.5842 C   0  0  0  0  0  0  0  0  0  0  0  0
   -5.8203    0.4519  -20.6931 C   0  0  0  0  0  0  0  0  0  0  0  0
   -5.3743    0.5315  -21.6987 H   0  0  0  0  0  0  0  0  0  0  0  0
   -7.4465   -2.9030  -24.9810 H   0  0  0  0  0  0  0  0  0  0  0  0
   -9.9066   -3.4774  -24.6328 H   0  0  0  0  0  0  0  0  0  0  0  0
   -9.4234   -0.0935  -23.4918 H   0  0  0  0  0  0  0  0  0  0  0  0
   -7.4842   -1.2931  -21.9430 H   0  0  0  0  0  0  0  0  0  0  0  0
   -6.0975   -0.1276  -16.8788 H   0  0  0  0  0  0  0  0  0  0  0  0
   -4.4295    1.1714  -19.4790 H   0  0  0  0  0  0  0  0  0  0  0  0
 19 20  1  0  0  0  0
 18 19  1  0  0  0  0
 18 20  1  0  0  0  0
 20 21  2  0  0  0  0
 17 18  1  0  0  0  0
 21 22  1  0  0  0  0
 17 22  2  0  0  0  0
 16 17  1  0  0  0  0
 22 23  1  0  0  0  0
 14 15  2  0  0  0  0
 14 16  1  0  0  0  0
 13 14  1  0  0  0  0
  8 13  1  0  0  0  0
  7 13  1  0  0  0  0
  8 12  1  0  0  0  0
  7  8  1  0  0  0  0
  8  9  1  0  0  0  0
  6  7  2  0  0  0  0
 10 11  1  0  0  0  0
  9 10  1  0  0  0  0
  5  6  1  0  0  0  0
  2  5  1  0  0  0  0
  2  3  2  0  0  0  0
  1  2  1  0  0  0  0
  2  4  2  0  0  0  0
  5 24  1  0  0  0  0
  6 25  1  0  0  0  0
 13 26  1  0  0  0  0
 16 27  1  0  0  0  0
 19 28  1  0  0  0  0
 21 29  1  0  0  0  0
M  CHG  1  18   1
M  END
> <Chemgauss4>
-7.178640

$$$$
