stable:False satoms:13 tatoms:24 sratio:0.5416666666666666
  -OEChem-08062411093D

 29 31  0     1  0  0  0  0  0999 V2000
    6.4627   -4.7393   26.7102 Cl  0  0  0  0  0  0  0  0  0  0  0  0
    8.3195   -4.1725   26.3281 S   0  0  0  0  0  0  0  0  0  0  0  0
    9.1381   -5.3818   26.2775 O   0  0  0  0  0  0  0  0  0  0  0  0
    8.6938   -3.2173   27.3312 O   0  0  0  0  0  0  0  0  0  0  0  0
    8.1940   -3.4476   24.8886 N   0  0  0  0  0  0  0  0  0  0  0  0
    8.9927   -2.8228   24.3805 C   0  0  0  0  0  0  0  0  0  0  0  0
    9.5657   -1.8734   23.7040 C   0  0  0  0  0  0  0  0  0  0  0  0
   10.7086   -1.1737   23.4653 C   0  0  2  0  0  0  0  0  0  0  0  0
   11.1811    0.1441   24.6931 S   0  0  0  0  0  0  0  0  0  0  0  0
   12.6354    0.0157   23.8713 C   0  0  0  0  0  2  0  0  0  0  0  0
   12.6354    0.0157   23.8713 H   0  0  0  0  0  0  0  0  0  0  0  0
   11.4994   -1.8827   23.0643 H   0  0  0  0  0  0  0  0  0  0  0  0
    9.6721   -0.7726   22.7199 C   0  0  3  0  0  0  0  0  0  0  0  0
    9.0218   -0.0029   21.6752 C   0  0  0  0  0  0  0  0  0  0  0  0
    9.5447    0.9616   21.1333 O   0  0  0  0  0  0  0  0  0  0  0  0
    7.7977   -0.4779   21.3824 N   0  0  0  0  0  0  0  0  0  0  0  0
    7.0734   -0.0181   20.4463 C   0  0  0  0  0  0  0  0  0  0  0  0
    7.4773    0.0008   18.7705 S   0  3  1  0  0  0  0  0  0  0  0  0
    6.4784    0.5787   17.4998 N   0  0  0  0  0  0  0  0  0  0  0  0
    6.1598    0.6365   18.4351 C   0  0  0  0  0  0  0  0  0  0  0  0
    5.3751    0.8141   19.5723 C   0  0  0  0  0  0  0  0  0  0  0  0
    5.7753    0.5118   20.6812 C   0  0  0  0  0  0  0  0  0  0  0  0
    5.3293    0.5914   21.6868 H   0  0  0  0  0  0  0  0  0  0  0  0
    7.4015   -2.8430   24.9691 H   0  0  0  0  0  0  0  0  0  0  0  0
    9.8616   -3.4174   24.6209 H   0  0  0  0  0  0  0  0  0  0  0  0
    9.3784   -0.0336   23.4799 H   0  0  0  0  0  0  0  0  0  0  0  0
    7.4392   -1.2332   21.9311 H   0  0  0  0  0  0  0  0  0  0  0  0
    6.0525   -0.0677   16.8668 H   0  0  0  0  0  0  0  0  0  0  0  0
    4.3845    1.2313   19.4671 H   0  0  0  0  0  0  0  0  0  0  0  0
 19 20  1  0  0  0  0
 18 19  1  0  0  0  0
 18 20  1  0  0  0  0
 20 21  2  0  0  0  0
 17 18  1  0  0  0  0
 21 22  1  0  0  0  0
 17 22  2  0  0  0  0
 16 17  1  0  0  0  0
 22 23  1  0  0  0  0
 14 15  2  0  0  0  0
 14 16  1  0  0  0  0
 13 14  1  0  0  0  0
  8 13  1  0  0  0  0
  7 13  1  0  0  0  0
  8 12  1  0  0  0  0
  7  8  1  0  0  0  0
  8  9  1  0  0  0  0
  6  7  2  0  0  0  0
 10 11  1  0  0  0  0
  9 10  1  0  0  0  0
  5  6  1  0  0  0  0
  2  5  1  0  0  0  0
  2  3  2  0  0  0  0
  1  2  1  0  0  0  0
  2  4  2  0  0  0  0
  5 24  1  0  0  0  0
  6 25  1  0  0  0  0
 13 26  1  0  0  0  0
 16 27  1  0  0  0  0
 19 28  1  0  0  0  0
 21 29  1  0  0  0  0
M  CHG  1  18   1
M  END
> <Chemgauss4>
-7.266147

$$$$
