stable:False satoms:9 tatoms:24 sratio:0.375
  -OEChem-07092417453D

 24 25  0     1  0  0  0  0  0999 V2000
    6.6176   -4.8342   26.3967 C   0  0  0  0  0  0  0  0  0  0  0  0
    8.1649   -4.3313   26.1027 S   0  0  0  0  0  0  0  0  0  0  0  0
    8.9973   -5.5002   25.9791 O   0  0  0  0  0  0  0  0  0  0  0  0
    8.6127   -3.4598   27.1786 O   0  0  0  0  0  0  0  0  0  0  0  0
    8.0964   -3.5366   24.6981 N   0  0  0  0  0  0  0  0  0  0  0  0
    8.9625   -2.8956   24.1323 C   0  0  0  0  0  0  0  0  0  0  0  0
    9.4733   -2.0323   23.5544 C   0  0  0  0  0  0  0  0  0  0  0  0
   10.3983   -1.1582   23.2196 C   0  0  1  0  0  0  0  0  0  0  0  0
   11.0419   -0.0939   24.2984 C   0  0  0  0  0  0  0  0  0  0  0  0
   12.1295    0.1877   24.2343 C   0  0  0  0  0  0  0  0  0  0  0  0
   13.2110   -0.1141   23.5467 C   0  0  0  0  0  0  0  0  0  0  0  0
   12.7736   -1.2404   22.6587 C   0  0  0  0  0  0  0  0  0  0  0  0
   11.7310   -1.6767   22.5822 C   0  0  0  0  0  0  0  0  0  0  0  0
    9.7451   -0.5683   22.3499 C   0  0  0  0  0  0  0  0  0  0  0  0
    9.0567    0.0715   21.3630 C   0  0  0  0  0  0  0  0  0  0  0  0
    9.4980    1.0501   20.9221 O   0  0  0  0  0  0  0  0  0  0  0  0
    7.9186   -0.5864   21.0744 N   0  0  0  0  0  0  0  0  0  0  0  0
    7.1610   -0.0869   20.1744 C   0  0  0  0  0  0  0  0  0  0  0  0
    7.1881    0.0026   18.8409 C   0  0  0  0  0  0  0  0  0  0  0  0
    6.7553    0.2962   17.7857 N   0  0  0  0  0  0  0  0  0  0  0  0
    5.6282    0.9011   18.2919 C   0  0  0  0  0  0  0  0  0  0  0  0
    5.2555    1.0060   19.4153 C   0  0  0  0  0  0  0  0  0  0  0  0
    5.8175    0.5846   20.5857 C   0  0  0  0  0  0  0  0  0  0  0  0
    5.3501    0.7248   21.9115 C   0  0  0  0  0  0  0  0  0  0  0  0
 20 21  2  0  0  0  0
 19 20  1  0  0  0  0
 21 22  1  0  0  0  0
 18 19  2  0  0  0  0
 22 23  2  0  0  0  0
 18 23  1  0  0  0  0
 17 18  1  0  0  0  0
 23 24  1  0  0  0  0
 15 16  2  0  0  0  0
 15 17  1  0  0  0  0
 14 15  1  0  0  0  0
  8 14  1  0  0  0  0
 12 13  1  0  0  0  0
  8 13  1  0  0  0  0
 11 12  2  0  0  0  0
  7  8  1  0  0  0  0
  8  9  1  0  0  0  0
 10 11  1  0  0  0  0
  6  7  3  0  0  0  0
  5  6  1  0  0  0  0
  9 10  2  0  0  0  0
  2  5  1  0  0  0  0
  2  3  2  0  0  0  0
  1  2  1  0  0  0  0
  2  4  2  0  0  0  0
M  END
> <Shapegauss>
-286.641937

$$$$
