stable:False satoms:9 tatoms:24 sratio:0.375
  -OEChem-08062412403D

 43 44  0     1  0  0  0  0  0999 V2000
   -6.4602   -5.2960  -25.9897 C   0  0  0  0  0  0  0  0  0  0  0  0
   -7.9950   -4.7105  -25.8029 S   0  0  0  0  0  0  0  0  0  0  0  0
   -8.8873   -5.8335  -25.6721 O   0  0  0  0  0  0  0  0  0  0  0  0
   -8.3443   -3.8718  -26.9396 O   0  0  0  0  0  0  0  0  0  0  0  0
   -7.9620   -3.8539  -24.4339 N   0  0  0  0  0  0  0  0  0  0  0  0
   -8.8249   -3.1483  -23.9453 C   0  0  0  0  0  0  0  0  0  0  0  0
   -9.3235   -2.2364  -23.4353 C   0  0  0  0  0  0  0  0  0  0  0  0
  -10.2221   -1.3066  -23.1908 C   0  0  1  0  0  0  0  0  0  0  0  0
  -10.7574   -0.2668  -24.3497 C   0  0  0  0  0  0  0  0  0  0  0  0
  -11.8322    0.0662  -24.3574 C   0  0  0  0  0  0  0  0  0  0  0  0
  -12.9611   -0.1535  -23.7165 C   0  0  0  0  0  0  0  0  0  0  0  0
  -12.6245   -1.2550  -22.7563 C   0  0  0  0  0  0  0  0  0  0  0  0
  -11.6092   -1.7337  -22.6038 C   0  0  0  0  0  0  0  0  0  0  0  0
   -9.5877   -0.7061  -22.3145 C   0  0  0  0  0  0  0  0  0  0  0  0
   -8.9219   -0.0518  -21.3215 C   0  0  0  0  0  0  0  0  0  0  0  0
   -9.3386    0.9655  -20.9497 O   0  0  0  0  0  0  0  0  0  0  0  0
   -7.8329   -0.7459  -20.9424 N   0  0  0  0  0  0  0  0  0  0  0  0
   -7.1003   -0.2389  -20.0261 C   0  0  0  0  0  0  0  0  0  0  0  0
   -7.1924   -0.0850  -18.7014 C   0  0  0  0  0  0  0  0  0  0  0  0
   -6.8017    0.2386  -17.6386 N   0  0  0  0  0  0  0  0  0  0  0  0
   -5.6223    0.7673  -18.1097 C   0  0  0  0  0  0  0  0  0  0  0  0
   -5.1871    0.8019  -19.2149 C   0  0  0  0  0  0  0  0  0  0  0  0
   -5.7068    0.3511  -20.3938 C   0  0  0  0  0  0  0  0  0  0  0  0
   -5.1650    0.4070  -21.6973 C   0  0  0  0  0  0  0  0  0  0  0  0
   -6.4054   -5.8955  -26.9104 H   0  0  0  0  0  0  0  0  0  0  0  0
   -5.7531   -4.4560  -26.0567 H   0  0  0  0  0  0  0  0  0  0  0  0
   -6.2005   -5.9259  -25.1262 H   0  0  0  0  0  0  0  0  0  0  0  0
   -7.1765   -3.2445  -24.5424 H   0  0  0  0  0  0  0  0  0  0  0  0
  -10.0754    0.0964  -25.1043 H   0  0  0  0  0  0  0  0  0  0  0  0
  -11.9866    0.7974  -25.1371 H   0  0  0  0  0  0  0  0  0  0  0  0
  -13.9100    0.3443  -23.8512 H   0  0  0  0  0  0  0  0  0  0  0  0
  -13.4335   -1.6306  -22.1472 H   0  0  0  0  0  0  0  0  0  0  0  0
  -11.4611   -1.7203  -21.5139 H   0  0  0  0  0  0  0  0  0  0  0  0
  -11.7422   -2.7716  -22.9431 H   0  0  0  0  0  0  0  0  0  0  0  0
   -9.4890    0.1702  -22.9720 H   0  0  0  0  0  0  0  0  0  0  0  0
   -8.7277   -1.3755  -22.4640 H   0  0  0  0  0  0  0  0  0  0  0  0
   -7.6057   -1.6249  -21.3617 H   0  0  0  0  0  0  0  0  0  0  0  0
   -8.1753   -0.4766  -18.4843 H   0  0  0  0  0  0  0  0  0  0  0  0
   -4.9941    1.2219  -17.3580 H   0  0  0  0  0  0  0  0  0  0  0  0
   -4.2169    1.2685  -19.3011 H   0  0  0  0  0  0  0  0  0  0  0  0
   -4.5812   -0.5048  -21.8917 H   0  0  0  0  0  0  0  0  0  0  0  0
   -5.9813    0.4828  -22.4307 H   0  0  0  0  0  0  0  0  0  0  0  0
   -4.5105    1.2868  -21.7848 H   0  0  0  0  0  0  0  0  0  0  0  0
 20 21  2  0  0  0  0
 19 20  1  0  0  0  0
 21 22  1  0  0  0  0
 18 19  2  0  0  0  0
 22 23  2  0  0  0  0
 18 23  1  0  0  0  0
 17 18  1  0  0  0  0
 23 24  1  0  0  0  0
 15 16  2  0  0  0  0
 15 17  1  0  0  0  0
 14 15  1  0  0  0  0
  8 14  1  0  0  0  0
 12 13  1  0  0  0  0
  8 13  1  0  0  0  0
 11 12  2  0  0  0  0
  7  8  1  0  0  0  0
  8  9  1  0  0  0  0
 10 11  1  0  0  0  0
  6  7  3  0  0  0  0
  5  6  1  0  0  0  0
  9 10  2  0  0  0  0
  2  5  1  0  0  0  0
  2  3  2  0  0  0  0
  1  2  1  0  0  0  0
  2  4  2  0  0  0  0
  1 25  1  0  0  0  0
  1 26  1  0  0  0  0
  1 27  1  0  0  0  0
  5 28  1  0  0  0  0
  9 29  1  0  0  0  0
 10 30  1  0  0  0  0
 11 31  1  0  0  0  0
 12 32  1  0  0  0  0
 13 33  1  0  0  0  0
 13 34  1  0  0  0  0
 14 35  1  0  0  0  0
 14 36  1  0  0  0  0
 17 37  1  0  0  0  0
 19 38  1  0  0  0  0
 21 39  1  0  0  0  0
 22 40  1  0  0  0  0
 24 41  1  0  0  0  0
 24 42  1  0  0  0  0
 24 43  1  0  0  0  0
M  END
> <Chemgauss4>
-12.928325

$$$$
