stable:False satoms:9 tatoms:24 sratio:0.375
  -OEChem-08062412403D

 43 44  0     1  0  0  0  0  0999 V2000
    6.2063   -4.9656   26.0319 C   0  0  0  0  0  0  0  0  0  0  0  0
    7.7436   -4.3653   25.9340 S   0  0  0  0  0  0  0  0  0  0  0  0
    8.6551   -5.4797   25.8911 O   0  0  0  0  0  0  0  0  0  0  0  0
    8.0063   -3.4952   27.0705 O   0  0  0  0  0  0  0  0  0  0  0  0
    7.7934   -3.5422   24.5451 N   0  0  0  0  0  0  0  0  0  0  0  0
    8.6794   -2.8377   24.0981 C   0  0  0  0  0  0  0  0  0  0  0  0
    9.2011   -1.9320   23.6003 C   0  0  0  0  0  0  0  0  0  0  0  0
   10.1038   -0.9970   23.3937 C   0  0  1  0  0  0  0  0  0  0  0  0
   10.5483    0.0770   24.5598 C   0  0  0  0  0  0  0  0  0  0  0  0
   11.6164    0.4237   24.6312 C   0  0  0  0  0  0  0  0  0  0  0  0
   12.7883    0.2030   24.0731 C   0  0  0  0  0  0  0  0  0  0  0  0
   12.5293   -0.9253   23.1200 C   0  0  0  0  0  0  0  0  0  0  0  0
   11.5320   -1.4204   22.9118 C   0  0  0  0  0  0  0  0  0  0  0  0
    9.5233   -0.4258   22.4622 C   0  0  0  0  0  0  0  0  0  0  0  0
    8.9187    0.1960   21.4109 C   0  0  0  0  0  0  0  0  0  0  0  0
    9.3481    1.2094   21.0428 O   0  0  0  0  0  0  0  0  0  0  0  0
    7.8654   -0.5207   20.9769 N   0  0  0  0  0  0  0  0  0  0  0  0
    7.1906   -0.0451   20.0013 C   0  0  0  0  0  0  0  0  0  0  0  0
    7.3700    0.0782   18.6823 C   0  0  0  0  0  0  0  0  0  0  0  0
    7.0482    0.3712   17.5880 N   0  0  0  0  0  0  0  0  0  0  0  0
    5.8340    0.8961   17.9658 C   0  0  0  0  0  0  0  0  0  0  0  0
    5.3250    0.9516   19.0381 C   0  0  0  0  0  0  0  0  0  0  0  0
    5.7691    0.5358   20.2600 C   0  0  0  0  0  0  0  0  0  0  0  0
    5.1401    0.6160   21.5225 C   0  0  0  0  0  0  0  0  0  0  0  0
    6.0962   -5.5435   26.9614 H   0  0  0  0  0  0  0  0  0  0  0  0
    5.4870   -4.1333   26.0305 H   0  0  0  0  0  0  0  0  0  0  0  0
    6.0123   -5.6193   25.1687 H   0  0  0  0  0  0  0  0  0  0  0  0
    6.9957   -2.9405   24.5855 H   0  0  0  0  0  0  0  0  0  0  0  0
    9.8131    0.4495   25.2577 H   0  0  0  0  0  0  0  0  0  0  0  0
   11.7099    1.1753   25.4012 H   0  0  0  0  0  0  0  0  0  0  0  0
   13.7204    0.7159   24.2588 H   0  0  0  0  0  0  0  0  0  0  0  0
   13.3815   -1.3051   22.5761 H   0  0  0  0  0  0  0  0  0  0  0  0
   11.4575   -1.4350   21.8144 H   0  0  0  0  0  0  0  0  0  0  0  0
   11.6533   -2.4481   23.2848 H   0  0  0  0  0  0  0  0  0  0  0  0
    9.3708    0.4647   23.0897 H   0  0  0  0  0  0  0  0  0  0  0  0
    8.6626   -1.1022   22.5702 H   0  0  0  0  0  0  0  0  0  0  0  0
    7.6202   -1.3921   21.4016 H   0  0  0  0  0  0  0  0  0  0  0  0
    8.3695   -0.3060   18.5414 H   0  0  0  0  0  0  0  0  0  0  0  0
    5.2528    1.3245   17.1626 H   0  0  0  0  0  0  0  0  0  0  0  0
    4.3461    1.4078   19.0475 H   0  0  0  0  0  0  0  0  0  0  0  0
    4.5547   -0.2982   21.6998 H   0  0  0  0  0  0  0  0  0  0  0  0
    5.9043    0.7198   22.3068 H   0  0  0  0  0  0  0  0  0  0  0  0
    4.4716    1.4893   21.5441 H   0  0  0  0  0  0  0  0  0  0  0  0
 20 21  2  0  0  0  0
 19 20  1  0  0  0  0
 21 22  1  0  0  0  0
 18 19  2  0  0  0  0
 22 23  2  0  0  0  0
 18 23  1  0  0  0  0
 17 18  1  0  0  0  0
 23 24  1  0  0  0  0
 15 16  2  0  0  0  0
 15 17  1  0  0  0  0
 14 15  1  0  0  0  0
  8 14  1  0  0  0  0
 12 13  1  0  0  0  0
  8 13  1  0  0  0  0
 11 12  2  0  0  0  0
  7  8  1  0  0  0  0
  8  9  1  0  0  0  0
 10 11  1  0  0  0  0
  6  7  3  0  0  0  0
  5  6  1  0  0  0  0
  9 10  2  0  0  0  0
  2  5  1  0  0  0  0
  2  3  2  0  0  0  0
  1  2  1  0  0  0  0
  2  4  2  0  0  0  0
  1 25  1  0  0  0  0
  1 26  1  0  0  0  0
  1 27  1  0  0  0  0
  5 28  1  0  0  0  0
  9 29  1  0  0  0  0
 10 30  1  0  0  0  0
 11 31  1  0  0  0  0
 12 32  1  0  0  0  0
 13 33  1  0  0  0  0
 13 34  1  0  0  0  0
 14 35  1  0  0  0  0
 14 36  1  0  0  0  0
 17 37  1  0  0  0  0
 19 38  1  0  0  0  0
 21 39  1  0  0  0  0
 22 40  1  0  0  0  0
 24 41  1  0  0  0  0
 24 42  1  0  0  0  0
 24 43  1  0  0  0  0
M  END
> <Chemgauss4>
-12.675195

$$$$
