stable:False satoms:8 tatoms:24 sratio:0.3333333333333333
  -OEChem-07092417503D

 24 24  0     1  0  0  0  0  0999 V2000
    6.6241   -4.8592   26.4268 C   0  0  0  0  0  0  0  0  0  0  0  0
    8.1868   -4.3280   26.1160 S   0  0  0  0  0  0  0  0  0  0  0  0
    9.0439   -5.4766   26.0626 O   0  0  0  0  0  0  0  0  0  0  0  0
    8.5946   -3.4282   27.1726 O   0  0  0  0  0  0  0  0  0  0  0  0
    8.1083   -3.5648   24.6894 N   0  0  0  0  0  0  0  0  0  0  0  0
    8.9775   -2.9309   24.1297 C   0  0  0  0  0  0  0  0  0  0  0  0
    9.4136   -1.9875   23.4832 C   0  0  0  0  0  0  0  0  0  0  0  0
   10.3161   -1.0685   23.3033 C   0  0  2  0  0  0  0  0  0  0  0  0
   10.9897   -0.0272   24.2624 C   0  0  0  0  0  0  0  0  0  0  0  0
   12.0885    0.2707   24.2010 C   0  0  0  0  0  0  0  0  0  0  0  0
   13.1216   -0.1116   23.4909 C   0  0  0  0  0  0  0  0  0  0  0  0
   12.7168   -1.3363   22.6095 C   0  0  0  0  0  0  0  0  0  0  0  0
   11.8223   -1.7487   22.4884 C   0  0  0  0  0  0  0  0  0  0  0  0
    9.7493   -0.5632   22.3439 C   0  0  0  0  0  0  0  0  0  0  0  0
    9.0770    0.0492   21.3918 C   0  0  0  0  0  0  0  0  0  0  0  0
    9.5420    1.0004   20.9936 O   0  0  0  0  0  0  0  0  0  0  0  0
    7.9529   -0.5501   21.0777 N   0  0  0  0  0  0  0  0  0  0  0  0
    7.2281   -0.0901   20.1568 C   0  0  0  0  0  0  0  0  0  0  0  0
    7.2542   -0.0044   18.8922 C   0  0  0  0  0  0  0  0  0  0  0  0
    6.7530    0.3013   17.7954 N   0  0  0  0  0  0  0  0  0  0  0  0
    5.6317    0.8753   18.2413 C   0  0  0  0  0  0  0  0  0  0  0  0
    5.2357    0.9813   19.4185 C   0  0  0  0  0  0  0  0  0  0  0  0
    5.8130    0.5843   20.5486 C   0  0  0  0  0  0  0  0  0  0  0  0
    5.3435    0.7227   22.0010 C   0  0  0  0  0  0  0  0  0  0  0  0
 20 21  2  0  0  0  0
 19 20  1  0  0  0  0
 21 22  1  0  0  0  0
 18 19  2  0  0  0  0
 22 23  2  0  0  0  0
 18 23  1  0  0  0  0
 17 18  1  0  0  0  0
 23 24  1  0  0  0  0
 15 16  2  0  0  0  0
 15 17  1  0  0  0  0
 14 15  1  0  0  0  0
  8 14  1  0  0  0  0
 12 13  2  0  0  0  0
 11 12  1  0  0  0  0
  7  8  1  0  0  0  0
  8  9  1  0  0  0  0
  6  7  2  3  0  0  0
 10 11  1  0  0  0  0
  5  6  1  0  0  0  0
  9 10  2  0  0  0  0
  2  5  1  0  0  0  0
  2  3  2  0  0  0  0
  1  2  1  0  0  0  0
  2  4  2  0  0  0  0
M  END
> <Shapegauss>
-286.083130

$$$$
