stable:False satoms:8 tatoms:24 sratio:0.3333333333333333
  -OEChem-08062415583D

 47 47  0     1  0  0  0  0  0999 V2000
    6.3654   -5.1323   26.2221 C   0  0  0  0  0  0  0  0  0  0  0  0
    7.9342   -4.5609   26.0399 S   0  0  0  0  0  0  0  0  0  0  0  0
    8.8161   -5.6910   25.9950 O   0  0  0  0  0  0  0  0  0  0  0  0
    8.2528   -3.7017   27.1591 O   0  0  0  0  0  0  0  0  0  0  0  0
    7.9351   -3.7370   24.6453 N   0  0  0  0  0  0  0  0  0  0  0  0
    8.8264   -3.0641   24.1729 C   0  0  0  0  0  0  0  0  0  0  0  0
    9.2853   -2.0857   23.5981 C   0  0  0  0  0  0  0  0  0  0  0  0
   10.1789   -1.1441   23.5187 C   0  0  2  0  0  0  0  0  0  0  0  0
   10.7662   -0.1346   24.5646 C   0  0  0  0  0  0  0  0  0  0  0  0
   11.8604    0.1847   24.5899 C   0  0  0  0  0  0  0  0  0  0  0  0
   12.9458   -0.1479   23.9350 C   0  0  0  0  0  0  0  0  0  0  0  0
   12.6252   -1.3394   22.9768 C   0  0  0  0  0  0  0  0  0  0  0  0
   11.7493   -1.7615   22.7784 C   0  0  0  0  0  0  0  0  0  0  0  0
    9.6668   -0.6069   22.5460 C   0  0  0  0  0  0  0  0  0  0  0  0
    9.0469    0.0351   21.5780 C   0  0  0  0  0  0  0  0  0  0  0  0
    9.5179    1.0109   21.2530 O   0  0  0  0  0  0  0  0  0  0  0  0
    7.9584   -0.5691   21.1638 N   0  0  0  0  0  0  0  0  0  0  0  0
    7.2871   -0.0816   20.2169 C   0  0  0  0  0  0  0  0  0  0  0  0
    7.3953    0.0602   18.9617 C   0  0  0  0  0  0  0  0  0  0  0  0
    6.9618    0.4052   17.8478 N   0  0  0  0  0  0  0  0  0  0  0  0
    5.8020    0.9395   18.2417 C   0  0  0  0  0  0  0  0  0  0  0  0
    5.3268    0.9866   19.3931 C   0  0  0  0  0  0  0  0  0  0  0  0
    5.8358    0.5502   20.5413 C   0  0  0  0  0  0  0  0  0  0  0  0
    5.2683    0.6163   21.9635 C   0  0  0  0  0  0  0  0  0  0  0  0
    6.2902   -5.7068   27.1571 H   0  0  0  0  0  0  0  0  0  0  0  0
    5.6676   -4.2827   26.2567 H   0  0  0  0  0  0  0  0  0  0  0  0
    6.1108   -5.7816   25.3715 H   0  0  0  0  0  0  0  0  0  0  0  0
    7.1594   -3.1105   24.7219 H   0  0  0  0  0  0  0  0  0  0  0  0
    9.7054   -3.6606   24.3681 H   0  0  0  0  0  0  0  0  0  0  0  0
    8.6363   -1.9290   22.7491 H   0  0  0  0  0  0  0  0  0  0  0  0
   11.0835   -1.6447   23.1432 H   0  0  0  0  0  0  0  0  0  0  0  0
   10.0966    0.2818   25.3026 H   0  0  0  0  0  0  0  0  0  0  0  0
   12.0478    0.9453   25.3334 H   0  0  0  0  0  0  0  0  0  0  0  0
   13.7273   -0.4496   24.6480 H   0  0  0  0  0  0  0  0  0  0  0  0
   13.2984    0.7122   23.3469 H   0  0  0  0  0  0  0  0  0  0  0  0
   13.4737   -1.7619   22.4590 H   0  0  0  0  0  0  0  0  0  0  0  0
   11.6925   -2.5868   22.0841 H   0  0  0  0  0  0  0  0  0  0  0  0
   10.8528   -1.3956   23.2567 H   0  0  0  0  0  0  0  0  0  0  0  0
    9.3975   -1.5813   22.1124 H   0  0  0  0  0  0  0  0  0  0  0  0
   10.6499   -0.2946   22.1637 H   0  0  0  0  0  0  0  0  0  0  0  0
    7.6617   -1.4182   21.6008 H   0  0  0  0  0  0  0  0  0  0  0  0
    8.3840   -0.3170   18.7459 H   0  0  0  0  0  0  0  0  0  0  0  0
    5.2005    1.3869   17.4643 H   0  0  0  0  0  0  0  0  0  0  0  0
    4.3552    1.4520   19.4696 H   0  0  0  0  0  0  0  0  0  0  0  0
    4.6849   -0.2934   22.1687 H   0  0  0  0  0  0  0  0  0  0  0  0
    6.0953    0.6919   22.6850 H   0  0  0  0  0  0  0  0  0  0  0  0
    4.6176    1.4981   22.0579 H   0  0  0  0  0  0  0  0  0  0  0  0
 20 21  2  0  0  0  0
 19 20  1  0  0  0  0
 21 22  1  0  0  0  0
 18 19  2  0  0  0  0
 22 23  2  0  0  0  0
 18 23  1  0  0  0  0
 17 18  1  0  0  0  0
 23 24  1  0  0  0  0
 15 16  2  0  0  0  0
 15 17  1  0  0  0  0
 14 15  1  0  0  0  0
  8 14  1  0  0  0  0
 12 13  2  0  0  0  0
 11 12  1  0  0  0  0
  7  8  1  0  0  0  0
  8  9  1  0  0  0  0
  6  7  2  3  0  0  0
 10 11  1  0  0  0  0
  5  6  1  0  0  0  0
  9 10  2  0  0  0  0
  2  5  1  0  0  0  0
  2  3  2  0  0  0  0
  1  2  1  0  0  0  0
  2  4  2  0  0  0  0
  1 25  1  0  0  0  0
  1 26  1  0  0  0  0
  1 27  1  0  0  0  0
  5 28  1  0  0  0  0
  6 29  1  0  0  0  0
  7 30  1  0  0  0  0
  8 31  1  0  0  0  0
  9 32  1  0  0  0  0
 10 33  1  0  0  0  0
 11 34  1  0  0  0  0
 11 35  1  0  0  0  0
 12 36  1  0  0  0  0
 13 37  1  0  0  0  0
 13 38  1  0  0  0  0
 14 39  1  0  0  0  0
 14 40  1  0  0  0  0
 17 41  1  0  0  0  0
 19 42  1  0  0  0  0
 21 43  1  0  0  0  0
 22 44  1  0  0  0  0
 24 45  1  0  0  0  0
 24 46  1  0  0  0  0
 24 47  1  0  0  0  0
M  END
> <Chemgauss4>
-13.353033

$$$$
