stable:False satoms:8 tatoms:24 sratio:0.3333333333333333
  -OEChem-08062415583D

 47 47  0     1  0  0  0  0  0999 V2000
   -6.7067   -5.3062  -26.2102 C   0  0  0  0  0  0  0  0  0  0  0  0
   -8.2755   -4.7348  -26.0280 S   0  0  0  0  0  0  0  0  0  0  0  0
   -9.1573   -5.8649  -25.9831 O   0  0  0  0  0  0  0  0  0  0  0  0
   -8.5941   -3.8755  -27.1472 O   0  0  0  0  0  0  0  0  0  0  0  0
   -8.2763   -3.9109  -24.6333 N   0  0  0  0  0  0  0  0  0  0  0  0
   -9.1677   -3.2380  -24.1609 C   0  0  0  0  0  0  0  0  0  0  0  0
   -9.6265   -2.2596  -23.5862 C   0  0  0  0  0  0  0  0  0  0  0  0
  -10.5202   -1.3180  -23.5068 C   0  0  2  0  0  0  0  0  0  0  0  0
  -11.1075   -0.3085  -24.5527 C   0  0  0  0  0  0  0  0  0  0  0  0
  -12.2017    0.0108  -24.5780 C   0  0  0  0  0  0  0  0  0  0  0  0
  -13.2871   -0.3218  -23.9231 C   0  0  0  0  0  0  0  0  0  0  0  0
  -12.9665   -1.5133  -22.9648 C   0  0  0  0  0  0  0  0  0  0  0  0
  -12.0906   -1.9354  -22.7664 C   0  0  0  0  0  0  0  0  0  0  0  0
  -10.0081   -0.7808  -22.5340 C   0  0  0  0  0  0  0  0  0  0  0  0
   -9.3882   -0.1388  -21.5661 C   0  0  0  0  0  0  0  0  0  0  0  0
   -9.8592    0.8370  -21.2411 O   0  0  0  0  0  0  0  0  0  0  0  0
   -8.2997   -0.7430  -21.1518 N   0  0  0  0  0  0  0  0  0  0  0  0
   -7.6284   -0.2555  -20.2049 C   0  0  0  0  0  0  0  0  0  0  0  0
   -7.7366   -0.1137  -18.9498 C   0  0  0  0  0  0  0  0  0  0  0  0
   -7.3031    0.2314  -17.8359 N   0  0  0  0  0  0  0  0  0  0  0  0
   -6.1433    0.7656  -18.2297 C   0  0  0  0  0  0  0  0  0  0  0  0
   -5.6681    0.8127  -19.3812 C   0  0  0  0  0  0  0  0  0  0  0  0
   -6.1771    0.3763  -20.5294 C   0  0  0  0  0  0  0  0  0  0  0  0
   -5.6096    0.4424  -21.9516 C   0  0  0  0  0  0  0  0  0  0  0  0
   -6.6314   -5.8807  -27.1452 H   0  0  0  0  0  0  0  0  0  0  0  0
   -6.0089   -4.4566  -26.2448 H   0  0  0  0  0  0  0  0  0  0  0  0
   -6.4520   -5.9555  -25.3595 H   0  0  0  0  0  0  0  0  0  0  0  0
   -7.5007   -3.2844  -24.7100 H   0  0  0  0  0  0  0  0  0  0  0  0
  -10.0466   -3.8344  -24.3561 H   0  0  0  0  0  0  0  0  0  0  0  0
   -8.9776   -2.1029  -22.7372 H   0  0  0  0  0  0  0  0  0  0  0  0
  -11.4248   -1.8186  -23.1312 H   0  0  0  0  0  0  0  0  0  0  0  0
  -10.4379    0.1079  -25.2907 H   0  0  0  0  0  0  0  0  0  0  0  0
  -12.3891    0.7714  -25.3215 H   0  0  0  0  0  0  0  0  0  0  0  0
  -14.0686   -0.6235  -24.6360 H   0  0  0  0  0  0  0  0  0  0  0  0
  -13.6396    0.5383  -23.3349 H   0  0  0  0  0  0  0  0  0  0  0  0
  -13.8150   -1.9357  -22.4471 H   0  0  0  0  0  0  0  0  0  0  0  0
  -12.0337   -2.7607  -22.0721 H   0  0  0  0  0  0  0  0  0  0  0  0
  -11.1941   -1.5695  -23.2448 H   0  0  0  0  0  0  0  0  0  0  0  0
   -9.7388   -1.7552  -22.1005 H   0  0  0  0  0  0  0  0  0  0  0  0
  -10.9912   -0.4685  -22.1518 H   0  0  0  0  0  0  0  0  0  0  0  0
   -8.0029   -1.5921  -21.5889 H   0  0  0  0  0  0  0  0  0  0  0  0
   -8.7253   -0.4909  -18.7339 H   0  0  0  0  0  0  0  0  0  0  0  0
   -5.5418    1.2131  -17.4523 H   0  0  0  0  0  0  0  0  0  0  0  0
   -4.6965    1.2781  -19.4576 H   0  0  0  0  0  0  0  0  0  0  0  0
   -5.0262   -0.4673  -22.1568 H   0  0  0  0  0  0  0  0  0  0  0  0
   -6.4365    0.5180  -22.6730 H   0  0  0  0  0  0  0  0  0  0  0  0
   -4.9589    1.3242  -22.0460 H   0  0  0  0  0  0  0  0  0  0  0  0
 20 21  2  0  0  0  0
 19 20  1  0  0  0  0
 21 22  1  0  0  0  0
 18 19  2  0  0  0  0
 22 23  2  0  0  0  0
 18 23  1  0  0  0  0
 17 18  1  0  0  0  0
 23 24  1  0  0  0  0
 15 16  2  0  0  0  0
 15 17  1  0  0  0  0
 14 15  1  0  0  0  0
  8 14  1  0  0  0  0
 12 13  2  0  0  0  0
 11 12  1  0  0  0  0
  7  8  1  0  0  0  0
  8  9  1  0  0  0  0
  6  7  2  3  0  0  0
 10 11  1  0  0  0  0
  5  6  1  0  0  0  0
  9 10  2  0  0  0  0
  2  5  1  0  0  0  0
  2  3  2  0  0  0  0
  1  2  1  0  0  0  0
  2  4  2  0  0  0  0
  1 25  1  0  0  0  0
  1 26  1  0  0  0  0
  1 27  1  0  0  0  0
  5 28  1  0  0  0  0
  6 29  1  0  0  0  0
  7 30  1  0  0  0  0
  8 31  1  0  0  0  0
  9 32  1  0  0  0  0
 10 33  1  0  0  0  0
 11 34  1  0  0  0  0
 11 35  1  0  0  0  0
 12 36  1  0  0  0  0
 13 37  1  0  0  0  0
 13 38  1  0  0  0  0
 14 39  1  0  0  0  0
 14 40  1  0  0  0  0
 17 41  1  0  0  0  0
 19 42  1  0  0  0  0
 21 43  1  0  0  0  0
 22 44  1  0  0  0  0
 24 45  1  0  0  0  0
 24 46  1  0  0  0  0
 24 47  1  0  0  0  0
M  END
> <Chemgauss4>
-13.119033

$$$$
