stable:False satoms:18 tatoms:24 sratio:0.75
  -OEChem-07092417313D

 24 24  0     1  0  0  0  0  0999 V2000
    9.8385   -3.3571   24.4311 H   0  0  0  0  0  0  0  0  0  0  0  0
    8.7754   -4.3523   22.9661 H   0  0  0  0  0  0  0  0  0  0  0  0
   10.2302   -1.4823   25.7461 H   0  0  0  0  0  0  0  0  0  0  0  0
    8.5741   -3.4599   22.5449 N   0  0  0  0  0  0  0  0  0  0  0  0
    8.0119   -3.4245   21.7202 H   0  0  0  0  0  0  0  0  0  0  0  0
   10.6154   -1.4517   24.7009 C   0  0  0  0  0  0  0  0  0  0  0  0
    8.4867    0.1399   23.0953 C   0  0  0  0  0  0  0  0  0  0  0  0
    9.9369   -2.4350   23.9893 N   0  0  0  0  0  0  0  0  0  0  0  0
    9.1131    0.9775   25.2789 O   0  0  0  0  0  0  0  0  0  0  0  0
    9.3750    0.3889   24.2719 C   0  0  0  0  0  0  0  0  0  0  0  0
   11.7094   -1.6332   24.6374 H   0  0  0  0  0  0  0  0  0  0  0  0
   10.5658   -0.1483   24.0897 O   0  0  0  0  0  0  0  0  0  0  0  0
    8.6384   -1.0660   22.4159 C   0  0  0  0  0  0  0  0  0  0  0  0
    9.0957   -2.2786   22.9593 C   0  0  3  0  0  0  0  0  0  0  0  0
    8.9964   -1.8602   19.8110 H   0  0  0  0  0  0  0  0  0  0  0  0
    7.9665   -1.6685   20.0259 C   0  0  0  0  0  0  0  0  0  0  0  0
    6.8949   -1.8253   20.0060 H   0  0  0  0  0  0  0  0  0  0  0  0
    8.0551   -0.9262   21.2059 O   0  0  0  0  0  0  0  0  0  0  0  0
    7.7652   -2.4084   18.4149 O   0  0  0  0  0  0  0  0  0  0  0  0
    7.6000   -1.6940   17.9071 H   0  0  0  0  0  0  0  0  0  0  0  0
    6.9910    0.8838   21.6883 H   0  0  0  0  0  0  0  0  0  0  0  0
    7.4837    2.3465   22.9491 O   0  0  0  0  0  0  0  0  0  0  0  0
    7.5984    1.1017   22.5575 C   0  3  0  0  0  0  0  0  0  0  0  0
    7.2664    2.3434   23.8840 H   0  0  0  0  0  0  0  0  0  0  0  0
 19 20  1  0  0  0  0
 16 19  1  0  0  0  0
 15 16  1  0  0  0  0
 16 17  1  0  0  0  0
 16 18  1  0  0  0  0
 13 18  1  0  0  0  0
 21 23  1  0  0  0  0
  4  5  1  0  0  0  0
 13 14  1  0  0  0  0
  7 13  2  0  0  0  0
  4 14  1  0  0  0  0
  2  4  1  0  0  0  0
 22 23  1  0  0  0  0
  7 23  1  0  0  0  0
 22 24  1  0  0  0  0
  8 14  1  0  0  0  0
  7 10  1  0  0  0  0
  1  8  1  0  0  0  0
  6  8  1  0  0  0  0
 10 12  1  0  0  0  0
  6 12  1  0  0  0  0
  9 10  2  0  0  0  0
  6 11  1  0  0  0  0
  3  6  1  0  0  0  0
M  CHG  1  23   1
M  END
> <Shapegauss>
-101.730324

$$$$
