MODEL 1
REMARK VINA RESULT:    -5.116      0.000      0.000
REMARK INTER + INTRA:          -5.933
REMARK INTER:                  -5.863
REMARK INTRA:                  -0.070
REMARK UNBOUND:                -0.070
REMARK  5 active torsions:
REMARK  status: ('A' for Active; 'I' for Inactive)
REMARK    1  A    between atoms: N_3  and  C_12 
REMARK    2  A    between atoms: C_11  and  O_14 
REMARK    3  A    between atoms: C_13  and  O_15 
REMARK    4  A    between atoms: C_13  and  O_14 
REMARK    5  A    between atoms: O_17  and  C_18 
ROOT
HETATM    1  H   UNL     1       9.802  -3.241  22.579  1.00  0.00     0.163 HD
HETATM    2  C   UNL     1       7.771  -3.296  22.999  1.00  0.00     0.303 C 
HETATM    3  C   UNL     1       6.837  -1.087  21.027  1.00  0.00     0.098 C 
HETATM    4  N   UNL     1       8.953  -2.665  22.629  1.00  0.00    -0.353 N 
HETATM    5  O   UNL     1       5.587  -3.160  21.073  1.00  0.00    -0.259 OA
HETATM    6  C   UNL     1       6.263  -2.336  21.615  1.00  0.00     0.299 C 
HETATM    7  O   UNL     1       6.601  -2.462  22.884  1.00  0.00    -0.298 OA
HETATM    8  C   UNL     1       8.084  -0.671  21.485  1.00  0.00     0.133 C 
HETATM    9  C   UNL     1       9.103  -1.494  21.998  1.00  0.00     0.131 C 
HETATM   10  C   UNL     1       6.138  -0.241  20.133  1.00  0.00     0.151 C 
ENDROOT
BRANCH   8  11
HETATM   11  O   UNL     1       8.230   0.627  21.143  1.00  0.00    -0.321 OA
BRANCH  11  12
HETATM   12  C   UNL     1       8.547   1.822  21.792  1.00  0.00     0.341 C 
BRANCH  12  13
HETATM   13  O   UNL     1       8.790   3.457  22.464  1.00  0.00    -0.377 OA
HETATM   14  H   UNL     1       9.263   3.283  23.199  1.00  0.00     0.212 HD
ENDBRANCH  12  13
ENDBRANCH  11  12
ENDBRANCH   8  11
BRANCH   9  15
HETATM   15  N   UNL     1      10.406  -1.214  21.747  1.00  0.00    -0.383 N 
HETATM   16  H   UNL     1      10.926  -1.572  20.964  1.00  0.00     0.157 HD
HETATM   17  H   UNL     1      10.878  -0.672  22.441  1.00  0.00     0.157 HD
ENDBRANCH   9  15
BRANCH  10  18
HETATM   18  O   UNL     1       4.890  -0.377  19.762  1.00  0.00    -0.371 OA
HETATM   19  H   UNL     1       4.414   0.412  20.033  1.00  0.00     0.216 HD
ENDBRANCH  10  18
TORSDOF 5
ENDMDL
MODEL 2
REMARK VINA RESULT:    -5.008     20.508     22.254
REMARK INTER + INTRA:          -5.810
REMARK INTER:                  -5.740
REMARK INTRA:                  -0.071
REMARK UNBOUND:                -0.070
REMARK  5 active torsions:
REMARK  status: ('A' for Active; 'I' for Inactive)
REMARK    1  A    between atoms: N_3  and  C_12 
REMARK    2  A    between atoms: C_11  and  O_14 
REMARK    3  A    between atoms: C_13  and  O_15 
REMARK    4  A    between atoms: C_13  and  O_14 
REMARK    5  A    between atoms: O_17  and  C_18 
ROOT
HETATM    1  H   UNL     1       2.364 -16.723   8.016  1.00  0.00     0.163 HD
HETATM    2  C   UNL     1       1.931 -18.731   8.310  1.00  0.00     0.303 C 
HETATM    3  C   UNL     1      -0.952 -18.419   9.418  1.00  0.00     0.098 C 
HETATM    4  N   UNL     1       1.839 -17.377   8.610  1.00  0.00    -0.353 N 
HETATM    5  O   UNL     1      -0.578 -20.082   7.698  1.00  0.00    -0.259 OA
HETATM    6  C   UNL     1      -0.193 -19.436   8.628  1.00  0.00     0.299 C 
HETATM    7  O   UNL     1       1.040 -19.563   9.078  1.00  0.00    -0.298 OA
HETATM    8  C   UNL     1      -0.247 -17.322   9.906  1.00  0.00     0.133 C 
HETATM    9  C   UNL     1       0.908 -16.753   9.342  1.00  0.00     0.131 C 
HETATM   10  C   UNL     1      -2.307 -18.567   9.803  1.00  0.00     0.151 C 
ENDROOT
BRANCH   8  11
HETATM   11  O   UNL     1      -0.992 -16.763  10.884  1.00  0.00    -0.321 OA
BRANCH  11  12
HETATM   12  C   UNL     1      -0.815 -16.410  12.224  1.00  0.00     0.341 C 
BRANCH  12  13
HETATM   13  O   UNL     1      -0.490 -15.748  13.848  1.00  0.00    -0.377 OA
HETATM   14  H   UNL     1      -0.706 -16.436  14.372  1.00  0.00     0.212 HD
ENDBRANCH  12  13
ENDBRANCH  11  12
ENDBRANCH   8  11
BRANCH   9  15
HETATM   15  N   UNL     1       1.103 -15.412   9.378  1.00  0.00    -0.383 N 
HETATM   16  H   UNL     1       0.905 -14.785   8.616  1.00  0.00     0.157 HD
HETATM   17  H   UNL     1       1.542 -15.056  10.202  1.00  0.00     0.157 HD
ENDBRANCH   9  15
BRANCH  10  18
HETATM   18  O   UNL     1      -3.051 -19.625   9.602  1.00  0.00    -0.371 OA
HETATM   19  H   UNL     1      -3.526 -19.500   8.777  1.00  0.00     0.216 HD
ENDBRANCH  10  18
TORSDOF 5
ENDMDL
MODEL 3
REMARK VINA RESULT:    -4.988     17.231     18.525
REMARK INTER + INTRA:          -5.787
REMARK INTER:                  -5.725
REMARK INTRA:                  -0.062
REMARK UNBOUND:                -0.070
REMARK  5 active torsions:
REMARK  status: ('A' for Active; 'I' for Inactive)
REMARK    1  A    between atoms: N_3  and  C_12 
REMARK    2  A    between atoms: C_11  and  O_14 
REMARK    3  A    between atoms: C_13  and  O_15 
REMARK    4  A    between atoms: C_13  and  O_14 
REMARK    5  A    between atoms: O_17  and  C_18 
ROOT
HETATM    1  H   UNL     1      23.129   0.699  17.694  1.00  0.00     0.163 HD
HETATM    2  C   UNL     1      22.914  -1.219  16.930  1.00  0.00     0.303 C 
HETATM    3  C   UNL     1      25.223  -1.144  14.855  1.00  0.00     0.098 C 
HETATM    4  N   UNL     1      23.236   0.131  16.844  1.00  0.00    -0.353 N 
HETATM    5  O   UNL     1      25.054  -3.090  16.287  1.00  0.00    -0.259 OA
HETATM    6  C   UNL     1      24.550  -2.178  15.699  1.00  0.00     0.299 C 
HETATM    7  O   UNL     1      23.248  -1.976  15.750  1.00  0.00    -0.298 OA
HETATM    8  C   UNL     1      24.694   0.144  14.866  1.00  0.00     0.133 C 
HETATM    9  C   UNL     1      23.985   0.746  15.920  1.00  0.00     0.131 C 
HETATM   10  C   UNL     1      26.279  -1.424  13.955  1.00  0.00     0.151 C 
ENDROOT
BRANCH   8  11
HETATM   11  O   UNL     1      25.174   0.789  13.782  1.00  0.00    -0.321 OA
BRANCH  11  12
HETATM   12  C   UNL     1      24.643   1.409  12.648  1.00  0.00     0.341 C 
BRANCH  12  13
HETATM   13  O   UNL     1      23.764   2.245  11.340  1.00  0.00    -0.377 OA
HETATM   14  H   UNL     1      23.092   1.680  11.183  1.00  0.00     0.212 HD
ENDBRANCH  12  13
ENDBRANCH  11  12
ENDBRANCH   8  11
BRANCH   9  15
HETATM   15  N   UNL     1      24.133   2.068  16.183  1.00  0.00    -0.383 N 
HETATM   16  H   UNL     1      24.589   2.724  15.571  1.00  0.00     0.157 HD
HETATM   17  H   UNL     1      23.826   2.373  17.084  1.00  0.00     0.157 HD
ENDBRANCH   9  15
BRANCH  10  18
HETATM   18  O   UNL     1      26.756  -2.610  13.673  1.00  0.00    -0.371 OA
HETATM   19  H   UNL     1      26.482  -3.211  14.370  1.00  0.00     0.216 HD
ENDBRANCH  10  18
TORSDOF 5
ENDMDL
MODEL 4
REMARK VINA RESULT:    -4.896      1.913      3.891
REMARK INTER + INTRA:          -5.682
REMARK INTER:                  -5.613
REMARK INTRA:                  -0.070
REMARK UNBOUND:                -0.070
REMARK  5 active torsions:
REMARK  status: ('A' for Active; 'I' for Inactive)
REMARK    1  A    between atoms: N_3  and  C_12 
REMARK    2  A    between atoms: C_11  and  O_14 
REMARK    3  A    between atoms: C_13  and  O_15 
REMARK    4  A    between atoms: C_13  and  O_14 
REMARK    5  A    between atoms: O_17  and  C_18 
ROOT
HETATM    1  H   UNL     1       7.251  -3.271  23.827  1.00  0.00     0.163 HD
HETATM    2  C   UNL     1       9.154  -2.655  23.275  1.00  0.00     0.303 C 
HETATM    3  C   UNL     1       8.397   0.072  21.996  1.00  0.00     0.098 C 
HETATM    4  N   UNL     1       7.774  -2.734  23.125  1.00  0.00    -0.353 N 
HETATM    5  O   UNL     1      10.263   0.027  23.539  1.00  0.00    -0.259 OA
HETATM    6  C   UNL     1       9.572  -0.504  22.720  1.00  0.00     0.299 C 
HETATM    7  O   UNL     1       9.792  -1.751  22.352  1.00  0.00    -0.298 OA
HETATM    8  C   UNL     1       7.344  -0.786  21.690  1.00  0.00     0.133 C 
HETATM    9  C   UNL     1       6.974  -1.942  22.401  1.00  0.00     0.131 C 
HETATM   10  C   UNL     1       8.347   1.395  21.496  1.00  0.00     0.151 C 
ENDROOT
BRANCH   8  11
HETATM   11  O   UNL     1       6.603  -0.193  20.729  1.00  0.00    -0.321 OA
BRANCH  11  12
HETATM   12  C   UNL     1       6.148  -0.517  19.448  1.00  0.00     0.341 C 
BRANCH  12  13
HETATM   13  O   UNL     1       5.742  -0.771  17.730  1.00  0.00    -0.377 OA
HETATM   14  H   UNL     1       5.125  -0.142  17.595  1.00  0.00     0.212 HD
ENDBRANCH  12  13
ENDBRANCH  11  12
ENDBRANCH   8  11
BRANCH   9  15
HETATM   15  N   UNL     1       5.667  -2.281  22.532  1.00  0.00    -0.383 N 
HETATM   16  H   UNL     1       5.129  -2.165  23.374  1.00  0.00     0.157 HD
HETATM   17  H   UNL     1       5.254  -2.742  21.748  1.00  0.00     0.157 HD
ENDBRANCH   9  15
BRANCH  10  18
HETATM   18  O   UNL     1       9.327   2.263  21.518  1.00  0.00    -0.371 OA
HETATM   19  H   UNL     1      10.119   1.822  21.202  1.00  0.00     0.216 HD
ENDBRANCH  10  18
TORSDOF 5
ENDMDL
MODEL 5
REMARK VINA RESULT:    -4.886     18.781     19.591
REMARK INTER + INTRA:          -5.671
REMARK INTER:                  -5.915
REMARK INTRA:                   0.244
REMARK UNBOUND:                -0.070
REMARK  5 active torsions:
REMARK  status: ('A' for Active; 'I' for Inactive)
REMARK    1  A    between atoms: N_3  and  C_12 
REMARK    2  A    between atoms: C_11  and  O_14 
REMARK    3  A    between atoms: C_13  and  O_15 
REMARK    4  A    between atoms: C_13  and  O_14 
REMARK    5  A    between atoms: O_17  and  C_18 
ROOT
HETATM    1  H   UNL     1      -0.438 -17.360  18.435  1.00  0.00     0.163 HD
HETATM    2  C   UNL     1      -2.284 -16.419  18.548  1.00  0.00     0.303 C 
HETATM    3  C   UNL     1      -3.138 -16.732  15.579  1.00  0.00     0.098 C 
HETATM    4  N   UNL     1      -1.108 -16.790  17.905  1.00  0.00    -0.353 N 
HETATM    5  O   UNL     1      -4.763 -17.287  17.286  1.00  0.00    -0.259 OA
HETATM    6  C   UNL     1      -3.821 -16.657  16.907  1.00  0.00     0.299 C 
HETATM    7  O   UNL     1      -3.240 -15.767  17.690  1.00  0.00    -0.298 OA
HETATM    8  C   UNL     1      -1.759 -16.537  15.550  1.00  0.00     0.133 C 
HETATM    9  C   UNL     1      -0.855 -16.809  16.591  1.00  0.00     0.131 C 
HETATM   10  C   UNL     1      -3.820 -16.864  14.346  1.00  0.00     0.151 C 
ENDROOT
BRANCH   8  11
HETATM   11  O   UNL     1      -1.417 -16.256  14.274  1.00  0.00    -0.321 OA
BRANCH  11  12
HETATM   12  C   UNL     1      -0.361 -16.564  13.412  1.00  0.00     0.341 C 
BRANCH  12  13
HETATM   13  O   UNL     1       0.975 -16.718  12.240  1.00  0.00    -0.377 OA
HETATM   14  H   UNL     1       1.149 -15.864  12.050  1.00  0.00     0.212 HD
ENDBRANCH  12  13
ENDBRANCH  11  12
ENDBRANCH   8  11
BRANCH   9  15
HETATM   15  N   UNL     1       0.387 -17.281  16.319  1.00  0.00    -0.383 N 
HETATM   16  H   UNL     1       1.220 -17.017  16.818  1.00  0.00     0.157 HD
HETATM   17  H   UNL     1       0.464 -17.874  15.519  1.00  0.00     0.157 HD
ENDBRANCH   9  15
BRANCH  10  18
HETATM   18  O   UNL     1      -5.118 -16.855  14.181  1.00  0.00    -0.371 OA
HETATM   19  H   UNL     1      -5.330 -17.462  13.468  1.00  0.00     0.216 HD
ENDBRANCH  10  18
TORSDOF 5
ENDMDL
MODEL 6
REMARK VINA RESULT:    -4.883      3.579      5.566
REMARK INTER + INTRA:          -5.667
REMARK INTER:                  -5.769
REMARK INTRA:                   0.102
REMARK UNBOUND:                -0.070
REMARK  5 active torsions:
REMARK  status: ('A' for Active; 'I' for Inactive)
REMARK    1  A    between atoms: N_3  and  C_12 
REMARK    2  A    between atoms: C_11  and  O_14 
REMARK    3  A    between atoms: C_13  and  O_15 
REMARK    4  A    between atoms: C_13  and  O_14 
REMARK    5  A    between atoms: O_17  and  C_18 
ROOT
HETATM    1  H   UNL     1      10.130   1.216  26.005  1.00  0.00     0.163 HD
HETATM    2  C   UNL     1      11.202   0.078  24.641  1.00  0.00     0.303 C 
HETATM    3  C   UNL     1       9.003  -2.007  23.959  1.00  0.00     0.098 C 
HETATM    4  N   UNL     1      10.251   0.264  25.638  1.00  0.00    -0.353 N 
HETATM    5  O   UNL     1      10.218  -1.005  22.120  1.00  0.00    -0.259 OA
HETATM    6  C   UNL     1      10.161  -1.375  23.255  1.00  0.00     0.299 C 
HETATM    7  O   UNL     1      11.194  -1.243  24.065  1.00  0.00    -0.298 OA
HETATM    8  C   UNL     1       8.829  -1.712  25.309  1.00  0.00     0.133 C 
HETATM    9  C   UNL     1       9.228  -0.535  25.965  1.00  0.00     0.131 C 
HETATM   10  C   UNL     1       8.156  -2.978  23.373  1.00  0.00     0.151 C 
ENDROOT
BRANCH   8  11
HETATM   11  O   UNL     1       8.011  -2.653  25.827  1.00  0.00    -0.321 OA
BRANCH  11  12
HETATM   12  C   UNL     1       8.154  -3.840  26.551  1.00  0.00     0.341 C 
BRANCH  12  13
HETATM   13  O   UNL     1       8.572  -5.357  27.392  1.00  0.00    -0.377 OA
HETATM   14  H   UNL     1       7.807  -5.811  27.338  1.00  0.00     0.212 HD
ENDBRANCH  12  13
ENDBRANCH  11  12
ENDBRANCH   8  11
BRANCH   9  15
HETATM   15  N   UNL     1       8.468  -0.008  26.958  1.00  0.00    -0.383 N 
HETATM   16  H   UNL     1       8.634  -0.151  27.940  1.00  0.00     0.157 HD
HETATM   17  H   UNL     1       7.654   0.492  26.667  1.00  0.00     0.157 HD
ENDBRANCH   9  15
BRANCH  10  18
HETATM   18  O   UNL     1       8.306  -3.514  22.188  1.00  0.00    -0.371 OA
HETATM   19  H   UNL     1       9.178  -3.913  22.153  1.00  0.00     0.216 HD
ENDBRANCH  10  18
TORSDOF 5
ENDMDL
MODEL 7
REMARK VINA RESULT:    -4.756      5.379      6.881
REMARK INTER + INTRA:          -5.521
REMARK INTER:                  -5.753
REMARK INTRA:                   0.232
REMARK UNBOUND:                -0.070
REMARK  5 active torsions:
REMARK  status: ('A' for Active; 'I' for Inactive)
REMARK    1  A    between atoms: N_3  and  C_12 
REMARK    2  A    between atoms: C_11  and  O_14 
REMARK    3  A    between atoms: C_13  and  O_15 
REMARK    4  A    between atoms: C_13  and  O_14 
REMARK    5  A    between atoms: O_17  and  C_18 
ROOT
HETATM    1  H   UNL     1       3.045  -7.593  24.375  1.00  0.00     0.163 HD
HETATM    2  C   UNL     1       3.231  -6.063  22.986  1.00  0.00     0.303 C 
HETATM    3  C   UNL     1       6.152  -5.223  23.623  1.00  0.00     0.098 C 
HETATM    4  N   UNL     1       3.496  -6.687  24.200  1.00  0.00    -0.353 N 
HETATM    5  O   UNL     1       5.542  -5.514  21.297  1.00  0.00    -0.259 OA
HETATM    6  C   UNL     1       5.258  -5.234  22.424  1.00  0.00     0.299 C 
HETATM    7  O   UNL     1       4.027  -4.886  22.747  1.00  0.00    -0.298 OA
HETATM    8  C   UNL     1       5.597  -5.590  24.845  1.00  0.00     0.133 C 
HETATM    9  C   UNL     1       4.510  -6.460  25.043  1.00  0.00     0.131 C 
HETATM   10  C   UNL     1       7.484  -4.745  23.611  1.00  0.00     0.151 C 
ENDROOT
BRANCH   8  11
HETATM   11  O   UNL     1       6.423  -5.144  25.816  1.00  0.00    -0.321 OA
BRANCH  11  12
HETATM   12  C   UNL     1       6.875  -5.599  27.058  1.00  0.00     0.341 C 
BRANCH  12  13
HETATM   13  O   UNL     1       7.543  -6.376  28.518  1.00  0.00    -0.377 OA
HETATM   14  H   UNL     1       8.106  -5.751  28.814  1.00  0.00     0.212 HD
ENDBRANCH  12  13
ENDBRANCH  11  12
ENDBRANCH   8  11
BRANCH   9  15
HETATM   15  N   UNL     1       4.483  -7.296  26.110  1.00  0.00    -0.383 N 
HETATM   16  H   UNL     1       4.985  -8.167  26.166  1.00  0.00     0.157 HD
HETATM   17  H   UNL     1       3.858  -7.045  26.847  1.00  0.00     0.157 HD
ENDBRANCH   9  15
BRANCH  10  18
HETATM   18  O   UNL     1       8.089  -4.179  22.597  1.00  0.00    -0.371 OA
HETATM   19  H   UNL     1       7.462  -3.590  22.170  1.00  0.00     0.216 HD
ENDBRANCH  10  18
TORSDOF 5
ENDMDL
MODEL 8
REMARK VINA RESULT:    -4.669      3.506      5.205
REMARK INTER + INTRA:          -5.422
REMARK INTER:                  -5.348
REMARK INTRA:                  -0.074
REMARK UNBOUND:                -0.070
REMARK  5 active torsions:
REMARK  status: ('A' for Active; 'I' for Inactive)
REMARK    1  A    between atoms: N_3  and  C_12 
REMARK    2  A    between atoms: C_11  and  O_14 
REMARK    3  A    between atoms: C_13  and  O_15 
REMARK    4  A    between atoms: C_13  and  O_14 
REMARK    5  A    between atoms: O_17  and  C_18 
ROOT
HETATM    1  H   UNL     1       7.419   0.778  22.415  1.00  0.00     0.163 HD
HETATM    2  C   UNL     1       8.953  -0.311  21.540  1.00  0.00     0.303 C 
HETATM    3  C   UNL     1      11.236   0.462  23.498  1.00  0.00     0.098 C 
HETATM    4  N   UNL     1       8.432   0.769  22.243  1.00  0.00    -0.353 N 
HETATM    5  O   UNL     1      10.988  -1.877  22.919  1.00  0.00    -0.259 OA
HETATM    6  C   UNL     1      10.881  -0.717  22.649  1.00  0.00     0.299 C 
HETATM    7  O   UNL     1      10.393  -0.334  21.485  1.00  0.00    -0.298 OA
HETATM    8  C   UNL     1      10.441   1.599  23.389  1.00  0.00     0.133 C 
HETATM    9  C   UNL     1       9.083   1.637  23.027  1.00  0.00     0.131 C 
HETATM   10  C   UNL     1      12.398   0.534  24.304  1.00  0.00     0.151 C 
ENDROOT
BRANCH   8  11
HETATM   11  O   UNL     1      11.137   2.632  23.909  1.00  0.00    -0.321 OA
BRANCH  11  12
HETATM   12  C   UNL     1      11.481   3.929  23.518  1.00  0.00     0.341 C 
BRANCH  12  13
HETATM   13  O   UNL     1      11.703   5.585  22.894  1.00  0.00    -0.377 OA
HETATM   14  H   UNL     1      11.712   6.063  23.647  1.00  0.00     0.212 HD
ENDBRANCH  12  13
ENDBRANCH  11  12
ENDBRANCH   8  11
BRANCH   9  15
HETATM   15  N   UNL     1       8.242   2.535  23.600  1.00  0.00    -0.383 N 
HETATM   16  H   UNL     1       8.265   3.526  23.430  1.00  0.00     0.157 HD
HETATM   17  H   UNL     1       7.616   2.171  24.287  1.00  0.00     0.157 HD
ENDBRANCH   9  15
BRANCH  10  18
HETATM   18  O   UNL     1      13.350  -0.362  24.361  1.00  0.00    -0.371 OA
HETATM   19  H   UNL     1      14.173   0.093  24.556  1.00  0.00     0.216 HD
ENDBRANCH  10  18
TORSDOF 5
ENDMDL
MODEL 9
REMARK VINA RESULT:    -4.632      3.677      5.088
REMARK INTER + INTRA:          -5.379
REMARK INTER:                  -5.310
REMARK INTRA:                  -0.069
REMARK UNBOUND:                -0.070
REMARK  5 active torsions:
REMARK  status: ('A' for Active; 'I' for Inactive)
REMARK    1  A    between atoms: N_3  and  C_12 
REMARK    2  A    between atoms: C_11  and  O_14 
REMARK    3  A    between atoms: C_13  and  O_15 
REMARK    4  A    between atoms: C_13  and  O_14 
REMARK    5  A    between atoms: O_17  and  C_18 
ROOT
HETATM    1  H   UNL     1       4.462  -2.427  22.799  1.00  0.00     0.163 HD
HETATM    2  C   UNL     1       4.813  -4.470  22.908  1.00  0.00     0.303 C 
HETATM    3  C   UNL     1       7.274  -4.409  24.800  1.00  0.00     0.098 C 
HETATM    4  N   UNL     1       5.200  -3.134  22.901  1.00  0.00    -0.353 N 
HETATM    5  O   UNL     1       5.511  -5.994  25.292  1.00  0.00    -0.259 OA
HETATM    6  C   UNL     1       6.144  -5.344  24.512  1.00  0.00     0.299 C 
HETATM    7  O   UNL     1       5.879  -5.387  23.221  1.00  0.00    -0.298 OA
HETATM    8  C   UNL     1       7.392  -3.274  24.002  1.00  0.00     0.133 C 
HETATM    9  C   UNL     1       6.346  -2.603  23.344  1.00  0.00     0.131 C 
HETATM   10  C   UNL     1       8.297  -4.671  25.743  1.00  0.00     0.151 C 
ENDROOT
BRANCH   8  11
HETATM   11  O   UNL     1       8.647  -2.799  24.155  1.00  0.00    -0.321 OA
BRANCH  11  12
HETATM   12  C   UNL     1       9.677  -2.357  23.321  1.00  0.00     0.341 C 
BRANCH  12  13
HETATM   13  O   UNL     1      10.863  -1.897  22.070  1.00  0.00    -0.377 OA
HETATM   14  H   UNL     1      10.502  -1.149  21.745  1.00  0.00     0.212 HD
ENDBRANCH  12  13
ENDBRANCH  11  12
ENDBRANCH   8  11
BRANCH   9  15
HETATM   15  N   UNL     1       6.359  -1.252  23.229  1.00  0.00    -0.383 N 
HETATM   16  H   UNL     1       7.152  -0.712  22.925  1.00  0.00     0.157 HD
HETATM   17  H   UNL     1       5.537  -0.778  23.542  1.00  0.00     0.157 HD
ENDBRANCH   9  15
BRANCH  10  18
HETATM   18  O   UNL     1       8.447  -5.777  26.426  1.00  0.00    -0.371 OA
HETATM   19  H   UNL     1       9.306  -5.745  26.855  1.00  0.00     0.216 HD
ENDBRANCH  10  18
TORSDOF 5
ENDMDL
