stable:False satoms:11 tatoms:24 sratio:0.4583333333333333
  -OEChem-07092417433D

 24 25  0     1  0  0  0  0  0999 V2000
    6.5125   -4.9738   26.5727 C   0  0  0  0  0  0  0  0  0  0  0  0
    8.3294   -4.3457   26.1630 S   0  0  0  0  0  0  0  0  0  0  0  0
    9.1467   -5.5262   26.0638 O   0  0  0  0  0  0  0  0  0  0  0  0
    8.6661   -3.3964   27.1580 O   0  0  0  0  0  0  0  0  0  0  0  0
    8.0610   -3.6573   24.7345 N   0  0  0  0  0  0  0  0  0  0  0  0
    8.8799   -2.9216   24.2171 C   0  0  0  0  0  0  0  0  0  0  0  0
    9.4632   -2.0949   23.6370 C   0  0  0  0  0  0  0  0  0  0  0  0
   10.2723   -1.3738   22.9151 C   0  0  1  0  0  0  0  0  0  0  0  0
   11.2164    0.1561   24.6424 H   0  0  0  0  0  0  0  0  0  0  0  0
   11.9506   -0.1063   24.0553 C   0  5  0  0  0  0  0  0  0  0  0  0
   13.6709   -0.5008   23.1425 H   0  0  0  0  0  0  0  0  0  0  0  0
   12.6923   -0.7634   23.2338 C   0  0  0  0  0  0  0  0  0  0  0  0
   11.8098   -2.0661   22.5406 S   0  0  0  0  0  0  0  0  0  0  0  0
    9.7746   -0.4448   22.2612 C   0  0  0  0  0  0  0  0  0  0  0  0
    9.0081    0.1771   21.3187 C   0  0  0  0  0  0  0  0  0  0  0  0
    9.4502    1.1479   20.7864 O   0  0  0  0  0  0  0  0  0  0  0  0
    7.8310   -0.4593   21.1800 N   0  0  0  0  0  0  0  0  0  0  0  0
    7.1251    0.0622   20.2447 C   0  0  0  0  0  0  0  0  0  0  0  0
    7.1919    0.1630   18.9529 C   0  0  0  0  0  0  0  0  0  0  0  0
    6.7066    0.3574   17.8314 N   0  0  0  0  0  0  0  0  0  0  0  0
    5.7348    0.7959   18.4113 C   0  0  1  0  0  0  0  0  0  0  0  0
    5.0808    1.0561   19.3880 N   0  0  0  0  0  0  0  0  0  0  0  0
    5.7291    0.6724   20.4227 C   0  0  0  0  0  0  0  0  0  0  0  0
    5.2808    0.7522   21.4238 H   0  0  0  0  0  0  0  0  0  0  0  0
 20 21  1  0  0  0  0
 19 20  2  0  0  0  0
 19 21  1  0  0  0  0
 21 22  1  0  0  0  0
 18 19  1  0  0  0  0
 22 23  1  0  0  0  0
 18 23  2  0  0  0  0
 17 18  1  0  0  0  0
 23 24  1  0  0  0  0
 15 16  2  0  0  0  0
 15 17  1  0  0  0  0
 14 15  1  0  0  0  0
  8 14  1  0  0  0  0
  8 13  1  0  0  0  0
 12 13  1  0  0  0  0
  7  8  1  0  0  0  0
 11 12  1  0  0  0  0
 10 12  2  0  0  0  0
  6  7  3  0  0  0  0
  9 10  1  0  0  0  0
  5  6  1  0  0  0  0
  2  5  1  0  0  0  0
  2  3  2  0  0  0  0
  1  2  1  0  0  0  0
  2  4  2  0  0  0  0
M  CHG  1  10  -1
M  END
> <Shapegauss>
-260.280731

$$$$
