REMARK  6 active torsions:
REMARK  status: ('A' for Active; 'I' for Inactive)
REMARK    1  A    between atoms: S_2  and  N_5 
REMARK    2  A    between atoms: N_5  and  C_7 
REMARK    3  A    between atoms: C_8  and  C_9 
REMARK    4  A    between atoms: C_9  and  S_12 
REMARK    5  A    between atoms: C_11  and  S_12 
REMARK    6  A    between atoms: C_13  and  C_14 
REMARK       I    between atoms: C_14  and  N_16 
ROOT
HETATM    1  C   UNL     1      10.272  -1.374  22.915  1.00  0.00     0.061 C 
HETATM    2  C   UNL     1       9.775  -0.445  22.261  1.00  0.00     0.102 C 
ENDROOT
BRANCH   2   3
HETATM    3  C   UNL     1       9.008   0.177  21.319  1.00  0.00     0.247 C 
HETATM    4  O   UNL     1       9.450   1.148  20.786  1.00  0.00    -0.268 OA
HETATM    5  N   UNL     1       7.831  -0.459  21.180  1.00  0.00    -0.324 N 
HETATM    6  C   UNL     1       7.125   0.062  20.245  1.00  0.00     0.053 A 
ATOM      7  HN  UNL     1       7.537  -1.255  21.746  1.00  0.00     0.169 HD
HETATM    8  C   UNL     1       7.192   0.163  18.953  1.00  0.00     0.172 A 
HETATM    9  C   UNL     1       5.729   0.672  20.423  1.00  0.00     0.112 A 
HETATM   10  N   UNL     1       6.707   0.357  17.831  1.00  0.00    -0.387 N 
HETATM   11  C   UNL     1       5.735   0.796  18.411  1.00  0.00     0.206 A 
ATOM     12  HN  UNL     1       6.993   0.214  16.862  1.00  0.00     0.156 HD
HETATM   13  N   UNL     1       5.081   1.056  19.388  1.00  0.00    -0.374 N 
ATOM     14  HN  UNL     1       4.166   1.506  19.390  1.00  0.00     0.161 HD
ENDBRANCH   2   3
BRANCH   1  15
HETATM   15  C   UNL     1       9.463  -2.095  23.637  1.00  0.00    -0.036 C 
HETATM   16  C   UNL     1       8.880  -2.922  24.217  1.00  0.00     0.026 C 
BRANCH  16  17
HETATM   17  N   UNL     1       8.061  -3.657  24.735  1.00  0.00    -0.243 N 
ATOM     18  HN  UNL     1       7.182  -3.841  24.251  1.00  0.00     0.189 HD
BRANCH  17  19
HETATM   19  S   UNL     1       8.329  -4.346  26.163  1.00  0.00     0.233 S 
HETATM   20  C   UNL     1       6.513  -4.974  26.573  1.00  0.00     0.186 C 
HETATM   21  O   UNL     1       9.147  -5.526  26.064  1.00  0.00    -0.205 OA
HETATM   22  O   UNL     1       8.666  -3.396  27.158  1.00  0.00    -0.205 OA
ENDBRANCH  17  19
ENDBRANCH  16  17
ENDBRANCH   1  15
BRANCH   1  23
HETATM   23  S   UNL     1      11.810  -2.066  22.541  1.00  0.00    -0.110 SA
BRANCH  23  24
HETATM   24  C   UNL     1      12.692  -0.763  23.234  1.00  0.00     0.148 C 
HETATM   25  C   UNL     1      11.951  -0.106  24.055  1.00  0.00    -0.068 C 
ENDBRANCH  23  24
ENDBRANCH   1  23
TORSDOF 6
