REMARK  6 active torsions:
REMARK  status: ('A' for Active; 'I' for Inactive)
REMARK    1  A    between atoms: S_2  and  N_5 
REMARK    2  A    between atoms: N_5  and  C_7 
REMARK    3  A    between atoms: C_8  and  C_9 
REMARK    4  A    between atoms: C_9  and  C_15 
REMARK    5  A    between atoms: C_15  and  C_16 
REMARK       I    between atoms: C_16  and  N_18 
REMARK    6  A    between atoms: N_18  and  C_20 
ROOT
HETATM    1  C   UNL     1      10.332  -1.141  23.272  1.00  0.00     0.075 C 
HETATM    2  C   UNL     1      11.050  -0.015  24.342  1.00  0.00    -0.000 C 
HETATM    3  C   UNL     1      12.022   0.306  24.298  1.00  0.00    -0.025 C 
HETATM    4  C   UNL     1      13.214  -0.191  23.420  1.00  0.00     0.054 C 
HETATM    5  C   UNL     1      12.726  -1.218  22.703  1.00  0.00    -0.025 C 
HETATM    6  C   UNL     1      11.807  -1.700  22.529  1.00  0.00    -0.000 C 
ENDROOT
BRANCH   1   7
HETATM    7  C   UNL     1       9.434  -1.962  23.489  1.00  0.00     0.021 C 
HETATM    8  C   UNL     1       8.973  -2.917  24.132  1.00  0.00     0.098 C 
BRANCH   8   9
HETATM    9  N   UNL     1       8.076  -3.584  24.691  1.00  0.00    -0.296 N 
ATOM     10  HN  UNL     1       7.189  -3.660  24.194  1.00  0.00     0.177 HD
BRANCH   9  11
HETATM   11  S   UNL     1       8.171  -4.336  26.112  1.00  0.00     0.226 S 
HETATM   12  C   UNL     1       6.646  -4.899  26.431  1.00  0.00     0.186 C 
HETATM   13  O   UNL     1       9.070  -5.472  26.038  1.00  0.00    -0.206 OA
HETATM   14  O   UNL     1       8.570  -3.455  27.176  1.00  0.00    -0.206 OA
ENDBRANCH   9  11
ENDBRANCH   8   9
ENDBRANCH   1   7
BRANCH   1  15
HETATM   15  C   UNL     1       9.746  -0.570  22.375  1.00  0.00    -0.061 C 
BRANCH  15  16
HETATM   16  C   UNL     1       9.079   0.044  21.378  1.00  0.00     0.290 C 
HETATM   17  O   UNL     1       9.556   0.974  20.947  1.00  0.00    -0.259 OA
HETATM   18  N   UNL     1       7.947  -0.543  21.064  1.00  0.00    -0.315 N 
ATOM     19  HN  UNL     1       7.679  -1.393  21.559  1.00  0.00     0.170 HD
BRANCH  18  20
HETATM   20  C   UNL     1       7.181  -0.091  20.171  1.00  0.00     0.057 A 
HETATM   21  C   UNL     1       7.213   0.010  18.837  1.00  0.00     0.117 A 
HETATM   22  N   UNL     1       6.781   0.327  17.793  1.00  0.00    -0.373 N 
HETATM   23  C   UNL     1       5.623   0.912  18.205  1.00  0.00     0.088 A 
ATOM     24  HN  UNL     1       7.161   0.201  16.855  1.00  0.00     0.164 HD
HETATM   25  C   UNL     1       5.242   0.979  19.396  1.00  0.00     0.026 A 
HETATM   26  C   UNL     1       5.824   0.568  20.538  1.00  0.00    -0.033 A 
HETATM   27  C   UNL     1       5.303   0.687  21.960  1.00  0.00     0.050 C 
ENDBRANCH  18  20
ENDBRANCH  15  16
ENDBRANCH   1  15
TORSDOF 6
