MODEL 1
REMARK VINA RESULT:    -7.390      0.000      0.000
REMARK INTER + INTRA:         -11.095
REMARK INTER:                  -9.982
REMARK INTRA:                  -1.113
REMARK UNBOUND:                -1.113
REMARK  6 active torsions:
REMARK  status: ('A' for Active; 'I' for Inactive)
REMARK    1  A    between atoms: S_2  and  N_5 
REMARK    2  A    between atoms: N_5  and  C_7 
REMARK    3  A    between atoms: C_8  and  C_9 
REMARK    4  A    between atoms: C_9  and  C_15 
REMARK    5  A    between atoms: C_15  and  C_16 
REMARK       I    between atoms: C_16  and  N_18 
REMARK    6  A    between atoms: N_18  and  C_20 
ROOT
HETATM    1  C   UNL     1       9.543  -1.555  23.331  1.00  0.00     0.075 C 
HETATM    2  C   UNL     1       9.340  -0.574  24.718  1.00  0.00    -0.000 C 
HETATM    3  C   UNL     1      10.039   0.077  25.090  1.00  0.00    -0.025 C 
HETATM    4  C   UNL     1      11.531   0.298  24.688  1.00  0.00     0.054 C 
HETATM    5  C   UNL     1      11.780  -0.605  23.724  1.00  0.00    -0.025 C 
HETATM    6  C   UNL     1      11.262  -1.322  23.154  1.00  0.00    -0.000 C 
ENDROOT
BRANCH   1   7
HETATM    7  C   UNL     1       9.072  -2.671  23.087  1.00  0.00     0.021 C 
HETATM    8  C   UNL     1       8.113  -3.456  23.049  1.00  0.00     0.098 C 
BRANCH   8   9
HETATM    9  N   UNL     1       7.418  -4.380  22.574  1.00  0.00    -0.296 N 
ATOM     10  HN  UNL     1       7.887  -5.274  22.429  1.00  0.00     0.177 HD
BRANCH   9  11
HETATM   11  S   UNL     1       5.861  -4.311  22.168  1.00  0.00     0.226 S 
HETATM   12  C   UNL     1       5.053  -3.849  23.538  1.00  0.00     0.186 C 
HETATM   13  O   UNL     1       5.637  -3.306  21.146  1.00  0.00    -0.206 OA
HETATM   14  O   UNL     1       5.347  -5.582  21.735  1.00  0.00    -0.206 OA
ENDBRANCH   9  11
ENDBRANCH   8   9
ENDBRANCH   1   7
BRANCH   1  15
HETATM   15  C   UNL     1       9.069  -1.018  22.350  1.00  0.00    -0.061 C 
BRANCH  15  16
HETATM   16  C   UNL     1       8.548  -0.399  21.272  1.00  0.00     0.290 C 
HETATM   17  O   UNL     1       9.243   0.275  20.690  1.00  0.00    -0.259 OA
HETATM   18  N   UNL     1       7.280  -0.676  21.070  1.00  0.00    -0.315 N 
ATOM     19  HN  UNL     1       6.811  -1.326  21.700  1.00  0.00     0.170 HD
BRANCH  18  20
HETATM   20  C   UNL     1       6.624  -0.166  20.122  1.00  0.00     0.057 A 
HETATM   21  C   UNL     1       6.318  -0.515  18.867  1.00  0.00     0.117 A 
HETATM   22  N   UNL     1       5.824  -0.345  17.816  1.00  0.00    -0.373 N 
HETATM   23  C   UNL     1       5.289   0.890  18.024  1.00  0.00     0.088 A 
ATOM     24  HN  UNL     1       5.802  -0.945  16.992  1.00  0.00     0.164 HD
HETATM   25  C   UNL     1       5.354   1.523  19.103  1.00  0.00     0.026 A 
HETATM   26  C   UNL     1       5.951   1.225  20.272  1.00  0.00    -0.033 A 
HETATM   27  C   UNL     1       5.994   2.048  21.548  1.00  0.00     0.050 C 
ENDBRANCH  18  20
ENDBRANCH  15  16
ENDBRANCH   1  15
TORSDOF 6
ENDMDL
MODEL 2
REMARK VINA RESULT:    -7.140      2.629      5.847
REMARK INTER + INTRA:         -10.757
REMARK INTER:                  -9.857
REMARK INTRA:                  -0.900
REMARK UNBOUND:                -1.113
REMARK  6 active torsions:
REMARK  status: ('A' for Active; 'I' for Inactive)
REMARK    1  A    between atoms: S_2  and  N_5 
REMARK    2  A    between atoms: N_5  and  C_7 
REMARK    3  A    between atoms: C_8  and  C_9 
REMARK    4  A    between atoms: C_9  and  C_15 
REMARK    5  A    between atoms: C_15  and  C_16 
REMARK       I    between atoms: C_16  and  N_18 
REMARK    6  A    between atoms: N_18  and  C_20 
ROOT
HETATM    1  C   UNL     1      10.285  -0.767  23.282  1.00  0.00     0.075 C 
HETATM    2  C   UNL     1      11.690  -1.628  22.819  1.00  0.00    -0.000 C 
HETATM    3  C   UNL     1      12.622  -1.500  23.224  1.00  0.00    -0.025 C 
HETATM    4  C   UNL     1      13.152  -0.428  24.228  1.00  0.00     0.054 C 
HETATM    5  C   UNL     1      12.111   0.390  24.460  1.00  0.00    -0.025 C 
HETATM    6  C   UNL     1      11.088   0.460  24.225  1.00  0.00    -0.000 C 
ENDROOT
BRANCH   1   7
HETATM    7  C   UNL     1       9.309  -0.441  22.598  1.00  0.00     0.021 C 
HETATM    8  C   UNL     1       8.363  -0.735  21.851  1.00  0.00     0.098 C 
BRANCH   8   9
HETATM    9  N   UNL     1       7.203  -0.643  21.396  1.00  0.00    -0.296 N 
ATOM     10  HN  UNL     1       6.469  -1.116  21.922  1.00  0.00     0.177 HD
BRANCH   9  11
HETATM   11  S   UNL     1       6.744   0.143  20.067  1.00  0.00     0.226 S 
HETATM   12  C   UNL     1       5.605  -0.818  19.342  1.00  0.00     0.186 C 
HETATM   13  O   UNL     1       6.124   1.410  20.403  1.00  0.00    -0.206 OA
HETATM   14  O   UNL     1       7.828   0.349  19.146  1.00  0.00    -0.206 OA
ENDBRANCH   9  11
ENDBRANCH   8   9
ENDBRANCH   1   7
BRANCH   1  15
HETATM   15  C   UNL     1       9.644  -1.397  24.098  1.00  0.00    -0.061 C 
BRANCH  15  16
HETATM   16  C   UNL     1       8.913  -2.098  24.987  1.00  0.00     0.290 C 
HETATM   17  O   UNL     1       8.611  -1.557  25.933  1.00  0.00    -0.259 OA
HETATM   18  N   UNL     1       8.671  -3.333  24.610  1.00  0.00    -0.315 N 
ATOM     19  HN  UNL     1       9.018  -3.648  23.705  1.00  0.00     0.170 HD
BRANCH  18  20
HETATM   20  C   UNL     1       8.023  -4.140  25.330  1.00  0.00     0.057 A 
HETATM   21  C   UNL     1       8.307  -4.965  26.345  1.00  0.00     0.117 A 
HETATM   22  N   UNL     1       8.039  -5.770  27.155  1.00  0.00    -0.373 N 
HETATM   23  C   UNL     1       6.718  -5.934  26.871  1.00  0.00     0.088 A 
ATOM     24  HN  UNL     1       8.624  -6.216  27.862  1.00  0.00     0.164 HD
HETATM   25  C   UNL     1       6.094  -5.299  25.990  1.00  0.00     0.026 A 
HETATM   26  C   UNL     1       6.505  -4.373  25.104  1.00  0.00    -0.033 A 
HETATM   27  C   UNL     1       5.688  -3.643  24.053  1.00  0.00     0.050 C 
ENDBRANCH  18  20
ENDBRANCH  15  16
ENDBRANCH   1  15
TORSDOF 6
ENDMDL
MODEL 3
REMARK VINA RESULT:    -7.106      2.631      6.112
REMARK INTER + INTRA:         -10.711
REMARK INTER:                 -10.116
REMARK INTRA:                  -0.595
REMARK UNBOUND:                -1.113
REMARK  6 active torsions:
REMARK  status: ('A' for Active; 'I' for Inactive)
REMARK    1  A    between atoms: S_2  and  N_5 
REMARK    2  A    between atoms: N_5  and  C_7 
REMARK    3  A    between atoms: C_8  and  C_9 
REMARK    4  A    between atoms: C_9  and  C_15 
REMARK    5  A    between atoms: C_15  and  C_16 
REMARK       I    between atoms: C_16  and  N_18 
REMARK    6  A    between atoms: N_18  and  C_20 
ROOT
HETATM    1  C   UNL     1       6.636  -3.254  22.472  1.00  0.00     0.075 C 
HETATM    2  C   UNL     1       5.532  -3.787  23.666  1.00  0.00    -0.000 C 
HETATM    3  C   UNL     1       5.358  -4.765  23.916  1.00  0.00    -0.025 C 
HETATM    4  C   UNL     1       5.851  -6.085  23.243  1.00  0.00     0.054 C 
HETATM    5  C   UNL     1       6.567  -5.696  22.174  1.00  0.00    -0.025 C 
HETATM    6  C   UNL     1       6.922  -4.808  21.736  1.00  0.00    -0.000 C 
ENDROOT
BRANCH   1   7
HETATM    7  C   UNL     1       6.577  -2.258  21.742  1.00  0.00     0.021 C 
HETATM    8  C   UNL     1       6.034  -1.614  20.832  1.00  0.00     0.098 C 
BRANCH   8   9
HETATM    9  N   UNL     1       5.634  -0.582  20.252  1.00  0.00    -0.296 N 
ATOM     10  HN  UNL     1       4.889  -0.061  20.714  1.00  0.00     0.177 HD
BRANCH   9  11
HETATM   11  S   UNL     1       6.166   0.012  18.853  1.00  0.00     0.226 S 
HETATM   12  C   UNL     1       5.388   1.460  18.649  1.00  0.00     0.186 C 
HETATM   13  O   UNL     1       7.593   0.265  18.908  1.00  0.00    -0.206 OA
HETATM   14  O   UNL     1       5.855  -0.841  17.738  1.00  0.00    -0.206 OA
ENDBRANCH   9  11
ENDBRANCH   8   9
ENDBRANCH   1   7
BRANCH   1  15
HETATM   15  C   UNL     1       7.704  -2.962  22.972  1.00  0.00    -0.061 C 
BRANCH  15  16
HETATM   16  C   UNL     1       8.883  -2.653  23.547  1.00  0.00     0.290 C 
HETATM   17  O   UNL     1       9.117  -3.163  24.528  1.00  0.00    -0.259 OA
HETATM   18  N   UNL     1       9.587  -1.779  22.865  1.00  0.00    -0.315 N 
ATOM     19  HN  UNL     1       9.217  -1.431  21.980  1.00  0.00     0.170 HD
BRANCH  18  20
HETATM   20  C   UNL     1      10.704  -1.356  23.266  1.00  0.00     0.057 A 
HETATM   21  C   UNL     1      11.987  -1.667  23.044  1.00  0.00     0.117 A 
HETATM   22  N   UNL     1      13.143  -1.549  23.204  1.00  0.00    -0.373 N 
HETATM   23  C   UNL     1      13.134  -0.548  24.127  1.00  0.00     0.088 A 
ATOM     24  HN  UNL     1      13.923  -2.048  22.777  1.00  0.00     0.164 HD
HETATM   25  C   UNL     1      12.102   0.016  24.557  1.00  0.00     0.026 A 
HETATM   26  C   UNL     1      10.800  -0.198  24.296  1.00  0.00    -0.033 A 
HETATM   27  C   UNL     1       9.591   0.527  24.862  1.00  0.00     0.050 C 
ENDBRANCH  18  20
ENDBRANCH  15  16
ENDBRANCH   1  15
TORSDOF 6
ENDMDL
MODEL 4
REMARK VINA RESULT:    -6.545      4.202      6.355
REMARK INTER + INTRA:          -9.955
REMARK INTER:                  -9.327
REMARK INTRA:                  -0.628
REMARK UNBOUND:                -1.113
REMARK  6 active torsions:
REMARK  status: ('A' for Active; 'I' for Inactive)
REMARK    1  A    between atoms: S_2  and  N_5 
REMARK    2  A    between atoms: N_5  and  C_7 
REMARK    3  A    between atoms: C_8  and  C_9 
REMARK    4  A    between atoms: C_9  and  C_15 
REMARK    5  A    between atoms: C_15  and  C_16 
REMARK       I    between atoms: C_16  and  N_18 
REMARK    6  A    between atoms: N_18  and  C_20 
ROOT
HETATM    1  C   UNL     1       6.948  -4.493  24.512  1.00  0.00     0.075 C 
HETATM    2  C   UNL     1       7.418  -5.401  23.140  1.00  0.00    -0.000 C 
HETATM    3  C   UNL     1       7.098  -5.232  22.181  1.00  0.00    -0.025 C 
HETATM    4  C   UNL     1       5.995  -4.269  21.636  1.00  0.00     0.054 C 
HETATM    5  C   UNL     1       5.466  -3.681  22.722  1.00  0.00    -0.025 C 
HETATM    6  C   UNL     1       5.626  -3.638  23.761  1.00  0.00    -0.000 C 
ENDROOT
BRANCH   1   7
HETATM    7  C   UNL     1       6.821  -4.859  25.686  1.00  0.00     0.021 C 
HETATM    8  C   UNL     1       7.101  -5.632  26.614  1.00  0.00     0.098 C 
BRANCH   8   9
HETATM    9  N   UNL     1       7.345  -5.944  27.800  1.00  0.00    -0.296 N 
ATOM     10  HN  UNL     1       8.326  -5.951  28.076  1.00  0.00     0.177 HD
BRANCH   9  11
HETATM   11  S   UNL     1       6.275  -6.335  28.938  1.00  0.00     0.226 S 
HETATM   12  C   UNL     1       4.890  -5.507  28.564  1.00  0.00     0.186 C 
HETATM   13  O   UNL     1       5.979  -7.755  28.906  1.00  0.00    -0.206 OA
HETATM   14  O   UNL     1       6.704  -5.947  30.254  1.00  0.00    -0.206 OA
ENDBRANCH   9  11
ENDBRANCH   8   9
ENDBRANCH   1   7
BRANCH   1  15
HETATM   15  C   UNL     1       7.762  -3.625  24.755  1.00  0.00    -0.061 C 
BRANCH  15  16
HETATM   16  C   UNL     1       8.666  -2.670  25.048  1.00  0.00     0.290 C 
HETATM   17  O   UNL     1       8.873  -2.489  26.145  1.00  0.00    -0.259 OA
HETATM   18  N   UNL     1       9.167  -2.077  23.989  1.00  0.00    -0.315 N 
ATOM     19  HN  UNL     1       8.867  -2.385  23.064  1.00  0.00     0.170 HD
BRANCH  18  20
HETATM   20  C   UNL     1      10.007  -1.142  24.077  1.00  0.00     0.057 A 
HETATM   21  C   UNL     1      11.340  -1.038  24.022  1.00  0.00     0.117 A 
HETATM   22  N   UNL     1      12.355  -0.450  24.065  1.00  0.00    -0.373 N 
HETATM   23  C   UNL     1      11.872   0.798  24.317  1.00  0.00     0.088 A 
ATOM     24  HN  UNL     1      13.314  -0.777  23.949  1.00  0.00     0.164 HD
HETATM   25  C   UNL     1      10.657   1.088  24.407  1.00  0.00     0.026 A 
HETATM   26  C   UNL     1       9.554   0.321  24.332  1.00  0.00    -0.033 A 
HETATM   27  C   UNL     1       8.100   0.742  24.457  1.00  0.00     0.050 C 
ENDBRANCH  18  20
ENDBRANCH  15  16
ENDBRANCH   1  15
TORSDOF 6
ENDMDL
MODEL 5
REMARK VINA RESULT:    -6.487      2.244      5.356
REMARK INTER + INTRA:          -9.875
REMARK INTER:                  -8.892
REMARK INTRA:                  -0.983
REMARK UNBOUND:                -1.113
REMARK  6 active torsions:
REMARK  status: ('A' for Active; 'I' for Inactive)
REMARK    1  A    between atoms: S_2  and  N_5 
REMARK    2  A    between atoms: N_5  and  C_7 
REMARK    3  A    between atoms: C_8  and  C_9 
REMARK    4  A    between atoms: C_9  and  C_15 
REMARK    5  A    between atoms: C_15  and  C_16 
REMARK       I    between atoms: C_16  and  N_18 
REMARK    6  A    between atoms: N_18  and  C_20 
ROOT
HETATM    1  C   UNL     1       9.189  -0.567  22.400  1.00  0.00     0.075 C 
HETATM    2  C   UNL     1      10.700  -1.369  22.393  1.00  0.00    -0.000 C 
HETATM    3  C   UNL     1      11.399  -1.320  23.140  1.00  0.00    -0.025 C 
HETATM    4  C   UNL     1      11.456  -0.423  24.417  1.00  0.00     0.054 C 
HETATM    5  C   UNL     1      10.371   0.367  24.347  1.00  0.00    -0.025 C 
HETATM    6  C   UNL     1       9.514   0.489  23.749  1.00  0.00    -0.000 C 
ENDROOT
BRANCH   1   7
HETATM    7  C   UNL     1       8.535  -0.124  21.450  1.00  0.00     0.021 C 
HETATM    8  C   UNL     1       8.316  -0.041  20.232  1.00  0.00     0.098 C 
BRANCH   8   9
HETATM    9  N   UNL     1       7.604   0.039  19.208  1.00  0.00    -0.296 N 
ATOM     10  HN  UNL     1       8.076   0.309  18.345  1.00  0.00     0.177 HD
BRANCH   9  11
HETATM   11  S   UNL     1       6.021  -0.238  19.104  1.00  0.00     0.226 S 
HETATM   12  C   UNL     1       5.282   1.132  19.672  1.00  0.00     0.186 C 
HETATM   13  O   UNL     1       5.618  -0.434  17.724  1.00  0.00    -0.206 OA
HETATM   14  O   UNL     1       5.603  -1.355  19.908  1.00  0.00    -0.206 OA
ENDBRANCH   9  11
ENDBRANCH   8   9
ENDBRANCH   1   7
BRANCH   1  15
HETATM   15  C   UNL     1       8.312  -1.303  22.804  1.00  0.00    -0.061 C 
BRANCH  15  16
HETATM   16  C   UNL     1       7.322  -2.100  23.252  1.00  0.00     0.290 C 
HETATM   17  O   UNL     1       6.310  -1.618  23.396  1.00  0.00    -0.259 OA
HETATM   18  N   UNL     1       7.702  -3.339  23.467  1.00  0.00    -0.315 N 
ATOM     19  HN  UNL     1       8.667  -3.600  23.267  1.00  0.00     0.170 HD
BRANCH  18  20
HETATM   20  C   UNL     1       6.913  -4.216  23.911  1.00  0.00     0.057 A 
HETATM   21  C   UNL     1       6.474  -4.592  25.118  1.00  0.00     0.117 A 
HETATM   22  N   UNL     1       5.849  -5.262  25.850  1.00  0.00    -0.373 N 
HETATM   23  C   UNL     1       5.287  -6.109  24.945  1.00  0.00     0.088 A 
ATOM     24  HN  UNL     1       5.755  -5.222  26.865  1.00  0.00     0.164 HD
HETATM   25  C   UNL     1       5.452  -6.040  23.705  1.00  0.00     0.026 A 
HETATM   26  C   UNL     1       6.200  -5.210  22.955  1.00  0.00    -0.033 A 
HETATM   27  C   UNL     1       6.359  -5.186  21.444  1.00  0.00     0.050 C 
ENDBRANCH  18  20
ENDBRANCH  15  16
ENDBRANCH   1  15
TORSDOF 6
ENDMDL
MODEL 6
REMARK VINA RESULT:    -6.311     14.875     16.279
REMARK INTER + INTRA:          -9.638
REMARK INTER:                  -8.817
REMARK INTRA:                  -0.821
REMARK UNBOUND:                -1.113
REMARK  6 active torsions:
REMARK  status: ('A' for Active; 'I' for Inactive)
REMARK    1  A    between atoms: S_2  and  N_5 
REMARK    2  A    between atoms: N_5  and  C_7 
REMARK    3  A    between atoms: C_8  and  C_9 
REMARK    4  A    between atoms: C_9  and  C_15 
REMARK    5  A    between atoms: C_15  and  C_16 
REMARK       I    between atoms: C_16  and  N_18 
REMARK    6  A    between atoms: N_18  and  C_20 
ROOT
HETATM    1  C   UNL     1      23.080  -1.768  23.926  1.00  0.00     0.075 C 
HETATM    2  C   UNL     1      21.461  -1.252  24.127  1.00  0.00    -0.000 C 
HETATM    3  C   UNL     1      21.172  -0.339  24.490  1.00  0.00    -0.025 C 
HETATM    4  C   UNL     1      22.014   0.808  25.133  1.00  0.00     0.054 C 
HETATM    5  C   UNL     1      23.276   0.347  25.170  1.00  0.00    -0.025 C 
HETATM    6  C   UNL     1      23.827  -0.488  24.843  1.00  0.00    -0.000 C 
ENDROOT
BRANCH   1   7
HETATM    7  C   UNL     1      23.553  -2.907  24.010  1.00  0.00     0.021 C 
HETATM    8  C   UNL     1      23.566  -4.038  24.518  1.00  0.00     0.098 C 
BRANCH   8   9
HETATM    9  N   UNL     1      23.689  -5.282  24.520  1.00  0.00    -0.296 N 
ATOM     10  HN  UNL     1      23.327  -5.776  23.705  1.00  0.00     0.177 HD
BRANCH   9  11
HETATM   11  S   UNL     1      24.358  -6.188  25.672  1.00  0.00     0.226 S 
HETATM   12  C   UNL     1      25.995  -6.062  25.455  1.00  0.00     0.186 C 
HETATM   13  O   UNL     1      24.032  -5.675  26.989  1.00  0.00    -0.206 OA
HETATM   14  O   UNL     1      23.983  -7.572  25.571  1.00  0.00    -0.206 OA
ENDBRANCH   9  11
ENDBRANCH   8   9
ENDBRANCH   1   7
BRANCH   1  15
HETATM   15  C   UNL     1      23.455  -1.576  22.787  1.00  0.00    -0.061 C 
BRANCH  15  16
HETATM   16  C   UNL     1      23.849  -1.354  21.518  1.00  0.00     0.290 C 
HETATM   17  O   UNL     1      24.803  -0.764  21.379  1.00  0.00    -0.259 OA
HETATM   18  N   UNL     1      23.036  -1.862  20.620  1.00  0.00    -0.315 N 
ATOM     19  HN  UNL     1      22.217  -2.381  20.934  1.00  0.00     0.170 HD
BRANCH  18  20
HETATM   20  C   UNL     1      23.234  -1.728  19.382  1.00  0.00     0.057 A 
HETATM   21  C   UNL     1      22.898  -0.834  18.445  1.00  0.00     0.117 A 
HETATM   22  N   UNL     1      22.873  -0.414  17.350  1.00  0.00    -0.373 N 
HETATM   23  C   UNL     1      23.562  -1.405  16.720  1.00  0.00     0.088 A 
ATOM     24  HN  UNL     1      22.457   0.441  16.980  1.00  0.00     0.164 HD
HETATM   25  C   UNL     1      24.060  -2.402  17.292  1.00  0.00     0.026 A 
HETATM   26  C   UNL     1      24.035  -2.789  18.581  1.00  0.00    -0.033 A 
HETATM   27  C   UNL     1      24.661  -4.023  19.208  1.00  0.00     0.050 C 
ENDBRANCH  18  20
ENDBRANCH  15  16
ENDBRANCH   1  15
TORSDOF 6
ENDMDL
MODEL 7
REMARK VINA RESULT:    -5.932     23.072     26.231
REMARK INTER + INTRA:          -9.126
REMARK INTER:                  -8.210
REMARK INTRA:                  -0.915
REMARK UNBOUND:                -1.113
REMARK  6 active torsions:
REMARK  status: ('A' for Active; 'I' for Inactive)
REMARK    1  A    between atoms: S_2  and  N_5 
REMARK    2  A    between atoms: N_5  and  C_7 
REMARK    3  A    between atoms: C_8  and  C_9 
REMARK    4  A    between atoms: C_9  and  C_15 
REMARK    5  A    between atoms: C_15  and  C_16 
REMARK       I    between atoms: C_16  and  N_18 
REMARK    6  A    between atoms: N_18  and  C_20 
ROOT
HETATM    1  C   UNL     1       8.257  16.986   1.732  1.00  0.00     0.075 C 
HETATM    2  C   UNL     1       8.880  17.727   0.321  1.00  0.00    -0.000 C 
HETATM    3  C   UNL     1       8.715  18.699   0.041  1.00  0.00    -0.025 C 
HETATM    4  C   UNL     1       7.756  19.777   0.640  1.00  0.00     0.054 C 
HETATM    5  C   UNL     1       7.101  19.157   1.637  1.00  0.00    -0.025 C 
HETATM    6  C   UNL     1       7.106  18.232   2.138  1.00  0.00    -0.000 C 
ENDROOT
BRANCH   1   7
HETATM    7  C   UNL     1       7.938  15.807   1.919  1.00  0.00     0.021 C 
HETATM    8  C   UNL     1       8.199  14.595   1.877  1.00  0.00     0.098 C 
BRANCH   8   9
HETATM    9  N   UNL     1       8.183  13.414   2.285  1.00  0.00    -0.296 N 
ATOM     10  HN  UNL     1       8.361  12.690   1.590  1.00  0.00     0.177 HD
BRANCH   9  11
HETATM   11  S   UNL     1       7.912  12.913   3.792  1.00  0.00     0.226 S 
HETATM   12  C   UNL     1       6.282  12.634   3.891  1.00  0.00     0.186 C 
HETATM   13  O   UNL     1       8.605  11.666   4.056  1.00  0.00    -0.206 OA
HETATM   14  O   UNL     1       8.273  13.899   4.774  1.00  0.00    -0.206 OA
ENDBRANCH   9  11
ENDBRANCH   8   9
ENDBRANCH   1   7
BRANCH   1  15
HETATM   15  C   UNL     1       9.068  17.026   2.634  1.00  0.00    -0.061 C 
BRANCH  15  16
HETATM   16  C   UNL     1       9.954  17.054   3.649  1.00  0.00     0.290 C 
HETATM   17  O   UNL     1      10.646  16.164   3.742  1.00  0.00    -0.259 OA
HETATM   18  N   UNL     1       9.865  18.131   4.395  1.00  0.00    -0.315 N 
ATOM     19  HN  UNL     1       9.180  18.844   4.150  1.00  0.00     0.170 HD
BRANCH  18  20
HETATM   20  C   UNL     1      10.599  18.312   5.403  1.00  0.00     0.057 A 
HETATM   21  C   UNL     1      10.550  17.987   6.700  1.00  0.00     0.117 A 
HETATM   22  N   UNL     1      10.956  17.978   7.801  1.00  0.00    -0.373 N 
HETATM   23  C   UNL     1      12.087  18.714   7.622  1.00  0.00     0.088 A 
ATOM     24  HN  UNL     1      10.574  17.546   8.642  1.00  0.00     0.164 HD
HETATM   25  C   UNL     1      12.475  19.170   6.522  1.00  0.00     0.026 A 
HETATM   26  C   UNL     1      11.925  19.114   5.295  1.00  0.00    -0.033 A 
HETATM   27  C   UNL     1      12.452  19.697   3.995  1.00  0.00     0.050 C 
ENDBRANCH  18  20
ENDBRANCH  15  16
ENDBRANCH   1  15
TORSDOF 6
ENDMDL
MODEL 8
REMARK VINA RESULT:    -5.740     15.784     17.313
REMARK INTER + INTRA:          -8.866
REMARK INTER:                  -7.547
REMARK INTRA:                  -1.319
REMARK UNBOUND:                -1.113
REMARK  6 active torsions:
REMARK  status: ('A' for Active; 'I' for Inactive)
REMARK    1  A    between atoms: S_2  and  N_5 
REMARK    2  A    between atoms: N_5  and  C_7 
REMARK    3  A    between atoms: C_8  and  C_9 
REMARK    4  A    between atoms: C_9  and  C_15 
REMARK    5  A    between atoms: C_15  and  C_16 
REMARK       I    between atoms: C_16  and  N_18 
REMARK    6  A    between atoms: N_18  and  C_20 
ROOT
HETATM    1  C   UNL     1      24.269  -2.134  18.586  1.00  0.00     0.075 C 
HETATM    2  C   UNL     1      25.462  -0.924  18.386  1.00  0.00    -0.000 C 
HETATM    3  C   UNL     1      25.306  -0.003  17.965  1.00  0.00    -0.025 C 
HETATM    4  C   UNL     1      24.058   0.573  17.223  1.00  0.00     0.054 C 
HETATM    5  C   UNL     1      23.166  -0.433  17.190  1.00  0.00    -0.025 C 
HETATM    6  C   UNL     1      23.057  -1.410  17.564  1.00  0.00    -0.000 C 
ENDROOT
BRANCH   1   7
HETATM    7  C   UNL     1      24.394  -3.364  18.572  1.00  0.00     0.021 C 
HETATM    8  C   UNL     1      25.026  -4.391  18.861  1.00  0.00     0.098 C 
BRANCH   8   9
HETATM    9  N   UNL     1      25.159  -5.580  19.220  1.00  0.00    -0.296 N 
ATOM     10  HN  UNL     1      25.271  -6.270  18.477  1.00  0.00     0.177 HD
BRANCH   9  11
HETATM   11  S   UNL     1      25.174  -6.141  20.730  1.00  0.00     0.226 S 
HETATM   12  C   UNL     1      26.762  -6.139  21.200  1.00  0.00     0.186 C 
HETATM   13  O   UNL     1      24.435  -5.262  21.616  1.00  0.00    -0.206 OA
HETATM   14  O   UNL     1      24.666  -7.483  20.824  1.00  0.00    -0.206 OA
ENDBRANCH   9  11
ENDBRANCH   8   9
ENDBRANCH   1   7
BRANCH   1  15
HETATM   15  C   UNL     1      23.787  -2.084  19.699  1.00  0.00    -0.061 C 
BRANCH  15  16
HETATM   16  C   UNL     1      23.254  -2.003  20.934  1.00  0.00     0.290 C 
HETATM   17  O   UNL     1      22.139  -1.824  20.994  1.00  0.00    -0.259 OA
HETATM   18  N   UNL     1      24.137  -2.136  21.897  1.00  0.00    -0.315 N 
ATOM     19  HN  UNL     1      25.112  -2.305  21.652  1.00  0.00     0.170 HD
BRANCH  18  20
HETATM   20  C   UNL     1      23.820  -2.062  23.115  1.00  0.00     0.057 A 
HETATM   21  C   UNL     1      23.313  -2.897  24.030  1.00  0.00     0.117 A 
HETATM   22  N   UNL     1      22.917  -3.175  25.098  1.00  0.00    -0.373 N 
HETATM   23  C   UNL     1      23.059  -1.964  25.705  1.00  0.00     0.088 A 
ATOM     24  HN  UNL     1      22.570  -4.061  25.464  1.00  0.00     0.164 HD
HETATM   25  C   UNL     1      23.533  -0.943  25.157  1.00  0.00     0.026 A 
HETATM   26  C   UNL     1      23.973  -0.733  23.903  1.00  0.00    -0.033 A 
HETATM   27  C   UNL     1      24.536   0.543  23.300  1.00  0.00     0.050 C 
ENDBRANCH  18  20
ENDBRANCH  15  16
ENDBRANCH   1  15
TORSDOF 6
ENDMDL
MODEL 9
REMARK VINA RESULT:    -5.674      4.104      7.987
REMARK INTER + INTRA:          -8.777
REMARK INTER:                  -8.148
REMARK INTRA:                  -0.629
REMARK UNBOUND:                -1.113
REMARK  6 active torsions:
REMARK  status: ('A' for Active; 'I' for Inactive)
REMARK    1  A    between atoms: S_2  and  N_5 
REMARK    2  A    between atoms: N_5  and  C_7 
REMARK    3  A    between atoms: C_8  and  C_9 
REMARK    4  A    between atoms: C_9  and  C_15 
REMARK    5  A    between atoms: C_15  and  C_16 
REMARK       I    between atoms: C_16  and  N_18 
REMARK    6  A    between atoms: N_18  and  C_20 
ROOT
HETATM    1  C   UNL     1       7.254  -3.913  23.581  1.00  0.00     0.075 C 
HETATM    2  C   UNL     1       6.057  -3.486  22.436  1.00  0.00    -0.000 C 
HETATM    3  C   UNL     1       5.645  -4.122  21.746  1.00  0.00    -0.025 C 
HETATM    4  C   UNL     1       6.033  -5.583  21.357  1.00  0.00     0.054 C 
HETATM    5  C   UNL     1       7.107  -5.880  22.108  1.00  0.00    -0.025 C 
HETATM    6  C   UNL     1       7.676  -5.455  22.884  1.00  0.00    -0.000 C 
ENDROOT
BRANCH   1   7
HETATM    7  C   UNL     1       8.155  -3.220  24.065  1.00  0.00     0.021 C 
HETATM    8  C   UNL     1       9.215  -2.586  23.948  1.00  0.00     0.098 C 
BRANCH   8   9
HETATM    9  N   UNL     1      10.008  -1.646  24.170  1.00  0.00    -0.296 N 
ATOM     10  HN  UNL     1      10.040  -1.294  25.126  1.00  0.00     0.177 HD
BRANCH   9  11
HETATM   11  S   UNL     1      10.986  -0.933  23.108  1.00  0.00     0.226 S 
HETATM   12  C   UNL     1      10.019  -0.451  21.852  1.00  0.00     0.186 C 
HETATM   13  O   UNL     1      11.606   0.245  23.684  1.00  0.00    -0.206 OA
HETATM   14  O   UNL     1      11.993  -1.825  22.600  1.00  0.00    -0.206 OA
ENDBRANCH   9  11
ENDBRANCH   8   9
ENDBRANCH   1   7
BRANCH   1  15
HETATM   15  C   UNL     1       6.749  -4.198  24.648  1.00  0.00    -0.061 C 
BRANCH  15  16
HETATM   16  C   UNL     1       6.188  -4.490  25.838  1.00  0.00     0.290 C 
HETATM   17  O   UNL     1       6.369  -3.753  26.677  1.00  0.00    -0.259 OA
HETATM   18  N   UNL     1       5.513  -5.616  25.839  1.00  0.00    -0.315 N 
ATOM     19  HN  UNL     1       5.447  -6.152  24.974  1.00  0.00     0.170 HD
BRANCH  18  20
HETATM   20  C   UNL     1       4.944  -6.057  26.873  1.00  0.00     0.057 A 
HETATM   21  C   UNL     1       5.282  -6.862  27.888  1.00  0.00     0.117 A 
HETATM   22  N   UNL     1       5.075  -7.445  28.885  1.00  0.00    -0.373 N 
HETATM   23  C   UNL     1       3.773  -7.094  29.076  1.00  0.00     0.088 A 
ATOM     24  HN  UNL     1       5.688  -8.039  29.443  1.00  0.00     0.164 HD
HETATM   25  C   UNL     1       3.126  -6.322  28.333  1.00  0.00     0.026 A 
HETATM   26  C   UNL     1       3.470  -5.690  27.195  1.00  0.00    -0.033 A 
HETATM   27  C   UNL     1       2.626  -4.765  26.336  1.00  0.00     0.050 C 
ENDBRANCH  18  20
ENDBRANCH  15  16
ENDBRANCH   1  15
TORSDOF 6
ENDMDL
