stable:False satoms:11 tatoms:24 sratio:0.4583333333333333
  -OEChem-07092417483D

 24 24  0     0  0  0  0  0  0999 V2000
    6.6300   -4.8955   26.4638 C   0  0  0  0  0  0  0  0  0  0  0  0
    8.2276   -4.2889   26.1346 S   0  0  0  0  0  0  0  0  0  0  0  0
    9.0725   -5.4383   26.0489 O   0  0  0  0  0  0  0  0  0  0  0  0
    8.6254   -3.4306   27.2118 O   0  0  0  0  0  0  0  0  0  0  0  0
    8.0739   -3.5353   24.7030 N   0  0  0  0  0  0  0  0  0  0  0  0
    8.9695   -2.9271   24.1844 C   0  0  0  0  0  0  0  0  0  0  0  0
    9.4141   -1.9615   23.5391 C   0  0  0  0  0  0  0  0  0  0  0  0
   10.1624   -0.9902   23.3663 C   0  0  0  0  0  0  0  0  0  0  0  0
   11.0543   -0.0185   24.2549 C   0  0  0  0  0  0  0  0  0  0  0  0
   12.0203    0.2873   24.2331 C   0  0  0  0  0  0  0  0  0  0  0  0
   13.1501   -0.2086   23.3892 C   0  0  0  0  0  0  0  0  0  0  0  0
   12.6686   -1.3168   22.5958 C   0  0  0  0  0  0  0  0  0  0  0  0
   11.9392   -1.8376   22.3900 C   0  0  0  0  0  0  0  0  0  0  0  0
    9.7052   -0.5805   22.3611 C   0  0  0  0  0  0  0  0  0  0  0  0
    9.0549    0.0462   21.3658 C   0  0  0  0  0  0  0  0  0  0  0  0
    9.5123    0.9939   20.9629 O   0  0  0  0  0  0  0  0  0  0  0  0
    7.9542   -0.5797   21.0787 N   0  0  0  0  0  0  0  0  0  0  0  0
    7.1955   -0.0942   20.1781 C   0  0  0  0  0  0  0  0  0  0  0  0
    7.2411    0.0137   18.8721 C   0  0  0  0  0  0  0  0  0  0  0  0
    6.8187    0.3151   17.7848 N   0  0  0  0  0  0  0  0  0  0  0  0
    5.6672    0.9095   18.2454 C   0  0  0  0  0  0  0  0  0  0  0  0
    5.2361    1.0230   19.3871 C   0  0  0  0  0  0  0  0  0  0  0  0
    5.8623    0.5437   20.5476 C   0  0  0  0  0  0  0  0  0  0  0  0
    5.3286    0.6809   21.9981 C   0  0  0  0  0  0  0  0  0  0  0  0
 20 21  2  0  0  0  0
 19 20  1  0  0  0  0
 21 22  1  0  0  0  0
 18 19  2  0  0  0  0
 22 23  2  0  0  0  0
 18 23  1  0  0  0  0
 17 18  1  0  0  0  0
 23 24  1  0  0  0  0
 15 16  2  0  0  0  0
 15 17  1  0  0  0  0
 14 15  1  0  0  0  0
  8 14  2  3  0  0  0
 12 13  2  0  0  0  0
 11 12  1  0  0  0  0
  7  8  1  0  0  0  0
  8  9  1  0  0  0  0
 10 11  1  0  0  0  0
  6  7  2  3  0  0  0
  5  6  1  0  0  0  0
  9 10  2  0  0  0  0
  2  5  1  0  0  0  0
  2  3  2  0  0  0  0
  1  2  1  0  0  0  0
  2  4  2  0  0  0  0
M  END
> <Shapegauss>
-283.488251

$$$$
