REMARK  9 active torsions:
REMARK  status: ('A' for Active; 'I' for Inactive)
REMARK    1  A    between atoms: S_2  and  N_5 
REMARK    2  A    between atoms: C_7  and  C_8 
REMARK    3  A    between atoms: C_9  and  C_15 
REMARK    4  A    between atoms: C_9  and  C_10 
REMARK    5  A    between atoms: C_10  and  C_11 
REMARK    6  A    between atoms: C_11  and  C_12 
REMARK    7  A    between atoms: C_12  and  C_13 
REMARK    8  A    between atoms: C_15  and  C_16 
REMARK       I    between atoms: C_16  and  N_18 
REMARK    9  A    between atoms: N_18  and  C_20 
ROOT
HETATM    1  C   UNL     1       9.414  -1.962  23.539  1.00  0.00     0.038 C 
HETATM    2  C   UNL     1      10.162  -0.990  23.366  1.00  0.00     0.016 C 
ENDROOT
BRANCH   2   3
HETATM    3  C   UNL     1       9.705  -0.581  22.361  1.00  0.00    -0.044 C 
BRANCH   3   4
HETATM    4  C   UNL     1       9.055   0.046  21.366  1.00  0.00     0.294 C 
HETATM    5  O   UNL     1       9.512   0.994  20.963  1.00  0.00    -0.258 OA
HETATM    6  N   UNL     1       7.954  -0.580  21.079  1.00  0.00    -0.315 N 
ATOM      7  HN  UNL     1       7.702  -1.441  21.564  1.00  0.00     0.170 HD
BRANCH   6   8
HETATM    8  C   UNL     1       7.196  -0.094  20.178  1.00  0.00     0.057 A 
HETATM    9  C   UNL     1       7.241   0.014  18.872  1.00  0.00     0.117 A 
HETATM   10  N   UNL     1       6.819   0.315  17.785  1.00  0.00    -0.373 N 
HETATM   11  C   UNL     1       5.667   0.909  18.245  1.00  0.00     0.088 A 
ATOM     12  HN  UNL     1       7.189   0.177  16.845  1.00  0.00     0.164 HD
HETATM   13  C   UNL     1       5.236   1.023  19.387  1.00  0.00     0.026 A 
HETATM   14  C   UNL     1       5.862   0.544  20.548  1.00  0.00    -0.033 A 
HETATM   15  C   UNL     1       5.329   0.681  21.998  1.00  0.00     0.050 C 
ENDBRANCH   6   8
ENDBRANCH   3   4
ENDBRANCH   2   3
BRANCH   2  16
HETATM   16  C   UNL     1      11.054  -0.018  24.255  1.00  0.00     0.016 C 
BRANCH  16  17
HETATM   17  C   UNL     1      12.020   0.287  24.233  1.00  0.00    -0.021 C 
BRANCH  17  18
HETATM   18  C   UNL     1      13.150  -0.209  23.389  1.00  0.00     0.053 C 
BRANCH  18  19
HETATM   19  C   UNL     1      12.669  -1.317  22.596  1.00  0.00    -0.033 C 
HETATM   20  C   UNL     1      11.939  -1.838  22.390  1.00  0.00     0.007 C 
ENDBRANCH  18  19
ENDBRANCH  17  18
ENDBRANCH  16  17
ENDBRANCH   2  16
BRANCH   1  21
HETATM   21  C   UNL     1       8.970  -2.927  24.184  1.00  0.00     0.101 C 
HETATM   22  N   UNL     1       8.074  -3.535  24.703  1.00  0.00    -0.295 N 
ATOM     23  HN  UNL     1       7.175  -3.580  24.223  1.00  0.00     0.177 HD
BRANCH  22  24
HETATM   24  S   UNL     1       8.228  -4.289  26.135  1.00  0.00     0.226 S 
HETATM   25  C   UNL     1       6.630  -4.896  26.464  1.00  0.00     0.186 C 
HETATM   26  O   UNL     1       9.072  -5.438  26.049  1.00  0.00    -0.206 OA
HETATM   27  O   UNL     1       8.625  -3.431  27.212  1.00  0.00    -0.206 OA
ENDBRANCH  22  24
ENDBRANCH   1  21
TORSDOF 9
