MODEL 1
REMARK VINA RESULT:    -6.568      0.000      0.000
REMARK INTER + INTRA:         -11.199
REMARK INTER:                 -10.024
REMARK INTRA:                  -1.175
REMARK UNBOUND:                -1.175
REMARK  9 active torsions:
REMARK  status: ('A' for Active; 'I' for Inactive)
REMARK    1  A    between atoms: S_2  and  N_5 
REMARK    2  A    between atoms: C_7  and  C_8 
REMARK    3  A    between atoms: C_9  and  C_15 
REMARK    4  A    between atoms: C_9  and  C_10 
REMARK    5  A    between atoms: C_10  and  C_11 
REMARK    6  A    between atoms: C_11  and  C_12 
REMARK    7  A    between atoms: C_12  and  C_13 
REMARK    8  A    between atoms: C_15  and  C_16 
REMARK       I    between atoms: C_16  and  N_18 
REMARK    9  A    between atoms: N_18  and  C_20 
ROOT
HETATM    1  C   UNL     1       7.841  -1.502  22.055  1.00  0.00     0.038 C 
HETATM    2  C   UNL     1       8.902  -1.792  22.625  1.00  0.00     0.016 C 
ENDROOT
BRANCH   2   3
HETATM    3  C   UNL     1       8.538  -2.738  23.223  1.00  0.00    -0.044 C 
BRANCH   3   4
HETATM    4  C   UNL     1       7.981  -3.651  24.036  1.00  0.00     0.294 C 
HETATM    5  O   UNL     1       7.418  -4.501  23.555  1.00  0.00    -0.258 OA
HETATM    6  N   UNL     1       8.182  -3.334  25.280  1.00  0.00    -0.315 N 
ATOM      7  HN  UNL     1       8.726  -2.507  25.525  1.00  0.00     0.170 HD
BRANCH   6   8
HETATM    8  C   UNL     1       7.684  -4.079  26.185  1.00  0.00     0.057 A 
HETATM    9  C   UNL     1       8.026  -5.202  26.768  1.00  0.00     0.117 A 
HETATM   10  N   UNL     1       7.906  -6.105  27.556  1.00  0.00    -0.373 N 
HETATM   11  C   UNL     1       6.698  -5.686  28.062  1.00  0.00     0.088 A 
ATOM     12  HN  UNL     1       8.497  -6.907  27.774  1.00  0.00     0.164 HD
HETATM   13  C   UNL     1       6.032  -4.691  27.800  1.00  0.00     0.026 A 
HETATM   14  C   UNL     1       6.376  -3.699  26.868  1.00  0.00    -0.033 A 
HETATM   15  C   UNL     1       5.543  -2.436  26.527  1.00  0.00     0.050 C 
ENDBRANCH   6   8
ENDBRANCH   3   4
ENDBRANCH   2   3
BRANCH   2  16
HETATM   16  C   UNL     1      10.461  -1.588  22.385  1.00  0.00     0.016 C 
BRANCH  16  17
HETATM   17  C   UNL     1      11.228  -1.218  22.935  1.00  0.00    -0.021 C 
BRANCH  17  18
HETATM   18  C   UNL     1      11.205  -0.605  24.298  1.00  0.00     0.053 C 
BRANCH  18  19
HETATM   19  C   UNL     1      11.082   0.827  24.148  1.00  0.00    -0.033 C 
HETATM   20  C   UNL     1      11.539   1.614  24.013  1.00  0.00     0.007 C 
ENDBRANCH  18  19
ENDBRANCH  17  18
ENDBRANCH  16  17
ENDBRANCH   2  16
BRANCH   1  21
HETATM   21  C   UNL     1       7.145  -0.852  21.256  1.00  0.00     0.101 C 
HETATM   22  N   UNL     1       6.177  -0.715  20.560  1.00  0.00    -0.295 N 
ATOM     23  HN  UNL     1       5.277  -1.046  20.908  1.00  0.00     0.177 HD
BRANCH  22  24
HETATM   24  S   UNL     1       6.234  -0.027  19.088  1.00  0.00     0.226 S 
HETATM   25  C   UNL     1       5.049   1.245  19.172  1.00  0.00     0.186 C 
HETATM   26  O   UNL     1       7.484   0.619  18.845  1.00  0.00    -0.206 OA
HETATM   27  O   UNL     1       5.887  -0.909  18.012  1.00  0.00    -0.206 OA
ENDBRANCH  22  24
ENDBRANCH   1  21
TORSDOF 9
ENDMDL
MODEL 2
REMARK VINA RESULT:    -6.396      3.611      6.757
REMARK INTER + INTRA:         -10.936
REMARK INTER:                  -9.528
REMARK INTRA:                  -1.408
REMARK UNBOUND:                -1.175
REMARK  9 active torsions:
REMARK  status: ('A' for Active; 'I' for Inactive)
REMARK    1  A    between atoms: S_2  and  N_5 
REMARK    2  A    between atoms: C_7  and  C_8 
REMARK    3  A    between atoms: C_9  and  C_15 
REMARK    4  A    between atoms: C_9  and  C_10 
REMARK    5  A    between atoms: C_10  and  C_11 
REMARK    6  A    between atoms: C_11  and  C_12 
REMARK    7  A    between atoms: C_12  and  C_13 
REMARK    8  A    between atoms: C_15  and  C_16 
REMARK       I    between atoms: C_16  and  N_18 
REMARK    9  A    between atoms: N_18  and  C_20 
ROOT
HETATM    1  C   UNL     1       9.055   0.531  21.358  1.00  0.00     0.038 C 
HETATM    2  C   UNL     1      10.048  -0.006  21.868  1.00  0.00     0.016 C 
ENDROOT
BRANCH   2   3
HETATM    3  C   UNL     1      10.512   0.934  22.404  1.00  0.00    -0.044 C 
BRANCH   3   4
HETATM    4  C   UNL     1      10.941   1.905  23.227  1.00  0.00     0.294 C 
HETATM    5  O   UNL     1      11.278   1.601  24.259  1.00  0.00    -0.258 OA
HETATM    6  N   UNL     1      10.842   3.065  22.651  1.00  0.00    -0.315 N 
ATOM      7  HN  UNL     1      10.506   3.143  21.691  1.00  0.00     0.170 HD
BRANCH   6   8
HETATM    8  C   UNL     1      11.174   4.102  23.312  1.00  0.00     0.057 A 
HETATM    9  C   UNL     1      12.293   4.739  23.558  1.00  0.00     0.117 A 
HETATM   10  N   UNL     1      12.970   5.621  24.021  1.00  0.00    -0.373 N 
HETATM   11  C   UNL     1      11.940   6.252  24.679  1.00  0.00     0.088 A 
ATOM     12  HN  UNL     1      13.965   5.830  23.950  1.00  0.00     0.164 HD
HETATM   13  C   UNL     1      10.742   5.992  24.711  1.00  0.00     0.026 A 
HETATM   14  C   UNL     1      10.120   4.926  24.043  1.00  0.00    -0.033 A 
HETATM   15  C   UNL     1       8.608   4.585  24.074  1.00  0.00     0.050 C 
ENDBRANCH   6   8
ENDBRANCH   3   4
ENDBRANCH   2   3
BRANCH   2  16
HETATM   16  C   UNL     1      10.483  -1.457  22.351  1.00  0.00     0.016 C 
BRANCH  16  17
HETATM   17  C   UNL     1      10.229  -2.061  23.124  1.00  0.00    -0.021 C 
BRANCH  17  18
HETATM   18  C   UNL     1       8.994  -2.051  23.966  1.00  0.00     0.053 C 
BRANCH  18  19
HETATM   19  C   UNL     1       9.247  -1.235  25.131  1.00  0.00    -0.033 C 
HETATM   20  C   UNL     1       8.924  -0.966  25.950  1.00  0.00     0.007 C 
ENDBRANCH  18  19
ENDBRANCH  17  18
ENDBRANCH  16  17
ENDBRANCH   2  16
BRANCH   1  21
HETATM   21  C   UNL     1       7.981   0.525  20.732  1.00  0.00     0.101 C 
HETATM   22  N   UNL     1       7.002  -0.027  20.310  1.00  0.00    -0.295 N 
ATOM     23  HN  UNL     1       6.534  -0.710  20.906  1.00  0.00     0.177 HD
BRANCH  22  24
HETATM   24  S   UNL     1       6.386   0.265  18.834  1.00  0.00     0.226 S 
HETATM   25  C   UNL     1       4.977   1.236  19.151  1.00  0.00     0.186 C 
HETATM   26  O   UNL     1       7.252   1.081  18.043  1.00  0.00    -0.206 OA
HETATM   27  O   UNL     1       5.984  -0.911  18.121  1.00  0.00    -0.206 OA
ENDBRANCH  22  24
ENDBRANCH   1  21
TORSDOF 9
ENDMDL
MODEL 3
REMARK VINA RESULT:    -6.314      2.753      6.926
REMARK INTER + INTRA:         -10.810
REMARK INTER:                  -9.726
REMARK INTRA:                  -1.084
REMARK UNBOUND:                -1.175
REMARK  9 active torsions:
REMARK  status: ('A' for Active; 'I' for Inactive)
REMARK    1  A    between atoms: S_2  and  N_5 
REMARK    2  A    between atoms: C_7  and  C_8 
REMARK    3  A    between atoms: C_9  and  C_15 
REMARK    4  A    between atoms: C_9  and  C_10 
REMARK    5  A    between atoms: C_10  and  C_11 
REMARK    6  A    between atoms: C_11  and  C_12 
REMARK    7  A    between atoms: C_12  and  C_13 
REMARK    8  A    between atoms: C_15  and  C_16 
REMARK       I    between atoms: C_16  and  N_18 
REMARK    9  A    between atoms: N_18  and  C_20 
ROOT
HETATM    1  C   UNL     1       8.632  -2.997  23.890  1.00  0.00     0.038 C 
HETATM    2  C   UNL     1       9.368  -2.299  23.180  1.00  0.00     0.016 C 
ENDROOT
BRANCH   2   3
HETATM    3  C   UNL     1       8.546  -1.776  22.519  1.00  0.00    -0.044 C 
BRANCH   3   4
HETATM    4  C   UNL     1       7.504  -1.412  21.752  1.00  0.00     0.294 C 
HETATM    5  O   UNL     1       6.521  -1.932  21.931  1.00  0.00    -0.258 OA
HETATM    6  N   UNL     1       7.869  -0.513  20.889  1.00  0.00    -0.315 N 
ATOM      7  HN  UNL     1       8.825  -0.158  20.878  1.00  0.00     0.170 HD
BRANCH   6   8
HETATM    8  C   UNL     1       7.006  -0.085  20.056  1.00  0.00     0.057 A 
HETATM    9  C   UNL     1       6.546  -0.481  18.894  1.00  0.00     0.117 A 
HETATM   10  N   UNL     1       5.836  -0.426  17.923  1.00  0.00    -0.373 N 
HETATM   11  C   UNL     1       5.224   0.757  18.268  1.00  0.00     0.088 A 
ATOM     12  HN  UNL     1       5.725  -1.044  17.120  1.00  0.00     0.164 HD
HETATM   13  C   UNL     1       5.357   1.456  19.267  1.00  0.00     0.026 A 
HETATM   14  C   UNL     1       6.216   1.187  20.343  1.00  0.00    -0.033 A 
HETATM   15  C   UNL     1       6.394   2.061  21.612  1.00  0.00     0.050 C 
ENDBRANCH   6   8
ENDBRANCH   3   4
ENDBRANCH   2   3
BRANCH   2  16
HETATM   16  C   UNL     1      10.813  -1.639  23.273  1.00  0.00     0.016 C 
BRANCH  16  17
HETATM   17  C   UNL     1      11.181  -0.703  23.153  1.00  0.00    -0.021 C 
BRANCH  17  18
HETATM   18  C   UNL     1      11.715   0.243  24.181  1.00  0.00     0.053 C 
BRANCH  18  19
HETATM   19  C   UNL     1      10.597   0.935  24.781  1.00  0.00    -0.033 C 
HETATM   20  C   UNL     1       9.960   1.588  24.661  1.00  0.00     0.007 C 
ENDBRANCH  18  19
ENDBRANCH  17  18
ENDBRANCH  16  17
ENDBRANCH   2  16
BRANCH   1  21
HETATM   21  C   UNL     1       8.401  -3.779  24.829  1.00  0.00     0.101 C 
HETATM   22  N   UNL     1       8.045  -4.839  25.264  1.00  0.00    -0.295 N 
ATOM     23  HN  UNL     1       8.324  -5.686  24.769  1.00  0.00     0.177 HD
BRANCH  22  24
HETATM   24  S   UNL     1       7.137  -4.987  26.605  1.00  0.00     0.226 S 
HETATM   25  C   UNL     1       5.801  -5.982  26.100  1.00  0.00     0.186 C 
HETATM   26  O   UNL     1       7.808  -5.724  27.628  1.00  0.00    -0.206 OA
HETATM   27  O   UNL     1       6.624  -3.747  27.107  1.00  0.00    -0.206 OA
ENDBRANCH  22  24
ENDBRANCH   1  21
TORSDOF 9
ENDMDL
MODEL 4
REMARK VINA RESULT:    -6.215      4.054      7.992
REMARK INTER + INTRA:         -10.660
REMARK INTER:                  -9.566
REMARK INTRA:                  -1.094
REMARK UNBOUND:                -1.175
REMARK  9 active torsions:
REMARK  status: ('A' for Active; 'I' for Inactive)
REMARK    1  A    between atoms: S_2  and  N_5 
REMARK    2  A    between atoms: C_7  and  C_8 
REMARK    3  A    between atoms: C_9  and  C_15 
REMARK    4  A    between atoms: C_9  and  C_10 
REMARK    5  A    between atoms: C_10  and  C_11 
REMARK    6  A    between atoms: C_11  and  C_12 
REMARK    7  A    between atoms: C_12  and  C_13 
REMARK    8  A    between atoms: C_15  and  C_16 
REMARK       I    between atoms: C_16  and  N_18 
REMARK    9  A    between atoms: N_18  and  C_20 
ROOT
HETATM    1  C   UNL     1       7.775  -4.427  26.245  1.00  0.00     0.038 C 
HETATM    2  C   UNL     1       7.810  -4.167  25.034  1.00  0.00     0.016 C 
ENDROOT
BRANCH   2   3
HETATM    3  C   UNL     1       8.245  -3.075  25.092  1.00  0.00    -0.044 C 
BRANCH   3   4
HETATM    4  C   UNL     1       8.969  -1.945  25.179  1.00  0.00     0.294 C 
HETATM    5  O   UNL     1       8.827  -1.307  26.096  1.00  0.00    -0.258 OA
HETATM    6  N   UNL     1       9.696  -1.791  24.114  1.00  0.00    -0.315 N 
ATOM      7  HN  UNL     1       9.690  -2.490  23.372  1.00  0.00     0.170 HD
BRANCH   6   8
HETATM    8  C   UNL     1      10.418  -0.745  24.018  1.00  0.00     0.057 A 
HETATM    9  C   UNL     1      11.645  -0.419  24.346  1.00  0.00     0.117 A 
HETATM   10  N   UNL     1      12.601   0.310  24.413  1.00  0.00    -0.373 N 
HETATM   11  C   UNL     1      11.978   1.404  23.859  1.00  0.00     0.088 A 
ATOM     12  HN  UNL     1      13.548   0.166  24.761  1.00  0.00     0.164 HD
HETATM   13  C   UNL     1      10.842   1.529  23.415  1.00  0.00     0.026 A 
HETATM   14  C   UNL     1       9.867   0.521  23.373  1.00  0.00    -0.033 A 
HETATM   15  C   UNL     1       8.427   0.664  22.815  1.00  0.00     0.050 C 
ENDBRANCH   6   8
ENDBRANCH   3   4
ENDBRANCH   2   3
BRANCH   2  16
HETATM   16  C   UNL     1       7.916  -4.964  23.661  1.00  0.00     0.016 C 
BRANCH  16  17
HETATM   17  C   UNL     1       7.316  -5.078  22.852  1.00  0.00    -0.021 C 
BRANCH  17  18
HETATM   18  C   UNL     1       6.267  -6.111  22.590  1.00  0.00     0.053 C 
BRANCH  18  19
HETATM   19  C   UNL     1       5.277  -6.025  23.639  1.00  0.00    -0.033 C 
HETATM   20  C   UNL     1       4.768  -6.503  24.238  1.00  0.00     0.007 C 
ENDBRANCH  18  19
ENDBRANCH  17  18
ENDBRANCH  16  17
ENDBRANCH   2  16
BRANCH   1  21
HETATM   21  C   UNL     1       7.596  -5.176  27.220  1.00  0.00     0.101 C 
HETATM   22  N   UNL     1       7.353  -6.247  27.705  1.00  0.00    -0.295 N 
ATOM     23  HN  UNL     1       7.761  -7.079  27.278  1.00  0.00     0.177 HD
BRANCH  22  24
HETATM   24  S   UNL     1       6.403  -6.433  29.012  1.00  0.00     0.226 S 
HETATM   25  C   UNL     1       4.816  -6.690  28.345  1.00  0.00     0.186 C 
HETATM   26  O   UNL     1       6.718  -7.620  29.740  1.00  0.00    -0.206 OA
HETATM   27  O   UNL     1       6.360  -5.289  29.874  1.00  0.00    -0.206 OA
ENDBRANCH  22  24
ENDBRANCH   1  21
TORSDOF 9
ENDMDL
MODEL 5
REMARK VINA RESULT:    -6.202     14.191     17.428
REMARK INTER + INTRA:         -10.640
REMARK INTER:                  -9.263
REMARK INTRA:                  -1.377
REMARK UNBOUND:                -1.175
REMARK  9 active torsions:
REMARK  status: ('A' for Active; 'I' for Inactive)
REMARK    1  A    between atoms: S_2  and  N_5 
REMARK    2  A    between atoms: C_7  and  C_8 
REMARK    3  A    between atoms: C_9  and  C_15 
REMARK    4  A    between atoms: C_9  and  C_10 
REMARK    5  A    between atoms: C_10  and  C_11 
REMARK    6  A    between atoms: C_11  and  C_12 
REMARK    7  A    between atoms: C_12  and  C_13 
REMARK    8  A    between atoms: C_15  and  C_16 
REMARK       I    between atoms: C_16  and  N_18 
REMARK    9  A    between atoms: N_18  and  C_20 
ROOT
HETATM    1  C   UNL     1      24.234  -3.029  23.431  1.00  0.00     0.038 C 
HETATM    2  C   UNL     1      24.124  -1.818  23.194  1.00  0.00     0.016 C 
ENDROOT
BRANCH   2   3
HETATM    3  C   UNL     1      23.642  -1.882  22.121  1.00  0.00    -0.044 C 
BRANCH   3   4
HETATM    4  C   UNL     1      23.189  -1.722  20.866  1.00  0.00     0.294 C 
HETATM    5  O   UNL     1      22.084  -1.861  20.691  1.00  0.00    -0.258 OA
HETATM    6  N   UNL     1      24.172  -1.461  20.060  1.00  0.00    -0.315 N 
ATOM      7  HN  UNL     1      25.126  -1.373  20.411  1.00  0.00     0.170 HD
BRANCH   6   8
HETATM    8  C   UNL     1      23.919  -1.317  18.820  1.00  0.00     0.057 A 
HETATM    9  C   UNL     1      23.543  -0.325  18.048  1.00  0.00     0.117 A 
HETATM   10  N   UNL     1      23.258   0.197  17.001  1.00  0.00    -0.373 N 
HETATM   11  C   UNL     1      23.366  -0.945  16.244  1.00  0.00     0.088 A 
ATOM     12  HN  UNL     1      23.019   1.159  16.759  1.00  0.00     0.164 HD
HETATM   13  C   UNL     1      23.694  -2.082  16.566  1.00  0.00     0.026 A 
HETATM   14  C   UNL     1      24.054  -2.492  17.859  1.00  0.00    -0.033 A 
HETATM   15  C   UNL     1      24.471  -3.925  18.281  1.00  0.00     0.050 C 
ENDBRANCH   6   8
ENDBRANCH   3   4
ENDBRANCH   2   3
BRANCH   2  16
HETATM   16  C   UNL     1      23.983  -0.465  24.018  1.00  0.00     0.016 C 
BRANCH  16  17
HETATM   17  C   UNL     1      23.382  -0.142  24.766  1.00  0.00    -0.021 C 
BRANCH  17  18
HETATM   18  C   UNL     1      21.916   0.152  24.742  1.00  0.00     0.053 C 
BRANCH  18  19
HETATM   19  C   UNL     1      21.210  -1.036  25.164  1.00  0.00    -0.033 C 
HETATM   20  C   UNL     1      20.452  -1.545  25.050  1.00  0.00     0.007 C 
ENDBRANCH  18  19
ENDBRANCH  17  18
ENDBRANCH  16  17
ENDBRANCH   2  16
BRANCH   1  21
HETATM   21  C   UNL     1      24.498  -4.004  24.154  1.00  0.00     0.101 C 
HETATM   22  N   UNL     1      24.537  -5.184  24.373  1.00  0.00    -0.295 N 
ATOM     23  HN  UNL     1      24.807  -5.810  23.614  1.00  0.00     0.177 HD
BRANCH  22  24
HETATM   24  S   UNL     1      24.180  -5.829  25.821  1.00  0.00     0.226 S 
HETATM   25  C   UNL     1      25.567  -5.453  26.803  1.00  0.00     0.186 C 
HETATM   26  O   UNL     1      23.073  -5.174  26.442  1.00  0.00    -0.206 OA
HETATM   27  O   UNL     1      24.000  -7.251  25.804  1.00  0.00    -0.206 OA
ENDBRANCH  22  24
ENDBRANCH   1  21
TORSDOF 9
ENDMDL
MODEL 6
REMARK VINA RESULT:    -6.008      3.021      4.913
REMARK INTER + INTRA:         -10.344
REMARK INTER:                  -8.926
REMARK INTRA:                  -1.418
REMARK UNBOUND:                -1.175
REMARK  9 active torsions:
REMARK  status: ('A' for Active; 'I' for Inactive)
REMARK    1  A    between atoms: S_2  and  N_5 
REMARK    2  A    between atoms: C_7  and  C_8 
REMARK    3  A    between atoms: C_9  and  C_15 
REMARK    4  A    between atoms: C_9  and  C_10 
REMARK    5  A    between atoms: C_10  and  C_11 
REMARK    6  A    between atoms: C_11  and  C_12 
REMARK    7  A    between atoms: C_12  and  C_13 
REMARK    8  A    between atoms: C_15  and  C_16 
REMARK       I    between atoms: C_16  and  N_18 
REMARK    9  A    between atoms: N_18  and  C_20 
ROOT
HETATM    1  C   UNL     1       8.718  -3.673  24.116  1.00  0.00     0.038 C 
HETATM    2  C   UNL     1       8.174  -4.785  24.091  1.00  0.00     0.016 C 
ENDROOT
BRANCH   2   3
HETATM    3  C   UNL     1       7.898  -4.883  25.232  1.00  0.00    -0.044 C 
BRANCH   3   4
HETATM    4  C   UNL     1       7.407  -5.158  26.452  1.00  0.00     0.294 C 
HETATM    5  O   UNL     1       8.124  -5.126  27.320  1.00  0.00    -0.258 OA
HETATM    6  N   UNL     1       6.146  -5.459  26.375  1.00  0.00    -0.315 N 
ATOM      7  HN  UNL     1       5.658  -5.434  25.479  1.00  0.00     0.170 HD
BRANCH   6   8
HETATM    8  C   UNL     1       5.533  -5.784  27.442  1.00  0.00     0.057 A 
HETATM    9  C   UNL     1       5.334  -6.896  28.109  1.00  0.00     0.117 A 
HETATM   10  N   UNL     1       4.920  -7.564  29.021  1.00  0.00    -0.373 N 
HETATM   11  C   UNL     1       4.265  -6.537  29.657  1.00  0.00     0.088 A 
ATOM     12  HN  UNL     1       5.020  -8.554  29.244  1.00  0.00     0.164 HD
HETATM   13  C   UNL     1       4.197  -5.345  29.376  1.00  0.00     0.026 A 
HETATM   14  C   UNL     1       4.811  -4.730  28.275  1.00  0.00    -0.033 A 
HETATM   15  C   UNL     1       4.735  -3.225  27.907  1.00  0.00     0.050 C 
ENDBRANCH   6   8
ENDBRANCH   3   4
ENDBRANCH   2   3
BRANCH   2  16
HETATM   16  C   UNL     1       7.408  -5.698  23.036  1.00  0.00     0.016 C 
BRANCH  16  17
HETATM   17  C   UNL     1       6.658  -5.548  22.372  1.00  0.00    -0.021 C 
BRANCH  17  18
HETATM   18  C   UNL     1       5.395  -4.763  22.531  1.00  0.00     0.053 C 
BRANCH  18  19
HETATM   19  C   UNL     1       5.654  -3.403  22.119  1.00  0.00    -0.033 C 
HETATM   20  C   UNL     1       5.698  -2.825  21.404  1.00  0.00     0.007 C 
ENDBRANCH  18  19
ENDBRANCH  17  18
ENDBRANCH  16  17
ENDBRANCH   2  16
BRANCH   1  21
HETATM   21  C   UNL     1       9.248  -2.678  23.593  1.00  0.00     0.101 C 
HETATM   22  N   UNL     1       9.868  -2.145  22.713  1.00  0.00    -0.295 N 
ATOM     23  HN  UNL     1       9.675  -2.416  21.749  1.00  0.00     0.177 HD
BRANCH  22  24
HETATM   24  S   UNL     1      11.000  -1.011  22.989  1.00  0.00     0.226 S 
HETATM   25  C   UNL     1      10.582  -0.373  24.554  1.00  0.00     0.186 C 
HETATM   26  O   UNL     1      12.303  -1.577  23.133  1.00  0.00    -0.206 OA
HETATM   27  O   UNL     1      11.000   0.063  22.040  1.00  0.00    -0.206 OA
ENDBRANCH  22  24
ENDBRANCH   1  21
TORSDOF 9
ENDMDL
MODEL 7
REMARK VINA RESULT:    -5.806      3.917      8.055
REMARK INTER + INTRA:         -10.035
REMARK INTER:                  -8.404
REMARK INTRA:                  -1.631
REMARK UNBOUND:                -1.175
REMARK  9 active torsions:
REMARK  status: ('A' for Active; 'I' for Inactive)
REMARK    1  A    between atoms: S_2  and  N_5 
REMARK    2  A    between atoms: C_7  and  C_8 
REMARK    3  A    between atoms: C_9  and  C_15 
REMARK    4  A    between atoms: C_9  and  C_10 
REMARK    5  A    between atoms: C_10  and  C_11 
REMARK    6  A    between atoms: C_11  and  C_12 
REMARK    7  A    between atoms: C_12  and  C_13 
REMARK    8  A    between atoms: C_15  and  C_16 
REMARK       I    between atoms: C_16  and  N_18 
REMARK    9  A    between atoms: N_18  and  C_20 
ROOT
HETATM    1  C   UNL     1       6.570  -4.194  26.495  1.00  0.00     0.038 C 
HETATM    2  C   UNL     1       5.899  -3.762  25.548  1.00  0.00     0.016 C 
ENDROOT
BRANCH   2   3
HETATM    3  C   UNL     1       6.648  -2.948  25.146  1.00  0.00    -0.044 C 
BRANCH   3   4
HETATM    4  C   UNL     1       7.300  -1.928  24.563  1.00  0.00     0.294 C 
HETATM    5  O   UNL     1       7.177  -0.904  25.017  1.00  0.00    -0.258 OA
HETATM    6  N   UNL     1       7.946  -2.343  23.515  1.00  0.00    -0.315 N 
ATOM      7  HN  UNL     1       7.938  -3.328  23.254  1.00  0.00     0.170 HD
BRANCH   6   8
HETATM    8  C   UNL     1       8.590  -1.490  22.821  1.00  0.00     0.057 A 
HETATM    9  C   UNL     1       9.780  -0.942  22.877  1.00  0.00     0.117 A 
HETATM   10  N   UNL     1      10.677  -0.236  22.493  1.00  0.00    -0.373 N 
HETATM   11  C   UNL     1       9.990   0.290  21.424  1.00  0.00     0.088 A 
ATOM     12  HN  UNL     1      11.622  -0.080  22.842  1.00  0.00     0.164 HD
HETATM   13  C   UNL     1       8.860   0.050  21.013  1.00  0.00     0.026 A 
HETATM   14  C   UNL     1       7.964  -0.871  21.577  1.00  0.00    -0.033 A 
HETATM   15  C   UNL     1       6.533  -1.185  21.068  1.00  0.00     0.050 C 
ENDBRANCH   6   8
ENDBRANCH   3   4
ENDBRANCH   2   3
BRANCH   2  16
HETATM   16  C   UNL     1       4.747  -4.287  24.584  1.00  0.00     0.016 C 
BRANCH  16  17
HETATM   17  C   UNL     1       4.655  -4.415  23.583  1.00  0.00    -0.021 C 
BRANCH  17  18
HETATM   18  C   UNL     1       5.043  -5.586  22.739  1.00  0.00     0.053 C 
BRANCH  18  19
HETATM   19  C   UNL     1       6.312  -5.292  22.113  1.00  0.00    -0.033 C 
HETATM   20  C   UNL     1       7.068  -5.652  21.733  1.00  0.00     0.007 C 
ENDBRANCH  18  19
ENDBRANCH  17  18
ENDBRANCH  16  17
ENDBRANCH   2  16
BRANCH   1  21
HETATM   21  C   UNL     1       6.800  -4.975  27.434  1.00  0.00     0.101 C 
HETATM   22  N   UNL     1       7.029  -6.068  27.874  1.00  0.00    -0.295 N 
ATOM     23  HN  UNL     1       7.657  -6.681  27.353  1.00  0.00     0.177 HD
BRANCH  22  24
HETATM   24  S   UNL     1       6.383  -6.618  29.261  1.00  0.00     0.226 S 
HETATM   25  C   UNL     1       4.706  -6.871  28.872  1.00  0.00     0.186 C 
HETATM   26  O   UNL     1       6.898  -7.900  29.622  1.00  0.00    -0.206 OA
HETATM   27  O   UNL     1       6.468  -5.696  30.355  1.00  0.00    -0.206 OA
ENDBRANCH  22  24
ENDBRANCH   1  21
TORSDOF 9
ENDMDL
MODEL 8
REMARK VINA RESULT:    -5.761     25.876     29.710
REMARK INTER + INTRA:          -9.967
REMARK INTER:                  -8.674
REMARK INTRA:                  -1.293
REMARK UNBOUND:                -1.175
REMARK  9 active torsions:
REMARK  status: ('A' for Active; 'I' for Inactive)
REMARK    1  A    between atoms: S_2  and  N_5 
REMARK    2  A    between atoms: C_7  and  C_8 
REMARK    3  A    between atoms: C_9  and  C_15 
REMARK    4  A    between atoms: C_9  and  C_10 
REMARK    5  A    between atoms: C_10  and  C_11 
REMARK    6  A    between atoms: C_11  and  C_12 
REMARK    7  A    between atoms: C_12  and  C_13 
REMARK    8  A    between atoms: C_15  and  C_16 
REMARK       I    between atoms: C_16  and  N_18 
REMARK    9  A    between atoms: N_18  and  C_20 
ROOT
HETATM    1  C   UNL     1       8.207  15.360   1.788  1.00  0.00     0.038 C 
HETATM    2  C   UNL     1       8.131  16.343   2.538  1.00  0.00     0.016 C 
ENDROOT
BRANCH   2   3
HETATM    3  C   UNL     1       8.633  17.147   1.841  1.00  0.00    -0.044 C 
BRANCH   3   4
HETATM    4  C   UNL     1       9.319  18.146   1.259  1.00  0.00     0.294 C 
HETATM    5  O   UNL     1       9.936  17.893   0.351  1.00  0.00    -0.258 OA
HETATM    6  N   UNL     1       9.154  19.253   1.918  1.00  0.00    -0.315 N 
ATOM      7  HN  UNL     1       8.545  19.287   2.736  1.00  0.00     0.170 HD
BRANCH   6   8
HETATM    8  C   UNL     1       9.769  20.295   1.520  1.00  0.00     0.057 A 
HETATM    9  C   UNL     1      10.889  20.900   1.833  1.00  0.00     0.117 A 
HETATM   10  N   UNL     1      11.743  21.743   1.727  1.00  0.00    -0.373 N 
HETATM   11  C   UNL     1      11.104  22.462   0.744  1.00  0.00     0.088 A 
ATOM     12  HN  UNL     1      12.634  21.878   2.204  1.00  0.00     0.164 HD
HETATM   13  C   UNL     1      10.044  22.246   0.167  1.00  0.00     0.026 A 
HETATM   14  C   UNL     1       9.197  21.151   0.396  1.00  0.00    -0.033 A 
HETATM   15  C   UNL     1       7.855  20.866  -0.326  1.00  0.00     0.050 C 
ENDBRANCH   6   8
ENDBRANCH   3   4
ENDBRANCH   2   3
BRANCH   2  16
HETATM   16  C   UNL     1       7.219  16.835   3.745  1.00  0.00     0.016 C 
BRANCH  16  17
HETATM   17  C   UNL     1       6.476  16.420   4.296  1.00  0.00    -0.021 C 
BRANCH  17  18
HETATM   18  C   UNL     1       6.501  15.187   5.141  1.00  0.00     0.053 C 
BRANCH  18  19
HETATM   19  C   UNL     1       5.562  14.240   4.584  1.00  0.00    -0.033 C 
HETATM   20  C   UNL     1       4.732  14.135   4.201  1.00  0.00     0.007 C 
ENDBRANCH  18  19
ENDBRANCH  17  18
ENDBRANCH  16  17
ENDBRANCH   2  16
BRANCH   1  21
HETATM   21  C   UNL     1       7.982  14.180   1.469  1.00  0.00     0.101 C 
HETATM   22  N   UNL     1       7.597  13.343   0.698  1.00  0.00    -0.295 N 
ATOM     23  HN  UNL     1       7.816  13.457  -0.292  1.00  0.00     0.177 HD
BRANCH  22  24
HETATM   24  S   UNL     1       6.743  12.040   1.160  1.00  0.00     0.226 S 
HETATM   25  C   UNL     1       7.368  11.666   2.741  1.00  0.00     0.186 C 
HETATM   26  O   UNL     1       5.360  12.343   1.349  1.00  0.00    -0.206 OA
HETATM   27  O   UNL     1       6.914  10.895   0.315  1.00  0.00    -0.206 OA
ENDBRANCH  22  24
ENDBRANCH   1  21
TORSDOF 9
ENDMDL
MODEL 9
REMARK VINA RESULT:    -5.616      1.741      2.206
REMARK INTER + INTRA:          -9.745
REMARK INTER:                  -8.548
REMARK INTRA:                  -1.197
REMARK UNBOUND:                -1.175
REMARK  9 active torsions:
REMARK  status: ('A' for Active; 'I' for Inactive)
REMARK    1  A    between atoms: S_2  and  N_5 
REMARK    2  A    between atoms: C_7  and  C_8 
REMARK    3  A    between atoms: C_9  and  C_15 
REMARK    4  A    between atoms: C_9  and  C_10 
REMARK    5  A    between atoms: C_10  and  C_11 
REMARK    6  A    between atoms: C_11  and  C_12 
REMARK    7  A    between atoms: C_12  and  C_13 
REMARK    8  A    between atoms: C_15  and  C_16 
REMARK       I    between atoms: C_16  and  N_18 
REMARK    9  A    between atoms: N_18  and  C_20 
ROOT
HETATM    1  C   UNL     1       7.981  -0.879  23.092  1.00  0.00     0.038 C 
HETATM    2  C   UNL     1       8.338  -0.514  24.220  1.00  0.00     0.016 C 
ENDROOT
BRANCH   2   3
HETATM    3  C   UNL     1       8.324  -1.557  24.766  1.00  0.00    -0.044 C 
BRANCH   3   4
HETATM    4  C   UNL     1       8.103  -2.655  25.510  1.00  0.00     0.294 C 
HETATM    5  O   UNL     1       9.003  -3.181  25.939  1.00  0.00    -0.258 OA
HETATM    6  N   UNL     1       6.834  -2.923  25.556  1.00  0.00    -0.315 N 
ATOM      7  HN  UNL     1       6.156  -2.318  25.093  1.00  0.00     0.170 HD
BRANCH   6   8
HETATM    8  C   UNL     1       6.454  -3.958  26.193  1.00  0.00     0.057 A 
HETATM    9  C   UNL     1       6.264  -4.268  27.453  1.00  0.00     0.117 A 
HETATM   10  N   UNL     1       5.942  -4.984  28.366  1.00  0.00    -0.373 N 
HETATM   11  C   UNL     1       5.679  -6.087  27.589  1.00  0.00     0.088 A 
ATOM     12  HN  UNL     1       5.884  -4.826  29.372  1.00  0.00     0.164 HD
HETATM   13  C   UNL     1       5.724  -6.228  26.372  1.00  0.00     0.026 A 
HETATM   14  C   UNL     1       6.078  -5.233  25.447  1.00  0.00    -0.033 A 
HETATM   15  C   UNL     1       6.140  -5.397  23.906  1.00  0.00     0.050 C 
ENDBRANCH   6   8
ENDBRANCH   3   4
ENDBRANCH   2   3
BRANCH   2  16
HETATM   16  C   UNL     1       9.176   0.676  24.862  1.00  0.00     0.016 C 
BRANCH  16  17
HETATM   17  C   UNL     1      10.121   1.026  24.753  1.00  0.00    -0.021 C 
BRANCH  17  18
HETATM   18  C   UNL     1      11.134   0.704  23.703  1.00  0.00     0.053 C 
BRANCH  18  19
HETATM   19  C   UNL     1      12.141  -0.149  24.293  1.00  0.00    -0.033 C 
HETATM   20  C   UNL     1      13.034  -0.369  24.302  1.00  0.00     0.007 C 
ENDBRANCH  18  19
ENDBRANCH  17  18
ENDBRANCH  16  17
ENDBRANCH   2  16
BRANCH   1  21
HETATM   21  C   UNL     1       7.747  -0.702  21.884  1.00  0.00     0.101 C 
HETATM   22  N   UNL     1       8.016  -0.247  20.806  1.00  0.00    -0.295 N 
ATOM     23  HN  UNL     1       8.991  -0.252  20.506  1.00  0.00     0.177 HD
BRANCH  22  24
HETATM   24  S   UNL     1       6.899   0.376  19.803  1.00  0.00     0.226 S 
HETATM   25  C   UNL     1       5.728  -0.901  19.634  1.00  0.00     0.186 C 
HETATM   26  O   UNL     1       6.199   1.472  20.394  1.00  0.00    -0.206 OA
HETATM   27  O   UNL     1       7.399   0.717  18.505  1.00  0.00    -0.206 OA
ENDBRANCH  22  24
ENDBRANCH   1  21
TORSDOF 9
ENDMDL
