stable:False satoms:9 tatoms:24 sratio:0.375
  -OEChem-07092417463D

 24 25  0     1  0  0  0  0  0999 V2000
    6.5843   -4.8231   26.4540 C   0  0  0  0  0  0  0  0  0  0  0  0
    8.2301   -4.2741   26.0798 S   0  0  0  0  0  0  0  0  0  0  0  0
    9.0766   -5.4222   26.0371 O   0  0  0  0  0  0  0  0  0  0  0  0
    8.6219   -3.3966   27.1244 O   0  0  0  0  0  0  0  0  0  0  0  0
    8.0593   -3.5466   24.6684 N   0  0  0  0  0  0  0  0  0  0  0  0
    8.9681   -2.8859   24.1174 C   0  0  0  0  0  0  0  0  0  0  0  0
    9.4385   -2.0130   23.5149 C   0  0  0  0  0  0  0  0  0  0  0  0
   10.3280   -1.1574   23.2399 C   0  0  1  0  0  0  0  0  0  0  0  0
   10.9900   -0.0624   24.3369 C   0  0  0  0  0  0  0  0  0  0  0  0
   12.0691    0.2071   24.3097 C   0  0  0  0  0  0  0  0  0  0  0  0
   13.1160   -0.1949   23.5522 C   0  0  0  0  0  0  0  0  0  0  0  0
   12.7467   -1.2376   22.6885 C   0  0  0  0  0  0  0  0  0  0  0  0
   11.7872   -1.6825   22.5629 C   0  0  0  0  0  0  0  0  0  0  0  0
    9.7142   -0.5483   22.3071 C   0  0  0  0  0  0  0  0  0  0  0  0
    9.0496    0.0368   21.3803 C   0  0  0  0  0  0  0  0  0  0  0  0
    9.5283    0.9893   20.9735 O   0  0  0  0  0  0  0  0  0  0  0  0
    7.8762   -0.5855   21.1040 N   0  0  0  0  0  0  0  0  0  0  0  0
    7.1870   -0.1233   20.1980 C   0  0  0  0  0  0  0  0  0  0  0  0
    7.2384    0.0187   18.8899 C   0  0  0  0  0  0  0  0  0  0  0  0
    6.7320    0.3907   17.7980 N   0  0  0  0  0  0  0  0  0  0  0  0
    5.7264    0.8615   18.2850 C   0  0  0  0  0  0  0  0  0  0  0  0
    5.2875    0.9641   19.4767 C   0  0  0  0  0  0  0  0  0  0  0  0
    5.7909    0.5620   20.5915 C   0  0  0  0  0  0  0  0  0  0  0  0
    5.4377    0.6332   21.6066 C   0  0  0  0  0  0  0  0  0  0  0  0
 20 21  2  0  0  0  0
 19 20  1  0  0  0  0
 21 22  1  0  0  0  0
 18 19  2  0  0  0  0
 22 23  2  0  0  0  0
 18 23  1  0  0  0  0
 17 18  1  0  0  0  0
 23 24  1  0  0  0  0
 15 16  2  0  0  0  0
 15 17  1  0  0  0  0
 14 15  1  0  0  0  0
  8 14  1  0  0  0  0
 12 13  1  0  0  0  0
  8 13  1  0  0  0  0
 11 12  2  0  0  0  0
  7  8  1  0  0  0  0
  8  9  1  0  0  0  0
  6  7  3  0  0  0  0
 10 11  1  0  0  0  0
  5  6  1  0  0  0  0
  9 10  2  0  0  0  0
  2  5  1  0  0  0  0
  2  3  2  0  0  0  0
  1  2  1  0  0  0  0
  2  4  2  0  0  0  0
M  END
> <Shapegauss>
-289.322266

$$$$
