REMARK  6 active torsions:
REMARK  status: ('A' for Active; 'I' for Inactive)
REMARK    1  A    between atoms: S_2  and  N_5 
REMARK    2  A    between atoms: C_7  and  C_8 
REMARK    3  A    between atoms: C_8  and  C_9 
REMARK    4  A    between atoms: C_9  and  C_15 
REMARK    5  A    between atoms: C_15  and  C_16 
REMARK       I    between atoms: C_16  and  N_18 
REMARK    6  A    between atoms: N_18  and  C_20 
ROOT
HETATM    1  C   UNL     1      10.328  -1.157  23.240  1.00  0.00     0.076 C 
HETATM    2  C   UNL     1      10.990  -0.062  24.337  1.00  0.00     0.003 C 
HETATM    3  C   UNL     1      12.069   0.207  24.310  1.00  0.00    -0.002 C 
HETATM    4  C   UNL     1      13.116  -0.195  23.552  1.00  0.00    -0.001 C 
HETATM    5  C   UNL     1      12.747  -1.238  22.689  1.00  0.00    -0.002 C 
HETATM    6  C   UNL     1      11.787  -1.683  22.563  1.00  0.00     0.003 C 
ENDROOT
BRANCH   1   7
HETATM    7  C   UNL     1       9.438  -2.013  23.515  1.00  0.00     0.021 C 
BRANCH   7   8
HETATM    8  C   UNL     1       8.968  -2.886  24.117  1.00  0.00     0.098 C 
HETATM    9  N   UNL     1       8.059  -3.547  24.668  1.00  0.00    -0.296 N 
ATOM     10  HN  UNL     1       7.161  -3.626  24.190  1.00  0.00     0.177 HD
BRANCH   9  11
HETATM   11  S   UNL     1       8.230  -4.274  26.080  1.00  0.00     0.226 S 
HETATM   12  C   UNL     1       6.584  -4.823  26.454  1.00  0.00     0.186 C 
HETATM   13  O   UNL     1       9.077  -5.422  26.037  1.00  0.00    -0.206 OA
HETATM   14  O   UNL     1       8.622  -3.397  27.124  1.00  0.00    -0.206 OA
ENDBRANCH   9  11
ENDBRANCH   7   8
ENDBRANCH   1   7
BRANCH   1  15
HETATM   15  C   UNL     1       9.714  -0.548  22.307  1.00  0.00    -0.061 C 
BRANCH  15  16
HETATM   16  C   UNL     1       9.050   0.037  21.380  1.00  0.00     0.290 C 
HETATM   17  O   UNL     1       9.528   0.989  20.974  1.00  0.00    -0.259 OA
HETATM   18  N   UNL     1       7.876  -0.586  21.104  1.00  0.00    -0.315 N 
ATOM     19  HN  UNL     1       7.577  -1.408  21.629  1.00  0.00     0.170 HD
BRANCH  18  20
HETATM   20  C   UNL     1       7.187  -0.123  20.198  1.00  0.00     0.060 A 
HETATM   21  C   UNL     1       7.238   0.019  18.890  1.00  0.00     0.117 A 
HETATM   22  N   UNL     1       6.732   0.391  17.798  1.00  0.00    -0.373 N 
HETATM   23  C   UNL     1       5.726   0.862  18.285  1.00  0.00     0.088 A 
ATOM     24  HN  UNL     1       7.057   0.320  16.834  1.00  0.00     0.164 HD
HETATM   25  C   UNL     1       5.287   0.964  19.477  1.00  0.00     0.030 A 
HETATM   26  C   UNL     1       5.791   0.562  20.591  1.00  0.00    -0.016 A 
HETATM   27  C   UNL     1       5.438   0.633  21.607  1.00  0.00     0.026 C 
ENDBRANCH  18  20
ENDBRANCH  15  16
ENDBRANCH   1  15
TORSDOF 6
