REMARK  6 active torsions:
REMARK  status: ('A' for Active; 'I' for Inactive)
REMARK    1  A    between atoms: S_2  and  N_5 
REMARK    2  A    between atoms: C_7  and  C_8 
REMARK    3  A    between atoms: C_8  and  C_9 
REMARK    4  A    between atoms: C_9  and  C_15 
REMARK    5  A    between atoms: C_15  and  C_16 
REMARK       I    between atoms: C_16  and  N_18 
REMARK    6  A    between atoms: N_18  and  C_20 
ROOT
HETATM    1  C   UNL     1      10.330  -1.174  23.215  1.00  0.00     0.075 C 
HETATM    2  C   UNL     1      11.036   0.070  24.295  1.00  0.00    -0.000 C 
HETATM    3  C   UNL     1      12.039   0.320  24.247  1.00  0.00    -0.025 C 
HETATM    4  C   UNL     1      13.150  -0.148  23.468  1.00  0.00     0.054 C 
HETATM    5  C   UNL     1      12.720  -1.280  22.665  1.00  0.00    -0.025 C 
HETATM    6  C   UNL     1      11.797  -1.723  22.544  1.00  0.00    -0.000 C 
ENDROOT
BRANCH   1   7
HETATM    7  C   UNL     1       9.414  -1.965  23.502  1.00  0.00     0.021 C 
BRANCH   7   8
HETATM    8  C   UNL     1       8.982  -2.907  24.131  1.00  0.00     0.098 C 
HETATM    9  N   UNL     1       8.095  -3.565  24.685  1.00  0.00    -0.296 N 
ATOM     10  HN  UNL     1       7.205  -3.645  24.193  1.00  0.00     0.177 HD
BRANCH   9  11
HETATM   11  S   UNL     1       8.208  -4.312  26.114  1.00  0.00     0.226 S 
HETATM   12  C   UNL     1       6.619  -4.884  26.405  1.00  0.00     0.186 C 
HETATM   13  O   UNL     1       9.072  -5.465  26.046  1.00  0.00    -0.206 OA
HETATM   14  O   UNL     1       8.603  -3.419  27.184  1.00  0.00    -0.206 OA
ENDBRANCH   9  11
ENDBRANCH   7   8
ENDBRANCH   1   7
BRANCH   1  15
HETATM   15  C   UNL     1       9.723  -0.557  22.367  1.00  0.00    -0.061 C 
BRANCH  15  16
HETATM   16  C   UNL     1       9.069   0.039  21.394  1.00  0.00     0.290 C 
HETATM   17  O   UNL     1       9.541   0.969  20.985  1.00  0.00    -0.259 OA
HETATM   18  N   UNL     1       7.917  -0.563  21.074  1.00  0.00    -0.315 N 
ATOM     19  HN  UNL     1       7.616  -1.391  21.588  1.00  0.00     0.170 HD
BRANCH  18  20
HETATM   20  C   UNL     1       7.214  -0.117  20.154  1.00  0.00     0.057 A 
HETATM   21  C   UNL     1       7.258  -0.050  18.877  1.00  0.00     0.117 A 
HETATM   22  N   UNL     1       6.763   0.340  17.788  1.00  0.00    -0.373 N 
HETATM   23  C   UNL     1       5.729   0.858  18.238  1.00  0.00     0.088 A 
ATOM     24  HN  UNL     1       7.106   0.256  16.831  1.00  0.00     0.164 HD
HETATM   25  C   UNL     1       5.247   0.970  19.413  1.00  0.00     0.026 A 
HETATM   26  C   UNL     1       5.776   0.573  20.529  1.00  0.00    -0.033 A 
HETATM   27  C   UNL     1       5.281   0.700  21.978  1.00  0.00     0.050 C 
ENDBRANCH  18  20
ENDBRANCH  15  16
ENDBRANCH   1  15
TORSDOF 6
