MODEL 1
REMARK VINA RESULT:    -7.514      0.000      0.000
REMARK INTER + INTRA:         -11.219
REMARK INTER:                 -10.149
REMARK INTRA:                  -1.070
REMARK UNBOUND:                -1.070
REMARK  6 active torsions:
REMARK  status: ('A' for Active; 'I' for Inactive)
REMARK    1  A    between atoms: S_2  and  N_5 
REMARK    2  A    between atoms: C_7  and  C_8 
REMARK    3  A    between atoms: C_8  and  C_9 
REMARK    4  A    between atoms: C_9  and  C_15 
REMARK    5  A    between atoms: C_15  and  C_16 
REMARK       I    between atoms: C_16  and  N_18 
REMARK    6  A    between atoms: N_18  and  C_20 
ROOT
HETATM    1  C   UNL     1       9.627  -1.485  23.306  1.00  0.00     0.076 C 
HETATM    2  C   UNL     1       9.590  -0.556  24.705  1.00  0.00     0.003 C 
HETATM    3  C   UNL     1      10.367   0.038  25.146  1.00  0.00    -0.002 C 
HETATM    4  C   UNL     1      11.755   0.014  24.559  1.00  0.00    -0.001 C 
HETATM    5  C   UNL     1      11.943  -0.751  23.652  1.00  0.00    -0.002 C 
HETATM    6  C   UNL     1      11.297  -1.443  23.057  1.00  0.00     0.003 C 
ENDROOT
BRANCH   1   7
HETATM    7  C   UNL     1       9.033  -2.604  23.146  1.00  0.00     0.021 C 
BRANCH   7   8
HETATM    8  C   UNL     1       8.106  -3.357  22.932  1.00  0.00     0.098 C 
HETATM    9  N   UNL     1       7.430  -4.177  22.377  1.00  0.00    -0.296 N 
ATOM     10  HN  UNL     1       7.907  -5.018  22.052  1.00  0.00     0.177 HD
BRANCH   9  11
HETATM   11  S   UNL     1       5.855  -4.090  22.092  1.00  0.00     0.226 S 
HETATM   12  C   UNL     1       5.223  -3.382  23.521  1.00  0.00     0.186 C 
HETATM   13  O   UNL     1       5.601  -3.179  21.007  1.00  0.00    -0.206 OA
HETATM   14  O   UNL     1       5.236  -5.352  21.859  1.00  0.00    -0.206 OA
ENDBRANCH   9  11
ENDBRANCH   7   8
ENDBRANCH   1   7
BRANCH   1  15
HETATM   15  C   UNL     1       9.118  -0.923  22.327  1.00  0.00    -0.061 C 
BRANCH  15  16
HETATM   16  C   UNL     1       8.633  -0.291  21.287  1.00  0.00     0.290 C 
HETATM   17  O   UNL     1       9.357   0.352  20.681  1.00  0.00    -0.259 OA
HETATM   18  N   UNL     1       7.332  -0.550  21.140  1.00  0.00    -0.315 N 
ATOM     19  HN  UNL     1       6.826  -1.102  21.832  1.00  0.00     0.170 HD
BRANCH  18  20
HETATM   20  C   UNL     1       6.756  -0.101  20.139  1.00  0.00     0.060 C 
HETATM   21  C   UNL     1       6.535  -0.433  18.906  1.00  0.00     0.117 C 
HETATM   22  N   UNL     1       6.006  -0.306  17.820  1.00  0.00    -0.373 N 
HETATM   23  C   UNL     1       5.437   0.839  18.064  1.00  0.00     0.088 C 
ATOM     24  HN  UNL     1       6.008  -0.899  16.990  1.00  0.00     0.164 HD
HETATM   25  C   UNL     1       5.432   1.517  19.110  1.00  0.00     0.030 C 
HETATM   26  C   UNL     1       5.984   1.284  20.314  1.00  0.00    -0.016 C 
HETATM   27  C   UNL     1       5.985   1.829  21.191  1.00  0.00     0.026 C 
ENDBRANCH  18  20
ENDBRANCH  15  16
ENDBRANCH   1  15
TORSDOF 6
ENDMDL
MODEL 2
REMARK VINA RESULT:    -7.229      2.705      5.807
REMARK INTER + INTRA:         -10.835
REMARK INTER:                  -9.910
REMARK INTRA:                  -0.925
REMARK UNBOUND:                -1.070
REMARK  6 active torsions:
REMARK  status: ('A' for Active; 'I' for Inactive)
REMARK    1  A    between atoms: S_2  and  N_5 
REMARK    2  A    between atoms: C_7  and  C_8 
REMARK    3  A    between atoms: C_8  and  C_9 
REMARK    4  A    between atoms: C_9  and  C_15 
REMARK    5  A    between atoms: C_15  and  C_16 
REMARK       I    between atoms: C_16  and  N_18 
REMARK    6  A    between atoms: N_18  and  C_20 
ROOT
HETATM    1  C   UNL     1      10.415  -0.905  23.344  1.00  0.00     0.076 C 
HETATM    2  C   UNL     1      11.852  -1.662  22.920  1.00  0.00     0.003 C 
HETATM    3  C   UNL     1      12.849  -1.471  23.269  1.00  0.00    -0.002 C 
HETATM    4  C   UNL     1      13.111  -0.309  24.192  1.00  0.00    -0.001 C 
HETATM    5  C   UNL     1      12.179   0.410  24.430  1.00  0.00    -0.002 C 
HETATM    6  C   UNL     1      11.089   0.399  24.179  1.00  0.00     0.003 C 
ENDROOT
BRANCH   1   7
HETATM    7  C   UNL     1       9.445  -0.661  22.550  1.00  0.00     0.021 C 
BRANCH   7   8
HETATM    8  C   UNL     1       8.881  -0.515  21.486  1.00  0.00     0.098 C 
HETATM    9  N   UNL     1       8.640  -0.088  20.392  1.00  0.00    -0.296 N 
ATOM     10  HN  UNL     1       9.422  -0.037  19.739  1.00  0.00     0.177 HD
BRANCH   9  11
HETATM   11  S   UNL     1       7.217   0.410  19.847  1.00  0.00     0.226 S 
HETATM   12  C   UNL     1       6.166  -0.897  20.208  1.00  0.00     0.186 C 
HETATM   13  O   UNL     1       6.771   1.549  20.605  1.00  0.00    -0.206 OA
HETATM   14  O   UNL     1       7.193   0.682  18.449  1.00  0.00    -0.206 OA
ENDBRANCH   9  11
ENDBRANCH   7   8
ENDBRANCH   1   7
BRANCH   1  15
HETATM   15  C   UNL     1       9.750  -1.539  24.175  1.00  0.00    -0.061 C 
BRANCH  15  16
HETATM   16  C   UNL     1       9.049  -2.260  25.015  1.00  0.00     0.290 C 
HETATM   17  O   UNL     1       8.674  -1.743  25.962  1.00  0.00    -0.259 OA
HETATM   18  N   UNL     1       8.904  -3.507  24.562  1.00  0.00    -0.315 N 
ATOM     19  HN  UNL     1       9.378  -3.815  23.713  1.00  0.00     0.170 HD
BRANCH  18  20
HETATM   20  C   UNL     1       8.178  -4.281  25.203  1.00  0.00     0.060 C 
HETATM   21  C   UNL     1       8.249  -5.059  26.236  1.00  0.00     0.117 C 
HETATM   22  N   UNL     1       7.780  -5.787  27.089  1.00  0.00    -0.373 N 
HETATM   23  C   UNL     1       6.576  -5.838  26.595  1.00  0.00     0.088 C 
ATOM     24  HN  UNL     1       8.193  -6.215  27.917  1.00  0.00     0.164 HD
HETATM   25  C   UNL     1       6.103  -5.267  25.594  1.00  0.00     0.030 C 
HETATM   26  C   UNL     1       6.663  -4.408  24.722  1.00  0.00    -0.016 C 
HETATM   27  C   UNL     1       6.285  -3.921  23.893  1.00  0.00     0.026 C 
ENDBRANCH  18  20
ENDBRANCH  15  16
ENDBRANCH   1  15
TORSDOF 6
ENDMDL
MODEL 3
REMARK VINA RESULT:    -6.900      4.234      6.301
REMARK INTER + INTRA:         -10.390
REMARK INTER:                  -9.652
REMARK INTRA:                  -0.738
REMARK UNBOUND:                -1.070
REMARK  6 active torsions:
REMARK  status: ('A' for Active; 'I' for Inactive)
REMARK    1  A    between atoms: S_2  and  N_5 
REMARK    2  A    between atoms: C_7  and  C_8 
REMARK    3  A    between atoms: C_8  and  C_9 
REMARK    4  A    between atoms: C_9  and  C_15 
REMARK    5  A    between atoms: C_15  and  C_16 
REMARK       I    between atoms: C_16  and  N_18 
REMARK    6  A    between atoms: N_18  and  C_20 
ROOT
HETATM    1  C   UNL     1       7.382  -4.755  24.088  1.00  0.00     0.076 C 
HETATM    2  C   UNL     1       7.538  -5.924  22.893  1.00  0.00     0.003 C 
HETATM    3  C   UNL     1       6.897  -6.131  22.057  1.00  0.00    -0.002 C 
HETATM    4  C   UNL     1       5.592  -5.392  21.912  1.00  0.00    -0.001 C 
HETATM    5  C   UNL     1       5.292  -4.647  22.805  1.00  0.00    -0.002 C 
HETATM    6  C   UNL     1       5.794  -4.294  23.740  1.00  0.00     0.003 C 
ENDROOT
BRANCH   1   7
HETATM    7  C   UNL     1       7.698  -4.905  25.316  1.00  0.00     0.021 C 
BRANCH   7   8
HETATM    8  C   UNL     1       7.558  -5.239  26.473  1.00  0.00     0.098 C 
HETATM    9  N   UNL     1       7.568  -5.932  27.452  1.00  0.00    -0.296 N 
ATOM     10  HN  UNL     1       8.422  -6.461  27.628  1.00  0.00     0.177 HD
BRANCH   9  11
HETATM   11  S   UNL     1       6.380  -6.113  28.512  1.00  0.00     0.226 S 
HETATM   12  C   UNL     1       4.964  -5.832  27.585  1.00  0.00     0.186 C 
HETATM   13  O   UNL     1       6.335  -7.475  28.974  1.00  0.00    -0.206 OA
HETATM   14  O   UNL     1       6.433  -5.201  29.607  1.00  0.00    -0.206 OA
ENDBRANCH   9  11
ENDBRANCH   7   8
ENDBRANCH   1   7
BRANCH   1  15
HETATM   15  C   UNL     1       8.082  -3.752  23.892  1.00  0.00    -0.061 C 
BRANCH  15  16
HETATM   16  C   UNL     1       8.793  -2.685  23.628  1.00  0.00     0.290 C 
HETATM   17  O   UNL     1       8.828  -2.335  22.541  1.00  0.00    -0.259 OA
HETATM   18  N   UNL     1       9.349  -2.198  24.739  1.00  0.00    -0.315 N 
ATOM     19  HN  UNL     1       9.265  -2.693  25.627  1.00  0.00     0.170 HD
BRANCH  18  20
HETATM   20  C   UNL     1       9.972  -1.129  24.662  1.00  0.00     0.060 C 
HETATM   21  C   UNL     1      11.141  -0.702  24.302  1.00  0.00     0.117 C 
HETATM   22  N   UNL     1      11.953   0.161  24.037  1.00  0.00    -0.373 N 
HETATM   23  C   UNL     1      11.227   1.172  24.420  1.00  0.00     0.088 C 
ATOM     24  HN  UNL     1      12.893   0.112  23.644  1.00  0.00     0.164 HD
HETATM   25  C   UNL     1      10.063   1.190  24.864  1.00  0.00     0.030 C 
HETATM   26  C   UNL     1       9.182   0.194  25.069  1.00  0.00    -0.016 C 
HETATM   27  C   UNL     1       8.213   0.191  25.428  1.00  0.00     0.026 C 
ENDBRANCH  18  20
ENDBRANCH  15  16
ENDBRANCH   1  15
TORSDOF 6
ENDMDL
MODEL 4
REMARK VINA RESULT:    -6.529     14.624     16.055
REMARK INTER + INTRA:          -9.889
REMARK INTER:                  -8.975
REMARK INTRA:                  -0.915
REMARK UNBOUND:                -1.070
REMARK  6 active torsions:
REMARK  status: ('A' for Active; 'I' for Inactive)
REMARK    1  A    between atoms: S_2  and  N_5 
REMARK    2  A    between atoms: C_7  and  C_8 
REMARK    3  A    between atoms: C_8  and  C_9 
REMARK    4  A    between atoms: C_9  and  C_15 
REMARK    5  A    between atoms: C_15  and  C_16 
REMARK       I    between atoms: C_16  and  N_18 
REMARK    6  A    between atoms: N_18  and  C_20 
ROOT
HETATM    1  C   UNL     1      23.114  -1.607  23.556  1.00  0.00     0.076 C 
HETATM    2  C   UNL     1      21.713  -1.293  24.429  1.00  0.00     0.003 C 
HETATM    3  C   UNL     1      21.379  -0.372  24.868  1.00  0.00    -0.002 C 
HETATM    4  C   UNL     1      22.275   0.839  24.845  1.00  0.00    -0.001 C 
HETATM    5  C   UNL     1      23.377   0.685  24.394  1.00  0.00    -0.002 C 
HETATM    6  C   UNL     1      23.917  -0.162  23.901  1.00  0.00     0.003 C 
ENDROOT
BRANCH   1   7
HETATM    7  C   UNL     1      23.791  -2.688  23.610  1.00  0.00     0.021 C 
BRANCH   7   8
HETATM    8  C   UNL     1      24.084  -3.807  23.975  1.00  0.00     0.098 C 
HETATM    9  N   UNL     1      24.081  -5.004  24.040  1.00  0.00    -0.296 N 
ATOM     10  HN  UNL     1      24.144  -5.509  23.156  1.00  0.00     0.177 HD
BRANCH   9  11
HETATM   11  S   UNL     1      23.988  -5.894  25.369  1.00  0.00     0.226 S 
HETATM   12  C   UNL     1      25.569  -5.801  26.030  1.00  0.00     0.186 C 
HETATM   13  O   UNL     1      23.087  -5.282  26.310  1.00  0.00    -0.206 OA
HETATM   14  O   UNL     1      23.638  -7.255  25.134  1.00  0.00    -0.206 OA
ENDBRANCH   9  11
ENDBRANCH   7   8
ENDBRANCH   1   7
BRANCH   1  15
HETATM   15  C   UNL     1      22.939  -1.620  22.331  1.00  0.00    -0.061 C 
BRANCH  15  16
HETATM   16  C   UNL     1      22.691  -1.635  21.045  1.00  0.00     0.290 C 
HETATM   17  O   UNL     1      21.611  -1.823  20.722  1.00  0.00    -0.259 OA
HETATM   18  N   UNL     1      23.804  -1.408  20.344  1.00  0.00    -0.315 N 
ATOM     19  HN  UNL     1      24.708  -1.331  20.808  1.00  0.00     0.170 HD
BRANCH  18  20
HETATM   20  C   UNL     1      23.707  -1.293  19.113  1.00  0.00     0.060 C 
HETATM   21  C   UNL     1      23.368  -0.401  18.238  1.00  0.00     0.117 C 
HETATM   22  N   UNL     1      23.261   0.035  17.109  1.00  0.00    -0.373 N 
HETATM   23  C   UNL     1      23.612  -1.058  16.494  1.00  0.00     0.088 C 
ATOM     24  HN  UNL     1      22.986   0.952  16.759  1.00  0.00     0.164 HD
HETATM   25  C   UNL     1      23.975  -2.153  16.965  1.00  0.00     0.030 C 
HETATM   26  C   UNL     1      24.144  -2.552  18.238  1.00  0.00    -0.016 C 
HETATM   27  C   UNL     1      24.450  -3.451  18.646  1.00  0.00     0.026 C 
ENDBRANCH  18  20
ENDBRANCH  15  16
ENDBRANCH   1  15
TORSDOF 6
ENDMDL
MODEL 5
REMARK VINA RESULT:    -6.348     14.699     16.316
REMARK INTER + INTRA:          -9.645
REMARK INTER:                  -8.765
REMARK INTRA:                  -0.880
REMARK UNBOUND:                -1.070
REMARK  6 active torsions:
REMARK  status: ('A' for Active; 'I' for Inactive)
REMARK    1  A    between atoms: S_2  and  N_5 
REMARK    2  A    between atoms: C_7  and  C_8 
REMARK    3  A    between atoms: C_8  and  C_9 
REMARK    4  A    between atoms: C_9  and  C_15 
REMARK    5  A    between atoms: C_15  and  C_16 
REMARK       I    between atoms: C_16  and  N_18 
REMARK    6  A    between atoms: N_18  and  C_20 
ROOT
HETATM    1  C   UNL     1      23.291  -1.818  23.744  1.00  0.00     0.076 C 
HETATM    2  C   UNL     1      21.624  -1.729  23.927  1.00  0.00     0.003 C 
HETATM    3  C   UNL     1      21.023  -0.918  24.290  1.00  0.00    -0.002 C 
HETATM    4  C   UNL     1      21.685   0.320  24.838  1.00  0.00    -0.001 C 
HETATM    5  C   UNL     1      22.884   0.300  24.914  1.00  0.00    -0.002 C 
HETATM    6  C   UNL     1      23.683  -0.420  24.606  1.00  0.00     0.003 C 
ENDROOT
BRANCH   1   7
HETATM    7  C   UNL     1      24.003  -2.858  23.949  1.00  0.00     0.021 C 
BRANCH   7   8
HETATM    8  C   UNL     1      24.240  -4.037  24.105  1.00  0.00     0.098 C 
HETATM    9  N   UNL     1      24.132  -5.228  24.009  1.00  0.00    -0.296 N 
ATOM     10  HN  UNL     1      24.004  -5.600  23.068  1.00  0.00     0.177 HD
BRANCH   9  11
HETATM   11  S   UNL     1      24.167  -6.295  25.204  1.00  0.00     0.226 S 
HETATM   12  C   UNL     1      25.815  -6.317  25.679  1.00  0.00     0.186 C 
HETATM   13  O   UNL     1      23.399  -5.810  26.320  1.00  0.00    -0.206 OA
HETATM   14  O   UNL     1      23.752  -7.605  24.826  1.00  0.00    -0.206 OA
ENDBRANCH   9  11
ENDBRANCH   7   8
ENDBRANCH   1   7
BRANCH   1  15
HETATM   15  C   UNL     1      23.671  -1.624  22.581  1.00  0.00    -0.061 C 
BRANCH  15  16
HETATM   16  C   UNL     1      24.106  -1.472  21.355  1.00  0.00     0.290 C 
HETATM   17  O   UNL     1      24.898  -0.669  21.177  1.00  0.00    -0.259 OA
HETATM   18  N   UNL     1      23.512  -2.337  20.531  1.00  0.00    -0.315 N 
ATOM     19  HN  UNL     1      22.762  -2.945  20.861  1.00  0.00     0.170 HD
BRANCH  18  20
HETATM   20  C   UNL     1      23.895  -2.381  19.353  1.00  0.00     0.060 C 
HETATM   21  C   UNL     1      24.786  -2.991  18.637  1.00  0.00     0.117 C 
HETATM   22  N   UNL     1      25.311  -3.312  17.589  1.00  0.00    -0.373 N 
HETATM   23  C   UNL     1      24.614  -2.520  16.825  1.00  0.00     0.088 C 
ATOM     24  HN  UNL     1      26.053  -3.979  17.378  1.00  0.00     0.164 HD
HETATM   25  C   UNL     1      23.688  -1.741  17.122  1.00  0.00     0.030 C 
HETATM   26  C   UNL     1      23.099  -1.483  18.304  1.00  0.00    -0.016 C 
HETATM   27  C   UNL     1      22.327  -0.849  18.567  1.00  0.00     0.026 C 
ENDBRANCH  18  20
ENDBRANCH  15  16
ENDBRANCH   1  15
TORSDOF 6
ENDMDL
MODEL 6
REMARK VINA RESULT:    -6.287      6.132      8.456
REMARK INTER + INTRA:          -9.562
REMARK INTER:                  -8.819
REMARK INTRA:                  -0.743
REMARK UNBOUND:                -1.070
REMARK  6 active torsions:
REMARK  status: ('A' for Active; 'I' for Inactive)
REMARK    1  A    between atoms: S_2  and  N_5 
REMARK    2  A    between atoms: C_7  and  C_8 
REMARK    3  A    between atoms: C_8  and  C_9 
REMARK    4  A    between atoms: C_9  and  C_15 
REMARK    5  A    between atoms: C_15  and  C_16 
REMARK       I    between atoms: C_16  and  N_18 
REMARK    6  A    between atoms: N_18  and  C_20 
ROOT
HETATM    1  C   UNL     1       5.418  -5.628  24.206  1.00  0.00     0.076 C 
HETATM    2  C   UNL     1       5.091  -4.045  23.749  1.00  0.00     0.003 C 
HETATM    3  C   UNL     1       5.298  -3.550  22.819  1.00  0.00    -0.002 C 
HETATM    4  C   UNL     1       6.088  -4.260  21.751  1.00  0.00    -0.001 C 
HETATM    5  C   UNL     1       6.524  -5.343  22.033  1.00  0.00    -0.002 C 
HETATM    6  C   UNL     1       6.434  -6.025  22.916  1.00  0.00     0.003 C 
ENDROOT
BRANCH   1   7
HETATM    7  C   UNL     1       5.773  -6.002  25.374  1.00  0.00     0.021 C 
BRANCH   7   8
HETATM    8  C   UNL     1       6.119  -5.879  26.530  1.00  0.00     0.098 C 
HETATM    9  N   UNL     1       6.767  -6.017  27.530  1.00  0.00    -0.296 N 
ATOM     10  HN  UNL     1       7.776  -5.898  27.440  1.00  0.00     0.177 HD
BRANCH   9  11
HETATM   11  S   UNL     1       6.213  -6.371  28.992  1.00  0.00     0.226 S 
HETATM   12  C   UNL     1       4.539  -6.649  28.734  1.00  0.00     0.186 C 
HETATM   13  O   UNL     1       6.793  -7.603  29.453  1.00  0.00    -0.206 OA
HETATM   14  O   UNL     1       6.390  -5.329  29.948  1.00  0.00    -0.206 OA
ENDBRANCH   9  11
ENDBRANCH   7   8
ENDBRANCH   1   7
BRANCH   1  15
HETATM   15  C   UNL     1       4.439  -6.380  24.117  1.00  0.00    -0.061 C 
BRANCH  15  16
HETATM   16  C   UNL     1       3.365  -7.123  24.022  1.00  0.00     0.290 C 
HETATM   17  O   UNL     1       3.185  -7.891  24.848  1.00  0.00    -0.259 OA
HETATM   18  N   UNL     1       2.664  -6.807  22.931  1.00  0.00    -0.315 N 
ATOM     19  HN  UNL     1       3.021  -6.130  22.257  1.00  0.00     0.170 HD
BRANCH  18  20
HETATM   20  C   UNL     1       1.567  -7.359  22.759  1.00  0.00     0.060 C 
HETATM   21  C   UNL     1       1.088  -8.551  22.591  1.00  0.00     0.117 C 
HETATM   22  N   UNL     1       0.189  -9.363  22.503  1.00  0.00    -0.373 N 
HETATM   23  C   UNL     1      -0.788  -8.503  22.497  1.00  0.00     0.088 C 
ATOM     24  HN  UNL     1       0.197 -10.382  22.450  1.00  0.00     0.164 HD
HETATM   25  C   UNL     1      -0.755  -7.262  22.598  1.00  0.00     0.030 C 
HETATM   26  C   UNL     1       0.280  -6.419  22.768  1.00  0.00    -0.016 C 
HETATM   27  C   UNL     1       0.326  -5.391  22.861  1.00  0.00     0.026 C 
ENDBRANCH  18  20
ENDBRANCH  15  16
ENDBRANCH   1  15
TORSDOF 6
ENDMDL
MODEL 7
REMARK VINA RESULT:    -6.072      2.115      4.826
REMARK INTER + INTRA:          -9.272
REMARK INTER:                  -8.728
REMARK INTRA:                  -0.545
REMARK UNBOUND:                -1.070
REMARK  6 active torsions:
REMARK  status: ('A' for Active; 'I' for Inactive)
REMARK    1  A    between atoms: S_2  and  N_5 
REMARK    2  A    between atoms: C_7  and  C_8 
REMARK    3  A    between atoms: C_8  and  C_9 
REMARK    4  A    between atoms: C_9  and  C_15 
REMARK    5  A    between atoms: C_15  and  C_16 
REMARK       I    between atoms: C_16  and  N_18 
REMARK    6  A    between atoms: N_18  and  C_20 
ROOT
HETATM    1  C   UNL     1       9.727  -0.782  22.821  1.00  0.00     0.076 C 
HETATM    2  C   UNL     1      11.346  -0.774  23.266  1.00  0.00     0.003 C 
HETATM    3  C   UNL     1      11.804  -0.389  24.158  1.00  0.00    -0.002 C 
HETATM    4  C   UNL     1      10.971   0.365  25.162  1.00  0.00    -0.001 C 
HETATM    5  C   UNL     1       9.826   0.570  24.866  1.00  0.00    -0.002 C 
HETATM    6  C   UNL     1       9.164   0.271  24.015  1.00  0.00     0.003 C 
ENDROOT
BRANCH   1   7
HETATM    7  C   UNL     1       9.286  -0.621  21.633  1.00  0.00     0.021 C 
BRANCH   7   8
HETATM    8  C   UNL     1       8.466  -0.415  20.764  1.00  0.00     0.098 C 
HETATM    9  N   UNL     1       7.884   0.146  19.878  1.00  0.00    -0.296 N 
ATOM     10  HN  UNL     1       8.457   0.535  19.129  1.00  0.00     0.177 HD
BRANCH   9  11
HETATM   11  S   UNL     1       6.299   0.350  19.749  1.00  0.00     0.226 S 
HETATM   12  C   UNL     1       6.086   0.834  18.117  1.00  0.00     0.186 C 
HETATM   13  O   UNL     1       5.625  -0.909  19.921  1.00  0.00    -0.206 OA
HETATM   14  O   UNL     1       5.767   1.341  20.624  1.00  0.00    -0.206 OA
ENDBRANCH   9  11
ENDBRANCH   7   8
ENDBRANCH   1   7
BRANCH   1  15
HETATM   15  C   UNL     1       9.165  -1.866  23.025  1.00  0.00    -0.061 C 
BRANCH  15  16
HETATM   16  C   UNL     1       8.513  -2.985  23.228  1.00  0.00     0.290 C 
HETATM   17  O   UNL     1       8.919  -3.688  24.032  1.00  0.00    -0.259 OA
HETATM   18  N   UNL     1       7.455  -3.070  22.420  1.00  0.00    -0.315 N 
ATOM     19  HN  UNL     1       7.285  -2.366  21.702  1.00  0.00     0.170 HD
BRANCH  18  20
HETATM   20  C   UNL     1       6.683  -4.030  22.566  1.00  0.00     0.060 C 
HETATM   21  C   UNL     1       6.562  -5.256  22.168  1.00  0.00     0.117 C 
HETATM   22  N   UNL     1       6.063  -6.364  22.181  1.00  0.00    -0.373 N 
HETATM   23  C   UNL     1       5.077  -6.073  22.980  1.00  0.00     0.088 C 
ATOM     24  HN  UNL     1       6.328  -7.234  21.720  1.00  0.00     0.164 HD
HETATM   25  C   UNL     1       4.808  -4.999  23.553  1.00  0.00     0.030 C 
HETATM   26  C   UNL     1       5.449  -3.816  23.552  1.00  0.00    -0.016 C 
HETATM   27  C   UNL     1       5.246  -2.920  24.025  1.00  0.00     0.026 C 
ENDBRANCH  18  20
ENDBRANCH  15  16
ENDBRANCH   1  15
TORSDOF 6
ENDMDL
MODEL 8
REMARK VINA RESULT:    -6.048      3.002      5.945
REMARK INTER + INTRA:          -9.240
REMARK INTER:                  -8.264
REMARK INTRA:                  -0.976
REMARK UNBOUND:                -1.070
REMARK  6 active torsions:
REMARK  status: ('A' for Active; 'I' for Inactive)
REMARK    1  A    between atoms: S_2  and  N_5 
REMARK    2  A    between atoms: C_7  and  C_8 
REMARK    3  A    between atoms: C_8  and  C_9 
REMARK    4  A    between atoms: C_9  and  C_15 
REMARK    5  A    between atoms: C_15  and  C_16 
REMARK       I    between atoms: C_16  and  N_18 
REMARK    6  A    between atoms: N_18  and  C_20 
ROOT
HETATM    1  C   UNL     1       6.983   3.501  22.552  1.00  0.00     0.076 C 
HETATM    2  C   UNL     1       7.322   5.142  22.447  1.00  0.00     0.003 C 
HETATM    3  C   UNL     1       7.492   5.852  23.234  1.00  0.00    -0.002 C 
HETATM    4  C   UNL     1       7.314   5.436  24.671  1.00  0.00    -0.001 C 
HETATM    5  C   UNL     1       6.905   4.323  24.863  1.00  0.00    -0.002 C 
HETATM    6  C   UNL     1       6.669   3.445  24.210  1.00  0.00     0.003 C 
ENDROOT
BRANCH   1   7
HETATM    7  C   UNL     1       6.195   2.858  21.779  1.00  0.00     0.021 C 
BRANCH   7   8
HETATM    8  C   UNL     1       5.874   2.070  20.915  1.00  0.00     0.098 C 
HETATM    9  N   UNL     1       5.494   1.052  20.408  1.00  0.00    -0.296 N 
ATOM     10  HN  UNL     1       4.651   0.633  20.802  1.00  0.00     0.177 HD
BRANCH   9  11
HETATM   11  S   UNL     1       6.171   0.280  19.177  1.00  0.00     0.226 S 
HETATM   12  C   UNL     1       5.659  -1.344  19.388  1.00  0.00     0.186 C 
HETATM   13  O   UNL     1       5.619   0.753  17.936  1.00  0.00    -0.206 OA
HETATM   14  O   UNL     1       7.595   0.344  19.164  1.00  0.00    -0.206 OA
ENDBRANCH   9  11
ENDBRANCH   7   8
ENDBRANCH   1   7
BRANCH   1  15
HETATM   15  C   UNL     1       7.972   2.779  22.364  1.00  0.00    -0.061 C 
BRANCH  15  16
HETATM   16  C   UNL     1       9.027   2.016  22.229  1.00  0.00     0.290 C 
HETATM   17  O   UNL     1       9.868   2.400  21.558  1.00  0.00    -0.259 OA
HETATM   18  N   UNL     1       8.899   0.898  22.946  1.00  0.00    -0.315 N 
ATOM     19  HN  UNL     1       8.031   0.688  23.439  1.00  0.00     0.170 HD
BRANCH  18  20
HETATM   20  C   UNL     1       9.864   0.121  22.997  1.00  0.00     0.060 C 
HETATM   21  C   UNL     1      10.454  -0.756  22.248  1.00  0.00     0.117 C 
HETATM   22  N   UNL     1      11.352  -1.525  21.969  1.00  0.00    -0.373 N 
HETATM   23  C   UNL     1      11.979  -1.441  23.107  1.00  0.00     0.088 C 
ATOM     24  HN  UNL     1      11.548  -2.060  21.123  1.00  0.00     0.164 HD
HETATM   25  C   UNL     1      11.721  -0.744  24.107  1.00  0.00     0.030 C 
HETATM   26  C   UNL     1      10.742   0.152  24.328  1.00  0.00    -0.016 C 
HETATM   27  C   UNL     1      10.517   0.743  25.145  1.00  0.00     0.026 C 
ENDBRANCH  18  20
ENDBRANCH  15  16
ENDBRANCH   1  15
TORSDOF 6
ENDMDL
MODEL 9
REMARK VINA RESULT:    -5.976      2.651      5.890
REMARK INTER + INTRA:          -9.142
REMARK INTER:                  -8.281
REMARK INTRA:                  -0.861
REMARK UNBOUND:                -1.070
REMARK  6 active torsions:
REMARK  status: ('A' for Active; 'I' for Inactive)
REMARK    1  A    between atoms: S_2  and  N_5 
REMARK    2  A    between atoms: C_7  and  C_8 
REMARK    3  A    between atoms: C_8  and  C_9 
REMARK    4  A    between atoms: C_9  and  C_15 
REMARK    5  A    between atoms: C_15  and  C_16 
REMARK       I    between atoms: C_16  and  N_18 
REMARK    6  A    between atoms: N_18  and  C_20 
ROOT
HETATM    1  C   UNL     1       9.082  -1.066  22.772  1.00  0.00     0.076 C 
HETATM    2  C   UNL     1      10.670  -1.358  22.310  1.00  0.00     0.003 C 
HETATM    3  C   UNL     1      11.574  -1.244  22.878  1.00  0.00    -0.002 C 
HETATM    4  C   UNL     1      11.523  -0.641  24.257  1.00  0.00    -0.001 C 
HETATM    5  C   UNL     1      10.455  -0.235  24.628  1.00  0.00    -0.002 C 
HETATM    6  C   UNL     1       9.416  -0.250  24.212  1.00  0.00     0.003 C 
ENDROOT
BRANCH   1   7
HETATM    7  C   UNL     1       8.169  -0.587  22.018  1.00  0.00     0.021 C 
BRANCH   7   8
HETATM    8  C   UNL     1       7.663  -0.190  20.990  1.00  0.00     0.098 C 
HETATM    9  N   UNL     1       7.160   0.562  20.203  1.00  0.00    -0.296 N 
ATOM     10  HN  UNL     1       7.628   1.459  20.065  1.00  0.00     0.177 HD
BRANCH   9  11
HETATM   11  S   UNL     1       5.832   0.307  19.344  1.00  0.00     0.226 S 
HETATM   12  C   UNL     1       6.217   0.950  17.801  1.00  0.00     0.186 C 
HETATM   13  O   UNL     1       5.612  -1.106  19.185  1.00  0.00    -0.206 OA
HETATM   14  O   UNL     1       4.671   0.952  19.863  1.00  0.00    -0.206 OA
ENDBRANCH   9  11
ENDBRANCH   7   8
ENDBRANCH   1   7
BRANCH   1  15
HETATM   15  C   UNL     1       8.465  -2.091  23.093  1.00  0.00    -0.061 C 
BRANCH  15  16
HETATM   16  C   UNL     1       7.809  -3.152  23.492  1.00  0.00     0.290 C 
HETATM   17  O   UNL     1       7.763  -4.040  22.774  1.00  0.00    -0.259 OA
HETATM   18  N   UNL     1       7.315  -2.971  24.719  1.00  0.00    -0.315 N 
ATOM     19  HN  UNL     1       7.398  -2.070  25.189  1.00  0.00     0.170 HD
BRANCH  18  20
HETATM   20  C   UNL     1       6.754  -3.929  25.271  1.00  0.00     0.060 C 
HETATM   21  C   UNL     1       5.622  -4.557  25.226  1.00  0.00     0.117 C 
HETATM   22  N   UNL     1       4.866  -5.466  25.507  1.00  0.00    -0.373 N 
HETATM   23  C   UNL     1       5.635  -6.028  26.395  1.00  0.00     0.088 C 
ATOM     24  HN  UNL     1       3.938  -5.708  25.161  1.00  0.00     0.164 HD
HETATM   25  C   UNL     1       6.783  -5.717  26.764  1.00  0.00     0.030 C 
HETATM   26  C   UNL     1       7.602  -4.730  26.357  1.00  0.00    -0.016 C 
HETATM   27  C   UNL     1       8.557  -4.462  26.645  1.00  0.00     0.026 C 
ENDBRANCH  18  20
ENDBRANCH  15  16
ENDBRANCH   1  15
TORSDOF 6
ENDMDL
