stable:False satoms:19 tatoms:24 sratio:0.7916666666666666
  -OEChem-07092417303D

 24 24  0     0  0  0  0  0  0999 V2000
    6.3653   -2.0783   25.3209 H   0  0  0  0  0  0  0  0  0  0  0  0
    8.0218   -3.1207   25.4952 N   0  0  0  0  0  0  0  0  0  0  0  0
    9.3016   -3.3997   25.2283 O   0  0  0  0  0  0  0  0  0  0  0  0
   10.0456   -2.6603   24.3496 C   0  0  0  0  0  0  0  0  0  0  0  0
    9.4811   -1.2283   21.1837 N   0  0  0  0  0  0  0  0  0  0  0  0
   11.0800   -2.8074   24.5495 H   0  0  0  0  0  0  0  0  0  0  0  0
    7.4128   -2.0497   24.9867 C   0  0  0  0  0  0  0  0  0  0  0  0
    7.9330    0.1594   23.6610 C   0  0  0  0  0  0  0  0  0  0  0  0
    7.7948   -1.0069   24.3024 C   0  0  0  0  0  0  0  0  0  0  0  0
    9.0050    0.7453   23.5620 O   0  0  0  0  0  0  0  0  0  0  0  0
   10.4225   -1.1546   22.3160 C   0  0  0  0  0  0  0  0  0  0  0  0
   11.4052   -1.5764   22.1152 H   0  0  0  0  0  0  0  0  0  0  0  0
   10.8714   -2.6008   20.1148 O   0  0  0  0  0  0  0  0  0  0  0  0
   10.5089   -0.1116   22.6104 H   0  0  0  0  0  0  0  0  0  0  0  0
    6.7606    0.7503   23.1374 N   0  0  0  0  0  0  0  0  0  0  0  0
    6.8305    1.5149   22.4684 H   0  0  0  0  0  0  0  0  0  0  0  0
    9.8444   -1.9841   20.1019 N   0  0  0  0  0  0  0  0  0  0  0  0
    9.8240   -1.9201   23.3447 C   0  0  0  0  0  0  0  0  0  0  0  0
    9.0398   -1.8117   19.0575 N   0  0  0  0  0  0  0  0  0  0  0  0
    8.1523   -0.8752   19.3866 C   0  0  0  0  0  0  0  0  0  0  0  0
    7.3865   -0.4977   18.7316 H   0  0  0  0  0  0  0  0  0  0  0  0
    5.7990    0.6175   23.4067 H   0  0  0  0  0  0  0  0  0  0  0  0
    8.4044   -0.4841   20.6777 C   0  0  0  0  0  0  0  0  0  0  0  0
    7.8935    0.2899   21.1885 H   0  0  0  0  0  0  0  0  0  0  0  0
 20 21  1  0  0  0  0
 19 20  1  0  0  0  0
 17 19  2  0  0  0  0
 20 23  2  0  0  0  0
 13 17  2  0  0  0  0
  5 17  1  0  0  0  0
  5 23  1  0  0  0  0
 23 24  1  0  0  0  0
  5 11  1  0  0  0  0
 11 12  1  0  0  0  0
 11 14  1  0  0  0  0
 11 18  1  0  0  0  0
 15 16  1  0  0  0  0
 15 22  1  0  0  0  0
  8 15  1  0  0  0  0
  4 18  2  0  0  0  0
  8 10  2  0  0  0  0
  8  9  1  0  0  0  0
  7  9  1  0  0  0  0
  4  6  1  0  0  0  0
  3  4  1  0  0  0  0
  1  7  1  0  0  0  0
  2  7  2  0  0  0  0
  2  3  1  0  0  0  0
M  END
> <Shapegauss>
-107.802864

$$$$
