stable:False satoms:19 tatoms:24 sratio:0.7916666666666666
  -OEChem-08052423023D

 27 27  0     0  0  0  0  0  0999 V2000
  -12.7867   -0.0314  -25.5830 H   0  0  0  0  0  0  0  0  0  0  0  0
  -13.0172   -0.9364  -23.8542 N   0  0  0  0  0  0  0  0  0  0  0  0
  -12.5860   -1.5954  -22.7741 O   0  0  0  0  0  0  0  0  0  0  0  0
  -11.2724   -1.9362  -22.5989 C   0  0  0  0  0  0  0  0  0  0  0  0
   -8.7287   -3.2296  -24.6602 N   0  0  0  0  0  0  0  0  0  0  0  0
  -11.0865   -2.1125  -21.5664 H   0  0  0  0  0  0  0  0  0  0  0  0
  -12.1790   -0.4921  -24.7904 C   0  0  0  0  0  0  0  0  0  0  0  0
   -9.6105   -0.1742  -25.2487 C   0  0  0  0  0  0  0  0  0  0  0  0
  -10.8822   -0.4154  -24.9091 C   0  0  0  0  0  0  0  0  0  0  0  0
   -8.7002   -0.1112  -24.4304 O   0  0  0  0  0  0  0  0  0  0  0  0
   -8.9105   -2.5572  -23.3607 C   0  0  0  0  0  0  0  0  0  0  0  0
   -8.7374   -3.1927  -22.4947 H   0  0  0  0  0  0  0  0  0  0  0  0
   -8.6480   -5.2023  -23.6302 O   0  0  0  0  0  0  0  0  0  0  0  0
   -8.2505   -1.6935  -23.3371 H   0  0  0  0  0  0  0  0  0  0  0  0
   -9.3442    0.0776  -26.6138 N   0  0  0  0  0  0  0  0  0  0  0  0
   -8.3861    0.0572  -26.9582 H   0  0  0  0  0  0  0  0  0  0  0  0
   -8.5780   -4.5900  -24.6575 N   0  0  0  0  0  0  0  0  0  0  0  0
  -10.2670   -2.1549  -23.3392 C   0  0  0  0  0  0  0  0  0  0  0  0
   -8.2050   -5.0709  -25.8397 N   0  0  0  0  0  0  0  0  0  0  0  0
   -8.0229   -4.0334  -26.6541 C   0  0  0  0  0  0  0  0  0  0  0  0
   -7.6884   -4.1049  -27.6744 H   0  0  0  0  0  0  0  0  0  0  0  0
   -9.9621    0.4049  -27.3391 H   0  0  0  0  0  0  0  0  0  0  0  0
   -8.3194   -2.8882  -25.9583 C   0  0  0  0  0  0  0  0  0  0  0  0
   -8.2095   -1.9042  -26.3333 H   0  0  0  0  0  0  0  0  0  0  0  0
  -10.7548   -1.5073  -24.9478 H   0  0  0  0  0  0  0  0  0  0  0  0
  -10.7419   -0.0663  -23.8755 H   0  0  0  0  0  0  0  0  0  0  0  0
  -10.5634   -1.9548  -24.3583 H   0  0  0  0  0  0  0  0  0  0  0  0
 20 21  1  0  0  0  0
 19 20  1  0  0  0  0
 17 19  2  0  0  0  0
 20 23  2  0  0  0  0
 13 17  2  0  0  0  0
  5 17  1  0  0  0  0
  5 23  1  0  0  0  0
 23 24  1  0  0  0  0
  5 11  1  0  0  0  0
 11 12  1  0  0  0  0
 11 14  1  0  0  0  0
 11 18  1  0  0  0  0
 15 16  1  0  0  0  0
 15 22  1  0  0  0  0
  8 15  1  0  0  0  0
  4 18  2  0  0  0  0
  8 10  2  0  0  0  0
  8  9  1  0  0  0  0
  7  9  1  0  0  0  0
  4  6  1  0  0  0  0
  3  4  1  0  0  0  0
  1  7  1  0  0  0  0
  2  7  2  0  0  0  0
  2  3  1  0  0  0  0
  9 25  1  0  0  0  0
  9 26  1  0  0  0  0
 18 27  1  0  0  0  0
M  END
> <Chemgauss4>
-6.809507

$$$$
