stable:False satoms:19 tatoms:24 sratio:0.7916666666666666
  -OEChem-08052423023D

 27 27  0     0  0  0  0  0  0999 V2000
   12.7257    0.6692   25.3585 H   0  0  0  0  0  0  0  0  0  0  0  0
   13.2151   -0.5645   23.9095 N   0  0  0  0  0  0  0  0  0  0  0  0
   12.9508   -1.4103   22.9086 O   0  0  0  0  0  0  0  0  0  0  0  0
   11.6735   -1.7404   22.5454 C   0  0  0  0  0  0  0  0  0  0  0  0
    8.7083   -2.5287   24.2713 N   0  0  0  0  0  0  0  0  0  0  0  0
   11.6730   -2.1109   21.5483 H   0  0  0  0  0  0  0  0  0  0  0  0
   12.2479    0.0795   24.5624 C   0  0  0  0  0  0  0  0  0  0  0  0
    9.6660    0.5558   24.4388 C   0  0  0  0  0  0  0  0  0  0  0  0
   10.9598    0.2156   24.4073 C   0  0  0  0  0  0  0  0  0  0  0  0
    8.9313    0.4831   23.4604 O   0  0  0  0  0  0  0  0  0  0  0  0
    9.1747   -2.1306   22.9305 C   0  0  0  0  0  0  0  0  0  0  0  0
    9.1249   -2.9187   22.1819 H   0  0  0  0  0  0  0  0  0  0  0  0
    8.6906   -4.6623   23.6336 O   0  0  0  0  0  0  0  0  0  0  0  0
    8.5899   -1.2696   22.6161 H   0  0  0  0  0  0  0  0  0  0  0  0
    9.1661    1.0788   25.6531 N   0  0  0  0  0  0  0  0  0  0  0  0
    8.1612    1.1545   25.7999 H   0  0  0  0  0  0  0  0  0  0  0  0
    8.4704   -3.8581   24.4938 N   0  0  0  0  0  0  0  0  0  0  0  0
   10.5349   -1.7800   23.1012 C   0  0  0  0  0  0  0  0  0  0  0  0
    7.8514   -4.0860   25.6483 N   0  0  0  0  0  0  0  0  0  0  0  0
    7.5895   -2.9037   26.2020 C   0  0  0  0  0  0  0  0  0  0  0  0
    7.0659   -2.7635   27.1315 H   0  0  0  0  0  0  0  0  0  0  0  0
    9.6576    1.5242   26.4113 H   0  0  0  0  0  0  0  0  0  0  0  0
    8.0868   -1.9269   25.3762 C   0  0  0  0  0  0  0  0  0  0  0  0
    7.9745   -0.8855   25.5311 H   0  0  0  0  0  0  0  0  0  0  0  0
   10.7550   -0.8432   24.6239 H   0  0  0  0  0  0  0  0  0  0  0  0
   11.0392    0.3586   23.3195 H   0  0  0  0  0  0  0  0  0  0  0  0
   10.6479   -1.3921   24.1028 H   0  0  0  0  0  0  0  0  0  0  0  0
 20 21  1  0  0  0  0
 19 20  1  0  0  0  0
 17 19  2  0  0  0  0
 20 23  2  0  0  0  0
 13 17  2  0  0  0  0
  5 17  1  0  0  0  0
  5 23  1  0  0  0  0
 23 24  1  0  0  0  0
  5 11  1  0  0  0  0
 11 12  1  0  0  0  0
 11 14  1  0  0  0  0
 11 18  1  0  0  0  0
 15 16  1  0  0  0  0
 15 22  1  0  0  0  0
  8 15  1  0  0  0  0
  4 18  2  0  0  0  0
  8 10  2  0  0  0  0
  8  9  1  0  0  0  0
  7  9  1  0  0  0  0
  4  6  1  0  0  0  0
  3  4  1  0  0  0  0
  1  7  1  0  0  0  0
  2  7  2  0  0  0  0
  2  3  1  0  0  0  0
  9 25  1  0  0  0  0
  9 26  1  0  0  0  0
 18 27  1  0  0  0  0
M  END
> <Chemgauss4>
-6.446786

$$$$
