stable:False satoms:6 tatoms:24 sratio:0.25
  -OEChem-07092417403D

 24 26  0     1  0  0  0  0  0999 V2000
    6.5392   -4.9267   26.4550 Cl  0  0  0  0  0  0  0  0  0  0  0  0
    8.2963   -4.3022   26.0069 S   0  0  0  0  0  0  0  0  0  0  0  0
    9.1269   -5.4621   25.9885 O   0  0  0  0  0  0  0  0  0  0  0  0
    8.6439   -3.3171   26.9786 O   0  0  0  0  0  0  0  0  0  0  0  0
    8.1339   -3.6367   24.5320 N   0  0  0  0  0  0  0  0  0  0  0  0
    8.8113   -2.8226   24.0377 C   0  0  0  0  0  0  0  0  0  0  0  0
    9.2322   -1.9044   23.3925 C   0  0  0  0  0  0  0  0  0  0  0  0
   10.7589   -0.8980   23.1566 C   0  0  0  0  0  0  0  0  0  0  0  0
   11.1904    0.0071   24.1842 N   0  0  0  0  0  0  0  0  0  0  0  0
   12.2633    0.1758   24.1673 C   0  0  0  0  0  0  0  0  0  0  0  0
   13.1356   -0.3630   23.5465 C   0  0  0  0  0  0  0  0  0  0  0  0
   12.9281   -1.3980   22.7413 C   0  0  0  0  0  0  0  0  0  0  0  0
   11.8638   -1.5684   22.6946 C   0  0  0  0  0  0  0  0  0  0  0  0
    9.6002   -0.9265   22.6241 C   0  0  3  0  0  0  0  0  0  0  0  0
    8.9626   -0.0050   21.4805 C   0  0  0  0  0  0  0  0  0  0  0  0
    9.5093    0.9907   21.0726 O   0  0  0  0  0  0  0  0  0  0  0  0
    7.8388   -0.5188   21.1778 N   0  0  0  0  0  0  0  0  0  0  0  0
    7.1199   -0.0088   20.2263 C   0  0  0  0  0  0  0  0  0  0  0  0
    7.1365    0.1455   18.9107 C   0  0  0  0  0  0  0  0  0  0  0  0
    6.7721    0.4006   17.7574 N   0  0  0  0  0  0  0  0  0  0  0  0
    5.7038    0.9068   18.2912 C   0  0  0  0  0  0  0  0  0  0  0  0
    5.2470    0.9795   19.3849 C   0  0  0  0  0  0  0  0  0  0  0  0
    5.7347    0.5524   20.5221 C   0  0  0  0  0  0  0  0  0  0  0  0
    5.0355    0.6099   21.9672 Cl  0  0  0  0  0  0  0  0  0  0  0  0
 20 21  2  0  0  0  0
 19 20  1  0  0  0  0
 19 21  1  0  0  0  0
 21 22  1  0  0  0  0
 18 19  2  0  0  0  0
 22 23  2  0  0  0  0
 18 23  1  0  0  0  0
 17 18  1  0  0  0  0
 23 24  1  0  0  0  0
 15 16  2  0  0  0  0
 15 17  1  0  0  0  0
 14 15  1  0  0  0  0
  8 14  1  0  0  0  0
  7 14  1  0  0  0  0
 12 13  2  0  0  0  0
  8 13  1  0  0  0  0
 11 12  1  0  0  0  0
  8  9  2  0  0  0  0
  6  7  3  0  0  0  0
 10 11  2  0  0  0  0
  5  6  1  0  0  0  0
  9 10  1  0  0  0  0
  2  5  1  0  0  0  0
  2  3  2  0  0  0  0
  1  2  1  0  0  0  0
  2  4  2  0  0  0  0
M  END
> <Shapegauss>
-288.307983

$$$$
