MODEL 1
REMARK VINA RESULT:    -7.679      0.000      0.000
REMARK INTER + INTRA:         -11.476
REMARK INTER:                 -10.373
REMARK INTRA:                  -1.103
REMARK UNBOUND:                -1.103
REMARK  6 active torsions:
REMARK  status: ('A' for Active; 'I' for Inactive)
REMARK    1  A    between atoms: S_2  and  N_5 
REMARK    2  A    between atoms: N_5  and  C_7 
REMARK    3  A    between atoms: C_8  and  C_16 
REMARK    4  A    between atoms: C_9  and  C_16 
REMARK    5  A    between atoms: C_16  and  C_17 
REMARK       I    between atoms: C_17  and  N_19 
REMARK    6  A    between atoms: N_19  and  C_21 
ROOT
HETATM    1  C   UNL     1       7.718  -2.785  22.607  1.00  0.00     0.114 C 
ENDROOT
BRANCH   1   2
HETATM    2  C   UNL     1       6.979  -2.125  21.771  1.00  0.00    -0.035 C 
HETATM    3  C   UNL     1       6.359  -1.432  21.012  1.00  0.00     0.027 C 
BRANCH   3   4
HETATM    4  N   UNL     1       5.885  -0.531  20.439  1.00  0.00    -0.229 N 
ATOM      5  HN  UNL     1       5.130  -0.040  20.918  1.00  0.00     0.190 HD
BRANCH   4   6
HETATM    6  S   UNL     1       6.288   0.033  18.968  1.00  0.00     0.327 S 
HETATM    7 CL   UNL     1       5.241   1.626  18.754  1.00  0.00     0.042 Cl
HETATM    8  O   UNL     1       7.650   0.454  18.905  1.00  0.00    -0.188 OA
HETATM    9  O   UNL     1       5.879  -0.870  17.942  1.00  0.00    -0.188 OA
ENDBRANCH   4   6
ENDBRANCH   3   4
ENDBRANCH   1   2
BRANCH   1  10
HETATM   10  C   UNL     1       6.929  -3.787  22.566  1.00  0.00     0.056 C 
HETATM   11  C   UNL     1       7.153  -4.949  21.870  1.00  0.00     0.031 C 
HETATM   12  C   UNL     1       6.852  -5.977  21.994  1.00  0.00     0.004 C 
HETATM   13  C   UNL     1       5.970  -6.022  22.987  1.00  0.00     0.017 C 
HETATM   14  C   UNL     1       5.545  -5.044  23.535  1.00  0.00     0.088 C 
HETATM   15  N   UNL     1       5.786  -3.993  23.410  1.00  0.00    -0.365 N 
ATOM     16  HN  UNL     1       5.259  -3.235  23.844  1.00  0.00     0.165 HD
ENDBRANCH   1  10
BRANCH   1  17
HETATM   17  C   UNL     1       9.055  -2.553  23.456  1.00  0.00     0.267 C 
HETATM   18  O   UNL     1       9.287  -3.158  24.474  1.00  0.00    -0.267 OA
HETATM   19  N   UNL     1       9.712  -1.638  22.865  1.00  0.00    -0.322 N 
ATOM     20  HN  UNL     1       9.318  -1.182  22.041  1.00  0.00     0.169 HD
BRANCH  19  21
HETATM   21  C   UNL     1      10.879  -1.282  23.304  1.00  0.00     0.058 A 
HETATM   22  C   UNL     1      12.158  -1.598  23.164  1.00  0.00     0.155 A 
HETATM   23  N   UNL     1      13.391  -1.550  23.240  1.00  0.00    -0.400 N 
HETATM   24  C   UNL     1      13.222  -0.569  24.071  1.00  0.00     0.130 A 
ATOM     25  HN  UNL     1      14.181  -2.053  22.834  1.00  0.00     0.154 HD
HETATM   26  C   UNL     1      12.300   0.060  24.476  1.00  0.00     0.026 A 
HETATM   27  C   UNL     1      11.025  -0.063  24.206  1.00  0.00     0.057 A 
HETATM   28 CL   UNL     1       9.823   0.869  24.725  1.00  0.00    -0.082 Cl
ENDBRANCH  19  21
ENDBRANCH   1  17
TORSDOF 6
ENDMDL
MODEL 2
REMARK VINA RESULT:    -7.628      3.879      5.632
REMARK INTER + INTRA:         -11.406
REMARK INTER:                 -10.169
REMARK INTRA:                  -1.237
REMARK UNBOUND:                -1.103
REMARK  6 active torsions:
REMARK  status: ('A' for Active; 'I' for Inactive)
REMARK    1  A    between atoms: S_2  and  N_5 
REMARK    2  A    between atoms: N_5  and  C_7 
REMARK    3  A    between atoms: C_8  and  C_16 
REMARK    4  A    between atoms: C_9  and  C_16 
REMARK    5  A    between atoms: C_16  and  C_17 
REMARK       I    between atoms: C_17  and  N_19 
REMARK    6  A    between atoms: N_19  and  C_21 
ROOT
HETATM    1  C   UNL     1       8.184  -3.852  23.943  1.00  0.00     0.114 C 
ENDROOT
BRANCH   1   2
HETATM    2  C   UNL     1       8.309  -4.641  24.964  1.00  0.00    -0.035 C 
HETATM    3  C   UNL     1       8.338  -5.326  25.949  1.00  0.00     0.027 C 
BRANCH   3   4
HETATM    4  N   UNL     1       8.205  -5.757  27.026  1.00  0.00    -0.229 N 
ATOM      5  HN  UNL     1       9.052  -6.093  27.485  1.00  0.00     0.190 HD
BRANCH   4   6
HETATM    6  S   UNL     1       6.828  -5.886  27.881  1.00  0.00     0.327 S 
HETATM    7 CL   UNL     1       5.508  -6.426  26.599  1.00  0.00     0.042 Cl
HETATM    8  O   UNL     1       6.887  -6.937  28.844  1.00  0.00    -0.188 OA
HETATM    9  O   UNL     1       6.417  -4.616  28.387  1.00  0.00    -0.188 OA
ENDBRANCH   4   6
ENDBRANCH   3   4
ENDBRANCH   1   2
BRANCH   1  10
HETATM   10  C   UNL     1       7.415  -4.681  23.353  1.00  0.00     0.056 C 
HETATM   11  C   UNL     1       6.044  -4.629  23.346  1.00  0.00     0.031 C 
HETATM   12  C   UNL     1       5.276  -4.951  22.660  1.00  0.00     0.004 C 
HETATM   13  C   UNL     1       5.863  -5.657  21.700  1.00  0.00     0.017 C 
HETATM   14  C   UNL     1       7.028  -5.940  21.709  1.00  0.00     0.088 C 
HETATM   15  N   UNL     1       7.823  -5.675  22.401  1.00  0.00    -0.365 N 
ATOM     16  HN  UNL     1       8.755  -6.087  22.377  1.00  0.00     0.165 HD
ENDBRANCH   1  10
BRANCH   1  17
HETATM   17  C   UNL     1       8.741  -2.431  23.460  1.00  0.00     0.267 C 
HETATM   18  O   UNL     1       8.520  -1.990  22.359  1.00  0.00    -0.267 OA
HETATM   19  N   UNL     1       9.432  -1.962  24.420  1.00  0.00    -0.322 N 
ATOM     20  HN  UNL     1       9.571  -2.517  25.265  1.00  0.00     0.169 HD
BRANCH  19  21
HETATM   21  C   UNL     1       9.962  -0.781  24.330  1.00  0.00     0.058 A 
HETATM   22  C   UNL     1       9.738   0.466  24.715  1.00  0.00     0.155 A 
HETATM   23  N   UNL     1       9.906   1.670  24.941  1.00  0.00    -0.400 N 
HETATM   24  C   UNL     1      11.003   1.564  24.257  1.00  0.00     0.130 A 
ATOM     25  HN  UNL     1       9.409   2.410  25.438  1.00  0.00     0.154 HD
HETATM   26  C   UNL     1      11.613   0.680  23.750  1.00  0.00     0.026 A 
HETATM   27  C   UNL     1      11.332  -0.598  23.689  1.00  0.00     0.057 A 
HETATM   28 CL   UNL     1      12.235  -1.765  23.054  1.00  0.00    -0.082 Cl
ENDBRANCH  19  21
ENDBRANCH   1  17
TORSDOF 6
ENDMDL
MODEL 3
REMARK VINA RESULT:    -7.373      2.569      5.581
REMARK INTER + INTRA:         -11.062
REMARK INTER:                 -10.012
REMARK INTRA:                  -1.050
REMARK UNBOUND:                -1.103
REMARK  6 active torsions:
REMARK  status: ('A' for Active; 'I' for Inactive)
REMARK    1  A    between atoms: S_2  and  N_5 
REMARK    2  A    between atoms: N_5  and  C_7 
REMARK    3  A    between atoms: C_8  and  C_16 
REMARK    4  A    between atoms: C_9  and  C_16 
REMARK    5  A    between atoms: C_16  and  C_17 
REMARK       I    between atoms: C_17  and  N_19 
REMARK    6  A    between atoms: N_19  and  C_21 
ROOT
HETATM    1  C   UNL     1       9.560  -1.377  23.823  1.00  0.00     0.114 C 
ENDROOT
BRANCH   1   2
HETATM    2  C   UNL     1       9.199  -0.837  22.700  1.00  0.00    -0.035 C 
HETATM    3  C   UNL     1       8.842  -0.434  21.629  1.00  0.00     0.027 C 
BRANCH   3   4
HETATM    4  N   UNL     1       8.558  -0.331  20.500  1.00  0.00    -0.229 N 
ATOM      5  HN  UNL     1       9.225  -0.718  19.832  1.00  0.00     0.190 HD
BRANCH   4   6
HETATM    6  S   UNL     1       7.226   0.355  19.868  1.00  0.00     0.327 S 
HETATM    7 CL   UNL     1       5.880  -1.007  19.976  1.00  0.00     0.042 Cl
HETATM    8  O   UNL     1       6.747   1.438  20.665  1.00  0.00    -0.188 OA
HETATM    9  O   UNL     1       7.407   0.648  18.484  1.00  0.00    -0.188 OA
ENDBRANCH   4   6
ENDBRANCH   3   4
ENDBRANCH   1   2
BRANCH   1  10
HETATM   10  C   UNL     1      10.773  -1.026  23.642  1.00  0.00     0.056 C 
HETATM   11  C   UNL     1      11.409   0.002  24.291  1.00  0.00     0.031 C 
HETATM   12  C   UNL     1      12.431   0.208  24.567  1.00  0.00     0.004 C 
HETATM   13  C   UNL     1      13.194  -0.725  24.008  1.00  0.00     0.017 C 
HETATM   14  C   UNL     1      12.774  -1.557  23.254  1.00  0.00     0.088 C 
HETATM   15  N   UNL     1      11.763  -1.769  22.916  1.00  0.00    -0.365 N 
ATOM     16  HN  UNL     1      11.543  -2.423  22.165  1.00  0.00     0.165 HD
ENDBRANCH   1  10
BRANCH   1  17
HETATM   17  C   UNL     1       8.889  -2.211  25.013  1.00  0.00     0.267 C 
HETATM   18  O   UNL     1       8.793  -1.776  26.134  1.00  0.00    -0.267 OA
HETATM   19  N   UNL     1       8.559  -3.341  24.530  1.00  0.00    -0.322 N 
ATOM     20  HN  UNL     1       8.788  -3.565  23.561  1.00  0.00     0.169 HD
BRANCH  19  21
HETATM   21  C   UNL     1       7.933  -4.210  25.263  1.00  0.00     0.058 A 
HETATM   22  C   UNL     1       8.165  -5.063  26.249  1.00  0.00     0.155 A 
HETATM   23  N   UNL     1       7.979  -5.871  27.167  1.00  0.00    -0.400 N 
HETATM   24  C   UNL     1       6.735  -5.881  26.799  1.00  0.00     0.130 A 
ATOM     25  HN  UNL     1       8.545  -6.323  27.885  1.00  0.00     0.154 HD
HETATM   26  C   UNL     1       6.071  -5.290  26.011  1.00  0.00     0.026 A 
HETATM   27  C   UNL     1       6.421  -4.363  25.155  1.00  0.00     0.057 A 
HETATM   28 CL   UNL     1       5.463  -3.540  24.162  1.00  0.00    -0.082 Cl
ENDBRANCH  19  21
ENDBRANCH   1  17
TORSDOF 6
ENDMDL
MODEL 4
REMARK VINA RESULT:    -7.351      3.157      6.434
REMARK INTER + INTRA:         -11.032
REMARK INTER:                  -9.914
REMARK INTRA:                  -1.118
REMARK UNBOUND:                -1.103
REMARK  6 active torsions:
REMARK  status: ('A' for Active; 'I' for Inactive)
REMARK    1  A    between atoms: S_2  and  N_5 
REMARK    2  A    between atoms: N_5  and  C_7 
REMARK    3  A    between atoms: C_8  and  C_16 
REMARK    4  A    between atoms: C_9  and  C_16 
REMARK    5  A    between atoms: C_16  and  C_17 
REMARK       I    between atoms: C_17  and  N_19 
REMARK    6  A    between atoms: N_19  and  C_21 
ROOT
HETATM    1  C   UNL     1       8.971  -1.356  22.507  1.00  0.00     0.114 C 
ENDROOT
BRANCH   1   2
HETATM    2  C   UNL     1       8.662  -2.491  23.054  1.00  0.00    -0.035 C 
HETATM    3  C   UNL     1       8.325  -3.563  23.472  1.00  0.00     0.027 C 
BRANCH   3   4
HETATM    4  N   UNL     1       7.771  -4.573  23.670  1.00  0.00    -0.229 N 
ATOM      5  HN  UNL     1       7.987  -5.039  24.551  1.00  0.00     0.190 HD
BRANCH   4   6
HETATM    6  S   UNL     1       6.696  -5.321  22.707  1.00  0.00     0.327 S 
HETATM    7 CL   UNL     1       5.393  -6.054  23.908  1.00  0.00     0.042 Cl
HETATM    8  O   UNL     1       5.985  -4.404  21.876  1.00  0.00    -0.188 OA
HETATM    9  O   UNL     1       7.296  -6.423  22.026  1.00  0.00    -0.188 OA
ENDBRANCH   4   6
ENDBRANCH   3   4
ENDBRANCH   1   2
BRANCH   1  10
HETATM   10  C   UNL     1       9.861  -1.132  23.394  1.00  0.00     0.056 C 
HETATM   11  C   UNL     1      11.205  -1.370  23.252  1.00  0.00     0.031 C 
HETATM   12  C   UNL     1      12.100  -0.936  23.668  1.00  0.00     0.004 C 
HETATM   13  C   UNL     1      11.730  -0.075  24.610  1.00  0.00     0.017 C 
HETATM   14  C   UNL     1      10.593   0.069  24.962  1.00  0.00     0.088 C 
HETATM   15  N   UNL     1       9.672  -0.380  24.602  1.00  0.00    -0.365 N 
ATOM     16  HN  UNL     1       8.772  -0.279  25.071  1.00  0.00     0.165 HD
ENDBRANCH   1  10
BRANCH   1  17
HETATM   17  C   UNL     1       8.492  -0.460  21.270  1.00  0.00     0.267 C 
HETATM   18  O   UNL     1       9.217   0.342  20.734  1.00  0.00    -0.267 OA
HETATM   19  N   UNL     1       7.273  -0.753  21.055  1.00  0.00    -0.322 N 
ATOM     20  HN  UNL     1       6.794  -1.414  21.667  1.00  0.00     0.169 HD
BRANCH  19  21
HETATM   21  C   UNL     1       6.635  -0.216  20.061  1.00  0.00     0.058 A 
HETATM   22  C   UNL     1       6.269  -0.493  18.819  1.00  0.00     0.155 A 
HETATM   23  N   UNL     1       5.711  -0.418  17.718  1.00  0.00    -0.400 N 
HETATM   24  C   UNL     1       5.314   0.760  18.089  1.00  0.00     0.130 A 
ATOM     25  HN  UNL     1       5.610  -1.011  16.894  1.00  0.00     0.154 HD
HETATM   26  C   UNL     1       5.373   1.409  19.082  1.00  0.00     0.026 A 
HETATM   27  C   UNL     1       5.934   1.126  20.230  1.00  0.00     0.057 A 
HETATM   28 CL   UNL     1       5.916   2.014  21.569  1.00  0.00    -0.082 Cl
ENDBRANCH  19  21
ENDBRANCH   1  17
TORSDOF 6
ENDMDL
MODEL 5
REMARK VINA RESULT:    -7.107      3.074      4.592
REMARK INTER + INTRA:         -10.703
REMARK INTER:                 -10.041
REMARK INTRA:                  -0.662
REMARK UNBOUND:                -1.103
REMARK  6 active torsions:
REMARK  status: ('A' for Active; 'I' for Inactive)
REMARK    1  A    between atoms: S_2  and  N_5 
REMARK    2  A    between atoms: N_5  and  C_7 
REMARK    3  A    between atoms: C_8  and  C_16 
REMARK    4  A    between atoms: C_9  and  C_16 
REMARK    5  A    between atoms: C_16  and  C_17 
REMARK       I    between atoms: C_17  and  N_19 
REMARK    6  A    between atoms: N_19  and  C_21 
ROOT
HETATM    1  C   UNL     1       8.051  -0.176  21.226  1.00  0.00     0.114 C 
ENDROOT
BRANCH   1   2
HETATM    2  C   UNL     1       7.100  -1.022  21.473  1.00  0.00    -0.035 C 
HETATM    3  C   UNL     1       6.285  -1.880  21.668  1.00  0.00     0.027 C 
BRANCH   3   4
HETATM    4  N   UNL     1       5.657  -2.865  21.644  1.00  0.00    -0.229 N 
ATOM      5  HN  UNL     1       5.282  -3.138  20.735  1.00  0.00     0.190 HD
BRANCH   4   6
HETATM    6  S   UNL     1       5.312  -3.854  22.888  1.00  0.00     0.327 S 
HETATM    7 CL   UNL     1       5.108  -2.686  24.396  1.00  0.00     0.042 Cl
HETATM    8  O   UNL     1       4.052  -4.504  22.728  1.00  0.00    -0.188 OA
HETATM    9  O   UNL     1       6.412  -4.715  23.180  1.00  0.00    -0.188 OA
ENDBRANCH   4   6
ENDBRANCH   3   4
ENDBRANCH   1   2
BRANCH   1  10
HETATM   10  C   UNL     1       7.301   0.490  20.438  1.00  0.00     0.056 C 
HETATM   11  C   UNL     1       7.155   0.259  19.093  1.00  0.00     0.031 C 
HETATM   12  C   UNL     1       6.363   0.416  18.379  1.00  0.00     0.004 C 
HETATM   13  C   UNL     1       5.403   1.105  18.986  1.00  0.00     0.017 C 
HETATM   14  C   UNL     1       5.505   1.537  20.100  1.00  0.00     0.088 C 
HETATM   15  N   UNL     1       6.301   1.441  20.833  1.00  0.00    -0.365 N 
ATOM     16  HN  UNL     1       6.334   1.968  21.706  1.00  0.00     0.165 HD
ENDBRANCH   1  10
BRANCH   1  17
HETATM   17  C   UNL     1       9.586   0.041  21.627  1.00  0.00     0.267 C 
HETATM   18  O   UNL     1      10.272   0.894  21.120  1.00  0.00    -0.267 OA
HETATM   19  N   UNL     1       9.870  -0.849  22.490  1.00  0.00    -0.322 N 
ATOM     20  HN  UNL     1       9.171  -1.546  22.750  1.00  0.00     0.169 HD
BRANCH  19  21
HETATM   21  C   UNL     1      11.044  -0.876  23.042  1.00  0.00     0.058 A 
HETATM   22  C   UNL     1      12.211  -1.489  22.919  1.00  0.00     0.155 A 
HETATM   23  N   UNL     1      13.406  -1.774  23.065  1.00  0.00    -0.400 N 
HETATM   24  C   UNL     1      13.410  -0.915  24.037  1.00  0.00     0.130 A 
ATOM     25  HN  UNL     1      14.080  -2.401  22.624  1.00  0.00     0.154 HD
HETATM   26  C   UNL     1      12.639  -0.134  24.491  1.00  0.00     0.026 A 
HETATM   27  C   UNL     1      11.404   0.118  24.138  1.00  0.00     0.057 A 
HETATM   28 CL   UNL     1      10.428   1.244  24.741  1.00  0.00    -0.082 Cl
ENDBRANCH  19  21
ENDBRANCH   1  17
TORSDOF 6
ENDMDL
MODEL 6
REMARK VINA RESULT:    -6.759      2.658      5.406
REMARK INTER + INTRA:         -10.233
REMARK INTER:                  -9.231
REMARK INTRA:                  -1.002
REMARK UNBOUND:                -1.103
REMARK  6 active torsions:
REMARK  status: ('A' for Active; 'I' for Inactive)
REMARK    1  A    between atoms: S_2  and  N_5 
REMARK    2  A    between atoms: N_5  and  C_7 
REMARK    3  A    between atoms: C_8  and  C_16 
REMARK    4  A    between atoms: C_9  and  C_16 
REMARK    5  A    between atoms: C_16  and  C_17 
REMARK       I    between atoms: C_17  and  N_19 
REMARK    6  A    between atoms: N_19  and  C_21 
ROOT
HETATM    1  C   UNL     1       7.930  -2.649  23.039  1.00  0.00     0.114 C 
ENDROOT
BRANCH   1   2
HETATM    2  C   UNL     1       7.369  -1.883  22.156  1.00  0.00    -0.035 C 
HETATM    3  C   UNL     1       6.766  -1.236  21.345  1.00  0.00     0.027 C 
BRANCH   3   4
HETATM    4  N   UNL     1       6.028  -0.874  20.515  1.00  0.00    -0.229 N 
ATOM      5  HN  UNL     1       5.126  -1.348  20.477  1.00  0.00     0.190 HD
BRANCH   4   6
HETATM    6  S   UNL     1       6.270   0.297  19.413  1.00  0.00     0.327 S 
HETATM    7 CL   UNL     1       5.519   1.874  20.205  1.00  0.00     0.042 Cl
HETATM    8  O   UNL     1       7.656   0.581  19.222  1.00  0.00    -0.188 OA
HETATM    9  O   UNL     1       5.529   0.041  18.220  1.00  0.00    -0.188 OA
ENDBRANCH   4   6
ENDBRANCH   3   4
ENDBRANCH   1   2
BRANCH   1  10
HETATM   10  C   UNL     1       8.959  -1.896  23.089  1.00  0.00     0.056 C 
HETATM   11  C   UNL     1       9.259  -1.024  24.105  1.00  0.00     0.031 C 
HETATM   12  C   UNL     1      10.172  -0.622  24.515  1.00  0.00     0.004 C 
HETATM   13  C   UNL     1      11.170  -1.004  23.726  1.00  0.00     0.017 C 
HETATM   14  C   UNL     1      11.007  -1.599  22.698  1.00  0.00     0.088 C 
HETATM   15  N   UNL     1      10.105  -1.981  22.229  1.00  0.00    -0.365 N 
ATOM     16  HN  UNL     1      10.076  -2.358  21.282  1.00  0.00     0.165 HD
ENDBRANCH   1  10
BRANCH   1  17
HETATM   17  C   UNL     1       7.612  -4.021  23.801  1.00  0.00     0.267 C 
HETATM   18  O   UNL     1       7.832  -5.100  23.308  1.00  0.00    -0.267 OA
HETATM   19  N   UNL     1       7.087  -3.708  24.917  1.00  0.00    -0.322 N 
ATOM     20  HN  UNL     1       6.908  -2.728  25.137  1.00  0.00     0.169 HD
BRANCH  19  21
HETATM   21  C   UNL     1       6.778  -4.629  25.776  1.00  0.00     0.058 A 
HETATM   22  C   UNL     1       7.314  -5.299  26.785  1.00  0.00     0.155 A 
HETATM   23  N   UNL     1       7.430  -6.035  27.772  1.00  0.00    -0.400 N 
HETATM   24  C   UNL     1       6.201  -6.387  27.555  1.00  0.00     0.130 A 
ATOM     25  HN  UNL     1       8.160  -6.262  28.449  1.00  0.00     0.154 HD
HETATM   26  C   UNL     1       5.335  -6.058  26.811  1.00  0.00     0.026 A 
HETATM   27  C   UNL     1       5.353  -5.160  25.859  1.00  0.00     0.057 A 
HETATM   28 CL   UNL     1       4.125  -4.699  24.931  1.00  0.00    -0.082 Cl
ENDBRANCH  19  21
ENDBRANCH   1  17
TORSDOF 6
ENDMDL
MODEL 7
REMARK VINA RESULT:    -6.682      2.874      5.424
REMARK INTER + INTRA:         -10.128
REMARK INTER:                  -8.919
REMARK INTRA:                  -1.209
REMARK UNBOUND:                -1.103
REMARK  6 active torsions:
REMARK  status: ('A' for Active; 'I' for Inactive)
REMARK    1  A    between atoms: S_2  and  N_5 
REMARK    2  A    between atoms: N_5  and  C_7 
REMARK    3  A    between atoms: C_8  and  C_16 
REMARK    4  A    between atoms: C_9  and  C_16 
REMARK    5  A    between atoms: C_16  and  C_17 
REMARK       I    between atoms: C_17  and  N_19 
REMARK    6  A    between atoms: N_19  and  C_21 
ROOT
HETATM    1  C   UNL     1       8.960  -0.122  22.421  1.00  0.00     0.114 C 
ENDROOT
BRANCH   1   2
HETATM    2  C   UNL     1       8.278   0.306  21.405  1.00  0.00    -0.035 C 
HETATM    3  C   UNL     1       7.630   0.602  20.440  1.00  0.00     0.027 C 
BRANCH   3   4
HETATM    4  N   UNL     1       7.083   0.607  19.408  1.00  0.00    -0.229 N 
ATOM      5  HN  UNL     1       7.552   1.106  18.651  1.00  0.00     0.190 HD
BRANCH   4   6
HETATM    6  S   UNL     1       5.661  -0.089  19.034  1.00  0.00     0.327 S 
HETATM    7 CL   UNL     1       5.609  -1.688  20.092  1.00  0.00     0.042 Cl
HETATM    8  O   UNL     1       4.548   0.695  19.462  1.00  0.00    -0.188 OA
HETATM    9  O   UNL     1       5.632  -0.497  17.667  1.00  0.00    -0.188 OA
ENDBRANCH   4   6
ENDBRANCH   3   4
ENDBRANCH   1   2
BRANCH   1  10
HETATM   10  C   UNL     1       9.326   1.064  22.719  1.00  0.00     0.056 C 
HETATM   11  C   UNL     1       8.833   1.811  23.759  1.00  0.00     0.031 C 
HETATM   12  C   UNL     1       9.229   2.597  24.382  1.00  0.00     0.004 C 
HETATM   13  C   UNL     1      10.410   2.948  23.887  1.00  0.00     0.017 C 
HETATM   14  C   UNL     1      10.854   2.506  22.864  1.00  0.00     0.088 C 
HETATM   15  N   UNL     1      10.468   1.750  22.186  1.00  0.00    -0.365 N 
ATOM     16  HN  UNL     1      10.873   1.550  21.272  1.00  0.00     0.165 HD
ENDBRANCH   1  10
BRANCH   1  17
HETATM   17  C   UNL     1       9.326  -1.522  23.107  1.00  0.00     0.267 C 
HETATM   18  O   UNL     1      10.398  -2.054  22.958  1.00  0.00    -0.267 OA
HETATM   19  N   UNL     1       8.291  -1.901  23.742  1.00  0.00    -0.322 N 
ATOM     20  HN  UNL     1       7.435  -1.347  23.695  1.00  0.00     0.169 HD
BRANCH  19  21
HETATM   21  C   UNL     1       8.318  -2.988  24.450  1.00  0.00     0.058 A 
HETATM   22  C   UNL     1       8.570  -3.390  25.686  1.00  0.00     0.155 A 
HETATM   23  N   UNL     1       8.645  -4.104  26.693  1.00  0.00    -0.400 N 
HETATM   24  C   UNL     1       8.309  -5.091  25.922  1.00  0.00     0.130 A 
ATOM     25  HN  UNL     1       8.870  -3.975  27.680  1.00  0.00     0.154 HD
HETATM   26  C   UNL     1       7.974  -5.215  24.789  1.00  0.00     0.026 A 
HETATM   27  C   UNL     1       7.846  -4.308  23.854  1.00  0.00     0.057 A 
HETATM   28 CL   UNL     1       7.312  -4.522  22.353  1.00  0.00    -0.082 Cl
ENDBRANCH  19  21
ENDBRANCH   1  17
TORSDOF 6
ENDMDL
MODEL 8
REMARK VINA RESULT:    -6.611     24.557     26.930
REMARK INTER + INTRA:         -10.033
REMARK INTER:                  -9.099
REMARK INTRA:                  -0.934
REMARK UNBOUND:                -1.103
REMARK  6 active torsions:
REMARK  status: ('A' for Active; 'I' for Inactive)
REMARK    1  A    between atoms: S_2  and  N_5 
REMARK    2  A    between atoms: N_5  and  C_7 
REMARK    3  A    between atoms: C_8  and  C_16 
REMARK    4  A    between atoms: C_9  and  C_16 
REMARK    5  A    between atoms: C_16  and  C_17 
REMARK       I    between atoms: C_17  and  N_19 
REMARK    6  A    between atoms: N_19  and  C_21 
ROOT
HETATM    1  C   UNL     1       8.656  15.311   1.821  1.00  0.00     0.114 C 
ENDROOT
BRANCH   1   2
HETATM    2  C   UNL     1       8.971  16.460   1.309  1.00  0.00    -0.035 C 
HETATM    3  C   UNL     1       9.358  17.509   0.876  1.00  0.00     0.027 C 
BRANCH   3   4
HETATM    4  N   UNL     1       9.940  18.504   0.683  1.00  0.00    -0.229 N 
ATOM      5  HN  UNL     1      10.307  18.635  -0.259  1.00  0.00     0.190 HD
BRANCH   4   6
HETATM    6  S   UNL     1      10.235  19.702   1.742  1.00  0.00     0.327 S 
HETATM    7 CL   UNL     1      10.221  21.301   0.683  1.00  0.00     0.042 Cl
HETATM    8  O   UNL     1       9.181  19.856   2.691  1.00  0.00    -0.188 OA
HETATM    9  O   UNL     1      11.545  19.587   2.297  1.00  0.00    -0.188 OA
ENDBRANCH   4   6
ENDBRANCH   3   4
ENDBRANCH   1   2
BRANCH   1  10
HETATM   10  C   UNL     1       9.461  15.484   2.795  1.00  0.00     0.056 C 
HETATM   11  C   UNL     1       9.171  16.152   3.958  1.00  0.00     0.031 C 
HETATM   12  C   UNL     1       9.520  16.088   4.977  1.00  0.00     0.004 C 
HETATM   13  C   UNL     1      10.544  15.243   4.999  1.00  0.00     0.017 C 
HETATM   14  C   UNL     1      11.017  14.754   4.012  1.00  0.00     0.088 C 
HETATM   15  N   UNL     1      10.725  14.827   2.968  1.00  0.00    -0.365 N 
ATOM     16  HN  UNL     1      11.288  14.470   2.197  1.00  0.00     0.165 HD
ENDBRANCH   1  10
BRANCH   1  17
HETATM   17  C   UNL     1       7.712  14.067   1.466  1.00  0.00     0.267 C 
HETATM   18  O   UNL     1       7.789  13.475   0.418  1.00  0.00    -0.267 OA
HETATM   19  N   UNL     1       6.921  13.914   2.451  1.00  0.00    -0.322 N 
ATOM     20  HN  UNL     1       6.953  14.566   3.234  1.00  0.00     0.169 HD
BRANCH  19  21
HETATM   21  C   UNL     1       6.074  12.931   2.464  1.00  0.00     0.058 A 
HETATM   22  C   UNL     1       4.891  12.602   1.968  1.00  0.00     0.155 A 
HETATM   23  N   UNL     1       3.898  11.937   1.651  1.00  0.00    -0.400 N 
HETATM   24  C   UNL     1       4.396  10.990   2.383  1.00  0.00     0.130 A 
ATOM     25  HN  UNL     1       3.065  12.072   1.076  1.00  0.00     0.154 HD
HETATM   26  C   UNL     1       5.405  10.815   2.985  1.00  0.00     0.026 A 
HETATM   27  C   UNL     1       6.432  11.613   3.139  1.00  0.00     0.057 A 
HETATM   28 CL   UNL     1       7.808  11.294   3.904  1.00  0.00    -0.082 Cl
ENDBRANCH  19  21
ENDBRANCH   1  17
TORSDOF 6
ENDMDL
MODEL 9
REMARK VINA RESULT:    -6.563      3.762      6.368
REMARK INTER + INTRA:          -9.968
REMARK INTER:                  -8.820
REMARK INTRA:                  -1.147
REMARK UNBOUND:                -1.103
REMARK  6 active torsions:
REMARK  status: ('A' for Active; 'I' for Inactive)
REMARK    1  A    between atoms: S_2  and  N_5 
REMARK    2  A    between atoms: N_5  and  C_7 
REMARK    3  A    between atoms: C_8  and  C_16 
REMARK    4  A    between atoms: C_9  and  C_16 
REMARK    5  A    between atoms: C_16  and  C_17 
REMARK       I    between atoms: C_17  and  N_19 
REMARK    6  A    between atoms: N_19  and  C_21 
ROOT
HETATM    1  C   UNL     1       7.467  -0.087  21.232  1.00  0.00     0.114 C 
ENDROOT
BRANCH   1   2
HETATM    2  C   UNL     1       8.055   1.035  21.506  1.00  0.00    -0.035 C 
HETATM    3  C   UNL     1       8.584   2.052  21.860  1.00  0.00     0.027 C 
BRANCH   3   4
HETATM    4  N   UNL     1       8.925   2.996  22.458  1.00  0.00    -0.229 N 
ATOM      5  HN  UNL     1       8.567   3.892  22.127  1.00  0.00     0.190 HD
BRANCH   4   6
HETATM    6  S   UNL     1       9.904   3.050  23.756  1.00  0.00     0.327 S 
HETATM    7 CL   UNL     1       9.331   1.589  24.858  1.00  0.00     0.042 Cl
HETATM    8  O   UNL     1      11.263   2.772  23.419  1.00  0.00    -0.188 OA
HETATM    9  O   UNL     1       9.693   4.243  24.509  1.00  0.00    -0.188 OA
ENDBRANCH   4   6
ENDBRANCH   3   4
ENDBRANCH   1   2
BRANCH   1  10
HETATM   10  C   UNL     1       6.790   0.456  20.297  1.00  0.00     0.056 C 
HETATM   11  C   UNL     1       7.058   0.351  18.955  1.00  0.00     0.031 C 
HETATM   12  C   UNL     1       6.461   0.386  18.057  1.00  0.00     0.004 C 
HETATM   13  C   UNL     1       5.229   0.738  18.406  1.00  0.00     0.017 C 
HETATM   14  C   UNL     1       4.924   1.052  19.522  1.00  0.00     0.088 C 
HETATM   15  N   UNL     1       5.503   1.074  20.442  1.00  0.00    -0.365 N 
ATOM     16  HN  UNL     1       5.169   1.489  21.311  1.00  0.00     0.165 HD
ENDBRANCH   1  10
BRANCH   1  17
HETATM   17  C   UNL     1       7.454  -1.591  21.781  1.00  0.00     0.267 C 
HETATM   18  O   UNL     1       8.442  -2.127  22.221  1.00  0.00    -0.267 OA
HETATM   19  N   UNL     1       6.274  -2.034  21.612  1.00  0.00    -0.322 N 
ATOM     20  HN  UNL     1       5.575  -1.453  21.149  1.00  0.00     0.169 HD
BRANCH  19  21
HETATM   21  C   UNL     1       5.954  -3.222  22.025  1.00  0.00     0.058 A 
HETATM   22  C   UNL     1       5.982  -4.481  21.617  1.00  0.00     0.155 A 
HETATM   23  N   UNL     1       5.915  -5.716  21.623  1.00  0.00    -0.400 N 
HETATM   24  C   UNL     1       5.421  -5.604  22.817  1.00  0.00     0.130 A 
ATOM     25  HN  UNL     1       6.143  -6.476  20.982  1.00  0.00     0.154 HD
HETATM   26  C   UNL     1       5.233  -4.718  23.585  1.00  0.00     0.026 A 
HETATM   27  C   UNL     1       5.463  -3.436  23.451  1.00  0.00     0.057 A 
HETATM   28 CL   UNL     1       5.259  -2.288  24.555  1.00  0.00    -0.082 Cl
ENDBRANCH  19  21
ENDBRANCH   1  17
TORSDOF 6
ENDMDL
