stable:False satoms:19 tatoms:24 sratio:0.7916666666666666
  -OEChem-07092417313D

 24 22  0     0  0  0  0  0  0999 V2000
   10.3674   -2.9196   24.7292 H   0  0  0  0  0  0  0  0  0  0  0  0
    9.1802   -4.3663   23.8995 H   0  0  0  0  0  0  0  0  0  0  0  0
    9.9816   -4.0668   22.4568 H   0  0  0  0  0  0  0  0  0  0  0  0
    8.9532   -1.5003   24.3610 N   0  0  0  0  0  0  0  0  0  0  0  0
    8.9727   -1.3777   25.3473 H   0  0  0  0  0  0  0  0  0  0  0  0
    8.1865   -3.5564   23.2042 H   0  0  0  0  0  0  0  0  0  0  0  0
    9.9480   -2.3870   23.8640 C   0  0  0  0  0  0  0  0  0  0  0  0
    8.4510   -0.3691   23.6096 C   0  0  0  0  0  0  0  0  0  0  0  0
    9.4423    0.7225   23.1996 C   0  0  0  0  0  0  0  0  0  0  0  0
    9.9848    1.0801   24.0771 H   0  0  0  0  0  0  0  0  0  0  0  0
   10.1830    0.3725   22.4909 H   0  0  0  0  0  0  0  0  0  0  0  0
   10.7546   -1.8959   23.3090 H   0  0  0  0  0  0  0  0  0  0  0  0
    9.2635   -3.4530   23.0087 C   0  0  0  0  0  0  0  0  0  0  0  0
    9.5998   -1.6519   21.2328 O   0  0  0  0  0  0  0  0  0  0  0  0
    8.8797    1.5255   22.7448 H   0  0  0  0  0  0  0  0  0  0  0  0
    8.8871   -2.4575   21.6461 C   0  0  0  0  0  0  0  0  0  0  0  0
    7.9396   -2.7671   21.2427 H   0  0  0  0  0  0  0  0  0  0  0  0
    7.6538    0.0884   24.2082 H   0  0  0  0  0  0  0  0  0  0  0  0
    7.9640   -0.7273   22.6879 H   0  0  0  0  0  0  0  0  0  0  0  0
    7.0882    0.0379   18.7750 O   0  0  0  0  0  0  0  0  0  0  0  0
    6.5232    2.0988   20.1739 N   0  5  0  0  0  0  0  0  0  0  0  0
    7.0309    1.1698   20.6403 N   0  3  0  0  0  0  0  0  0  0  0  0
    7.2191   -0.8985   20.4102 H   0  0  0  0  0  0  0  0  0  0  0  0
    7.1300    0.0087   19.9778 N   0  3  0  0  0  0  0  0  0  0  0  0
 20 24  1  0  0  0  0
 23 24  1  0  0  0  0
 22 24  2  0  0  0  0
 21 22  2  0  0  0  0
 14 16  2  0  0  0  0
 16 17  1  0  0  0  0
 13 16  1  0  0  0  0
  3 13  1  0  0  0  0
  9 11  1  0  0  0  0
  8 19  1  0  0  0  0
  9 15  1  0  0  0  0
  6 13  1  0  0  0  0
  7 13  1  0  0  0  0
  2 13  1  0  0  0  0
  8  9  1  0  0  0  0
  9 10  1  0  0  0  0
  7 12  1  0  0  0  0
  8 18  1  0  0  0  0
  4  8  1  0  0  0  0
  4  7  1  0  0  0  0
  1  7  1  0  0  0  0
  4  5  1  0  0  0  0
M  CHG  3  21  -1  22   1  24   1
M  END
> <Shapegauss>
-97.893723

$$$$
