REMARK  6 active torsions:
REMARK  status: ('A' for Active; 'I' for Inactive)
REMARK    1  A    between atoms: N_1  and  C_4 
REMARK    2  A    between atoms: N_1  and  C_3 
REMARK    3  A    between atoms: C_3  and  C_6 
REMARK    4  A    between atoms: C_6  and  C_8 
REMARK    5  A    between atoms: O_9  and  N_17 
REMARK    6  A    between atoms: N_14  and  N_17 
ROOT
HETATM    1  N   UNL     1       8.953  -1.500  24.361  1.00  0.00    -0.421 N 
HETATM    2  H   UNL     1       8.973  -1.378  25.347  1.00  0.00     0.153 HD
ENDROOT
BRANCH   1   3
HETATM    3  C   UNL     1       8.451  -0.369  23.610  1.00  0.00     0.109 C 
HETATM    4  C   UNL     1       9.442   0.723  23.200  1.00  0.00     0.026 C 
ENDBRANCH   1   3
BRANCH   1   5
HETATM    5  C   UNL     1       9.948  -2.387  23.864  1.00  0.00     0.116 C 
BRANCH   5   6
HETATM    6  C   UNL     1       9.264  -3.453  23.009  1.00  0.00     0.098 C 
BRANCH   6   7
HETATM    7  C   UNL     1       8.887  -2.458  21.646  1.00  0.00     0.228 C 
HETATM    8  O   UNL     1       9.600  -1.652  21.233  1.00  0.00    -0.307 OA
ENDBRANCH   6   7
ENDBRANCH   5   6
ENDBRANCH   1   5
TORSDOF 6
