MODEL 1
REMARK VINA RESULT:    -7.265      0.000      0.000
REMARK INTER + INTRA:         -11.372
REMARK INTER:                 -10.238
REMARK INTRA:                  -1.134
REMARK UNBOUND:                -1.134
REMARK  7 active torsions:
REMARK  status: ('A' for Active; 'I' for Inactive)
REMARK    1  A    between atoms: S_2  and  N_5 
REMARK    2  A    between atoms: N_5  and  C_7 
REMARK    3  A    between atoms: C_7  and  C_8 
REMARK    4  A    between atoms: C_8  and  C_9 
REMARK    5  A    between atoms: C_9  and  C_15 
REMARK    6  A    between atoms: C_15  and  C_16 
REMARK       I    between atoms: C_16  and  N_18 
REMARK    7  A    between atoms: N_18  and  C_20 
ROOT
HETATM    1  C   UNL     1       9.401  -1.680  23.293  1.00  0.00     0.068 C 
HETATM    2  C   UNL     1       9.529  -0.723  24.577  1.00  0.00     0.000 C 
HETATM    3  C   UNL     1      10.369  -0.124  24.908  1.00  0.00    -0.002 C 
HETATM    4  C   UNL     1      11.629  -0.047  24.436  1.00  0.00    -0.001 C 
HETATM    5  C   UNL     1      11.839  -0.930  23.347  1.00  0.00    -0.002 C 
HETATM    6  C   UNL     1      11.157  -1.567  22.877  1.00  0.00     0.000 C 
ENDROOT
BRANCH   1   7
HETATM    7  C   UNL     1       8.850  -2.825  23.129  1.00  0.00     0.135 C 
BRANCH   7   8
HETATM    8  C   UNL     1       7.973  -3.613  22.968  1.00  0.00    -0.058 C 
BRANCH   8   9
HETATM    9  N   UNL     1       7.384  -4.576  22.601  1.00  0.00    -0.254 N 
ATOM     10  HN  UNL     1       7.811  -5.483  22.788  1.00  0.00     0.188 HD
BRANCH   9  11
HETATM   11  S   UNL     1       5.981  -4.575  21.840  1.00  0.00     0.233 S 
HETATM   12  C   UNL     1       4.789  -5.219  23.127  1.00  0.00     0.186 C 
HETATM   13  O   UNL     1       5.527  -3.228  21.530  1.00  0.00    -0.206 OA
HETATM   14  O   UNL     1       5.920  -5.451  20.728  1.00  0.00    -0.206 OA
ENDBRANCH   9  11
ENDBRANCH   8   9
ENDBRANCH   7   8
ENDBRANCH   1   7
BRANCH   1  15
HETATM   15  C   UNL     1       8.883  -1.161  22.313  1.00  0.00    -0.064 C 
BRANCH  15  16
HETATM   16  C   UNL     1       8.419  -0.486  21.287  1.00  0.00     0.290 C 
HETATM   17  O   UNL     1       9.163   0.199  20.742  1.00  0.00    -0.259 OA
HETATM   18  N   UNL     1       7.107  -0.702  21.094  1.00  0.00    -0.315 N 
ATOM     19  HN  UNL     1       6.572  -1.296  21.729  1.00  0.00     0.170 HD
BRANCH  18  20
HETATM   20  C   UNL     1       6.561  -0.150  20.108  1.00  0.00     0.060 C 
HETATM   21  C   UNL     1       6.271  -0.392  18.870  1.00  0.00     0.117 C 
HETATM   22  N   UNL     1       5.745  -0.271  17.753  1.00  0.00    -0.373 N 
HETATM   23  C   UNL     1       5.267   0.932  18.079  1.00  0.00     0.088 C 
ATOM     24  HN  UNL     1       5.697  -0.855  16.918  1.00  0.00     0.164 HD
HETATM   25  C   UNL     1       5.331   1.554  19.145  1.00  0.00     0.030 C 
HETATM   26  C   UNL     1       5.912   1.268  20.309  1.00  0.00    -0.016 C 
HETATM   27  C   UNL     1       6.004   2.004  21.498  1.00  0.00     0.026 C 
ENDBRANCH  18  20
ENDBRANCH  15  16
ENDBRANCH   1  15
TORSDOF 7
ENDMDL
MODEL 2
REMARK VINA RESULT:    -6.893      2.696      5.929
REMARK INTER + INTRA:         -10.848
REMARK INTER:                  -9.850
REMARK INTRA:                  -0.997
REMARK UNBOUND:                -1.134
REMARK  7 active torsions:
REMARK  status: ('A' for Active; 'I' for Inactive)
REMARK    1  A    between atoms: S_2  and  N_5 
REMARK    2  A    between atoms: N_5  and  C_7 
REMARK    3  A    between atoms: C_7  and  C_8 
REMARK    4  A    between atoms: C_8  and  C_9 
REMARK    5  A    between atoms: C_9  and  C_15 
REMARK    6  A    between atoms: C_15  and  C_16 
REMARK       I    between atoms: C_16  and  N_18 
REMARK    7  A    between atoms: N_18  and  C_20 
ROOT
HETATM    1  C   UNL     1      10.065  -0.903  23.535  1.00  0.00     0.068 C 
HETATM    2  C   UNL     1      11.406  -1.575  22.961  1.00  0.00     0.000 C 
HETATM    3  C   UNL     1      12.438  -1.399  23.241  1.00  0.00    -0.002 C 
HETATM    4  C   UNL     1      12.975  -0.492  24.080  1.00  0.00    -0.001 C 
HETATM    5  C   UNL     1      11.988   0.358  24.640  1.00  0.00    -0.002 C 
HETATM    6  C   UNL     1      10.952   0.336  24.509  1.00  0.00     0.000 C 
ENDROOT
BRANCH   1   7
HETATM    7  C   UNL     1       8.988  -0.512  22.961  1.00  0.00     0.135 C 
BRANCH   7   8
HETATM    8  C   UNL     1       8.056  -0.551  22.223  1.00  0.00    -0.058 C 
BRANCH   8   9
HETATM    9  N   UNL     1       7.285  -0.942  21.408  1.00  0.00    -0.254 N 
ATOM     10  HN  UNL     1       6.894  -1.874  21.546  1.00  0.00     0.188 HD
BRANCH   9  11
HETATM   11  S   UNL     1       6.808  -0.136  20.116  1.00  0.00     0.233 S 
HETATM   12  C   UNL     1       6.182   1.479  20.819  1.00  0.00     0.186 C 
HETATM   13  O   UNL     1       7.922   0.222  19.252  1.00  0.00    -0.206 OA
HETATM   14  O   UNL     1       5.735  -0.740  19.417  1.00  0.00    -0.206 OA
ENDBRANCH   9  11
ENDBRANCH   8   9
ENDBRANCH   7   8
ENDBRANCH   1   7
BRANCH   1  15
HETATM   15  C   UNL     1       9.501  -1.545  24.411  1.00  0.00    -0.064 C 
BRANCH  15  16
HETATM   16  C   UNL     1       8.833  -2.315  25.240  1.00  0.00     0.290 C 
HETATM   17  O   UNL     1       8.548  -1.855  26.253  1.00  0.00    -0.259 OA
HETATM   18  N   UNL     1       8.645  -3.548  24.740  1.00  0.00    -0.315 N 
ATOM     19  HN  UNL     1       9.035  -3.815  23.836  1.00  0.00     0.170 HD
BRANCH  18  20
HETATM   20  C   UNL     1       7.972  -4.359  25.421  1.00  0.00     0.060 C 
HETATM   21  C   UNL     1       8.110  -5.167  26.423  1.00  0.00     0.117 C 
HETATM   22  N   UNL     1       7.805  -5.924  27.358  1.00  0.00    -0.373 N 
HETATM   23  C   UNL     1       6.529  -5.938  26.967  1.00  0.00     0.088 C 
ATOM     24  HN  UNL     1       8.322  -6.361  28.121  1.00  0.00     0.164 HD
HETATM   25  C   UNL     1       5.970  -5.332  26.047  1.00  0.00     0.030 C 
HETATM   26  C   UNL     1       6.435  -4.493  25.122  1.00  0.00    -0.016 C 
HETATM   27  C   UNL     1       5.789  -3.842  24.062  1.00  0.00     0.026 C 
ENDBRANCH  18  20
ENDBRANCH  15  16
ENDBRANCH   1  15
TORSDOF 7
ENDMDL
MODEL 3
REMARK VINA RESULT:    -6.720      2.595      6.122
REMARK INTER + INTRA:         -10.605
REMARK INTER:                  -9.783
REMARK INTRA:                  -0.822
REMARK UNBOUND:                -1.134
REMARK  7 active torsions:
REMARK  status: ('A' for Active; 'I' for Inactive)
REMARK    1  A    between atoms: S_2  and  N_5 
REMARK    2  A    between atoms: N_5  and  C_7 
REMARK    3  A    between atoms: C_7  and  C_8 
REMARK    4  A    between atoms: C_8  and  C_9 
REMARK    5  A    between atoms: C_9  and  C_15 
REMARK    6  A    between atoms: C_15  and  C_16 
REMARK       I    between atoms: C_16  and  N_18 
REMARK    7  A    between atoms: N_18  and  C_20 
ROOT
HETATM    1  C   UNL     1       6.777  -3.123  22.545  1.00  0.00     0.068 C 
HETATM    2  C   UNL     1       5.758  -3.685  23.651  1.00  0.00     0.000 C 
HETATM    3  C   UNL     1       5.528  -4.711  23.916  1.00  0.00    -0.002 C 
HETATM    4  C   UNL     1       5.922  -5.870  23.355  1.00  0.00    -0.001 C 
HETATM    5  C   UNL     1       6.751  -5.654  22.225  1.00  0.00    -0.002 C 
HETATM    6  C   UNL     1       7.096  -4.752  21.827  1.00  0.00     0.000 C 
ENDROOT
BRANCH   1   7
HETATM    7  C   UNL     1       6.695  -2.145  21.722  1.00  0.00     0.135 C 
BRANCH   7   8
HETATM    8  C   UNL     1       6.253  -1.161  21.220  1.00  0.00    -0.058 C 
BRANCH   8   9
HETATM    9  N   UNL     1       6.192  -0.130  20.633  1.00  0.00    -0.254 N 
ATOM     10  HN  UNL     1       6.046   0.714  21.187  1.00  0.00     0.188 HD
BRANCH   9  11
HETATM   11  S   UNL     1       6.318   0.049  19.052  1.00  0.00     0.233 S 
HETATM   12  C   UNL     1       5.170   1.478  18.685  1.00  0.00     0.186 C 
HETATM   13  O   UNL     1       7.642   0.504  18.657  1.00  0.00    -0.206 OA
HETATM   14  O   UNL     1       5.866  -1.063  18.301  1.00  0.00    -0.206 OA
ENDBRANCH   9  11
ENDBRANCH   8   9
ENDBRANCH   7   8
ENDBRANCH   1   7
BRANCH   1  15
HETATM   15  C   UNL     1       7.885  -2.822  22.971  1.00  0.00    -0.064 C 
BRANCH  15  16
HETATM   16  C   UNL     1       9.058  -2.617  23.524  1.00  0.00     0.290 C 
HETATM   17  O   UNL     1       9.317  -3.264  24.437  1.00  0.00    -0.259 OA
HETATM   18  N   UNL     1       9.733  -1.625  22.919  1.00  0.00    -0.315 N 
ATOM     19  HN  UNL     1       9.317  -1.096  22.152  1.00  0.00     0.170 HD
BRANCH  18  20
HETATM   20  C   UNL     1      10.893  -1.372  23.327  1.00  0.00     0.060 C 
HETATM   21  C   UNL     1      12.117  -1.748  23.135  1.00  0.00     0.117 C 
HETATM   22  N   UNL     1      13.357  -1.735  23.172  1.00  0.00    -0.373 N 
HETATM   23  C   UNL     1      13.347  -0.732  24.051  1.00  0.00     0.088 C 
ATOM     24  HN  UNL     1      14.090  -2.276  22.713  1.00  0.00     0.164 HD
HETATM   25  C   UNL     1      12.402  -0.093  24.524  1.00  0.00     0.030 C 
HETATM   26  C   UNL     1      11.084  -0.196  24.352  1.00  0.00    -0.016 C 
HETATM   27  C   UNL     1      10.023   0.516  24.926  1.00  0.00     0.026 C 
ENDBRANCH  18  20
ENDBRANCH  15  16
ENDBRANCH   1  15
TORSDOF 7
ENDMDL
MODEL 4
REMARK VINA RESULT:    -6.653      4.133      6.114
REMARK INTER + INTRA:         -10.510
REMARK INTER:                  -9.806
REMARK INTRA:                  -0.704
REMARK UNBOUND:                -1.134
REMARK  7 active torsions:
REMARK  status: ('A' for Active; 'I' for Inactive)
REMARK    1  A    between atoms: S_2  and  N_5 
REMARK    2  A    between atoms: N_5  and  C_7 
REMARK    3  A    between atoms: C_7  and  C_8 
REMARK    4  A    between atoms: C_8  and  C_9 
REMARK    5  A    between atoms: C_9  and  C_15 
REMARK    6  A    between atoms: C_15  and  C_16 
REMARK       I    between atoms: C_16  and  N_18 
REMARK    7  A    between atoms: N_18  and  C_20 
ROOT
HETATM    1  C   UNL     1       7.597  -4.593  23.951  1.00  0.00     0.068 C 
HETATM    2  C   UNL     1       7.568  -5.561  22.670  1.00  0.00     0.000 C 
HETATM    3  C   UNL     1       6.822  -5.644  21.887  1.00  0.00    -0.002 C 
HETATM    4  C   UNL     1       5.616  -5.057  21.760  1.00  0.00    -0.001 C 
HETATM    5  C   UNL     1       5.316  -4.225  22.868  1.00  0.00    -0.002 C 
HETATM    6  C   UNL     1       5.905  -4.004  23.702  1.00  0.00     0.000 C 
ENDROOT
BRANCH   1   7
HETATM    7  C   UNL     1       7.959  -4.787  25.164  1.00  0.00     0.135 C 
BRANCH   7   8
HETATM    8  C   UNL     1       8.094  -5.367  26.194  1.00  0.00    -0.058 C 
BRANCH   8   9
HETATM    9  N   UNL     1       7.966  -5.674  27.335  1.00  0.00    -0.254 N 
ATOM     10  HN  UNL     1       8.818  -5.807  27.879  1.00  0.00     0.188 HD
BRANCH   9  11
HETATM   11  S   UNL     1       6.578  -5.897  28.088  1.00  0.00     0.233 S 
HETATM   12  C   UNL     1       5.698  -4.262  27.869  1.00  0.00     0.186 C 
HETATM   13  O   UNL     1       5.742  -6.881  27.418  1.00  0.00    -0.206 OA
HETATM   14  O   UNL     1       6.701  -6.129  29.480  1.00  0.00    -0.206 OA
ENDBRANCH   9  11
ENDBRANCH   8   9
ENDBRANCH   7   8
ENDBRANCH   1   7
BRANCH   1  15
HETATM   15  C   UNL     1       8.239  -3.561  23.803  1.00  0.00    -0.064 C 
BRANCH  15  16
HETATM   16  C   UNL     1       9.023  -2.536  23.558  1.00  0.00     0.290 C 
HETATM   17  O   UNL     1       9.225  -2.294  22.454  1.00  0.00    -0.259 OA
HETATM   18  N   UNL     1       9.488  -1.978  24.688  1.00  0.00    -0.315 N 
ATOM     19  HN  UNL     1       9.263  -2.372  25.602  1.00  0.00     0.170 HD
BRANCH  18  20
HETATM   20  C   UNL     1      10.208  -0.955  24.583  1.00  0.00     0.060 C 
HETATM   21  C   UNL     1      11.428  -0.625  24.301  1.00  0.00     0.117 C 
HETATM   22  N   UNL     1      12.401   0.082  23.998  1.00  0.00    -0.373 N 
HETATM   23  C   UNL     1      11.688   1.194  24.191  1.00  0.00     0.088 C 
ATOM     24  HN  UNL     1      13.363  -0.109  23.715  1.00  0.00     0.164 HD
HETATM   25  C   UNL     1      10.498   1.337  24.490  1.00  0.00     0.030 C 
HETATM   26  C   UNL     1       9.534   0.455  24.752  1.00  0.00    -0.016 C 
HETATM   27  C   UNL     1       8.196   0.637  25.124  1.00  0.00     0.026 C 
ENDBRANCH  18  20
ENDBRANCH  15  16
ENDBRANCH   1  15
TORSDOF 7
ENDMDL
MODEL 5
REMARK VINA RESULT:    -6.468      2.596      5.986
REMARK INTER + INTRA:         -10.249
REMARK INTER:                  -9.454
REMARK INTRA:                  -0.795
REMARK UNBOUND:                -1.134
REMARK  7 active torsions:
REMARK  status: ('A' for Active; 'I' for Inactive)
REMARK    1  A    between atoms: S_2  and  N_5 
REMARK    2  A    between atoms: N_5  and  C_7 
REMARK    3  A    between atoms: C_7  and  C_8 
REMARK    4  A    between atoms: C_8  and  C_9 
REMARK    5  A    between atoms: C_9  and  C_15 
REMARK    6  A    between atoms: C_15  and  C_16 
REMARK       I    between atoms: C_16  and  N_18 
REMARK    7  A    between atoms: N_18  and  C_20 
ROOT
HETATM    1  C   UNL     1       7.581   0.339  20.843  1.00  0.00     0.068 C 
HETATM    2  C   UNL     1       6.469   1.438  21.210  1.00  0.00     0.000 C 
HETATM    3  C   UNL     1       5.630   1.791  20.621  1.00  0.00    -0.002 C 
HETATM    4  C   UNL     1       5.280   1.525  19.348  1.00  0.00    -0.001 C 
HETATM    5  C   UNL     1       6.206   0.657  18.717  1.00  0.00    -0.002 C 
HETATM    6  C   UNL     1       7.057   0.202  19.117  1.00  0.00     0.000 C 
ENDROOT
BRANCH   1   7
HETATM    7  C   UNL     1       8.843   0.291  21.059  1.00  0.00     0.135 C 
BRANCH   7   8
HETATM    8  C   UNL     1       9.858   0.352  21.677  1.00  0.00    -0.058 C 
BRANCH   8   9
HETATM    9  N   UNL     1      10.613   0.434  22.590  1.00  0.00    -0.254 N 
ATOM     10  HN  UNL     1      10.900   1.370  22.875  1.00  0.00     0.188 HD
BRANCH   9  11
HETATM   11  S   UNL     1      11.219  -0.794  23.410  1.00  0.00     0.233 S 
HETATM   12  C   UNL     1      12.690  -0.046  24.287  1.00  0.00     0.186 C 
HETATM   13  O   UNL     1      10.324  -1.243  24.465  1.00  0.00    -0.206 OA
HETATM   14  O   UNL     1      11.700  -1.853  22.602  1.00  0.00    -0.206 OA
ENDBRANCH   9  11
ENDBRANCH   8   9
ENDBRANCH   7   8
ENDBRANCH   1   7
BRANCH   1  15
HETATM   15  C   UNL     1       7.350  -0.787  21.259  1.00  0.00    -0.064 C 
BRANCH  15  16
HETATM   16  C   UNL     1       7.204  -1.969  21.815  1.00  0.00     0.290 C 
HETATM   17  O   UNL     1       8.162  -2.491  22.173  1.00  0.00    -0.259 OA
HETATM   18  N   UNL     1       5.922  -2.369  21.816  1.00  0.00    -0.315 N 
ATOM     19  HN  UNL     1       5.192  -1.803  21.382  1.00  0.00     0.170 HD
BRANCH  18  20
HETATM   20  C   UNL     1       5.650  -3.463  22.369  1.00  0.00     0.060 C 
HETATM   21  C   UNL     1       5.586  -4.726  22.091  1.00  0.00     0.117 C 
HETATM   22  N   UNL     1       5.514  -5.953  22.263  1.00  0.00    -0.373 N 
HETATM   23  C   UNL     1       5.249  -5.783  23.560  1.00  0.00     0.088 C 
ATOM     24  HN  UNL     1       5.617  -6.766  21.656  1.00  0.00     0.164 HD
HETATM   25  C   UNL     1       5.191  -4.750  24.234  1.00  0.00     0.030 C 
HETATM   26  C   UNL     1       5.337  -3.466  23.909  1.00  0.00    -0.016 C 
HETATM   27  C   UNL     1       5.232  -2.302  24.683  1.00  0.00     0.026 C 
ENDBRANCH  18  20
ENDBRANCH  15  16
ENDBRANCH   1  15
TORSDOF 7
ENDMDL
MODEL 6
REMARK VINA RESULT:    -6.344      2.159      5.415
REMARK INTER + INTRA:         -10.074
REMARK INTER:                  -9.056
REMARK INTRA:                  -1.018
REMARK UNBOUND:                -1.134
REMARK  7 active torsions:
REMARK  status: ('A' for Active; 'I' for Inactive)
REMARK    1  A    between atoms: S_2  and  N_5 
REMARK    2  A    between atoms: N_5  and  C_7 
REMARK    3  A    between atoms: C_7  and  C_8 
REMARK    4  A    between atoms: C_8  and  C_9 
REMARK    5  A    between atoms: C_9  and  C_15 
REMARK    6  A    between atoms: C_15  and  C_16 
REMARK       I    between atoms: C_16  and  N_18 
REMARK    7  A    between atoms: N_18  and  C_20 
ROOT
HETATM    1  C   UNL     1       9.294  -0.781  22.342  1.00  0.00     0.068 C 
HETATM    2  C   UNL     1      10.712  -1.534  22.347  1.00  0.00     0.000 C 
HETATM    3  C   UNL     1      11.529  -1.459  23.056  1.00  0.00    -0.002 C 
HETATM    4  C   UNL     1      11.698  -0.641  24.114  1.00  0.00    -0.001 C 
HETATM    5  C   UNL     1      10.614   0.261  24.261  1.00  0.00    -0.002 C 
HETATM    6  C   UNL     1       9.738   0.332  23.697  1.00  0.00     0.000 C 
ENDROOT
BRANCH   1   7
HETATM    7  C   UNL     1       8.597  -0.274  21.394  1.00  0.00     0.135 C 
BRANCH   7   8
HETATM    8  C   UNL     1       8.175  -0.131  20.291  1.00  0.00    -0.058 C 
BRANCH   8   9
HETATM    9  N   UNL     1       7.480   0.211  19.391  1.00  0.00    -0.254 N 
ATOM     10  HN  UNL     1       7.857   0.907  18.748  1.00  0.00     0.188 HD
BRANCH   9  11
HETATM   11  S   UNL     1       6.005  -0.325  19.099  1.00  0.00     0.233 S 
HETATM   12  C   UNL     1       4.927   1.162  19.445  1.00  0.00     0.186 C 
HETATM   13  O   UNL     1       5.803  -0.633  17.692  1.00  0.00    -0.206 OA
HETATM   14  O   UNL     1       5.582  -1.366  19.961  1.00  0.00    -0.206 OA
ENDBRANCH   9  11
ENDBRANCH   8   9
ENDBRANCH   7   8
ENDBRANCH   1   7
BRANCH   1  15
HETATM   15  C   UNL     1       8.372  -1.414  22.837  1.00  0.00    -0.064 C 
BRANCH  15  16
HETATM   16  C   UNL     1       7.455  -2.220  23.323  1.00  0.00     0.290 C 
HETATM   17  O   UNL     1       6.420  -1.763  23.517  1.00  0.00    -0.259 OA
HETATM   18  N   UNL     1       7.937  -3.454  23.546  1.00  0.00    -0.315 N 
ATOM     19  HN  UNL     1       8.920  -3.674  23.383  1.00  0.00     0.170 HD
BRANCH  18  20
HETATM   20  C   UNL     1       7.137  -4.328  23.963  1.00  0.00     0.060 C 
HETATM   21  C   UNL     1       6.601  -4.736  25.068  1.00  0.00     0.117 C 
HETATM   22  N   UNL     1       5.830  -5.331  25.837  1.00  0.00    -0.373 N 
HETATM   23  C   UNL     1       5.332  -6.047  24.826  1.00  0.00     0.088 C 
ATOM     24  HN  UNL     1       5.648  -5.289  26.840  1.00  0.00     0.164 HD
HETATM   25  C   UNL     1       5.577  -5.998  23.617  1.00  0.00     0.030 C 
HETATM   26  C   UNL     1       6.427  -5.254  22.910  1.00  0.00    -0.016 C 
HETATM   27  C   UNL     1       6.717  -5.238  21.539  1.00  0.00     0.026 C 
ENDBRANCH  18  20
ENDBRANCH  15  16
ENDBRANCH   1  15
TORSDOF 7
ENDMDL
MODEL 7
REMARK VINA RESULT:    -5.971      4.415      8.206
REMARK INTER + INTRA:          -9.549
REMARK INTER:                  -8.689
REMARK INTRA:                  -0.860
REMARK UNBOUND:                -1.134
REMARK  7 active torsions:
REMARK  status: ('A' for Active; 'I' for Inactive)
REMARK    1  A    between atoms: S_2  and  N_5 
REMARK    2  A    between atoms: N_5  and  C_7 
REMARK    3  A    between atoms: C_7  and  C_8 
REMARK    4  A    between atoms: C_8  and  C_9 
REMARK    5  A    between atoms: C_9  and  C_15 
REMARK    6  A    between atoms: C_15  and  C_16 
REMARK       I    between atoms: C_16  and  N_18 
REMARK    7  A    between atoms: N_18  and  C_20 
ROOT
HETATM    1  C   UNL     1       7.495  -4.040  23.813  1.00  0.00     0.068 C 
HETATM    2  C   UNL     1       6.017  -3.606  23.360  1.00  0.00     0.000 C 
HETATM    3  C   UNL     1       5.260  -4.181  22.839  1.00  0.00    -0.002 C 
HETATM    4  C   UNL     1       5.317  -5.411  22.292  1.00  0.00    -0.001 C 
HETATM    5  C   UNL     1       6.604  -5.990  22.430  1.00  0.00    -0.002 C 
HETATM    6  C   UNL     1       7.448  -5.606  22.909  1.00  0.00     0.000 C 
ENDROOT
BRANCH   1   7
HETATM    7  C   UNL     1       8.612  -3.413  23.806  1.00  0.00     0.135 C 
BRANCH   7   8
HETATM    8  C   UNL     1       9.356  -2.487  23.739  1.00  0.00    -0.058 C 
BRANCH   8   9
HETATM    9  N   UNL     1       9.972  -1.518  24.043  1.00  0.00    -0.254 N 
ATOM     10  HN  UNL     1       9.672  -1.018  24.880  1.00  0.00     0.188 HD
BRANCH   9  11
HETATM   11  S   UNL     1      11.227  -0.928  23.254  1.00  0.00     0.233 S 
HETATM   12  C   UNL     1      10.447   0.121  21.918  1.00  0.00     0.186 C 
HETATM   13  O   UNL     1      12.002  -0.005  24.069  1.00  0.00    -0.206 OA
HETATM   14  O   UNL     1      12.025  -1.907  22.614  1.00  0.00    -0.206 OA
ENDBRANCH   9  11
ENDBRANCH   8   9
ENDBRANCH   7   8
ENDBRANCH   1   7
BRANCH   1  15
HETATM   15  C   UNL     1       7.587  -4.428  24.969  1.00  0.00    -0.064 C 
BRANCH  15  16
HETATM   16  C   UNL     1       7.546  -4.789  26.232  1.00  0.00     0.290 C 
HETATM   17  O   UNL     1       8.487  -4.583  26.857  1.00  0.00    -0.259 OA
HETATM   18  N   UNL     1       6.385  -5.389  26.546  1.00  0.00    -0.315 N 
ATOM     19  HN  UNL     1       5.672  -5.560  25.837  1.00  0.00     0.170 HD
BRANCH  18  20
HETATM   20  C   UNL     1       6.208  -5.732  27.740  1.00  0.00     0.060 C 
HETATM   21  C   UNL     1       6.506  -6.697  28.550  1.00  0.00     0.117 C 
HETATM   22  N   UNL     1       6.657  -7.319  29.613  1.00  0.00    -0.373 N 
HETATM   23  C   UNL     1       5.988  -6.382  30.288  1.00  0.00     0.088 C 
ATOM     24  HN  UNL     1       7.111  -8.196  29.869  1.00  0.00     0.164 HD
HETATM   25  C   UNL     1       5.508  -5.311  29.903  1.00  0.00     0.030 C 
HETATM   26  C   UNL     1       5.459  -4.739  28.701  1.00  0.00    -0.016 C 
HETATM   27  C   UNL     1       4.877  -3.537  28.276  1.00  0.00     0.026 C 
ENDBRANCH  18  20
ENDBRANCH  15  16
ENDBRANCH   1  15
TORSDOF 7
ENDMDL
MODEL 8
REMARK VINA RESULT:    -5.950     15.061     16.250
REMARK INTER + INTRA:          -9.520
REMARK INTER:                  -8.611
REMARK INTRA:                  -0.909
REMARK UNBOUND:                -1.134
REMARK  7 active torsions:
REMARK  status: ('A' for Active; 'I' for Inactive)
REMARK    1  A    between atoms: S_2  and  N_5 
REMARK    2  A    between atoms: N_5  and  C_7 
REMARK    3  A    between atoms: C_7  and  C_8 
REMARK    4  A    between atoms: C_8  and  C_9 
REMARK    5  A    between atoms: C_9  and  C_15 
REMARK    6  A    between atoms: C_15  and  C_16 
REMARK       I    between atoms: C_16  and  N_18 
REMARK    7  A    between atoms: N_18  and  C_20 
ROOT
HETATM    1  C   UNL     1      23.238  -1.339  23.673  1.00  0.00     0.068 C 
HETATM    2  C   UNL     1      22.026  -0.724  24.528  1.00  0.00     0.000 C 
HETATM    3  C   UNL     1      21.880   0.289  24.886  1.00  0.00    -0.002 C 
HETATM    4  C   UNL     1      22.698   1.359  24.842  1.00  0.00    -0.001 C 
HETATM    5  C   UNL     1      23.943   1.047  24.240  1.00  0.00    -0.002 C 
HETATM    6  C   UNL     1      24.262   0.145  23.822  1.00  0.00     0.000 C 
ENDROOT
BRANCH   1   7
HETATM    7  C   UNL     1      23.850  -2.462  23.739  1.00  0.00     0.135 C 
BRANCH   7   8
HETATM    8  C   UNL     1      24.112  -3.553  24.135  1.00  0.00    -0.058 C 
BRANCH   8   9
HETATM    9  N   UNL     1      24.701  -4.452  24.642  1.00  0.00    -0.254 N 
ATOM     10  HN  UNL     1      25.716  -4.459  24.541  1.00  0.00     0.188 HD
BRANCH   9  11
HETATM   11  S   UNL     1      24.041  -5.649  25.465  1.00  0.00     0.233 S 
HETATM   12  C   UNL     1      25.421  -6.207  26.597  1.00  0.00     0.186 C 
HETATM   13  O   UNL     1      22.979  -5.188  26.345  1.00  0.00    -0.206 OA
HETATM   14  O   UNL     1      23.665  -6.762  24.674  1.00  0.00    -0.206 OA
ENDBRANCH   9  11
ENDBRANCH   8   9
ENDBRANCH   7   8
ENDBRANCH   1   7
BRANCH   1  15
HETATM   15  C   UNL     1      23.046  -1.383  22.465  1.00  0.00    -0.064 C 
BRANCH  15  16
HETATM   16  C   UNL     1      22.751  -1.550  21.196  1.00  0.00     0.290 C 
HETATM   17  O   UNL     1      21.679  -1.885  20.957  1.00  0.00    -0.259 OA
HETATM   18  N   UNL     1      23.811  -1.331  20.400  1.00  0.00    -0.315 N 
ATOM     19  HN  UNL     1      24.726  -1.107  20.791  1.00  0.00     0.170 HD
BRANCH  18  20
HETATM   20  C   UNL     1      23.637  -1.410  19.159  1.00  0.00     0.060 C 
HETATM   21  C   UNL     1      23.175  -0.706  18.175  1.00  0.00     0.117 C 
HETATM   22  N   UNL     1      22.945  -0.345  17.011  1.00  0.00    -0.373 N 
HETATM   23  C   UNL     1      23.424  -1.494  16.531  1.00  0.00     0.088 C 
ATOM     24  HN  UNL     1      22.548   0.495  16.589  1.00  0.00     0.164 HD
HETATM   25  C   UNL     1      23.938  -2.452  17.118  1.00  0.00     0.030 C 
HETATM   26  C   UNL     1      24.164  -2.687  18.410  1.00  0.00    -0.016 C 
HETATM   27  C   UNL     1      24.717  -3.797  19.061  1.00  0.00     0.026 C 
ENDBRANCH  18  20
ENDBRANCH  15  16
ENDBRANCH   1  15
TORSDOF 7
ENDMDL
MODEL 9
REMARK VINA RESULT:    -5.934      2.078      2.361
REMARK INTER + INTRA:          -9.496
REMARK INTER:                  -8.693
REMARK INTRA:                  -0.803
REMARK UNBOUND:                -1.134
REMARK  7 active torsions:
REMARK  status: ('A' for Active; 'I' for Inactive)
REMARK    1  A    between atoms: S_2  and  N_5 
REMARK    2  A    between atoms: N_5  and  C_7 
REMARK    3  A    between atoms: C_7  and  C_8 
REMARK    4  A    between atoms: C_8  and  C_9 
REMARK    5  A    between atoms: C_9  and  C_15 
REMARK    6  A    between atoms: C_15  and  C_16 
REMARK       I    between atoms: C_16  and  N_18 
REMARK    7  A    between atoms: N_18  and  C_20 
ROOT
HETATM    1  C   UNL     1       9.474   0.104  23.724  1.00  0.00     0.068 C 
HETATM    2  C   UNL     1       9.033   1.258  24.750  1.00  0.00     0.000 C 
HETATM    3  C   UNL     1       9.357   2.291  24.804  1.00  0.00    -0.002 C 
HETATM    4  C   UNL     1      10.311   2.947  24.115  1.00  0.00    -0.001 C 
HETATM    5  C   UNL     1      10.983   2.094  23.203  1.00  0.00    -0.002 C 
HETATM    6  C   UNL     1      10.806   1.086  22.995  1.00  0.00     0.000 C 
ENDROOT
BRANCH   1   7
HETATM    7  C   UNL     1       9.712  -1.144  23.889  1.00  0.00     0.135 C 
BRANCH   7   8
HETATM    8  C   UNL     1       9.554  -2.319  23.787  1.00  0.00    -0.058 C 
BRANCH   8   9
HETATM    9  N   UNL     1       9.046  -3.367  23.556  1.00  0.00    -0.254 N 
ATOM     10  HN  UNL     1       9.436  -3.915  22.789  1.00  0.00     0.188 HD
BRANCH   9  11
HETATM   11  S   UNL     1       7.807  -3.994  24.341  1.00  0.00     0.233 S 
HETATM   12  C   UNL     1       7.169  -5.304  23.169  1.00  0.00     0.186 C 
HETATM   13  O   UNL     1       8.221  -4.712  25.537  1.00  0.00    -0.206 OA
HETATM   14  O   UNL     1       6.747  -3.085  24.579  1.00  0.00    -0.206 OA
ENDBRANCH   9  11
ENDBRANCH   8   9
ENDBRANCH   7   8
ENDBRANCH   1   7
BRANCH   1  15
HETATM   15  C   UNL     1       8.728  -0.047  22.766  1.00  0.00    -0.064 C 
BRANCH  15  16
HETATM   16  C   UNL     1       7.817  -0.235  21.839  1.00  0.00     0.290 C 
HETATM   17  O   UNL     1       7.110  -1.128  21.986  1.00  0.00    -0.259 OA
HETATM   18  N   UNL     1       7.922   0.659  20.841  1.00  0.00    -0.315 N 
ATOM     19  HN  UNL     1       8.669   1.354  20.833  1.00  0.00     0.170 HD
BRANCH  18  20
HETATM   20  C   UNL     1       7.071   0.611  19.920  1.00  0.00     0.060 C 
HETATM   21  C   UNL     1       6.846  -0.013  18.808  1.00  0.00     0.117 C 
HETATM   22  N   UNL     1       6.235  -0.434  17.814  1.00  0.00    -0.373 N 
HETATM   23  C   UNL     1       5.208   0.379  18.067  1.00  0.00     0.088 C 
ATOM     24  HN  UNL     1       6.438  -1.125  17.091  1.00  0.00     0.164 HD
HETATM   25  C   UNL     1       5.020   1.159  19.005  1.00  0.00     0.030 C 
HETATM   26  C   UNL     1       5.771   1.484  20.057  1.00  0.00    -0.016 C 
HETATM   27  C   UNL     1       5.556   2.401  21.094  1.00  0.00     0.026 C 
ENDBRANCH  18  20
ENDBRANCH  15  16
ENDBRANCH   1  15
TORSDOF 7
ENDMDL
