REMARK  7 active torsions:
REMARK  status: ('A' for Active; 'I' for Inactive)
REMARK    1  A    between atoms: S_2  and  N_5 
REMARK    2  A    between atoms: N_5  and  C_7 
REMARK    3  A    between atoms: C_7  and  C_8 
REMARK    4  A    between atoms: C_8  and  C_9 
REMARK    5  A    between atoms: C_9  and  C_15 
REMARK    6  A    between atoms: C_15  and  C_16 
REMARK       I    between atoms: C_16  and  N_18 
REMARK    7  A    between atoms: N_18  and  C_20 
ROOT
HETATM    1  C   UNL     1      10.311  -1.102  23.305  1.00  0.00     0.068 C 
HETATM    2  C   UNL     1      11.077  -0.042  24.237  1.00  0.00     0.000 C 
HETATM    3  C   UNL     1      12.113   0.276  24.210  1.00  0.00    -0.002 C 
HETATM    4  C   UNL     1      13.147  -0.171  23.471  1.00  0.00    -0.001 C 
HETATM    5  C   UNL     1      12.767  -1.246  22.628  1.00  0.00    -0.002 C 
HETATM    6  C   UNL     1      11.825  -1.678  22.500  1.00  0.00     0.000 C 
ENDROOT
BRANCH   1   7
HETATM    7  C   UNL     1       9.431  -1.995  23.567  1.00  0.00     0.135 C 
BRANCH   7   8
HETATM    8  C   UNL     1       8.907  -2.887  24.155  1.00  0.00    -0.058 C 
BRANCH   8   9
HETATM    9  N   UNL     1       8.073  -3.541  24.691  1.00  0.00    -0.254 N 
ATOM     10  HN  UNL     1       7.177  -3.636  24.213  1.00  0.00     0.188 HD
BRANCH   9  11
HETATM   11  S   UNL     1       8.232  -4.284  26.094  1.00  0.00     0.233 S 
HETATM   12  C   UNL     1       6.508  -4.915  26.448  1.00  0.00     0.186 C 
HETATM   13  O   UNL     1       9.067  -5.471  25.994  1.00  0.00    -0.206 OA
HETATM   14  O   UNL     1       8.601  -3.434  27.165  1.00  0.00    -0.206 OA
ENDBRANCH   9  11
ENDBRANCH   8   9
ENDBRANCH   7   8
ENDBRANCH   1   7
BRANCH   1  15
HETATM   15  C   UNL     1       9.703  -0.614  22.362  1.00  0.00    -0.064 C 
BRANCH  15  16
HETATM   16  C   UNL     1       9.044   0.038  21.431  1.00  0.00     0.290 C 
HETATM   17  O   UNL     1       9.504   1.027  21.072  1.00  0.00    -0.259 OA
HETATM   18  N   UNL     1       7.898  -0.580  21.100  1.00  0.00    -0.315 N 
ATOM     19  HN  UNL     1       7.600  -1.430  21.579  1.00  0.00     0.170 HD
BRANCH  18  20
HETATM   20  C   UNL     1       7.206  -0.077  20.181  1.00  0.00     0.060 C 
HETATM   21  C   UNL     1       7.213   0.056  18.893  1.00  0.00     0.117 C 
HETATM   22  N   UNL     1       6.804   0.293  17.746  1.00  0.00    -0.373 N 
HETATM   23  C   UNL     1       5.679   0.825  18.228  1.00  0.00     0.088 C 
ATOM     24  HN  UNL     1       7.178   0.142  16.809  1.00  0.00     0.164 HD
HETATM   25  C   UNL     1       5.278   0.925  19.392  1.00  0.00     0.030 C 
HETATM   26  C   UNL     1       5.826   0.575  20.555  1.00  0.00    -0.016 C 
HETATM   27  C   UNL     1       5.370   0.729  21.871  1.00  0.00     0.026 C 
ENDBRANCH  18  20
ENDBRANCH  15  16
ENDBRANCH   1  15
TORSDOF 7
