stable:False satoms:8 tatoms:24 sratio:0.3333333333333333
  -OEChem-07092417473D

 24 25  0     1  0  0  0  0  0999 V2000
    6.5079   -4.9150   26.4475 C   0  0  0  0  0  0  0  0  0  0  0  0
    8.2324   -4.2843   26.0944 S   0  0  0  0  0  0  0  0  0  0  0  0
    9.0666   -5.4711   25.9938 O   0  0  0  0  0  0  0  0  0  0  0  0
    8.6013   -3.4343   27.1646 O   0  0  0  0  0  0  0  0  0  0  0  0
    8.0728   -3.5407   24.6908 N   0  0  0  0  0  0  0  0  0  0  0  0
    8.9068   -2.8866   24.1549 C   0  0  0  0  0  0  0  0  0  0  0  0
    9.4310   -1.9948   23.5671 C   0  0  0  0  0  0  0  0  0  0  0  0
   10.3108   -1.1022   23.3055 C   0  0  1  0  0  0  0  0  0  0  0  0
   11.0774   -0.0419   24.2373 C   0  0  0  0  0  0  0  0  0  0  0  0
   12.1126    0.2757   24.2102 C   0  0  0  0  0  0  0  0  0  0  0  0
   13.1467   -0.1710   23.4708 C   0  0  0  0  0  0  0  0  0  0  0  0
   12.7669   -1.2455   22.6281 C   0  0  0  0  0  0  0  0  0  0  0  0
   11.8253   -1.6778   22.5000 C   0  0  0  0  0  0  0  0  0  0  0  0
    9.7025   -0.6142   22.3623 C   0  0  0  0  0  0  0  0  0  0  0  0
    9.0444    0.0381   21.4313 C   0  0  0  0  0  0  0  0  0  0  0  0
    9.5036    1.0274   21.0717 O   0  0  0  0  0  0  0  0  0  0  0  0
    7.8984   -0.5797   21.1004 N   0  0  0  0  0  0  0  0  0  0  0  0
    7.2056   -0.0766   20.1809 C   0  0  0  0  0  0  0  0  0  0  0  0
    7.2135    0.0563   18.8931 C   0  0  0  0  0  0  0  0  0  0  0  0
    6.8040    0.2930   17.7459 N   0  0  0  0  0  0  0  0  0  0  0  0
    5.6792    0.8252   18.2279 C   0  0  0  0  0  0  0  0  0  0  0  0
    5.2782    0.9255   19.3925 C   0  0  0  0  0  0  0  0  0  0  0  0
    5.8264    0.5748   20.5549 C   0  0  0  0  0  0  0  0  0  0  0  0
    5.3697    0.7292   21.8709 C   0  0  0  0  0  0  0  0  0  0  0  0
 20 21  2  0  0  0  0
 19 20  1  0  0  0  0
 21 22  1  0  0  0  0
 18 19  2  0  0  0  0
 22 23  2  0  0  0  0
 18 23  1  0  0  0  0
 17 18  1  0  0  0  0
 23 24  1  0  0  0  0
 15 16  2  0  0  0  0
 15 17  1  0  0  0  0
 14 15  1  0  0  0  0
  8 14  1  0  0  0  0
 12 13  1  0  0  0  0
  8 13  1  0  0  0  0
 11 12  2  0  0  0  0
  7  8  1  0  0  0  0
  8  9  1  0  0  0  0
 10 11  1  0  0  0  0
  6  7  3  0  0  0  0
  5  6  1  0  0  0  0
  9 10  2  0  0  0  0
  2  5  1  0  0  0  0
  2  3  2  0  0  0  0
  1  2  1  0  0  0  0
  2  4  2  0  0  0  0
M  END
> <Shapegauss>
-286.947052

$$$$
