stable:False satoms:14 tatoms:24 sratio:0.5833333333333334
  -OEChem-07092417413D

 24 24  0     1  0  0  0  0  0999 V2000
    6.7175   -4.7715   26.4322 O   0  0  0  0  0  0  0  0  0  0  0  0
    8.1404   -4.3965   26.1652 S   0  0  0  0  0  0  0  0  0  0  0  0
    8.9840   -5.5578   26.0978 O   0  0  0  0  0  0  0  0  0  0  0  0
    8.6311   -3.4682   27.1441 O   0  5  0  0  0  0  0  0  0  0  0  0
    8.0922   -3.7061   24.6805 N   0  0  0  0  0  0  0  0  0  0  0  0
    8.9103   -2.9113   24.1812 C   0  0  0  0  0  0  0  0  0  0  0  0
    9.4534   -2.1116   23.6251 C   0  0  0  0  0  0  0  0  0  0  0  0
   10.3130   -1.2592   23.0208 C   0  0  3  0  0  0  0  0  0  0  0  0
   11.3261    0.1964   24.5578 H   0  0  0  0  0  0  0  0  0  0  0  0
   12.2799    0.2779   24.3176 N   0  0  0  0  0  0  0  0  0  0  0  0
   13.0265   -0.1753   23.6934 C   0  0  0  0  0  0  0  0  0  0  0  0
   12.7539   -1.2740   22.8169 N   0  0  0  0  0  0  0  0  0  0  0  0
   11.7060   -1.4605   22.8865 C   0  0  0  0  0  0  0  0  0  0  0  0
    9.9890   -0.2816   22.3664 N   0  0  0  0  0  0  0  0  0  0  0  0
    9.1636    0.1265   21.3236 C   0  0  0  0  0  0  0  0  0  0  0  0
    9.5538    1.0363   20.6685 O   0  0  0  0  0  0  0  0  0  0  0  0
    7.9664   -0.5037   21.1342 N   0  0  0  0  0  0  0  0  0  0  0  0
    7.2103   -0.0864   20.1058 C   0  0  0  0  0  0  0  0  0  0  0  0
    7.5115   -0.1650   18.7733 N   0  0  0  0  0  0  0  0  0  0  0  0
    6.5666    0.2650   17.9671 N   0  0  0  0  0  0  0  0  0  0  0  0
    5.6065    0.7080   18.7379 C   0  0  0  0  0  0  0  0  0  0  0  0
    4.7174    1.1543   18.6526 H   0  0  0  0  0  0  0  0  0  0  0  0
    5.9308    0.4323   20.2636 C   0  0  0  0  0  0  0  0  0  0  0  0
    5.0338    0.6419   21.6847 Cl  0  0  0  0  0  0  0  0  0  0  0  0
 20 21  2  0  0  0  0
 19 20  1  0  0  0  0
 21 22  1  0  0  0  0
 21 23  1  0  0  0  0
 18 19  1  0  0  0  0
 18 23  2  0  0  0  0
 17 18  1  0  0  0  0
 23 24  1  0  0  0  0
 15 16  2  0  0  0  0
 15 17  1  0  0  0  0
 14 15  1  0  0  0  0
  8 14  1  0  0  0  0
 12 13  1  0  0  0  0
 11 12  1  0  0  0  0
  8 13  1  0  0  0  0
  7  8  1  0  0  0  0
  6  7  3  0  0  0  0
 10 11  2  0  0  0  0
  5  6  1  0  0  0  0
  9 10  1  0  0  0  0
  2  5  1  0  0  0  0
  2  3  2  0  0  0  0
  1  2  2  0  0  0  0
  2  4  1  0  0  0  0
M  CHG  1   4  -1
M  END
> <Shapegauss>
-257.194824

$$$$
