stable:False satoms:14 tatoms:24 sratio:0.5833333333333334
  -OEChem-08062412313D

 34 34  0     1  0  0  0  0  0999 V2000
   -6.5284   -5.4686  -25.7749 O   0  0  0  0  0  0  0  0  0  0  0  0
   -7.8950   -4.8638  -25.8293 S   0  0  0  0  0  0  0  0  0  0  0  0
   -8.9135   -5.8759  -25.8873 O   0  0  0  0  0  0  0  0  0  0  0  0
   -8.0219   -3.9517  -26.9305 O   0  5  0  0  0  0  0  0  0  0  0  0
   -8.0319   -4.0744  -24.4005 N   0  0  0  0  0  0  0  0  0  0  0  0
   -8.7919   -3.1288  -24.1204 C   0  0  0  0  0  0  0  0  0  0  0  0
   -9.2968   -2.2154  -23.7275 C   0  0  0  0  0  0  0  0  0  0  0  0
  -10.1085   -1.1985  -23.3562 C   0  0  3  0  0  0  0  0  0  0  0  0
  -11.4897    1.2561  -25.7719 H   0  0  0  0  0  0  0  0  0  0  0  0
  -11.4986    0.5110  -25.1050 N   0  3  0  0  0  0  0  0  0  0  0  0
  -12.4186    0.2258  -24.6310 C   0  0  0  0  0  0  0  0  0  0  0  0
  -12.5099   -0.8294  -23.6677 N   0  0  0  0  0  0  0  0  0  0  0  0
  -11.5141   -1.1765  -23.5077 C   0  0  0  0  0  0  0  0  0  0  0  0
   -9.7662   -0.2327  -22.6937 N   0  0  0  0  0  0  0  0  0  0  0  0
   -9.1102    0.1268  -21.5208 C   0  0  0  0  0  0  0  0  0  0  0  0
   -9.4691    1.1335  -21.0042 O   0  0  0  0  0  0  0  0  0  0  0  0
   -8.0944   -0.6598  -21.0563 N   0  0  0  0  0  0  0  0  0  0  0  0
   -7.5009   -0.2819  -19.9124 C   0  0  0  0  0  0  0  0  0  0  0  0
   -8.0707   -0.2097  -18.6704 N   0  0  0  0  0  0  0  0  0  0  0  0
   -7.2484    0.1349  -17.7046 N   0  0  0  0  0  0  0  0  0  0  0  0
   -6.0945    0.3664  -18.2765 C   0  0  0  0  0  0  0  0  0  0  0  0
   -5.1796    0.6790  -18.0273 H   0  0  0  0  0  0  0  0  0  0  0  0
   -6.1484    0.0241  -19.8221 C   0  0  0  0  0  0  0  0  0  0  0  0
   -4.9639   -0.0157  -21.0318 Cl  0  0  0  0  0  0  0  0  0  0  0  0
   -7.1134   -3.7257  -24.2141 H   0  0  0  0  0  0  0  0  0  0  0  0
   -9.9534   -0.6664  -24.3063 H   0  0  0  0  0  0  0  0  0  0  0  0
  -13.3192    0.7608  -24.8937 H   0  0  0  0  0  0  0  0  0  0  0  0
  -13.3417   -1.1727  -23.2317 H   0  0  0  0  0  0  0  0  0  0  0  0
  -11.7276   -1.6538  -22.5399 H   0  0  0  0  0  0  0  0  0  0  0  0
  -11.5419   -1.9345  -24.3044 H   0  0  0  0  0  0  0  0  0  0  0  0
  -10.0643    0.5991  -23.1620 H   0  0  0  0  0  0  0  0  0  0  0  0
   -7.8052   -1.4817  -21.5470 H   0  0  0  0  0  0  0  0  0  0  0  0
   -9.0384   -0.4041  -18.5099 H   0  0  0  0  0  0  0  0  0  0  0  0
  -10.6504    0.0317  -24.8795 H   0  0  0  0  0  0  0  0  0  0  0  0
 20 21  2  0  0  0  0
 19 20  1  0  0  0  0
 21 22  1  0  0  0  0
 21 23  1  0  0  0  0
 18 19  1  0  0  0  0
 18 23  2  0  0  0  0
 17 18  1  0  0  0  0
 23 24  1  0  0  0  0
 15 16  2  0  0  0  0
 15 17  1  0  0  0  0
 14 15  1  0  0  0  0
  8 14  1  0  0  0  0
 12 13  1  0  0  0  0
 11 12  1  0  0  0  0
  8 13  1  0  0  0  0
  7  8  1  0  0  0  0
  6  7  3  0  0  0  0
 10 11  2  0  0  0  0
  5  6  1  0  0  0  0
  9 10  1  0  0  0  0
  2  5  1  0  0  0  0
  2  3  2  0  0  0  0
  1  2  2  0  0  0  0
  2  4  1  0  0  0  0
  5 25  1  0  0  0  0
  8 26  1  0  0  0  0
 11 27  1  0  0  0  0
 12 28  1  0  0  0  0
 13 29  1  0  0  0  0
 13 30  1  0  0  0  0
 14 31  1  0  0  0  0
 17 32  1  0  0  0  0
 19 33  1  0  0  0  0
 10 34  1  0  0  0  0
M  CHG  2   4  -1  10   1
M  END
> <Chemgauss4>
-8.218461

$$$$
