stable:False satoms:14 tatoms:24 sratio:0.5833333333333334
  -OEChem-08062412313D

 34 34  0     1  0  0  0  0  0999 V2000
    6.3974   -5.7391   25.8318 O   0  0  0  0  0  0  0  0  0  0  0  0
    7.7475   -5.1033   25.9301 S   0  0  0  0  0  0  0  0  0  0  0  0
    8.7896   -6.0916   25.9754 O   0  0  0  0  0  0  0  0  0  0  0  0
    7.8322   -4.2235   27.0613 O   0  5  0  0  0  0  0  0  0  0  0  0
    7.8898   -4.2662   24.5293 N   0  0  0  0  0  0  0  0  0  0  0  0
    8.6310   -3.2941   24.2927 C   0  0  0  0  0  0  0  0  0  0  0  0
    9.1199   -2.3567   23.9377 C   0  0  0  0  0  0  0  0  0  0  0  0
    9.9125   -1.3093   23.6131 C   0  0  3  0  0  0  0  0  0  0  0  0
   11.1894    1.1009   26.1289 H   0  0  0  0  0  0  0  0  0  0  0  0
   11.2285    0.3777   25.4394 N   0  3  0  0  0  0  0  0  0  0  0  0
   12.1636    0.1299   24.9739 C   0  0  0  0  0  0  0  0  0  0  0  0
   12.2980   -0.8919   23.9801 N   0  0  0  0  0  0  0  0  0  0  0  0
   11.3141   -1.2579   23.7911 C   0  0  0  0  0  0  0  0  0  0  0  0
    9.5580   -0.3317   22.9747 N   0  0  0  0  0  0  0  0  0  0  0  0
    8.9140    0.0485   21.8017 C   0  0  0  0  0  0  0  0  0  0  0  0
    9.2568    1.0794   21.3233 O   0  0  0  0  0  0  0  0  0  0  0  0
    7.9264   -0.7475   21.2944 N   0  0  0  0  0  0  0  0  0  0  0  0
    7.3440   -0.3483   20.1521 C   0  0  0  0  0  0  0  0  0  0  0  0
    7.9337   -0.2232   18.9236 N   0  0  0  0  0  0  0  0  0  0  0  0
    7.1202    0.1315   17.9540 N   0  0  0  0  0  0  0  0  0  0  0  0
    5.9510    0.3169   18.5115 C   0  0  0  0  0  0  0  0  0  0  0  0
    5.0331    0.6148   18.2553 H   0  0  0  0  0  0  0  0  0  0  0  0
    5.9861   -0.0725   20.0464 C   0  0  0  0  0  0  0  0  0  0  0  0
    4.7818   -0.1792   21.2323 Cl  0  0  0  0  0  0  0  0  0  0  0  0
    6.9664   -3.9342   24.3369 H   0  0  0  0  0  0  0  0  0  0  0  0
    9.7274   -0.8112   24.5763 H   0  0  0  0  0  0  0  0  0  0  0  0
   13.0458    0.6781   25.2696 H   0  0  0  0  0  0  0  0  0  0  0  0
   13.1457   -1.2010   23.5490 H   0  0  0  0  0  0  0  0  0  0  0  0
   11.5565   -1.6992   22.8130 H   0  0  0  0  0  0  0  0  0  0  0  0
   11.3467   -2.0397   24.5642 H   0  0  0  0  0  0  0  0  0  0  0  0
    9.8270    0.4919   23.4740 H   0  0  0  0  0  0  0  0  0  0  0  0
    7.6491   -1.5912   21.7539 H   0  0  0  0  0  0  0  0  0  0  0  0
    8.9086   -0.3888   18.7749 H   0  0  0  0  0  0  0  0  0  0  0  0
   10.3966   -0.1148   25.1836 H   0  0  0  0  0  0  0  0  0  0  0  0
 20 21  2  0  0  0  0
 19 20  1  0  0  0  0
 21 22  1  0  0  0  0
 21 23  1  0  0  0  0
 18 19  1  0  0  0  0
 18 23  2  0  0  0  0
 17 18  1  0  0  0  0
 23 24  1  0  0  0  0
 15 16  2  0  0  0  0
 15 17  1  0  0  0  0
 14 15  1  0  0  0  0
  8 14  1  0  0  0  0
 12 13  1  0  0  0  0
 11 12  1  0  0  0  0
  8 13  1  0  0  0  0
  7  8  1  0  0  0  0
  6  7  3  0  0  0  0
 10 11  2  0  0  0  0
  5  6  1  0  0  0  0
  9 10  1  0  0  0  0
  2  5  1  0  0  0  0
  2  3  2  0  0  0  0
  1  2  2  0  0  0  0
  2  4  1  0  0  0  0
  5 25  1  0  0  0  0
  8 26  1  0  0  0  0
 11 27  1  0  0  0  0
 12 28  1  0  0  0  0
 13 29  1  0  0  0  0
 13 30  1  0  0  0  0
 14 31  1  0  0  0  0
 17 32  1  0  0  0  0
 19 33  1  0  0  0  0
 10 34  1  0  0  0  0
M  CHG  2   4  -1  10   1
M  END
> <Chemgauss4>
-8.179624

$$$$
