MODEL 1
REMARK VINA RESULT:    -8.245      0.000      0.000
REMARK INTER + INTRA:         -10.856
REMARK INTER:                 -10.173
REMARK INTRA:                  -0.684
REMARK UNBOUND:                -0.684
REMARK  4 active torsions:
REMARK  status: ('A' for Active; 'I' for Inactive)
REMARK    1  A    between atoms: S_2  and  N_5 
REMARK    2  A    between atoms: C_7  and  C_8 
REMARK    3  A    between atoms: C_15  and  C_16 
REMARK       I    between atoms: C_16  and  N_18 
REMARK    4  A    between atoms: N_18  and  C_20 
ROOT
HETATM    1  C   UNL     1       6.871  -1.910  21.775  1.00  0.00    -0.008 A 
HETATM    2  C   UNL     1       6.926  -2.994  22.497  1.00  0.00     0.058 A 
HETATM    3  C   UNL     1       5.756  -3.459  23.638  1.00  0.00    -0.003 C 
HETATM    4  C   UNL     1       5.465  -4.463  23.874  1.00  0.00    -0.002 C 
HETATM    5  C   UNL     1       5.881  -5.666  23.292  1.00  0.00    -0.001 C 
HETATM    6  C   UNL     1       6.695  -5.441  22.252  1.00  0.00    -0.002 C 
HETATM    7  C   UNL     1       7.112  -4.513  21.830  1.00  0.00    -0.003 C 
HETATM    8  C   UNL     1       7.961  -2.656  22.990  1.00  0.00     0.040 A 
ENDROOT
BRANCH   8   9
HETATM    9  C   UNL     1       9.128  -2.406  23.640  1.00  0.00     0.254 C 
HETATM   10  O   UNL     1       9.286  -2.868  24.670  1.00  0.00    -0.268 OA
HETATM   11  N   UNL     1       9.876  -1.606  22.897  1.00  0.00    -0.320 N 
ATOM     12  HN  UNL     1       9.516  -1.230  22.019  1.00  0.00     0.169 HD
BRANCH  11  13
HETATM   13  C   UNL     1      11.032  -1.316  23.285  1.00  0.00     0.072 A 
HETATM   14  C   UNL     1      12.271  -1.705  23.087  1.00  0.00     0.119 A 
HETATM   15  N   UNL     1      13.465  -1.647  23.227  1.00  0.00    -0.373 N 
HETATM   16  C   UNL     1      13.424  -0.649  24.102  1.00  0.00     0.089 A 
ATOM     17  HN  UNL     1      14.235  -2.177  22.818  1.00  0.00     0.164 HD
HETATM   18  C   UNL     1      12.497  -0.022  24.512  1.00  0.00     0.043 A 
HETATM   19  C   UNL     1      11.197  -0.111  24.271  1.00  0.00     0.063 A 
HETATM   20 CL   UNL     1      10.025   0.753  24.845  1.00  0.00    -0.082 Cl
ENDBRANCH  11  13
ENDBRANCH   8   9
BRANCH   1  21
HETATM   21  C   UNL     1       6.369  -1.183  20.948  1.00  0.00     0.109 C 
HETATM   22  N   UNL     1       5.670  -0.844  20.065  1.00  0.00    -0.295 N 
ATOM     23  HN  UNL     1       4.705  -1.174  20.087  1.00  0.00     0.177 HD
BRANCH  22  24
HETATM   24  S   UNL     1       6.081   0.078  18.846  1.00  0.00     0.226 S 
HETATM   25  C   UNL     1       5.183   1.616  19.162  1.00  0.00     0.186 C 
HETATM   26  O   UNL     1       7.490   0.385  18.820  1.00  0.00    -0.206 OA
HETATM   27  O   UNL     1       5.611  -0.410  17.593  1.00  0.00    -0.206 OA
ENDBRANCH  22  24
ENDBRANCH   1  21
TORSDOF 4
ENDMDL
MODEL 2
REMARK VINA RESULT:    -7.967      3.272      6.811
REMARK INTER + INTRA:         -10.514
REMARK INTER:                  -9.850
REMARK INTRA:                  -0.664
REMARK UNBOUND:                -0.684
REMARK  4 active torsions:
REMARK  status: ('A' for Active; 'I' for Inactive)
REMARK    1  A    between atoms: S_2  and  N_5 
REMARK    2  A    between atoms: C_7  and  C_8 
REMARK    3  A    between atoms: C_15  and  C_16 
REMARK       I    between atoms: C_16  and  N_18 
REMARK    4  A    between atoms: N_18  and  C_20 
ROOT
HETATM    1  C   UNL     1       8.912  -2.441  23.515  1.00  0.00    -0.008 A 
HETATM    2  C   UNL     1       9.729  -1.427  23.448  1.00  0.00     0.058 A 
HETATM    3  C   UNL     1       9.940  -0.269  24.673  1.00  0.00    -0.003 C 
HETATM    4  C   UNL     1      10.853   0.238  24.915  1.00  0.00    -0.002 C 
HETATM    5  C   UNL     1      12.133   0.064  24.376  1.00  0.00    -0.001 C 
HETATM    6  C   UNL     1      12.152  -0.946  23.497  1.00  0.00    -0.002 C 
HETATM    7  C   UNL     1      11.355  -1.600  23.109  1.00  0.00    -0.003 C 
HETATM    8  C   UNL     1       9.174  -0.998  22.480  1.00  0.00     0.040 A 
ENDROOT
BRANCH   8   9
HETATM    9  C   UNL     1       8.644  -0.386  21.388  1.00  0.00     0.254 C 
HETATM   10  O   UNL     1       9.334   0.235  20.726  1.00  0.00    -0.268 OA
HETATM   11  N   UNL     1       7.347  -0.641  21.334  1.00  0.00    -0.320 N 
ATOM     12  HN  UNL     1       6.892  -1.166  22.081  1.00  0.00     0.169 HD
BRANCH  11  13
HETATM   13  C   UNL     1       6.684  -0.229  20.353  1.00  0.00     0.072 A 
HETATM   14  C   UNL     1       6.240  -0.674  19.199  1.00  0.00     0.119 A 
HETATM   15  N   UNL     1       5.628  -0.596  18.166  1.00  0.00    -0.373 N 
HETATM   16  C   UNL     1       5.269   0.670  18.347  1.00  0.00     0.089 A 
ATOM     17  HN  UNL     1       5.448  -1.266  17.417  1.00  0.00     0.164 HD
HETATM   18  C   UNL     1       5.460   1.399  19.269  1.00  0.00     0.043 A 
HETATM   19  C   UNL     1       6.109   1.226  20.411  1.00  0.00     0.063 A 
HETATM   20 CL   UNL     1       6.320   2.233  21.590  1.00  0.00    -0.082 Cl
ENDBRANCH  11  13
ENDBRANCH   8   9
BRANCH   1  21
HETATM   21  C   UNL     1       8.505  -3.474  23.995  1.00  0.00     0.109 C 
HETATM   22  N   UNL     1       7.878  -4.464  24.098  1.00  0.00    -0.295 N 
ATOM     23  HN  UNL     1       7.765  -5.028  23.256  1.00  0.00     0.177 HD
BRANCH  22  24
HETATM   24  S   UNL     1       7.193  -5.006  25.419  1.00  0.00     0.226 S 
HETATM   25  C   UNL     1       6.836  -3.498  26.352  1.00  0.00     0.186 C 
HETATM   26  O   UNL     1       5.944  -5.680  25.171  1.00  0.00    -0.206 OA
HETATM   27  O   UNL     1       8.074  -5.779  26.228  1.00  0.00    -0.206 OA
ENDBRANCH  22  24
ENDBRANCH   1  21
TORSDOF 4
ENDMDL
MODEL 3
REMARK VINA RESULT:    -7.954      2.667      5.446
REMARK INTER + INTRA:         -10.497
REMARK INTER:                  -9.635
REMARK INTRA:                  -0.863
REMARK UNBOUND:                -0.684
REMARK  4 active torsions:
REMARK  status: ('A' for Active; 'I' for Inactive)
REMARK    1  A    between atoms: S_2  and  N_5 
REMARK    2  A    between atoms: C_7  and  C_8 
REMARK    3  A    between atoms: C_15  and  C_16 
REMARK       I    between atoms: C_16  and  N_18 
REMARK    4  A    between atoms: N_18  and  C_20 
ROOT
HETATM    1  C   UNL     1       8.957  -0.455  22.809  1.00  0.00    -0.008 A 
HETATM    2  C   UNL     1      10.020  -0.727  23.513  1.00  0.00     0.058 A 
HETATM    3  C   UNL     1      11.386  -1.551  22.926  1.00  0.00    -0.003 C 
HETATM    4  C   UNL     1      12.402  -1.383  23.221  1.00  0.00    -0.002 C 
HETATM    5  C   UNL     1      12.924  -0.421  24.095  1.00  0.00    -0.001 C 
HETATM    6  C   UNL     1      11.967   0.416  24.516  1.00  0.00    -0.002 C 
HETATM    7  C   UNL     1      10.880   0.442  24.338  1.00  0.00    -0.003 C 
HETATM    8  C   UNL     1       9.382  -1.366  24.296  1.00  0.00     0.040 A 
ENDROOT
BRANCH   8   9
HETATM    9  C   UNL     1       8.797  -2.126  25.259  1.00  0.00     0.254 C 
HETATM   10  O   UNL     1       8.614  -1.659  26.283  1.00  0.00    -0.268 OA
HETATM   11  N   UNL     1       8.566  -3.337  24.777  1.00  0.00    -0.320 N 
ATOM     12  HN  UNL     1       8.880  -3.587  23.839  1.00  0.00     0.169 HD
BRANCH  11  13
HETATM   13  C   UNL     1       7.957  -4.171  25.486  1.00  0.00     0.072 A 
HETATM   14  C   UNL     1       8.212  -5.028  26.449  1.00  0.00     0.119 A 
HETATM   15  N   UNL     1       7.921  -5.848  27.281  1.00  0.00    -0.373 N 
HETATM   16  C   UNL     1       6.632  -5.875  26.962  1.00  0.00     0.089 A 
ATOM     17  HN  UNL     1       8.471  -6.344  27.983  1.00  0.00     0.164 HD
HETATM   18  C   UNL     1       6.023  -5.232  26.165  1.00  0.00     0.043 A 
HETATM   19  C   UNL     1       6.406  -4.298  25.306  1.00  0.00     0.063 A 
HETATM   20 CL   UNL     1       5.546  -3.485  24.282  1.00  0.00    -0.082 Cl
ENDBRANCH  11  13
ENDBRANCH   8   9
BRANCH   1  21
HETATM   21  C   UNL     1       8.371   0.072  21.891  1.00  0.00     0.109 C 
HETATM   22  N   UNL     1       7.596   0.760  21.334  1.00  0.00    -0.295 N 
ATOM     23  HN  UNL     1       7.447   1.692  21.719  1.00  0.00     0.177 HD
BRANCH  22  24
HETATM   24  S   UNL     1       6.762   0.377  20.044  1.00  0.00     0.226 S 
HETATM   25  C   UNL     1       5.442   1.613  20.018  1.00  0.00     0.186 C 
HETATM   26  O   UNL     1       7.518   0.511  18.824  1.00  0.00    -0.206 OA
HETATM   27  O   UNL     1       6.123  -0.891  20.148  1.00  0.00    -0.206 OA
ENDBRANCH  22  24
ENDBRANCH   1  21
TORSDOF 4
ENDMDL
MODEL 4
REMARK VINA RESULT:    -7.399      4.019      6.105
REMARK INTER + INTRA:          -9.813
REMARK INTER:                  -9.053
REMARK INTRA:                  -0.760
REMARK UNBOUND:                -0.684
REMARK  4 active torsions:
REMARK  status: ('A' for Active; 'I' for Inactive)
REMARK    1  A    between atoms: S_2  and  N_5 
REMARK    2  A    between atoms: C_7  and  C_8 
REMARK    3  A    between atoms: C_15  and  C_16 
REMARK       I    between atoms: C_16  and  N_18 
REMARK    4  A    between atoms: N_18  and  C_20 
ROOT
HETATM    1  C   UNL     1       7.655  -4.663  25.645  1.00  0.00    -0.008 A 
HETATM    2  C   UNL     1       7.347  -4.511  24.387  1.00  0.00     0.058 A 
HETATM    3  C   UNL     1       7.540  -5.703  23.191  1.00  0.00    -0.003 C 
HETATM    4  C   UNL     1       6.908  -5.854  22.340  1.00  0.00    -0.002 C 
HETATM    5  C   UNL     1       5.723  -5.196  21.988  1.00  0.00    -0.001 C 
HETATM    6  C   UNL     1       5.355  -4.326  22.938  1.00  0.00    -0.002 C 
HETATM    7  C   UNL     1       5.834  -4.020  23.881  1.00  0.00    -0.003 C 
HETATM    8  C   UNL     1       8.110  -3.598  24.274  1.00  0.00     0.040 A 
ENDROOT
BRANCH   8   9
HETATM    9  C   UNL     1       8.937  -2.557  23.988  1.00  0.00     0.254 C 
HETATM   10  O   UNL     1       9.675  -2.670  23.127  1.00  0.00    -0.268 OA
HETATM   11  N   UNL     1       8.707  -1.574  24.844  1.00  0.00    -0.320 N 
ATOM     12  HN  UNL     1       8.044  -1.699  25.609  1.00  0.00     0.169 HD
BRANCH  11  13
HETATM   13  C   UNL     1       9.316  -0.487  24.702  1.00  0.00     0.072 A 
HETATM   14  C   UNL     1      10.498   0.028  24.956  1.00  0.00     0.119 A 
HETATM   15  N   UNL     1      11.336   0.891  24.931  1.00  0.00    -0.373 N 
HETATM   16  C   UNL     1      10.548   1.792  24.354  1.00  0.00     0.089 A 
ATOM     17  HN  UNL     1      12.307   0.920  25.242  1.00  0.00     0.164 HD
HETATM   18  C   UNL     1       9.429   1.694  23.958  1.00  0.00     0.043 A 
HETATM   19  C   UNL     1       8.573   0.683  23.974  1.00  0.00     0.063 A 
HETATM   20 CL   UNL     1       7.107   0.621  23.429  1.00  0.00    -0.082 Cl
ENDBRANCH  11  13
ENDBRANCH   8   9
BRANCH   1  21
HETATM   21  C   UNL     1       7.549  -5.186  26.731  1.00  0.00     0.109 C 
HETATM   22  N   UNL     1       7.591  -6.026  27.553  1.00  0.00    -0.295 N 
ATOM     23  HN  UNL     1       8.403  -6.642  27.542  1.00  0.00     0.177 HD
BRANCH  22  24
HETATM   24  S   UNL     1       6.505  -6.294  28.674  1.00  0.00     0.226 S 
HETATM   25  C   UNL     1       4.954  -6.362  27.746  1.00  0.00     0.186 C 
HETATM   26  O   UNL     1       6.680  -7.561  29.338  1.00  0.00    -0.206 OA
HETATM   27  O   UNL     1       6.375  -5.214  29.594  1.00  0.00    -0.206 OA
ENDBRANCH  22  24
ENDBRANCH   1  21
TORSDOF 4
ENDMDL
MODEL 5
REMARK VINA RESULT:    -7.385      2.762      5.490
REMARK INTER + INTRA:          -9.796
REMARK INTER:                  -8.954
REMARK INTRA:                  -0.841
REMARK UNBOUND:                -0.684
REMARK  4 active torsions:
REMARK  status: ('A' for Active; 'I' for Inactive)
REMARK    1  A    between atoms: S_2  and  N_5 
REMARK    2  A    between atoms: C_7  and  C_8 
REMARK    3  A    between atoms: C_15  and  C_16 
REMARK       I    between atoms: C_16  and  N_18 
REMARK    4  A    between atoms: N_18  and  C_20 
ROOT
HETATM    1  C   UNL     1       7.143  -1.597  21.870  1.00  0.00    -0.008 A 
HETATM    2  C   UNL     1       8.111  -1.792  22.721  1.00  0.00     0.058 A 
HETATM    3  C   UNL     1       9.755  -1.906  22.309  1.00  0.00    -0.003 C 
HETATM    4  C   UNL     1      10.582  -1.574  22.904  1.00  0.00    -0.002 C 
HETATM    5  C   UNL     1      10.576  -0.899  24.131  1.00  0.00    -0.001 C 
HETATM    6  C   UNL     1       9.327  -0.593  24.506  1.00  0.00    -0.002 C 
HETATM    7  C   UNL     1       8.347  -0.818  24.056  1.00  0.00    -0.003 C 
HETATM    8  C   UNL     1       7.638  -2.831  23.076  1.00  0.00     0.040 A 
ENDROOT
BRANCH   8   9
HETATM    9  C   UNL     1       7.230  -4.028  23.574  1.00  0.00     0.254 C 
HETATM   10  O   UNL     1       7.717  -4.977  23.175  1.00  0.00    -0.268 OA
HETATM   11  N   UNL     1       6.273  -3.823  24.466  1.00  0.00    -0.320 N 
ATOM     12  HN  UNL     1       5.915  -2.882  24.632  1.00  0.00     0.169 HD
BRANCH  11  13
HETATM   13  C   UNL     1       5.813  -4.799  25.103  1.00  0.00     0.072 A 
HETATM   14  C   UNL     1       4.842  -5.679  25.005  1.00  0.00     0.119 A 
HETATM   15  N   UNL     1       4.209  -6.644  25.347  1.00  0.00    -0.373 N 
HETATM   16  C   UNL     1       4.914  -6.848  26.455  1.00  0.00     0.089 A 
ATOM     17  HN  UNL     1       3.414  -7.131  24.933  1.00  0.00     0.164 HD
HETATM   18  C   UNL     1       5.874  -6.280  26.872  1.00  0.00     0.043 A 
HETATM   19  C   UNL     1       6.556  -5.242  26.408  1.00  0.00     0.063 A 
HETATM   20 CL   UNL     1       7.820  -4.543  27.009  1.00  0.00    -0.082 Cl
ENDBRANCH  11  13
ENDBRANCH   8   9
BRANCH   1  21
HETATM   21  C   UNL     1       6.553  -0.961  21.026  1.00  0.00     0.109 C 
HETATM   22  N   UNL     1       5.799  -0.730  20.153  1.00  0.00    -0.295 N 
ATOM     23  HN  UNL     1       4.870  -1.144  20.224  1.00  0.00     0.177 HD
BRANCH  22  24
HETATM   24  S   UNL     1       6.090   0.161  18.877  1.00  0.00     0.226 S 
HETATM   25  C   UNL     1       5.082   1.636  19.160  1.00  0.00     0.186 C 
HETATM   26  O   UNL     1       7.466   0.576  18.780  1.00  0.00    -0.206 OA
HETATM   27  O   UNL     1       5.615  -0.424  17.668  1.00  0.00    -0.206 OA
ENDBRANCH  22  24
ENDBRANCH   1  21
TORSDOF 4
ENDMDL
MODEL 6
REMARK VINA RESULT:    -7.267      3.407      6.445
REMARK INTER + INTRA:          -9.650
REMARK INTER:                  -8.801
REMARK INTRA:                  -0.849
REMARK UNBOUND:                -0.684
REMARK  4 active torsions:
REMARK  status: ('A' for Active; 'I' for Inactive)
REMARK    1  A    between atoms: S_2  and  N_5 
REMARK    2  A    between atoms: C_7  and  C_8 
REMARK    3  A    between atoms: C_15  and  C_16 
REMARK       I    between atoms: C_16  and  N_18 
REMARK    4  A    between atoms: N_18  and  C_20 
ROOT
HETATM    1  C   UNL     1       8.228   0.904  21.620  1.00  0.00    -0.008 A 
HETATM    2  C   UNL     1       7.325   0.426  20.809  1.00  0.00     0.058 A 
HETATM    3  C   UNL     1       5.762   1.062  20.616  1.00  0.00    -0.003 C 
HETATM    4  C   UNL     1       5.191   1.077  19.709  1.00  0.00    -0.002 C 
HETATM    5  C   UNL     1       5.560   0.664  18.423  1.00  0.00    -0.001 C 
HETATM    6  C   UNL     1       6.844   0.282  18.391  1.00  0.00    -0.002 C 
HETATM    7  C   UNL     1       7.607   0.197  19.180  1.00  0.00    -0.003 C 
HETATM    8  C   UNL     1       7.341  -0.634  21.360  1.00  0.00     0.040 A 
ENDROOT
BRANCH   8   9
HETATM    9  C   UNL     1       7.240  -1.884  21.885  1.00  0.00     0.254 C 
HETATM   10  O   UNL     1       8.188  -2.394  22.260  1.00  0.00    -0.268 OA
HETATM   11  N   UNL     1       5.978  -2.279  21.827  1.00  0.00    -0.320 N 
ATOM     12  HN  UNL     1       5.274  -1.695  21.375  1.00  0.00     0.169 HD
BRANCH  11  13
HETATM   13  C   UNL     1       5.658  -3.380  22.334  1.00  0.00     0.072 A 
HETATM   14  C   UNL     1       5.588  -4.646  21.992  1.00  0.00     0.119 A 
HETATM   15  N   UNL     1       5.396  -5.818  22.190  1.00  0.00    -0.373 N 
HETATM   16  C   UNL     1       5.010  -5.653  23.451  1.00  0.00     0.089 A 
ATOM     17  HN  UNL     1       5.495  -6.644  21.600  1.00  0.00     0.164 HD
HETATM   18  C   UNL     1       4.962  -4.667  24.118  1.00  0.00     0.043 A 
HETATM   19  C   UNL     1       5.240  -3.401  23.843  1.00  0.00     0.063 A 
HETATM   20 CL   UNL     1       5.157  -2.147  24.775  1.00  0.00    -0.082 Cl
ENDBRANCH  11  13
ENDBRANCH   8   9
BRANCH   1  21
HETATM   21  C   UNL     1       8.974   1.767  22.023  1.00  0.00     0.109 C 
HETATM   22  N   UNL     1       9.946   2.422  22.115  1.00  0.00    -0.295 N 
ATOM     23  HN  UNL     1      10.401   2.697  21.245  1.00  0.00     0.177 HD
BRANCH  22  24
HETATM   24  S   UNL     1      10.618   2.918  23.460  1.00  0.00     0.226 S 
HETATM   25  C   UNL     1      11.526   1.464  24.036  1.00  0.00     0.186 C 
HETATM   26  O   UNL     1      11.568   3.983  23.258  1.00  0.00    -0.206 OA
HETATM   27  O   UNL     1       9.669   3.227  24.477  1.00  0.00    -0.206 OA
ENDBRANCH  22  24
ENDBRANCH   1  21
TORSDOF 4
ENDMDL
MODEL 7
REMARK VINA RESULT:    -7.238      2.851      6.027
REMARK INTER + INTRA:          -9.615
REMARK INTER:                  -9.085
REMARK INTRA:                  -0.529
REMARK UNBOUND:                -0.684
REMARK  4 active torsions:
REMARK  status: ('A' for Active; 'I' for Inactive)
REMARK    1  A    between atoms: S_2  and  N_5 
REMARK    2  A    between atoms: C_7  and  C_8 
REMARK    3  A    between atoms: C_15  and  C_16 
REMARK       I    between atoms: C_16  and  N_18 
REMARK    4  A    between atoms: N_18  and  C_20 
ROOT
HETATM    1  C   UNL     1       8.655  -2.072  23.593  1.00  0.00    -0.008 A 
HETATM    2  C   UNL     1       7.628  -2.869  23.700  1.00  0.00     0.058 A 
HETATM    3  C   UNL     1       7.717  -4.566  23.728  1.00  0.00    -0.003 C 
HETATM    4  C   UNL     1       7.074  -5.224  24.278  1.00  0.00    -0.002 C 
HETATM    5  C   UNL     1       6.043  -4.914  25.173  1.00  0.00    -0.001 C 
HETATM    6  C   UNL     1       5.964  -3.592  25.376  1.00  0.00    -0.002 C 
HETATM    7  C   UNL     1       6.516  -2.746  24.939  1.00  0.00    -0.003 C 
HETATM    8  C   UNL     1       7.143  -2.437  22.697  1.00  0.00     0.040 A 
ENDROOT
BRANCH   8   9
HETATM    9  C   UNL     1       6.474  -2.055  21.577  1.00  0.00     0.254 C 
HETATM   10  O   UNL     1       5.620  -2.710  21.204  1.00  0.00    -0.268 OA
HETATM   11  N   UNL     1       7.008  -0.935  21.114  1.00  0.00    -0.320 N 
ATOM     12  HN  UNL     1       7.835  -0.536  21.556  1.00  0.00     0.169 HD
BRANCH  11  13
HETATM   13  C   UNL     1       6.482  -0.371  20.125  1.00  0.00     0.072 A 
HETATM   14  C   UNL     1       6.185  -0.640  18.873  1.00  0.00     0.119 A 
HETATM   15  N   UNL     1       5.712  -0.401  17.793  1.00  0.00    -0.373 N 
HETATM   16  C   UNL     1       5.351   0.839  18.103  1.00  0.00     0.089 A 
ATOM     17  HN  UNL     1       5.621  -0.956  16.941  1.00  0.00     0.164 HD
HETATM   18  C   UNL     1       5.431   1.428  19.135  1.00  0.00     0.043 A 
HETATM   19  C   UNL     1       5.925   1.080  20.314  1.00  0.00     0.063 A 
HETATM   20 CL   UNL     1       5.997   1.909  21.639  1.00  0.00    -0.082 Cl
ENDBRANCH  11  13
ENDBRANCH   8   9
BRANCH   1  21
HETATM   21  C   UNL     1       9.705  -1.602  23.967  1.00  0.00     0.109 C 
HETATM   22  N   UNL     1      10.447  -0.900  24.551  1.00  0.00    -0.295 N 
ATOM     23  HN  UNL     1      10.225  -0.704  25.526  1.00  0.00     0.177 HD
BRANCH  22  24
HETATM   24  S   UNL     1      11.757  -0.230  23.966  1.00  0.00     0.226 S 
HETATM   25  C   UNL     1      12.432  -1.510  22.881  1.00  0.00     0.186 C 
HETATM   26  O   UNL     1      11.485   0.935  23.162  1.00  0.00    -0.206 OA
HETATM   27  O   UNL     1      12.748   0.018  24.959  1.00  0.00    -0.206 OA
ENDBRANCH  22  24
ENDBRANCH   1  21
TORSDOF 4
ENDMDL
MODEL 8
REMARK VINA RESULT:    -7.164     14.493     16.582
REMARK INTER + INTRA:          -9.523
REMARK INTER:                  -8.655
REMARK INTRA:                  -0.868
REMARK UNBOUND:                -0.684
REMARK  4 active torsions:
REMARK  status: ('A' for Active; 'I' for Inactive)
REMARK    1  A    between atoms: S_2  and  N_5 
REMARK    2  A    between atoms: C_7  and  C_8 
REMARK    3  A    between atoms: C_15  and  C_16 
REMARK       I    between atoms: C_16  and  N_18 
REMARK    4  A    between atoms: N_18  and  C_20 
ROOT
HETATM    1  C   UNL     1      23.688  -3.078  23.741  1.00  0.00    -0.008 A 
HETATM    2  C   UNL     1      23.130  -1.899  23.725  1.00  0.00     0.058 A 
HETATM    3  C   UNL     1      21.470  -1.610  23.939  1.00  0.00    -0.003 C 
HETATM    4  C   UNL     1      21.032  -0.756  24.416  1.00  0.00    -0.002 C 
HETATM    5  C   UNL     1      21.659   0.319  25.059  1.00  0.00    -0.001 C 
HETATM    6  C   UNL     1      22.985   0.141  25.110  1.00  0.00    -0.002 C 
HETATM    7  C   UNL     1      23.639  -0.648  24.706  1.00  0.00    -0.003 C 
HETATM    8  C   UNL     1      23.507  -1.697  22.609  1.00  0.00     0.040 A 
ENDROOT
BRANCH   8   9
HETATM    9  C   UNL     1      23.855  -1.326  21.348  1.00  0.00     0.254 C 
HETATM   10  O   UNL     1      24.774  -0.668  21.209  1.00  0.00    -0.268 OA
HETATM   11  N   UNL     1      22.979  -1.827  20.491  1.00  0.00    -0.320 N 
ATOM     12  HN  UNL     1      22.162  -2.338  20.828  1.00  0.00     0.169 HD
BRANCH  11  13
HETATM   13  C   UNL     1      23.165  -1.665  19.262  1.00  0.00     0.072 A 
HETATM   14  C   UNL     1      22.877  -0.793  18.323  1.00  0.00     0.119 A 
HETATM   15  N   UNL     1      22.916  -0.344  17.207  1.00  0.00    -0.373 N 
HETATM   16  C   UNL     1      23.609  -1.360  16.704  1.00  0.00     0.089 A 
ATOM     17  HN  UNL     1      22.547   0.513  16.794  1.00  0.00     0.164 HD
HETATM   18  C   UNL     1      24.066  -2.319  17.242  1.00  0.00     0.043 A 
HETATM   19  C   UNL     1      24.026  -2.728  18.502  1.00  0.00     0.063 A 
HETATM   20 CL   UNL     1      24.657  -4.008  19.146  1.00  0.00    -0.082 Cl
ENDBRANCH  11  13
ENDBRANCH   8   9
BRANCH   1  21
HETATM   21  C   UNL     1      23.991  -4.126  24.263  1.00  0.00     0.109 C 
HETATM   22  N   UNL     1      23.881  -5.231  24.651  1.00  0.00    -0.295 N 
ATOM     23  HN  UNL     1      23.401  -5.890  24.038  1.00  0.00     0.177 HD
BRANCH  22  24
HETATM   24  S   UNL     1      24.405  -5.794  26.034  1.00  0.00     0.226 S 
HETATM   25  C   UNL     1      26.203  -5.780  25.837  1.00  0.00     0.186 C 
HETATM   26  O   UNL     1      24.075  -4.945  27.151  1.00  0.00    -0.206 OA
HETATM   27  O   UNL     1      24.037  -7.152  26.260  1.00  0.00    -0.206 OA
ENDBRANCH  22  24
ENDBRANCH   1  21
TORSDOF 4
ENDMDL
MODEL 9
REMARK VINA RESULT:    -7.143      4.068      6.372
REMARK INTER + INTRA:          -9.498
REMARK INTER:                  -8.777
REMARK INTRA:                  -0.721
REMARK UNBOUND:                -0.684
REMARK  4 active torsions:
REMARK  status: ('A' for Active; 'I' for Inactive)
REMARK    1  A    between atoms: S_2  and  N_5 
REMARK    2  A    between atoms: C_7  and  C_8 
REMARK    3  A    between atoms: C_15  and  C_16 
REMARK       I    between atoms: C_16  and  N_18 
REMARK    4  A    between atoms: N_18  and  C_20 
ROOT
HETATM    1  C   UNL     1       6.591  -4.807  26.037  1.00  0.00    -0.008 A 
HETATM    2  C   UNL     1       5.892  -4.667  24.946  1.00  0.00     0.058 A 
HETATM    3  C   UNL     1       5.655  -5.883  23.783  1.00  0.00    -0.003 C 
HETATM    4  C   UNL     1       4.775  -6.030  23.190  1.00  0.00    -0.002 C 
HETATM    5  C   UNL     1       3.555  -5.343  23.228  1.00  0.00    -0.001 C 
HETATM    6  C   UNL     1       3.539  -4.447  24.224  1.00  0.00    -0.002 C 
HETATM    7  C   UNL     1       4.307  -4.140  24.951  1.00  0.00    -0.003 C 
HETATM    8  C   UNL     1       6.596  -3.779  24.566  1.00  0.00     0.040 A 
ENDROOT
BRANCH   8   9
HETATM    9  C   UNL     1       7.306  -2.768  24.000  1.00  0.00     0.254 C 
HETATM   10  O   UNL     1       6.737  -1.932  23.474  1.00  0.00    -0.268 OA
HETATM   11  N   UNL     1       8.599  -2.995  24.174  1.00  0.00    -0.320 N 
ATOM     12  HN  UNL     1       8.916  -3.859  24.614  1.00  0.00     0.169 HD
BRANCH  11  13
HETATM   13  C   UNL     1       9.427  -2.136  23.791  1.00  0.00     0.072 A 
HETATM   14  C   UNL     1      10.151  -1.860  22.730  1.00  0.00     0.119 A 
HETATM   15  N   UNL     1      10.915  -1.199  22.076  1.00  0.00    -0.373 N 
HETATM   16  C   UNL     1      11.125  -0.299  23.031  1.00  0.00     0.089 A 
ATOM     17  HN  UNL     1      11.273  -1.295  21.126  1.00  0.00     0.164 HD
HETATM   18  C   UNL     1      10.639  -0.199  24.114  1.00  0.00     0.043 A 
HETATM   19  C   UNL     1       9.754  -0.947  24.756  1.00  0.00     0.063 A 
HETATM   20 CL   UNL     1       9.151  -0.754  26.188  1.00  0.00    -0.082 Cl
ENDBRANCH  11  13
ENDBRANCH   8   9
BRANCH   1  21
HETATM   21  C   UNL     1       6.835  -5.308  27.110  1.00  0.00     0.109 C 
HETATM   22  N   UNL     1       7.293  -6.059  27.893  1.00  0.00    -0.295 N 
ATOM     23  HN  UNL     1       8.263  -6.339  27.750  1.00  0.00     0.177 HD
BRANCH  22  24
HETATM   24  S   UNL     1       6.547  -6.676  29.145  1.00  0.00     0.226 S 
HETATM   25  C   UNL     1       4.842  -6.855  28.570  1.00  0.00     0.186 C 
HETATM   26  O   UNL     1       7.033  -7.984  29.504  1.00  0.00    -0.206 OA
HETATM   27  O   UNL     1       6.502  -5.790  30.260  1.00  0.00    -0.206 OA
ENDBRANCH  22  24
ENDBRANCH   1  21
TORSDOF 4
ENDMDL
