stable:False satoms:7 tatoms:24 sratio:0.2916666666666667
  -OEChem-07092417473D

 24 26  0     1  0  0  0  0  0999 V2000
    6.5742   -4.8386   26.3963 C   0  0  0  0  0  0  0  0  0  0  0  0
    8.1893   -4.2690   26.1051 S   0  0  0  0  0  0  0  0  0  0  0  0
    9.0390   -5.4329   26.0901 O   0  0  0  0  0  0  0  0  0  0  0  0
    8.5212   -3.3618   27.1318 O   0  0  0  0  0  0  0  0  0  0  0  0
    8.0883   -3.5643   24.6646 N   0  0  0  0  0  0  0  0  0  0  0  0
    8.9563   -2.9006   24.1582 C   0  0  0  0  0  0  0  0  0  0  0  0
    9.4363   -1.9913   23.5418 C   0  0  0  0  0  0  0  0  0  0  0  0
   10.3626   -1.1234   23.2420 C   0  0  1  0  0  0  0  0  0  0  0  0
   11.0160   -0.0731   24.2955 C   0  0  0  0  0  0  0  0  0  0  0  0
   12.0820    0.2655   24.2620 C   0  0  0  0  0  0  0  0  0  0  0  0
   13.1508   -0.1792   23.4701 C   0  0  0  0  0  0  0  0  0  0  0  0
   12.7975   -1.2223   22.6917 C   0  0  0  0  0  0  0  0  0  0  0  0
   11.8045   -1.7015   22.5890 C   0  0  0  0  0  0  0  0  0  0  0  0
    9.6674   -0.6557   22.3769 C   0  0  3  0  0  0  0  0  0  0  0  0
    9.0273    0.0323   21.3994 C   0  0  0  0  0  0  0  0  0  0  0  0
    9.5197    0.9636   20.9651 O   0  0  0  0  0  0  0  0  0  0  0  0
    7.8650   -0.5581   21.1361 N   0  0  0  0  0  0  0  0  0  0  0  0
    7.2009   -0.1197   20.1894 C   0  0  0  0  0  0  0  0  0  0  0  0
    7.2398    0.0031   18.9189 C   0  0  0  0  0  0  0  0  0  0  0  0
    6.7819    0.3515   17.7907 N   0  0  0  0  0  0  0  0  0  0  0  0
    5.7586    0.8777   18.2650 C   0  0  0  0  0  0  0  0  0  0  0  0
    5.2940    0.9867   19.4637 C   0  0  0  0  0  0  0  0  0  0  0  0
    5.7818    0.5857   20.5762 C   0  0  0  0  0  0  0  0  0  0  0  0
    5.4295    0.6351   21.5771 C   0  0  0  0  0  0  0  0  0  0  0  0
 20 21  2  0  0  0  0
 19 20  1  0  0  0  0
 21 22  1  0  0  0  0
 18 19  2  0  0  0  0
 22 23  2  0  0  0  0
 18 23  1  0  0  0  0
 17 18  1  0  0  0  0
 23 24  1  0  0  0  0
 15 16  2  0  0  0  0
 15 17  1  0  0  0  0
 14 15  1  0  0  0  0
  8 14  1  0  0  0  0
  7 14  1  0  0  0  0
 12 13  1  0  0  0  0
  8 13  1  0  0  0  0
 11 12  2  0  0  0  0
  7  8  1  0  0  0  0
  8  9  1  0  0  0  0
 10 11  1  0  0  0  0
  6  7  2  0  0  0  0
  5  6  1  0  0  0  0
  9 10  2  0  0  0  0
  2  5  1  0  0  0  0
  2  3  2  0  0  0  0
  1  2  1  0  0  0  0
  2  4  2  0  0  0  0
M  END
> <Shapegauss>
-288.770477

$$$$
