stable:False satoms:7 tatoms:24 sratio:0.2916666666666667
  -OEChem-08062413093D

 43 45  0     1  0  0  0  0  0999 V2000
   -6.1132   -5.4398  -25.8433 C   0  0  0  0  0  0  0  0  0  0  0  0
   -7.7469   -4.8611  -25.7251 S   0  0  0  0  0  0  0  0  0  0  0  0
   -8.5923   -6.0267  -25.6641 O   0  0  0  0  0  0  0  0  0  0  0  0
   -8.0048   -4.0561  -26.8533 O   0  0  0  0  0  0  0  0  0  0  0  0
   -7.7542   -4.0252  -24.3529 N   0  0  0  0  0  0  0  0  0  0  0  0
   -8.6590   -3.3258  -23.9752 C   0  0  0  0  0  0  0  0  0  0  0  0
   -9.1855   -2.3680  -23.4828 C   0  0  0  0  0  0  0  0  0  0  0  0
  -10.1338   -1.4849  -23.3335 C   0  0  1  0  0  0  0  0  0  0  0  0
  -10.7107   -0.5430  -24.5251 C   0  0  0  0  0  0  0  0  0  0  0  0
  -11.7772   -0.2129  -24.6012 C   0  0  0  0  0  0  0  0  0  0  0  0
  -12.9001   -0.5926  -23.8516 C   0  0  0  0  0  0  0  0  0  0  0  0
  -12.6023   -1.5557  -22.9558 C   0  0  0  0  0  0  0  0  0  0  0  0
  -11.6182   -2.0139  -22.7367 C   0  0  0  0  0  0  0  0  0  0  0  0
   -9.5054   -0.9325  -22.4672 C   0  0  3  0  0  0  0  0  0  0  0  0
   -8.9409   -0.1509  -21.5138 C   0  0  0  0  0  0  0  0  0  0  0  0
   -9.4665    0.8118  -21.2051 O   0  0  0  0  0  0  0  0  0  0  0  0
   -7.7996   -0.7033  -21.1125 N   0  0  0  0  0  0  0  0  0  0  0  0
   -7.2082   -0.1728  -20.1647 C   0  0  0  0  0  0  0  0  0  0  0  0
   -7.3409    0.0667  -18.9174 C   0  0  0  0  0  0  0  0  0  0  0  0
   -6.9682    0.5224  -17.7960 N   0  0  0  0  0  0  0  0  0  0  0  0
   -5.9142    1.0122  -18.2412 C   0  0  0  0  0  0  0  0  0  0  0  0
   -5.3629    1.0142  -19.4077 C   0  0  0  0  0  0  0  0  0  0  0  0
   -5.7664    0.5073  -20.5107 C   0  0  0  0  0  0  0  0  0  0  0  0
   -5.3415    0.4672  -21.4834 C   0  0  0  0  0  0  0  0  0  0  0  0
   -5.9995   -6.0334  -26.7623 H   0  0  0  0  0  0  0  0  0  0  0  0
   -5.4225   -4.5842  -25.8718 H   0  0  0  0  0  0  0  0  0  0  0  0
   -5.8829   -6.0681  -24.9703 H   0  0  0  0  0  0  0  0  0  0  0  0
   -6.9558   -3.4250  -24.4020 H   0  0  0  0  0  0  0  0  0  0  0  0
   -9.5165   -3.9256  -24.2422 H   0  0  0  0  0  0  0  0  0  0  0  0
  -10.0227   -0.2153  -25.2904 H   0  0  0  0  0  0  0  0  0  0  0  0
  -11.9730    0.5141  -25.3755 H   0  0  0  0  0  0  0  0  0  0  0  0
  -13.8842   -0.1654  -23.9766 H   0  0  0  0  0  0  0  0  0  0  0  0
  -13.4330   -1.9295  -22.3756 H   0  0  0  0  0  0  0  0  0  0  0  0
  -11.5196   -1.9792  -21.6417 H   0  0  0  0  0  0  0  0  0  0  0  0
  -11.7062   -3.0604  -23.0640 H   0  0  0  0  0  0  0  0  0  0  0  0
   -9.9727   -1.5645  -21.6976 H   0  0  0  0  0  0  0  0  0  0  0  0
   -7.4327   -1.5183  -21.5611 H   0  0  0  0  0  0  0  0  0  0  0  0
   -8.3108   -0.3530  -18.6949 H   0  0  0  0  0  0  0  0  0  0  0  0
   -5.3425    1.5463  -17.4967 H   0  0  0  0  0  0  0  0  0  0  0  0
   -4.4121    1.5235  -19.4612 H   0  0  0  0  0  0  0  0  0  0  0  0
   -4.7217   -0.4369  -21.5764 H   0  0  0  0  0  0  0  0  0  0  0  0
   -6.1454    0.4393  -22.2337 H   0  0  0  0  0  0  0  0  0  0  0  0
   -4.7173    1.3579  -21.6478 H   0  0  0  0  0  0  0  0  0  0  0  0
 20 21  2  0  0  0  0
 19 20  1  0  0  0  0
 21 22  1  0  0  0  0
 18 19  2  0  0  0  0
 22 23  2  0  0  0  0
 18 23  1  0  0  0  0
 17 18  1  0  0  0  0
 23 24  1  0  0  0  0
 15 16  2  0  0  0  0
 15 17  1  0  0  0  0
 14 15  1  0  0  0  0
  8 14  1  0  0  0  0
  7 14  1  0  0  0  0
 12 13  1  0  0  0  0
  8 13  1  0  0  0  0
 11 12  2  0  0  0  0
  7  8  1  0  0  0  0
  8  9  1  0  0  0  0
 10 11  1  0  0  0  0
  6  7  2  0  0  0  0
  5  6  1  0  0  0  0
  9 10  2  0  0  0  0
  2  5  1  0  0  0  0
  2  3  2  0  0  0  0
  1  2  1  0  0  0  0
  2  4  2  0  0  0  0
  1 25  1  0  0  0  0
  1 26  1  0  0  0  0
  1 27  1  0  0  0  0
  5 28  1  0  0  0  0
  6 29  1  0  0  0  0
  9 30  1  0  0  0  0
 10 31  1  0  0  0  0
 11 32  1  0  0  0  0
 12 33  1  0  0  0  0
 13 34  1  0  0  0  0
 13 35  1  0  0  0  0
 14 36  1  0  0  0  0
 17 37  1  0  0  0  0
 19 38  1  0  0  0  0
 21 39  1  0  0  0  0
 22 40  1  0  0  0  0
 24 41  1  0  0  0  0
 24 42  1  0  0  0  0
 24 43  1  0  0  0  0
M  END
> <Chemgauss4>
-13.116922

$$$$
