stable:False satoms:7 tatoms:24 sratio:0.2916666666666667
  -OEChem-08062413093D

 43 45  0     1  0  0  0  0  0999 V2000
    6.1557   -5.4139   25.8269 C   0  0  0  0  0  0  0  0  0  0  0  0
    7.7894   -4.8352   25.7088 S   0  0  0  0  0  0  0  0  0  0  0  0
    8.6347   -6.0008   25.6477 O   0  0  0  0  0  0  0  0  0  0  0  0
    8.0472   -4.0302   26.8369 O   0  0  0  0  0  0  0  0  0  0  0  0
    7.7966   -3.9993   24.3366 N   0  0  0  0  0  0  0  0  0  0  0  0
    8.7014   -3.2999   23.9589 C   0  0  0  0  0  0  0  0  0  0  0  0
    9.2279   -2.3421   23.4665 C   0  0  0  0  0  0  0  0  0  0  0  0
   10.1762   -1.4590   23.3172 C   0  0  1  0  0  0  0  0  0  0  0  0
   10.7531   -0.5170   24.5087 C   0  0  0  0  0  0  0  0  0  0  0  0
   11.8196   -0.1870   24.5848 C   0  0  0  0  0  0  0  0  0  0  0  0
   12.9426   -0.5667   23.8352 C   0  0  0  0  0  0  0  0  0  0  0  0
   12.6447   -1.5298   22.9394 C   0  0  0  0  0  0  0  0  0  0  0  0
   11.6606   -1.9880   22.7203 C   0  0  0  0  0  0  0  0  0  0  0  0
    9.5478   -0.9066   22.4508 C   0  0  3  0  0  0  0  0  0  0  0  0
    8.9833   -0.1250   21.4974 C   0  0  0  0  0  0  0  0  0  0  0  0
    9.5089    0.8377   21.1888 O   0  0  0  0  0  0  0  0  0  0  0  0
    7.8420   -0.6774   21.0961 N   0  0  0  0  0  0  0  0  0  0  0  0
    7.2506   -0.1469   20.1483 C   0  0  0  0  0  0  0  0  0  0  0  0
    7.3833    0.0926   18.9010 C   0  0  0  0  0  0  0  0  0  0  0  0
    7.0106    0.5483   17.7797 N   0  0  0  0  0  0  0  0  0  0  0  0
    5.9566    1.0381   18.2248 C   0  0  0  0  0  0  0  0  0  0  0  0
    5.4053    1.0401   19.3913 C   0  0  0  0  0  0  0  0  0  0  0  0
    5.8088    0.5332   20.4944 C   0  0  0  0  0  0  0  0  0  0  0  0
    5.3839    0.4931   21.4671 C   0  0  0  0  0  0  0  0  0  0  0  0
    6.0419   -6.0075   26.7460 H   0  0  0  0  0  0  0  0  0  0  0  0
    5.4649   -4.5583   25.8555 H   0  0  0  0  0  0  0  0  0  0  0  0
    5.9253   -6.0422   24.9539 H   0  0  0  0  0  0  0  0  0  0  0  0
    6.9983   -3.3991   24.3857 H   0  0  0  0  0  0  0  0  0  0  0  0
    9.5589   -3.8997   24.2259 H   0  0  0  0  0  0  0  0  0  0  0  0
   10.0651   -0.1894   25.2741 H   0  0  0  0  0  0  0  0  0  0  0  0
   12.0154    0.5400   25.3591 H   0  0  0  0  0  0  0  0  0  0  0  0
   13.9266   -0.1395   23.9602 H   0  0  0  0  0  0  0  0  0  0  0  0
   13.4754   -1.9036   22.3593 H   0  0  0  0  0  0  0  0  0  0  0  0
   11.5620   -1.9533   21.6253 H   0  0  0  0  0  0  0  0  0  0  0  0
   11.7486   -3.0344   23.0476 H   0  0  0  0  0  0  0  0  0  0  0  0
   10.0152   -1.5386   21.6813 H   0  0  0  0  0  0  0  0  0  0  0  0
    7.4751   -1.4924   21.5447 H   0  0  0  0  0  0  0  0  0  0  0  0
    8.3532   -0.3271   18.6785 H   0  0  0  0  0  0  0  0  0  0  0  0
    5.3850    1.5722   17.4803 H   0  0  0  0  0  0  0  0  0  0  0  0
    4.4545    1.5494   19.4449 H   0  0  0  0  0  0  0  0  0  0  0  0
    4.7641   -0.4110   21.5601 H   0  0  0  0  0  0  0  0  0  0  0  0
    6.1878    0.4652   22.2174 H   0  0  0  0  0  0  0  0  0  0  0  0
    4.7597    1.3838   21.6314 H   0  0  0  0  0  0  0  0  0  0  0  0
 20 21  2  0  0  0  0
 19 20  1  0  0  0  0
 21 22  1  0  0  0  0
 18 19  2  0  0  0  0
 22 23  2  0  0  0  0
 18 23  1  0  0  0  0
 17 18  1  0  0  0  0
 23 24  1  0  0  0  0
 15 16  2  0  0  0  0
 15 17  1  0  0  0  0
 14 15  1  0  0  0  0
  8 14  1  0  0  0  0
  7 14  1  0  0  0  0
 12 13  1  0  0  0  0
  8 13  1  0  0  0  0
 11 12  2  0  0  0  0
  7  8  1  0  0  0  0
  8  9  1  0  0  0  0
 10 11  1  0  0  0  0
  6  7  2  0  0  0  0
  5  6  1  0  0  0  0
  9 10  2  0  0  0  0
  2  5  1  0  0  0  0
  2  3  2  0  0  0  0
  1  2  1  0  0  0  0
  2  4  2  0  0  0  0
  1 25  1  0  0  0  0
  1 26  1  0  0  0  0
  1 27  1  0  0  0  0
  5 28  1  0  0  0  0
  6 29  1  0  0  0  0
  9 30  1  0  0  0  0
 10 31  1  0  0  0  0
 11 32  1  0  0  0  0
 12 33  1  0  0  0  0
 13 34  1  0  0  0  0
 13 35  1  0  0  0  0
 14 36  1  0  0  0  0
 17 37  1  0  0  0  0
 19 38  1  0  0  0  0
 21 39  1  0  0  0  0
 22 40  1  0  0  0  0
 24 41  1  0  0  0  0
 24 42  1  0  0  0  0
 24 43  1  0  0  0  0
M  END
> <Chemgauss4>
-13.273132

$$$$
