
 OpenBabel07202414123D

 69 72  0  0  1  0  0  0  0  0999 V2000
    0.6634   -0.0103    0.1339 C   0  0  0  0  0  0  0  0  0  0  0  0
    1.9538    0.2142    0.9557 C   0  0  0  0  0  0  0  0  0  0  0  0
    1.6531   -0.1793    2.4134 C   0  0  0  0  0  0  0  0  0  0  0  0
    3.0274   -0.7403    0.3820 C   0  0  0  0  0  0  0  0  0  0  0  0
    2.4679    1.6578    0.8910 C   0  0  0  0  0  0  0  0  0  0  0  0
    1.8628    2.6284    0.0928 C   0  0  0  0  0  0  0  0  0  0  0  0
    2.4217    3.9049   -0.0645 C   0  0  0  0  0  0  0  0  0  0  0  0
    3.5919    4.3027    0.5952 C   0  0  0  0  0  0  0  0  0  0  0  0
    4.2677    5.5637    0.2697 N   0  0  0  0  0  0  0  0  0  0  0  0
    5.6666    5.7976    0.7355 C   0  0  3  0  0  0  0  0  0  0  0  0
    5.5246    6.4927    2.1078 C   0  0  0  0  0  0  0  0  0  0  0  0
    5.2272    5.8726    3.1260 O   0  0  0  0  0  0  0  0  0  0  0  0
    5.6972    7.8669    2.0863 N   0  0  0  0  0  0  0  0  0  0  0  0
    5.3464    8.7360    3.2031 C   0  0  0  0  0  0  0  0  0  0  0  0
    5.9516    8.2726    4.5359 C   0  0  0  0  0  0  0  0  0  0  0  0
    5.7685    9.1617    5.6936 N   0  0  0  0  0  0  0  0  0  0  0  0
    6.4304    8.5345    6.8767 C   0  0  0  0  0  0  0  0  0  0  0  0
    5.6834    7.3085    7.4380 C   0  0  0  0  0  0  0  0  0  0  0  0
    4.3255    7.6272    7.7660 O   0  0  0  0  0  0  0  0  0  0  0  0
    3.6352    8.1314    6.6164 C   0  0  0  0  0  0  0  0  0  0  0  0
    4.3433    9.3728    6.0436 C   0  0  0  0  0  0  0  0  0  0  0  0
    6.7128    4.6837    0.6926 C   0  0  0  0  0  0  0  0  0  0  0  0
    6.6963    3.6598   -0.2636 C   0  0  0  0  0  0  0  0  0  0  0  0
    7.7686    2.7755   -0.3672 C   0  0  0  0  0  0  0  0  0  0  0  0
    8.8573    2.9608    0.4651 C   0  0  0  0  0  0  0  0  0  0  0  0
    8.9154    3.9188    1.4106 N   0  0  0  0  0  0  0  0  0  0  0  0
    7.8473    4.7452    1.5093 C   0  0  0  0  0  0  0  0  0  0  0  0
    3.5132    6.6474   -0.2870 C   0  0  0  0  0  0  0  0  0  0  0  0
    2.2899    6.5911   -0.4629 O   0  0  0  0  0  0  0  0  0  0  0  0
    4.1246    7.9449   -0.6393 C   0  0  0  0  0  0  0  0  0  0  0  0
    3.3845    9.0963   -0.8433 C   0  0  0  0  0  0  0  0  0  0  0  0
    4.2229   10.1111   -1.1780 O   0  0  0  0  0  0  0  0  0  0  0  0
    5.4491    9.5343   -1.1733 C   0  0  0  0  0  0  0  0  0  0  0  0
    5.4629    8.2678   -0.8166 N   0  0  0  0  0  0  0  0  0  0  0  0
    4.1075    3.3707    1.5074 C   0  0  0  0  0  0  0  0  0  0  0  0
    3.5889    2.0674    1.6224 C   0  0  0  0  0  0  0  0  0  0  0  0
    0.2975   -1.0393    0.2373 H   0  0  0  0  0  0  0  0  0  0  0  0
    0.8321    0.1633   -0.9352 H   0  0  0  0  0  0  0  0  0  0  0  0
   -0.1431    0.6548    0.4639 H   0  0  0  0  0  0  0  0  0  0  0  0
    1.1853   -1.1692    2.4671 H   0  0  0  0  0  0  0  0  0  0  0  0
    0.9707    0.5394    2.8825 H   0  0  0  0  0  0  0  0  0  0  0  0
    2.5617   -0.2219    3.0240 H   0  0  0  0  0  0  0  0  0  0  0  0
    2.6783   -1.7795    0.3967 H   0  0  0  0  0  0  0  0  0  0  0  0
    3.9608   -0.7044    0.9565 H   0  0  0  0  0  0  0  0  0  0  0  0
    3.2725   -0.4863   -0.6557 H   0  0  0  0  0  0  0  0  0  0  0  0
    0.9559    2.4231   -0.4688 H   0  0  0  0  0  0  0  0  0  0  0  0
    1.9027    4.5381   -0.7747 H   0  0  0  0  0  0  0  0  0  0  0  0
    6.1365    6.4935    0.0510 H   0  0  0  0  0  0  0  0  0  0  0  0
    5.8165    8.3122    1.1803 H   0  0  0  0  0  0  0  0  0  0  0  0
    4.2527    8.7749    3.2464 H   0  0  0  0  0  0  0  0  0  0  0  0
    5.7116    9.7365    2.9464 H   0  0  0  0  0  0  0  0  0  0  0  0
    7.0282    8.1379    4.3671 H   0  0  0  0  0  0  0  0  0  0  0  0
    5.5543    7.2886    4.7787 H   0  0  0  0  0  0  0  0  0  0  0  0
    6.4769    9.3011    7.6608 H   0  0  0  0  0  0  0  0  0  0  0  0
    7.4631    8.2696    6.6369 H   0  0  0  0  0  0  0  0  0  0  0  0
    6.1741    6.9695    8.3553 H   0  0  0  0  0  0  0  0  0  0  0  0
    5.6958    6.4601    6.7441 H   0  0  0  0  0  0  0  0  0  0  0  0
    2.6242    8.4045    6.9372 H   0  0  0  0  0  0  0  0  0  0  0  0
    3.5372    7.3343    5.8703 H   0  0  0  0  0  0  0  0  0  0  0  0
    4.3127   10.1659    6.8057 H   0  0  0  0  0  0  0  0  0  0  0  0
    3.7836    9.7685    5.1895 H   0  0  0  0  0  0  0  0  0  0  0  0
    5.8484    3.5336   -0.9328 H   0  0  0  0  0  0  0  0  0  0  0  0
    7.7618    1.9735   -1.0967 H   0  0  0  0  0  0  0  0  0  0  0  0
    9.7405    2.3336    0.3837 H   0  0  0  0  0  0  0  0  0  0  0  0
    7.9611    5.4985    2.2860 H   0  0  0  0  0  0  0  0  0  0  0  0
    2.3295    9.3298   -0.7943 H   0  0  0  0  0  0  0  0  0  0  0  0
    6.2879   10.1663   -1.4361 H   0  0  0  0  0  0  0  0  0  0  0  0
    4.9491    3.5987    2.1544 H   0  0  0  0  0  0  0  0  0  0  0  0
    4.1016    1.3745    2.2873 H   0  0  0  0  0  0  0  0  0  0  0  0
  1  2  1  0  0  0  0
  1 37  1  0  0  0  0
  1 38  1  0  0  0  0
  1 39  1  0  0  0  0
  2  3  1  0  0  0  0
  2  4  1  0  0  0  0
  2  5  1  0  0  0  0
  3 40  1  0  0  0  0
  3 41  1  0  0  0  0
  3 42  1  0  0  0  0
  4 43  1  0  0  0  0
  4 44  1  0  0  0  0
  4 45  1  0  0  0  0
  5  6  1  0  0  0  0
  5 36  2  0  0  0  0
  6  7  2  0  0  0  0
  6 46  1  0  0  0  0
  7  8  1  0  0  0  0
  7 47  1  0  0  0  0
  8  9  1  0  0  0  0
  8 35  2  0  0  0  0
  9 10  1  0  0  0  0
  9 28  1  0  0  0  0
 10 11  1  0  0  0  0
 10 22  1  0  0  0  0
 10 48  1  0  0  0  0
 11 12  2  0  0  0  0
 11 13  1  0  0  0  0
 13 14  1  0  0  0  0
 13 49  1  0  0  0  0
 14 15  1  0  0  0  0
 14 50  1  0  0  0  0
 14 51  1  0  0  0  0
 15 16  1  0  0  0  0
 15 52  1  0  0  0  0
 15 53  1  0  0  0  0
 16 17  1  0  0  0  0
 16 21  1  0  0  0  0
 17 18  1  0  0  0  0
 17 54  1  0  0  0  0
 17 55  1  0  0  0  0
 18 19  1  0  0  0  0
 18 56  1  0  0  0  0
 18 57  1  0  0  0  0
 19 20  1  0  0  0  0
 20 21  1  0  0  0  0
 20 58  1  0  0  0  0
 20 59  1  0  0  0  0
 21 60  1  0  0  0  0
 21 61  1  0  0  0  0
 22 23  1  0  0  0  0
 22 27  2  0  0  0  0
 23 24  2  0  0  0  0
 23 62  1  0  0  0  0
 24 25  1  0  0  0  0
 24 63  1  0  0  0  0
 25 26  2  0  0  0  0
 25 64  1  0  0  0  0
 26 27  1  0  0  0  0
 27 65  1  0  0  0  0
 28 29  2  0  0  0  0
 28 30  1  0  0  0  0
 30 31  2  0  0  0  0
 30 34  1  0  0  0  0
 31 32  1  0  0  0  0
 31 66  1  0  0  0  0
 32 33  1  0  0  0  0
 33 34  2  0  0  0  0
 33 67  1  0  0  0  0
 35 36  1  0  0  0  0
 35 68  1  0  0  0  0
 36 69  1  0  0  0  0
M  END
$$$$
