
 OpenBabel07202414153D

 33 34  0  0  0  0  0  0  0  0999 V2000
    1.8769    1.2628    1.7302 C   0  0  0  0  0  0  0  0  0  0  0  0
    2.7861    0.5759    0.8127 N   0  3  0  0  0  0  0  0  0  0  0  0
    2.7231    0.6191   -0.5688 C   0  0  0  0  0  0  0  0  0  0  0  0
    3.7466   -0.1540   -1.0338 C   0  0  0  0  0  0  0  0  0  0  0  0
    4.4148   -0.6498    0.0753 N   0  0  0  0  0  0  0  0  0  0  0  0
    3.8231   -0.1984    1.2087 C   0  0  0  0  0  0  0  0  0  0  0  0
    4.2486   -0.4993    2.6628 C   0  0  0  0  0  0  0  0  0  0  0  0
    4.5755   -0.7282    3.7527 N   0  0  0  0  0  0  0  0  0  0  0  0
    5.6040   -1.5219    0.0382 C   0  0  0  0  0  0  0  0  0  0  0  0
    6.8829   -0.6911    0.0319 C   0  0  0  0  0  0  0  0  0  0  0  0
    8.1431   -1.5586    0.0164 C   0  0  0  0  0  0  0  0  0  0  0  0
    9.3903   -0.7073    0.0409 C   0  0  0  0  0  0  0  0  0  0  0  0
    9.9544   -0.3123    1.2629 C   0  0  0  0  0  0  0  0  0  0  0  0
   11.0958    0.4931    1.2929 C   0  0  0  0  0  0  0  0  0  0  0  0
   11.6851    0.9170    0.1026 C   0  0  0  0  0  0  0  0  0  0  0  0
   11.1290    0.5323   -1.1144 C   0  0  0  0  0  0  0  0  0  0  0  0
    9.9877   -0.2732   -1.1518 C   0  0  0  0  0  0  0  0  0  0  0  0
   11.8491    1.0583   -2.5859 Cl  0  0  0  0  0  0  0  0  0  0  0  0
    1.1255    1.8248    1.1688 H   0  0  0  0  0  0  0  0  0  0  0  0
    2.4524    1.9537    2.3522 H   0  0  0  0  0  0  0  0  0  0  0  0
    1.3763    0.5210    2.3582 H   0  0  0  0  0  0  0  0  0  0  0  0
    1.9529    1.2010   -1.0475 H   0  0  0  0  0  0  0  0  0  0  0  0
    4.0924   -0.4128   -2.0209 H   0  0  0  0  0  0  0  0  0  0  0  0
    5.5397   -2.1497   -0.8583 H   0  0  0  0  0  0  0  0  0  0  0  0
    5.5707   -2.1916    0.9047 H   0  0  0  0  0  0  0  0  0  0  0  0
    6.8908   -0.0368    0.9126 H   0  0  0  0  0  0  0  0  0  0  0  0
    6.8762   -0.0266   -0.8412 H   0  0  0  0  0  0  0  0  0  0  0  0
    8.1547   -2.2029   -0.8718 H   0  0  0  0  0  0  0  0  0  0  0  0
    8.1500   -2.2347    0.8810 H   0  0  0  0  0  0  0  0  0  0  0  0
    9.5165   -0.6339    2.2056 H   0  0  0  0  0  0  0  0  0  0  0  0
   11.5306    0.7876    2.2456 H   0  0  0  0  0  0  0  0  0  0  0  0
   12.5752    1.5405    0.1314 H   0  0  0  0  0  0  0  0  0  0  0  0
    9.5753   -0.5642   -2.1146 H   0  0  0  0  0  0  0  0  0  0  0  0
  1  2  1  0  0  0  0
  1 19  1  0  0  0  0
  1 20  1  0  0  0  0
  1 21  1  0  0  0  0
  2  3  1  0  0  0  0
  2  6  2  0  0  0  0
  3  4  2  0  0  0  0
  3 22  1  0  0  0  0
  4  5  1  0  0  0  0
  4 23  1  0  0  0  0
  5  6  1  0  0  0  0
  5  9  1  0  0  0  0
  6  7  1  0  0  0  0
  7  8  3  0  0  0  0
  9 10  1  0  0  0  0
  9 24  1  0  0  0  0
  9 25  1  0  0  0  0
 10 11  1  0  0  0  0
 10 26  1  0  0  0  0
 10 27  1  0  0  0  0
 11 12  1  0  0  0  0
 11 28  1  0  0  0  0
 11 29  1  0  0  0  0
 12 13  1  0  0  0  0
 12 17  2  0  0  0  0
 13 14  2  0  0  0  0
 13 30  1  0  0  0  0
 14 15  1  0  0  0  0
 14 31  1  0  0  0  0
 15 16  2  0  0  0  0
 15 32  1  0  0  0  0
 16 17  1  0  0  0  0
 16 18  1  0  0  0  0
 17 33  1  0  0  0  0
M  CHG  1   2   1
M  END
$$$$
