stable:False satoms:18 tatoms:24 sratio:0.75
  -OEChem-07092417363D

 24 24  0     0  0  0  0  0  0999 V2000
    7.7395   -4.7254   26.5404 H   0  0  0  0  0  0  0  0  0  0  0  0
    8.6038   -4.4672   26.0775 N   0  0  0  0  0  0  0  0  0  0  0  0
    9.2216   -5.2344   25.8948 H   0  0  0  0  0  0  0  0  0  0  0  0
    8.4645   -1.8921   25.9351 S   0  0  0  0  0  0  0  0  0  0  0  0
    8.9241   -3.3174   25.3662 C   0  0  0  0  0  0  0  0  0  0  0  0
    9.7297   -3.4280   24.3282 O   0  0  0  0  0  0  0  0  0  0  0  0
    8.4362   -1.2114   22.8412 H   0  0  0  0  0  0  0  0  0  0  0  0
   10.8392   -2.4214   22.9060 H   0  0  0  0  0  0  0  0  0  0  0  0
   10.4064   -0.2038   24.7231 H   0  0  0  0  0  0  0  0  0  0  0  0
   10.0506   -0.9794   24.1048 C   0  3  0  0  0  0  0  0  0  0  0  0
   11.6418    0.0610   22.2542 S   0  0  0  0  0  0  0  0  0  0  0  0
   11.5877   -2.3915   24.5162 H   0  0  0  0  0  0  0  0  0  0  0  0
   10.6452   -2.3170   23.9627 C   0  0  0  0  0  0  0  0  0  0  0  0
    9.2868   -0.7085   23.0236 N   0  0  0  0  0  0  0  0  0  0  0  0
    9.8744    0.0328   22.0173 C   0  0  0  0  0  0  0  0  0  0  0  0
    9.2378    0.6436   21.0693 N   0  0  0  0  0  0  0  0  0  0  0  0
    7.8688    0.1985   19.2792 N   0  0  0  0  0  0  0  0  0  0  0  0
    8.0172    0.6126   20.4836 C   0  0  0  0  0  0  0  0  0  0  0  0
    8.6296    0.0104   18.6541 H   0  0  0  0  0  0  0  0  0  0  0  0
    6.2760    0.3942   17.8271 H   0  0  0  0  0  0  0  0  0  0  0  0
    4.8978    1.4103   19.8541 H   0  0  0  0  0  0  0  0  0  0  0  0
    6.7120    1.0722   20.8938 C   0  0  0  0  0  0  0  0  0  0  0  0
    6.5783    0.5324   18.8379 C   0  0  0  0  0  0  0  0  0  0  0  0
    5.9151    1.0395   19.9063 C   0  0  0  0  0  0  0  0  0  0  0  0
 20 23  1  0  0  0  0
 17 19  1  0  0  0  0
 17 23  1  0  0  0  0
 23 24  2  0  0  0  0
 17 18  1  0  0  0  0
 21 24  1  0  0  0  0
 22 24  1  0  0  0  0
 18 22  2  0  0  0  0
 16 18  1  0  0  0  0
 15 16  1  0  0  0  0
 11 15  2  0  0  0  0
 14 15  1  0  0  0  0
  7 14  1  0  0  0  0
  8 13  1  0  0  0  0
 10 14  1  0  0  0  0
 10 13  1  0  0  0  0
  6 13  1  0  0  0  0
 12 13  1  0  0  0  0
  9 10  1  0  0  0  0
  5  6  1  0  0  0  0
  4  5  2  0  0  0  0
  2  5  1  0  0  0  0
  2  3  1  0  0  0  0
  1  2  1  0  0  0  0
M  CHG  1  10   1
M  END
> <Shapegauss>
-173.663101

$$$$
