stable:False satoms:18 tatoms:24 sratio:0.75
  -OEChem-08062403093D

 25 25  0     0  0  0  0  0  0999 V2000
   12.6983    0.8534   24.4671 H   0  0  0  0  0  0  0  0  0  0  0  0
   11.9633    0.2352   24.7922 N   0  0  0  0  0  0  0  0  0  0  0  0
   11.7283    0.3434   25.7600 H   0  0  0  0  0  0  0  0  0  0  0  0
   11.4626   -1.2401   22.7322 S   0  0  0  0  0  0  0  0  0  0  0  0
   11.0158   -0.4791   24.0692 C   0  0  0  0  0  0  0  0  0  0  0  0
    9.8157   -0.6343   24.5930 O   0  0  0  0  0  0  0  0  0  0  0  0
    8.4518   -0.6283   21.9591 H   0  0  0  0  0  0  0  0  0  0  0  0
    7.9860   -1.5796   24.4332 H   0  0  0  0  0  0  0  0  0  0  0  0
    9.1212   -2.3272   22.9196 C   0  0  0  0  0  2  0  0  0  0  0  0
    6.7390   -3.4915   23.0116 S   0  0  0  0  0  0  0  0  0  0  0  0
    9.2726   -2.6561   25.0160 H   0  0  0  0  0  0  0  0  0  0  0  0
    9.0218   -1.8572   24.3096 C   0  0  0  0  0  0  0  0  0  0  0  0
    8.2893   -1.6036   22.1385 N   0  0  0  0  0  0  0  0  0  0  0  0
    7.0492   -2.1517   21.8761 C   0  0  0  0  0  0  0  0  0  0  0  0
    6.2506   -1.7754   20.9286 N   0  0  0  0  0  0  0  0  0  0  0  0
    5.0462    0.0584   20.2480 N   0  0  0  0  0  0  0  0  0  0  0  0
    6.0695   -0.7037   20.1208 C   0  0  0  0  0  0  0  0  0  0  0  0
    4.2603   -0.1526   20.8335 H   0  0  0  0  0  0  0  0  0  0  0  0
    4.1251    1.5351   18.9616 H   0  0  0  0  0  0  0  0  0  0  0  0
    6.2835    1.1974   17.4556 H   0  0  0  0  0  0  0  0  0  0  0  0
    6.7729   -0.2096   18.9615 C   0  0  0  0  0  0  0  0  0  0  0  0
    4.9639    0.9021   19.1286 C   0  0  0  0  0  0  0  0  0  0  0  0
    6.0872    0.6975   18.3973 C   0  0  0  0  0  0  0  0  0  0  0  0
    5.5693   -2.4821   20.7378 H   0  0  0  0  0  0  0  0  0  0  0  0
    7.7377   -0.5590   18.6246 H   0  0  0  0  0  0  0  0  0  0  0  0
 19 22  1  0  0  0  0
 16 18  1  0  0  0  0
 16 22  1  0  0  0  0
 22 23  2  0  0  0  0
 16 17  1  0  0  0  0
 20 23  1  0  0  0  0
 21 23  1  0  0  0  0
 17 21  2  0  0  0  0
 15 17  1  0  0  0  0
 14 15  1  0  0  0  0
 10 14  2  0  0  0  0
 13 14  1  0  0  0  0
  7 13  1  0  0  0  0
  8 12  1  0  0  0  0
  9 13  1  0  0  0  0
  9 12  1  0  0  0  0
  6 12  1  0  0  0  0
 11 12  1  0  0  0  0
  5  6  1  0  0  0  0
  4  5  2  0  0  0  0
  2  5  1  0  0  0  0
  2  3  1  0  0  0  0
  1  2  1  0  0  0  0
 15 24  1  0  0  0  0
 21 25  1  0  0  0  0
M  END
> <Chemgauss4>
-7.306001

$$$$
