REMARK  8 active torsions:
REMARK  status: ('A' for Active; 'I' for Inactive)
REMARK    1  A    between atoms: S_2  and  N_5 
REMARK    2  A    between atoms: N_5  and  C_7 
REMARK    3  A    between atoms: C_8  and  C_9 
REMARK    4  A    between atoms: C_9  and  C_14 
REMARK    5  A    between atoms: C_9  and  N_12 
REMARK    6  A    between atoms: C_11  and  N_12 
REMARK    7  A    between atoms: C_14  and  C_15 
REMARK       I    between atoms: C_15  and  N_17 
REMARK    8  A    between atoms: C_19  and  C_23 
ROOT
HETATM    1  C   UNL     1       9.001   0.062  21.400  1.00  0.00     0.296 C 
HETATM    2  O   UNL     1       9.406   1.108  21.037  1.00  0.00    -0.258 OA
HETATM    3  N   UNL     1       7.907  -0.643  20.901  1.00  0.00    -0.307 N 
ATOM      4  HN  UNL     1       7.754  -1.608  21.193  1.00  0.00     0.170 HD
HETATM    5  C   UNL     1       7.105  -0.102  20.093  1.00  0.00     0.123 C 
HETATM    6  C   UNL     1       6.997   0.055  18.678  1.00  0.00     0.118 C 
HETATM    7  N   UNL     1       7.102   0.112  17.567  1.00  0.00    -0.190 NA
ENDROOT
BRANCH   5   8
HETATM    8  C   UNL     1       5.759   0.511  20.451  1.00  0.00     0.080 C 
HETATM    9  C   UNL     1       5.414   0.820  19.258  1.00  0.00    -0.044 C 
ENDBRANCH   5   8
BRANCH   1  10
HETATM   10  C   UNL     1       9.644  -0.672  22.370  1.00  0.00    -0.017 C 
BRANCH  10  11
HETATM   11  C   UNL     1      10.355  -1.409  22.937  1.00  0.00     0.140 C 
BRANCH  11  12
HETATM   12  C   UNL     1       9.471  -2.141  23.653  1.00  0.00    -0.016 C 
HETATM   13  C   UNL     1       8.947  -2.859  24.231  1.00  0.00     0.029 C 
BRANCH  13  14
HETATM   14  N   UNL     1       8.134  -3.583  24.762  1.00  0.00    -0.229 N 
ATOM     15  HN  UNL     1       7.267  -3.751  24.252  1.00  0.00     0.190 HD
BRANCH  14  16
HETATM   16  S   UNL     1       8.282  -4.297  26.174  1.00  0.00     0.327 S 
HETATM   17 CL   UNL     1       6.537  -4.828  26.438  1.00  0.00     0.042 Cl
HETATM   18  O   UNL     1       9.082  -5.467  26.097  1.00  0.00    -0.188 OA
HETATM   19  O   UNL     1       8.693  -3.429  27.208  1.00  0.00    -0.188 OA
ENDBRANCH  14  16
ENDBRANCH  13  14
ENDBRANCH  11  12
BRANCH  11  20
HETATM   20  N   UNL     1      11.759  -1.728  22.620  1.00  0.00    -0.353 N 
ATOM     21  HN  UNL     1      12.066  -2.511  22.043  1.00  0.00     0.166 HD
BRANCH  20  22
HETATM   22  C   UNL     1      12.410  -1.014  23.087  1.00  0.00     0.079 C 
HETATM   23  C   UNL     1      12.423  -0.023  23.980  1.00  0.00     0.029 C 
ENDBRANCH  20  22
ENDBRANCH  11  20
ENDBRANCH  10  11
ENDBRANCH   1  10
TORSDOF 8
