stable:False satoms:14 tatoms:24 sratio:0.5833333333333334
  -OEChem-07092417423D

 24 23  0     1  0  0  0  0  0999 V2000
    6.5369   -4.8281   26.4382 Cl  0  0  0  0  0  0  0  0  0  0  0  0
    8.2817   -4.2966   26.1741 S   0  0  0  0  0  0  0  0  0  0  0  0
    9.0822   -5.4673   26.0971 O   0  0  0  0  0  0  0  0  0  0  0  0
    8.6925   -3.4287   27.2078 O   0  0  0  0  0  0  0  0  0  0  0  0
    8.1345   -3.5835   24.7617 N   0  0  0  0  0  0  0  0  0  0  0  0
    8.9465   -2.8594   24.2308 C   0  0  0  0  0  0  0  0  0  0  0  0
    9.4706   -2.1412   23.6533 C   0  0  0  0  0  0  0  0  0  0  0  0
   10.3551   -1.4089   22.9369 C   0  0  1  0  0  0  0  0  0  0  0  0
   11.5075    0.1078   24.4949 H   0  0  0  0  0  0  0  0  0  0  0  0
   12.4230   -0.0227   23.9804 C   0  0  0  0  0  0  0  0  0  0  0  0
   13.2958    0.4471   24.0550 H   0  0  0  0  0  0  0  0  0  0  0  0
   12.4098   -1.0138   23.0873 C   0  0  0  0  0  0  0  0  0  0  0  0
   11.7586   -1.7279   22.6198 N   0  0  0  0  0  0  0  0  0  0  0  0
    9.6437   -0.6725   22.3701 C   0  0  0  0  0  0  0  0  0  0  0  0
    9.0013    0.0623   21.4000 C   0  0  0  0  0  0  0  0  0  0  0  0
    9.4059    1.1080   21.0373 O   0  0  0  0  0  0  0  0  0  0  0  0
    7.9068   -0.6428   20.9006 N   0  0  0  0  0  0  0  0  0  0  0  0
    7.1047   -0.1016   20.0928 C   0  0  3  0  0  0  0  0  0  0  0  0
    6.9975    0.0554   18.6782 C   0  0  0  0  0  0  0  0  0  0  0  0
    7.1019    0.1118   17.5669 N   0  0  0  0  0  0  0  0  0  0  0  0
    5.0162    1.0948   18.3150 H   0  0  0  0  0  0  0  0  0  0  0  0
    5.4141    0.8202   19.2584 C   0  5  0  0  0  0  0  0  0  0  0  0
    5.7594    0.5112   20.4506 C   0  0  0  0  0  0  0  0  0  0  0  0
    5.3378    0.5861   21.4895 H   0  0  0  0  0  0  0  0  0  0  0  0
 19 20  3  0  0  0  0
 21 22  1  0  0  0  0
 18 19  1  0  0  0  0
 22 23  2  0  0  0  0
 18 23  1  0  0  0  0
 17 18  1  0  0  0  0
 23 24  1  0  0  0  0
 15 17  1  0  0  0  0
 15 16  2  0  0  0  0
 14 15  1  0  0  0  0
  8 14  1  0  0  0  0
  8 13  1  0  0  0  0
 12 13  1  0  0  0  0
  7  8  1  0  0  0  0
 10 12  2  0  0  0  0
  6  7  3  0  0  0  0
 10 11  1  0  0  0  0
  9 10  1  0  0  0  0
  5  6  1  0  0  0  0
  2  5  1  0  0  0  0
  2  3  2  0  0  0  0
  1  2  1  0  0  0  0
  2  4  2  0  0  0  0
M  CHG  1  22  -1
M  END
> <Shapegauss>
-239.192230

$$$$
