stable:False satoms:13 tatoms:24 sratio:0.5416666666666666
  -OEChem-07092417403D

 24 25  0     1  0  0  0  0  0999 V2000
    6.3976   -4.8892   26.5725 Cl  0  0  0  0  0  0  0  0  0  0  0  0
    8.1947   -4.3739   26.1500 S   0  0  0  0  0  0  0  0  0  0  0  0
    8.9646   -5.5717   26.0617 O   0  0  0  0  0  0  0  0  0  0  0  0
    8.5780   -3.4914   27.2057 O   0  0  0  0  0  0  0  0  0  0  0  0
    8.0268   -3.6815   24.7064 N   0  0  0  0  0  0  0  0  0  0  0  0
    8.8719   -2.8790   24.2408 C   0  0  0  0  0  0  0  0  0  0  0  0
    9.3905   -2.0923   23.7299 C   0  0  0  0  0  0  0  0  0  0  0  0
   10.1599   -1.3512   22.9770 C   0  0  3  0  0  0  0  0  0  0  0  0
   11.5337    0.3292   24.3640 H   0  0  0  0  0  0  0  0  0  0  0  0
   12.4212   -0.0221   23.9606 C   0  5  0  0  0  0  0  0  0  0  0  0
   13.3868    0.1260   24.0103 H   0  0  0  0  0  0  0  0  0  0  0  0
   12.3956   -1.1824   23.0094 C   0  0  0  0  0  0  0  0  0  0  0  0
   11.5274   -1.6451   22.7265 C   0  0  0  0  0  0  0  0  0  0  0  0
    9.9409   -0.4003   22.2085 N   0  0  0  0  0  0  0  0  0  0  0  0
    9.0842    0.1662   21.3103 C   0  0  0  0  0  0  0  0  0  0  0  0
    9.4063    1.1721   20.7589 O   0  0  0  0  0  0  0  0  0  0  0  0
    7.8538   -0.4708   21.1455 N   0  0  0  0  0  0  0  0  0  0  0  0
    7.0734   -0.0568   20.2237 C   0  0  0  0  0  0  0  0  0  0  0  0
    7.5204   -0.1000   18.6623 S   0  3  1  0  0  0  0  0  0  0  0  0
    6.5493    0.3577   17.6406 N   0  0  0  0  0  0  0  0  0  0  0  0
    5.8070    0.7637   18.2984 C   0  0  0  0  0  0  0  0  0  0  0  0
    5.3329    0.9172   19.3904 C   0  0  0  0  0  0  0  0  0  0  0  0
    5.7944    0.5145   20.4856 C   0  0  0  0  0  0  0  0  0  0  0  0
    5.3725    0.5711   21.4577 H   0  0  0  0  0  0  0  0  0  0  0  0
 20 21  1  0  0  0  0
 19 20  1  0  0  0  0
 19 21  1  0  0  0  0
 21 22  2  0  0  0  0
 18 19  1  0  0  0  0
 22 23  1  0  0  0  0
 18 23  2  0  0  0  0
 17 18  1  0  0  0  0
 23 24  1  0  0  0  0
 15 16  2  0  0  0  0
 15 17  1  0  0  0  0
 14 15  1  0  0  0  0
  8 14  1  0  0  0  0
  8 13  1  0  0  0  0
 12 13  2  0  0  0  0
  7  8  1  0  0  0  0
 10 12  1  0  0  0  0
  6  7  3  0  0  0  0
 10 11  1  0  0  0  0
  9 10  1  0  0  0  0
  5  6  1  0  0  0  0
  2  5  1  0  0  0  0
  2  3  2  0  0  0  0
  1  2  1  0  0  0  0
  2  4  2  0  0  0  0
M  CHG  2  10  -1  19   1
M  END
> <Shapegauss>
-263.587463

$$$$
