MODEL 1
REMARK VINA RESULT:    -6.866      0.000      0.000
REMARK INTER + INTRA:         -10.007
REMARK INTER:                  -9.274
REMARK INTRA:                  -0.733
REMARK UNBOUND:                -0.733
REMARK  6 active torsions:
REMARK  status: ('A' for Active; 'I' for Inactive)
REMARK    1  A    between atoms: S_2  and  N_5 
REMARK    2  A    between atoms: N_5  and  C_7 
REMARK    3  A    between atoms: C_8  and  C_9 
REMARK    4  A    between atoms: C_9  and  C_12 
REMARK    5  A    between atoms: C_11  and  C_12 
REMARK       I    between atoms: N_13  and  C_15 
REMARK       I    between atoms: C_15  and  N_17 
REMARK    6  A    between atoms: N_17  and  C_19 
ROOT
HETATM    1  C   UNL     1       7.970  -4.164  23.799  1.00  0.00     0.092 C 
HETATM    2  N   UNL     1       8.575  -3.355  23.077  1.00  0.00    -0.301 N 
ATOM      3  HN  UNL     1       8.423  -3.653  22.113  1.00  0.00     0.171 HD
HETATM    4  C   UNL     1       9.357  -2.238  23.023  1.00  0.00     0.326 C 
HETATM    5  O   UNL     1       9.659  -1.794  21.960  1.00  0.00    -0.247 OA
HETATM    6  N   UNL     1       9.787  -1.726  24.248  1.00  0.00    -0.302 N 
ATOM      7  HN  UNL     1       9.608  -2.230  25.116  1.00  0.00     0.171 HD
ENDROOT
BRANCH   1   8
HETATM    8  C   UNL     1       8.211  -4.666  24.982  1.00  0.00    -0.025 C 
HETATM    9  C   UNL     1       8.293  -5.267  25.866  1.00  0.00     0.028 C 
BRANCH   9  10
HETATM   10  N   UNL     1       8.232  -5.750  27.023  1.00  0.00    -0.229 N 
ATOM     11  HN  UNL     1       9.084  -6.113  27.449  1.00  0.00     0.190 HD
BRANCH  10  12
HETATM   12  S   UNL     1       6.858  -5.816  27.860  1.00  0.00     0.327 S 
HETATM   13 CL   UNL     1       5.598  -6.403  26.540  1.00  0.00     0.042 Cl
HETATM   14  O   UNL     1       6.915  -6.828  28.865  1.00  0.00    -0.188 OA
HETATM   15  O   UNL     1       6.357  -4.555  28.306  1.00  0.00    -0.188 OA
ENDBRANCH  10  12
ENDBRANCH   9  10
ENDBRANCH   1   8
BRANCH   1  16
HETATM   16  C   UNL     1       6.736  -4.330  23.115  1.00  0.00     0.038 C 
BRANCH  16  17
HETATM   17  C   UNL     1       6.215  -5.162  22.823  1.00  0.00    -0.007 C 
HETATM   18  C   UNL     1       6.743  -6.130  21.804  1.00  0.00     0.011 C 
ENDBRANCH  16  17
ENDBRANCH   1  16
BRANCH   6  19
HETATM   19  C   UNL     1      10.410  -0.612  24.257  1.00  0.00     0.084 A 
HETATM   20  S   UNL     1       9.605   0.800  24.240  1.00  0.00    -0.051 SA
HETATM   21  N   UNL     1      10.388   2.056  24.293  1.00  0.00    -0.348 N 
HETATM   22  C   UNL     1      11.367   1.638  24.169  1.00  0.00     0.189 A 
ATOM     23  HN  UNL     1      10.088   3.023  24.413  1.00  0.00     0.169 HD
HETATM   24  C   UNL     1      12.120   0.704  24.133  1.00  0.00     0.013 A 
HETATM   25  C   UNL     1      11.831  -0.514  24.229  1.00  0.00     0.036 A 
ENDBRANCH   6  19
TORSDOF 6
ENDMDL
MODEL 2
REMARK VINA RESULT:    -6.585      4.149      5.970
REMARK INTER + INTRA:          -9.627
REMARK INTER:                  -8.987
REMARK INTRA:                  -0.640
REMARK UNBOUND:                -0.733
REMARK  6 active torsions:
REMARK  status: ('A' for Active; 'I' for Inactive)
REMARK    1  A    between atoms: S_2  and  N_5 
REMARK    2  A    between atoms: N_5  and  C_7 
REMARK    3  A    between atoms: C_8  and  C_9 
REMARK    4  A    between atoms: C_9  and  C_12 
REMARK    5  A    between atoms: C_11  and  C_12 
REMARK       I    between atoms: N_13  and  C_15 
REMARK       I    between atoms: C_15  and  N_17 
REMARK    6  A    between atoms: N_17  and  C_19 
ROOT
HETATM    1  C   UNL     1       6.988  -2.550  22.599  1.00  0.00     0.092 C 
HETATM    2  N   UNL     1       7.761  -2.500  23.570  1.00  0.00    -0.301 N 
ATOM      3  HN  UNL     1       7.325  -3.039  24.319  1.00  0.00     0.171 HD
HETATM    4  C   UNL     1       8.944  -2.032  24.063  1.00  0.00     0.326 C 
HETATM    5  O   UNL     1       9.277  -2.347  25.163  1.00  0.00    -0.247 OA
HETATM    6  N   UNL     1       9.657  -1.164  23.236  1.00  0.00    -0.302 N 
ATOM      7  HN  UNL     1       9.253  -0.826  22.363  1.00  0.00     0.171 HD
ENDROOT
BRANCH   1   8
HETATM    8  C   UNL     1       6.675  -1.700  21.657  1.00  0.00    -0.025 C 
HETATM    9  C   UNL     1       6.269  -0.917  21.048  1.00  0.00     0.028 C 
BRANCH   9  10
HETATM   10  N   UNL     1       5.705  -0.228  20.164  1.00  0.00    -0.229 N 
ATOM     11  HN  UNL     1       4.808   0.207  20.378  1.00  0.00     0.190 HD
BRANCH  10  12
HETATM   12  S   UNL     1       6.345  -0.003  18.704  1.00  0.00     0.327 S 
HETATM   13 CL   UNL     1       5.593   1.680  18.178  1.00  0.00     0.042 Cl
HETATM   14  O   UNL     1       7.759   0.176  18.781  1.00  0.00    -0.188 OA
HETATM   15  O   UNL     1       5.911  -0.924  17.701  1.00  0.00    -0.188 OA
ENDBRANCH  10  12
ENDBRANCH   9  10
ENDBRANCH   1   8
BRANCH   1  16
HETATM   16  C   UNL     1       6.594  -3.915  22.584  1.00  0.00     0.038 C 
BRANCH  16  17
HETATM   17  C   UNL     1       7.040  -4.759  22.213  1.00  0.00    -0.007 C 
HETATM   18  C   UNL     1       6.275  -5.820  21.478  1.00  0.00     0.011 C 
ENDBRANCH  16  17
ENDBRANCH   1  16
BRANCH   6  19
HETATM   19  C   UNL     1      10.827  -0.804  23.596  1.00  0.00     0.084 A 
HETATM   20  S   UNL     1      12.144  -1.627  23.117  1.00  0.00    -0.051 SA
HETATM   21  N   UNL     1      13.475  -1.130  23.538  1.00  0.00    -0.348 N 
HETATM   22  C   UNL     1      13.152  -0.377  24.228  1.00  0.00     0.189 A 
ATOM     23  HN  UNL     1      14.412  -1.417  23.257  1.00  0.00     0.169 HD
HETATM   24  C   UNL     1      12.300   0.315  24.715  1.00  0.00     0.013 A 
HETATM   25  C   UNL     1      11.069   0.294  24.472  1.00  0.00     0.036 A 
ENDBRANCH   6  19
TORSDOF 6
ENDMDL
MODEL 3
REMARK VINA RESULT:    -6.127      3.864      7.715
REMARK INTER + INTRA:          -9.009
REMARK INTER:                  -8.480
REMARK INTRA:                  -0.530
REMARK UNBOUND:                -0.733
REMARK  6 active torsions:
REMARK  status: ('A' for Active; 'I' for Inactive)
REMARK    1  A    between atoms: S_2  and  N_5 
REMARK    2  A    between atoms: N_5  and  C_7 
REMARK    3  A    between atoms: C_8  and  C_9 
REMARK    4  A    between atoms: C_9  and  C_12 
REMARK    5  A    between atoms: C_11  and  C_12 
REMARK       I    between atoms: N_13  and  C_15 
REMARK       I    between atoms: C_15  and  N_17 
REMARK    6  A    between atoms: N_17  and  C_19 
ROOT
HETATM    1  C   UNL     1       8.512  -2.333  22.670  1.00  0.00     0.092 C 
HETATM    2  N   UNL     1       8.604  -3.429  23.247  1.00  0.00    -0.301 N 
ATOM      3  HN  UNL     1       9.554  -3.764  23.088  1.00  0.00     0.171 HD
HETATM    4  C   UNL     1       7.976  -4.376  24.002  1.00  0.00     0.326 C 
HETATM    5  O   UNL     1       8.596  -5.324  24.373  1.00  0.00    -0.247 OA
HETATM    6  N   UNL     1       6.617  -4.173  24.241  1.00  0.00    -0.302 N 
ATOM      7  HN  UNL     1       6.114  -3.414  23.783  1.00  0.00     0.171 HD
ENDROOT
BRANCH   1   8
HETATM    8  C   UNL     1       7.538  -1.729  22.040  1.00  0.00    -0.025 C 
HETATM    9  C   UNL     1       6.896  -1.229  21.343  1.00  0.00     0.028 C 
BRANCH   9  10
HETATM   10  N   UNL     1       6.150  -0.425  20.732  1.00  0.00    -0.229 N 
ATOM     11  HN  UNL     1       5.368  -0.003  21.232  1.00  0.00     0.190 HD
BRANCH  10  12
HETATM   12  S   UNL     1       6.382  -0.036  19.187  1.00  0.00     0.327 S 
HETATM   13 CL   UNL     1       5.269   1.511  18.980  1.00  0.00     0.042 Cl
HETATM   14  O   UNL     1       7.727   0.381  18.955  1.00  0.00    -0.188 OA
HETATM   15  O   UNL     1       5.874  -0.978  18.240  1.00  0.00    -0.188 OA
ENDBRANCH  10  12
ENDBRANCH   9  10
ENDBRANCH   1   8
BRANCH   1  16
HETATM   16  C   UNL     1       9.736  -1.697  23.011  1.00  0.00     0.038 C 
BRANCH  16  17
HETATM   17  C   UNL     1      10.607  -1.552  22.492  1.00  0.00    -0.007 C 
HETATM   18  C   UNL     1      11.918  -1.286  23.173  1.00  0.00     0.011 C 
ENDBRANCH  16  17
ENDBRANCH   1  16
BRANCH   6  19
HETATM   19  C   UNL     1       6.017  -4.960  25.048  1.00  0.00     0.084 A 
HETATM   20  S   UNL     1       6.190  -4.805  26.657  1.00  0.00    -0.051 SA
HETATM   21  N   UNL     1       5.433  -5.726  27.536  1.00  0.00    -0.348 N 
HETATM   22  C   UNL     1       5.061  -6.393  26.785  1.00  0.00     0.189 A 
ATOM     23  HN  UNL     1       5.305  -5.725  28.548  1.00  0.00     0.169 HD
HETATM   24  C   UNL     1       4.857  -6.685  25.639  1.00  0.00     0.013 A 
HETATM   25  C   UNL     1       5.205  -6.048  24.615  1.00  0.00     0.036 A 
ENDBRANCH   6  19
TORSDOF 6
ENDMDL
MODEL 4
REMARK VINA RESULT:    -6.117     28.927     30.528
REMARK INTER + INTRA:          -8.996
REMARK INTER:                  -8.252
REMARK INTRA:                  -0.744
REMARK UNBOUND:                -0.733
REMARK  6 active torsions:
REMARK  status: ('A' for Active; 'I' for Inactive)
REMARK    1  A    between atoms: S_2  and  N_5 
REMARK    2  A    between atoms: N_5  and  C_7 
REMARK    3  A    between atoms: C_8  and  C_9 
REMARK    4  A    between atoms: C_9  and  C_12 
REMARK    5  A    between atoms: C_11  and  C_12 
REMARK       I    between atoms: N_13  and  C_15 
REMARK       I    between atoms: C_15  and  N_17 
REMARK    6  A    between atoms: N_17  and  C_19 
ROOT
HETATM    1  C   UNL     1       9.103  18.077   0.821  1.00  0.00     0.092 C 
HETATM    2  N   UNL     1       9.888  18.969   1.179  1.00  0.00    -0.301 N 
ATOM      3  HN  UNL     1      10.063  19.551   0.360  1.00  0.00     0.171 HD
HETATM    4  C   UNL     1      10.619  19.503   2.201  1.00  0.00     0.326 C 
HETATM    5  O   UNL     1      11.236  20.504   2.009  1.00  0.00    -0.247 OA
HETATM    6  N   UNL     1      10.618  18.788   3.399  1.00  0.00    -0.302 N 
ATOM      7  HN  UNL     1      10.181  17.869   3.458  1.00  0.00     0.171 HD
ENDROOT
BRANCH   1   8
HETATM    8  C   UNL     1       8.962  16.820   1.152  1.00  0.00    -0.025 C 
HETATM    9  C   UNL     1       8.867  15.872   1.644  1.00  0.00     0.028 C 
BRANCH   9  10
HETATM   10  N   UNL     1       9.003  14.699   2.068  1.00  0.00    -0.229 N 
ATOM     11  HN  UNL     1       8.566  13.937   1.550  1.00  0.00     0.190 HD
BRANCH  10  12
HETATM   12  S   UNL     1       9.843  14.351   3.396  1.00  0.00     0.327 S 
HETATM   13 CL   UNL     1       9.062  15.521   4.697  1.00  0.00     0.042 Cl
HETATM   14  O   UNL     1       9.593  13.015   3.830  1.00  0.00    -0.188 OA
HETATM   15  O   UNL     1      11.223  14.720   3.357  1.00  0.00    -0.188 OA
ENDBRANCH  10  12
ENDBRANCH   9  10
ENDBRANCH   1   8
BRANCH   1  16
HETATM   16  C   UNL     1       8.160  18.789   0.033  1.00  0.00     0.038 C 
BRANCH  16  17
HETATM   17  C   UNL     1       8.144  19.748  -0.327  1.00  0.00    -0.007 C 
HETATM   18  C   UNL     1       6.903  20.591  -0.327  1.00  0.00     0.011 C 
ENDBRANCH  16  17
ENDBRANCH   1  16
BRANCH   6  19
HETATM   19  C   UNL     1      11.178  19.311   4.420  1.00  0.00     0.084 A 
HETATM   20  S   UNL     1      10.360  20.316   5.403  1.00  0.00    -0.051 SA
HETATM   21  N   UNL     1      11.058  20.855   6.593  1.00  0.00    -0.348 N 
HETATM   22  C   UNL     1      12.047  20.511   6.368  1.00  0.00     0.189 A 
ATOM     23  HN  UNL     1      10.704  21.391   7.386  1.00  0.00     0.169 HD
HETATM   24  C   UNL     1      12.812  19.839   5.733  1.00  0.00     0.013 A 
HETATM   25  C   UNL     1      12.549  19.106   4.748  1.00  0.00     0.036 A 
ENDBRANCH   6  19
TORSDOF 6
ENDMDL
MODEL 5
REMARK VINA RESULT:    -6.040      4.488      6.252
REMARK INTER + INTRA:          -8.891
REMARK INTER:                  -8.253
REMARK INTRA:                  -0.639
REMARK UNBOUND:                -0.733
REMARK  6 active torsions:
REMARK  status: ('A' for Active; 'I' for Inactive)
REMARK    1  A    between atoms: S_2  and  N_5 
REMARK    2  A    between atoms: N_5  and  C_7 
REMARK    3  A    between atoms: C_8  and  C_9 
REMARK    4  A    between atoms: C_9  and  C_12 
REMARK    5  A    between atoms: C_11  and  C_12 
REMARK       I    between atoms: N_13  and  C_15 
REMARK       I    between atoms: C_15  and  N_17 
REMARK    6  A    between atoms: N_17  and  C_19 
ROOT
HETATM    1  C   UNL     1       8.283  -2.515  23.136  1.00  0.00     0.092 C 
HETATM    2  N   UNL     1       7.302  -2.504  22.374  1.00  0.00    -0.301 N 
ATOM      3  HN  UNL     1       6.783  -3.364  22.554  1.00  0.00     0.171 HD
HETATM    4  C   UNL     1       6.621  -1.833  21.400  1.00  0.00     0.326 C 
HETATM    5  O   UNL     1       5.596  -2.285  20.995  1.00  0.00    -0.247 OA
HETATM    6  N   UNL     1       7.224  -0.673  20.915  1.00  0.00    -0.302 N 
ATOM      7  HN  UNL     1       8.167  -0.414  21.205  1.00  0.00     0.171 HD
ENDROOT
BRANCH   1   8
HETATM    8  C   UNL     1       9.512  -2.086  23.021  1.00  0.00    -0.025 C 
HETATM    9  C   UNL     1      10.522  -1.756  23.163  1.00  0.00     0.028 C 
BRANCH   9  10
HETATM   10  N   UNL     1      11.601  -1.117  23.209  1.00  0.00    -0.229 N 
ATOM     11  HN  UNL     1      12.372  -1.413  22.611  1.00  0.00     0.190 HD
BRANCH  10  12
HETATM   12  S   UNL     1      11.814   0.154  24.175  1.00  0.00     0.327 S 
HETATM   13 CL   UNL     1      10.392  -0.050  25.444  1.00  0.00     0.042 Cl
HETATM   14  O   UNL     1      13.039   0.053  24.898  1.00  0.00    -0.188 OA
HETATM   15  O   UNL     1      11.579   1.425  23.567  1.00  0.00    -0.188 OA
ENDBRANCH  10  12
ENDBRANCH   9  10
ENDBRANCH   1   8
BRANCH   1  16
HETATM   16  C   UNL     1       7.721  -2.963  24.361  1.00  0.00     0.038 C 
BRANCH  16  17
HETATM   17  C   UNL     1       7.928  -3.766  24.963  1.00  0.00    -0.007 C 
HETATM   18  C   UNL     1       8.462  -3.614  26.357  1.00  0.00     0.011 C 
ENDBRANCH  16  17
ENDBRANCH   1  16
BRANCH   6  19
HETATM   19  C   UNL     1       6.569   0.058  20.099  1.00  0.00     0.084 A 
HETATM   20  S   UNL     1       5.672   1.307  20.625  1.00  0.00    -0.051 SA
HETATM   21  N   UNL     1       4.969   2.139  19.621  1.00  0.00    -0.348 N 
HETATM   22  C   UNL     1       5.153   1.534  18.756  1.00  0.00     0.189 A 
ATOM     23  HN  UNL     1       4.465   3.020  19.721  1.00  0.00     0.169 HD
HETATM   24  C   UNL     1       5.715   0.633  18.198  1.00  0.00     0.013 A 
HETATM   25  C   UNL     1       6.526  -0.186  18.695  1.00  0.00     0.036 A 
ENDBRANCH   6  19
TORSDOF 6
ENDMDL
MODEL 6
REMARK VINA RESULT:    -5.981      4.006      7.887
REMARK INTER + INTRA:          -8.812
REMARK INTER:                  -8.049
REMARK INTRA:                  -0.763
REMARK UNBOUND:                -0.733
REMARK  6 active torsions:
REMARK  status: ('A' for Active; 'I' for Inactive)
REMARK    1  A    between atoms: S_2  and  N_5 
REMARK    2  A    between atoms: N_5  and  C_7 
REMARK    3  A    between atoms: C_8  and  C_9 
REMARK    4  A    between atoms: C_9  and  C_12 
REMARK    5  A    between atoms: C_11  and  C_12 
REMARK       I    between atoms: N_13  and  C_15 
REMARK       I    between atoms: C_15  and  N_17 
REMARK    6  A    between atoms: N_17  and  C_19 
ROOT
HETATM    1  C   UNL     1       9.145  -0.456  22.007  1.00  0.00     0.092 C 
HETATM    2  N   UNL     1       9.140  -1.527  22.636  1.00  0.00    -0.301 N 
ATOM      3  HN  UNL     1      10.035  -1.585  23.122  1.00  0.00     0.171 HD
HETATM    4  C   UNL     1       8.447  -2.659  22.953  1.00  0.00     0.326 C 
HETATM    5  O   UNL     1       8.926  -3.433  23.723  1.00  0.00    -0.247 OA
HETATM    6  N   UNL     1       7.230  -2.843  22.297  1.00  0.00    -0.302 N 
ATOM      7  HN  UNL     1       6.941  -2.213  21.549  1.00  0.00     0.171 HD
ENDROOT
BRANCH   1   8
HETATM    8  C   UNL     1       8.647  -0.089  20.855  1.00  0.00    -0.025 C 
HETATM    9  C   UNL     1       8.043   0.104  19.991  1.00  0.00     0.028 C 
BRANCH   9  10
HETATM   10  N   UNL     1       7.544   0.166  18.841  1.00  0.00    -0.229 N 
ATOM     11  HN  UNL     1       8.164   0.300  18.043  1.00  0.00     0.190 HD
BRANCH  10  12
HETATM   12  S   UNL     1       5.960   0.043  18.579  1.00  0.00     0.327 S 
HETATM   13 CL   UNL     1       5.446  -1.344  19.797  1.00  0.00     0.042 Cl
HETATM   14  O   UNL     1       5.276   1.229  18.981  1.00  0.00    -0.188 OA
HETATM   15  O   UNL     1       5.594  -0.451  17.289  1.00  0.00    -0.188 OA
ENDBRANCH  10  12
ENDBRANCH   9  10
ENDBRANCH   1   8
BRANCH   1  16
HETATM   16  C   UNL     1       9.694   0.455  22.948  1.00  0.00     0.038 C 
BRANCH  16  17
HETATM   17  C   UNL     1      10.647   0.798  23.103  1.00  0.00    -0.007 C 
HETATM   18  C   UNL     1      11.385   0.576  24.391  1.00  0.00     0.011 C 
ENDBRANCH  16  17
ENDBRANCH   1  16
BRANCH   6  19
HETATM   19  C   UNL     1       6.487  -3.817  22.655  1.00  0.00     0.084 A 
HETATM   20  S   UNL     1       6.522  -5.235  21.862  1.00  0.00    -0.051 SA
HETATM   21  N   UNL     1       5.663  -6.337  22.355  1.00  0.00    -0.348 N 
HETATM   22  C   UNL     1       5.098  -5.786  23.079  1.00  0.00     0.189 A 
ATOM     23  HN  UNL     1       5.622  -7.320  22.088  1.00  0.00     0.169 HD
HETATM   24  C   UNL     1       4.903  -4.806  23.745  1.00  0.00     0.013 A 
HETATM   25  C   UNL     1       5.546  -3.727  23.722  1.00  0.00     0.036 A 
ENDBRANCH   6  19
TORSDOF 6
ENDMDL
MODEL 7
REMARK VINA RESULT:    -5.709      4.052      6.993
REMARK INTER + INTRA:          -8.444
REMARK INTER:                  -7.834
REMARK INTRA:                  -0.610
REMARK UNBOUND:                -0.733
REMARK  6 active torsions:
REMARK  status: ('A' for Active; 'I' for Inactive)
REMARK    1  A    between atoms: S_2  and  N_5 
REMARK    2  A    between atoms: N_5  and  C_7 
REMARK    3  A    between atoms: C_8  and  C_9 
REMARK    4  A    between atoms: C_9  and  C_12 
REMARK    5  A    between atoms: C_11  and  C_12 
REMARK       I    between atoms: N_13  and  C_15 
REMARK       I    between atoms: C_15  and  N_17 
REMARK    6  A    between atoms: N_17  and  C_19 
ROOT
HETATM    1  C   UNL     1       7.812   0.087  20.974  1.00  0.00     0.092 C 
HETATM    2  N   UNL     1       7.082  -0.713  21.581  1.00  0.00    -0.301 N 
ATOM      3  HN  UNL     1       6.142  -0.596  21.202  1.00  0.00     0.171 HD
HETATM    4  C   UNL     1       7.000  -1.681  22.539  1.00  0.00     0.326 C 
HETATM    5  O   UNL     1       5.957  -2.228  22.721  1.00  0.00    -0.247 OA
HETATM    6  N   UNL     1       8.161  -1.921  23.275  1.00  0.00    -0.302 N 
ATOM      7  HN  UNL     1       8.981  -1.326  23.163  1.00  0.00     0.171 HD
ENDROOT
BRANCH   1   8
HETATM    8  C   UNL     1       8.852   0.798  21.326  1.00  0.00    -0.025 C 
HETATM    9  C   UNL     1       9.567   1.442  21.798  1.00  0.00     0.028 C 
BRANCH   9  10
HETATM   10  N   UNL     1      10.380   2.350  22.096  1.00  0.00    -0.229 N 
ATOM     11  HN  UNL     1      10.641   3.030  21.382  1.00  0.00     0.190 HD
BRANCH  10  12
HETATM   12  S   UNL     1      11.029   2.481  23.564  1.00  0.00     0.327 S 
HETATM   13 CL   UNL     1       9.489   2.410  24.704  1.00  0.00     0.042 Cl
HETATM   14  O   UNL     1      11.834   1.346  23.877  1.00  0.00    -0.188 OA
HETATM   15  O   UNL     1      11.635   3.743  23.850  1.00  0.00    -0.188 OA
ENDBRANCH  10  12
ENDBRANCH   9  10
ENDBRANCH   1   8
BRANCH   1  16
HETATM   16  C   UNL     1       7.384  -0.059  19.628  1.00  0.00     0.038 C 
BRANCH  16  17
HETATM   17  C   UNL     1       6.455  -0.084  19.197  1.00  0.00    -0.007 C 
HETATM   18  C   UNL     1       5.991   0.953  18.217  1.00  0.00     0.011 C 
ENDBRANCH  16  17
ENDBRANCH   1  16
BRANCH   6  19
HETATM   19  C   UNL     1       8.172  -2.903  24.090  1.00  0.00     0.084 A 
HETATM   20  S   UNL     1       8.297  -2.663  25.693  1.00  0.00    -0.051 SA
HETATM   21  N   UNL     1       8.263  -3.845  26.585  1.00  0.00    -0.348 N 
HETATM   22  C   UNL     1       8.317  -4.610  25.837  1.00  0.00     0.189 A 
ATOM     23  HN  UNL     1       8.206  -3.910  27.601  1.00  0.00     0.169 HD
HETATM   24  C   UNL     1       8.270  -4.976  24.695  1.00  0.00     0.013 A 
HETATM   25  C   UNL     1       8.132  -4.264  23.670  1.00  0.00     0.036 A 
ENDBRANCH   6  19
TORSDOF 6
ENDMDL
MODEL 8
REMARK VINA RESULT:    -5.438     14.469     16.201
REMARK INTER + INTRA:          -8.079
REMARK INTER:                  -7.411
REMARK INTRA:                  -0.668
REMARK UNBOUND:                -0.733
REMARK  6 active torsions:
REMARK  status: ('A' for Active; 'I' for Inactive)
REMARK    1  A    between atoms: S_2  and  N_5 
REMARK    2  A    between atoms: N_5  and  C_7 
REMARK    3  A    between atoms: C_8  and  C_9 
REMARK    4  A    between atoms: C_9  and  C_12 
REMARK    5  A    between atoms: C_11  and  C_12 
REMARK       I    between atoms: N_13  and  C_15 
REMARK       I    between atoms: C_15  and  N_17 
REMARK    6  A    between atoms: N_17  and  C_19 
ROOT
HETATM    1  C   UNL     1      22.802  -2.395  26.013  1.00  0.00     0.092 C 
HETATM    2  N   UNL     1      23.217  -1.662  26.925  1.00  0.00    -0.301 N 
ATOM      3  HN  UNL     1      23.191  -0.707  26.567  1.00  0.00     0.171 HD
HETATM    4  C   UNL     1      23.693  -1.589  28.202  1.00  0.00     0.326 C 
HETATM    5  O   UNL     1      23.923  -0.519  28.672  1.00  0.00    -0.247 OA
HETATM    6  N   UNL     1      23.922  -2.805  28.846  1.00  0.00    -0.302 N 
ATOM      7  HN  UNL     1      23.835  -3.687  28.341  1.00  0.00     0.171 HD
ENDROOT
BRANCH   1   8
HETATM    8  C   UNL     1      23.105  -3.607  25.627  1.00  0.00    -0.025 C 
HETATM    9  C   UNL     1      23.484  -4.488  25.148  1.00  0.00     0.028 C 
BRANCH   9  10
HETATM   10  N   UNL     1      23.640  -5.570  24.531  1.00  0.00    -0.229 N 
ATOM     11  HN  UNL     1      23.336  -5.628  23.559  1.00  0.00     0.190 HD
BRANCH  10  12
HETATM   12  S   UNL     1      24.301  -6.868  25.216  1.00  0.00     0.327 S 
HETATM   13 CL   UNL     1      26.172  -6.588  24.910  1.00  0.00     0.042 Cl
HETATM   14  O   UNL     1      24.101  -6.865  26.628  1.00  0.00    -0.188 OA
HETATM   15  O   UNL     1      24.010  -8.110  24.571  1.00  0.00    -0.188 OA
ENDBRANCH  10  12
ENDBRANCH   9  10
ENDBRANCH   1   8
BRANCH   1  16
HETATM   16  C   UNL     1      21.683  -1.674  25.517  1.00  0.00     0.038 C 
BRANCH  16  17
HETATM   17  C   UNL     1      21.605  -0.858  24.902  1.00  0.00    -0.007 C 
HETATM   18  C   UNL     1      20.510  -0.717  23.885  1.00  0.00     0.011 C 
ENDBRANCH  16  17
ENDBRANCH   1  16
BRANCH   6  19
HETATM   19  C   UNL     1      24.242  -2.788  30.081  1.00  0.00     0.084 A 
HETATM   20  S   UNL     1      25.800  -2.805  30.545  1.00  0.00    -0.051 SA
HETATM   21  N   UNL     1      26.102  -2.743  31.994  1.00  0.00    -0.348 N 
HETATM   22  C   UNL     1      25.106  -2.863  32.369  1.00  0.00     0.189 A 
ATOM     23  HN  UNL     1      26.987  -2.622  32.485  1.00  0.00     0.169 HD
HETATM   24  C   UNL     1      23.916  -2.897  32.215  1.00  0.00     0.013 A 
HETATM   25  C   UNL     1      23.283  -2.807  31.135  1.00  0.00     0.036 A 
ENDBRANCH   6  19
TORSDOF 6
ENDMDL
MODEL 9
REMARK VINA RESULT:    -5.390      3.154      4.379
REMARK INTER + INTRA:          -8.013
REMARK INTER:                  -7.397
REMARK INTRA:                  -0.616
REMARK UNBOUND:                -0.733
REMARK  6 active torsions:
REMARK  status: ('A' for Active; 'I' for Inactive)
REMARK    1  A    between atoms: S_2  and  N_5 
REMARK    2  A    between atoms: N_5  and  C_7 
REMARK    3  A    between atoms: C_8  and  C_9 
REMARK    4  A    between atoms: C_9  and  C_12 
REMARK    5  A    between atoms: C_11  and  C_12 
REMARK       I    between atoms: N_13  and  C_15 
REMARK       I    between atoms: C_15  and  N_17 
REMARK    6  A    between atoms: N_17  and  C_19 
ROOT
HETATM    1  C   UNL     1       4.066  -6.534  23.924  1.00  0.00     0.092 C 
HETATM    2  N   UNL     1       4.623  -6.058  22.921  1.00  0.00    -0.301 N 
ATOM      3  HN  UNL     1       4.255  -6.564  22.115  1.00  0.00     0.171 HD
HETATM    4  C   UNL     1       5.517  -5.148  22.437  1.00  0.00     0.326 C 
HETATM    5  O   UNL     1       5.667  -5.055  21.258  1.00  0.00    -0.247 OA
HETATM    6  N   UNL     1       6.232  -4.420  23.388  1.00  0.00    -0.302 N 
ATOM      7  HN  UNL     1       6.157  -4.643  24.380  1.00  0.00     0.171 HD
ENDROOT
BRANCH   1   8
HETATM    8  C   UNL     1       4.459  -6.746  25.152  1.00  0.00    -0.025 C 
HETATM    9  C   UNL     1       4.799  -6.684  26.167  1.00  0.00     0.028 C 
BRANCH   9  10
HETATM   10  N   UNL     1       5.427  -6.769  27.250  1.00  0.00    -0.229 N 
ATOM     11  HN  UNL     1       5.201  -7.530  27.890  1.00  0.00     0.190 HD
BRANCH  10  12
HETATM   12  S   UNL     1       6.577  -5.722  27.668  1.00  0.00     0.327 S 
HETATM   13 CL   UNL     1       5.839  -4.048  27.095  1.00  0.00     0.042 Cl
HETATM   14  O   UNL     1       6.722  -5.653  29.085  1.00  0.00    -0.188 OA
HETATM   15  O   UNL     1       7.802  -5.845  26.944  1.00  0.00    -0.188 OA
ENDBRANCH  10  12
ENDBRANCH   9  10
ENDBRANCH   1   8
BRANCH   1  16
HETATM   16  C   UNL     1       2.714  -6.652  23.503  1.00  0.00     0.038 C 
BRANCH  16  17
HETATM   17  C   UNL     1       1.981  -5.958  23.329  1.00  0.00    -0.007 C 
HETATM   18  C   UNL     1       1.021  -5.514  24.393  1.00  0.00     0.011 C 
ENDBRANCH  16  17
ENDBRANCH   1  16
BRANCH   6  19
HETATM   19  C   UNL     1       6.983  -3.469  22.987  1.00  0.00     0.084 A 
HETATM   20  S   UNL     1       8.568  -3.442  23.346  1.00  0.00    -0.051 SA
HETATM   21  N   UNL     1       9.390  -2.330  22.814  1.00  0.00    -0.348 N 
HETATM   22  C   UNL     1       8.600  -1.719  22.427  1.00  0.00     0.189 A 
ATOM     23  HN  UNL     1      10.400  -2.188  22.817  1.00  0.00     0.169 HD
HETATM   24  C   UNL     1       7.454  -1.549  22.113  1.00  0.00     0.013 A 
HETATM   25  C   UNL     1       6.496  -2.348  22.254  1.00  0.00     0.036 A 
ENDBRANCH   6  19
TORSDOF 6
ENDMDL
