stable:False satoms:9 tatoms:24 sratio:0.375
  -OEChem-08062417473D

 45 46  0     1  0  0  0  0  0999 V2000
    6.3110   -5.3206   26.3741 C   0  0  0  0  0  0  0  0  0  0  0  0
    7.9752   -4.6783   26.1322 S   0  0  0  0  0  0  0  0  0  0  0  0
    8.8402   -5.8190   26.0475 O   0  0  0  0  0  0  0  0  0  0  0  0
    8.2611   -3.8215   27.2468 O   0  0  0  0  0  0  0  0  0  0  0  0
    7.9360   -3.8521   24.7043 N   0  0  0  0  0  0  0  0  0  0  0  0
    8.7738   -3.1900   24.2798 C   0  0  0  0  0  0  0  0  0  0  0  0
    9.2401   -2.1982   23.7168 C   0  0  0  0  0  0  0  0  0  0  0  0
   10.1704   -1.3033   23.5918 C   0  0  2  0  0  0  0  0  0  0  0  0
   10.7615   -0.2854   24.6257 C   0  0  0  0  0  0  0  0  0  0  0  0
   11.8408    0.0645   24.7224 C   0  0  0  0  0  0  0  0  0  0  0  0
   12.9506   -0.3555   23.9935 C   0  0  0  0  0  0  0  0  0  0  0  0
   12.6772   -1.3969   23.0828 C   0  0  0  0  0  0  0  0  0  0  0  0
   11.7514   -1.8820   22.8398 C   0  0  0  0  0  0  0  0  0  0  0  0
    9.6365   -0.7913   22.6508 C   0  0  2  0  0  0  0  0  0  0  0  0
    9.0181   -0.1231   21.6447 C   0  0  0  0  0  0  0  0  0  0  0  0
    9.4816    0.8732   21.2992 O   0  0  0  0  0  0  0  0  0  0  0  0
    7.9437   -0.7491   21.2168 N   0  0  0  0  0  0  0  0  0  0  0  0
    7.2187   -0.2420   20.3065 C   0  0  0  0  0  0  0  0  0  0  0  0
    7.3814   -0.0911   18.9739 C   0  0  0  0  0  0  0  0  0  0  0  0
    6.9587    0.2534   17.8974 N   0  0  0  0  0  0  0  0  0  0  0  0
    5.8206    0.7949   18.3016 C   0  0  0  0  0  0  0  0  0  0  0  0
    5.3659    0.8415   19.4859 C   0  0  0  0  0  0  0  0  0  0  0  0
    5.8699    0.3713   20.6101 C   0  0  0  0  0  0  0  0  0  0  0  0
    5.2354    0.3867   22.0443 C   0  0  0  0  0  0  0  0  0  0  0  0
    6.2691   -5.8863   27.3166 H   0  0  0  0  0  0  0  0  0  0  0  0
    5.5979   -4.4841   26.4167 H   0  0  0  0  0  0  0  0  0  0  0  0
    6.0487   -5.9837   25.5366 H   0  0  0  0  0  0  0  0  0  0  0  0
    7.1382   -3.2529   24.7711 H   0  0  0  0  0  0  0  0  0  0  0  0
    9.6592   -3.7677   24.5009 H   0  0  0  0  0  0  0  0  0  0  0  0
   11.0596   -1.8345   23.2213 H   0  0  0  0  0  0  0  0  0  0  0  0
   10.0608    0.1352   25.3318 H   0  0  0  0  0  0  0  0  0  0  0  0
   12.0273    0.8169   25.4744 H   0  0  0  0  0  0  0  0  0  0  0  0
   13.7165   -0.7064   24.7007 H   0  0  0  0  0  0  0  0  0  0  0  0
   13.3394    0.5048   23.4289 H   0  0  0  0  0  0  0  0  0  0  0  0
   13.5374   -1.7652   22.5436 H   0  0  0  0  0  0  0  0  0  0  0  0
   11.7330   -2.6732   22.1050 H   0  0  0  0  0  0  0  0  0  0  0  0
   10.8381   -1.5790   23.3301 H   0  0  0  0  0  0  0  0  0  0  0  0
   10.1678   -1.4428   21.9414 H   0  0  0  0  0  0  0  0  0  0  0  0
    7.6955   -1.6333   21.6123 H   0  0  0  0  0  0  0  0  0  0  0  0
    8.3771   -0.4586   18.7744 H   0  0  0  0  0  0  0  0  0  0  0  0
    5.2088    1.2492   17.5362 H   0  0  0  0  0  0  0  0  0  0  0  0
    4.4165    1.3458   19.5891 H   0  0  0  0  0  0  0  0  0  0  0  0
    4.6362   -0.5241   22.1905 H   0  0  0  0  0  0  0  0  0  0  0  0
    6.0352    0.4242   22.7986 H   0  0  0  0  0  0  0  0  0  0  0  0
    4.5899    1.2711   22.1501 H   0  0  0  0  0  0  0  0  0  0  0  0
 20 21  2  0  0  0  0
 19 20  1  0  0  0  0
 21 22  1  0  0  0  0
 18 19  2  0  0  0  0
 22 23  2  0  0  0  0
 18 23  1  0  0  0  0
 17 18  1  0  0  0  0
 23 24  1  0  0  0  0
 15 16  2  0  0  0  0
 15 17  1  0  0  0  0
 14 15  1  0  0  0  0
  8 14  1  0  0  0  0
  7 14  1  0  0  0  0
 12 13  2  0  0  0  0
 11 12  1  0  0  0  0
  7  8  1  0  0  0  0
  8  9  1  0  0  0  0
 10 11  1  0  0  0  0
  6  7  2  3  0  0  0
  5  6  1  0  0  0  0
  9 10  2  0  0  0  0
  2  5  1  0  0  0  0
  2  3  2  0  0  0  0
  1  2  1  0  0  0  0
  2  4  2  0  0  0  0
  1 25  1  0  0  0  0
  1 26  1  0  0  0  0
  1 27  1  0  0  0  0
  5 28  1  0  0  0  0
  6 29  1  0  0  0  0
  8 30  1  0  0  0  0
  9 31  1  0  0  0  0
 10 32  1  0  0  0  0
 11 33  1  0  0  0  0
 11 34  1  0  0  0  0
 12 35  1  0  0  0  0
 13 36  1  0  0  0  0
 13 37  1  0  0  0  0
 14 38  1  0  0  0  0
 17 39  1  0  0  0  0
 19 40  1  0  0  0  0
 21 41  1  0  0  0  0
 22 42  1  0  0  0  0
 24 43  1  0  0  0  0
 24 44  1  0  0  0  0
 24 45  1  0  0  0  0
M  END
> <Chemgauss4>
-13.116187

$$$$
