REMARK  5 active torsions:
REMARK  status: ('A' for Active; 'I' for Inactive)
REMARK    1  A    between atoms: S_2  and  N_5 
REMARK    2  A    between atoms: N_5  and  C_7 
REMARK    3  A    between atoms: C_7  and  C_8 
REMARK    4  A    between atoms: C_15  and  C_16 
REMARK       I    between atoms: C_16  and  N_18 
REMARK    5  A    between atoms: N_18  and  C_20 
ROOT
HETATM    1  C   UNL     1       9.419  -1.974  23.559  1.00  0.00     0.040 A 
HETATM    2  C   UNL     1      10.381  -1.127  23.251  1.00  0.00     0.066 A 
HETATM    3  C   UNL     1      11.061  -0.041  24.273  1.00  0.00    -0.003 C 
HETATM    4  C   UNL     1      12.116   0.262  24.255  1.00  0.00    -0.002 C 
HETATM    5  C   UNL     1      13.121  -0.226  23.479  1.00  0.00    -0.001 C 
HETATM    6  C   UNL     1      12.792  -1.247  22.698  1.00  0.00    -0.002 C 
HETATM    7  C   UNL     1      11.741  -1.679  22.595  1.00  0.00    -0.003 C 
HETATM    8  C   UNL     1       9.681  -0.637  22.411  1.00  0.00     0.049 A 
ENDROOT
BRANCH   8   9
HETATM    9  C   UNL     1       9.044   0.014  21.372  1.00  0.00     0.255 C 
HETATM   10  O   UNL     1       9.600   0.916  20.926  1.00  0.00    -0.268 OA
HETATM   11  N   UNL     1       7.905  -0.561  21.033  1.00  0.00    -0.324 N 
ATOM     12  HN  UNL     1       7.639  -1.442  21.474  1.00  0.00     0.169 HD
BRANCH  11  13
HETATM   13  C   UNL     1       7.137  -0.041  20.172  1.00  0.00     0.046 A 
HETATM   14  C   UNL     1       7.101   0.106  18.832  1.00  0.00     0.154 A 
HETATM   15  N   UNL     1       6.759   0.360  17.651  1.00  0.00    -0.400 N 
HETATM   16  C   UNL     1       5.769   0.807  18.318  1.00  0.00     0.129 A 
ATOM     17  HN  UNL     1       7.090   0.263  16.691  1.00  0.00     0.154 HD
HETATM   18  C   UNL     1       5.248   0.979  19.458  1.00  0.00     0.012 A 
HETATM   19  C   UNL     1       5.806   0.593  20.582  1.00  0.00    -0.022 A 
HETATM   20  C   UNL     1       5.380   0.683  21.840  1.00  0.00     0.025 C 
ENDBRANCH  11  13
ENDBRANCH   8   9
BRANCH   1  21
HETATM   21  C   UNL     1       8.921  -2.886  24.156  1.00  0.00    -0.022 C 
BRANCH  21  22
HETATM   22  N   UNL     1       8.136  -3.575  24.667  1.00  0.00    -0.249 N 
ATOM     23  HN  UNL     1       7.292  -3.746  24.120  1.00  0.00     0.188 HD
BRANCH  22  24
HETATM   24  S   UNL     1       8.174  -4.317  26.134  1.00  0.00     0.233 S 
HETATM   25  C   UNL     1       6.659  -4.851  26.389  1.00  0.00     0.186 C 
HETATM   26  O   UNL     1       9.095  -5.444  26.075  1.00  0.00    -0.205 OA
HETATM   27  O   UNL     1       8.536  -3.409  27.168  1.00  0.00    -0.205 OA
ENDBRANCH  22  24
ENDBRANCH  21  22
ENDBRANCH   1  21
TORSDOF 5
