MODEL 1
REMARK VINA RESULT:    -8.165      0.000      0.000
REMARK INTER + INTRA:         -11.195
REMARK INTER:                 -10.551
REMARK INTRA:                  -0.644
REMARK UNBOUND:                -0.644
REMARK  5 active torsions:
REMARK  status: ('A' for Active; 'I' for Inactive)
REMARK    1  A    between atoms: S_2  and  N_5 
REMARK    2  A    between atoms: N_5  and  C_7 
REMARK    3  A    between atoms: C_7  and  C_8 
REMARK    4  A    between atoms: C_15  and  C_16 
REMARK       I    between atoms: C_16  and  N_18 
REMARK    5  A    between atoms: N_18  and  C_20 
ROOT
HETATM    1  C   UNL     1       8.943  -2.437  23.485  1.00  0.00     0.040 A 
HETATM    2  C   UNL     1       9.778  -1.419  23.420  1.00  0.00     0.066 A 
HETATM    3  C   UNL     1      10.045  -0.325  24.611  1.00  0.00    -0.003 C 
HETATM    4  C   UNL     1      11.012   0.149  24.823  1.00  0.00    -0.002 C 
HETATM    5  C   UNL     1      12.218  -0.098  24.243  1.00  0.00    -0.001 C 
HETATM    6  C   UNL     1      12.232  -1.090  23.362  1.00  0.00    -0.002 C 
HETATM    7  C   UNL     1      11.315  -1.681  23.027  1.00  0.00    -0.003 C 
HETATM    8  C   UNL     1       9.175  -0.983  22.481  1.00  0.00     0.049 A 
ENDROOT
BRANCH   8   9
HETATM    9  C   UNL     1       8.642  -0.362  21.368  1.00  0.00     0.255 C 
HETATM   10  O   UNL     1       9.349   0.343  20.797  1.00  0.00    -0.268 OA
HETATM   11  N   UNL     1       7.401  -0.737  21.121  1.00  0.00    -0.324 N 
ATOM     12  HN  UNL     1       6.982  -1.480  21.682  1.00  0.00     0.169 HD
BRANCH  11  13
HETATM   13  C   UNL     1       6.720  -0.193  20.204  1.00  0.00     0.046 A 
HETATM   14  C   UNL     1       6.329  -0.489  18.948  1.00  0.00     0.154 A 
HETATM   15  N   UNL     1       5.781  -0.486  17.818  1.00  0.00    -0.400 N 
HETATM   16  C   UNL     1       5.370   0.612  18.318  1.00  0.00     0.129 A 
ATOM     17  HN  UNL     1       5.707  -1.048  16.970  1.00  0.00     0.154 HD
HETATM   18  C   UNL     1       5.377   1.394  19.312  1.00  0.00     0.012 A 
HETATM   19  C   UNL     1       6.027   1.152  20.427  1.00  0.00    -0.022 A 
HETATM   20  C   UNL     1       6.113   1.857  21.553  1.00  0.00     0.025 C 
ENDBRANCH  11  13
ENDBRANCH   8   9
BRANCH   1  21
HETATM   21  C   UNL     1       8.512  -3.466  23.922  1.00  0.00    -0.022 C 
BRANCH  21  22
HETATM   22  N   UNL     1       8.384  -4.425  24.568  1.00  0.00    -0.249 N 
ATOM     23  HN  UNL     1       8.611  -5.298  24.091  1.00  0.00     0.188 HD
BRANCH  22  24
HETATM   24  S   UNL     1       7.893  -4.593  26.128  1.00  0.00     0.233 S 
HETATM   25  C   UNL     1       6.851  -3.372  26.389  1.00  0.00     0.186 C 
HETATM   26  O   UNL     1       7.210  -5.871  26.278  1.00  0.00    -0.205 OA
HETATM   27  O   UNL     1       8.986  -4.483  27.033  1.00  0.00    -0.205 OA
ENDBRANCH  22  24
ENDBRANCH  21  22
ENDBRANCH   1  21
TORSDOF 5
ENDMDL
MODEL 2
REMARK VINA RESULT:    -7.910      3.721      5.552
REMARK INTER + INTRA:         -10.866
REMARK INTER:                 -10.138
REMARK INTRA:                  -0.728
REMARK UNBOUND:                -0.644
REMARK  5 active torsions:
REMARK  status: ('A' for Active; 'I' for Inactive)
REMARK    1  A    between atoms: S_2  and  N_5 
REMARK    2  A    between atoms: N_5  and  C_7 
REMARK    3  A    between atoms: C_7  and  C_8 
REMARK    4  A    between atoms: C_15  and  C_16 
REMARK       I    between atoms: C_16  and  N_18 
REMARK    5  A    between atoms: N_18  and  C_20 
ROOT
HETATM    1  C   UNL     1       8.078  -4.729  25.265  1.00  0.00     0.040 A 
HETATM    2  C   UNL     1       7.600  -4.539  24.052  1.00  0.00     0.066 A 
HETATM    3  C   UNL     1       7.641  -5.628  22.827  1.00  0.00    -0.003 C 
HETATM    4  C   UNL     1       6.860  -5.745  22.065  1.00  0.00    -0.002 C 
HETATM    5  C   UNL     1       5.658  -5.113  21.984  1.00  0.00    -0.001 C 
HETATM    6  C   UNL     1       5.370  -4.307  22.999  1.00  0.00    -0.002 C 
HETATM    7  C   UNL     1       6.072  -4.073  23.867  1.00  0.00    -0.003 C 
HETATM    8  C   UNL     1       8.341  -3.609  23.905  1.00  0.00     0.049 A 
ENDROOT
BRANCH   8   9
HETATM    9  C   UNL     1       9.079  -2.488  23.576  1.00  0.00     0.255 C 
HETATM   10  O   UNL     1       9.184  -2.265  22.453  1.00  0.00    -0.268 OA
HETATM   11  N   UNL     1       9.500  -1.827  24.638  1.00  0.00    -0.324 N 
ATOM     12  HN  UNL     1       9.192  -2.122  25.565  1.00  0.00     0.169 HD
BRANCH  11  13
HETATM   13  C   UNL     1      10.278  -0.834  24.528  1.00  0.00     0.046 A 
HETATM   14  C   UNL     1      11.589  -0.620  24.296  1.00  0.00     0.154 A 
HETATM   15  N   UNL     1      12.707  -0.099  24.063  1.00  0.00    -0.400 N 
HETATM   16  C   UNL     1      11.956   0.924  24.183  1.00  0.00     0.129 A 
ATOM     17  HN  UNL     1      13.678  -0.354  23.879  1.00  0.00     0.154 HD
HETATM   18  C   UNL     1      10.790   1.365  24.394  1.00  0.00     0.012 A 
HETATM   19  C   UNL     1       9.743   0.598  24.594  1.00  0.00    -0.022 A 
HETATM   20  C   UNL     1       8.466   0.908  24.806  1.00  0.00     0.025 C 
ENDBRANCH  11  13
ENDBRANCH   8   9
BRANCH   1  21
HETATM   21  C   UNL     1       8.155  -5.267  26.333  1.00  0.00    -0.022 C 
BRANCH  21  22
HETATM   22  N   UNL     1       7.881  -5.865  27.292  1.00  0.00    -0.249 N 
ATOM     23  HN  UNL     1       8.627  -6.457  27.658  1.00  0.00     0.188 HD
BRANCH  22  24
HETATM   24  S   UNL     1       6.478  -5.907  28.148  1.00  0.00     0.233 S 
HETATM   25  C   UNL     1       5.745  -4.486  27.850  1.00  0.00     0.186 C 
HETATM   26  O   UNL     1       5.653  -7.004  27.660  1.00  0.00    -0.205 OA
HETATM   27  O   UNL     1       6.723  -6.029  29.545  1.00  0.00    -0.205 OA
ENDBRANCH  22  24
ENDBRANCH  21  22
ENDBRANCH   1  21
TORSDOF 5
ENDMDL
MODEL 3
REMARK VINA RESULT:    -7.788      2.513      6.393
REMARK INTER + INTRA:         -10.708
REMARK INTER:                  -9.804
REMARK INTRA:                  -0.904
REMARK UNBOUND:                -0.644
REMARK  5 active torsions:
REMARK  status: ('A' for Active; 'I' for Inactive)
REMARK    1  A    between atoms: S_2  and  N_5 
REMARK    2  A    between atoms: N_5  and  C_7 
REMARK    3  A    between atoms: C_7  and  C_8 
REMARK    4  A    between atoms: C_15  and  C_16 
REMARK       I    between atoms: C_16  and  N_18 
REMARK    5  A    between atoms: N_18  and  C_20 
ROOT
HETATM    1  C   UNL     1       9.325  -0.189  22.709  1.00  0.00     0.040 A 
HETATM    2  C   UNL     1      10.351  -0.667  23.386  1.00  0.00     0.066 A 
HETATM    3  C   UNL     1      11.588  -1.539  22.757  1.00  0.00    -0.003 C 
HETATM    4  C   UNL     1      12.629  -1.489  23.101  1.00  0.00    -0.002 C 
HETATM    5  C   UNL     1      13.170  -0.663  24.037  1.00  0.00    -0.001 C 
HETATM    6  C   UNL     1      12.343   0.245  24.540  1.00  0.00    -0.002 C 
HETATM    7  C   UNL     1      11.232   0.326  24.292  1.00  0.00    -0.003 C 
HETATM    8  C   UNL     1       9.602  -1.304  24.071  1.00  0.00     0.049 A 
ENDROOT
BRANCH   8   9
HETATM    9  C   UNL     1       8.897  -2.062  24.986  1.00  0.00     0.255 C 
HETATM   10  O   UNL     1       8.728  -1.580  26.016  1.00  0.00    -0.268 OA
HETATM   11  N   UNL     1       8.487  -3.213  24.486  1.00  0.00    -0.324 N 
ATOM     12  HN  UNL     1       8.633  -3.408  23.495  1.00  0.00     0.169 HD
BRANCH  11  13
HETATM   13  C   UNL     1       7.917  -4.079  25.212  1.00  0.00     0.046 A 
HETATM   14  C   UNL     1       8.261  -4.931  26.199  1.00  0.00     0.154 A 
HETATM   15  N   UNL     1       8.249  -5.770  27.133  1.00  0.00    -0.400 N 
HETATM   16  C   UNL     1       7.021  -5.731  26.792  1.00  0.00     0.129 A 
ATOM     17  HN  UNL     1       8.874  -6.229  27.796  1.00  0.00     0.154 HD
HETATM   18  C   UNL     1       6.147  -5.227  26.029  1.00  0.00     0.012 A 
HETATM   19  C   UNL     1       6.409  -4.319  25.117  1.00  0.00    -0.022 A 
HETATM   20  C   UNL     1       5.606  -3.688  24.264  1.00  0.00     0.025 C 
ENDBRANCH  11  13
ENDBRANCH   8   9
BRANCH   1  21
HETATM   21  C   UNL     1       8.790   0.481  21.872  1.00  0.00    -0.022 C 
BRANCH  21  22
HETATM   22  N   UNL     1       7.974   1.015  21.239  1.00  0.00    -0.249 N 
ATOM     23  HN  UNL     1       7.864   2.011  21.431  1.00  0.00     0.188 HD
BRANCH  22  24
HETATM   24  S   UNL     1       6.969   0.415  20.084  1.00  0.00     0.233 S 
HETATM   25  C   UNL     1       5.748   1.484  19.974  1.00  0.00     0.186 C 
HETATM   26  O   UNL     1       7.685   0.347  18.817  1.00  0.00    -0.205 OA
HETATM   27  O   UNL     1       6.452  -0.858  20.453  1.00  0.00    -0.205 OA
ENDBRANCH  22  24
ENDBRANCH  21  22
ENDBRANCH   1  21
TORSDOF 5
ENDMDL
MODEL 4
REMARK VINA RESULT:    -7.364      2.831      5.093
REMARK INTER + INTRA:         -10.161
REMARK INTER:                  -9.310
REMARK INTRA:                  -0.851
REMARK UNBOUND:                -0.644
REMARK  5 active torsions:
REMARK  status: ('A' for Active; 'I' for Inactive)
REMARK    1  A    between atoms: S_2  and  N_5 
REMARK    2  A    between atoms: N_5  and  C_7 
REMARK    3  A    between atoms: C_7  and  C_8 
REMARK    4  A    between atoms: C_15  and  C_16 
REMARK       I    between atoms: C_16  and  N_18 
REMARK    5  A    between atoms: N_18  and  C_20 
ROOT
HETATM    1  C   UNL     1       7.557  -4.842  25.479  1.00  0.00     0.040 A 
HETATM    2  C   UNL     1       7.149  -4.754  24.228  1.00  0.00     0.066 A 
HETATM    3  C   UNL     1       7.592  -5.752  23.006  1.00  0.00    -0.003 C 
HETATM    4  C   UNL     1       6.941  -6.055  22.176  1.00  0.00    -0.002 C 
HETATM    5  C   UNL     1       5.623  -5.775  21.992  1.00  0.00    -0.001 C 
HETATM    6  C   UNL     1       5.039  -5.111  22.982  1.00  0.00    -0.002 C 
HETATM    7  C   UNL     1       5.573  -4.720  23.911  1.00  0.00    -0.003 C 
HETATM    8  C   UNL     1       7.614  -3.652  24.154  1.00  0.00     0.049 A 
ENDROOT
BRANCH   8   9
HETATM    9  C   UNL     1       8.038  -2.362  23.900  1.00  0.00     0.255 C 
HETATM   10  O   UNL     1       7.811  -1.587  24.718  1.00  0.00    -0.268 OA
HETATM   11  N   UNL     1       8.690  -2.257  22.757  1.00  0.00    -0.324 N 
ATOM     12  HN  UNL     1       8.900  -3.100  22.222  1.00  0.00     0.169 HD
BRANCH  11  13
HETATM   13  C   UNL     1       9.060  -1.131  22.313  1.00  0.00     0.046 A 
HETATM   14  C   UNL     1       8.483  -0.031  21.788  1.00  0.00     0.154 A 
HETATM   15  N   UNL     1       8.258   1.115  21.327  1.00  0.00    -0.400 N 
HETATM   16  C   UNL     1       9.521   1.137  21.493  1.00  0.00     0.129 A 
ATOM     17  HN  UNL     1       7.490   1.702  21.000  1.00  0.00     0.154 HD
HETATM   18  C   UNL     1      10.553   0.513  21.877  1.00  0.00     0.012 A 
HETATM   19  C   UNL     1      10.530  -0.708  22.359  1.00  0.00    -0.022 A 
HETATM   20  C   UNL     1      11.513  -1.481  22.817  1.00  0.00     0.025 C 
ENDBRANCH  11  13
ENDBRANCH   8   9
BRANCH   1  21
HETATM   21  C   UNL     1       7.689  -5.371  26.546  1.00  0.00    -0.022 C 
BRANCH  21  22
HETATM   22  N   UNL     1       7.586  -6.121  27.428  1.00  0.00    -0.249 N 
ATOM     23  HN  UNL     1       8.347  -6.795  27.512  1.00  0.00     0.188 HD
BRANCH  22  24
HETATM   24  S   UNL     1       6.404  -6.265  28.562  1.00  0.00     0.233 S 
HETATM   25  C   UNL     1       5.012  -6.368  27.727  1.00  0.00     0.186 C 
HETATM   26  O   UNL     1       6.618  -7.489  29.323  1.00  0.00    -0.205 OA
HETATM   27  O   UNL     1       6.360  -5.128  29.417  1.00  0.00    -0.205 OA
ENDBRANCH  22  24
ENDBRANCH  21  22
ENDBRANCH   1  21
TORSDOF 5
ENDMDL
MODEL 5
REMARK VINA RESULT:    -7.232      3.602      6.394
REMARK INTER + INTRA:          -9.989
REMARK INTER:                  -9.121
REMARK INTRA:                  -0.868
REMARK UNBOUND:                -0.644
REMARK  5 active torsions:
REMARK  status: ('A' for Active; 'I' for Inactive)
REMARK    1  A    between atoms: S_2  and  N_5 
REMARK    2  A    between atoms: N_5  and  C_7 
REMARK    3  A    between atoms: C_7  and  C_8 
REMARK    4  A    between atoms: C_15  and  C_16 
REMARK       I    between atoms: C_16  and  N_18 
REMARK    5  A    between atoms: N_18  and  C_20 
ROOT
HETATM    1  C   UNL     1       7.824   1.137  21.450  1.00  0.00     0.040 A 
HETATM    2  C   UNL     1       6.997   0.557  20.603  1.00  0.00     0.066 A 
HETATM    3  C   UNL     1       5.466   1.045  20.278  1.00  0.00    -0.003 C 
HETATM    4  C   UNL     1       4.979   0.971  19.297  1.00  0.00    -0.002 C 
HETATM    5  C   UNL     1       5.517   0.560  18.117  1.00  0.00    -0.001 C 
HETATM    6  C   UNL     1       6.814   0.285  18.148  1.00  0.00    -0.002 C 
HETATM    7  C   UNL     1       7.465   0.308  19.085  1.00  0.00    -0.003 C 
HETATM    8  C   UNL     1       7.063  -0.460  21.233  1.00  0.00     0.049 A 
ENDROOT
BRANCH   8   9
HETATM    9  C   UNL     1       7.056  -1.721  21.797  1.00  0.00     0.255 C 
HETATM   10  O   UNL     1       8.052  -2.077  22.247  1.00  0.00    -0.268 OA
HETATM   11  N   UNL     1       5.864  -2.287  21.764  1.00  0.00    -0.324 N 
ATOM     12  HN  UNL     1       5.064  -1.749  21.428  1.00  0.00     0.169 HD
BRANCH  11  13
HETATM   13  C   UNL     1       5.694  -3.483  22.141  1.00  0.00     0.046 A 
HETATM   14  C   UNL     1       5.868  -4.720  21.633  1.00  0.00     0.154 A 
HETATM   15  N   UNL     1       5.955  -5.962  21.474  1.00  0.00    -0.400 N 
HETATM   16  C   UNL     1       5.539  -5.874  22.676  1.00  0.00     0.129 A 
ATOM     17  HN  UNL     1       6.215  -6.656  20.773  1.00  0.00     0.154 HD
HETATM   18  C   UNL     1       5.198  -5.114  23.628  1.00  0.00     0.012 A 
HETATM   19  C   UNL     1       5.215  -3.803  23.558  1.00  0.00    -0.022 A 
HETATM   20  C   UNL     1       4.909  -2.880  24.468  1.00  0.00     0.025 C 
ENDBRANCH  11  13
ENDBRANCH   8   9
BRANCH   1  21
HETATM   21  C   UNL     1       8.489   2.036  21.880  1.00  0.00    -0.022 C 
BRANCH  21  22
HETATM   22  N   UNL     1       9.400   2.662  22.243  1.00  0.00    -0.249 N 
ATOM     23  HN  UNL     1       9.557   3.530  21.731  1.00  0.00     0.188 HD
BRANCH  22  24
HETATM   24  S   UNL     1      10.473   2.366  23.453  1.00  0.00     0.233 S 
HETATM   25  C   UNL     1      11.408   3.694  23.538  1.00  0.00     0.186 C 
HETATM   26  O   UNL     1       9.747   2.188  24.702  1.00  0.00    -0.205 OA
HETATM   27  O   UNL     1      11.286   1.234  23.163  1.00  0.00    -0.205 OA
ENDBRANCH  22  24
ENDBRANCH  21  22
ENDBRANCH   1  21
TORSDOF 5
ENDMDL
MODEL 6
REMARK VINA RESULT:    -6.941      3.828      8.236
REMARK INTER + INTRA:          -9.614
REMARK INTER:                  -8.885
REMARK INTRA:                  -0.730
REMARK UNBOUND:                -0.644
REMARK  5 active torsions:
REMARK  status: ('A' for Active; 'I' for Inactive)
REMARK    1  A    between atoms: S_2  and  N_5 
REMARK    2  A    between atoms: N_5  and  C_7 
REMARK    3  A    between atoms: C_7  and  C_8 
REMARK    4  A    between atoms: C_15  and  C_16 
REMARK       I    between atoms: C_16  and  N_18 
REMARK    5  A    between atoms: N_18  and  C_20 
ROOT
HETATM    1  C   UNL     1       8.320  -3.412  24.020  1.00  0.00     0.040 A 
HETATM    2  C   UNL     1       7.240  -4.168  24.011  1.00  0.00     0.066 A 
HETATM    3  C   UNL     1       5.736  -3.680  23.578  1.00  0.00    -0.003 C 
HETATM    4  C   UNL     1       4.997  -4.307  23.063  1.00  0.00    -0.002 C 
HETATM    5  C   UNL     1       5.151  -5.571  22.583  1.00  0.00    -0.001 C 
HETATM    6  C   UNL     1       6.374  -6.075  22.690  1.00  0.00    -0.002 C 
HETATM    7  C   UNL     1       7.252  -5.556  23.201  1.00  0.00    -0.003 C 
HETATM    8  C   UNL     1       7.370  -4.368  25.186  1.00  0.00     0.049 A 
ENDROOT
BRANCH   8   9
HETATM    9  C   UNL     1       7.388  -4.750  26.513  1.00  0.00     0.255 C 
HETATM   10  O   UNL     1       8.403  -4.675  27.046  1.00  0.00    -0.268 OA
HETATM   11  N   UNL     1       6.194  -5.094  26.960  1.00  0.00    -0.324 N 
ATOM     12  HN  UNL     1       5.380  -4.973  26.356  1.00  0.00     0.169 HD
BRANCH  11  13
HETATM   13  C   UNL     1       6.039  -5.571  28.122  1.00  0.00     0.046 A 
HETATM   14  C   UNL     1       6.442  -6.656  28.812  1.00  0.00     0.154 A 
HETATM   15  N   UNL     1       6.673  -7.502  29.711  1.00  0.00    -0.400 N 
HETATM   16  C   UNL     1       5.963  -6.643  30.329  1.00  0.00     0.129 A 
ATOM     17  HN  UNL     1       7.159  -8.386  29.862  1.00  0.00     0.154 HD
HETATM   18  C   UNL     1       5.330  -5.549  30.270  1.00  0.00     0.012 A 
HETATM   19  C   UNL     1       5.250  -4.809  29.189  1.00  0.00    -0.022 A 
HETATM   20  C   UNL     1       4.647  -3.641  28.977  1.00  0.00     0.025 C 
ENDBRANCH  11  13
ENDBRANCH   8   9
BRANCH   1  21
HETATM   21  C   UNL     1       9.165  -2.714  23.535  1.00  0.00    -0.022 C 
BRANCH  21  22
HETATM   22  N   UNL     1       9.836  -2.170  22.756  1.00  0.00    -0.249 N 
ATOM     23  HN  UNL     1       9.569  -2.314  21.782  1.00  0.00     0.188 HD
BRANCH  22  24
HETATM   24  S   UNL     1      11.147  -1.204  22.981  1.00  0.00     0.233 S 
HETATM   25  C   UNL     1      10.881   0.110  22.060  1.00  0.00     0.186 C 
HETATM   26  O   UNL     1      11.223  -0.820  24.384  1.00  0.00    -0.205 OA
HETATM   27  O   UNL     1      12.345  -1.844  22.557  1.00  0.00    -0.205 OA
ENDBRANCH  22  24
ENDBRANCH  21  22
ENDBRANCH   1  21
TORSDOF 5
ENDMDL
MODEL 7
REMARK VINA RESULT:    -6.887     14.094     15.657
REMARK INTER + INTRA:          -9.544
REMARK INTER:                  -8.689
REMARK INTRA:                  -0.855
REMARK UNBOUND:                -0.644
REMARK  5 active torsions:
REMARK  status: ('A' for Active; 'I' for Inactive)
REMARK    1  A    between atoms: S_2  and  N_5 
REMARK    2  A    between atoms: N_5  and  C_7 
REMARK    3  A    between atoms: C_7  and  C_8 
REMARK    4  A    between atoms: C_15  and  C_16 
REMARK       I    between atoms: C_16  and  N_18 
REMARK    5  A    between atoms: N_18  and  C_20 
ROOT
HETATM    1  C   UNL     1      23.985  -2.978  23.714  1.00  0.00     0.040 A 
HETATM    2  C   UNL     1      23.291  -1.861  23.622  1.00  0.00     0.066 A 
HETATM    3  C   UNL     1      21.674  -1.719  23.849  1.00  0.00    -0.003 C 
HETATM    4  C   UNL     1      21.178  -0.847  24.296  1.00  0.00    -0.002 C 
HETATM    5  C   UNL     1      21.748   0.260  24.842  1.00  0.00    -0.001 C 
HETATM    6  C   UNL     1      23.073   0.246  24.905  1.00  0.00    -0.002 C 
HETATM    7  C   UNL     1      23.739  -0.580  24.484  1.00  0.00    -0.003 C 
HETATM    8  C   UNL     1      23.638  -1.739  22.482  1.00  0.00     0.049 A 
ENDROOT
BRANCH   8   9
HETATM    9  C   UNL     1      23.972  -1.406  21.183  1.00  0.00     0.255 C 
HETATM   10  O   UNL     1      24.846  -0.670  21.060  1.00  0.00    -0.268 OA
HETATM   11  N   UNL     1      23.244  -2.049  20.289  1.00  0.00    -0.324 N 
ATOM     12  HN  UNL     1      22.590  -2.768  20.601  1.00  0.00     0.169 HD
BRANCH  11  13
HETATM   13  C   UNL     1      23.341  -1.792  19.054  1.00  0.00     0.046 A 
HETATM   14  C   UNL     1      23.001  -0.789  18.218  1.00  0.00     0.154 A 
HETATM   15  N   UNL     1      22.864  -0.038  17.221  1.00  0.00    -0.400 N 
HETATM   16  C   UNL     1      23.494  -1.029  16.725  1.00  0.00     0.129 A 
ATOM     17  HN  UNL     1      22.469   0.864  16.956  1.00  0.00     0.154 HD
HETATM   18  C   UNL     1      24.027  -2.158  16.930  1.00  0.00     0.012 A 
HETATM   19  C   UNL     1      24.066  -2.746  18.103  1.00  0.00    -0.022 A 
HETATM   20  C   UNL     1      24.600  -3.907  18.477  1.00  0.00     0.025 C 
ENDBRANCH  11  13
ENDBRANCH   8   9
BRANCH   1  21
HETATM   21  C   UNL     1      24.422  -3.946  24.269  1.00  0.00    -0.022 C 
BRANCH  21  22
HETATM   22  N   UNL     1      24.616  -5.050  24.577  1.00  0.00    -0.249 N 
ATOM     23  HN  UNL     1      25.048  -5.629  23.856  1.00  0.00     0.188 HD
BRANCH  22  24
HETATM   24  S   UNL     1      24.301  -5.826  25.992  1.00  0.00     0.233 S 
HETATM   25  C   UNL     1      25.676  -5.725  26.856  1.00  0.00     0.186 C 
HETATM   26  O   UNL     1      23.225  -5.132  26.687  1.00  0.00    -0.205 OA
HETATM   27  O   UNL     1      23.978  -7.194  25.776  1.00  0.00    -0.205 OA
ENDBRANCH  22  24
ENDBRANCH  21  22
ENDBRANCH   1  21
TORSDOF 5
ENDMDL
MODEL 8
REMARK VINA RESULT:    -6.842      3.382      6.351
REMARK INTER + INTRA:          -9.486
REMARK INTER:                  -8.552
REMARK INTRA:                  -0.934
REMARK UNBOUND:                -0.644
REMARK  5 active torsions:
REMARK  status: ('A' for Active; 'I' for Inactive)
REMARK    1  A    between atoms: S_2  and  N_5 
REMARK    2  A    between atoms: N_5  and  C_7 
REMARK    3  A    between atoms: C_7  and  C_8 
REMARK    4  A    between atoms: C_15  and  C_16 
REMARK       I    between atoms: C_16  and  N_18 
REMARK    5  A    between atoms: N_18  and  C_20 
ROOT
HETATM    1  C   UNL     1       9.528   0.497  23.331  1.00  0.00     0.040 A 
HETATM    2  C   UNL     1      10.480  -0.359  23.647  1.00  0.00     0.066 A 
HETATM    3  C   UNL     1      11.357  -1.247  22.585  1.00  0.00    -0.003 C 
HETATM    4  C   UNL     1      12.413  -1.517  22.715  1.00  0.00    -0.002 C 
HETATM    5  C   UNL     1      13.269  -1.128  23.698  1.00  0.00    -0.001 C 
HETATM    6  C   UNL     1      12.777  -0.255  24.568  1.00  0.00    -0.002 C 
HETATM    7  C   UNL     1      11.700   0.123  24.576  1.00  0.00    -0.003 C 
HETATM    8  C   UNL     1       9.694  -0.997  24.287  1.00  0.00     0.049 A 
ENDROOT
BRANCH   8   9
HETATM    9  C   UNL     1       8.950  -1.825  25.106  1.00  0.00     0.255 C 
HETATM   10  O   UNL     1       8.691  -1.405  26.145  1.00  0.00    -0.268 OA
HETATM   11  N   UNL     1       8.616  -2.958  24.518  1.00  0.00    -0.324 N 
ATOM     12  HN  UNL     1       8.840  -3.094  23.531  1.00  0.00     0.169 HD
BRANCH  11  13
HETATM   13  C   UNL     1       8.025  -3.879  25.153  1.00  0.00     0.046 A 
HETATM   14  C   UNL     1       8.346  -4.831  26.053  1.00  0.00     0.154 A 
HETATM   15  N   UNL     1       8.311  -5.757  26.899  1.00  0.00    -0.400 N 
HETATM   16  C   UNL     1       7.086  -5.659  26.560  1.00  0.00     0.129 A 
ATOM     17  HN  UNL     1       8.923  -6.292  27.516  1.00  0.00     0.154 HD
HETATM   18  C   UNL     1       6.227  -5.064  25.847  1.00  0.00     0.012 A 
HETATM   19  C   UNL     1       6.512  -4.077  25.030  1.00  0.00    -0.022 A 
HETATM   20  C   UNL     1       5.727  -3.348  24.240  1.00  0.00     0.025 C 
ENDBRANCH  11  13
ENDBRANCH   8   9
BRANCH   1  21
HETATM   21  C   UNL     1       9.073   1.476  22.812  1.00  0.00    -0.022 C 
BRANCH  21  22
HETATM   22  N   UNL     1       8.331   2.217  22.308  1.00  0.00    -0.249 N 
ATOM     23  HN  UNL     1       8.755   3.070  21.944  1.00  0.00     0.188 HD
BRANCH  22  24
HETATM   24  S   UNL     1       6.706   2.102  22.089  1.00  0.00     0.233 S 
HETATM   25  C   UNL     1       6.096   1.741  23.553  1.00  0.00     0.186 C 
HETATM   26  O   UNL     1       6.193   3.390  21.642  1.00  0.00    -0.205 OA
HETATM   27  O   UNL     1       6.375   1.068  21.170  1.00  0.00    -0.205 OA
ENDBRANCH  22  24
ENDBRANCH  21  22
ENDBRANCH   1  21
TORSDOF 5
ENDMDL
MODEL 9
REMARK VINA RESULT:    -6.641      5.650      7.694
REMARK INTER + INTRA:          -9.226
REMARK INTER:                  -8.474
REMARK INTRA:                  -0.752
REMARK UNBOUND:                -0.644
REMARK  5 active torsions:
REMARK  status: ('A' for Active; 'I' for Inactive)
REMARK    1  A    between atoms: S_2  and  N_5 
REMARK    2  A    between atoms: N_5  and  C_7 
REMARK    3  A    between atoms: C_7  and  C_8 
REMARK    4  A    between atoms: C_15  and  C_16 
REMARK       I    between atoms: C_16  and  N_18 
REMARK    5  A    between atoms: N_18  and  C_20 
ROOT
HETATM    1  C   UNL     1       5.855  -5.660  25.515  1.00  0.00     0.040 A 
HETATM    2  C   UNL     1       5.570  -5.305  24.278  1.00  0.00     0.066 A 
HETATM    3  C   UNL     1       5.262  -3.778  23.769  1.00  0.00    -0.003 C 
HETATM    4  C   UNL     1       5.543  -3.375  22.787  1.00  0.00    -0.002 C 
HETATM    5  C   UNL     1       6.271  -3.975  21.807  1.00  0.00    -0.001 C 
HETATM    6  C   UNL     1       6.761  -5.169  22.111  1.00  0.00    -0.002 C 
HETATM    7  C   UNL     1       6.560  -5.729  23.085  1.00  0.00    -0.003 C 
HETATM    8  C   UNL     1       4.607  -6.018  24.296  1.00  0.00     0.049 A 
ENDROOT
BRANCH   8   9
HETATM    9  C   UNL     1       3.495  -6.819  24.114  1.00  0.00     0.255 C 
HETATM   10  O   UNL     1       3.509  -7.831  24.658  1.00  0.00    -0.268 OA
HETATM   11  N   UNL     1       2.569  -6.242  23.371  1.00  0.00    -0.324 N 
ATOM     12  HN  UNL     1       2.694  -5.273  23.079  1.00  0.00     0.169 HD
BRANCH  11  13
HETATM   13  C   UNL     1       1.529  -6.869  23.014  1.00  0.00     0.046 A 
HETATM   14  C   UNL     1       1.193  -7.792  22.091  1.00  0.00     0.154 A 
HETATM   15  N   UNL     1       0.589  -8.650  21.401  1.00  0.00    -0.400 N 
HETATM   16  C   UNL     1      -0.321  -8.266  22.207  1.00  0.00     0.129 A 
ATOM     17  HN  UNL     1       0.741  -9.295  20.625  1.00  0.00     0.154 HD
HETATM   18  C   UNL     1      -0.633  -7.515  23.176  1.00  0.00     0.012 A 
HETATM   19  C   UNL     1       0.207  -6.695  23.764  1.00  0.00    -0.022 A 
HETATM   20  C   UNL     1       0.037  -5.868  24.793  1.00  0.00     0.025 C 
ENDBRANCH  11  13
ENDBRANCH   8   9
BRANCH   1  21
HETATM   21  C   UNL     1       6.500  -5.664  26.526  1.00  0.00    -0.022 C 
BRANCH  21  22
HETATM   22  N   UNL     1       6.975  -6.001  27.532  1.00  0.00    -0.249 N 
ATOM     23  HN  UNL     1       7.992  -6.077  27.524  1.00  0.00     0.188 HD
BRANCH  22  24
HETATM   24  S   UNL     1       6.263  -6.372  28.967  1.00  0.00     0.233 S 
HETATM   25  C   UNL     1       4.688  -6.591  28.625  1.00  0.00     0.186 C 
HETATM   26  O   UNL     1       6.838  -7.610  29.478  1.00  0.00    -0.205 OA
HETATM   27  O   UNL     1       6.401  -5.313  29.907  1.00  0.00    -0.205 OA
ENDBRANCH  22  24
ENDBRANCH  21  22
ENDBRANCH   1  21
TORSDOF 5
ENDMDL
