stable:False satoms:4 tatoms:24 sratio:0.16666666666666666
  -OEChem-07092417463D

 24 27  0     1  0  0  0  0  0999 V2000
    6.6592   -4.8506   26.3894 C   0  0  0  0  0  0  0  0  0  0  0  0
    8.1737   -4.3166   26.1338 S   0  0  0  0  0  0  0  0  0  0  0  0
    9.0952   -5.4435   26.0754 O   0  0  0  0  0  0  0  0  0  0  0  0
    8.5363   -3.4086   27.1684 O   0  0  0  0  0  0  0  0  0  0  0  0
    8.1360   -3.5749   24.6672 N   0  0  0  0  0  0  0  0  0  0  0  0
    8.9211   -2.8858   24.1563 C   0  0  0  0  0  0  0  0  0  0  0  0
    9.4193   -1.9739   23.5589 C   0  0  0  0  0  0  0  0  0  0  0  0
   10.3814   -1.1266   23.2514 C   0  0  1  0  0  0  0  0  0  0  0  0
   11.0608   -0.0407   24.2729 C   0  0  0  0  0  0  0  0  0  0  0  0
   12.1162    0.2622   24.2554 C   0  0  0  0  0  0  0  0  0  0  0  0
   13.1211   -0.2259   23.4794 C   0  0  0  0  0  0  0  0  0  0  0  0
   12.7921   -1.2470   22.6982 C   0  0  0  0  0  0  0  0  0  0  0  0
   11.7411   -1.6786   22.5953 C   0  0  0  0  0  0  0  0  0  0  0  0
    9.6813   -0.6371   22.4109 C   0  0  3  0  0  0  0  0  0  0  0  0
    9.0439    0.0142   21.3720 C   0  0  0  0  0  0  0  0  0  0  0  0
    9.5998    0.9158   20.9260 O   0  0  0  0  0  0  0  0  0  0  0  0
    7.9054   -0.5607   21.0326 N   0  0  0  0  0  0  0  0  0  0  0  0
    7.1374   -0.0413   20.1720 C   0  0  0  0  0  0  0  0  0  0  0  0
    7.1005    0.1060   18.8321 C   0  0  0  0  0  0  0  0  0  0  0  0
    6.7594    0.3604   17.6511 N   0  0  0  0  0  0  0  0  0  0  0  0
    5.7692    0.8068   18.3177 C   0  0  0  0  0  0  0  0  0  0  0  0
    5.2484    0.9793   19.4582 C   0  0  0  0  0  0  0  0  0  0  0  0
    5.8056    0.5933   20.5824 C   0  0  0  0  0  0  0  0  0  0  0  0
    5.3795    0.6834   21.8395 C   0  0  0  0  0  0  0  0  0  0  0  0
 20 21  2  0  0  0  0
 19 20  1  0  0  0  0
 19 21  1  0  0  0  0
 21 22  1  0  0  0  0
 18 19  2  0  0  0  0
 22 23  2  0  0  0  0
 18 23  1  0  0  0  0
 17 18  1  0  0  0  0
 23 24  1  0  0  0  0
 15 16  2  0  0  0  0
 15 17  1  0  0  0  0
 14 15  1  0  0  0  0
  8 14  1  0  0  0  0
  7 14  1  0  0  0  0
 12 13  1  0  0  0  0
  8 13  1  0  0  0  0
 11 12  2  0  0  0  0
  7  8  1  0  0  0  0
  8  9  1  0  0  0  0
 10 11  1  0  0  0  0
  6  7  2  3  0  0  0
  5  6  1  0  0  0  0
  9 10  2  0  0  0  0
  2  5  1  0  0  0  0
  2  3  2  0  0  0  0
  1  2  1  0  0  0  0
  2  4  2  0  0  0  0
M  END
> <Shapegauss>
-289.392822

$$$$
