REMARK  7 active torsions:
REMARK  status: ('A' for Active; 'I' for Inactive)
REMARK    1  A    between atoms: C_1  and  O_6 
REMARK    2  A    between atoms: C_1  and  CA_5 
REMARK    3  A    between atoms: N_3  and  C_12 
REMARK    4  A    between atoms: N_3  and  CA_5 
REMARK    5  A    between atoms: O_9  and  N_13 
REMARK    6  A    between atoms: C_10  and  N_13 
REMARK    7  A    between atoms: C_12  and  N_13 
ROOT
ATOM      1  H   ALA A   1       8.662  -2.925  23.154  1.00  0.00     0.155 HD
ATOM      2  N   ALA A   1       8.862  -2.100  23.724  1.00  0.00    -0.399 N 
ENDROOT
BRANCH   2   3
HETATM    3  C   UNK A   0      10.218  -1.732  23.560  1.00  0.00     0.267 C 
BRANCH   3   4
HETATM    4  N   UNK A   0      10.475  -1.640  22.085  1.00  0.00    -0.264 N 
BRANCH   4   5
HETATM    5  O   UNK A   0      11.003  -2.854  21.841  1.00  0.00    -0.289 OA
HETATM    6  H   UNK A   0      11.899  -2.745  22.248  1.00  0.00     0.244 HD
ENDBRANCH   4   5
BRANCH   4   7
HETATM    7  C   UNK A   0       9.716  -0.720  21.390  1.00  0.00     0.181 A 
HETATM    8  S   UNK A   0       8.379  -1.796  20.945  1.00  0.00    -0.138 SA
HETATM    9  C   UNK A   0       9.172  -0.524  20.051  1.00  0.00     0.114 A 
ENDBRANCH   4   7
ENDBRANCH   3   4
ENDBRANCH   2   3
BRANCH   2  10
ATOM     10  CA  ALA A   1       7.681  -1.272  23.776  1.00  0.00     0.097 C 
ATOM     11  CB  ALA A   1       8.023   0.225  23.621  1.00  0.00     0.034 C 
BRANCH  10  12
ATOM     12  C   ALA A   1       6.524  -1.872  23.075  1.00  0.00     0.188 C 
BRANCH  12  13
ATOM     13  O   ALA A   1       5.888  -1.233  22.127  1.00  0.00    -0.399 OA
ATOM     14  H   ALA A   1       5.692  -0.311  21.939  1.00  0.00     0.209 HD
ENDBRANCH  12  13
ENDBRANCH  10  12
ENDBRANCH   2  10
TORSDOF 7
