MODEL 1
REMARK VINA RESULT:    -4.443      0.000      0.000
REMARK INTER + INTRA:          -5.948
REMARK INTER:                  -6.001
REMARK INTRA:                   0.053
REMARK UNBOUND:                 0.053
REMARK  7 active torsions:
REMARK  status: ('A' for Active; 'I' for Inactive)
REMARK    1  A    between atoms: C_1  and  O_6 
REMARK    2  A    between atoms: C_1  and  CA_5 
REMARK    3  A    between atoms: N_3  and  C_12 
REMARK    4  A    between atoms: N_3  and  CA_5 
REMARK    5  A    between atoms: O_9  and  N_13 
REMARK    6  A    between atoms: C_10  and  N_13 
REMARK    7  A    between atoms: C_12  and  N_13 
ROOT
ATOM      1  H   ALA A   1       2.227 -16.728   9.428  1.00  0.00     0.155 HD
ATOM      2  N   ALA A   1       1.395 -16.854   8.847  1.00  0.00    -0.399 N 
ENDROOT
BRANCH   2   3
HETATM    3  C   UNK A   0       1.433 -18.132   8.241  1.00  0.00     0.267 C 
BRANCH   3   4
HETATM    4  N   UNK A   0       2.762 -18.740   8.576  1.00  0.00    -0.264 N 
BRANCH   4   5
HETATM    5  O   UNK A   0       3.559 -17.656   8.528  1.00  0.00    -0.289 OA
HETATM    6  H   UNK A   0       4.400 -18.066   8.205  1.00  0.00     0.244 HD
ENDBRANCH   4   5
BRANCH   4   7
HETATM    7  C   UNK A   0       2.730 -19.928   9.278  1.00  0.00     0.181 A 
HETATM    8  S   UNK A   0       3.328 -20.987   7.988  1.00  0.00    -0.138 SA
HETATM    9  C   UNK A   0       2.097 -21.240   9.199  1.00  0.00     0.114 A 
ENDBRANCH   4   7
ENDBRANCH   3   4
ENDBRANCH   2   3
BRANCH   2  10
ATOM     10  CA  ALA A   1       0.290 -16.154   9.457  1.00  0.00     0.097 C 
ATOM     11  CB  ALA A   1      -0.810 -15.813   8.429  1.00  0.00     0.034 C 
BRANCH  10  12
ATOM     12  C   ALA A   1      -0.048 -16.670  10.802  1.00  0.00     0.188 C 
BRANCH  12  13
ATOM     13  O   ALA A   1       0.874 -16.912  11.697  1.00  0.00    -0.399 OA
ATOM     14  H   ALA A   1       1.007 -16.679  12.620  1.00  0.00     0.209 HD
ENDBRANCH  12  13
ENDBRANCH  10  12
ENDBRANCH   2  10
TORSDOF 7
ENDMDL
MODEL 2
REMARK VINA RESULT:    -4.079     21.142     22.227
REMARK INTER + INTRA:          -5.457
REMARK INTER:                  -5.352
REMARK INTRA:                  -0.104
REMARK UNBOUND:                 0.053
REMARK  7 active torsions:
REMARK  status: ('A' for Active; 'I' for Inactive)
REMARK    1  A    between atoms: C_1  and  O_6 
REMARK    2  A    between atoms: C_1  and  CA_5 
REMARK    3  A    between atoms: N_3  and  C_12 
REMARK    4  A    between atoms: N_3  and  CA_5 
REMARK    5  A    between atoms: O_9  and  N_13 
REMARK    6  A    between atoms: C_10  and  N_13 
REMARK    7  A    between atoms: C_12  and  N_13 
ROOT
ATOM      1  H   ALA A   1       6.180  -0.646  20.499  1.00  0.00     0.155 HD
ATOM      2  N   ALA A   1       6.021   0.363  20.456  1.00  0.00    -0.399 N 
ENDROOT
BRANCH   2   3
HETATM    3  C   UNK A   0       7.224   1.042  20.764  1.00  0.00     0.267 C 
BRANCH   3   4
HETATM    4  N   UNK A   0       8.322   0.020  20.755  1.00  0.00    -0.264 N 
BRANCH   4   5
HETATM    5  O   UNK A   0       8.490  -0.164  19.433  1.00  0.00    -0.289 OA
HETATM    6  H   UNK A   0       8.252  -1.121  19.353  1.00  0.00     0.244 HD
ENDBRANCH   4   5
BRANCH   4   7
HETATM    7  C   UNK A   0       9.117  -0.029  21.883  1.00  0.00     0.181 A 
HETATM    8  S   UNK A   0       8.963  -1.765  22.212  1.00  0.00    -0.138 SA
HETATM    9  C   UNK A   0       9.014  -0.394  23.291  1.00  0.00     0.114 A 
ENDBRANCH   4   7
ENDBRANCH   3   4
ENDBRANCH   2   3
BRANCH   2  10
ATOM     10  CA  ALA A   1       5.043   0.638  19.431  1.00  0.00     0.097 C 
ATOM     11  CB  ALA A   1       4.250   1.929  19.727  1.00  0.00     0.034 C 
BRANCH  10  12
ATOM     12  C   ALA A   1       5.532   0.332  18.069  1.00  0.00     0.188 C 
BRANCH  12  13
ATOM     13  O   ALA A   1       5.879  -0.880  17.719  1.00  0.00    -0.399 OA
ATOM     14  H   ALA A   1       6.507  -1.530  18.045  1.00  0.00     0.209 HD
ENDBRANCH  12  13
ENDBRANCH  10  12
ENDBRANCH   2  10
TORSDOF 7
ENDMDL
MODEL 3
REMARK VINA RESULT:    -4.029     13.812     15.274
REMARK INTER + INTRA:          -5.389
REMARK INTER:                  -5.463
REMARK INTRA:                   0.074
REMARK UNBOUND:                 0.053
REMARK  7 active torsions:
REMARK  status: ('A' for Active; 'I' for Inactive)
REMARK    1  A    between atoms: C_1  and  O_6 
REMARK    2  A    between atoms: C_1  and  CA_5 
REMARK    3  A    between atoms: N_3  and  C_12 
REMARK    4  A    between atoms: N_3  and  CA_5 
REMARK    5  A    between atoms: O_9  and  N_13 
REMARK    6  A    between atoms: C_10  and  N_13 
REMARK    7  A    between atoms: C_12  and  N_13 
ROOT
ATOM      1  H   ALA A   1       1.424 -16.707  21.982  1.00  0.00     0.155 HD
ATOM      2  N   ALA A   1       1.707 -17.052  22.902  1.00  0.00    -0.399 N 
ENDROOT
BRANCH   2   3
HETATM    3  C   UNK A   0       0.688 -16.771  23.843  1.00  0.00     0.267 C 
BRANCH   3   4
HETATM    4  N   UNK A   0       0.650 -15.283  24.022  1.00  0.00    -0.264 N 
BRANCH   4   5
HETATM    5  O   UNK A   0       1.100 -14.869  22.822  1.00  0.00    -0.289 OA
HETATM    6  H   UNK A   0       1.607 -14.062  23.089  1.00  0.00     0.244 HD
ENDBRANCH   4   5
BRANCH   4   7
HETATM    7  C   UNK A   0      -0.216 -14.806  24.985  1.00  0.00     0.181 A 
HETATM    8  S   UNK A   0       0.994 -14.104  26.074  1.00  0.00    -0.138 SA
HETATM    9  C   UNK A   0      -0.483 -14.972  26.409  1.00  0.00     0.114 A 
ENDBRANCH   4   7
ENDBRANCH   3   4
ENDBRANCH   2   3
BRANCH   2  10
ATOM     10  CA  ALA A   1       2.501 -18.244  22.729  1.00  0.00     0.097 C 
ATOM     11  CB  ALA A   1       1.815 -19.483  23.343  1.00  0.00     0.034 C 
BRANCH  10  12
ATOM     12  C   ALA A   1       3.165 -18.309  21.408  1.00  0.00     0.188 C 
BRANCH  12  13
ATOM     13  O   ALA A   1       3.709 -17.254  20.860  1.00  0.00    -0.399 OA
ATOM     14  H   ALA A   1       3.669 -16.838  19.994  1.00  0.00     0.209 HD
ENDBRANCH  12  13
ENDBRANCH  10  12
ENDBRANCH   2  10
TORSDOF 7
ENDMDL
MODEL 4
REMARK VINA RESULT:    -3.969     34.526     35.695
REMARK INTER + INTRA:          -5.309
REMARK INTER:                  -5.304
REMARK INTRA:                  -0.005
REMARK UNBOUND:                 0.053
REMARK  7 active torsions:
REMARK  status: ('A' for Active; 'I' for Inactive)
REMARK    1  A    between atoms: C_1  and  O_6 
REMARK    2  A    between atoms: C_1  and  CA_5 
REMARK    3  A    between atoms: N_3  and  C_12 
REMARK    4  A    between atoms: N_3  and  CA_5 
REMARK    5  A    between atoms: O_9  and  N_13 
REMARK    6  A    between atoms: C_10  and  N_13 
REMARK    7  A    between atoms: C_12  and  N_13 
ROOT
ATOM      1  H   ALA A   1       9.715  16.752   2.572  1.00  0.00     0.155 HD
ATOM      2  N   ALA A   1       9.558  16.578   1.577  1.00  0.00    -0.399 N 
ENDROOT
BRANCH   2   3
HETATM    3  C   UNK A   0       9.395  15.189   1.363  1.00  0.00     0.267 C 
BRANCH   3   4
HETATM    4  N   UNK A   0       9.552  14.516   2.695  1.00  0.00    -0.264 N 
BRANCH   4   5
HETATM    5  O   UNK A   0      10.891  14.527   2.831  1.00  0.00    -0.289 OA
HETATM    6  H   UNK A   0      11.157  14.009   2.030  1.00  0.00     0.244 HD
ENDBRANCH   4   5
BRANCH   4   7
HETATM    7  C   UNK A   0       8.459  14.568   3.536  1.00  0.00     0.181 A 
HETATM    8  S   UNK A   0       8.073  12.838   3.540  1.00  0.00    -0.138 SA
HETATM    9  C   UNK A   0       7.037  14.242   3.521  1.00  0.00     0.114 A 
ENDBRANCH   4   7
ENDBRANCH   3   4
ENDBRANCH   2   3
BRANCH   2  10
ATOM     10  CA  ALA A   1       8.826  17.689   1.018  1.00  0.00     0.097 C 
ATOM     11  CB  ALA A   1       7.400  17.788   1.601  1.00  0.00     0.034 C 
BRANCH  10  12
ATOM     12  C   ALA A   1       9.663  18.895   0.829  1.00  0.00     0.188 C 
BRANCH  12  13
ATOM     13  O   ALA A   1      10.617  19.207   1.668  1.00  0.00    -0.399 OA
ATOM     14  H   ALA A   1      11.571  19.087   1.692  1.00  0.00     0.209 HD
ENDBRANCH  12  13
ENDBRANCH  10  12
ENDBRANCH   2  10
TORSDOF 7
ENDMDL
MODEL 5
REMARK VINA RESULT:    -3.948      2.674      4.505
REMARK INTER + INTRA:          -5.280
REMARK INTER:                  -5.267
REMARK INTRA:                  -0.013
REMARK UNBOUND:                 0.053
REMARK  7 active torsions:
REMARK  status: ('A' for Active; 'I' for Inactive)
REMARK    1  A    between atoms: C_1  and  O_6 
REMARK    2  A    between atoms: C_1  and  CA_5 
REMARK    3  A    between atoms: N_3  and  C_12 
REMARK    4  A    between atoms: N_3  and  CA_5 
REMARK    5  A    between atoms: O_9  and  N_13 
REMARK    6  A    between atoms: C_10  and  N_13 
REMARK    7  A    between atoms: C_12  and  N_13 
ROOT
ATOM      1  H   ALA A   1       1.680 -17.738   7.300  1.00  0.00     0.155 HD
ATOM      2  N   ALA A   1       1.354 -17.546   8.250  1.00  0.00    -0.399 N 
ENDROOT
BRANCH   2   3
HETATM    3  C   UNK A   0       0.158 -16.793   8.195  1.00  0.00     0.267 C 
BRANCH   3   4
HETATM    4  N   UNK A   0       0.120 -15.935   9.424  1.00  0.00    -0.264 N 
BRANCH   4   5
HETATM    5  O   UNK A   0       1.283 -15.268   9.308  1.00  0.00    -0.289 OA
HETATM    6  H   UNK A   0       1.349 -15.193   8.323  1.00  0.00     0.244 HD
ENDBRANCH   4   5
BRANCH   4   7
HETATM    7  C   UNK A   0      -1.130 -15.682   9.953  1.00  0.00     0.181 A 
HETATM    8  S   UNK A   0      -0.940 -16.586  11.467  1.00  0.00    -0.138 SA
HETATM    9  C   UNK A   0      -2.309 -16.417  10.398  1.00  0.00     0.114 A 
ENDBRANCH   4   7
ENDBRANCH   3   4
ENDBRANCH   2   3
BRANCH   2  10
ATOM     10  CA  ALA A   1       1.704 -18.662   9.097  1.00  0.00     0.097 C 
ATOM     11  CB  ALA A   1       0.554 -19.687   9.197  1.00  0.00     0.034 C 
BRANCH  10  12
ATOM     12  C   ALA A   1       3.108 -19.097   8.928  1.00  0.00     0.188 C 
BRANCH  12  13
ATOM     13  O   ALA A   1       4.103 -18.250   9.001  1.00  0.00    -0.399 OA
ATOM     14  H   ALA A   1       4.929 -18.210   9.491  1.00  0.00     0.209 HD
ENDBRANCH  12  13
ENDBRANCH  10  12
ENDBRANCH   2  10
TORSDOF 7
ENDMDL
MODEL 6
REMARK VINA RESULT:    -3.947      2.569      4.777
REMARK INTER + INTRA:          -5.278
REMARK INTER:                  -5.069
REMARK INTRA:                  -0.209
REMARK UNBOUND:                 0.053
REMARK  7 active torsions:
REMARK  status: ('A' for Active; 'I' for Inactive)
REMARK    1  A    between atoms: C_1  and  O_6 
REMARK    2  A    between atoms: C_1  and  CA_5 
REMARK    3  A    between atoms: N_3  and  C_12 
REMARK    4  A    between atoms: N_3  and  CA_5 
REMARK    5  A    between atoms: O_9  and  N_13 
REMARK    6  A    between atoms: C_10  and  N_13 
REMARK    7  A    between atoms: C_12  and  N_13 
ROOT
ATOM      1  H   ALA A   1       0.854 -20.592   9.732  1.00  0.00     0.155 HD
ATOM      2  N   ALA A   1       1.744 -20.283   9.334  1.00  0.00    -0.399 N 
ENDROOT
BRANCH   2   3
HETATM    3  C   UNK A   0       2.075 -19.009   9.852  1.00  0.00     0.267 C 
BRANCH   3   4
HETATM    4  N   UNK A   0       1.867 -18.016   8.748  1.00  0.00    -0.264 N 
BRANCH   4   5
HETATM    5  O   UNK A   0       3.141 -17.732   8.417  1.00  0.00    -0.289 OA
HETATM    6  H   UNK A   0       3.180 -18.120   7.507  1.00  0.00     0.244 HD
ENDBRANCH   4   5
BRANCH   4   7
HETATM    7  C   UNK A   0       0.652 -18.073   8.096  1.00  0.00     0.181 A 
HETATM    8  S   UNK A   0       0.001 -16.524   8.661  1.00  0.00    -0.138 SA
HETATM    9  C   UNK A   0      -0.772 -18.069   8.412  1.00  0.00     0.114 A 
ENDBRANCH   4   7
ENDBRANCH   3   4
ENDBRANCH   2   3
BRANCH   2  10
ATOM     10  CA  ALA A   1       2.583 -21.437   9.116  1.00  0.00     0.097 C 
ATOM     11  CB  ALA A   1       1.906 -22.737   9.600  1.00  0.00     0.034 C 
BRANCH  10  12
ATOM     12  C   ALA A   1       3.314 -21.384   7.831  1.00  0.00     0.188 C 
BRANCH  12  13
ATOM     13  O   ALA A   1       4.330 -20.580   7.651  1.00  0.00    -0.399 OA
ATOM     14  H   ALA A   1       5.208 -20.494   8.034  1.00  0.00     0.209 HD
ENDBRANCH  12  13
ENDBRANCH  10  12
ENDBRANCH   2  10
TORSDOF 7
ENDMDL
MODEL 7
REMARK VINA RESULT:    -3.848     32.011     33.290
REMARK INTER + INTRA:          -5.144
REMARK INTER:                  -5.310
REMARK INTRA:                   0.166
REMARK UNBOUND:                 0.053
REMARK  7 active torsions:
REMARK  status: ('A' for Active; 'I' for Inactive)
REMARK    1  A    between atoms: C_1  and  O_6 
REMARK    2  A    between atoms: C_1  and  CA_5 
REMARK    3  A    between atoms: N_3  and  C_12 
REMARK    4  A    between atoms: N_3  and  CA_5 
REMARK    5  A    between atoms: O_9  and  N_13 
REMARK    6  A    between atoms: C_10  and  N_13 
REMARK    7  A    between atoms: C_12  and  N_13 
ROOT
ATOM      1  H   ALA A   1       6.271  13.667   0.638  1.00  0.00     0.155 HD
ATOM      2  N   ALA A   1       6.732  13.265   1.458  1.00  0.00    -0.399 N 
ENDROOT
BRANCH   2   3
HETATM    3  C   UNK A   0       7.265  14.305   2.255  1.00  0.00     0.267 C 
BRANCH   3   4
HETATM    4  N   UNK A   0       8.621  14.634   1.703  1.00  0.00    -0.264 N 
BRANCH   4   5
HETATM    5  O   UNK A   0       8.521  14.126   0.461  1.00  0.00    -0.289 OA
HETATM    6  H   UNK A   0       8.377  13.168   0.669  1.00  0.00     0.244 HD
ENDBRANCH   4   5
BRANCH   4   7
HETATM    7  C   UNK A   0       9.287  15.681   2.306  1.00  0.00     0.181 A 
HETATM    8  S   UNK A   0      10.263  14.728   3.439  1.00  0.00    -0.138 SA
HETATM    9  C   UNK A   0       9.457  16.264   3.633  1.00  0.00     0.114 A 
ENDBRANCH   4   7
ENDBRANCH   3   4
ENDBRANCH   2   3
BRANCH   2  10
ATOM     10  CA  ALA A   1       6.024  12.071   1.852  1.00  0.00     0.097 C 
ATOM     11  CB  ALA A   1       4.504  12.315   1.963  1.00  0.00     0.034 C 
BRANCH  10  12
ATOM     12  C   ALA A   1       6.560  10.846   1.217  1.00  0.00     0.188 C 
BRANCH  12  13
ATOM     13  O   ALA A   1       7.046  10.858   0.002  1.00  0.00    -0.399 OA
ATOM     14  H   ALA A   1       6.772  11.235  -0.838  1.00  0.00     0.209 HD
ENDBRANCH  12  13
ENDBRANCH  10  12
ENDBRANCH   2  10
TORSDOF 7
ENDMDL
MODEL 8
REMARK VINA RESULT:    -3.762     35.320     36.423
REMARK INTER + INTRA:          -5.028
REMARK INTER:                  -4.953
REMARK INTRA:                  -0.076
REMARK UNBOUND:                 0.053
REMARK  7 active torsions:
REMARK  status: ('A' for Active; 'I' for Inactive)
REMARK    1  A    between atoms: C_1  and  O_6 
REMARK    2  A    between atoms: C_1  and  CA_5 
REMARK    3  A    between atoms: N_3  and  C_12 
REMARK    4  A    between atoms: N_3  and  CA_5 
REMARK    5  A    between atoms: O_9  and  N_13 
REMARK    6  A    between atoms: C_10  and  N_13 
REMARK    7  A    between atoms: C_12  and  N_13 
ROOT
ATOM      1  H   ALA A   1      11.498  17.760   6.011  1.00  0.00     0.155 HD
ATOM      2  N   ALA A   1      11.246  17.292   5.137  1.00  0.00    -0.399 N 
ENDROOT
BRANCH   2   3
HETATM    3  C   UNK A   0      10.597  16.069   5.427  1.00  0.00     0.267 C 
BRANCH   3   4
HETATM    4  N   UNK A   0      10.654  15.233   4.183  1.00  0.00    -0.264 N 
BRANCH   4   5
HETATM    5  O   UNK A   0      11.975  14.983   4.103  1.00  0.00    -0.289 OA
HETATM    6  H   UNK A   0      11.966  13.997   4.017  1.00  0.00     0.244 HD
ENDBRANCH   4   5
BRANCH   4   7
HETATM    7  C   UNK A   0       9.489  14.581   3.832  1.00  0.00     0.181 A 
HETATM    8  S   UNK A   0       9.431  15.088   2.134  1.00  0.00    -0.138 SA
HETATM    9  C   UNK A   0       8.162  14.895   3.316  1.00  0.00     0.114 A 
ENDBRANCH   4   7
ENDBRANCH   3   4
ENDBRANCH   2   3
BRANCH   2  10
ATOM     10  CA  ALA A   1      10.928  18.293   4.147  1.00  0.00     0.097 C 
ATOM     11  CB  ALA A   1       9.418  18.607   4.114  1.00  0.00     0.034 C 
BRANCH  10  12
ATOM     12  C   ALA A   1      11.939  19.372   4.072  1.00  0.00     0.188 C 
BRANCH  12  13
ATOM     13  O   ALA A   1      13.053  19.225   3.402  1.00  0.00    -0.399 OA
ATOM     14  H   ALA A   1      13.398  19.562   2.571  1.00  0.00     0.209 HD
ENDBRANCH  12  13
ENDBRANCH  10  12
ENDBRANCH   2  10
TORSDOF 7
ENDMDL
MODEL 9
REMARK VINA RESULT:    -3.609     21.225     21.920
REMARK INTER + INTRA:          -4.822
REMARK INTER:                  -4.817
REMARK INTRA:                  -0.005
REMARK UNBOUND:                 0.053
REMARK  7 active torsions:
REMARK  status: ('A' for Active; 'I' for Inactive)
REMARK    1  A    between atoms: C_1  and  O_6 
REMARK    2  A    between atoms: C_1  and  CA_5 
REMARK    3  A    between atoms: N_3  and  C_12 
REMARK    4  A    between atoms: N_3  and  CA_5 
REMARK    5  A    between atoms: O_9  and  N_13 
REMARK    6  A    between atoms: C_10  and  N_13 
REMARK    7  A    between atoms: C_12  and  N_13 
ROOT
ATOM      1  H   ALA A   1       5.704  -1.076  20.965  1.00  0.00     0.155 HD
ATOM      2  N   ALA A   1       6.193  -0.181  21.043  1.00  0.00    -0.399 N 
ENDROOT
BRANCH   2   3
HETATM    3  C   UNK A   0       6.980  -0.176  22.218  1.00  0.00     0.267 C 
BRANCH   3   4
HETATM    4  N   UNK A   0       7.209  -1.607  22.603  1.00  0.00    -0.264 N 
BRANCH   4   5
HETATM    5  O   UNK A   0       5.947  -2.076  22.605  1.00  0.00    -0.289 OA
HETATM    6  H   UNK A   0       6.019  -2.785  21.918  1.00  0.00     0.244 HD
ENDBRANCH   4   5
BRANCH   4   7
HETATM    7  C   UNK A   0       8.466  -2.115  22.343  1.00  0.00     0.181 A 
HETATM    8  S   UNK A   0       8.924  -2.496  24.013  1.00  0.00    -0.138 SA
HETATM    9  C   UNK A   0       9.858  -1.849  22.689  1.00  0.00     0.114 A 
ENDBRANCH   4   7
ENDBRANCH   3   4
ENDBRANCH   2   3
BRANCH   2  10
ATOM     10  CA  ALA A   1       6.512   0.292  19.717  1.00  0.00     0.097 C 
ATOM     11  CB  ALA A   1       7.981   0.005  19.343  1.00  0.00     0.034 C 
BRANCH  10  12
ATOM     12  C   ALA A   1       5.415   0.073  18.747  1.00  0.00     0.188 C 
BRANCH  12  13
ATOM     13  O   ALA A   1       5.628  -0.491  17.586  1.00  0.00    -0.399 OA
ATOM     14  H   ALA A   1       6.200  -0.310  16.835  1.00  0.00     0.209 HD
ENDBRANCH  12  13
ENDBRANCH  10  12
ENDBRANCH   2  10
TORSDOF 7
ENDMDL
