stable:False satoms:19 tatoms:24 sratio:0.7916666666666666
  -OEChem-07092417353D

 24 23  0     1  0  0  0  0  0999 V2000
    6.8581   -4.5753   25.5502 H   0  0  0  0  0  0  0  0  0  0  0  0
    7.7285   -3.9391   25.4171 C   0  0  0  0  0  0  0  0  0  0  0  0
    8.5064   -4.4780   24.8778 H   0  0  0  0  0  0  0  0  0  0  0  0
    8.1401   -3.6786   26.3918 H   0  0  0  0  0  0  0  0  0  0  0  0
    7.4548   -3.0477   24.8777 H   0  0  0  0  0  0  0  0  0  0  0  0
    9.2070   -2.7391   23.3078 N   0  0  0  0  0  0  0  0  0  0  0  0
    8.2387   -1.9260   23.0247 N   0  0  0  0  0  0  0  0  0  0  0  0
    9.7307   -0.2725   23.6775 H   0  0  0  0  0  0  0  0  0  0  0  0
   10.5189    0.9485   22.6328 H   0  0  0  0  0  0  0  0  0  0  0  0
   11.5953   -0.7881   22.9966 C   0  0  0  0  0  0  0  0  0  0  0  0
   12.6334   -0.2089   23.2588 O   0  0  0  0  0  0  0  0  0  0  0  0
   11.4825   -2.0766   22.8447 N   0  0  0  0  0  0  0  0  0  0  0  0
   10.3422   -2.6454   22.6344 N   0  0  0  0  0  0  0  0  0  0  0  0
   10.2000   -0.0731   22.7087 C   0  0  0  0  0  0  0  0  0  0  0  0
    8.6010    0.9261   20.9413 O   0  0  0  0  0  0  0  0  0  0  0  0
    9.0460   -0.1969   21.5599 C   0  0  2  0  0  0  0  0  0  0  0  0
    9.4155   -0.9120   20.8123 H   0  0  0  0  0  0  0  0  0  0  0  0
    7.9661   -0.8578   22.3459 C   0  3  0  0  0  0  0  0  0  0  0  0
    7.9148   -0.1571   19.2565 H   0  0  0  0  0  0  0  0  0  0  0  0
    7.5312    0.6975   19.8017 C   0  0  0  0  0  0  0  0  0  0  0  0
    7.4488    1.5795   19.1647 H   0  0  0  0  0  0  0  0  0  0  0  0
    5.5970    0.9292   20.1282 H   0  0  0  0  0  0  0  0  0  0  0  0
    6.3709    0.4957   20.5276 O   0  0  0  0  0  0  0  0  0  0  0  0
    7.0559   -0.2945   22.5579 H   0  0  0  0  0  0  0  0  0  0  0  0
 20 21  1  0  0  0  0
 19 20  1  0  0  0  0
 20 23  1  0  0  0  0
 15 20  1  0  0  0  0
 22 23  1  0  0  0  0
 16 17  1  0  0  0  0
 15 16  1  0  0  0  0
 16 18  1  0  0  0  0
 14 16  1  0  0  0  0
 18 24  1  0  0  0  0
  7 18  1  0  0  0  0
  9 14  1  0  0  0  0
 12 13  2  3  0  0  0
  6 13  1  0  0  0  0
 10 14  1  0  0  0  0
  8 14  1  0  0  0  0
 10 12  1  0  0  0  0
 10 11  2  0  0  0  0
  6  7  2  0  0  0  0
  2  5  1  0  0  0  0
  2  3  1  0  0  0  0
  1  2  1  0  0  0  0
  2  4  1  0  0  0  0
M  CHG  1  18   1
M  END
> <Shapegauss>
-125.175827

$$$$
