stable:False satoms:20 tatoms:24 sratio:0.8333333333333334
  -OEChem-08062408153D

 29 29  0     1  0  0  0  0  0999 V2000
  -13.8312   -1.0801  -24.9809 H   0  0  0  0  0  0  0  0  0  0  0  0
  -13.3664   -0.5506  -24.1283 C   0  0  0  0  0  0  0  0  0  0  0  0
  -14.0971   -0.5532  -23.3096 H   0  0  0  0  0  0  0  0  0  0  0  0
  -13.1630    0.4900  -24.4397 H   0  0  0  0  0  0  0  0  0  0  0  0
  -12.1309   -1.0276  -23.6472 C   0  0  0  0  0  0  0  0  0  0  0  0
  -11.0933   -0.7599  -23.0468 C   0  0  0  0  0  0  0  0  0  0  0  0
   -9.9174   -0.4984  -22.4739 C   0  0  0  0  0  0  0  0  0  0  0  0
   -8.8919   -0.3123  -20.5335 C   0  0  0  0  0  0  0  0  0  0  0  0
   -9.8712    0.6438  -22.6762 O   0  0  0  0  0  0  0  0  0  0  0  0
   -8.0137    1.2505  -21.3138 H   0  0  0  0  0  0  0  0  0  0  0  0
   -8.4865    1.0965  -20.5106 O   0  0  0  0  0  0  0  0  0  0  0  0
   -8.3186   -0.6557  -19.6440 H   0  0  0  0  0  0  0  0  0  0  0  0
   -9.9347   -0.3690  -20.2060 H   0  0  0  0  0  0  0  0  0  0  0  0
   -8.7452   -1.1301  -21.7404 C   0  0  3  0  0  0  0  0  0  0  0  0
   -7.7471   -2.0708  -22.1686 C   0  0  0  0  0  0  0  0  0  0  0  0
   -6.5978   -1.9197  -21.8531 O   0  0  0  0  0  0  0  0  0  0  0  0
   -7.9860   -3.1958  -22.9547 N   0  0  0  0  0  0  0  0  0  0  0  0
   -7.2649   -4.1317  -23.4556 C   0  0  0  0  0  0  0  0  0  0  0  0
   -6.5027   -5.3629  -22.5113 S   0  0  0  0  0  0  0  0  0  0  0  0
   -5.7450   -5.9215  -23.8610 N   0  0  0  0  0  0  0  0  0  0  0  0
   -6.0891   -5.3734  -25.0891 N   0  0  0  0  0  0  0  0  0  0  0  0
   -6.9811   -4.4222  -24.8342 C   0  0  0  0  0  0  0  0  0  0  0  0
   -7.4785   -3.8911  -25.6419 H   0  0  0  0  0  0  0  0  0  0  0  0
  -11.7052   -1.4126  -24.5856 H   0  0  0  0  0  0  0  0  0  0  0  0
  -12.4858   -1.8687  -23.0334 H   0  0  0  0  0  0  0  0  0  0  0  0
  -11.3856   -1.4062  -22.2060 H   0  0  0  0  0  0  0  0  0  0  0  0
  -11.4400    0.2668  -22.8578 H   0  0  0  0  0  0  0  0  0  0  0  0
   -9.3809   -1.9274  -21.3279 H   0  0  0  0  0  0  0  0  0  0  0  0
   -8.9538   -3.2992  -23.1842 H   0  0  0  0  0  0  0  0  0  0  0  0
 19 20  1  0  0  0  0
 20 21  2  0  0  0  0
 18 19  1  0  0  0  0
 21 22  1  0  0  0  0
 18 22  2  0  0  0  0
 17 18  1  0  0  0  0
 22 23  1  0  0  0  0
 15 16  2  0  0  0  0
 15 17  1  0  0  0  0
 14 15  1  0  0  0  0
  8 12  1  0  0  0  0
  8 14  1  0  0  0  0
  7 14  1  0  0  0  0
  8 13  1  0  0  0  0
  8 11  1  0  0  0  0
 10 11  1  0  0  0  0
  6  7  1  0  0  0  0
  7  9  2  0  0  0  0
  5  6  1  0  0  0  0
  2  5  1  0  0  0  0
  2  3  1  0  0  0  0
  1  2  1  0  0  0  0
  2  4  1  0  0  0  0
  5 24  1  0  0  0  0
  5 25  1  0  0  0  0
  6 26  1  0  0  0  0
  6 27  1  0  0  0  0
 14 28  1  0  0  0  0
 17 29  1  0  0  0  0
M  END
> <Chemgauss4>
-5.335207

$$$$
