stable:False satoms:20 tatoms:24 sratio:0.8333333333333334
  -OEChem-08062408163D

 29 29  0     1  0  0  0  0  0999 V2000
   13.3824   -0.2746   23.7021 H   0  0  0  0  0  0  0  0  0  0  0  0
   12.6063   -0.8186   24.2722 C   0  0  0  0  0  0  0  0  0  0  0  0
   12.5812   -0.3835   25.2793 H   0  0  0  0  0  0  0  0  0  0  0  0
   12.9069   -1.8802   24.3349 H   0  0  0  0  0  0  0  0  0  0  0  0
   11.2986   -0.8479   23.7481 C   0  0  0  0  0  0  0  0  0  0  0  0
   10.2229   -1.4398   23.7116 C   0  0  0  0  0  0  0  0  0  0  0  0
    9.0657   -2.0891   23.5751 C   0  0  0  0  0  0  0  0  0  0  0  0
    7.0893   -2.4042   24.4947 C   0  0  0  0  0  0  0  0  0  0  0  0
    9.4290   -3.1582   23.8452 O   0  0  0  0  0  0  0  0  0  0  0  0
    7.3413   -4.2889   24.0398 H   0  0  0  0  0  0  0  0  0  0  0  0
    7.1083   -3.8308   24.8325 O   0  0  0  0  0  0  0  0  0  0  0  0
    6.0117   -2.2099   24.6920 H   0  0  0  0  0  0  0  0  0  0  0  0
    7.6002   -1.8607   25.2957 H   0  0  0  0  0  0  0  0  0  0  0  0
    7.5999   -1.9160   23.2111 C   0  0  3  0  0  0  0  0  0  0  0  0
    6.9594   -1.5652   21.9737 C   0  0  0  0  0  0  0  0  0  0  0  0
    5.9669   -2.1429   21.6207 O   0  0  0  0  0  0  0  0  0  0  0  0
    7.3942   -0.5760   21.0944 N   0  0  0  0  0  0  0  0  0  0  0  0
    7.0000   -0.1224   19.9606 C   0  0  0  0  0  0  0  0  0  0  0  0
    5.5483    0.7919   19.7472 S   0  0  0  0  0  0  0  0  0  0  0  0
    5.7788    0.7673   18.1181 N   0  0  0  0  0  0  0  0  0  0  0  0
    6.9653    0.2425   17.6242 N   0  0  0  0  0  0  0  0  0  0  0  0
    7.6480   -0.1885   18.6795 C   0  0  0  0  0  0  0  0  0  0  0  0
    8.6602   -0.5705   18.5727 H   0  0  0  0  0  0  0  0  0  0  0  0
   11.5315   -0.8250   22.6733 H   0  0  0  0  0  0  0  0  0  0  0  0
   10.9504    0.1450   24.0691 H   0  0  0  0  0  0  0  0  0  0  0  0
    9.7239   -0.6137   24.2395 H   0  0  0  0  0  0  0  0  0  0  0  0
   10.5790   -2.1803   24.4429 H   0  0  0  0  0  0  0  0  0  0  0  0
    7.5953   -0.8723   23.5587 H   0  0  0  0  0  0  0  0  0  0  0  0
    8.2114   -0.1055   21.4274 H   0  0  0  0  0  0  0  0  0  0  0  0
 19 20  1  0  0  0  0
 20 21  2  0  0  0  0
 18 19  1  0  0  0  0
 21 22  1  0  0  0  0
 18 22  2  0  0  0  0
 17 18  1  0  0  0  0
 22 23  1  0  0  0  0
 15 16  2  0  0  0  0
 15 17  1  0  0  0  0
 14 15  1  0  0  0  0
  8 12  1  0  0  0  0
  8 14  1  0  0  0  0
  7 14  1  0  0  0  0
  8 13  1  0  0  0  0
  8 11  1  0  0  0  0
 10 11  1  0  0  0  0
  6  7  1  0  0  0  0
  7  9  2  0  0  0  0
  5  6  1  0  0  0  0
  2  5  1  0  0  0  0
  2  3  1  0  0  0  0
  1  2  1  0  0  0  0
  2  4  1  0  0  0  0
  5 24  1  0  0  0  0
  5 25  1  0  0  0  0
  6 26  1  0  0  0  0
  6 27  1  0  0  0  0
 14 28  1  0  0  0  0
 17 29  1  0  0  0  0
M  END
> <Chemgauss4>
-6.381888

$$$$
