REMARK  6 active torsions:
REMARK  status: ('A' for Active; 'I' for Inactive)
REMARK    1  A    between atoms: S_2  and  N_5 
REMARK    2  A    between atoms: N_5  and  C_7 
REMARK    3  A    between atoms: C_8  and  C_9 
REMARK    4  A    between atoms: C_9  and  C_15 
REMARK    5  A    between atoms: C_15  and  C_16 
REMARK       I    between atoms: C_16  and  N_18 
REMARK    6  A    between atoms: N_18  and  C_20 
ROOT
HETATM    1  C   UNL     1      10.396  -1.192  23.193  1.00  0.00     0.156 C 
HETATM    2  C   UNL     1      11.014  -0.281  24.116  1.00  0.00     0.020 C 
HETATM    3  C   UNL     1      12.048   0.181  24.274  1.00  0.00    -0.000 C 
HETATM    4  C   UNL     1      13.167  -0.229  23.418  1.00  0.00     0.007 C 
HETATM    5  C   UNL     1      12.868  -1.045  22.816  1.00  0.00     0.048 C 
HETATM    6  S   UNL     1      11.805  -2.042  22.408  1.00  0.00    -0.102 SA
ENDROOT
BRANCH   1   7
HETATM    7  C   UNL     1       9.531  -2.097  23.772  1.00  0.00    -0.044 C 
HETATM    8  C   UNL     1       8.929  -2.870  24.293  1.00  0.00     0.025 C 
BRANCH   8   9
HETATM    9  N   UNL     1       8.012  -3.530  24.803  1.00  0.00    -0.224 N 
ATOM     10  HN  UNL     1       7.140  -3.585  24.277  1.00  0.00     0.192 HD
BRANCH   9  11
HETATM   11  S   UNL     1       8.057  -4.325  26.239  1.00  0.00     0.216 S 
HETATM   12  O   UNL     1       6.656  -4.789  26.470  1.00  0.00    -0.577 OA
HETATM   13  O   UNL     1       8.934  -5.463  26.056  1.00  0.00    -0.577 OA
HETATM   14  O   UNL     1       8.480  -3.464  27.316  1.00  0.00    -0.577 OA
ENDBRANCH   9  11
ENDBRANCH   8   9
ENDBRANCH   1   7
BRANCH   1  15
HETATM   15  C   UNL     1       9.787  -0.495  22.247  1.00  0.00    -0.045 C 
BRANCH  15  16
HETATM   16  C   UNL     1       9.071   0.108  21.283  1.00  0.00     0.291 C 
HETATM   17  O   UNL     1       9.586   1.027  20.703  1.00  0.00    -0.259 OA
HETATM   18  N   UNL     1       7.859  -0.499  21.158  1.00  0.00    -0.316 N 
ATOM     19  HN  UNL     1       7.546  -1.265  21.754  1.00  0.00     0.170 HD
BRANCH  18  20
HETATM   20  C   UNL     1       7.155  -0.002  20.210  1.00  0.00     0.051 C 
HETATM   21  C   UNL     1       7.268   0.118  18.901  1.00  0.00     0.117 C 
HETATM   22  N   UNL     1       6.785   0.426  17.823  1.00  0.00    -0.373 N 
HETATM   23  C   UNL     1       5.739   0.943  18.301  1.00  0.00     0.088 C 
ATOM     24  HN  UNL     1       7.114   0.306  16.865  1.00  0.00     0.164 HD
HETATM   25  C   UNL     1       5.259   1.053  19.436  1.00  0.00     0.019 C 
HETATM   26  C   UNL     1       5.786   0.589  20.530  1.00  0.00     0.032 C 
ENDBRANCH  18  20
ENDBRANCH  15  16
ENDBRANCH   1  15
TORSDOF 6
