stable:False satoms:8 tatoms:24 sratio:0.3333333333333333
  -OEChem-07092417403D

 24 26  0     1  0  0  0  0  0999 V2000
    6.6308   -4.8540   26.3647 O   0  0  0  0  0  0  0  0  0  0  0  0
    8.1699   -4.3200   26.0777 S   0  0  0  0  0  0  0  0  0  0  0  0
    9.0485   -5.4768   25.9056 O   0  0  0  0  0  0  0  0  0  0  0  0
    8.5600   -3.4710   27.1815 O   0  5  0  0  0  0  0  0  0  0  0  0
    8.1045   -3.4794   24.6826 N   0  0  0  0  0  0  0  0  0  0  0  0
    8.8852   -2.8038   24.1694 C   0  0  0  0  0  0  0  0  0  0  0  0
    9.4192   -1.8439   23.4727 C   0  0  0  0  0  0  0  0  0  0  0  0
   10.6559   -0.9865   23.4534 C   0  0  1  0  0  0  0  0  0  0  0  0
   10.6957   -0.4191   24.3750 H   0  0  0  0  0  0  0  0  0  0  0  0
   12.7893    0.2044   23.9987 H   0  0  0  0  0  0  0  0  0  0  0  0
   12.8562   -0.6332   23.3036 C   0  0  0  0  0  0  0  0  0  0  0  0
   13.6914   -1.0201   22.8320 H   0  0  0  0  0  0  0  0  0  0  0  0
   11.8569   -1.2541   23.0476 C   0  0  0  0  0  0  0  0  0  0  0  0
    9.6165   -0.9124   22.5829 C   0  0  3  0  0  0  0  0  0  0  0  0
    8.9763   -0.0364   21.4290 C   0  0  0  0  0  0  0  0  0  0  0  0
    9.5472    0.9212   21.0195 O   0  0  0  0  0  0  0  0  0  0  0  0
    7.8043   -0.5102   21.1225 N   0  0  0  0  0  0  0  0  0  0  0  0
    7.0056   -0.0330   20.1676 C   0  0  0  0  0  0  0  0  0  0  0  0
    7.0408    0.1252   18.8645 C   0  0  0  0  0  0  0  0  0  0  0  0
    6.6347    0.4948   17.7521 N   0  0  0  0  0  0  0  0  0  0  0  0
    5.6473    0.8620   18.3340 C   0  0  1  0  0  0  0  0  0  0  0  0
    4.9892    0.9851   19.3807 N   0  0  0  0  0  0  0  0  0  0  0  0
    5.6782    0.5534   20.3814 C   0  0  0  0  0  0  0  0  0  0  0  0
    5.2801    0.6179   21.3981 H   0  0  0  0  0  0  0  0  0  0  0  0
 20 21  1  0  0  0  0
 19 20  2  0  0  0  0
 19 21  1  0  0  0  0
 21 22  1  0  0  0  0
 18 19  1  0  0  0  0
 22 23  1  0  0  0  0
 18 23  2  0  0  0  0
 17 18  1  0  0  0  0
 23 24  1  0  0  0  0
 15 16  2  0  0  0  0
 15 17  1  0  0  0  0
 14 15  1  0  0  0  0
  8 14  1  0  0  0  0
  7 14  1  0  0  0  0
 11 12  1  0  0  0  0
 11 13  2  0  0  0  0
  8 13  1  0  0  0  0
 10 11  1  0  0  0  0
  7  8  1  0  0  0  0
  8  9  1  0  0  0  0
  6  7  2  0  0  0  0
  5  6  1  0  0  0  0
  2  5  1  0  0  0  0
  2  3  2  0  0  0  0
  1  2  2  0  0  0  0
  2  4  1  0  0  0  0
M  CHG  1   4  -1
M  END
> <Shapegauss>
-246.237915

$$$$
