stable:False satoms:8 tatoms:24 sratio:0.3333333333333333
  -OEChem-08062412273D

 32 34  0     1  0  0  0  0  0999 V2000
    5.9392   -5.2316   25.6392 O   0  0  0  0  0  0  0  0  0  0  0  0
    7.5080   -4.7123   25.5646 S   0  0  0  0  0  0  0  0  0  0  0  0
    8.3854   -5.8739   25.4206 O   0  0  0  0  0  0  0  0  0  0  0  0
    7.7793   -3.9413   26.7576 O   0  5  0  0  0  0  0  0  0  0  0  0
    7.6150   -3.7859   24.2276 N   0  0  0  0  0  0  0  0  0  0  0  0
    8.4585   -3.0959   23.8511 C   0  0  0  0  0  0  0  0  0  0  0  0
    9.0819   -2.1059   23.2826 C   0  0  0  0  0  0  0  0  0  0  0  0
   10.3237   -1.2743   23.4595 C   0  0  1  0  0  0  0  0  0  0  0  0
   10.2644   -0.7659   24.4139 H   0  0  0  0  0  0  0  0  0  0  0  0
   12.3954   -0.1630   24.3198 H   0  0  0  0  0  0  0  0  0  0  0  0
   12.5310   -0.9573   23.5850 C   0  0  0  0  0  0  0  0  0  0  0  0
   13.4099   -1.3312   23.1882 H   0  0  0  0  0  0  0  0  0  0  0  0
   11.5599   -1.5407   23.1774 C   0  0  0  0  0  0  0  0  0  0  0  0
    9.3927   -1.1254   22.4824 C   0  0  3  0  0  0  0  0  0  0  0  0
    8.9014   -0.1668   21.3211 C   0  0  0  0  0  0  0  0  0  0  0  0
    9.5283    0.8024   21.0414 O   0  0  0  0  0  0  0  0  0  0  0  0
    7.7665   -0.5968   20.8531 N   0  0  0  0  0  0  0  0  0  0  0  0
    7.0896   -0.0454   19.8455 C   0  0  0  0  0  0  0  0  0  0  0  0
    7.2770    0.1923   18.5677 C   0  0  0  0  0  0  0  0  0  0  0  0
    7.0068    0.6382   17.4420 N   0  0  0  0  0  0  0  0  0  0  0  0
    5.9637    0.9888   17.9295 C   0  0  1  0  0  0  0  0  0  0  0  0
    5.1910    1.0603   18.8998 N   0  3  0  0  0  0  0  0  0  0  0  0
    5.7542    0.5536   19.9431 C   0  0  0  0  0  0  0  0  0  0  0  0
    5.2424    0.5632   20.9097 H   0  0  0  0  0  0  0  0  0  0  0  0
    6.8213   -3.1810   24.2913 H   0  0  0  0  0  0  0  0  0  0  0  0
    9.3104   -3.6451   24.2241 H   0  0  0  0  0  0  0  0  0  0  0  0
   11.7371   -2.3702   22.5088 H   0  0  0  0  0  0  0  0  0  0  0  0
    9.9319   -1.7820   21.7837 H   0  0  0  0  0  0  0  0  0  0  0  0
    7.3693   -1.4071   21.2841 H   0  0  0  0  0  0  0  0  0  0  0  0
    6.4099    1.9556   18.2053 H   0  0  0  0  0  0  0  0  0  0  0  0
    4.9665    2.0187   19.0758 H   0  0  0  0  0  0  0  0  0  0  0  0
    4.3533    0.5538   18.6955 H   0  0  0  0  0  0  0  0  0  0  0  0
 20 21  1  0  0  0  0
 19 20  2  0  0  0  0
 19 21  1  0  0  0  0
 21 22  1  0  0  0  0
 18 19  1  0  0  0  0
 22 23  1  0  0  0  0
 18 23  2  0  0  0  0
 17 18  1  0  0  0  0
 23 24  1  0  0  0  0
 15 16  2  0  0  0  0
 15 17  1  0  0  0  0
 14 15  1  0  0  0  0
  8 14  1  0  0  0  0
  7 14  1  0  0  0  0
 11 12  1  0  0  0  0
 11 13  2  0  0  0  0
  8 13  1  0  0  0  0
 10 11  1  0  0  0  0
  7  8  1  0  0  0  0
  8  9  1  0  0  0  0
  6  7  2  0  0  0  0
  5  6  1  0  0  0  0
  2  5  1  0  0  0  0
  2  3  2  0  0  0  0
  1  2  2  0  0  0  0
  2  4  1  0  0  0  0
  5 25  1  0  0  0  0
  6 26  1  0  0  0  0
 13 27  1  0  0  0  0
 14 28  1  0  0  0  0
 17 29  1  0  0  0  0
 21 30  1  0  0  0  0
 22 31  1  0  0  0  0
 22 32  1  0  0  0  0
M  CHG  2   4  -1  22   1
M  END
> <Chemgauss4>
-8.604907

$$$$
