stable:False satoms:8 tatoms:24 sratio:0.3333333333333333
  -OEChem-08062412273D

 32 34  0     1  0  0  0  0  0999 V2000
   -6.7860   -5.4421  -25.8382 O   0  0  0  0  0  0  0  0  0  0  0  0
   -8.3222   -4.8696  -25.6171 S   0  0  0  0  0  0  0  0  0  0  0  0
   -9.2159   -5.9984  -25.3586 O   0  0  0  0  0  0  0  0  0  0  0  0
   -8.6895   -4.1136  -26.7939 O   0  5  0  0  0  0  0  0  0  0  0  0
   -8.2636   -3.9142  -24.2977 N   0  0  0  0  0  0  0  0  0  0  0  0
   -9.0425   -3.1893  -23.8537 C   0  0  0  0  0  0  0  0  0  0  0  0
   -9.5736   -2.1682  -23.2478 C   0  0  0  0  0  0  0  0  0  0  0  0
  -10.8006   -1.2994  -23.3170 C   0  0  1  0  0  0  0  0  0  0  0  0
  -10.8230   -0.8121  -24.2839 H   0  0  0  0  0  0  0  0  0  0  0  0
  -12.9137   -0.1371  -23.9885 H   0  0  0  0  0  0  0  0  0  0  0  0
  -12.9983   -0.9118  -23.2257 C   0  0  0  0  0  0  0  0  0  0  0  0
  -13.8433   -1.2485  -22.7336 H   0  0  0  0  0  0  0  0  0  0  0  0
  -12.0092   -1.5191  -22.9053 C   0  0  0  0  0  0  0  0  0  0  0  0
   -9.7707   -1.1624  -22.4429 C   0  0  3  0  0  0  0  0  0  0  0  0
   -9.1341   -0.1981  -21.3595 C   0  0  0  0  0  0  0  0  0  0  0  0
   -9.6988    0.7967  -21.0400 O   0  0  0  0  0  0  0  0  0  0  0  0
   -7.9713   -0.6563  -20.9990 N   0  0  0  0  0  0  0  0  0  0  0  0
   -7.1785   -0.1080  -20.0780 C   0  0  0  0  0  0  0  0  0  0  0  0
   -7.2272    0.1608  -18.7936 C   0  0  0  0  0  0  0  0  0  0  0  0
   -6.8300    0.6194  -17.7115 N   0  0  0  0  0  0  0  0  0  0  0  0
   -5.8317    0.9255  -18.3099 C   0  0  1  0  0  0  0  0  0  0  0  0
   -5.1600    0.9523  -19.3549 N   0  3  0  0  0  0  0  0  0  0  0  0
   -5.8420    0.4443  -20.3240 C   0  0  0  0  0  0  0  0  0  0  0  0
   -5.4313    0.4180  -21.3373 H   0  0  0  0  0  0  0  0  0  0  0  0
   -7.4620   -3.3373  -24.4552 H   0  0  0  0  0  0  0  0  0  0  0  0
   -9.9445   -3.7171  -24.1259 H   0  0  0  0  0  0  0  0  0  0  0  0
  -12.1431   -2.3289  -22.2034 H   0  0  0  0  0  0  0  0  0  0  0  0
  -10.2560   -1.7869  -21.6784 H   0  0  0  0  0  0  0  0  0  0  0  0
   -7.6455   -1.4876  -21.4494 H   0  0  0  0  0  0  0  0  0  0  0  0
   -6.2735    1.9011  -18.5612 H   0  0  0  0  0  0  0  0  0  0  0  0
   -4.9249    1.8992  -19.5746 H   0  0  0  0  0  0  0  0  0  0  0  0
   -4.3219    0.4224  -19.2248 H   0  0  0  0  0  0  0  0  0  0  0  0
 20 21  1  0  0  0  0
 19 20  2  0  0  0  0
 19 21  1  0  0  0  0
 21 22  1  0  0  0  0
 18 19  1  0  0  0  0
 22 23  1  0  0  0  0
 18 23  2  0  0  0  0
 17 18  1  0  0  0  0
 23 24  1  0  0  0  0
 15 16  2  0  0  0  0
 15 17  1  0  0  0  0
 14 15  1  0  0  0  0
  8 14  1  0  0  0  0
  7 14  1  0  0  0  0
 11 12  1  0  0  0  0
 11 13  2  0  0  0  0
  8 13  1  0  0  0  0
 10 11  1  0  0  0  0
  7  8  1  0  0  0  0
  8  9  1  0  0  0  0
  6  7  2  0  0  0  0
  5  6  1  0  0  0  0
  2  5  1  0  0  0  0
  2  3  2  0  0  0  0
  1  2  2  0  0  0  0
  2  4  1  0  0  0  0
  5 25  1  0  0  0  0
  6 26  1  0  0  0  0
 13 27  1  0  0  0  0
 14 28  1  0  0  0  0
 17 29  1  0  0  0  0
 21 30  1  0  0  0  0
 22 31  1  0  0  0  0
 22 32  1  0  0  0  0
M  CHG  2   4  -1  22   1
M  END
> <Chemgauss4>
-8.368179

$$$$
