stable:False satoms:6 tatoms:24 sratio:0.25
  -OEChem-07092417443D

 24 24  0     0  0  0  0  0  0999 V2000
    6.6574   -4.8338   26.3792 C   0  0  0  0  0  0  0  0  0  0  0  0
    8.1726   -4.2912   26.0935 S   0  0  0  0  0  0  0  0  0  0  0  0
    9.0328   -5.4204   26.0473 O   0  0  0  0  0  0  0  0  0  0  0  0
    8.5530   -3.3454   27.1033 O   0  0  0  0  0  0  0  0  0  0  0  0
    8.1345   -3.5579   24.6346 N   0  0  0  0  0  0  0  0  0  0  0  0
    8.9878   -2.9345   24.1393 C   0  0  0  0  0  0  0  0  0  0  0  0
    9.4127   -2.0302   23.5921 C   0  0  0  0  0  0  0  0  0  0  0  0
   10.1018   -0.9504   23.3870 C   0  0  0  0  0  0  0  0  0  0  0  0
   11.0474   -0.0502   24.2769 C   0  0  0  0  0  0  0  0  0  0  0  0
   12.0596    0.2047   24.1987 C   0  0  0  0  0  0  0  0  0  0  0  0
   13.1064   -0.3472   23.3707 C   0  0  0  0  0  0  0  0  0  0  0  0
   12.7654   -1.2298   22.7107 C   0  0  0  0  0  0  0  0  0  0  0  0
   12.1075   -1.8552   22.3488 C   0  0  0  0  0  0  0  0  0  0  0  0
    9.7103   -0.6170   22.3748 C   0  0  0  0  0  0  0  0  0  0  0  0
    9.0540    0.0563   21.3663 C   0  0  0  0  0  0  0  0  0  0  0  0
    9.5214    1.0296   20.9813 O   0  0  0  0  0  0  0  0  0  0  0  0
    7.9287   -0.5479   21.0766 N   0  0  0  0  0  0  0  0  0  0  0  0
    7.1779   -0.0638   20.2038 C   0  0  0  0  0  0  0  0  0  0  0  0
    7.2109    0.0461   18.9123 C   0  0  0  0  0  0  0  0  0  0  0  0
    6.8042    0.3254   17.7856 N   0  0  0  0  0  0  0  0  0  0  0  0
    5.7131    0.8842   18.2765 C   0  0  0  0  0  0  0  0  0  0  0  0
    5.2753    0.9652   19.4079 C   0  0  0  0  0  0  0  0  0  0  0  0
    5.8162    0.5633   20.5555 C   0  0  0  0  0  0  0  0  0  0  0  0
    5.2332    0.7098   22.0742 Br  0  0  0  0  0  0  0  0  0  0  0  0
 20 21  2  0  0  0  0
 19 20  1  0  0  0  0
 21 22  1  0  0  0  0
 18 19  2  0  0  0  0
 22 23  2  0  0  0  0
 18 23  1  0  0  0  0
 17 18  1  0  0  0  0
 23 24  1  0  0  0  0
 15 16  2  0  0  0  0
 15 17  1  0  0  0  0
 14 15  1  0  0  0  0
 12 13  2  0  0  0  0
  8 14  2  3  0  0  0
 11 12  1  0  0  0  0
 10 11  1  0  0  0  0
  7  8  1  0  0  0  0
  8  9  1  0  0  0  0
  6  7  2  3  0  0  0
  5  6  1  0  0  0  0
  9 10  2  0  0  0  0
  2  5  1  0  0  0  0
  2  3  2  0  0  0  0
  1  2  1  0  0  0  0
  2  4  2  0  0  0  0
M  END
> <Shapegauss>
-285.380005

$$$$
