REMARK  8 active torsions:
REMARK  status: ('A' for Active; 'I' for Inactive)
REMARK    1  A    between atoms: S_2  and  N_5 
REMARK    2  A    between atoms: C_7  and  C_8 
REMARK    3  A    between atoms: C_9  and  C_15 
REMARK    4  A    between atoms: C_9  and  C_10 
REMARK    5  A    between atoms: C_10  and  C_11 
REMARK    6  A    between atoms: C_12  and  C_13 
REMARK    7  A    between atoms: C_15  and  C_16 
REMARK       I    between atoms: C_16  and  N_18 
REMARK    8  A    between atoms: N_18  and  C_20 
ROOT
HETATM    1  C   UNL     1       9.413  -2.030  23.592  1.00  0.00     0.038 C 
HETATM    2  C   UNL     1      10.102  -0.950  23.387  1.00  0.00     0.016 C 
ENDROOT
BRANCH   2   3
HETATM    3  C   UNL     1       9.710  -0.617  22.375  1.00  0.00    -0.044 C 
BRANCH   3   4
HETATM    4  C   UNL     1       9.054   0.056  21.366  1.00  0.00     0.294 C 
HETATM    5  O   UNL     1       9.521   1.030  20.981  1.00  0.00    -0.258 OA
HETATM    6  N   UNL     1       7.929  -0.548  21.077  1.00  0.00    -0.314 N 
ATOM      7  HN  UNL     1       7.668  -1.407  21.561  1.00  0.00     0.170 HD
BRANCH   6   8
HETATM    8  C   UNL     1       7.178  -0.064  20.204  1.00  0.00     0.068 A 
HETATM    9  C   UNL     1       7.211   0.046  18.912  1.00  0.00     0.118 A 
HETATM   10  N   UNL     1       6.804   0.325  17.786  1.00  0.00    -0.373 N 
HETATM   11  C   UNL     1       5.713   0.884  18.276  1.00  0.00     0.089 A 
ATOM     12  HN  UNL     1       7.167   0.181  16.844  1.00  0.00     0.164 HD
HETATM   13  C   UNL     1       5.275   0.965  19.408  1.00  0.00     0.038 A 
HETATM   14  C   UNL     1       5.816   0.563  20.555  1.00  0.00     0.040 A 
HETATM   15 BR   UNL     1       5.233   0.710  22.074  1.00  0.00    -0.049 Br
ENDBRANCH   6   8
ENDBRANCH   3   4
ENDBRANCH   2   3
BRANCH   2  16
HETATM   16  C   UNL     1      11.047  -0.050  24.277  1.00  0.00     0.020 C 
BRANCH  16  17
HETATM   17  C   UNL     1      12.060   0.205  24.199  1.00  0.00     0.001 C 
HETATM   18  C   UNL     1      13.106  -0.347  23.371  1.00  0.00    -0.001 C 
BRANCH  18  19
HETATM   19  C   UNL     1      12.765  -1.230  22.711  1.00  0.00    -0.010 C 
HETATM   20  C   UNL     1      12.107  -1.855  22.349  1.00  0.00     0.011 C 
ENDBRANCH  18  19
ENDBRANCH  16  17
ENDBRANCH   2  16
BRANCH   1  21
HETATM   21  C   UNL     1       8.988  -2.934  24.139  1.00  0.00     0.101 C 
HETATM   22  N   UNL     1       8.134  -3.558  24.635  1.00  0.00    -0.295 N 
ATOM     23  HN  UNL     1       7.271  -3.655  24.100  1.00  0.00     0.177 HD
BRANCH  22  24
HETATM   24  S   UNL     1       8.173  -4.291  26.093  1.00  0.00     0.226 S 
HETATM   25  C   UNL     1       6.657  -4.834  26.379  1.00  0.00     0.186 C 
HETATM   26  O   UNL     1       9.033  -5.420  26.047  1.00  0.00    -0.206 OA
HETATM   27  O   UNL     1       8.553  -3.345  27.103  1.00  0.00    -0.206 OA
ENDBRANCH  22  24
ENDBRANCH   1  21
TORSDOF 8
