MODEL 1
REMARK VINA RESULT:    -7.091      0.000      0.000
REMARK INTER + INTRA:         -11.080
REMARK INTER:                 -10.408
REMARK INTRA:                  -0.672
REMARK UNBOUND:                -0.672
REMARK  8 active torsions:
REMARK  status: ('A' for Active; 'I' for Inactive)
REMARK    1  A    between atoms: S_2  and  N_5 
REMARK    2  A    between atoms: C_7  and  C_8 
REMARK    3  A    between atoms: C_9  and  C_15 
REMARK    4  A    between atoms: C_9  and  C_10 
REMARK    5  A    between atoms: C_10  and  C_11 
REMARK    6  A    between atoms: C_12  and  C_13 
REMARK    7  A    between atoms: C_15  and  C_16 
REMARK       I    between atoms: C_16  and  N_18 
REMARK    8  A    between atoms: N_18  and  C_20 
ROOT
HETATM    1  C   UNL     1       8.547  -2.429  22.921  1.00  0.00     0.038 C 
HETATM    2  C   UNL     1       9.258  -1.391  23.240  1.00  0.00     0.016 C 
ENDROOT
BRANCH   2   3
HETATM    3  C   UNL     1       9.046  -0.692  22.371  1.00  0.00    -0.044 C 
BRANCH   3   4
HETATM    4  C   UNL     1       8.516  -0.114  21.237  1.00  0.00     0.294 C 
HETATM    5  O   UNL     1       9.179   0.614  20.648  1.00  0.00    -0.258 OA
HETATM    6  N   UNL     1       7.268  -0.477  21.085  1.00  0.00    -0.314 N 
ATOM      7  HN  UNL     1       6.837  -1.124  21.745  1.00  0.00     0.170 HD
BRANCH   6   8
HETATM    8  C   UNL     1       6.608  -0.025  20.125  1.00  0.00     0.068 A 
HETATM    9  C   UNL     1       6.316  -0.434  18.929  1.00  0.00     0.118 A 
HETATM   10  N   UNL     1       5.779  -0.416  17.823  1.00  0.00    -0.373 N 
HETATM   11  C   UNL     1       5.259   0.776  18.051  1.00  0.00     0.089 A 
ATOM     12  HN  UNL     1       5.747  -1.066  17.039  1.00  0.00     0.164 HD
HETATM   13  C   UNL     1       5.254   1.490  19.037  1.00  0.00     0.038 A 
HETATM   14  C   UNL     1       5.853   1.314  20.212  1.00  0.00     0.040 A 
HETATM   15 BR   UNL     1       5.867   2.297  21.516  1.00  0.00    -0.049 Br
ENDBRANCH   6   8
ENDBRANCH   3   4
ENDBRANCH   2   3
BRANCH   2  16
HETATM   16  C   UNL     1      10.030  -0.931  24.539  1.00  0.00     0.020 C 
BRANCH  16  17
HETATM   17  C   UNL     1      10.463  -0.019  24.819  1.00  0.00     0.001 C 
HETATM   18  C   UNL     1      11.832   0.432  24.745  1.00  0.00    -0.001 C 
BRANCH  18  19
HETATM   19  C   UNL     1      12.565  -0.358  24.333  1.00  0.00    -0.010 C 
HETATM   20  C   UNL     1      13.438  -0.675  24.030  1.00  0.00     0.011 C 
ENDBRANCH  18  19
ENDBRANCH  16  17
ENDBRANCH   2  16
BRANCH   1  21
HETATM   21  C   UNL     1       8.037  -3.442  23.022  1.00  0.00     0.101 C 
HETATM   22  N   UNL     1       7.732  -4.508  22.655  1.00  0.00    -0.295 N 
ATOM     23  HN  UNL     1       8.474  -5.081  22.254  1.00  0.00     0.177 HD
BRANCH  22  24
HETATM   24  S   UNL     1       6.245  -5.178  22.712  1.00  0.00     0.226 S 
HETATM   25  C   UNL     1       5.177  -3.948  22.574  1.00  0.00     0.186 C 
HETATM   26  O   UNL     1       6.056  -6.040  21.599  1.00  0.00    -0.206 OA
HETATM   27  O   UNL     1       6.061  -5.847  23.969  1.00  0.00    -0.206 OA
ENDBRANCH  22  24
ENDBRANCH   1  21
TORSDOF 8
ENDMDL
MODEL 2
REMARK VINA RESULT:    -6.891      3.812      6.251
REMARK INTER + INTRA:         -10.786
REMARK INTER:                  -9.726
REMARK INTRA:                  -1.061
REMARK UNBOUND:                -0.672
REMARK  8 active torsions:
REMARK  status: ('A' for Active; 'I' for Inactive)
REMARK    1  A    between atoms: S_2  and  N_5 
REMARK    2  A    between atoms: C_7  and  C_8 
REMARK    3  A    between atoms: C_9  and  C_15 
REMARK    4  A    between atoms: C_9  and  C_10 
REMARK    5  A    between atoms: C_10  and  C_11 
REMARK    6  A    between atoms: C_12  and  C_13 
REMARK    7  A    between atoms: C_15  and  C_16 
REMARK       I    between atoms: C_16  and  N_18 
REMARK    8  A    between atoms: N_18  and  C_20 
ROOT
HETATM    1  C   UNL     1       7.755  -4.648  25.836  1.00  0.00     0.038 C 
HETATM    2  C   UNL     1       7.806  -4.497  24.548  1.00  0.00     0.016 C 
ENDROOT
BRANCH   2   3
HETATM    3  C   UNL     1       8.390  -3.528  24.454  1.00  0.00    -0.044 C 
BRANCH   3   4
HETATM    4  C   UNL     1       9.082  -2.442  23.960  1.00  0.00     0.294 C 
HETATM    5  O   UNL     1       9.235  -2.377  22.826  1.00  0.00    -0.258 OA
HETATM    6  N   UNL     1       9.510  -1.694  24.945  1.00  0.00    -0.314 N 
ATOM      7  HN  UNL     1       9.291  -1.939  25.910  1.00  0.00     0.170 HD
BRANCH   6   8
HETATM    8  C   UNL     1      10.189  -0.676  24.693  1.00  0.00     0.068 A 
HETATM    9  C   UNL     1      11.423  -0.444  24.364  1.00  0.00     0.118 A 
HETATM   10  N   UNL     1      12.401   0.218  24.022  1.00  0.00    -0.373 N 
HETATM   11  C   UNL     1      11.724   1.346  24.129  1.00  0.00     0.089 A 
ATOM     12  HN  UNL     1      13.358  -0.015  23.759  1.00  0.00     0.164 HD
HETATM   13  C   UNL     1      10.554   1.577  24.369  1.00  0.00     0.038 A 
HETATM   14  C   UNL     1       9.573   0.735  24.681  1.00  0.00     0.040 A 
HETATM   15 BR   UNL     1       8.012   1.062  25.036  1.00  0.00    -0.049 Br
ENDBRANCH   6   8
ENDBRANCH   3   4
ENDBRANCH   2   3
BRANCH   2  16
HETATM   16  C   UNL     1       7.466  -5.415  23.308  1.00  0.00     0.020 C 
BRANCH  16  17
HETATM   17  C   UNL     1       6.559  -5.735  22.893  1.00  0.00     0.001 C 
HETATM   18  C   UNL     1       5.648  -5.064  21.997  1.00  0.00    -0.001 C 
BRANCH  18  19
HETATM   19  C   UNL     1       5.967  -3.990  21.721  1.00  0.00    -0.010 C 
HETATM   20  C   UNL     1       5.851  -3.020  21.680  1.00  0.00     0.011 C 
ENDBRANCH  18  19
ENDBRANCH  16  17
ENDBRANCH   2  16
BRANCH   1  21
HETATM   21  C   UNL     1       7.559  -5.142  26.843  1.00  0.00     0.101 C 
HETATM   22  N   UNL     1       7.598  -6.026  27.606  1.00  0.00    -0.295 N 
ATOM     23  HN  UNL     1       8.494  -6.502  27.707  1.00  0.00     0.177 HD
BRANCH  22  24
HETATM   24  S   UNL     1       6.371  -6.580  28.529  1.00  0.00     0.226 S 
HETATM   25  C   UNL     1       5.741  -5.278  29.293  1.00  0.00     0.186 C 
HETATM   26  O   UNL     1       5.353  -7.130  27.706  1.00  0.00    -0.206 OA
HETATM   27  O   UNL     1       6.873  -7.518  29.493  1.00  0.00    -0.206 OA
ENDBRANCH  22  24
ENDBRANCH   1  21
TORSDOF 8
ENDMDL
MODEL 3
REMARK VINA RESULT:    -6.838      3.288      6.410
REMARK INTER + INTRA:         -10.709
REMARK INTER:                  -9.690
REMARK INTRA:                  -1.019
REMARK UNBOUND:                -0.672
REMARK  8 active torsions:
REMARK  status: ('A' for Active; 'I' for Inactive)
REMARK    1  A    between atoms: S_2  and  N_5 
REMARK    2  A    between atoms: C_7  and  C_8 
REMARK    3  A    between atoms: C_9  and  C_15 
REMARK    4  A    between atoms: C_9  and  C_10 
REMARK    5  A    between atoms: C_10  and  C_11 
REMARK    6  A    between atoms: C_12  and  C_13 
REMARK    7  A    between atoms: C_15  and  C_16 
REMARK       I    between atoms: C_16  and  N_18 
REMARK    8  A    between atoms: N_18  and  C_20 
ROOT
HETATM    1  C   UNL     1       8.249  -1.501  22.451  1.00  0.00     0.038 C 
HETATM    2  C   UNL     1       9.403  -1.857  22.924  1.00  0.00     0.016 C 
ENDROOT
BRANCH   2   3
HETATM    3  C   UNL     1       9.116  -2.721  23.602  1.00  0.00    -0.044 C 
BRANCH   3   4
HETATM    4  C   UNL     1       8.427  -3.732  24.238  1.00  0.00     0.294 C 
HETATM    5  O   UNL     1       8.101  -4.635  23.610  1.00  0.00    -0.258 OA
HETATM    6  N   UNL     1       8.209  -3.413  25.489  1.00  0.00    -0.314 N 
ATOM      7  HN  UNL     1       8.561  -2.532  25.863  1.00  0.00     0.170 HD
BRANCH   6   8
HETATM    8  C   UNL     1       7.566  -4.196  26.220  1.00  0.00     0.068 A 
HETATM    9  C   UNL     1       7.849  -5.247  26.925  1.00  0.00     0.118 A 
HETATM   10  N   UNL     1       7.654  -6.175  27.708  1.00  0.00    -0.373 N 
HETATM   11  C   UNL     1       6.366  -5.895  27.780  1.00  0.00     0.089 A 
ATOM     12  HN  UNL     1       8.253  -6.882  28.134  1.00  0.00     0.164 HD
HETATM   13  C   UNL     1       5.700  -4.988  27.318  1.00  0.00     0.038 A 
HETATM   14  C   UNL     1       6.065  -4.000  26.505  1.00  0.00     0.040 A 
HETATM   15 BR   UNL     1       5.152  -2.808  25.861  1.00  0.00    -0.049 Br
ENDBRANCH   6   8
ENDBRANCH   3   4
ENDBRANCH   2   3
BRANCH   2  16
HETATM   16  C   UNL     1      10.903  -1.505  22.575  1.00  0.00     0.020 C 
BRANCH  16  17
HETATM   17  C   UNL     1      11.782  -1.511  23.144  1.00  0.00     0.001 C 
HETATM   18  C   UNL     1      12.357  -0.495  23.993  1.00  0.00    -0.001 C 
BRANCH  18  19
HETATM   19  C   UNL     1      11.756   0.489  24.021  1.00  0.00    -0.010 C 
HETATM   20  C   UNL     1      11.660   1.462  24.039  1.00  0.00     0.011 C 
ENDBRANCH  18  19
ENDBRANCH  16  17
ENDBRANCH   2  16
BRANCH   1  21
HETATM   21  C   UNL     1       7.485  -0.961  21.802  1.00  0.00     0.101 C 
HETATM   22  N   UNL     1       6.797  -0.841  20.866  1.00  0.00    -0.295 N 
ATOM     23  HN  UNL     1       6.230  -1.650  20.611  1.00  0.00     0.177 HD
BRANCH  22  24
HETATM   24  S   UNL     1       6.646   0.481  19.921  1.00  0.00     0.226 S 
HETATM   25  C   UNL     1       5.163   0.395  19.236  1.00  0.00     0.186 C 
HETATM   26  O   UNL     1       6.684   1.656  20.718  1.00  0.00    -0.206 OA
HETATM   27  O   UNL     1       7.657   0.470  18.902  1.00  0.00    -0.206 OA
ENDBRANCH  22  24
ENDBRANCH   1  21
TORSDOF 8
ENDMDL
MODEL 4
REMARK VINA RESULT:    -6.832      2.090      2.250
REMARK INTER + INTRA:         -10.700
REMARK INTER:                  -9.835
REMARK INTRA:                  -0.865
REMARK UNBOUND:                -0.672
REMARK  8 active torsions:
REMARK  status: ('A' for Active; 'I' for Inactive)
REMARK    1  A    between atoms: S_2  and  N_5 
REMARK    2  A    between atoms: C_7  and  C_8 
REMARK    3  A    between atoms: C_9  and  C_15 
REMARK    4  A    between atoms: C_9  and  C_10 
REMARK    5  A    between atoms: C_10  and  C_11 
REMARK    6  A    between atoms: C_12  and  C_13 
REMARK    7  A    between atoms: C_15  and  C_16 
REMARK       I    between atoms: C_16  and  N_18 
REMARK    8  A    between atoms: N_18  and  C_20 
ROOT
HETATM    1  C   UNL     1       9.150  -1.388  24.141  1.00  0.00     0.038 C 
HETATM    2  C   UNL     1       9.883  -0.560  23.462  1.00  0.00     0.016 C 
ENDROOT
BRANCH   2   3
HETATM    3  C   UNL     1       9.299  -0.480  22.492  1.00  0.00    -0.044 C 
BRANCH   3   4
HETATM    4  C   UNL     1       8.677  -0.005  21.357  1.00  0.00     0.294 C 
HETATM    5  O   UNL     1       9.293   0.648  20.643  1.00  0.00    -0.258 OA
HETATM    6  N   UNL     1       7.416  -0.356  21.352  1.00  0.00    -0.314 N 
ATOM      7  HN  UNL     1       7.038  -0.926  22.109  1.00  0.00     0.170 HD
BRANCH   6   8
HETATM    8  C   UNL     1       6.678   0.013  20.414  1.00  0.00     0.068 A 
HETATM    9  C   UNL     1       6.299  -0.492  19.281  1.00  0.00     0.118 A 
HETATM   10  N   UNL     1       5.678  -0.566  18.223  1.00  0.00    -0.373 N 
HETATM   11  C   UNL     1       5.163   0.637  18.395  1.00  0.00     0.089 A 
ATOM     12  HN  UNL     1       5.594  -1.278  17.497  1.00  0.00     0.164 HD
HETATM   13  C   UNL     1       5.224   1.427  19.318  1.00  0.00     0.038 A 
HETATM   14  C   UNL     1       5.915   1.350  20.452  1.00  0.00     0.040 A 
HETATM   15 BR   UNL     1       6.017   2.435  21.669  1.00  0.00    -0.049 Br
ENDBRANCH   6   8
ENDBRANCH   3   4
ENDBRANCH   2   3
BRANCH   2  16
HETATM   16  C   UNL     1      11.104   0.380  23.806  1.00  0.00     0.020 C 
BRANCH  16  17
HETATM   17  C   UNL     1      11.848   0.333  24.542  1.00  0.00     0.001 C 
HETATM   18  C   UNL     1      13.115  -0.359  24.554  1.00  0.00    -0.001 C 
BRANCH  18  19
HETATM   19  C   UNL     1      13.319  -0.980  23.603  1.00  0.00    -0.010 C 
HETATM   20  C   UNL     1      13.347  -1.805  23.080  1.00  0.00     0.011 C 
ENDBRANCH  18  19
ENDBRANCH  16  17
ENDBRANCH   2  16
BRANCH   1  21
HETATM   21  C   UNL     1       8.772  -1.995  25.027  1.00  0.00     0.101 C 
HETATM   22  N   UNL     1       8.894  -2.724  25.932  1.00  0.00    -0.295 N 
ATOM     23  HN  UNL     1       9.659  -2.525  26.577  1.00  0.00     0.177 HD
BRANCH  22  24
HETATM   24  S   UNL     1       7.974  -4.028  26.274  1.00  0.00     0.226 S 
HETATM   25  C   UNL     1       7.845  -4.882  24.886  1.00  0.00     0.186 C 
HETATM   26  O   UNL     1       8.631  -4.851  27.227  1.00  0.00    -0.206 OA
HETATM   27  O   UNL     1       6.674  -3.604  26.711  1.00  0.00    -0.206 OA
ENDBRANCH  22  24
ENDBRANCH   1  21
TORSDOF 8
ENDMDL
MODEL 5
REMARK VINA RESULT:    -6.793      3.269      6.175
REMARK INTER + INTRA:         -10.642
REMARK INTER:                  -9.820
REMARK INTRA:                  -0.822
REMARK UNBOUND:                -0.672
REMARK  8 active torsions:
REMARK  status: ('A' for Active; 'I' for Inactive)
REMARK    1  A    between atoms: S_2  and  N_5 
REMARK    2  A    between atoms: C_7  and  C_8 
REMARK    3  A    between atoms: C_9  and  C_15 
REMARK    4  A    between atoms: C_9  and  C_10 
REMARK    5  A    between atoms: C_10  and  C_11 
REMARK    6  A    between atoms: C_12  and  C_13 
REMARK    7  A    between atoms: C_15  and  C_16 
REMARK       I    between atoms: C_16  and  N_18 
REMARK    8  A    between atoms: N_18  and  C_20 
ROOT
HETATM    1  C   UNL     1       7.355  -1.744  22.125  1.00  0.00     0.038 C 
HETATM    2  C   UNL     1       8.225  -2.113  23.014  1.00  0.00     0.016 C 
ENDROOT
BRANCH   2   3
HETATM    3  C   UNL     1       7.985  -3.217  23.124  1.00  0.00    -0.044 C 
BRANCH   3   4
HETATM    4  C   UNL     1       7.391  -4.416  23.459  1.00  0.00     0.294 C 
HETATM    5  O   UNL     1       7.876  -5.380  23.073  1.00  0.00    -0.258 OA
HETATM    6  N   UNL     1       6.290  -4.201  24.134  1.00  0.00    -0.314 N 
ATOM      7  HN  UNL     1       6.003  -3.248  24.360  1.00  0.00     0.170 HD
BRANCH   6   8
HETATM    8  C   UNL     1       5.593  -5.171  24.499  1.00  0.00     0.068 A 
HETATM    9  C   UNL     1       4.697  -5.927  23.945  1.00  0.00     0.118 A 
HETATM   10  N   UNL     1       3.899  -6.858  23.849  1.00  0.00    -0.373 N 
HETATM   11  C   UNL     1       4.091  -7.204  25.109  1.00  0.00     0.089 A 
ATOM     12  HN  UNL     1       3.317  -7.219  23.094  1.00  0.00     0.164 HD
HETATM   13  C   UNL     1       4.858  -6.796  25.960  1.00  0.00     0.038 A 
HETATM   14  C   UNL     1       5.722  -5.786  25.905  1.00  0.00     0.040 A 
HETATM   15 BR   UNL     1       6.722  -5.224  27.069  1.00  0.00    -0.049 Br
ENDBRANCH   6   8
ENDBRANCH   3   4
ENDBRANCH   2   3
BRANCH   2  16
HETATM   16  C   UNL     1       9.501  -1.445  23.663  1.00  0.00     0.020 C 
BRANCH  16  17
HETATM   17  C   UNL     1       9.616  -0.721  24.411  1.00  0.00     0.001 C 
HETATM   18  C   UNL     1      10.795  -0.024  24.868  1.00  0.00    -0.001 C 
BRANCH  18  19
HETATM   19  C   UNL     1      11.767  -0.345  24.334  1.00  0.00    -0.010 C 
HETATM   20  C   UNL     1      12.732  -0.333  24.181  1.00  0.00     0.011 C 
ENDBRANCH  18  19
ENDBRANCH  16  17
ENDBRANCH   2  16
BRANCH   1  21
HETATM   21  C   UNL     1       6.823  -1.081  21.367  1.00  0.00     0.101 C 
HETATM   22  N   UNL     1       6.031  -0.857  20.538  1.00  0.00    -0.295 N 
ATOM     23  HN  UNL     1       5.076  -1.166  20.725  1.00  0.00     0.177 HD
BRANCH  22  24
HETATM   24  S   UNL     1       6.287  -0.102  19.114  1.00  0.00     0.226 S 
HETATM   25  C   UNL     1       5.293   1.197  19.093  1.00  0.00     0.186 C 
HETATM   26  O   UNL     1       7.622   0.376  19.050  1.00  0.00    -0.206 OA
HETATM   27  O   UNL     1       5.961  -0.985  18.030  1.00  0.00    -0.206 OA
ENDBRANCH  22  24
ENDBRANCH   1  21
TORSDOF 8
ENDMDL
MODEL 6
REMARK VINA RESULT:    -6.728      3.190      6.228
REMARK INTER + INTRA:         -10.547
REMARK INTER:                  -9.695
REMARK INTRA:                  -0.852
REMARK UNBOUND:                -0.672
REMARK  8 active torsions:
REMARK  status: ('A' for Active; 'I' for Inactive)
REMARK    1  A    between atoms: S_2  and  N_5 
REMARK    2  A    between atoms: C_7  and  C_8 
REMARK    3  A    between atoms: C_9  and  C_15 
REMARK    4  A    between atoms: C_9  and  C_10 
REMARK    5  A    between atoms: C_10  and  C_11 
REMARK    6  A    between atoms: C_12  and  C_13 
REMARK    7  A    between atoms: C_15  and  C_16 
REMARK       I    between atoms: C_16  and  N_18 
REMARK    8  A    between atoms: N_18  and  C_20 
ROOT
HETATM    1  C   UNL     1       7.495  -1.289  22.142  1.00  0.00     0.038 C 
HETATM    2  C   UNL     1       8.391  -1.551  23.044  1.00  0.00     0.016 C 
ENDROOT
BRANCH   2   3
HETATM    3  C   UNL     1       8.176  -2.643  23.268  1.00  0.00    -0.044 C 
BRANCH   3   4
HETATM    4  C   UNL     1       7.691  -3.811  23.819  1.00  0.00     0.294 C 
HETATM    5  O   UNL     1       7.861  -4.786  23.240  1.00  0.00    -0.258 OA
HETATM    6  N   UNL     1       7.036  -3.552  24.922  1.00  0.00    -0.314 N 
ATOM      7  HN  UNL     1       6.970  -2.595  25.268  1.00  0.00     0.170 HD
BRANCH   6   8
HETATM    8  C   UNL     1       6.494  -4.487  25.549  1.00  0.00     0.068 A 
HETATM    9  C   UNL     1       6.857  -5.304  26.489  1.00  0.00     0.118 A 
HETATM   10  N   UNL     1       6.735  -6.192  27.331  1.00  0.00    -0.373 N 
HETATM   11  C   UNL     1       5.496  -6.440  26.946  1.00  0.00     0.089 A 
ATOM     12  HN  UNL     1       7.349  -6.583  28.044  1.00  0.00     0.164 HD
HETATM   13  C   UNL     1       4.767  -5.894  26.140  1.00  0.00     0.038 A 
HETATM   14  C   UNL     1       5.026  -4.885  25.312  1.00  0.00     0.040 A 
HETATM   15 BR   UNL     1       4.047  -4.184  24.208  1.00  0.00    -0.049 Br
ENDBRANCH   6   8
ENDBRANCH   3   4
ENDBRANCH   2   3
BRANCH   2  16
HETATM   16  C   UNL     1       9.665  -0.799  23.595  1.00  0.00     0.020 C 
BRANCH  16  17
HETATM   17  C   UNL     1       9.791  -0.077  24.343  1.00  0.00     0.001 C 
HETATM   18  C   UNL     1      10.986   0.573  24.829  1.00  0.00    -0.001 C 
BRANCH  18  19
HETATM   19  C   UNL     1      11.956   0.211  24.321  1.00  0.00    -0.010 C 
HETATM   20  C   UNL     1      12.827  -0.232  24.302  1.00  0.00     0.011 C 
ENDBRANCH  18  19
ENDBRANCH  16  17
ENDBRANCH   2  16
BRANCH   1  21
HETATM   21  C   UNL     1       6.934  -0.715  21.334  1.00  0.00     0.101 C 
HETATM   22  N   UNL     1       6.102  -0.578  20.526  1.00  0.00    -0.295 N 
ATOM     23  HN  UNL     1       5.154  -0.837  20.800  1.00  0.00     0.177 HD
BRANCH  22  24
HETATM   24  S   UNL     1       6.293  -0.018  19.005  1.00  0.00     0.226 S 
HETATM   25  C   UNL     1       5.338   1.303  18.875  1.00  0.00     0.186 C 
HETATM   26  O   UNL     1       7.635   0.400  18.805  1.00  0.00    -0.206 OA
HETATM   27  O   UNL     1       5.877  -1.017  18.063  1.00  0.00    -0.206 OA
ENDBRANCH  22  24
ENDBRANCH   1  21
TORSDOF 8
ENDMDL
MODEL 7
REMARK VINA RESULT:    -6.658      3.869      6.063
REMARK INTER + INTRA:         -10.444
REMARK INTER:                  -9.442
REMARK INTRA:                  -1.002
REMARK UNBOUND:                -0.672
REMARK  8 active torsions:
REMARK  status: ('A' for Active; 'I' for Inactive)
REMARK    1  A    between atoms: S_2  and  N_5 
REMARK    2  A    between atoms: C_7  and  C_8 
REMARK    3  A    between atoms: C_9  and  C_15 
REMARK    4  A    between atoms: C_9  and  C_10 
REMARK    5  A    between atoms: C_10  and  C_11 
REMARK    6  A    between atoms: C_12  and  C_13 
REMARK    7  A    between atoms: C_15  and  C_16 
REMARK       I    between atoms: C_16  and  N_18 
REMARK    8  A    between atoms: N_18  and  C_20 
ROOT
HETATM    1  C   UNL     1       7.869  -4.751  25.886  1.00  0.00     0.038 C 
HETATM    2  C   UNL     1       7.916  -4.631  24.595  1.00  0.00     0.016 C 
ENDROOT
BRANCH   2   3
HETATM    3  C   UNL     1       8.530  -3.684  24.475  1.00  0.00    -0.044 C 
BRANCH   3   4
HETATM    4  C   UNL     1       8.921  -2.377  24.276  1.00  0.00     0.294 C 
HETATM    5  O   UNL     1       9.022  -1.703  25.198  1.00  0.00    -0.258 OA
HETATM    6  N   UNL     1       9.041  -2.131  22.996  1.00  0.00    -0.314 N 
ATOM      7  HN  UNL     1       8.877  -2.871  22.313  1.00  0.00     0.170 HD
BRANCH   6   8
HETATM    8  C   UNL     1       9.359  -0.984  22.617  1.00  0.00     0.068 A 
HETATM    9  C   UNL     1       8.717   0.073  22.227  1.00  0.00     0.118 A 
HETATM   10  N   UNL     1       8.561   1.238  21.865  1.00  0.00    -0.373 N 
HETATM   11  C   UNL     1       9.865   1.441  21.827  1.00  0.00     0.089 A 
ATOM     12  HN  UNL     1       7.745   1.818  21.672  1.00  0.00     0.164 HD
HETATM   13  C   UNL     1      10.810   0.744  22.145  1.00  0.00     0.038 A 
HETATM   14  C   UNL     1      10.825  -0.514  22.578  1.00  0.00     0.040 A 
HETATM   15 BR   UNL     1      12.104  -1.452  22.968  1.00  0.00    -0.049 Br
ENDBRANCH   6   8
ENDBRANCH   3   4
ENDBRANCH   2   3
BRANCH   2  16
HETATM   16  C   UNL     1       7.537  -5.566  23.379  1.00  0.00     0.020 C 
BRANCH  16  17
HETATM   17  C   UNL     1       7.123  -5.368  22.437  1.00  0.00     0.001 C 
HETATM   18  C   UNL     1       5.750  -5.390  21.991  1.00  0.00    -0.001 C 
BRANCH  18  19
HETATM   19  C   UNL     1       4.997  -5.704  22.806  1.00  0.00    -0.010 C 
HETATM   20  C   UNL     1       4.124  -5.705  23.244  1.00  0.00     0.011 C 
ENDBRANCH  18  19
ENDBRANCH  16  17
ENDBRANCH   2  16
BRANCH   1  21
HETATM   21  C   UNL     1       7.665  -5.215  26.906  1.00  0.00     0.101 C 
HETATM   22  N   UNL     1       7.543  -6.107  27.650  1.00  0.00    -0.295 N 
ATOM     23  HN  UNL     1       8.272  -6.820  27.630  1.00  0.00     0.177 HD
BRANCH  22  24
HETATM   24  S   UNL     1       6.331  -6.336  28.719  1.00  0.00     0.226 S 
HETATM   25  C   UNL     1       4.938  -6.241  27.867  1.00  0.00     0.186 C 
HETATM   26  O   UNL     1       6.409  -7.642  29.271  1.00  0.00    -0.206 OA
HETATM   27  O   UNL     1       6.364  -5.308  29.719  1.00  0.00    -0.206 OA
ENDBRANCH  22  24
ENDBRANCH   1  21
TORSDOF 8
ENDMDL
MODEL 8
REMARK VINA RESULT:    -6.583     14.393     16.251
REMARK INTER + INTRA:         -10.334
REMARK INTER:                  -9.299
REMARK INTRA:                  -1.035
REMARK UNBOUND:                -0.672
REMARK  8 active torsions:
REMARK  status: ('A' for Active; 'I' for Inactive)
REMARK    1  A    between atoms: S_2  and  N_5 
REMARK    2  A    between atoms: C_7  and  C_8 
REMARK    3  A    between atoms: C_9  and  C_15 
REMARK    4  A    between atoms: C_9  and  C_10 
REMARK    5  A    between atoms: C_10  and  C_11 
REMARK    6  A    between atoms: C_12  and  C_13 
REMARK    7  A    between atoms: C_15  and  C_16 
REMARK       I    between atoms: C_16  and  N_18 
REMARK    8  A    between atoms: N_18  and  C_20 
ROOT
HETATM    1  C   UNL     1      24.297  -3.444  23.422  1.00  0.00     0.038 C 
HETATM    2  C   UNL     1      24.051  -2.171  23.464  1.00  0.00     0.016 C 
ENDROOT
BRANCH   2   3
HETATM    3  C   UNL     1      23.875  -1.935  22.368  1.00  0.00    -0.044 C 
BRANCH   3   4
HETATM    4  C   UNL     1      23.311  -1.804  21.116  1.00  0.00     0.294 C 
HETATM    5  O   UNL     1      22.174  -1.920  21.027  1.00  0.00    -0.258 OA
HETATM    6  N   UNL     1      24.245  -1.632  20.216  1.00  0.00    -0.314 N 
ATOM      7  HN  UNL     1      25.225  -1.585  20.494  1.00  0.00     0.170 HD
BRANCH   6   8
HETATM    8  C   UNL     1      23.927  -1.526  19.012  1.00  0.00     0.068 A 
HETATM    9  C   UNL     1      23.475  -0.575  18.255  1.00  0.00     0.118 A 
HETATM   10  N   UNL     1      23.115  -0.026  17.215  1.00  0.00    -0.373 N 
HETATM   11  C   UNL     1      23.243  -1.148  16.532  1.00  0.00     0.089 A 
ATOM     12  HN  UNL     1      22.829   0.923  16.976  1.00  0.00     0.164 HD
HETATM   13  C   UNL     1      23.666  -2.247  16.839  1.00  0.00     0.038 A 
HETATM   14  C   UNL     1      24.079  -2.695  18.021  1.00  0.00     0.040 A 
HETATM   15 BR   UNL     1      24.611  -4.185  18.428  1.00  0.00    -0.049 Br
ENDBRANCH   6   8
ENDBRANCH   3   4
ENDBRANCH   2   3
BRANCH   2  16
HETATM   16  C   UNL     1      23.762  -1.134  24.620  1.00  0.00     0.020 C 
BRANCH  16  17
HETATM   17  C   UNL     1      23.373  -0.161  24.617  1.00  0.00     0.001 C 
HETATM   18  C   UNL     1      22.013   0.307  24.746  1.00  0.00    -0.001 C 
BRANCH  18  19
HETATM   19  C   UNL     1      21.233  -0.538  24.842  1.00  0.00    -0.010 C 
HETATM   20  C   UNL     1      20.581  -1.177  24.494  1.00  0.00     0.011 C 
ENDBRANCH  18  19
ENDBRANCH  16  17
ENDBRANCH   2  16
BRANCH   1  21
HETATM   21  C   UNL     1      24.486  -4.505  23.791  1.00  0.00     0.101 C 
HETATM   22  N   UNL     1      24.160  -5.566  24.153  1.00  0.00    -0.295 N 
ATOM     23  HN  UNL     1      23.448  -6.039  23.597  1.00  0.00     0.177 HD
BRANCH  22  24
HETATM   24  S   UNL     1      24.721  -6.374  25.456  1.00  0.00     0.226 S 
HETATM   25  C   UNL     1      24.471  -5.402  26.747  1.00  0.00     0.186 C 
HETATM   26  O   UNL     1      23.964  -7.559  25.657  1.00  0.00    -0.206 OA
HETATM   27  O   UNL     1      26.124  -6.632  25.301  1.00  0.00    -0.206 OA
ENDBRANCH  22  24
ENDBRANCH   1  21
TORSDOF 8
ENDMDL
MODEL 9
REMARK VINA RESULT:    -6.430      1.630      2.066
REMARK INTER + INTRA:         -10.109
REMARK INTER:                  -9.214
REMARK INTRA:                  -0.895
REMARK UNBOUND:                -0.672
REMARK  8 active torsions:
REMARK  status: ('A' for Active; 'I' for Inactive)
REMARK    1  A    between atoms: S_2  and  N_5 
REMARK    2  A    between atoms: C_7  and  C_8 
REMARK    3  A    between atoms: C_9  and  C_15 
REMARK    4  A    between atoms: C_9  and  C_10 
REMARK    5  A    between atoms: C_10  and  C_11 
REMARK    6  A    between atoms: C_12  and  C_13 
REMARK    7  A    between atoms: C_15  and  C_16 
REMARK       I    between atoms: C_16  and  N_18 
REMARK    8  A    between atoms: N_18  and  C_20 
ROOT
HETATM    1  C   UNL     1       8.528  -2.091  22.514  1.00  0.00     0.038 C 
HETATM    2  C   UNL     1       9.252  -1.066  22.843  1.00  0.00     0.016 C 
ENDROOT
BRANCH   2   3
HETATM    3  C   UNL     1       8.882  -0.281  22.110  1.00  0.00    -0.044 C 
BRANCH   3   4
HETATM    4  C   UNL     1       8.111   0.646  21.441  1.00  0.00     0.294 C 
HETATM    5  O   UNL     1       8.621   1.609  21.086  1.00  0.00    -0.258 OA
HETATM    6  N   UNL     1       6.863   0.251  21.401  1.00  0.00    -0.314 N 
ATOM      7  HN  UNL     1       6.594  -0.645  21.808  1.00  0.00     0.170 HD
BRANCH   6   8
HETATM    8  C   UNL     1       6.005   0.980  20.860  1.00  0.00     0.068 A 
HETATM    9  C   UNL     1       5.333   2.034  21.208  1.00  0.00     0.118 A 
HETATM   10  N   UNL     1       4.563   2.983  21.077  1.00  0.00    -0.373 N 
HETATM   11  C   UNL     1       4.227   2.593  19.862  1.00  0.00     0.089 A 
ATOM     12  HN  UNL     1       4.291   3.764  21.674  1.00  0.00     0.164 HD
HETATM   13  C   UNL     1       4.636   1.696  19.149  1.00  0.00     0.038 A 
HETATM   14  C   UNL     1       5.532   0.749  19.413  1.00  0.00     0.040 A 
HETATM   15 BR   UNL     1       6.047  -0.473  18.459  1.00  0.00    -0.049 Br
ENDBRANCH   6   8
ENDBRANCH   3   4
ENDBRANCH   2   3
BRANCH   2  16
HETATM   16  C   UNL     1      10.213  -0.725  24.049  1.00  0.00     0.020 C 
BRANCH  16  17
HETATM   17  C   UNL     1      11.246  -0.558  24.106  1.00  0.00     0.001 C 
HETATM   18  C   UNL     1      12.000   0.673  24.095  1.00  0.00    -0.001 C 
BRANCH  18  19
HETATM   19  C   UNL     1      11.351   1.620  23.978  1.00  0.00    -0.010 C 
HETATM   20  C   UNL     1      11.199   2.562  23.770  1.00  0.00     0.011 C 
ENDBRANCH  18  19
ENDBRANCH  16  17
ENDBRANCH   2  16
BRANCH   1  21
HETATM   21  C   UNL     1       8.070  -3.132  22.570  1.00  0.00     0.101 C 
HETATM   22  N   UNL     1       7.867  -4.215  22.180  1.00  0.00    -0.295 N 
ATOM     23  HN  UNL     1       8.680  -4.745  21.864  1.00  0.00     0.177 HD
BRANCH  22  24
HETATM   24  S   UNL     1       6.424  -4.971  22.087  1.00  0.00     0.226 S 
HETATM   25  C   UNL     1       5.692  -4.751  23.533  1.00  0.00     0.186 C 
HETATM   26  O   UNL     1       5.614  -4.354  21.097  1.00  0.00    -0.206 OA
HETATM   27  O   UNL     1       6.623  -6.372  21.847  1.00  0.00    -0.206 OA
ENDBRANCH  22  24
ENDBRANCH   1  21
TORSDOF 8
ENDMDL
