REMARK  7 active torsions:
REMARK  status: ('A' for Active; 'I' for Inactive)
REMARK    1  A    between atoms: C_3  and  C_13 
REMARK    2  A    between atoms: C_5  and  C_12 
REMARK    3  A    between atoms: C_5  and  N_6 
REMARK    4  A    between atoms: C_8  and  O_15 
REMARK    5  A    between atoms: N_10  and  C_13 
REMARK    6  A    between atoms: C_12  and  C_14 
REMARK    7  A    between atoms: C_14  and  O_15 
ROOT
HETATM    1  C   UNL     1       6.698  -0.895  23.915  1.00  0.00     0.199 C 
ENDROOT
BRANCH   1   2
HETATM    2  C   UNL     1       7.051  -2.227  23.310  1.00  0.00     0.167 C 
HETATM    3  O   UNL     1       7.362  -3.220  23.920  1.00  0.00    -0.294 OA
BRANCH   2   4
HETATM    4  C   UNL     1       6.932  -2.202  21.806  1.00  0.00     0.251 C 
BRANCH   4   5
HETATM    5  O   UNL     1       8.023  -2.852  21.287  1.00  0.00    -0.352 OA
BRANCH   5   6
HETATM    6  C   UNL     1       9.305  -2.686  21.278  1.00  0.00     0.283 A 
HETATM    7  C   UNL     1      10.348  -3.224  20.676  1.00  0.00     0.231 A 
HETATM    8  O   UNL     1      10.464  -2.299  21.717  1.00  0.00    -0.354 OA
ENDBRANCH   5   6
ENDBRANCH   4   5
ENDBRANCH   2   4
ENDBRANCH   1   2
BRANCH   1   9
HETATM    9  N   UNL     1       7.691   0.116  23.603  1.00  0.00    -0.394 N 
HETATM   10  H   UNL     1       7.560   0.965  24.154  1.00  0.00     0.159 HD
HETATM   11  C   UNL     1       8.912  -0.141  23.302  1.00  0.00     0.074 C 
BRANCH  11  12
HETATM   12  C   UNL     1       9.847   0.985  22.969  1.00  0.00     0.155 C 
BRANCH  12  13
HETATM   13  N   UNL     1      11.169   0.429  22.935  1.00  0.00    -0.426 N 
HETATM   14  H   UNL     1      11.852   0.948  23.451  1.00  0.00     0.150 HD
HETATM   15  H   UNL     1      11.333  -0.119  22.121  1.00  0.00     0.150 HD
ENDBRANCH  12  13
ENDBRANCH  11  12
ENDBRANCH   1   9
TORSDOF 7
