MODEL 1
REMARK VINA RESULT:    -4.230      0.000      0.000
REMARK INTER + INTRA:          -6.331
REMARK INTER:                  -5.838
REMARK INTRA:                  -0.493
REMARK UNBOUND:                -0.493
REMARK  7 active torsions:
REMARK  status: ('A' for Active; 'I' for Inactive)
REMARK    1  A    between atoms: C_3  and  C_13 
REMARK    2  A    between atoms: C_5  and  C_12 
REMARK    3  A    between atoms: C_5  and  N_6 
REMARK    4  A    between atoms: C_8  and  O_15 
REMARK    5  A    between atoms: N_10  and  C_13 
REMARK    6  A    between atoms: C_12  and  C_14 
REMARK    7  A    between atoms: C_14  and  O_15 
ROOT
HETATM    1  C   UNL     1       9.299  18.307   2.438  1.00  0.00     0.199 C 
ENDROOT
BRANCH   1   2
HETATM    2  C   UNL     1       9.392  17.427   1.220  1.00  0.00     0.167 C 
HETATM    3  O   UNL     1       9.790  17.765   0.133  1.00  0.00    -0.294 OA
BRANCH   2   4
HETATM    4  C   UNL     1       8.956  16.015   1.522  1.00  0.00     0.251 C 
BRANCH   4   5
HETATM    5  O   UNL     1       9.976  15.395   2.199  1.00  0.00    -0.352 OA
BRANCH   5   6
HETATM    6  C   UNL     1      10.129  14.796   3.334  1.00  0.00     0.283 A 
HETATM    7  C   UNL     1      10.781  15.006   4.461  1.00  0.00     0.231 A 
HETATM    8  O   UNL     1      10.127  13.805   4.173  1.00  0.00    -0.354 OA
ENDBRANCH   5   6
ENDBRANCH   4   5
ENDBRANCH   2   4
ENDBRANCH   1   2
BRANCH   1   9
HETATM    9  N   UNL     1      10.558  18.363   3.156  1.00  0.00    -0.394 N 
HETATM   10  H   UNL     1      11.272  17.773   2.726  1.00  0.00     0.159 HD
HETATM   11  C   UNL     1      11.014  19.416   3.733  1.00  0.00     0.074 C 
BRANCH  11  12
HETATM   12  C   UNL     1      12.318  19.351   4.473  1.00  0.00     0.155 C 
BRANCH  12  13
HETATM   13  N   UNL     1      12.881  18.059   4.208  1.00  0.00    -0.426 N 
HETATM   14  H   UNL     1      12.211  17.317   4.153  1.00  0.00     0.150 HD
HETATM   15  H   UNL     1      13.824  17.982   4.513  1.00  0.00     0.150 HD
ENDBRANCH  12  13
ENDBRANCH  11  12
ENDBRANCH   1   9
TORSDOF 7
ENDMDL
MODEL 2
REMARK VINA RESULT:    -3.982     30.560     32.501
REMARK INTER + INTRA:          -5.988
REMARK INTER:                  -5.275
REMARK INTRA:                  -0.712
REMARK UNBOUND:                -0.493
REMARK  7 active torsions:
REMARK  status: ('A' for Active; 'I' for Inactive)
REMARK    1  A    between atoms: C_3  and  C_13 
REMARK    2  A    between atoms: C_5  and  C_12 
REMARK    3  A    between atoms: C_5  and  N_6 
REMARK    4  A    between atoms: C_8  and  O_15 
REMARK    5  A    between atoms: N_10  and  C_13 
REMARK    6  A    between atoms: C_12  and  C_14 
REMARK    7  A    between atoms: C_14  and  O_15 
ROOT
HETATM    1  C   UNL     1      24.076  -3.921  26.334  1.00  0.00     0.199 C 
ENDROOT
BRANCH   1   2
HETATM    2  C   UNL     1      23.589  -4.242  24.946  1.00  0.00     0.167 C 
HETATM    3  O   UNL     1      23.369  -5.346  24.512  1.00  0.00    -0.294 OA
BRANCH   2   4
HETATM    4  C   UNL     1      23.358  -2.990  24.136  1.00  0.00     0.251 C 
BRANCH   4   5
HETATM    5  O   UNL     1      22.005  -2.766  24.086  1.00  0.00    -0.352 OA
BRANCH   5   6
HETATM    6  C   UNL     1      21.178  -1.877  24.531  1.00  0.00     0.283 A 
HETATM    7  C   UNL     1      21.012  -0.573  24.432  1.00  0.00     0.231 A 
HETATM    8  O   UNL     1      20.275  -1.369  25.313  1.00  0.00    -0.354 OA
ENDBRANCH   5   6
ENDBRANCH   4   5
ENDBRANCH   2   4
ENDBRANCH   1   2
BRANCH   1   9
HETATM    9  N   UNL     1      23.412  -2.752  26.878  1.00  0.00    -0.394 N 
HETATM   10  H   UNL     1      22.494  -2.976  27.263  1.00  0.00     0.159 HD
HETATM   11  C   UNL     1      24.019  -1.789  27.473  1.00  0.00     0.074 C 
BRANCH  11  12
HETATM   12  C   UNL     1      23.233  -0.613  27.972  1.00  0.00     0.155 C 
BRANCH  12  13
HETATM   13  N   UNL     1      21.855  -1.013  27.991  1.00  0.00    -0.426 N 
HETATM   14  H   UNL     1      21.202  -0.254  28.014  1.00  0.00     0.150 HD
HETATM   15  H   UNL     1      21.725  -1.918  28.382  1.00  0.00     0.150 HD
ENDBRANCH  12  13
ENDBRANCH  11  12
ENDBRANCH   1   9
TORSDOF 7
ENDMDL
MODEL 3
REMARK VINA RESULT:    -3.972     23.431     25.534
REMARK INTER + INTRA:          -5.975
REMARK INTER:                  -5.759
REMARK INTRA:                  -0.215
REMARK UNBOUND:                -0.493
REMARK  7 active torsions:
REMARK  status: ('A' for Active; 'I' for Inactive)
REMARK    1  A    between atoms: C_3  and  C_13 
REMARK    2  A    between atoms: C_5  and  C_12 
REMARK    3  A    between atoms: C_5  and  N_6 
REMARK    4  A    between atoms: C_8  and  O_15 
REMARK    5  A    between atoms: N_10  and  C_13 
REMARK    6  A    between atoms: C_12  and  C_14 
REMARK    7  A    between atoms: C_14  and  O_15 
ROOT
HETATM    1  C   UNL     1       8.508  -0.381  21.184  1.00  0.00     0.199 C 
ENDROOT
BRANCH   1   2
HETATM    2  C   UNL     1       9.279   0.723  21.855  1.00  0.00     0.167 C 
HETATM    3  O   UNL     1       9.817   1.649  21.299  1.00  0.00    -0.294 OA
BRANCH   2   4
HETATM    4  C   UNL     1       9.277   0.569  23.356  1.00  0.00     0.251 C 
BRANCH   4   5
HETATM    5  O   UNL     1      10.580   0.597  23.784  1.00  0.00    -0.352 OA
BRANCH   5   6
HETATM    6  C   UNL     1      11.573  -0.229  23.842  1.00  0.00     0.283 A 
HETATM    7  C   UNL     1      12.817  -0.220  24.280  1.00  0.00     0.231 A 
HETATM    8  O   UNL     1      12.283  -1.270  23.529  1.00  0.00    -0.354 OA
ENDBRANCH   5   6
ENDBRANCH   4   5
ENDBRANCH   2   4
ENDBRANCH   1   2
BRANCH   1   9
HETATM    9  N   UNL     1       7.948   0.050  19.917  1.00  0.00    -0.394 N 
HETATM   10  H   UNL     1       8.503  -0.271  19.123  1.00  0.00     0.159 HD
HETATM   11  C   UNL     1       6.690   0.150  19.681  1.00  0.00     0.074 C 
BRANCH  11  12
HETATM   12  C   UNL     1       6.222   0.634  18.339  1.00  0.00     0.155 C 
BRANCH  12  13
HETATM   13  N   UNL     1       5.613  -0.488  17.684  1.00  0.00    -0.426 N 
HETATM   14  H   UNL     1       4.981  -1.011  18.257  1.00  0.00     0.150 HD
HETATM   15  H   UNL     1       6.167  -0.842  16.938  1.00  0.00     0.150 HD
ENDBRANCH  12  13
ENDBRANCH  11  12
ENDBRANCH   1   9
TORSDOF 7
ENDMDL
MODEL 4
REMARK VINA RESULT:    -3.872     23.750     25.703
REMARK INTER + INTRA:          -5.836
REMARK INTER:                  -5.438
REMARK INTRA:                  -0.398
REMARK UNBOUND:                -0.493
REMARK  7 active torsions:
REMARK  status: ('A' for Active; 'I' for Inactive)
REMARK    1  A    between atoms: C_3  and  C_13 
REMARK    2  A    between atoms: C_5  and  C_12 
REMARK    3  A    between atoms: C_5  and  N_6 
REMARK    4  A    between atoms: C_8  and  O_15 
REMARK    5  A    between atoms: N_10  and  C_13 
REMARK    6  A    between atoms: C_12  and  C_14 
REMARK    7  A    between atoms: C_14  and  O_15 
ROOT
HETATM    1  C   UNL     1       9.835  -0.677  21.822  1.00  0.00     0.199 C 
ENDROOT
BRANCH   1   2
HETATM    2  C   UNL     1       9.389   0.725  21.503  1.00  0.00     0.167 C 
HETATM    3  O   UNL     1      10.093   1.704  21.487  1.00  0.00    -0.294 OA
BRANCH   2   4
HETATM    4  C   UNL     1       7.922   0.774  21.153  1.00  0.00     0.251 C 
BRANCH   4   5
HETATM    5  O   UNL     1       7.802   0.515  19.811  1.00  0.00    -0.352 OA
BRANCH   5   6
HETATM    6  C   UNL     1       6.854   0.511  18.931  1.00  0.00     0.283 A 
HETATM    7  C   UNL     1       6.054  -0.376  18.373  1.00  0.00     0.231 A 
HETATM    8  O   UNL     1       6.145   0.947  17.935  1.00  0.00    -0.354 OA
ENDBRANCH   5   6
ENDBRANCH   4   5
ENDBRANCH   2   4
ENDBRANCH   1   2
BRANCH   1   9
HETATM    9  N   UNL     1       8.708  -1.582  21.952  1.00  0.00    -0.394 N 
HETATM   10  H   UNL     1       8.315  -1.838  21.045  1.00  0.00     0.159 HD
HETATM   11  C   UNL     1       8.616  -2.495  22.849  1.00  0.00     0.074 C 
BRANCH  11  12
HETATM   12  C   UNL     1       7.389  -3.358  22.907  1.00  0.00     0.155 C 
BRANCH  12  13
HETATM   13  N   UNL     1       7.719  -4.591  22.252  1.00  0.00    -0.426 N 
HETATM   14  H   UNL     1       6.969  -5.252  22.210  1.00  0.00     0.150 HD
HETATM   15  H   UNL     1       8.690  -4.799  22.295  1.00  0.00     0.150 HD
ENDBRANCH  12  13
ENDBRANCH  11  12
ENDBRANCH   1   9
TORSDOF 7
ENDMDL
MODEL 5
REMARK VINA RESULT:    -3.813      3.373      5.459
REMARK INTER + INTRA:          -5.755
REMARK INTER:                  -5.498
REMARK INTRA:                  -0.257
REMARK UNBOUND:                -0.493
REMARK  7 active torsions:
REMARK  status: ('A' for Active; 'I' for Inactive)
REMARK    1  A    between atoms: C_3  and  C_13 
REMARK    2  A    between atoms: C_5  and  C_12 
REMARK    3  A    between atoms: C_5  and  N_6 
REMARK    4  A    between atoms: C_8  and  O_15 
REMARK    5  A    between atoms: N_10  and  C_13 
REMARK    6  A    between atoms: C_12  and  C_14 
REMARK    7  A    between atoms: C_14  and  O_15 
ROOT
HETATM    1  C   UNL     1       9.861  14.538   3.295  1.00  0.00     0.199 C 
ENDROOT
BRANCH   1   2
HETATM    2  C   UNL     1       9.409  15.364   2.121  1.00  0.00     0.167 C 
HETATM    3  O   UNL     1       9.754  15.211   0.975  1.00  0.00    -0.294 OA
BRANCH   2   4
HETATM    4  C   UNL     1       8.413  16.419   2.535  1.00  0.00     0.251 C 
BRANCH   4   5
HETATM    5  O   UNL     1       9.101  17.585   2.754  1.00  0.00    -0.352 OA
BRANCH   5   6
HETATM    6  C   UNL     1       9.674  18.494   2.035  1.00  0.00     0.283 A 
HETATM    7  C   UNL     1       9.624  18.916   0.786  1.00  0.00     0.231 A 
HETATM    8  O   UNL     1      10.585  19.356   1.700  1.00  0.00    -0.354 OA
ENDBRANCH   5   6
ENDBRANCH   4   5
ENDBRANCH   2   4
ENDBRANCH   1   2
BRANCH   1   9
HETATM    9  N   UNL     1       9.332  13.188   3.236  1.00  0.00    -0.394 N 
HETATM   10  H   UNL     1       9.983  12.505   3.624  1.00  0.00     0.159 HD
HETATM   11  C   UNL     1       8.093  12.891   3.389  1.00  0.00     0.074 C 
BRANCH  11  12
HETATM   12  C   UNL     1       7.654  11.460   3.279  1.00  0.00     0.155 C 
BRANCH  12  13
HETATM   13  N   UNL     1       8.233  10.763   4.391  1.00  0.00    -0.426 N 
HETATM   14  H   UNL     1       7.986  11.132   5.288  1.00  0.00     0.150 HD
HETATM   15  H   UNL     1       9.083  10.303   4.154  1.00  0.00     0.150 HD
ENDBRANCH  12  13
ENDBRANCH  11  12
ENDBRANCH   1   9
TORSDOF 7
ENDMDL
MODEL 6
REMARK VINA RESULT:    -3.754     25.270     26.905
REMARK INTER + INTRA:          -5.674
REMARK INTER:                  -5.004
REMARK INTRA:                  -0.669
REMARK UNBOUND:                -0.493
REMARK  7 active torsions:
REMARK  status: ('A' for Active; 'I' for Inactive)
REMARK    1  A    between atoms: C_3  and  C_13 
REMARK    2  A    between atoms: C_5  and  C_12 
REMARK    3  A    between atoms: C_5  and  N_6 
REMARK    4  A    between atoms: C_8  and  O_15 
REMARK    5  A    between atoms: N_10  and  C_13 
REMARK    6  A    between atoms: C_12  and  C_14 
REMARK    7  A    between atoms: C_14  and  O_15 
ROOT
HETATM    1  C   UNL     1      10.540   0.292  25.338  1.00  0.00     0.199 C 
ENDROOT
BRANCH   1   2
HETATM    2  C   UNL     1      11.565   0.721  24.323  1.00  0.00     0.167 C 
HETATM    3  O   UNL     1      12.732   0.419  24.327  1.00  0.00    -0.294 OA
BRANCH   2   4
HETATM    4  C   UNL     1      10.948   1.567  23.237  1.00  0.00     0.251 C 
BRANCH   4   5
HETATM    5  O   UNL     1      10.563   0.730  22.220  1.00  0.00    -0.352 OA
BRANCH   5   6
HETATM    6  C   UNL     1       9.549   0.613  21.426  1.00  0.00     0.283 A 
HETATM    7  C   UNL     1       8.236   0.694  21.513  1.00  0.00     0.231 A 
HETATM    8  O   UNL     1       8.895   0.241  20.368  1.00  0.00    -0.354 OA
ENDBRANCH   5   6
ENDBRANCH   4   5
ENDBRANCH   2   4
ENDBRANCH   1   2
BRANCH   1   9
HETATM    9  N   UNL     1       9.471  -0.478  24.729  1.00  0.00    -0.394 N 
HETATM   10  H   UNL     1       8.896   0.090  24.107  1.00  0.00     0.159 HD
HETATM   11  C   UNL     1       9.577  -1.709  24.382  1.00  0.00     0.074 C 
BRANCH  11  12
HETATM   12  C   UNL     1       8.394  -2.416  23.785  1.00  0.00     0.155 C 
BRANCH  12  13
HETATM   13  N   UNL     1       8.776  -2.815  22.461  1.00  0.00    -0.426 N 
HETATM   14  H   UNL     1       9.665  -3.273  22.405  1.00  0.00     0.150 HD
HETATM   15  H   UNL     1       8.352  -2.257  21.756  1.00  0.00     0.150 HD
ENDBRANCH  12  13
ENDBRANCH  11  12
ENDBRANCH   1   9
TORSDOF 7
ENDMDL
MODEL 7
REMARK VINA RESULT:    -3.715      1.978      3.428
REMARK INTER + INTRA:          -5.619
REMARK INTER:                  -4.973
REMARK INTRA:                  -0.646
REMARK UNBOUND:                -0.493
REMARK  7 active torsions:
REMARK  status: ('A' for Active; 'I' for Inactive)
REMARK    1  A    between atoms: C_3  and  C_13 
REMARK    2  A    between atoms: C_5  and  C_12 
REMARK    3  A    between atoms: C_5  and  N_6 
REMARK    4  A    between atoms: C_8  and  O_15 
REMARK    5  A    between atoms: N_10  and  C_13 
REMARK    6  A    between atoms: C_12  and  C_14 
REMARK    7  A    between atoms: C_14  and  O_15 
ROOT
HETATM    1  C   UNL     1      10.808  17.292   5.120  1.00  0.00     0.199 C 
ENDROOT
BRANCH   1   2
HETATM    2  C   UNL     1      10.397  15.860   5.332  1.00  0.00     0.167 C 
HETATM    3  O   UNL     1       9.454  15.484   5.982  1.00  0.00    -0.294 OA
BRANCH   2   4
HETATM    4  C   UNL     1      11.299  14.909   4.585  1.00  0.00     0.251 C 
BRANCH   4   5
HETATM    5  O   UNL     1      10.896  14.889   3.274  1.00  0.00    -0.352 OA
BRANCH   5   6
HETATM    6  C   UNL     1       9.811  14.620   2.624  1.00  0.00     0.283 A 
HETATM    7  C   UNL     1       9.154  15.108   1.589  1.00  0.00     0.231 A 
HETATM    8  O   UNL     1       8.633  14.113   2.420  1.00  0.00    -0.354 OA
ENDBRANCH   5   6
ENDBRANCH   4   5
ENDBRANCH   2   4
ENDBRANCH   1   2
BRANCH   1   9
HETATM    9  N   UNL     1      10.457  17.761   3.793  1.00  0.00    -0.394 N 
HETATM   10  H   UNL     1      10.800  17.136   3.062  1.00  0.00     0.159 HD
HETATM   11  C   UNL     1       9.360  18.362   3.507  1.00  0.00     0.074 C 
BRANCH  11  12
HETATM   12  C   UNL     1       9.113  18.829   2.102  1.00  0.00     0.155 C 
BRANCH  12  13
HETATM   13  N   UNL     1      10.399  19.090   1.521  1.00  0.00    -0.426 N 
HETATM   14  H   UNL     1      10.377  19.318   0.546  1.00  0.00     0.150 HD
HETATM   15  H   UNL     1      11.138  18.632   2.005  1.00  0.00     0.150 HD
ENDBRANCH  12  13
ENDBRANCH  11  12
ENDBRANCH   1   9
TORSDOF 7
ENDMDL
MODEL 8
REMARK VINA RESULT:    -3.669     24.882     27.070
REMARK INTER + INTRA:          -5.556
REMARK INTER:                  -5.326
REMARK INTRA:                  -0.230
REMARK UNBOUND:                -0.493
REMARK  7 active torsions:
REMARK  status: ('A' for Active; 'I' for Inactive)
REMARK    1  A    between atoms: C_3  and  C_13 
REMARK    2  A    between atoms: C_5  and  C_12 
REMARK    3  A    between atoms: C_5  and  N_6 
REMARK    4  A    between atoms: C_8  and  O_15 
REMARK    5  A    between atoms: N_10  and  C_13 
REMARK    6  A    between atoms: C_12  and  C_14 
REMARK    7  A    between atoms: C_14  and  O_15 
ROOT
HETATM    1  C   UNL     1       6.911  -0.966  21.925  1.00  0.00     0.199 C 
ENDROOT
BRANCH   1   2
HETATM    2  C   UNL     1       7.966  -1.959  22.331  1.00  0.00     0.167 C 
HETATM    3  O   UNL     1       9.087  -2.019  21.889  1.00  0.00    -0.294 OA
BRANCH   2   4
HETATM    4  C   UNL     1       7.471  -2.881  23.418  1.00  0.00     0.251 C 
BRANCH   4   5
HETATM    5  O   UNL     1       6.709  -3.857  22.827  1.00  0.00    -0.352 OA
BRANCH   5   6
HETATM    6  C   UNL     1       6.919  -4.952  22.174  1.00  0.00     0.283 A 
HETATM    7  C   UNL     1       6.314  -5.650  21.232  1.00  0.00     0.231 A 
HETATM    8  O   UNL     1       7.427  -6.122  21.932  1.00  0.00    -0.354 OA
ENDBRANCH   5   6
ENDBRANCH   4   5
ENDBRANCH   2   4
ENDBRANCH   1   2
BRANCH   1   9
HETATM    9  N   UNL     1       7.010  -0.622  20.519  1.00  0.00    -0.394 N 
HETATM   10  H   UNL     1       7.378  -1.393  19.961  1.00  0.00     0.159 HD
HETATM   11  C   UNL     1       6.177   0.133  19.900  1.00  0.00     0.074 C 
BRANCH  11  12
HETATM   12  C   UNL     1       6.395   0.445  18.448  1.00  0.00     0.155 C 
BRANCH  12  13
HETATM   13  N   UNL     1       5.685  -0.553  17.700  1.00  0.00    -0.426 N 
HETATM   14  H   UNL     1       6.190  -1.406  17.561  1.00  0.00     0.150 HD
HETATM   15  H   UNL     1       5.006  -0.161  17.088  1.00  0.00     0.150 HD
ENDBRANCH  12  13
ENDBRANCH  11  12
ENDBRANCH   1   9
TORSDOF 7
ENDMDL
MODEL 9
REMARK VINA RESULT:    -3.613      2.492      4.582
REMARK INTER + INTRA:          -5.478
REMARK INTER:                  -4.635
REMARK INTRA:                  -0.843
REMARK UNBOUND:                -0.493
REMARK  7 active torsions:
REMARK  status: ('A' for Active; 'I' for Inactive)
REMARK    1  A    between atoms: C_3  and  C_13 
REMARK    2  A    between atoms: C_5  and  C_12 
REMARK    3  A    between atoms: C_5  and  N_6 
REMARK    4  A    between atoms: C_8  and  O_15 
REMARK    5  A    between atoms: N_10  and  C_13 
REMARK    6  A    between atoms: C_12  and  C_14 
REMARK    7  A    between atoms: C_14  and  O_15 
ROOT
HETATM    1  C   UNL     1       9.930  17.219   4.774  1.00  0.00     0.199 C 
ENDROOT
BRANCH   1   2
HETATM    2  C   UNL     1      10.465  18.429   4.056  1.00  0.00     0.167 C 
HETATM    3  O   UNL     1      11.622  18.634   3.783  1.00  0.00    -0.294 OA
BRANCH   2   4
HETATM    4  C   UNL     1       9.358  19.375   3.662  1.00  0.00     0.251 C 
BRANCH   4   5
HETATM    5  O   UNL     1       8.809  18.916   2.492  1.00  0.00    -0.352 OA
BRANCH   5   6
HETATM    6  C   UNL     1       9.223  18.644   1.297  1.00  0.00     0.283 A 
HETATM    7  C   UNL     1       8.746  18.703   0.069  1.00  0.00     0.231 A 
HETATM    8  O   UNL     1       9.960  18.088   0.385  1.00  0.00    -0.354 OA
ENDBRANCH   5   6
ENDBRANCH   4   5
ENDBRANCH   2   4
ENDBRANCH   1   2
BRANCH   1   9
HETATM    9  N   UNL     1       9.202  16.341   3.877  1.00  0.00    -0.394 N 
HETATM   10  H   UNL     1       8.390  16.802   3.465  1.00  0.00     0.159 HD
HETATM   11  C   UNL     1       9.754  15.460   3.125  1.00  0.00     0.074 C 
BRANCH  11  12
HETATM   12  C   UNL     1       8.898  14.585   2.256  1.00  0.00     0.155 C 
BRANCH  12  13
HETATM   13  N   UNL     1       9.087  15.032   0.906  1.00  0.00    -0.426 N 
HETATM   14  H   UNL     1       9.820  15.704   0.788  1.00  0.00     0.150 HD
HETATM   15  H   UNL     1       8.259  14.957   0.359  1.00  0.00     0.150 HD
ENDBRANCH  12  13
ENDBRANCH  11  12
ENDBRANCH   1   9
TORSDOF 7
ENDMDL
