
 OpenBabel07202414163D

 42 45  0  0  1  0  0  0  0  0999 V2000
    1.1134   -0.0354   -0.0954 C   0  0  0  0  0  0  0  0  0  0  0  0
    2.6138   -0.0586   -0.0321 C   0  0  0  0  0  0  0  0  0  0  0  0
    3.3538    0.8509   -0.7840 C   0  0  0  0  0  0  0  0  0  0  0  0
    4.7138    0.7204   -0.7118 C   0  0  0  0  0  0  0  0  0  0  0  0
    5.3358    0.1343    0.3720 C   0  0  0  0  0  0  0  0  0  0  0  0
    4.6840   -0.9416    0.9368 C   0  0  0  0  0  0  0  0  0  0  0  0
    3.3266   -1.1168    0.5838 C   0  0  0  0  0  0  0  0  0  0  0  0
    2.7154   -2.4960    0.5750 C   0  0  0  0  0  0  0  0  0  0  0  0
    6.7661    0.5385    0.1912 C   0  0  1  0  0  0  0  0  0  0  0  0
    7.6930    0.5692    1.3900 C   0  0  0  0  0  0  0  0  0  0  0  0
    8.8177    0.0854    1.4107 O   0  0  0  0  0  0  0  0  0  0  0  0
    7.0962    1.4125    2.3307 N   0  0  0  0  0  0  0  0  0  0  0  0
    7.5876    2.0563    3.4740 C   0  0  0  0  0  0  0  0  0  0  0  0
    8.8928    1.9448    3.9335 C   0  0  0  0  0  0  0  0  0  0  0  0
    9.3115    2.4002    5.1409 N   0  0  0  0  0  0  0  0  0  0  0  0
    8.3813    3.0102    5.9171 C   0  0  0  0  0  0  0  0  0  0  0  0
    7.0708    3.3045    5.5188 C   0  0  0  0  0  0  0  0  0  0  0  0
    6.1855    4.0009    6.3607 C   0  0  0  0  0  0  0  0  0  0  0  0
    4.8951    4.3166    5.9290 C   0  0  0  0  0  0  0  0  0  0  0  0
    4.4898    3.9463    4.6551 C   0  0  0  0  0  0  0  0  0  0  0  0
    5.3534    3.2161    3.8327 C   0  0  0  0  0  0  0  0  0  0  0  0
    6.6546    2.8409    4.2487 C   0  0  0  0  0  0  0  0  0  0  0  0
    6.8144    0.0782   -1.2339 C   0  0  0  0  0  0  0  0  0  0  0  0
    5.6176    0.8148   -1.7764 O   0  0  0  0  0  0  0  0  0  0  0  0
    0.7532    1.0016   -0.0267 H   0  0  0  0  0  0  0  0  0  0  0  0
    0.6817   -0.5647    0.7630 H   0  0  0  0  0  0  0  0  0  0  0  0
    0.7588   -0.4879   -1.0202 H   0  0  0  0  0  0  0  0  0  0  0  0
    2.8861    1.5453   -1.4697 H   0  0  0  0  0  0  0  0  0  0  0  0
    5.2398   -1.7330    1.4295 H   0  0  0  0  0  0  0  0  0  0  0  0
    3.4937   -3.2673    0.5526 H   0  0  0  0  0  0  0  0  0  0  0  0
    2.1592   -2.6311   -0.3650 H   0  0  0  0  0  0  0  0  0  0  0  0
    2.0431   -2.6632    1.4151 H   0  0  0  0  0  0  0  0  0  0  0  0
    6.7610    1.6373    0.0303 H   0  0  0  0  0  0  0  0  0  0  0  0
    6.1169    1.5912    2.1552 H   0  0  0  0  0  0  0  0  0  0  0  0
    9.6708    1.4810    3.3363 H   0  0  0  0  0  0  0  0  0  0  0  0
    8.7465    3.3029    6.9011 H   0  0  0  0  0  0  0  0  0  0  0  0
    6.4958    4.3213    7.3490 H   0  0  0  0  0  0  0  0  0  0  0  0
    4.2234    4.8784    6.5739 H   0  0  0  0  0  0  0  0  0  0  0  0
    3.4998    4.2178    4.2936 H   0  0  0  0  0  0  0  0  0  0  0  0
    4.9788    2.9739    2.8427 H   0  0  0  0  0  0  0  0  0  0  0  0
    6.6517   -1.0085   -1.3582 H   0  0  0  0  0  0  0  0  0  0  0  0
    7.7024    0.3700   -1.7954 H   0  0  0  0  0  0  0  0  0  0  0  0
  1  2  1  0  0  0  0
  1 25  1  0  0  0  0
  1 26  1  0  0  0  0
  1 27  1  0  0  0  0
  2  3  1  0  0  0  0
  2  7  2  0  0  0  0
  3  4  2  0  0  0  0
  3 28  1  0  0  0  0
  4  5  1  0  0  0  0
  4 24  1  0  0  0  0
  5  6  2  0  0  0  0
  5  9  1  0  0  0  0
  6  7  1  0  0  0  0
  6 29  1  0  0  0  0
  7  8  1  0  0  0  0
  8 30  1  0  0  0  0
  8 31  1  0  0  0  0
  8 32  1  0  0  0  0
  9 10  1  0  0  0  0
  9 23  1  0  0  0  0
  9 33  1  6  0  0  0
 10 11  2  0  0  0  0
 10 12  1  0  0  0  0
 12 13  1  0  0  0  0
 12 34  1  0  0  0  0
 13 14  1  0  0  0  0
 13 22  2  0  0  0  0
 14 15  2  0  0  0  0
 14 35  1  0  0  0  0
 15 16  1  0  0  0  0
 16 17  2  0  0  0  0
 16 36  1  0  0  0  0
 17 18  1  0  0  0  0
 17 22  1  0  0  0  0
 18 19  2  0  0  0  0
 18 37  1  0  0  0  0
 19 20  1  0  0  0  0
 19 38  1  0  0  0  0
 20 21  2  0  0  0  0
 20 39  1  0  0  0  0
 21 22  1  0  0  0  0
 21 40  1  0  0  0  0
 23 24  1  0  0  0  0
 23 41  1  0  0  0  0
 23 42  1  0  0  0  0
M  END
$$$$
