REMARK  4 active torsions:
REMARK  status: ('A' for Active; 'I' for Inactive)
REMARK    1  A    between atoms: S_2  and  N_5 
REMARK    2  A    between atoms: N_5  and  C_7 
REMARK    3  A    between atoms: C_15  and  C_16 
REMARK       I    between atoms: C_16  and  N_18 
REMARK    4  A    between atoms: N_18  and  C_20 
ROOT
HETATM    1  C   UNL     1       8.950  -2.909  24.154  1.00  0.00     0.109 C 
HETATM    2  C   UNL     1       9.398  -1.946  23.476  1.00  0.00    -0.008 A 
HETATM    3  C   UNL     1      10.335  -1.145  23.233  1.00  0.00     0.058 A 
HETATM    4  C   UNL     1      11.031  -0.019  24.317  1.00  0.00    -0.003 C 
HETATM    5  C   UNL     1      12.051   0.282  24.276  1.00  0.00    -0.002 C 
HETATM    6  C   UNL     1      13.168  -0.206  23.437  1.00  0.00    -0.001 C 
HETATM    7  C   UNL     1      12.730  -1.230  22.664  1.00  0.00    -0.002 C 
HETATM    8  C   UNL     1      11.797  -1.728  22.487  1.00  0.00    -0.003 C 
HETATM    9  C   UNL     1       9.722  -0.566  22.356  1.00  0.00     0.040 A 
ENDROOT
BRANCH   9  10
HETATM   10  C   UNL     1       9.059   0.047  21.390  1.00  0.00     0.254 C 
HETATM   11  O   UNL     1       9.516   1.014  21.011  1.00  0.00    -0.268 OA
HETATM   12  N   UNL     1       7.945  -0.578  21.051  1.00  0.00    -0.321 N 
ATOM     13  HN  UNL     1       7.696  -1.444  21.530  1.00  0.00     0.169 HD
BRANCH  12  14
HETATM   14  C   UNL     1       7.184  -0.134  20.154  1.00  0.00     0.056 A 
HETATM   15  C   UNL     1       7.233  -0.046  18.849  1.00  0.00     0.117 A 
HETATM   16  N   UNL     1       6.788   0.306  17.759  1.00  0.00    -0.373 N 
HETATM   17  C   UNL     1       5.648   0.889  18.253  1.00  0.00     0.088 A 
ATOM     18  HN  UNL     1       7.145   0.201  16.809  1.00  0.00     0.164 HD
HETATM   19  C   UNL     1       5.277   0.988  19.417  1.00  0.00     0.026 A 
HETATM   20  C   UNL     1       5.832   0.570  20.534  1.00  0.00    -0.033 A 
HETATM   21  C   UNL     1       5.346   0.760  22.044  1.00  0.00     0.050 C 
ENDBRANCH  12  14
ENDBRANCH   9  10
BRANCH   1  22
HETATM   22  N   UNL     1       8.105  -3.557  24.674  1.00  0.00    -0.295 N 
ATOM     23  HN  UNL     1       7.220  -3.658  24.177  1.00  0.00     0.177 HD
BRANCH  22  24
HETATM   24  S   UNL     1       8.239  -4.288  26.093  1.00  0.00     0.226 S 
HETATM   25  C   UNL     1       6.545  -4.885  26.488  1.00  0.00     0.186 C 
HETATM   26  O   UNL     1       9.065  -5.480  26.016  1.00  0.00    -0.206 OA
HETATM   27  O   UNL     1       8.620  -3.431  27.164  1.00  0.00    -0.206 OA
ENDBRANCH  22  24
ENDBRANCH   1  22
TORSDOF 4
