MODEL 1
REMARK VINA RESULT:    -7.976      0.000      0.000
REMARK INTER + INTRA:         -10.743
REMARK INTER:                  -9.841
REMARK INTRA:                  -0.902
REMARK UNBOUND:                -0.902
REMARK  4 active torsions:
REMARK  status: ('A' for Active; 'I' for Inactive)
REMARK    1  A    between atoms: S_2  and  N_5 
REMARK    2  A    between atoms: N_5  and  C_7 
REMARK    3  A    between atoms: C_15  and  C_16 
REMARK       I    between atoms: C_16  and  N_18 
REMARK    4  A    between atoms: N_18  and  C_20 
ROOT
HETATM    1  C   UNL     1       8.732   0.761  22.161  1.00  0.00     0.109 C 
HETATM    2  C   UNL     1       9.227  -0.025  23.013  1.00  0.00    -0.008 A 
HETATM    3  C   UNL     1      10.245  -0.546  23.533  1.00  0.00     0.058 A 
HETATM    4  C   UNL     1      11.427  -1.500  22.744  1.00  0.00    -0.003 C 
HETATM    5  C   UNL     1      12.450  -1.526  23.035  1.00  0.00    -0.002 C 
HETATM    6  C   UNL     1      13.187  -0.731  24.043  1.00  0.00    -0.001 C 
HETATM    7  C   UNL     1      12.346   0.177  24.596  1.00  0.00    -0.002 C 
HETATM    8  C   UNL     1      11.306   0.425  24.515  1.00  0.00    -0.003 C 
HETATM    9  C   UNL     1       9.602  -1.226  24.310  1.00  0.00     0.040 A 
ENDROOT
BRANCH   9  10
HETATM   10  C   UNL     1       8.898  -1.948  25.166  1.00  0.00     0.254 C 
HETATM   11  O   UNL     1       8.623  -1.434  26.139  1.00  0.00    -0.268 OA
HETATM   12  N   UNL     1       8.660  -3.174  24.734  1.00  0.00    -0.321 N 
ATOM     13  HN  UNL     1       9.012  -3.455  23.818  1.00  0.00     0.169 HD
BRANCH  12  14
HETATM   14  C   UNL     1       8.010  -4.003  25.421  1.00  0.00     0.056 A 
HETATM   15  C   UNL     1       8.299  -4.857  26.370  1.00  0.00     0.117 A 
HETATM   16  N   UNL     1       8.011  -5.753  27.159  1.00  0.00    -0.373 N 
HETATM   17  C   UNL     1       6.686  -5.831  26.808  1.00  0.00     0.088 A 
ATOM     18  HN  UNL     1       8.567  -6.266  27.843  1.00  0.00     0.164 HD
HETATM   19  C   UNL     1       6.075  -5.184  25.966  1.00  0.00     0.026 A 
HETATM   20  C   UNL     1       6.478  -4.227  25.157  1.00  0.00    -0.033 A 
HETATM   21  C   UNL     1       5.665  -3.437  24.032  1.00  0.00     0.050 C 
ENDBRANCH  12  14
ENDBRANCH   9  10
BRANCH   1  22
HETATM   22  N   UNL     1       7.902   1.146  21.408  1.00  0.00    -0.295 N 
ATOM     23  HN  UNL     1       7.629   2.127  21.475  1.00  0.00     0.177 HD
BRANCH  22  24
HETATM   24  S   UNL     1       7.176   0.255  20.293  1.00  0.00     0.226 S 
HETATM   25  C   UNL     1       5.694   1.222  19.795  1.00  0.00     0.186 C 
HETATM   26  O   UNL     1       7.980   0.125  19.090  1.00  0.00    -0.206 OA
HETATM   27  O   UNL     1       6.695  -1.000  20.763  1.00  0.00    -0.206 OA
ENDBRANCH  22  24
ENDBRANCH   1  22
TORSDOF 4
ENDMDL
MODEL 2
REMARK VINA RESULT:    -7.916      2.285      5.520
REMARK INTER + INTRA:         -10.670
REMARK INTER:                 -10.018
REMARK INTRA:                  -0.652
REMARK UNBOUND:                -0.902
REMARK  4 active torsions:
REMARK  status: ('A' for Active; 'I' for Inactive)
REMARK    1  A    between atoms: S_2  and  N_5 
REMARK    2  A    between atoms: N_5  and  C_7 
REMARK    3  A    between atoms: C_15  and  C_16 
REMARK       I    between atoms: C_16  and  N_18 
REMARK    4  A    between atoms: N_18  and  C_20 
ROOT
HETATM    1  C   UNL     1       6.030  -1.577  20.894  1.00  0.00     0.109 C 
HETATM    2  C   UNL     1       6.651  -2.254  21.757  1.00  0.00    -0.008 A 
HETATM    3  C   UNL     1       6.722  -3.290  22.465  1.00  0.00     0.058 A 
HETATM    4  C   UNL     1       5.591  -3.812  23.637  1.00  0.00    -0.003 C 
HETATM    5  C   UNL     1       5.409  -4.837  23.862  1.00  0.00    -0.002 C 
HETATM    6  C   UNL     1       5.918  -6.070  23.221  1.00  0.00    -0.001 C 
HETATM    7  C   UNL     1       6.694  -5.734  22.162  1.00  0.00    -0.002 C 
HETATM    8  C   UNL     1       7.051  -4.827  21.715  1.00  0.00    -0.003 C 
HETATM    9  C   UNL     1       7.761  -2.951  23.000  1.00  0.00     0.040 A 
ENDROOT
BRANCH   9  10
HETATM   10  C   UNL     1       8.901  -2.588  23.564  1.00  0.00     0.254 C 
HETATM   11  O   UNL     1       9.090  -2.995  24.606  1.00  0.00    -0.268 OA
HETATM   12  N   UNL     1       9.617  -1.777  22.805  1.00  0.00    -0.321 N 
ATOM     13  HN  UNL     1       9.259  -1.511  21.887  1.00  0.00     0.169 HD
BRANCH  12  14
HETATM   14  C   UNL     1      10.727  -1.325  23.184  1.00  0.00     0.056 A 
HETATM   15  C   UNL     1      11.977  -1.690  23.051  1.00  0.00     0.117 A 
HETATM   16  N   UNL     1      13.181  -1.572  23.270  1.00  0.00    -0.373 N 
HETATM   17  C   UNL     1      13.072  -0.454  24.059  1.00  0.00     0.088 A 
ATOM     18  HN  UNL     1      13.987  -2.119  22.969  1.00  0.00     0.164 HD
HETATM   19  C   UNL     1      12.063   0.158  24.391  1.00  0.00     0.026 A 
HETATM   20  C   UNL     1      10.797  -0.049  24.098  1.00  0.00    -0.033 A 
HETATM   21  C   UNL     1       9.498   0.739  24.590  1.00  0.00     0.050 C 
ENDBRANCH  12  14
ENDBRANCH   9  10
BRANCH   1  22
HETATM   22  N   UNL     1       5.680  -0.580  20.358  1.00  0.00    -0.295 N 
ATOM     23  HN  UNL     1       4.989  -0.006  20.841  1.00  0.00     0.177 HD
BRANCH  22  24
HETATM   24  S   UNL     1       6.204  -0.060  18.936  1.00  0.00     0.226 S 
HETATM   25  C   UNL     1       5.291   1.507  18.632  1.00  0.00     0.186 C 
HETATM   26  O   UNL     1       7.608   0.308  18.975  1.00  0.00    -0.206 OA
HETATM   27  O   UNL     1       5.897  -0.919  17.844  1.00  0.00    -0.206 OA
ENDBRANCH  22  24
ENDBRANCH   1  22
TORSDOF 4
ENDMDL
MODEL 3
REMARK VINA RESULT:    -7.896      2.576      5.957
REMARK INTER + INTRA:         -10.645
REMARK INTER:                  -9.886
REMARK INTRA:                  -0.759
REMARK UNBOUND:                -0.902
REMARK  4 active torsions:
REMARK  status: ('A' for Active; 'I' for Inactive)
REMARK    1  A    between atoms: S_2  and  N_5 
REMARK    2  A    between atoms: N_5  and  C_7 
REMARK    3  A    between atoms: C_15  and  C_16 
REMARK       I    between atoms: C_16  and  N_18 
REMARK    4  A    between atoms: N_18  and  C_20 
ROOT
HETATM    1  C   UNL     1       8.472  -3.474  23.862  1.00  0.00     0.109 C 
HETATM    2  C   UNL     1       8.841  -2.380  23.357  1.00  0.00    -0.008 A 
HETATM    3  C   UNL     1       9.602  -1.381  23.391  1.00  0.00     0.058 A 
HETATM    4  C   UNL     1       9.741  -0.239  24.657  1.00  0.00    -0.003 C 
HETATM    5  C   UNL     1      10.645   0.272  24.890  1.00  0.00    -0.002 C 
HETATM    6  C   UNL     1      12.013   0.109  24.349  1.00  0.00    -0.001 C 
HETATM    7  C   UNL     1      12.019  -0.908  23.453  1.00  0.00    -0.002 C 
HETATM    8  C   UNL     1      11.294  -1.573  23.025  1.00  0.00    -0.003 C 
HETATM    9  C   UNL     1       9.105  -0.866  22.408  1.00  0.00     0.040 A 
ENDROOT
BRANCH   9  10
HETATM   10  C   UNL     1       8.575  -0.319  21.326  1.00  0.00     0.254 C 
HETATM   11  O   UNL     1       9.271   0.326  20.704  1.00  0.00    -0.268 OA
HETATM   12  N   UNL     1       7.294  -0.609  21.177  1.00  0.00    -0.321 N 
ATOM     13  HN  UNL     1       6.836  -1.205  21.867  1.00  0.00     0.169 HD
BRANCH  12  14
HETATM   14  C   UNL     1       6.625  -0.168  20.208  1.00  0.00     0.056 A 
HETATM   15  C   UNL     1       6.349  -0.587  18.999  1.00  0.00     0.117 A 
HETATM   16  N   UNL     1       5.846  -0.458  17.885  1.00  0.00    -0.373 N 
HETATM   17  C   UNL     1       5.311   0.784  18.114  1.00  0.00     0.088 A 
ATOM     18  HN  UNL     1       5.833  -1.068  17.067  1.00  0.00     0.164 HD
HETATM   19  C   UNL     1       5.369   1.472  19.126  1.00  0.00     0.026 A 
HETATM   20  C   UNL     1       5.939   1.242  20.289  1.00  0.00    -0.033 A 
HETATM   21  C   UNL     1       6.040   2.184  21.576  1.00  0.00     0.050 C 
ENDBRANCH  12  14
ENDBRANCH   9  10
BRANCH   1  22
HETATM   22  N   UNL     1       7.696  -4.330  24.124  1.00  0.00    -0.295 N 
ATOM     23  HN  UNL     1       7.728  -4.719  25.066  1.00  0.00     0.177 HD
BRANCH  22  24
HETATM   24  S   UNL     1       6.599  -4.926  23.120  1.00  0.00     0.226 S 
HETATM   25  C   UNL     1       5.373  -3.574  22.890  1.00  0.00     0.186 C 
HETATM   26  O   UNL     1       7.150  -5.182  21.801  1.00  0.00    -0.206 OA
HETATM   27  O   UNL     1       5.874  -6.039  23.632  1.00  0.00    -0.206 OA
ENDBRANCH  22  24
ENDBRANCH   1  22
TORSDOF 4
ENDMDL
MODEL 4
REMARK VINA RESULT:    -7.341      3.481      7.389
REMARK INTER + INTRA:          -9.960
REMARK INTER:                  -9.249
REMARK INTRA:                  -0.711
REMARK UNBOUND:                -0.902
REMARK  4 active torsions:
REMARK  status: ('A' for Active; 'I' for Inactive)
REMARK    1  A    between atoms: S_2  and  N_5 
REMARK    2  A    between atoms: N_5  and  C_7 
REMARK    3  A    between atoms: C_15  and  C_16 
REMARK       I    between atoms: C_16  and  N_18 
REMARK    4  A    between atoms: N_18  and  C_20 
ROOT
HETATM    1  C   UNL     1       6.985  -5.512  26.312  1.00  0.00     0.109 C 
HETATM    2  C   UNL     1       7.137  -4.882  25.231  1.00  0.00    -0.008 A 
HETATM    3  C   UNL     1       6.982  -4.830  23.985  1.00  0.00     0.058 A 
HETATM    4  C   UNL     1       7.606  -5.923  22.826  1.00  0.00    -0.003 C 
HETATM    5  C   UNL     1       7.115  -6.149  21.908  1.00  0.00    -0.002 C 
HETATM    6  C   UNL     1       5.784  -5.746  21.401  1.00  0.00    -0.001 C 
HETATM    7  C   UNL     1       5.150  -5.012  22.348  1.00  0.00    -0.002 C 
HETATM    8  C   UNL     1       5.383  -4.630  23.323  1.00  0.00    -0.003 C 
HETATM    9  C   UNL     1       7.523  -3.746  23.881  1.00  0.00     0.040 A 
ENDROOT
BRANCH   9  10
HETATM   10  C   UNL     1       8.095  -2.558  23.775  1.00  0.00     0.254 C 
HETATM   11  O   UNL     1       7.504  -1.772  23.210  1.00  0.00    -0.268 OA
HETATM   12  N   UNL     1       9.290  -2.508  24.337  1.00  0.00    -0.321 N 
ATOM     13  HN  UNL     1       9.660  -3.344  24.792  1.00  0.00     0.169 HD
BRANCH  12  14
HETATM   14  C   UNL     1       9.983  -1.459  24.327  1.00  0.00     0.056 A 
HETATM   15  C   UNL     1      11.012  -1.028  23.642  1.00  0.00     0.117 A 
HETATM   16  N   UNL     1      11.889  -0.206  23.387  1.00  0.00    -0.373 N 
HETATM   17  C   UNL     1      11.525   0.695  24.355  1.00  0.00     0.088 A 
ATOM     18  HN  UNL     1      12.635  -0.197  22.691  1.00  0.00     0.164 HD
HETATM   19  C   UNL     1      10.613   0.621  25.171  1.00  0.00     0.026 A 
HETATM   20  C   UNL     1       9.710  -0.315  25.368  1.00  0.00    -0.033 A 
HETATM   21  C   UNL     1       8.563  -0.404  26.476  1.00  0.00     0.050 C 
ENDBRANCH  12  14
ENDBRANCH   9  10
BRANCH   1  22
HETATM   22  N   UNL     1       7.266  -5.834  27.417  1.00  0.00    -0.295 N 
ATOM     23  HN  UNL     1       8.257  -5.933  27.639  1.00  0.00     0.177 HD
BRANCH  22  24
HETATM   24  S   UNL     1       6.217  -6.127  28.592  1.00  0.00     0.226 S 
HETATM   25  C   UNL     1       4.572  -5.721  27.879  1.00  0.00     0.186 C 
HETATM   26  O   UNL     1       6.159  -7.539  28.930  1.00  0.00    -0.206 OA
HETATM   27  O   UNL     1       6.371  -5.299  29.740  1.00  0.00    -0.206 OA
ENDBRANCH  22  24
ENDBRANCH   1  22
TORSDOF 4
ENDMDL
MODEL 5
REMARK VINA RESULT:    -7.133      1.839      2.193
REMARK INTER + INTRA:          -9.704
REMARK INTER:                  -8.950
REMARK INTRA:                  -0.754
REMARK UNBOUND:                -0.902
REMARK  4 active torsions:
REMARK  status: ('A' for Active; 'I' for Inactive)
REMARK    1  A    between atoms: S_2  and  N_5 
REMARK    2  A    between atoms: N_5  and  C_7 
REMARK    3  A    between atoms: C_15  and  C_16 
REMARK       I    between atoms: C_16  and  N_18 
REMARK    4  A    between atoms: N_18  and  C_20 
ROOT
HETATM    1  C   UNL     1       6.939  -1.117  21.461  1.00  0.00     0.109 C 
HETATM    2  C   UNL     1       7.598  -1.726  22.346  1.00  0.00    -0.008 A 
HETATM    3  C   UNL     1       8.626  -1.797  23.064  1.00  0.00     0.058 A 
HETATM    4  C   UNL     1      10.248  -1.907  22.529  1.00  0.00    -0.003 C 
HETATM    5  C   UNL     1      11.072  -1.505  23.068  1.00  0.00    -0.002 C 
HETATM    6  C   UNL     1      11.112  -0.671  24.290  1.00  0.00    -0.001 C 
HETATM    7  C   UNL     1       9.844  -0.394  24.681  1.00  0.00    -0.002 C 
HETATM    8  C   UNL     1       8.855  -0.655  24.359  1.00  0.00    -0.003 C 
HETATM    9  C   UNL     1       8.284  -2.837  23.595  1.00  0.00     0.040 A 
ENDROOT
BRANCH   9  10
HETATM   10  C   UNL     1       7.897  -3.957  24.183  1.00  0.00     0.254 C 
HETATM   11  O   UNL     1       8.549  -4.866  23.995  1.00  0.00    -0.268 OA
HETATM   12  N   UNL     1       6.782  -3.816  24.879  1.00  0.00    -0.321 N 
ATOM     13  HN  UNL     1       6.330  -2.902  24.913  1.00  0.00     0.169 HD
BRANCH  12  14
HETATM   14  C   UNL     1       6.264  -4.779  25.499  1.00  0.00     0.056 A 
HETATM   15  C   UNL     1       6.505  -5.401  26.625  1.00  0.00     0.117 A 
HETATM   16  N   UNL     1       6.297  -6.286  27.452  1.00  0.00    -0.373 N 
HETATM   17  C   UNL     1       5.257  -6.872  26.775  1.00  0.00     0.088 A 
ATOM     18  HN  UNL     1       6.746  -6.510  28.341  1.00  0.00     0.164 HD
HETATM   19  C   UNL     1       4.765  -6.555  25.698  1.00  0.00     0.026 A 
HETATM   20  C   UNL     1       5.061  -5.573  24.874  1.00  0.00    -0.033 A 
HETATM   21  C   UNL     1       4.431  -5.217  23.450  1.00  0.00     0.050 C 
ENDBRANCH  12  14
ENDBRANCH   9  10
BRANCH   1  22
HETATM   22  N   UNL     1       6.181  -1.028  20.555  1.00  0.00    -0.295 N 
ATOM     23  HN  UNL     1       5.319  -1.570  20.611  1.00  0.00     0.177 HD
BRANCH  22  24
HETATM   24  S   UNL     1       6.399  -0.126  19.249  1.00  0.00     0.226 S 
HETATM   25  C   UNL     1       5.342   1.356  19.507  1.00  0.00     0.186 C 
HETATM   26  O   UNL     1       7.759   0.375  19.154  1.00  0.00    -0.206 OA
HETATM   27  O   UNL     1       5.955  -0.727  18.037  1.00  0.00    -0.206 OA
ENDBRANCH  22  24
ENDBRANCH   1  22
TORSDOF 4
ENDMDL
MODEL 6
REMARK VINA RESULT:    -6.879     13.960     16.480
REMARK INTER + INTRA:          -9.390
REMARK INTER:                  -8.546
REMARK INTRA:                  -0.845
REMARK UNBOUND:                -0.902
REMARK  4 active torsions:
REMARK  status: ('A' for Active; 'I' for Inactive)
REMARK    1  A    between atoms: S_2  and  N_5 
REMARK    2  A    between atoms: N_5  and  C_7 
REMARK    3  A    between atoms: C_15  and  C_16 
REMARK       I    between atoms: C_16  and  N_18 
REMARK    4  A    between atoms: N_18  and  C_20 
ROOT
HETATM    1  C   UNL     1      23.976  -4.104  24.422  1.00  0.00     0.109 C 
HETATM    2  C   UNL     1      23.686  -3.040  23.813  1.00  0.00    -0.008 A 
HETATM    3  C   UNL     1      23.102  -1.927  23.809  1.00  0.00     0.058 A 
HETATM    4  C   UNL     1      21.426  -1.646  24.012  1.00  0.00    -0.003 C 
HETATM    5  C   UNL     1      21.029  -0.768  24.464  1.00  0.00    -0.002 C 
HETATM    6  C   UNL     1      21.707   0.363  25.135  1.00  0.00    -0.001 C 
HETATM    7  C   UNL     1      23.042   0.126  25.168  1.00  0.00    -0.002 C 
HETATM    8  C   UNL     1      23.707  -0.631  24.803  1.00  0.00    -0.003 C 
HETATM    9  C   UNL     1      23.442  -1.661  22.672  1.00  0.00     0.040 A 
ENDROOT
BRANCH   9  10
HETATM   10  C   UNL     1      23.830  -1.367  21.443  1.00  0.00     0.254 C 
HETATM   11  O   UNL     1      24.765  -0.730  21.357  1.00  0.00    -0.268 OA
HETATM   12  N   UNL     1      23.026  -1.858  20.516  1.00  0.00    -0.321 N 
ATOM     13  HN  UNL     1      22.213  -2.403  20.802  1.00  0.00     0.169 HD
BRANCH  12  14
HETATM   14  C   UNL     1      23.238  -1.671  19.290  1.00  0.00     0.056 A 
HETATM   15  C   UNL     1      22.914  -0.751  18.418  1.00  0.00     0.117 A 
HETATM   16  N   UNL     1      22.884  -0.282  17.282  1.00  0.00    -0.373 N 
HETATM   17  C   UNL     1      23.578  -1.307  16.688  1.00  0.00     0.088 A 
ATOM     18  HN  UNL     1      22.481   0.577  16.908  1.00  0.00     0.164 HD
HETATM   19  C   UNL     1      24.035  -2.324  17.198  1.00  0.00     0.026 A 
HETATM   20  C   UNL     1      24.016  -2.742  18.445  1.00  0.00    -0.033 A 
HETATM   21  C   UNL     1      24.579  -4.101  19.069  1.00  0.00     0.050 C 
ENDBRANCH  12  14
ENDBRANCH   9  10
BRANCH   1  22
HETATM   22  N   UNL     1      24.243  -5.256  24.507  1.00  0.00    -0.295 N 
ATOM     23  HN  UNL     1      24.107  -5.831  23.676  1.00  0.00     0.177 HD
BRANCH  22  24
HETATM   24  S   UNL     1      24.800  -5.983  25.822  1.00  0.00     0.226 S 
HETATM   25  C   UNL     1      24.521  -4.784  27.189  1.00  0.00     0.186 C 
HETATM   26  O   UNL     1      24.018  -7.157  26.167  1.00  0.00    -0.206 OA
HETATM   27  O   UNL     1      26.198  -6.247  25.801  1.00  0.00    -0.206 OA
ENDBRANCH  22  24
ENDBRANCH   1  22
TORSDOF 4
ENDMDL
MODEL 7
REMARK VINA RESULT:    -6.834      2.080      2.483
REMARK INTER + INTRA:          -9.335
REMARK INTER:                  -8.642
REMARK INTRA:                  -0.693
REMARK UNBOUND:                -0.902
REMARK  4 active torsions:
REMARK  status: ('A' for Active; 'I' for Inactive)
REMARK    1  A    between atoms: S_2  and  N_5 
REMARK    2  A    between atoms: N_5  and  C_7 
REMARK    3  A    between atoms: C_15  and  C_16 
REMARK       I    between atoms: C_16  and  N_18 
REMARK    4  A    between atoms: N_18  and  C_20 
ROOT
HETATM    1  C   UNL     1       6.868   0.769  21.279  1.00  0.00     0.109 C 
HETATM    2  C   UNL     1       7.805   0.548  22.091  1.00  0.00    -0.008 A 
HETATM    3  C   UNL     1       8.800   0.975  22.728  1.00  0.00     0.058 A 
HETATM    4  C   UNL     1      10.234   1.637  22.069  1.00  0.00    -0.003 C 
HETATM    5  C   UNL     1      10.813   2.385  22.557  1.00  0.00    -0.002 C 
HETATM    6  C   UNL     1      10.556   3.147  23.799  1.00  0.00    -0.001 C 
HETATM    7  C   UNL     1       9.342   2.798  24.293  1.00  0.00    -0.002 C 
HETATM    8  C   UNL     1       8.570   2.100  24.037  1.00  0.00    -0.003 C 
HETATM    9  C   UNL     1       9.031  -0.100  23.249  1.00  0.00     0.040 A 
ENDROOT
BRANCH   9  10
HETATM   10  C   UNL     1       9.265  -1.265  23.829  1.00  0.00     0.254 C 
HETATM   11  O   UNL     1      10.346  -1.609  23.832  1.00  0.00    -0.268 OA
HETATM   12  N   UNL     1       8.169  -1.844  24.287  1.00  0.00    -0.321 N 
ATOM     13  HN  UNL     1       7.272  -1.371  24.171  1.00  0.00     0.169 HD
BRANCH  12  14
HETATM   14  C   UNL     1       8.201  -2.961  24.862  1.00  0.00     0.056 A 
HETATM   15  C   UNL     1       8.532  -3.387  26.055  1.00  0.00     0.117 A 
HETATM   16  N   UNL     1       8.723  -4.272  26.886  1.00  0.00    -0.373 N 
HETATM   17  C   UNL     1       8.380  -5.316  26.064  1.00  0.00     0.088 A 
ATOM     18  HN  UNL     1       9.033  -4.240  27.858  1.00  0.00     0.164 HD
HETATM   19  C   UNL     1       8.020  -5.286  24.893  1.00  0.00     0.026 A 
HETATM   20  C   UNL     1       7.841  -4.272  24.075  1.00  0.00    -0.033 A 
HETATM   21  C   UNL     1       7.417  -4.271  22.534  1.00  0.00     0.050 C 
ENDBRANCH  12  14
ENDBRANCH   9  10
BRANCH   1  22
HETATM   22  N   UNL     1       6.086   0.483  20.435  1.00  0.00    -0.295 N 
ATOM     23  HN  UNL     1       5.099   0.478  20.694  1.00  0.00     0.177 HD
BRANCH  22  24
HETATM   24  S   UNL     1       6.451   0.106  18.922  1.00  0.00     0.226 S 
HETATM   25  C   UNL     1       5.813   1.504  17.910  1.00  0.00     0.186 C 
HETATM   26  O   UNL     1       7.886   0.085  18.697  1.00  0.00    -0.206 OA
HETATM   27  O   UNL     1       5.807  -1.066  18.434  1.00  0.00    -0.206 OA
ENDBRANCH  22  24
ENDBRANCH   1  22
TORSDOF 4
ENDMDL
MODEL 8
REMARK VINA RESULT:    -6.470      6.099      8.444
REMARK INTER + INTRA:          -8.885
REMARK INTER:                  -8.322
REMARK INTRA:                  -0.563
REMARK UNBOUND:                -0.902
REMARK  4 active torsions:
REMARK  status: ('A' for Active; 'I' for Inactive)
REMARK    1  A    between atoms: S_2  and  N_5 
REMARK    2  A    between atoms: N_5  and  C_7 
REMARK    3  A    between atoms: C_15  and  C_16 
REMARK       I    between atoms: C_16  and  N_18 
REMARK    4  A    between atoms: N_18  and  C_20 
ROOT
HETATM    1  C   UNL     1       6.737  -5.724  26.315  1.00  0.00     0.109 C 
HETATM    2  C   UNL     1       5.950  -5.831  25.337  1.00  0.00    -0.008 A 
HETATM    3  C   UNL     1       5.636  -5.495  24.167  1.00  0.00     0.058 A 
HETATM    4  C   UNL     1       5.268  -3.918  23.615  1.00  0.00    -0.003 C 
HETATM    5  C   UNL     1       5.469  -3.581  22.626  1.00  0.00    -0.002 C 
HETATM    6  C   UNL     1       6.186  -4.237  21.509  1.00  0.00    -0.001 C 
HETATM    7  C   UNL     1       6.663  -5.434  21.929  1.00  0.00    -0.002 C 
HETATM    8  C   UNL     1       6.616  -6.020  22.826  1.00  0.00    -0.003 C 
HETATM    9  C   UNL     1       4.641  -6.195  24.146  1.00  0.00     0.040 A 
ENDROOT
BRANCH   9  10
HETATM   10  C   UNL     1       3.571  -6.972  24.122  1.00  0.00     0.254 C 
HETATM   11  O   UNL     1       3.583  -7.855  24.834  1.00  0.00    -0.268 OA
HETATM   12  N   UNL     1       2.673  -6.586  23.232  1.00  0.00    -0.321 N 
ATOM     13  HN  UNL     1       2.859  -5.758  22.666  1.00  0.00     0.169 HD
BRANCH  12  14
HETATM   14  C   UNL     1       1.596  -7.213  23.066  1.00  0.00     0.056 A 
HETATM   15  C   UNL     1       1.232  -8.283  22.406  1.00  0.00     0.117 A 
HETATM   16  N   UNL     1       0.395  -9.088  22.004  1.00  0.00    -0.373 N 
HETATM   17  C   UNL     1      -0.681  -8.490  22.613  1.00  0.00     0.088 A 
ATOM     18  HN  UNL     1       0.473  -9.918  21.416  1.00  0.00     0.164 HD
HETATM   19  C   UNL     1      -0.708  -7.481  23.307  1.00  0.00     0.026 A 
HETATM   20  C   UNL     1       0.258  -6.674  23.690  1.00  0.00    -0.033 A 
HETATM   21  C   UNL     1       0.181  -5.334  24.556  1.00  0.00     0.050 C 
ENDBRANCH  12  14
ENDBRANCH   9  10
BRANCH   1  22
HETATM   22  N   UNL     1       7.032  -5.731  27.463  1.00  0.00    -0.295 N 
ATOM     23  HN  UNL     1       7.969  -5.409  27.707  1.00  0.00     0.177 HD
BRANCH  22  24
HETATM   24  S   UNL     1       6.082  -6.203  28.662  1.00  0.00     0.226 S 
HETATM   25  C   UNL     1       4.426  -5.508  28.266  1.00  0.00     0.186 C 
HETATM   26  O   UNL     1       5.905  -7.645  28.682  1.00  0.00    -0.206 OA
HETATM   27  O   UNL     1       6.438  -5.682  29.938  1.00  0.00    -0.206 OA
ENDBRANCH  22  24
ENDBRANCH   1  22
TORSDOF 4
ENDMDL
MODEL 9
REMARK VINA RESULT:    -6.299     14.071     16.499
REMARK INTER + INTRA:          -8.674
REMARK INTER:                  -7.952
REMARK INTRA:                  -0.722
REMARK UNBOUND:                -0.902
REMARK  4 active torsions:
REMARK  status: ('A' for Active; 'I' for Inactive)
REMARK    1  A    between atoms: S_2  and  N_5 
REMARK    2  A    between atoms: N_5  and  C_7 
REMARK    3  A    between atoms: C_15  and  C_16 
REMARK       I    between atoms: C_16  and  N_18 
REMARK    4  A    between atoms: N_18  and  C_20 
ROOT
HETATM    1  C   UNL     1      24.405  -4.362  24.924  1.00  0.00     0.109 C 
HETATM    2  C   UNL     1      23.927  -3.356  25.514  1.00  0.00    -0.008 A 
HETATM    3  C   UNL     1      23.231  -2.311  25.468  1.00  0.00     0.058 A 
HETATM    4  C   UNL     1      23.496  -0.944  24.473  1.00  0.00    -0.003 C 
HETATM    5  C   UNL     1      22.712  -0.328  24.101  1.00  0.00    -0.002 C 
HETATM    6  C   UNL     1      21.242  -0.480  24.186  1.00  0.00    -0.001 C 
HETATM    7  C   UNL     1      20.951  -1.644  24.818  1.00  0.00    -0.002 C 
HETATM    8  C   UNL     1      21.503  -2.432  25.291  1.00  0.00    -0.003 C 
HETATM    9  C   UNL     1      23.427  -2.030  26.635  1.00  0.00     0.040 A 
ENDROOT
BRANCH   9  10
HETATM   10  C   UNL     1      23.627  -1.740  27.910  1.00  0.00     0.254 C 
HETATM   11  O   UNL     1      23.702  -0.636  28.161  1.00  0.00    -0.268 OA
HETATM   12  N   UNL     1      23.731  -2.813  28.673  1.00  0.00    -0.321 N 
ATOM     13  HN  UNL     1      23.648  -3.737  28.246  1.00  0.00     0.169 HD
BRANCH  12  14
HETATM   14  C   UNL     1      23.930  -2.727  29.912  1.00  0.00     0.056 A 
HETATM   15  C   UNL     1      23.172  -2.604  30.972  1.00  0.00     0.117 A 
HETATM   16  N   UNL     1      22.995  -2.460  32.179  1.00  0.00    -0.373 N 
HETATM   17  C   UNL     1      24.325  -2.438  32.516  1.00  0.00     0.088 A 
ATOM     18  HN  UNL     1      22.147  -2.383  32.741  1.00  0.00     0.164 HD
HETATM   19  C   UNL     1      25.305  -2.530  31.785  1.00  0.00     0.026 A 
HETATM   20  C   UNL     1      25.393  -2.686  30.482  1.00  0.00    -0.033 A 
HETATM   21  C   UNL     1      26.690  -2.752  29.551  1.00  0.00     0.050 C 
ENDBRANCH  12  14
ENDBRANCH   9  10
BRANCH   1  22
HETATM   22  N   UNL     1      25.205  -5.213  24.726  1.00  0.00    -0.295 N 
ATOM     23  HN  UNL     1      25.991  -4.984  24.117  1.00  0.00     0.177 HD
BRANCH  22  24
HETATM   24  S   UNL     1      25.156  -6.692  25.338  1.00  0.00     0.226 S 
HETATM   25  C   UNL     1      25.196  -7.816  23.882  1.00  0.00     0.186 C 
HETATM   26  O   UNL     1      26.348  -7.005  26.105  1.00  0.00    -0.206 OA
HETATM   27  O   UNL     1      23.959  -6.998  26.045  1.00  0.00    -0.206 OA
ENDBRANCH  22  24
ENDBRANCH   1  22
TORSDOF 4
ENDMDL
