MODEL 1
REMARK VINA RESULT:    -5.396      0.000      0.000
REMARK INTER + INTRA:          -7.587
REMARK INTER:                  -7.131
REMARK INTRA:                  -0.456
REMARK UNBOUND:                -0.456
REMARK  6 active torsions:
REMARK  status: ('A' for Active; 'I' for Inactive)
REMARK    1  A    between atoms: C_2  and  C_14 
REMARK    2  A    between atoms: C_2  and  C_4 
REMARK    3  A    between atoms: N_3  and  C_17 
REMARK    4  A    between atoms: N_6  and  C_13 
REMARK    5  A    between atoms: N_6  and  C_17 
REMARK    6  A    between atoms: O_7  and  C_13 
ROOT
HETATM    1  C   UNL     1       6.905  -0.011  19.593  1.00  0.00     0.139 A 
HETATM    2  O   UNL     1       7.675   0.505  18.910  1.00  0.00    -0.287 OA
HETATM    3  C   UNL     1       6.039   0.166  18.524  1.00  0.00     0.301 A 
ENDROOT
BRANCH   3   4
HETATM    4  N   UNL     1       5.269   1.372  18.467  1.00  0.00    -0.348 N 
HETATM    5  H   UNL     1       5.489   1.903  17.632  1.00  0.00     0.160 HD
BRANCH   4   6
HETATM    6  C   UNL     1       4.429   1.944  19.497  1.00  0.00     0.237 C 
BRANCH   6   7
HETATM    7  N   UNL     1       3.364   2.771  18.996  1.00  0.00    -0.410 N 
HETATM    8  H   UNL     1       3.631   3.546  18.437  1.00  0.00     0.154 HD
HETATM    9  C   UNL     1       2.144   2.710  19.717  1.00  0.00     0.141 C 
ENDBRANCH   6   7
ENDBRANCH   4   6
ENDBRANCH   3   4
BRANCH   3  10
HETATM   10  O   UNL     1       5.681  -0.810  17.544  1.00  0.00    -0.343 OA
ATOM     11  HO  UNL     1       6.274  -1.339  17.025  1.00  0.00     0.215 HD
ENDBRANCH   3  10
BRANCH   1  12
HETATM   12  C   UNL     1       7.042  -0.582  20.950  1.00  0.00     0.070 C 
BRANCH  12  13
HETATM   13  C   UNL     1       8.270  -0.859  21.553  1.00  0.00     0.041 A 
HETATM   14  C   UNL     1       8.846  -2.020  22.241  1.00  0.00     0.038 A 
HETATM   15  C   UNL     1      10.089  -1.747  22.646  1.00  0.00     0.070 A 
HETATM   16  S   UNL     1      10.570  -0.168  22.183  1.00  0.00    -0.026 SA
HETATM   17  N   UNL     1       9.166   0.121  21.509  1.00  0.00    -0.327 N 
ATOM     18  HN  UNL     1       8.960   1.015  21.064  1.00  0.00     0.174 HD
ENDBRANCH  12  13
ENDBRANCH   1  12
TORSDOF 6
ENDMDL
MODEL 2
REMARK VINA RESULT:    -5.250     23.916     25.344
REMARK INTER + INTRA:          -7.394
REMARK INTER:                  -6.780
REMARK INTRA:                  -0.614
REMARK UNBOUND:                -0.456
REMARK  6 active torsions:
REMARK  status: ('A' for Active; 'I' for Inactive)
REMARK    1  A    between atoms: C_2  and  C_14 
REMARK    2  A    between atoms: C_2  and  C_4 
REMARK    3  A    between atoms: N_3  and  C_17 
REMARK    4  A    between atoms: N_6  and  C_13 
REMARK    5  A    between atoms: N_6  and  C_17 
REMARK    6  A    between atoms: O_7  and  C_13 
ROOT
HETATM    1  C   UNL     1       8.912  16.658   1.131  1.00  0.00     0.139 A 
HETATM    2  O   UNL     1       8.117  16.545   1.957  1.00  0.00    -0.287 OA
HETATM    3  C   UNL     1       9.119  15.302   1.331  1.00  0.00     0.301 A 
ENDROOT
BRANCH   3   4
HETATM    4  N   UNL     1      10.097  14.901   2.299  1.00  0.00    -0.348 N 
HETATM    5  H   UNL     1      11.035  15.058   1.952  1.00  0.00     0.160 HD
BRANCH   4   6
HETATM    6  C   UNL     1       9.884  14.174   3.532  1.00  0.00     0.237 C 
BRANCH   6   7
HETATM    7  N   UNL     1       9.280  12.880   3.355  1.00  0.00    -0.410 N 
HETATM    8  H   UNL     1       9.716  12.272   2.705  1.00  0.00     0.154 HD
HETATM    9  C   UNL     1       7.912  12.784   3.719  1.00  0.00     0.141 C 
ENDBRANCH   6   7
ENDBRANCH   4   6
ENDBRANCH   3   4
BRANCH   3  10
HETATM   10  O   UNL     1       8.594  14.232   0.545  1.00  0.00    -0.343 OA
ATOM     11  HO  UNL     1       8.755  13.304   0.668  1.00  0.00     0.215 HD
ENDBRANCH   3  10
BRANCH   1  12
HETATM   12  C   UNL     1       9.305  17.830   0.318  1.00  0.00     0.070 C 
BRANCH  12  13
HETATM   13  C   UNL     1       9.735  19.041   0.864  1.00  0.00     0.041 A 
HETATM   14  C   UNL     1       9.661  20.446   0.448  1.00  0.00     0.038 A 
HETATM   15  C   UNL     1      10.256  21.228   1.355  1.00  0.00     0.070 A 
HETATM   16  S   UNL     1      10.846  20.316   2.681  1.00  0.00    -0.026 SA
HETATM   17  N   UNL     1      10.350  18.956   2.039  1.00  0.00    -0.327 N 
ATOM     18  HN  UNL     1      10.495  18.060   2.504  1.00  0.00     0.174 HD
ENDBRANCH  12  13
ENDBRANCH   1  12
TORSDOF 6
ENDMDL
MODEL 3
REMARK VINA RESULT:    -5.140     23.066     23.827
REMARK INTER + INTRA:          -7.248
REMARK INTER:                  -6.537
REMARK INTRA:                  -0.711
REMARK UNBOUND:                -0.456
REMARK  6 active torsions:
REMARK  status: ('A' for Active; 'I' for Inactive)
REMARK    1  A    between atoms: C_2  and  C_14 
REMARK    2  A    between atoms: C_2  and  C_4 
REMARK    3  A    between atoms: N_3  and  C_17 
REMARK    4  A    between atoms: N_6  and  C_13 
REMARK    5  A    between atoms: N_6  and  C_17 
REMARK    6  A    between atoms: O_7  and  C_13 
ROOT
HETATM    1  C   UNL     1       3.378 -19.788   8.709  1.00  0.00     0.139 A 
HETATM    2  O   UNL     1       4.073 -19.554   9.597  1.00  0.00    -0.287 OA
HETATM    3  C   UNL     1       2.820 -18.551   8.992  1.00  0.00     0.301 A 
ENDROOT
BRANCH   3   4
HETATM    4  N   UNL     1       1.723 -18.497   9.913  1.00  0.00    -0.348 N 
HETATM    5  H   UNL     1       1.798 -19.228  10.609  1.00  0.00     0.160 HD
BRANCH   4   6
HETATM    6  C   UNL     1       0.525 -17.690   9.825  1.00  0.00     0.237 C 
BRANCH   6   7
HETATM    7  N   UNL     1       0.754 -16.278   9.974  1.00  0.00    -0.410 N 
HETATM    8  H   UNL     1       1.057 -15.969  10.867  1.00  0.00     0.154 HD
HETATM    9  C   UNL     1       0.083 -15.442   9.044  1.00  0.00     0.141 C 
ENDBRANCH   6   7
ENDBRANCH   4   6
ENDBRANCH   3   4
BRANCH   3  10
HETATM   10  O   UNL     1       3.093 -17.317   8.328  1.00  0.00    -0.343 OA
ATOM     11  HO  UNL     1       3.807 -17.141   7.726  1.00  0.00     0.215 HD
ENDBRANCH   3  10
BRANCH   1  12
HETATM   12  C   UNL     1       3.342 -20.943   7.785  1.00  0.00     0.070 C 
BRANCH  12  13
HETATM   13  C   UNL     1       2.979 -22.233   8.174  1.00  0.00     0.041 A 
HETATM   14  C   UNL     1       2.968 -23.546   7.517  1.00  0.00     0.038 A 
HETATM   15  C   UNL     1       2.504 -24.477   8.356  1.00  0.00     0.070 A 
HETATM   16  S   UNL     1       2.134 -23.813   9.892  1.00  0.00    -0.026 SA
HETATM   17  N   UNL     1       2.549 -22.358   9.425  1.00  0.00    -0.327 N 
ATOM     18  HN  UNL     1       2.489 -21.557  10.052  1.00  0.00     0.174 HD
ENDBRANCH  12  13
ENDBRANCH   1  12
TORSDOF 6
ENDMDL
MODEL 4
REMARK VINA RESULT:    -5.115     22.542     24.064
REMARK INTER + INTRA:          -7.216
REMARK INTER:                  -6.764
REMARK INTRA:                  -0.451
REMARK UNBOUND:                -0.456
REMARK  6 active torsions:
REMARK  status: ('A' for Active; 'I' for Inactive)
REMARK    1  A    between atoms: C_2  and  C_14 
REMARK    2  A    between atoms: C_2  and  C_4 
REMARK    3  A    between atoms: N_3  and  C_17 
REMARK    4  A    between atoms: N_6  and  C_13 
REMARK    5  A    between atoms: N_6  and  C_17 
REMARK    6  A    between atoms: O_7  and  C_13 
ROOT
HETATM    1  C   UNL     1       9.302  15.171   2.510  1.00  0.00     0.139 A 
HETATM    2  O   UNL     1      10.438  15.030   2.383  1.00  0.00    -0.287 OA
HETATM    3  C   UNL     1       9.459  14.355   3.619  1.00  0.00     0.301 A 
ENDROOT
BRANCH   3   4
HETATM    4  N   UNL     1       9.324  12.939   3.445  1.00  0.00    -0.348 N 
HETATM    5  H   UNL     1      10.104  12.563   2.919  1.00  0.00     0.160 HD
BRANCH   4   6
HETATM    6  C   UNL     1       8.181  12.108   3.754  1.00  0.00     0.237 C 
BRANCH   6   7
HETATM    7  N   UNL     1       7.910  11.093   2.771  1.00  0.00    -0.410 N 
HETATM    8  H   UNL     1       8.680  10.540   2.480  1.00  0.00     0.154 HD
HETATM    9  C   UNL     1       6.748  11.293   1.982  1.00  0.00     0.141 C 
ENDBRANCH   6   7
ENDBRANCH   4   6
ENDBRANCH   3   4
BRANCH   3  10
HETATM   10  O   UNL     1       9.565  14.774   4.981  1.00  0.00    -0.343 OA
ATOM     11  HO  UNL     1      10.231  14.513   5.606  1.00  0.00     0.215 HD
ENDBRANCH   3  10
BRANCH   1  12
HETATM   12  C   UNL     1       8.333  15.975   1.734  1.00  0.00     0.070 C 
BRANCH  12  13
HETATM   13  C   UNL     1       8.575  17.283   1.313  1.00  0.00     0.041 A 
HETATM   14  C   UNL     1       7.921  18.207   0.378  1.00  0.00     0.038 A 
HETATM   15  C   UNL     1       8.584  19.366   0.334  1.00  0.00     0.070 A 
HETATM   16  S   UNL     1       9.921  19.368   1.407  1.00  0.00    -0.026 SA
HETATM   17  N   UNL     1       9.625  17.881   1.866  1.00  0.00    -0.327 N 
ATOM     18  HN  UNL     1      10.211  17.406   2.553  1.00  0.00     0.174 HD
ENDBRANCH  12  13
ENDBRANCH   1  12
TORSDOF 6
ENDMDL
MODEL 5
REMARK VINA RESULT:    -4.909     22.622     23.309
REMARK INTER + INTRA:          -6.944
REMARK INTER:                  -6.210
REMARK INTRA:                  -0.734
REMARK UNBOUND:                -0.456
REMARK  6 active torsions:
REMARK  status: ('A' for Active; 'I' for Inactive)
REMARK    1  A    between atoms: C_2  and  C_14 
REMARK    2  A    between atoms: C_2  and  C_4 
REMARK    3  A    between atoms: N_3  and  C_17 
REMARK    4  A    between atoms: N_6  and  C_13 
REMARK    5  A    between atoms: N_6  and  C_17 
REMARK    6  A    between atoms: O_7  and  C_13 
ROOT
HETATM    1  C   UNL     1      10.614  15.270   4.195  1.00  0.00     0.139 A 
HETATM    2  O   UNL     1      11.631  14.849   3.859  1.00  0.00    -0.287 OA
HETATM    3  C   UNL     1      10.087  14.340   3.313  1.00  0.00     0.301 A 
ENDROOT
BRANCH   3   4
HETATM    4  N   UNL     1       9.870  14.741   1.954  1.00  0.00    -0.348 N 
HETATM    5  H   UNL     1      10.745  14.981   1.503  1.00  0.00     0.160 HD
BRANCH   4   6
HETATM    6  C   UNL     1       8.611  15.000   1.291  1.00  0.00     0.237 C 
BRANCH   6   7
HETATM    7  N   UNL     1       7.501  14.256   1.825  1.00  0.00    -0.410 N 
HETATM    8  H   UNL     1       7.361  14.312   2.805  1.00  0.00     0.154 HD
HETATM    9  C   UNL     1       7.045  13.174   1.030  1.00  0.00     0.141 C 
ENDBRANCH   6   7
ENDBRANCH   4   6
ENDBRANCH   3   4
BRANCH   3  10
HETATM   10  O   UNL     1       9.555  13.056   3.640  1.00  0.00    -0.343 OA
ATOM     11  HO  UNL     1       9.558  12.640   4.494  1.00  0.00     0.215 HD
ENDBRANCH   3  10
BRANCH   1  12
HETATM   12  C   UNL     1      10.277  16.306   5.197  1.00  0.00     0.070 C 
BRANCH  12  13
HETATM   13  C   UNL     1      10.875  17.566   5.238  1.00  0.00     0.041 A 
HETATM   14  C   UNL     1      10.534  18.853   5.856  1.00  0.00     0.038 A 
HETATM   15  C   UNL     1      11.467  19.765   5.568  1.00  0.00     0.070 A 
HETATM   16  S   UNL     1      12.732  19.096   4.624  1.00  0.00    -0.026 SA
HETATM   17  N   UNL     1      12.031  17.676   4.591  1.00  0.00    -0.327 N 
ATOM     18  HN  UNL     1      12.446  16.885   4.099  1.00  0.00     0.174 HD
ENDBRANCH  12  13
ENDBRANCH   1  12
TORSDOF 6
ENDMDL
MODEL 6
REMARK VINA RESULT:    -4.896     21.020     22.417
REMARK INTER + INTRA:          -6.926
REMARK INTER:                  -6.422
REMARK INTRA:                  -0.504
REMARK UNBOUND:                -0.456
REMARK  6 active torsions:
REMARK  status: ('A' for Active; 'I' for Inactive)
REMARK    1  A    between atoms: C_2  and  C_14 
REMARK    2  A    between atoms: C_2  and  C_4 
REMARK    3  A    between atoms: N_3  and  C_17 
REMARK    4  A    between atoms: N_6  and  C_13 
REMARK    5  A    between atoms: N_6  and  C_17 
REMARK    6  A    between atoms: O_7  and  C_13 
ROOT
HETATM    1  C   UNL     1       5.522  11.534   2.111  1.00  0.00     0.139 A 
HETATM    2  O   UNL     1       5.402  10.405   2.307  1.00  0.00    -0.287 OA
HETATM    3  C   UNL     1       6.782  11.184   1.652  1.00  0.00     0.301 A 
ENDROOT
BRANCH   3   4
HETATM    4  N   UNL     1       7.866  11.171   2.589  1.00  0.00    -0.348 N 
HETATM    5  H   UNL     1       8.368  10.292   2.550  1.00  0.00     0.160 HD
BRANCH   4   6
HETATM    6  C   UNL     1       8.158  12.135   3.627  1.00  0.00     0.237 C 
BRANCH   6   7
HETATM    7  N   UNL     1       9.328  12.934   3.376  1.00  0.00    -0.410 N 
HETATM    8  H   UNL     1      10.148  12.689   3.876  1.00  0.00     0.154 HD
HETATM    9  C   UNL     1       9.088  14.232   2.856  1.00  0.00     0.141 C 
ENDBRANCH   6   7
ENDBRANCH   4   6
ENDBRANCH   3   4
BRANCH   3  10
HETATM   10  O   UNL     1       7.178  11.003   0.291  1.00  0.00    -0.343 OA
ATOM     11  HO  UNL     1       6.832  10.365  -0.321  1.00  0.00     0.215 HD
ENDBRANCH   3  10
BRANCH   1  12
HETATM   12  C   UNL     1       4.574  12.655   2.290  1.00  0.00     0.070 C 
BRANCH  12  13
HETATM   13  C   UNL     1       3.222  12.586   1.950  1.00  0.00     0.041 A 
HETATM   14  C   UNL     1       2.087  13.514   2.031  1.00  0.00     0.038 A 
HETATM   15  C   UNL     1       0.979  12.929   1.568  1.00  0.00     0.070 A 
HETATM   16  S   UNL     1       1.291  11.337   1.014  1.00  0.00    -0.026 SA
HETATM   17  N   UNL     1       2.821  11.440   1.412  1.00  0.00    -0.327 N 
ATOM     18  HN  UNL     1       3.466  10.664   1.263  1.00  0.00     0.174 HD
ENDBRANCH  12  13
ENDBRANCH   1  12
TORSDOF 6
ENDMDL
MODEL 7
REMARK VINA RESULT:    -4.747      2.337      2.783
REMARK INTER + INTRA:          -6.730
REMARK INTER:                  -6.439
REMARK INTRA:                  -0.291
REMARK UNBOUND:                -0.456
REMARK  6 active torsions:
REMARK  status: ('A' for Active; 'I' for Inactive)
REMARK    1  A    between atoms: C_2  and  C_14 
REMARK    2  A    between atoms: C_2  and  C_4 
REMARK    3  A    between atoms: N_3  and  C_17 
REMARK    4  A    between atoms: N_6  and  C_13 
REMARK    5  A    between atoms: N_6  and  C_17 
REMARK    6  A    between atoms: O_7  and  C_13 
ROOT
HETATM    1  C   UNL     1       8.054  -0.023  20.877  1.00  0.00     0.139 A 
HETATM    2  O   UNL     1       8.327   1.095  20.851  1.00  0.00    -0.287 OA
HETATM    3  C   UNL     1       7.529   0.212  19.617  1.00  0.00     0.301 A 
ENDROOT
BRANCH   3   4
HETATM    4  N   UNL     1       6.154   0.606  19.517  1.00  0.00    -0.348 N 
HETATM    5  H   UNL     1       5.635   0.318  20.337  1.00  0.00     0.160 HD
BRANCH   4   6
HETATM    6  C   UNL     1       5.465   1.152  18.368  1.00  0.00     0.237 C 
BRANCH   6   7
HETATM    7  N   UNL     1       4.568   2.233  18.678  1.00  0.00    -0.410 N 
HETATM    8  H   UNL     1       4.809   3.126  18.320  1.00  0.00     0.154 HD
HETATM    9  C   UNL     1       3.746   2.044  19.819  1.00  0.00     0.141 C 
ENDBRANCH   6   7
ENDBRANCH   4   6
ENDBRANCH   3   4
BRANCH   3  10
HETATM   10  O   UNL     1       8.153  -0.069  18.363  1.00  0.00    -0.343 OA
ATOM     11  HO  UNL     1       7.943  -0.780  17.770  1.00  0.00     0.215 HD
ENDBRANCH   3  10
BRANCH   1  12
HETATM   12  C   UNL     1       8.318  -1.061  21.898  1.00  0.00     0.070 C 
BRANCH  12  13
HETATM   13  C   UNL     1       7.517  -2.190  22.079  1.00  0.00     0.041 A 
HETATM   14  C   UNL     1       6.083  -2.471  21.948  1.00  0.00     0.038 A 
HETATM   15  C   UNL     1       5.832  -3.746  22.258  1.00  0.00     0.070 A 
HETATM   16  S   UNL     1       7.270  -4.593  22.651  1.00  0.00    -0.026 SA
HETATM   17  N   UNL     1       8.156  -3.297  22.442  1.00  0.00    -0.327 N 
ATOM     18  HN  UNL     1       9.166  -3.311  22.579  1.00  0.00     0.174 HD
ENDBRANCH  12  13
ENDBRANCH   1  12
TORSDOF 6
ENDMDL
MODEL 8
REMARK VINA RESULT:    -4.722     21.366     22.721
REMARK INTER + INTRA:          -6.697
REMARK INTER:                  -6.141
REMARK INTRA:                  -0.556
REMARK UNBOUND:                -0.456
REMARK  6 active torsions:
REMARK  status: ('A' for Active; 'I' for Inactive)
REMARK    1  A    between atoms: C_2  and  C_14 
REMARK    2  A    between atoms: C_2  and  C_4 
REMARK    3  A    between atoms: N_3  and  C_17 
REMARK    4  A    between atoms: N_6  and  C_13 
REMARK    5  A    between atoms: N_6  and  C_17 
REMARK    6  A    between atoms: O_7  and  C_13 
ROOT
HETATM    1  C   UNL     1       8.698  14.533   3.352  1.00  0.00     0.139 A 
HETATM    2  O   UNL     1       8.872  14.302   4.467  1.00  0.00    -0.287 OA
HETATM    3  C   UNL     1       9.947  15.130   3.419  1.00  0.00     0.301 A 
ENDROOT
BRANCH   3   4
HETATM    4  N   UNL     1      10.017  16.521   3.757  1.00  0.00    -0.348 N 
HETATM    5  H   UNL     1       9.557  17.088   3.055  1.00  0.00     0.160 HD
BRANCH   4   6
HETATM    6  C   UNL     1      10.788  17.144   4.811  1.00  0.00     0.237 C 
BRANCH   6   7
HETATM    7  N   UNL     1      12.183  17.311   4.500  1.00  0.00    -0.410 N 
HETATM    8  H   UNL     1      12.751  16.501   4.564  1.00  0.00     0.154 HD
HETATM    9  C   UNL     1      12.687  18.632   4.618  1.00  0.00     0.141 C 
ENDBRANCH   6   7
ENDBRANCH   4   6
ENDBRANCH   3   4
BRANCH   3  10
HETATM   10  O   UNL     1      11.191  14.561   3.008  1.00  0.00    -0.343 OA
ATOM     11  HO  UNL     1      11.341  13.668   2.722  1.00  0.00     0.215 HD
ENDBRANCH   3  10
BRANCH   1  12
HETATM   12  C   UNL     1       7.578  14.179   2.452  1.00  0.00     0.070 C 
BRANCH  12  13
HETATM   13  C   UNL     1       7.083  12.883   2.306  1.00  0.00     0.041 A 
HETATM   14  C   UNL     1       6.705  12.043   1.164  1.00  0.00     0.038 A 
HETATM   15  C   UNL     1       6.268  10.854   1.589  1.00  0.00     0.070 A 
HETATM   16  S   UNL     1       6.345  10.729   3.298  1.00  0.00    -0.026 SA
HETATM   17  N   UNL     1       6.904  12.205   3.435  1.00  0.00    -0.327 N 
ATOM     18  HN  UNL     1       7.117  12.614   4.344  1.00  0.00     0.174 HD
ENDBRANCH  12  13
ENDBRANCH   1  12
TORSDOF 6
ENDMDL
MODEL 9
REMARK VINA RESULT:    -4.574      4.704      6.466
REMARK INTER + INTRA:          -6.501
REMARK INTER:                  -5.924
REMARK INTRA:                  -0.577
REMARK UNBOUND:                -0.456
REMARK  6 active torsions:
REMARK  status: ('A' for Active; 'I' for Inactive)
REMARK    1  A    between atoms: C_2  and  C_14 
REMARK    2  A    between atoms: C_2  and  C_4 
REMARK    3  A    between atoms: N_3  and  C_17 
REMARK    4  A    between atoms: N_6  and  C_13 
REMARK    5  A    between atoms: N_6  and  C_17 
REMARK    6  A    between atoms: O_7  and  C_13 
ROOT
HETATM    1  C   UNL     1      10.393   1.484  22.457  1.00  0.00     0.139 A 
HETATM    2  O   UNL     1      10.092   1.854  21.409  1.00  0.00    -0.287 OA
HETATM    3  C   UNL     1      10.096   0.228  21.953  1.00  0.00     0.301 A 
ENDROOT
BRANCH   3   4
HETATM    4  N   UNL     1       8.757  -0.263  22.099  1.00  0.00    -0.348 N 
HETATM    5  H   UNL     1       8.123   0.485  22.350  1.00  0.00     0.160 HD
BRANCH   4   6
HETATM    6  C   UNL     1       8.309  -1.639  22.114  1.00  0.00     0.237 C 
BRANCH   6   7
HETATM    7  N   UNL     1       9.221  -2.548  22.755  1.00  0.00    -0.410 N 
HETATM    8  H   UNL     1       9.893  -2.987  22.173  1.00  0.00     0.154 HD
HETATM    9  C   UNL     1       8.783  -3.091  23.991  1.00  0.00     0.141 C 
ENDBRANCH   6   7
ENDBRANCH   4   6
ENDBRANCH   3   4
BRANCH   3  10
HETATM   10  O   UNL     1      11.024  -0.735  21.452  1.00  0.00    -0.343 OA
ATOM     11  HO  UNL     1      11.736  -1.141  21.931  1.00  0.00     0.215 HD
ENDBRANCH   3  10
BRANCH   1  12
HETATM   12  C   UNL     1      10.905   2.220  23.634  1.00  0.00     0.070 C 
BRANCH  12  13
HETATM   13  C   UNL     1      11.102   3.601  23.657  1.00  0.00     0.041 A 
HETATM   14  C   UNL     1      12.278   4.477  23.715  1.00  0.00     0.038 A 
HETATM   15  C   UNL     1      11.900   5.758  23.725  1.00  0.00     0.070 A 
HETATM   16  S   UNL     1      10.195   5.913  23.625  1.00  0.00    -0.026 SA
HETATM   17  N   UNL     1       9.999   4.341  23.604  1.00  0.00    -0.327 N 
ATOM     18  HN  UNL     1       9.073   3.918  23.551  1.00  0.00     0.174 HD
ENDBRANCH  12  13
ENDBRANCH   1  12
TORSDOF 6
ENDMDL
