stable:False satoms:22 tatoms:24 sratio:0.9166666666666666
  -OEChem-07092417383D

 24 24  0     1  0  0  0  0  0999 V2000
    7.1084   -4.5591   26.3916 F   0  0  0  0  0  0  0  0  0  0  0  0
    8.3795   -4.1374   26.0625 C   0  0  0  0  0  0  0  0  0  0  0  0
    9.1297   -5.2535   25.9053 F   0  0  0  0  0  0  0  0  0  0  0  0
    8.8588   -3.5135   27.1201 F   0  0  0  0  0  0  0  0  0  0  0  0
    8.2848   -3.3459   24.9274 N   0  0  0  0  0  0  0  0  0  0  0  0
    9.1412   -3.0213   24.1038 C   0  0  0  0  0  0  0  0  0  0  0  0
    9.6313   -2.1405   23.5253 C   0  0  0  0  0  0  0  0  0  0  0  0
   10.4261   -0.9646   23.4493 C   0  0  1  0  0  0  0  0  0  0  0  0
   10.2992   -0.5357   24.4499 H   0  0  0  0  0  0  0  0  0  0  0  0
   12.2718    0.0840   23.4787 H   0  0  0  0  0  0  0  0  0  0  0  0
   12.5257   -1.5083   23.9909 H   0  0  0  0  0  0  0  0  0  0  0  0
   12.2385   -1.2529   22.2720 H   0  0  0  0  0  0  0  0  0  0  0  0
   11.9797   -0.9428   23.2677 C   0  0  0  0  0  0  0  0  0  0  0  0
    9.8833   -0.1881   22.4299 O   0  0  0  0  0  0  0  0  0  0  0  0
    8.9499    0.1128   21.5143 C   0  0  0  0  0  0  0  0  0  0  0  0
    9.1913    1.0701   20.8732 O   0  0  0  0  0  0  0  0  0  0  0  0
    7.7786   -0.6378   21.3313 N   0  0  0  0  0  0  0  0  0  0  0  0
    6.4054    0.3748   19.7436 C   0  0  0  0  0  0  0  0  0  0  0  0
    7.3169    0.3244   18.7313 N   0  0  0  0  0  0  0  0  0  0  0  0
    6.7185    0.7473   17.6771 N   0  0  0  0  0  0  0  0  0  0  0  0
    5.4338    1.0635   18.0153 N   0  0  0  0  0  0  0  0  0  0  0  0
    5.1919    0.8924   19.2171 N   0  0  0  0  0  0  0  0  0  0  0  0
    6.6059   -0.0227   21.0220 C   0  3  0  0  0  0  0  0  0  0  0  0
    5.8339    0.0648   21.7972 H   0  0  0  0  0  0  0  0  0  0  0  0
 20 21  2  0  0  0  0
 19 20  1  0  0  0  0
 21 22  1  0  0  0  0
 18 19  1  0  0  0  0
 18 22  2  0  0  0  0
 18 23  1  0  0  0  0
 15 16  2  0  0  0  0
 17 23  1  0  0  0  0
 23 24  1  0  0  0  0
 15 17  1  0  0  0  0
 14 15  1  0  0  0  0
 12 13  1  0  0  0  0
  8 14  1  0  0  0  0
  8 13  1  0  0  0  0
 10 13  1  0  0  0  0
 11 13  1  0  0  0  0
  7  8  1  0  0  0  0
  8  9  1  0  0  0  0
  6  7  2  3  0  0  0
  5  6  1  0  0  0  0
  2  5  1  0  0  0  0
  2  3  1  0  0  0  0
  1  2  1  0  0  0  0
  2  4  1  0  0  0  0
M  CHG  1  23   1
M  END
> <Shapegauss>
-208.373581

$$$$
