REMARK  7 active torsions:
REMARK  status: ('A' for Active; 'I' for Inactive)
REMARK    1  A    between atoms: C_2  and  N_5 
REMARK    2  A    between atoms: N_5  and  C_7 
REMARK    3  A    between atoms: C_7  and  C_8 
REMARK    4  A    between atoms: C_8  and  C_9 
REMARK    5  A    between atoms: C_9  and  O_11 
REMARK    6  A    between atoms: O_11  and  C_12 
REMARK       I    between atoms: C_12  and  N_14 
REMARK    7  A    between atoms: N_14  and  C_25 
ROOT
HETATM    1  C   UNL     1       8.950   0.113  21.514  1.00  0.00     0.365 C 
HETATM    2  O   UNL     1       9.191   1.070  20.873  1.00  0.00    -0.238 OA
HETATM    3  N   UNL     1       7.779  -0.638  21.331  1.00  0.00    -0.309 N 
ATOM      4  HN  UNL     1       7.808  -1.653  21.430  1.00  0.00     0.170 HD
ENDROOT
BRANCH   1   5
HETATM    5  O   UNL     1       9.883  -0.188  22.430  1.00  0.00    -0.295 OA
BRANCH   5   6
HETATM    6  C   UNL     1      10.426  -0.965  23.449  1.00  0.00     0.153 C 
HETATM    7  C   UNL     1      11.980  -0.943  23.268  1.00  0.00     0.044 C 
BRANCH   6   8
HETATM    8  C   UNL     1       9.631  -2.140  23.525  1.00  0.00     0.022 C 
BRANCH   8   9
HETATM    9  C   UNL     1       9.141  -3.021  24.104  1.00  0.00     0.090 C 
BRANCH   9  10
HETATM   10  N   UNL     1       8.285  -3.346  24.927  1.00  0.00    -0.309 N 
ATOM     11  HN  UNL     1       7.354  -2.972  24.744  1.00  0.00     0.167 HD
BRANCH  10  12
HETATM   12  C   UNL     1       8.380  -4.137  26.062  1.00  0.00     0.484 C 
HETATM   13  F   UNL     1       7.108  -4.559  26.392  1.00  0.00    -0.150 F 
HETATM   14  F   UNL     1       9.130  -5.253  25.905  1.00  0.00    -0.150 F 
HETATM   15  F   UNL     1       8.859  -3.514  27.120  1.00  0.00    -0.150 F 
ENDBRANCH  10  12
ENDBRANCH   9  10
ENDBRANCH   8   9
ENDBRANCH   6   8
ENDBRANCH   5   6
ENDBRANCH   1   5
BRANCH   3  16
HETATM   16  C   UNL     1       6.606  -0.023  21.022  1.00  0.00     0.144 C 
HETATM   17  C   UNL     1       6.405   0.375  19.744  1.00  0.00     0.152 A 
HETATM   18  N   UNL     1       7.317   0.324  18.731  1.00  0.00    -0.268 N 
HETATM   19  N   UNL     1       5.192   0.892  19.217  1.00  0.00    -0.268 N 
HETATM   20  N   UNL     1       6.718   0.747  17.677  1.00  0.00    -0.227 N 
ATOM     21  HN  UNL     1       8.285   0.011  18.798  1.00  0.00     0.190 HD
HETATM   22  N   UNL     1       5.434   1.063  18.015  1.00  0.00    -0.227 N 
ATOM     23  HN  UNL     1       7.130   0.832  16.748  1.00  0.00     0.210 HD
ATOM     24  HN  UNL     1       4.744   1.405  17.346  1.00  0.00     0.210 HD
ATOM     25  HN  UNL     1       4.321   1.079  19.714  1.00  0.00     0.190 HD
ENDBRANCH   3  16
TORSDOF 7
