MODEL 1
REMARK VINA RESULT:    -6.285      0.000      0.000
REMARK INTER + INTRA:          -9.425
REMARK INTER:                  -8.857
REMARK INTRA:                  -0.567
REMARK UNBOUND:                -0.567
REMARK  7 active torsions:
REMARK  status: ('A' for Active; 'I' for Inactive)
REMARK    1  A    between atoms: C_2  and  N_5 
REMARK    2  A    between atoms: N_5  and  C_7 
REMARK    3  A    between atoms: C_7  and  C_8 
REMARK    4  A    between atoms: C_8  and  C_9 
REMARK    5  A    between atoms: C_9  and  O_11 
REMARK    6  A    between atoms: O_11  and  C_12 
REMARK       I    between atoms: C_12  and  N_14 
REMARK    7  A    between atoms: N_14  and  C_25 
ROOT
HETATM    1  C   UNL     1      -0.665 -16.905  10.510  1.00  0.00     0.365 C 
HETATM    2  O   UNL     1      -0.003 -17.827  10.820  1.00  0.00    -0.238 OA
HETATM    3  N   UNL     1      -1.214 -16.024  11.453  1.00  0.00    -0.309 N 
ATOM      4  HN  UNL     1      -1.279 -15.028  11.239  1.00  0.00     0.170 HD
ENDROOT
BRANCH   1   5
HETATM    5  O   UNL     1      -0.849 -16.777   9.187  1.00  0.00    -0.295 OA
BRANCH   5   6
HETATM    6  C   UNL     1      -0.676 -17.160   7.860  1.00  0.00     0.153 C 
HETATM    7  C   UNL     1      -1.825 -18.165   7.516  1.00  0.00     0.044 C 
BRANCH   6   8
HETATM    8  C   UNL     1       0.711 -17.421   7.695  1.00  0.00     0.022 C 
BRANCH   8   9
HETATM    9  C   UNL     1       1.664 -18.071   7.835  1.00  0.00     0.090 C 
BRANCH   9  10
HETATM   10  N   UNL     1       2.818 -18.107   8.265  1.00  0.00    -0.309 N 
ATOM     11  HN  UNL     1       3.411 -17.336   7.957  1.00  0.00     0.167 HD
BRANCH  10  12
HETATM   12  C   UNL     1       3.442 -19.023   9.098  1.00  0.00     0.484 C 
HETATM   13  F   UNL     1       3.420 -20.251   8.468  1.00  0.00    -0.150 F 
HETATM   14  F   UNL     1       4.740 -18.746   9.361  1.00  0.00    -0.150 F 
HETATM   15  F   UNL     1       2.853 -19.185  10.265  1.00  0.00    -0.150 F 
ENDBRANCH  10  12
ENDBRANCH   9  10
ENDBRANCH   8   9
ENDBRANCH   6   8
ENDBRANCH   5   6
ENDBRANCH   1   5
BRANCH   3  16
HETATM   16  C   UNL     1      -1.660 -16.486  12.652  1.00  0.00     0.144 C 
HETATM   17  C   UNL     1      -0.775 -16.591  13.671  1.00  0.00     0.152 A 
HETATM   18  N   UNL     1       0.570 -16.381  13.595  1.00  0.00    -0.268 N 
HETATM   19  N   UNL     1      -1.095 -16.909  15.017  1.00  0.00    -0.268 N 
HETATM   20  N   UNL     1       1.032 -16.533  14.783  1.00  0.00    -0.227 N 
ATOM     21  HN  UNL     1       1.104 -16.149  12.758  1.00  0.00     0.190 HD
HETATM   22  N   UNL     1      -0.010 -16.835  15.610  1.00  0.00    -0.227 N 
ATOM     23  HN  UNL     1       2.010 -16.444  15.061  1.00  0.00     0.210 HD
ATOM     24  HN  UNL     1       0.093 -16.985  16.614  1.00  0.00     0.210 HD
ATOM     25  HN  UNL     1      -2.008 -17.144  15.407  1.00  0.00     0.190 HD
ENDBRANCH   3  16
TORSDOF 7
ENDMDL
MODEL 2
REMARK VINA RESULT:    -6.107     29.021     29.752
REMARK INTER + INTRA:          -9.173
REMARK INTER:                  -8.520
REMARK INTRA:                  -0.653
REMARK UNBOUND:                -0.567
REMARK  7 active torsions:
REMARK  status: ('A' for Active; 'I' for Inactive)
REMARK    1  A    between atoms: C_2  and  N_5 
REMARK    2  A    between atoms: N_5  and  C_7 
REMARK    3  A    between atoms: C_7  and  C_8 
REMARK    4  A    between atoms: C_8  and  C_9 
REMARK    5  A    between atoms: C_9  and  O_11 
REMARK    6  A    between atoms: O_11  and  C_12 
REMARK       I    between atoms: C_12  and  N_14 
REMARK    7  A    between atoms: N_14  and  C_25 
ROOT
HETATM    1  C   UNL     1       5.266   9.434   2.544  1.00  0.00     0.365 C 
HETATM    2  O   UNL     1       4.414   9.355   1.735  1.00  0.00    -0.238 OA
HETATM    3  N   UNL     1       5.394   8.510   3.592  1.00  0.00    -0.309 N 
ATOM      4  HN  UNL     1       6.323   8.234   3.912  1.00  0.00     0.170 HD
ENDROOT
BRANCH   1   5
HETATM    5  O   UNL     1       6.090  10.480   2.378  1.00  0.00    -0.295 OA
BRANCH   5   6
HETATM    6  C   UNL     1       6.411  11.834   2.417  1.00  0.00     0.153 C 
HETATM    7  C   UNL     1       6.430  12.346   0.938  1.00  0.00     0.044 C 
BRANCH   6   8
HETATM    8  C   UNL     1       7.483  11.966   3.339  1.00  0.00     0.022 C 
BRANCH   8   9
HETATM    9  C   UNL     1       8.454  12.471   3.729  1.00  0.00     0.090 C 
BRANCH   9  10
HETATM   10  N   UNL     1       9.443  13.142   3.431  1.00  0.00    -0.309 N 
ATOM     11  HN  UNL     1      10.337  12.709   3.660  1.00  0.00     0.167 HD
BRANCH  10  12
HETATM   12  C   UNL     1       9.539  14.390   2.834  1.00  0.00     0.484 C 
HETATM   13  F   UNL     1      10.878  14.712   2.737  1.00  0.00    -0.150 F 
HETATM   14  F   UNL     1       9.035  14.450   1.579  1.00  0.00    -0.150 F 
HETATM   15  F   UNL     1       8.963  15.362   3.511  1.00  0.00    -0.150 F 
ENDBRANCH  10  12
ENDBRANCH   9  10
ENDBRANCH   8   9
ENDBRANCH   6   8
ENDBRANCH   5   6
ENDBRANCH   1   5
BRANCH   3  16
HETATM   16  C   UNL     1       4.291   7.979   4.183  1.00  0.00     0.144 C 
HETATM   17  C   UNL     1       4.369   6.723   4.681  1.00  0.00     0.152 A 
HETATM   18  N   UNL     1       5.425   5.870   4.555  1.00  0.00    -0.268 N 
HETATM   19  N   UNL     1       3.371   6.074   5.456  1.00  0.00    -0.268 N 
HETATM   20  N   UNL     1       5.119   4.808   5.207  1.00  0.00    -0.227 N 
ATOM     21  HN  UNL     1       6.290   6.043   4.043  1.00  0.00     0.190 HD
HETATM   22  N   UNL     1       3.877   4.983   5.747  1.00  0.00    -0.227 N 
ATOM     23  HN  UNL     1       5.702   3.977   5.306  1.00  0.00     0.210 HD
ATOM     24  HN  UNL     1       3.414   4.286   6.330  1.00  0.00     0.210 HD
ATOM     25  HN  UNL     1       2.449   6.427   5.714  1.00  0.00     0.190 HD
ENDBRANCH   3  16
TORSDOF 7
ENDMDL
MODEL 3
REMARK VINA RESULT:    -6.005     21.797     23.420
REMARK INTER + INTRA:          -9.029
REMARK INTER:                  -8.268
REMARK INTRA:                  -0.761
REMARK UNBOUND:                -0.567
REMARK  7 active torsions:
REMARK  status: ('A' for Active; 'I' for Inactive)
REMARK    1  A    between atoms: C_2  and  N_5 
REMARK    2  A    between atoms: N_5  and  C_7 
REMARK    3  A    between atoms: C_7  and  C_8 
REMARK    4  A    between atoms: C_8  and  C_9 
REMARK    5  A    between atoms: C_9  and  O_11 
REMARK    6  A    between atoms: O_11  and  C_12 
REMARK       I    between atoms: C_12  and  N_14 
REMARK    7  A    between atoms: N_14  and  C_25 
ROOT
HETATM    1  C   UNL     1       8.288   0.394  21.275  1.00  0.00     0.365 C 
HETATM    2  O   UNL     1       9.057   1.244  21.010  1.00  0.00    -0.238 OA
HETATM    3  N   UNL     1       7.546  -0.282  20.294  1.00  0.00    -0.309 N 
ATOM      4  HN  UNL     1       7.348  -1.276  20.405  1.00  0.00     0.170 HD
ENDROOT
BRANCH   1   5
HETATM    5  O   UNL     1       8.181   0.136  22.588  1.00  0.00    -0.295 OA
BRANCH   5   6
HETATM    6  C   UNL     1       7.489   0.068  23.793  1.00  0.00     0.153 C 
HETATM    7  C   UNL     1       6.397   1.188  23.762  1.00  0.00     0.044 C 
BRANCH   6   8
HETATM    8  C   UNL     1       8.469  -0.086  24.810  1.00  0.00     0.022 C 
BRANCH   8   9
HETATM    9  C   UNL     1       9.567  -0.129  25.190  1.00  0.00     0.090 C 
BRANCH   9  10
HETATM   10  N   UNL     1      10.629   0.484  25.300  1.00  0.00    -0.309 N 
ATOM     11  HN  UNL     1      10.766   0.942  26.200  1.00  0.00     0.167 HD
BRANCH  10  12
HETATM   12  C   UNL     1      11.670   0.652  24.398  1.00  0.00     0.484 C 
HETATM   13  F   UNL     1      11.313   0.032  23.218  1.00  0.00    -0.150 F 
HETATM   14  F   UNL     1      11.941   1.942  24.091  1.00  0.00    -0.150 F 
HETATM   15  F   UNL     1      12.811   0.114  24.779  1.00  0.00    -0.150 F 
ENDBRANCH  10  12
ENDBRANCH   9  10
ENDBRANCH   8   9
ENDBRANCH   6   8
ENDBRANCH   5   6
ENDBRANCH   1   5
BRANCH   3  16
HETATM   16  C   UNL     1       7.091   0.380  19.196  1.00  0.00     0.144 C 
HETATM   17  C   UNL     1       5.876   0.972  19.259  1.00  0.00     0.152 A 
HETATM   18  N   UNL     1       4.988   0.882  20.291  1.00  0.00    -0.268 N 
HETATM   19  N   UNL     1       5.314   1.822  18.270  1.00  0.00    -0.268 N 
HETATM   20  N   UNL     1       3.987   1.623  19.979  1.00  0.00    -0.227 N 
ATOM     21  HN  UNL     1       5.098   0.334  21.144  1.00  0.00     0.190 HD
HETATM   22  N   UNL     1       4.236   2.182  18.758  1.00  0.00    -0.227 N 
ATOM     23  HN  UNL     1       3.151   1.769  20.544  1.00  0.00     0.210 HD
ATOM     24  HN  UNL     1       3.598   2.830  18.296  1.00  0.00     0.210 HD
ATOM     25  HN  UNL     1       5.709   2.078  17.365  1.00  0.00     0.190 HD
ENDBRANCH   3  16
TORSDOF 7
ENDMDL
MODEL 4
REMARK VINA RESULT:    -5.894     37.244     37.969
REMARK INTER + INTRA:          -8.873
REMARK INTER:                  -8.099
REMARK INTRA:                  -0.773
REMARK UNBOUND:                -0.567
REMARK  7 active torsions:
REMARK  status: ('A' for Active; 'I' for Inactive)
REMARK    1  A    between atoms: C_2  and  N_5 
REMARK    2  A    between atoms: N_5  and  C_7 
REMARK    3  A    between atoms: C_7  and  C_8 
REMARK    4  A    between atoms: C_8  and  C_9 
REMARK    5  A    between atoms: C_9  and  O_11 
REMARK    6  A    between atoms: O_11  and  C_12 
REMARK       I    between atoms: C_12  and  N_14 
REMARK    7  A    between atoms: N_14  and  C_25 
ROOT
HETATM    1  C   UNL     1       9.492  18.424   0.747  1.00  0.00     0.365 C 
HETATM    2  O   UNL     1       9.323  17.972  -0.327  1.00  0.00    -0.238 OA
HETATM    3  N   UNL     1       9.415  17.644   1.911  1.00  0.00    -0.309 N 
ATOM      4  HN  UNL     1      10.047  17.833   2.689  1.00  0.00     0.170 HD
ENDROOT
BRANCH   1   5
HETATM    5  O   UNL     1       9.756  19.739   0.757  1.00  0.00    -0.295 OA
BRANCH   5   6
HETATM    6  C   UNL     1       9.875  20.983   1.370  1.00  0.00     0.153 C 
HETATM    7  C   UNL     1      10.159  22.029   0.241  1.00  0.00     0.044 C 
BRANCH   6   8
HETATM    8  C   UNL     1      10.684  20.787   2.522  1.00  0.00     0.022 C 
BRANCH   8   9
HETATM    9  C   UNL     1      11.689  20.533   3.048  1.00  0.00     0.090 C 
BRANCH   9  10
HETATM   10  N   UNL     1      12.459  19.636   3.391  1.00  0.00    -0.309 N 
ATOM     11  HN  UNL     1      13.226  19.461   2.741  1.00  0.00     0.167 HD
BRANCH  10  12
HETATM   12  C   UNL     1      12.454  18.824   4.515  1.00  0.00     0.484 C 
HETATM   13  F   UNL     1      12.184  19.619   5.610  1.00  0.00    -0.150 F 
HETATM   14  F   UNL     1      11.512  17.853   4.500  1.00  0.00    -0.150 F 
HETATM   15  F   UNL     1      13.602  18.223   4.757  1.00  0.00    -0.150 F 
ENDBRANCH  10  12
ENDBRANCH   9  10
ENDBRANCH   8   9
ENDBRANCH   6   8
ENDBRANCH   5   6
ENDBRANCH   1   5
BRANCH   3  16
HETATM   16  C   UNL     1       8.505  16.638   2.008  1.00  0.00     0.144 C 
HETATM   17  C   UNL     1       8.942  15.407   2.364  1.00  0.00     0.152 A 
HETATM   18  N   UNL     1      10.242  15.031   2.534  1.00  0.00    -0.268 N 
HETATM   19  N   UNL     1       8.119  14.287   2.657  1.00  0.00    -0.268 N 
HETATM   20  N   UNL     1      10.222  13.805   2.916  1.00  0.00    -0.227 N 
ATOM     21  HN  UNL     1      11.068  15.610   2.386  1.00  0.00     0.190 HD
HETATM   22  N   UNL     1       8.920  13.404   2.992  1.00  0.00    -0.227 N 
ATOM     23  HN  UNL     1      11.038  13.231   3.127  1.00  0.00     0.210 HD
ATOM     24  HN  UNL     1       8.635  12.472   3.293  1.00  0.00     0.210 HD
ATOM     25  HN  UNL     1       7.102  14.225   2.605  1.00  0.00     0.190 HD
ENDBRANCH   3  16
TORSDOF 7
ENDMDL
MODEL 5
REMARK VINA RESULT:    -5.874     19.072     20.899
REMARK INTER + INTRA:          -8.845
REMARK INTER:                  -7.850
REMARK INTRA:                  -0.996
REMARK UNBOUND:                -0.567
REMARK  7 active torsions:
REMARK  status: ('A' for Active; 'I' for Inactive)
REMARK    1  A    between atoms: C_2  and  N_5 
REMARK    2  A    between atoms: N_5  and  C_7 
REMARK    3  A    between atoms: C_7  and  C_8 
REMARK    4  A    between atoms: C_8  and  C_9 
REMARK    5  A    between atoms: C_9  and  O_11 
REMARK    6  A    between atoms: O_11  and  C_12 
REMARK       I    between atoms: C_12  and  N_14 
REMARK    7  A    between atoms: N_14  and  C_25 
ROOT
HETATM    1  C   UNL     1       7.264  -1.315  22.273  1.00  0.00     0.365 C 
HETATM    2  O   UNL     1       7.000  -2.286  21.664  1.00  0.00    -0.238 OA
HETATM    3  N   UNL     1       7.253  -0.038  21.691  1.00  0.00    -0.309 N 
ATOM      4  HN  UNL     1       6.937   0.764  22.237  1.00  0.00     0.170 HD
ENDROOT
BRANCH   1   5
HETATM    5  O   UNL     1       7.581  -1.537  23.557  1.00  0.00    -0.295 OA
BRANCH   5   6
HETATM    6  C   UNL     1       8.446  -1.905  24.584  1.00  0.00     0.153 C 
HETATM    7  C   UNL     1       9.685  -0.954  24.506  1.00  0.00     0.044 C 
BRANCH   6   8
HETATM    8  C   UNL     1       8.506  -3.325  24.568  1.00  0.00     0.022 C 
BRANCH   8   9
HETATM    9  C   UNL     1       8.261  -4.365  24.110  1.00  0.00     0.090 C 
BRANCH   9  10
HETATM   10  N   UNL     1       7.723  -4.965  23.179  1.00  0.00    -0.309 N 
ATOM     11  HN  UNL     1       8.309  -5.084  22.354  1.00  0.00     0.167 HD
BRANCH  10  12
HETATM   12  C   UNL     1       6.450  -5.505  23.071  1.00  0.00     0.484 C 
HETATM   13  F   UNL     1       6.087  -5.987  24.312  1.00  0.00    -0.150 F 
HETATM   14  F   UNL     1       5.495  -4.617  22.706  1.00  0.00    -0.150 F 
HETATM   15  F   UNL     1       6.359  -6.515  22.229  1.00  0.00    -0.150 F 
ENDBRANCH  10  12
ENDBRANCH   9  10
ENDBRANCH   8   9
ENDBRANCH   6   8
ENDBRANCH   5   6
ENDBRANCH   1   5
BRANCH   3  16
HETATM   16  C   UNL     1       7.660   0.139  20.405  1.00  0.00     0.144 C 
HETATM   17  C   UNL     1       6.717   0.331  19.453  1.00  0.00     0.152 A 
HETATM   18  N   UNL     1       5.367   0.256  19.629  1.00  0.00    -0.268 N 
HETATM   19  N   UNL     1       6.965   0.677  18.098  1.00  0.00    -0.268 N 
HETATM   20  N   UNL     1       4.833   0.549  18.498  1.00  0.00    -0.227 N 
ATOM     21  HN  UNL     1       4.877   0.014  20.490  1.00  0.00     0.190 HD
HETATM   22  N   UNL     1       5.836   0.811  17.610  1.00  0.00    -0.227 N 
ATOM     23  HN  UNL     1       3.834   0.581  18.299  1.00  0.00     0.210 HD
ATOM     24  HN  UNL     1       5.671   1.090  16.642  1.00  0.00     0.210 HD
ATOM     25  HN  UNL     1       7.866   0.790  17.634  1.00  0.00     0.190 HD
ENDBRANCH   3  16
TORSDOF 7
ENDMDL
MODEL 6
REMARK VINA RESULT:    -5.766     19.866     21.070
REMARK INTER + INTRA:          -8.693
REMARK INTER:                  -8.001
REMARK INTRA:                  -0.692
REMARK UNBOUND:                -0.567
REMARK  7 active torsions:
REMARK  status: ('A' for Active; 'I' for Inactive)
REMARK    1  A    between atoms: C_2  and  N_5 
REMARK    2  A    between atoms: N_5  and  C_7 
REMARK    3  A    between atoms: C_7  and  C_8 
REMARK    4  A    between atoms: C_8  and  C_9 
REMARK    5  A    between atoms: C_9  and  O_11 
REMARK    6  A    between atoms: O_11  and  C_12 
REMARK       I    between atoms: C_12  and  N_14 
REMARK    7  A    between atoms: N_14  and  C_25 
ROOT
HETATM    1  C   UNL     1       7.809  -3.065  22.705  1.00  0.00     0.365 C 
HETATM    2  O   UNL     1       6.784  -2.696  22.260  1.00  0.00    -0.238 OA
HETATM    3  N   UNL     1       7.977  -4.353  23.235  1.00  0.00    -0.309 N 
ATOM      4  HN  UNL     1       8.861  -4.845  23.101  1.00  0.00     0.170 HD
ENDROOT
BRANCH   1   5
HETATM    5  O   UNL     1       8.790  -2.151  22.664  1.00  0.00    -0.295 OA
BRANCH   5   6
HETATM    6  C   UNL     1       9.829  -1.462  22.045  1.00  0.00     0.153 C 
HETATM    7  C   UNL     1      11.086  -1.596  22.967  1.00  0.00     0.044 C 
BRANCH   6   8
HETATM    8  C   UNL     1       9.280  -0.234  21.589  1.00  0.00     0.022 C 
BRANCH   8   9
HETATM    9  C   UNL     1       8.393   0.490  21.384  1.00  0.00     0.090 C 
BRANCH   9  10
HETATM   10  N   UNL     1       7.587   0.900  20.548  1.00  0.00    -0.309 N 
ATOM     11  HN  UNL     1       7.194   1.819  20.750  1.00  0.00     0.167 HD
BRANCH  10  12
HETATM   12  C   UNL     1       7.127   0.317  19.377  1.00  0.00     0.484 C 
HETATM   13  F   UNL     1       6.424  -0.821  19.719  1.00  0.00    -0.150 F 
HETATM   14  F   UNL     1       6.283   1.094  18.659  1.00  0.00    -0.150 F 
HETATM   15  F   UNL     1       8.079  -0.061  18.548  1.00  0.00    -0.150 F 
ENDBRANCH  10  12
ENDBRANCH   9  10
ENDBRANCH   8   9
ENDBRANCH   6   8
ENDBRANCH   5   6
ENDBRANCH   1   5
BRANCH   3  16
HETATM   16  C   UNL     1       6.971  -4.952  23.927  1.00  0.00     0.144 C 
HETATM   17  C   UNL     1       7.206  -5.334  25.204  1.00  0.00     0.152 A 
HETATM   18  N   UNL     1       8.404  -5.282  25.853  1.00  0.00    -0.268 N 
HETATM   19  N   UNL     1       6.235  -5.831  26.113  1.00  0.00    -0.268 N 
HETATM   20  N   UNL     1       8.189  -5.687  27.053  1.00  0.00    -0.227 N 
ATOM     21  HN  UNL     1       9.296  -4.981  25.462  1.00  0.00     0.190 HD
HETATM   22  N   UNL     1       6.864  -5.992  27.167  1.00  0.00    -0.227 N 
ATOM     23  HN  UNL     1       8.887  -5.767  27.791  1.00  0.00     0.210 HD
ATOM     24  HN  UNL     1       6.435  -6.319  28.033  1.00  0.00     0.210 HD
ATOM     25  HN  UNL     1       5.247  -6.014  25.939  1.00  0.00     0.190 HD
ENDBRANCH   3  16
TORSDOF 7
ENDMDL
MODEL 7
REMARK VINA RESULT:    -5.755      8.078     10.951
REMARK INTER + INTRA:          -8.678
REMARK INTER:                  -8.104
REMARK INTRA:                  -0.574
REMARK UNBOUND:                -0.567
REMARK  7 active torsions:
REMARK  status: ('A' for Active; 'I' for Inactive)
REMARK    1  A    between atoms: C_2  and  N_5 
REMARK    2  A    between atoms: N_5  and  C_7 
REMARK    3  A    between atoms: C_7  and  C_8 
REMARK    4  A    between atoms: C_8  and  C_9 
REMARK    5  A    between atoms: C_9  and  O_11 
REMARK    6  A    between atoms: O_11  and  C_12 
REMARK       I    between atoms: C_12  and  N_14 
REMARK    7  A    between atoms: N_14  and  C_25 
ROOT
HETATM    1  C   UNL     1      -2.232 -16.556  19.729  1.00  0.00     0.365 C 
HETATM    2  O   UNL     1      -2.675 -15.489  19.948  1.00  0.00    -0.238 OA
HETATM    3  N   UNL     1      -1.507 -16.845  18.562  1.00  0.00    -0.309 N 
ATOM      4  HN  UNL     1      -0.716 -17.486  18.604  1.00  0.00     0.170 HD
ENDROOT
BRANCH   1   5
HETATM    5  O   UNL     1      -2.483 -17.465  20.684  1.00  0.00    -0.295 OA
BRANCH   5   6
HETATM    6  C   UNL     1      -2.145 -18.239  21.790  1.00  0.00     0.153 C 
HETATM    7  C   UNL     1      -3.482 -18.760  22.415  1.00  0.00     0.044 C 
BRANCH   6   8
HETATM    8  C   UNL     1      -1.143 -17.519  22.493  1.00  0.00     0.022 C 
BRANCH   8   9
HETATM    9  C   UNL     1      -0.124 -17.438  23.046  1.00  0.00     0.090 C 
BRANCH   9  10
HETATM   10  N   UNL     1       1.094 -17.303  22.920  1.00  0.00    -0.309 N 
ATOM     11  HN  UNL     1       1.407 -16.338  22.817  1.00  0.00     0.167 HD
BRANCH  10  12
HETATM   12  C   UNL     1       2.107 -18.249  22.895  1.00  0.00     0.484 C 
HETATM   13  F   UNL     1       2.816 -18.142  24.074  1.00  0.00    -0.150 F 
HETATM   14  F   UNL     1       1.676 -19.530  22.816  1.00  0.00    -0.150 F 
HETATM   15  F   UNL     1       2.975 -18.089  21.916  1.00  0.00    -0.150 F 
ENDBRANCH  10  12
ENDBRANCH   9  10
ENDBRANCH   8   9
ENDBRANCH   6   8
ENDBRANCH   5   6
ENDBRANCH   1   5
BRANCH   3  16
HETATM   16  C   UNL     1      -1.853 -16.274  17.377  1.00  0.00     0.144 C 
HETATM   17  C   UNL     1      -1.086 -16.530  16.292  1.00  0.00     0.152 A 
HETATM   18  N   UNL     1       0.087 -17.226  16.280  1.00  0.00    -0.268 N 
HETATM   19  N   UNL     1      -1.381 -16.143  14.958  1.00  0.00    -0.268 N 
HETATM   20  N   UNL     1       0.466 -17.283  15.054  1.00  0.00    -0.227 N 
ATOM     21  HN  UNL     1       0.568 -17.623  17.086  1.00  0.00     0.190 HD
HETATM   22  N   UNL     1      -0.458 -16.630  14.292  1.00  0.00    -0.227 N 
ATOM     23  HN  UNL     1       1.312 -17.737  14.710  1.00  0.00     0.210 HD
ATOM     24  HN  UNL     1      -0.396 -16.551  13.276  1.00  0.00     0.210 HD
ATOM     25  HN  UNL     1      -2.172 -15.592  14.624  1.00  0.00     0.190 HD
ENDBRANCH   3  16
TORSDOF 7
ENDMDL
MODEL 8
REMARK VINA RESULT:    -5.727     19.083     20.770
REMARK INTER + INTRA:          -8.637
REMARK INTER:                  -7.960
REMARK INTRA:                  -0.678
REMARK UNBOUND:                -0.567
REMARK  7 active torsions:
REMARK  status: ('A' for Active; 'I' for Inactive)
REMARK    1  A    between atoms: C_2  and  N_5 
REMARK    2  A    between atoms: N_5  and  C_7 
REMARK    3  A    between atoms: C_7  and  C_8 
REMARK    4  A    between atoms: C_8  and  C_9 
REMARK    5  A    between atoms: C_9  and  O_11 
REMARK    6  A    between atoms: O_11  and  C_12 
REMARK       I    between atoms: C_12  and  N_14 
REMARK    7  A    between atoms: N_14  and  C_25 
ROOT
HETATM    1  C   UNL     1       7.354   0.478  22.818  1.00  0.00     0.365 C 
HETATM    2  O   UNL     1       6.478   0.661  23.581  1.00  0.00    -0.238 OA
HETATM    3  N   UNL     1       7.420   1.133  21.578  1.00  0.00    -0.309 N 
ATOM      4  HN  UNL     1       8.325   1.416  21.203  1.00  0.00     0.170 HD
ENDROOT
BRANCH   1   5
HETATM    5  O   UNL     1       8.272  -0.410  23.231  1.00  0.00    -0.295 OA
BRANCH   5   6
HETATM    6  C   UNL     1       8.918  -1.642  23.202  1.00  0.00     0.153 C 
HETATM    7  C   UNL     1      10.408  -1.373  22.810  1.00  0.00     0.044 C 
BRANCH   6   8
HETATM    8  C   UNL     1       8.046  -2.536  22.523  1.00  0.00     0.022 C 
BRANCH   8   9
HETATM    9  C   UNL     1       7.470  -3.541  22.422  1.00  0.00     0.090 C 
BRANCH   9  10
HETATM   10  N   UNL     1       6.489  -4.106  21.938  1.00  0.00    -0.309 N 
ATOM     11  HN  UNL     1       5.687  -3.499  21.768  1.00  0.00     0.167 HD
BRANCH  10  12
HETATM   12  C   UNL     1       6.296  -5.434  21.587  1.00  0.00     0.484 C 
HETATM   13  F   UNL     1       7.495  -6.095  21.757  1.00  0.00    -0.150 F 
HETATM   14  F   UNL     1       5.383  -6.086  22.345  1.00  0.00    -0.150 F 
HETATM   15  F   UNL     1       5.936  -5.617  20.333  1.00  0.00    -0.150 F 
ENDBRANCH  10  12
ENDBRANCH   9  10
ENDBRANCH   8   9
ENDBRANCH   6   8
ENDBRANCH   5   6
ENDBRANCH   1   5
BRANCH   3  16
HETATM   16  C   UNL     1       6.285   1.393  20.875  1.00  0.00     0.144 C 
HETATM   17  C   UNL     1       6.121   0.792  19.673  1.00  0.00     0.152 A 
HETATM   18  N   UNL     1       7.041   0.021  19.025  1.00  0.00    -0.268 N 
HETATM   19  N   UNL     1       4.944   0.831  18.879  1.00  0.00    -0.268 N 
HETATM   20  N   UNL     1       6.479  -0.393  17.948  1.00  0.00    -0.227 N 
ATOM     21  HN  UNL     1       7.990  -0.185  19.335  1.00  0.00     0.190 HD
HETATM   22  N   UNL     1       5.210   0.108  17.911  1.00  0.00    -0.227 N 
ATOM     23  HN  UNL     1       6.906  -0.993  17.242  1.00  0.00     0.210 HD
ATOM     24  HN  UNL     1       4.547  -0.093  17.161  1.00  0.00     0.210 HD
ATOM     25  HN  UNL     1       4.079   1.338  19.065  1.00  0.00     0.190 HD
ENDBRANCH   3  16
TORSDOF 7
ENDMDL
MODEL 9
REMARK VINA RESULT:    -5.723     22.776     24.409
REMARK INTER + INTRA:          -8.632
REMARK INTER:                  -8.056
REMARK INTRA:                  -0.575
REMARK UNBOUND:                -0.567
REMARK  7 active torsions:
REMARK  status: ('A' for Active; 'I' for Inactive)
REMARK    1  A    between atoms: C_2  and  N_5 
REMARK    2  A    between atoms: N_5  and  C_7 
REMARK    3  A    between atoms: C_7  and  C_8 
REMARK    4  A    between atoms: C_8  and  C_9 
REMARK    5  A    between atoms: C_9  and  O_11 
REMARK    6  A    between atoms: O_11  and  C_12 
REMARK       I    between atoms: C_12  and  N_14 
REMARK    7  A    between atoms: N_14  and  C_25 
ROOT
HETATM    1  C   UNL     1       8.628  -0.270  22.410  1.00  0.00     0.365 C 
HETATM    2  O   UNL     1       8.295  -1.080  23.195  1.00  0.00    -0.238 OA
HETATM    3  N   UNL     1       7.742   0.266  21.462  1.00  0.00    -0.309 N 
ATOM      4  HN  UNL     1       7.816   1.250  21.200  1.00  0.00     0.170 HD
ENDROOT
BRANCH   1   5
HETATM    5  O   UNL     1       9.918   0.087  22.497  1.00  0.00    -0.295 OA
BRANCH   5   6
HETATM    6  C   UNL     1      11.038   0.564  23.172  1.00  0.00     0.153 C 
HETATM    7  C   UNL     1      11.598  -0.619  24.029  1.00  0.00     0.044 C 
BRANCH   6   8
HETATM    8  C   UNL     1      10.686   1.843  23.680  1.00  0.00     0.022 C 
BRANCH   8   9
HETATM    9  C   UNL     1      10.077   2.833  23.656  1.00  0.00     0.090 C 
BRANCH   9  10
HETATM   10  N   UNL     1      10.060   4.008  23.288  1.00  0.00    -0.309 N 
ATOM     11  HN  UNL     1       9.677   4.156  22.354  1.00  0.00     0.167 HD
BRANCH  10  12
HETATM   12  C   UNL     1      10.475   5.161  23.935  1.00  0.00     0.484 C 
HETATM   13  F   UNL     1       9.704   5.312  25.070  1.00  0.00    -0.150 F 
HETATM   14  F   UNL     1      11.765   5.140  24.343  1.00  0.00    -0.150 F 
HETATM   15  F   UNL     1      10.327   6.264  23.228  1.00  0.00    -0.150 F 
ENDBRANCH  10  12
ENDBRANCH   9  10
ENDBRANCH   8   9
ENDBRANCH   6   8
ENDBRANCH   5   6
ENDBRANCH   1   5
BRANCH   3  16
HETATM   16  C   UNL     1       6.786  -0.514  20.892  1.00  0.00     0.144 C 
HETATM   17  C   UNL     1       6.430  -0.264  19.611  1.00  0.00     0.152 A 
HETATM   18  N   UNL     1       6.858   0.780  18.845  1.00  0.00    -0.268 N 
HETATM   19  N   UNL     1       5.566  -1.065  18.818  1.00  0.00    -0.268 N 
HETATM   20  N   UNL     1       6.327   0.626  17.686  1.00  0.00    -0.227 N 
ATOM     21  HN  UNL     1       7.477   1.536  19.136  1.00  0.00     0.190 HD
HETATM   22  N   UNL     1       5.570  -0.509  17.712  1.00  0.00    -0.227 N 
ATOM     23  HN  UNL     1       6.451   1.244  16.884  1.00  0.00     0.210 HD
ATOM     24  HN  UNL     1       5.058  -0.863  16.903  1.00  0.00     0.210 HD
ATOM     25  HN  UNL     1       5.060  -1.906  19.095  1.00  0.00     0.190 HD
ENDBRANCH   3  16
TORSDOF 7
ENDMDL
