MODEL 1
REMARK VINA RESULT:    -6.393      0.000      0.000
REMARK INTER + INTRA:          -9.463
REMARK INTER:                  -9.009
REMARK INTRA:                  -0.454
REMARK UNBOUND:                -0.454
REMARK  7 active torsions:
REMARK  status: ('A' for Active; 'I' for Inactive)
REMARK    1  A    between atoms: S_2  and  N_5 
REMARK    2  A    between atoms: N_5  and  C_7 
REMARK    3  A    between atoms: C_8  and  C_9 
REMARK    4  A    between atoms: C_9  and  C_12 
REMARK    5  A    between atoms: C_9  and  C_10 
REMARK    6  A    between atoms: C_12  and  C_13 
REMARK       I    between atoms: C_13  and  N_15 
REMARK    7  A    between atoms: N_15  and  C_17 
ROOT
HETATM    1  C   UNL     1       8.136  -2.984  22.959  1.00  0.00    -0.035 C 
ENDROOT
BRANCH   1   2
HETATM    2  C   UNL     1       7.196  -3.375  22.281  1.00  0.00     0.069 C 
BRANCH   2   3
HETATM    3  C   UNL     1       6.592  -2.353  21.612  1.00  0.00    -0.035 C 
HETATM    4  C   UNL     1       6.239  -1.456  20.990  1.00  0.00     0.027 C 
BRANCH   4   5
HETATM    5  N   UNL     1       5.673  -0.587  20.354  1.00  0.00    -0.229 N 
ATOM      6  HN  UNL     1       4.782  -0.257  20.725  1.00  0.00     0.190 HD
BRANCH   5   7
HETATM    7  S   UNL     1       6.177   0.091  19.001  1.00  0.00     0.327 S 
HETATM    8 CL   UNL     1       5.184   1.619  18.863  1.00  0.00     0.042 Cl
HETATM    9  O   UNL     1       7.565   0.452  19.100  1.00  0.00    -0.188 OA
HETATM   10  O   UNL     1       5.837  -0.723  17.859  1.00  0.00    -0.188 OA
ENDBRANCH   5   7
ENDBRANCH   4   5
ENDBRANCH   2   3
BRANCH   2  11
HETATM   11  C   UNL     1       6.866  -4.790  22.363  1.00  0.00     0.019 C 
HETATM   12  C   UNL     1       6.790  -5.217  23.720  1.00  0.00     0.013 C 
ENDBRANCH   2  11
ENDBRANCH   1   2
BRANCH   1  13
HETATM   13  C   UNL     1       9.214  -2.382  23.505  1.00  0.00     0.294 C 
HETATM   14  O   UNL     1       9.334  -2.304  24.723  1.00  0.00    -0.258 OA
HETATM   15  N   UNL     1      10.007  -1.879  22.543  1.00  0.00    -0.318 N 
ATOM     16  HN  UNL     1       9.778  -1.871  21.549  1.00  0.00     0.169 HD
BRANCH  15  17
HETATM   17  C   UNL     1      11.082  -1.416  23.039  1.00  0.00     0.037 A 
HETATM   18  C   UNL     1      12.369  -1.718  23.169  1.00  0.00     0.153 A 
HETATM   19  N   UNL     1      13.501  -1.478  23.460  1.00  0.00    -0.400 N 
HETATM   20  C   UNL     1      13.223  -0.375  23.970  1.00  0.00     0.129 A 
ATOM     21  HN  UNL     1      14.376  -1.989  23.336  1.00  0.00     0.154 HD
HETATM   22  C   UNL     1      12.195   0.281  24.110  1.00  0.00     0.002 A 
HETATM   23  C   UNL     1      11.009  -0.005  23.686  1.00  0.00     0.025 A 
ENDBRANCH  15  17
ENDBRANCH   1  13
TORSDOF 7
ENDMDL
MODEL 2
REMARK VINA RESULT:    -6.198      4.482      5.947
REMARK INTER + INTRA:          -9.188
REMARK INTER:                  -8.654
REMARK INTRA:                  -0.534
REMARK UNBOUND:                -0.454
REMARK  7 active torsions:
REMARK  status: ('A' for Active; 'I' for Inactive)
REMARK    1  A    between atoms: S_2  and  N_5 
REMARK    2  A    between atoms: N_5  and  C_7 
REMARK    3  A    between atoms: C_8  and  C_9 
REMARK    4  A    between atoms: C_9  and  C_12 
REMARK    5  A    between atoms: C_9  and  C_10 
REMARK    6  A    between atoms: C_12  and  C_13 
REMARK       I    between atoms: C_13  and  N_15 
REMARK    7  A    between atoms: N_15  and  C_17 
ROOT
HETATM    1  C   UNL     1       8.342  -3.304  23.380  1.00  0.00    -0.035 C 
ENDROOT
BRANCH   1   2
HETATM    2  C   UNL     1       7.727  -4.353  23.510  1.00  0.00     0.069 C 
BRANCH   2   3
HETATM    3  C   UNL     1       7.852  -4.863  24.767  1.00  0.00    -0.035 C 
HETATM    4  C   UNL     1       7.825  -5.196  25.865  1.00  0.00     0.027 C 
BRANCH   4   5
HETATM    5  N   UNL     1       7.916  -5.708  26.965  1.00  0.00    -0.229 N 
ATOM      6  HN  UNL     1       8.850  -5.994  27.259  1.00  0.00     0.190 HD
BRANCH   5   7
HETATM    7  S   UNL     1       6.730  -5.977  27.997  1.00  0.00     0.327 S 
HETATM    8 CL   UNL     1       5.364  -6.608  26.960  1.00  0.00     0.042 Cl
HETATM    9  O   UNL     1       7.099  -6.996  28.940  1.00  0.00    -0.188 OA
HETATM   10  O   UNL     1       6.265  -4.743  28.580  1.00  0.00    -0.188 OA
ENDBRANCH   5   7
ENDBRANCH   4   5
ENDBRANCH   2   3
BRANCH   2  11
HETATM   11  C   UNL     1       7.057  -4.877  22.329  1.00  0.00     0.019 C 
HETATM   12  C   UNL     1       7.017  -6.301  22.357  1.00  0.00     0.013 C 
ENDBRANCH   2  11
ENDBRANCH   1   2
BRANCH   1  13
HETATM   13  C   UNL     1       9.236  -2.297  23.282  1.00  0.00     0.294 C 
HETATM   14  O   UNL     1       9.660  -1.946  22.186  1.00  0.00    -0.258 OA
HETATM   15  N   UNL     1       9.582  -1.856  24.503  1.00  0.00    -0.318 N 
ATOM     16  HN  UNL     1       9.283  -2.285  25.380  1.00  0.00     0.169 HD
BRANCH  15  17
HETATM   17  C   UNL     1      10.331  -0.833  24.420  1.00  0.00     0.037 A 
HETATM   18  C   UNL     1      11.607  -0.503  24.257  1.00  0.00     0.153 A 
HETATM   19  N   UNL     1      12.499   0.267  24.067  1.00  0.00    -0.400 N 
HETATM   20  C   UNL     1      11.762   1.268  24.157  1.00  0.00     0.129 A 
ATOM     21  HN  UNL     1      13.497   0.149  23.894  1.00  0.00     0.154 HD
HETATM   22  C   UNL     1      10.561   1.449  24.334  1.00  0.00     0.002 A 
HETATM   23  C   UNL     1       9.634   0.556  24.443  1.00  0.00     0.025 A 
ENDBRANCH  15  17
ENDBRANCH   1  13
TORSDOF 7
ENDMDL
MODEL 3
REMARK VINA RESULT:    -6.112      3.873      6.934
REMARK INTER + INTRA:          -9.067
REMARK INTER:                  -8.492
REMARK INTRA:                  -0.575
REMARK UNBOUND:                -0.454
REMARK  7 active torsions:
REMARK  status: ('A' for Active; 'I' for Inactive)
REMARK    1  A    between atoms: S_2  and  N_5 
REMARK    2  A    between atoms: N_5  and  C_7 
REMARK    3  A    between atoms: C_8  and  C_9 
REMARK    4  A    between atoms: C_9  and  C_12 
REMARK    5  A    between atoms: C_9  and  C_10 
REMARK    6  A    between atoms: C_12  and  C_13 
REMARK       I    between atoms: C_13  and  N_15 
REMARK    7  A    between atoms: N_15  and  C_17 
ROOT
HETATM    1  C   UNL     1       9.042  -1.343  22.264  1.00  0.00    -0.035 C 
ENDROOT
BRANCH   1   2
HETATM    2  C   UNL     1       9.645  -1.744  23.250  1.00  0.00     0.069 C 
BRANCH   2   3
HETATM    3  C   UNL     1       8.994  -2.774  23.860  1.00  0.00    -0.035 C 
HETATM    4  C   UNL     1       8.325  -3.618  24.257  1.00  0.00     0.027 C 
BRANCH   4   5
HETATM    5  N   UNL     1       7.789  -4.578  24.778  1.00  0.00    -0.229 N 
ATOM      6  HN  UNL     1       7.437  -5.300  24.150  1.00  0.00     0.190 HD
BRANCH   5   7
HETATM    7  S   UNL     1       7.578  -4.825  26.339  1.00  0.00     0.327 S 
HETATM    8 CL   UNL     1       6.546  -3.419  26.885  1.00  0.00     0.042 Cl
HETATM    9  O   UNL     1       6.851  -6.045  26.566  1.00  0.00    -0.188 OA
HETATM   10  O   UNL     1       8.828  -4.717  27.051  1.00  0.00    -0.188 OA
ENDBRANCH   5   7
ENDBRANCH   4   5
ENDBRANCH   2   3
BRANCH   2  11
HETATM   11  C   UNL     1      10.862  -1.034  23.615  1.00  0.00     0.019 C 
HETATM   12  C   UNL     1      11.978  -1.528  22.879  1.00  0.00     0.013 C 
ENDBRANCH   2  11
ENDBRANCH   1   2
BRANCH   1  13
HETATM   13  C   UNL     1       8.407  -0.659  21.290  1.00  0.00     0.294 C 
HETATM   14  O   UNL     1       9.023   0.124  20.575  1.00  0.00    -0.258 OA
HETATM   15  N   UNL     1       7.090  -0.929  21.308  1.00  0.00    -0.318 N 
ATOM     16  HN  UNL     1       6.626  -1.496  22.018  1.00  0.00     0.169 HD
BRANCH  15  17
HETATM   17  C   UNL     1       6.502  -0.384  20.322  1.00  0.00     0.037 A 
HETATM   18  C   UNL     1       6.117  -0.650  19.079  1.00  0.00     0.153 A 
HETATM   19  N   UNL     1       5.537  -0.412  18.063  1.00  0.00    -0.400 N 
HETATM   20  C   UNL     1       5.221   0.740  18.418  1.00  0.00     0.129 A 
ATOM     21  HN  UNL     1       5.364  -0.954  17.216  1.00  0.00     0.154 HD
HETATM   22  C   UNL     1       5.384   1.411  19.432  1.00  0.00     0.002 A 
HETATM   23  C   UNL     1       5.949   1.052  20.537  1.00  0.00     0.025 A 
ENDBRANCH  15  17
ENDBRANCH   1  13
TORSDOF 7
ENDMDL
MODEL 4
REMARK VINA RESULT:    -6.056      3.628      6.246
REMARK INTER + INTRA:          -8.988
REMARK INTER:                  -8.407
REMARK INTRA:                  -0.582
REMARK UNBOUND:                -0.454
REMARK  7 active torsions:
REMARK  status: ('A' for Active; 'I' for Inactive)
REMARK    1  A    between atoms: S_2  and  N_5 
REMARK    2  A    between atoms: N_5  and  C_7 
REMARK    3  A    between atoms: C_8  and  C_9 
REMARK    4  A    between atoms: C_9  and  C_12 
REMARK    5  A    between atoms: C_9  and  C_10 
REMARK    6  A    between atoms: C_12  and  C_13 
REMARK       I    between atoms: C_13  and  N_15 
REMARK    7  A    between atoms: N_15  and  C_17 
ROOT
HETATM    1  C   UNL     1       8.925  -1.180  22.184  1.00  0.00    -0.035 C 
ENDROOT
BRANCH   1   2
HETATM    2  C   UNL     1       9.239  -1.771  23.209  1.00  0.00     0.069 C 
BRANCH   2   3
HETATM    3  C   UNL     1       8.444  -2.853  23.436  1.00  0.00    -0.035 C 
HETATM    4  C   UNL     1       7.760  -3.706  23.785  1.00  0.00     0.027 C 
BRANCH   4   5
HETATM    5  N   UNL     1       7.005  -4.646  23.950  1.00  0.00    -0.229 N 
ATOM      6  HN  UNL     1       7.071  -5.131  24.845  1.00  0.00     0.190 HD
BRANCH   5   7
HETATM    7  S   UNL     1       5.923  -5.199  22.917  1.00  0.00     0.327 S 
HETATM    8 CL   UNL     1       6.918  -5.950  21.581  1.00  0.00     0.042 Cl
HETATM    9  O   UNL     1       5.118  -6.223  23.524  1.00  0.00    -0.188 OA
HETATM   10  O   UNL     1       5.183  -4.115  22.317  1.00  0.00    -0.188 OA
ENDBRANCH   5   7
ENDBRANCH   4   5
ENDBRANCH   2   3
BRANCH   2  11
HETATM   11  C   UNL     1      10.315  -1.194  24.000  1.00  0.00     0.019 C 
HETATM   12  C   UNL     1       9.800  -0.502  25.134  1.00  0.00     0.013 C 
ENDBRANCH   2  11
ENDBRANCH   1   2
BRANCH   1  13
HETATM   13  C   UNL     1       8.339  -0.508  21.171  1.00  0.00     0.294 C 
HETATM   14  O   UNL     1       8.975   0.311  20.518  1.00  0.00    -0.258 OA
HETATM   15  N   UNL     1       7.038  -0.835  21.082  1.00  0.00    -0.318 N 
ATOM     16  HN  UNL     1       6.545  -1.432  21.745  1.00  0.00     0.169 HD
BRANCH  15  17
HETATM   17  C   UNL     1       6.506  -0.299  20.060  1.00  0.00     0.037 A 
HETATM   18  C   UNL     1       6.230  -0.561  18.787  1.00  0.00     0.153 A 
HETATM   19  N   UNL     1       5.721  -0.332  17.732  1.00  0.00    -0.400 N 
HETATM   20  C   UNL     1       5.331   0.801  18.074  1.00  0.00     0.129 A 
ATOM     21  HN  UNL     1       5.637  -0.867  16.868  1.00  0.00     0.154 HD
HETATM   22  C   UNL     1       5.387   1.463  19.106  1.00  0.00     0.002 A 
HETATM   23  C   UNL     1       5.879   1.110  20.247  1.00  0.00     0.025 A 
ENDBRANCH  15  17
ENDBRANCH   1  13
TORSDOF 7
ENDMDL
MODEL 5
REMARK VINA RESULT:    -5.727      4.097      5.838
REMARK INTER + INTRA:          -8.525
REMARK INTER:                  -8.065
REMARK INTRA:                  -0.459
REMARK UNBOUND:                -0.454
REMARK  7 active torsions:
REMARK  status: ('A' for Active; 'I' for Inactive)
REMARK    1  A    between atoms: S_2  and  N_5 
REMARK    2  A    between atoms: N_5  and  C_7 
REMARK    3  A    between atoms: C_8  and  C_9 
REMARK    4  A    between atoms: C_9  and  C_12 
REMARK    5  A    between atoms: C_9  and  C_10 
REMARK    6  A    between atoms: C_12  and  C_13 
REMARK       I    between atoms: C_13  and  N_15 
REMARK    7  A    between atoms: N_15  and  C_17 
ROOT
HETATM    1  C   UNL     1      11.056   0.172  22.994  1.00  0.00    -0.035 C 
ENDROOT
BRANCH   1   2
HETATM    2  C   UNL     1      11.175  -1.044  22.941  1.00  0.00     0.069 C 
BRANCH   2   3
HETATM    3  C   UNL     1       9.968  -1.669  22.845  1.00  0.00    -0.035 C 
HETATM    4  C   UNL     1       8.988  -2.213  22.600  1.00  0.00     0.027 C 
BRANCH   4   5
HETATM    5  N   UNL     1       7.935  -2.821  22.546  1.00  0.00    -0.229 N 
ATOM      6  HN  UNL     1       7.255  -2.495  21.860  1.00  0.00     0.190 HD
BRANCH   5   7
HETATM    7  S   UNL     1       7.507  -4.073  23.436  1.00  0.00     0.327 S 
HETATM    8 CL   UNL     1       7.279  -5.427  22.230  1.00  0.00     0.042 Cl
HETATM    9  O   UNL     1       8.561  -4.437  24.342  1.00  0.00    -0.188 OA
HETATM   10  O   UNL     1       6.221  -3.852  24.051  1.00  0.00    -0.188 OA
ENDBRANCH   5   7
ENDBRANCH   4   5
ENDBRANCH   2   3
BRANCH   2  11
HETATM   11  C   UNL     1      12.522  -1.582  23.053  1.00  0.00     0.019 C 
HETATM   12  C   UNL     1      13.292  -0.834  23.990  1.00  0.00     0.013 C 
ENDBRANCH   2  11
ENDBRANCH   1   2
BRANCH   1  13
HETATM   13  C   UNL     1      10.826   1.488  22.805  1.00  0.00     0.294 C 
HETATM   14  O   UNL     1      10.415   1.900  21.725  1.00  0.00    -0.258 OA
HETATM   15  N   UNL     1      11.169   2.187  23.901  1.00  0.00    -0.318 N 
ATOM     16  HN  UNL     1      11.627   1.789  24.721  1.00  0.00     0.169 HD
BRANCH  15  17
HETATM   17  C   UNL     1      10.847   3.410  23.778  1.00  0.00     0.037 A 
HETATM   18  C   UNL     1       9.778   4.199  23.800  1.00  0.00     0.153 A 
HETATM   19  N   UNL     1       9.229   5.259  23.811  1.00  0.00    -0.400 N 
HETATM   20  C   UNL     1      10.282   5.898  23.622  1.00  0.00     0.129 A 
ATOM     21  HN  UNL     1       8.255   5.538  23.930  1.00  0.00     0.154 HD
HETATM   22  C   UNL     1      11.468   5.602  23.504  1.00  0.00     0.002 A 
HETATM   23  C   UNL     1      12.004   4.430  23.595  1.00  0.00     0.025 A 
ENDBRANCH  15  17
ENDBRANCH   1  13
TORSDOF 7
ENDMDL
MODEL 6
REMARK VINA RESULT:    -5.656      3.326      4.348
REMARK INTER + INTRA:          -8.425
REMARK INTER:                  -7.911
REMARK INTRA:                  -0.513
REMARK UNBOUND:                -0.454
REMARK  7 active torsions:
REMARK  status: ('A' for Active; 'I' for Inactive)
REMARK    1  A    between atoms: S_2  and  N_5 
REMARK    2  A    between atoms: N_5  and  C_7 
REMARK    3  A    between atoms: C_8  and  C_9 
REMARK    4  A    between atoms: C_9  and  C_12 
REMARK    5  A    between atoms: C_9  and  C_10 
REMARK    6  A    between atoms: C_12  and  C_13 
REMARK       I    between atoms: C_13  and  N_15 
REMARK    7  A    between atoms: N_15  and  C_17 
ROOT
HETATM    1  C   UNL     1       7.950  -0.421  21.422  1.00  0.00    -0.035 C 
ENDROOT
BRANCH   1   2
HETATM    2  C   UNL     1       6.830  -0.700  21.017  1.00  0.00     0.069 C 
BRANCH   2   3
HETATM    3  C   UNL     1       6.434  -1.937  21.427  1.00  0.00    -0.035 C 
HETATM    4  C   UNL     1       5.974  -2.898  21.852  1.00  0.00     0.027 C 
BRANCH   4   5
HETATM    5  N   UNL     1       5.603  -4.016  22.158  1.00  0.00    -0.229 N 
ATOM      6  HN  UNL     1       4.602  -4.200  22.084  1.00  0.00     0.190 HD
BRANCH   5   7
HETATM    7  S   UNL     1       6.515  -5.224  22.662  1.00  0.00     0.327 S 
HETATM    8 CL   UNL     1       5.384  -6.261  23.654  1.00  0.00     0.042 Cl
HETATM    9  O   UNL     1       6.992  -5.998  21.549  1.00  0.00    -0.188 OA
HETATM   10  O   UNL     1       7.538  -4.754  23.564  1.00  0.00    -0.188 OA
ENDBRANCH   5   7
ENDBRANCH   4   5
ENDBRANCH   2   3
BRANCH   2  11
HETATM   11  C   UNL     1       6.180   0.273  20.151  1.00  0.00     0.019 C 
HETATM   12  C   UNL     1       6.178   1.566  20.751  1.00  0.00     0.013 C 
ENDBRANCH   2  11
ENDBRANCH   1   2
BRANCH   1  13
HETATM   13  C   UNL     1       9.252  -0.353  21.769  1.00  0.00     0.294 C 
HETATM   14  O   UNL     1      10.016   0.400  21.175  1.00  0.00    -0.258 OA
HETATM   15  N   UNL     1       9.525  -1.236  22.745  1.00  0.00    -0.318 N 
ATOM     16  HN  UNL     1       8.863  -1.924  23.104  1.00  0.00     0.169 HD
BRANCH  15  17
HETATM   17  C   UNL     1      10.718  -1.098  23.161  1.00  0.00     0.037 A 
HETATM   18  C   UNL     1      11.938  -1.586  22.965  1.00  0.00     0.153 A 
HETATM   19  N   UNL     1      13.122  -1.599  23.111  1.00  0.00    -0.400 N 
HETATM   20  C   UNL     1      13.109  -0.695  23.969  1.00  0.00     0.129 A 
ATOM     21  HN  UNL     1      13.871  -2.148  22.688  1.00  0.00     0.154 HD
HETATM   22  C   UNL     1      12.239   0.005  24.478  1.00  0.00     0.002 A 
HETATM   23  C   UNL     1      10.977   0.025  24.203  1.00  0.00     0.025 A 
ENDBRANCH  15  17
ENDBRANCH   1  13
TORSDOF 7
ENDMDL
MODEL 7
REMARK VINA RESULT:    -5.639      2.492      5.019
REMARK INTER + INTRA:          -8.401
REMARK INTER:                  -7.886
REMARK INTRA:                  -0.515
REMARK UNBOUND:                -0.454
REMARK  7 active torsions:
REMARK  status: ('A' for Active; 'I' for Inactive)
REMARK    1  A    between atoms: S_2  and  N_5 
REMARK    2  A    between atoms: N_5  and  C_7 
REMARK    3  A    between atoms: C_8  and  C_9 
REMARK    4  A    between atoms: C_9  and  C_12 
REMARK    5  A    between atoms: C_9  and  C_10 
REMARK    6  A    between atoms: C_12  and  C_13 
REMARK       I    between atoms: C_13  and  N_15 
REMARK    7  A    between atoms: N_15  and  C_17 
ROOT
HETATM    1  C   UNL     1       9.344  -2.213  24.165  1.00  0.00    -0.035 C 
ENDROOT
BRANCH   1   2
HETATM    2  C   UNL     1       9.780  -1.690  23.148  1.00  0.00     0.069 C 
BRANCH   2   3
HETATM    3  C   UNL     1       8.783  -1.340  22.289  1.00  0.00    -0.035 C 
HETATM    4  C   UNL     1       7.840  -1.128  21.670  1.00  0.00     0.027 C 
BRANCH   4   5
HETATM    5  N   UNL     1       6.956  -0.754  20.923  1.00  0.00    -0.229 N 
ATOM      6  HN  UNL     1       6.096  -1.304  20.923  1.00  0.00     0.190 HD
BRANCH   5   7
HETATM    7  S   UNL     1       6.998   0.504  19.944  1.00  0.00     0.327 S 
HETATM    8 CL   UNL     1       5.266   0.710  19.399  1.00  0.00     0.042 Cl
HETATM    9  O   UNL     1       7.400   1.687  20.654  1.00  0.00    -0.188 OA
HETATM   10  O   UNL     1       7.768   0.210  18.760  1.00  0.00    -0.188 OA
ENDBRANCH   5   7
ENDBRANCH   4   5
ENDBRANCH   2   3
BRANCH   2  11
HETATM   11  C   UNL     1      11.227  -1.602  23.019  1.00  0.00     0.019 C 
HETATM   12  C   UNL     1      11.702  -0.335  23.465  1.00  0.00     0.013 C 
ENDBRANCH   2  11
ENDBRANCH   1   2
BRANCH   1  13
HETATM   13  C   UNL     1       8.692  -2.910  25.119  1.00  0.00     0.294 C 
HETATM   14  O   UNL     1       8.417  -2.387  26.193  1.00  0.00    -0.258 OA
HETATM   15  N   UNL     1       8.492  -4.178  24.720  1.00  0.00    -0.318 N 
ATOM     16  HN  UNL     1       8.865  -4.579  23.859  1.00  0.00     0.169 HD
BRANCH  15  17
HETATM   17  C   UNL     1       7.777  -4.809  25.560  1.00  0.00     0.037 A 
HETATM   18  C   UNL     1       7.880  -5.471  26.707  1.00  0.00     0.153 A 
HETATM   19  N   UNL     1       7.439  -6.024  27.668  1.00  0.00    -0.400 N 
HETATM   20  C   UNL     1       6.263  -5.975  27.257  1.00  0.00     0.129 A 
ATOM     21  HN  UNL     1       7.867  -6.400  28.514  1.00  0.00     0.154 HD
HETATM   22  C   UNL     1       5.709  -5.509  26.266  1.00  0.00     0.002 A 
HETATM   23  C   UNL     1       6.245  -4.838  25.301  1.00  0.00     0.025 A 
ENDBRANCH  15  17
ENDBRANCH   1  13
TORSDOF 7
ENDMDL
MODEL 8
REMARK VINA RESULT:    -5.629     14.329     15.936
REMARK INTER + INTRA:          -8.386
REMARK INTER:                  -7.890
REMARK INTRA:                  -0.496
REMARK UNBOUND:                -0.454
REMARK  7 active torsions:
REMARK  status: ('A' for Active; 'I' for Inactive)
REMARK    1  A    between atoms: S_2  and  N_5 
REMARK    2  A    between atoms: N_5  and  C_7 
REMARK    3  A    between atoms: C_8  and  C_9 
REMARK    4  A    between atoms: C_9  and  C_12 
REMARK    5  A    between atoms: C_9  and  C_10 
REMARK    6  A    between atoms: C_12  and  C_13 
REMARK       I    between atoms: C_13  and  N_15 
REMARK    7  A    between atoms: N_15  and  C_17 
ROOT
HETATM    1  C   UNL     1      22.835  -1.557  23.148  1.00  0.00    -0.035 C 
ENDROOT
BRANCH   1   2
HETATM    2  C   UNL     1      22.160  -1.809  24.137  1.00  0.00     0.069 C 
BRANCH   2   3
HETATM    3  C   UNL     1      22.610  -2.916  24.791  1.00  0.00    -0.035 C 
HETATM    4  C   UNL     1      23.042  -3.741  25.462  1.00  0.00     0.027 C 
BRANCH   4   5
HETATM    5  N   UNL     1      23.383  -4.746  26.057  1.00  0.00    -0.229 N 
ATOM      6  HN  UNL     1      23.102  -4.814  27.035  1.00  0.00     0.190 HD
BRANCH   5   7
HETATM    7  S   UNL     1      24.223  -5.968  25.470  1.00  0.00     0.327 S 
HETATM    8 CL   UNL     1      25.965  -5.453  25.664  1.00  0.00     0.042 Cl
HETATM    9  O   UNL     1      24.004  -7.156  26.249  1.00  0.00    -0.188 OA
HETATM   10  O   UNL     1      23.995  -6.116  24.053  1.00  0.00    -0.188 OA
ENDBRANCH   5   7
ENDBRANCH   4   5
ENDBRANCH   2   3
BRANCH   2  11
HETATM   11  C   UNL     1      21.008  -0.956  24.386  1.00  0.00     0.019 C 
HETATM   12  C   UNL     1      20.531  -1.121  25.718  1.00  0.00     0.013 C 
ENDBRANCH   2  11
ENDBRANCH   1   2
BRANCH   1  13
HETATM   13  C   UNL     1      23.383  -1.403  21.925  1.00  0.00     0.294 C 
HETATM   14  O   UNL     1      24.443  -0.802  21.788  1.00  0.00    -0.258 OA
HETATM   15  N   UNL     1      22.580  -1.925  20.982  1.00  0.00    -0.318 N 
ATOM     16  HN  UNL     1      21.647  -2.298  21.158  1.00  0.00     0.169 HD
BRANCH  15  17
HETATM   17  C   UNL     1      23.139  -1.892  19.841  1.00  0.00     0.037 A 
HETATM   18  C   UNL     1      24.125  -2.467  19.162  1.00  0.00     0.153 A 
HETATM   19  N   UNL     1      24.756  -2.693  18.174  1.00  0.00    -0.400 N 
HETATM   20  C   UNL     1      24.149  -1.843  17.494  1.00  0.00     0.129 A 
ATOM     21  HN  UNL     1      25.514  -3.342  17.965  1.00  0.00     0.154 HD
HETATM   22  C   UNL     1      23.219  -1.069  17.700  1.00  0.00     0.002 A 
HETATM   23  C   UNL     1      22.518  -0.943  18.778  1.00  0.00     0.025 A 
ENDBRANCH  15  17
ENDBRANCH   1  13
TORSDOF 7
ENDMDL
MODEL 9
REMARK VINA RESULT:    -5.532      3.843      6.500
REMARK INTER + INTRA:          -8.249
REMARK INTER:                  -7.676
REMARK INTRA:                  -0.573
REMARK UNBOUND:                -0.454
REMARK  7 active torsions:
REMARK  status: ('A' for Active; 'I' for Inactive)
REMARK    1  A    between atoms: S_2  and  N_5 
REMARK    2  A    between atoms: N_5  and  C_7 
REMARK    3  A    between atoms: C_8  and  C_9 
REMARK    4  A    between atoms: C_9  and  C_12 
REMARK    5  A    between atoms: C_9  and  C_10 
REMARK    6  A    between atoms: C_12  and  C_13 
REMARK       I    between atoms: C_13  and  N_15 
REMARK    7  A    between atoms: N_15  and  C_17 
ROOT
HETATM    1  C   UNL     1       7.029  -0.599  21.449  1.00  0.00    -0.035 C 
ENDROOT
BRANCH   1   2
HETATM    2  C   UNL     1       7.249   0.504  20.966  1.00  0.00     0.069 C 
BRANCH   2   3
HETATM    3  C   UNL     1       8.458   0.996  21.353  1.00  0.00    -0.035 C 
HETATM    4  C   UNL     1       9.396   1.471  21.815  1.00  0.00     0.027 C 
BRANCH   4   5
HETATM    5  N   UNL     1      10.495   1.851  22.172  1.00  0.00    -0.229 N 
ATOM      6  HN  UNL     1      11.197   1.969  21.441  1.00  0.00     0.190 HD
BRANCH   5   7
HETATM    7  S   UNL     1      10.955   2.184  23.662  1.00  0.00     0.327 S 
HETATM    8 CL   UNL     1       9.474   1.849  24.678  1.00  0.00     0.042 Cl
HETATM    9  O   UNL     1      12.009   1.299  24.078  1.00  0.00    -0.188 OA
HETATM   10  O   UNL     1      11.244   3.590  23.810  1.00  0.00    -0.188 OA
ENDBRANCH   5   7
ENDBRANCH   4   5
ENDBRANCH   2   3
BRANCH   2  11
HETATM   11  C   UNL     1       6.194   1.092  20.155  1.00  0.00     0.019 C 
HETATM   12  C   UNL     1       6.294   0.663  18.800  1.00  0.00     0.013 C 
ENDBRANCH   2  11
ENDBRANCH   1   2
BRANCH   1  13
HETATM   13  C   UNL     1       6.974  -1.898  21.809  1.00  0.00     0.294 C 
HETATM   14  O   UNL     1       7.943  -2.443  22.325  1.00  0.00    -0.258 OA
HETATM   15  N   UNL     1       5.791  -2.432  21.458  1.00  0.00    -0.318 N 
ATOM     16  HN  UNL     1       5.077  -1.949  20.913  1.00  0.00     0.169 HD
BRANCH  15  17
HETATM   17  C   UNL     1       5.683  -3.620  21.897  1.00  0.00     0.037 A 
HETATM   18  C   UNL     1       6.005  -4.868  21.576  1.00  0.00     0.153 A 
HETATM   19  N   UNL     1       6.114  -6.037  21.795  1.00  0.00    -0.400 N 
HETATM   20  C   UNL     1       5.519  -5.970  22.889  1.00  0.00     0.129 A 
ATOM     21  HN  UNL     1       6.537  -6.806  21.277  1.00  0.00     0.154 HD
HETATM   22  C   UNL     1       5.025  -5.065  23.554  1.00  0.00     0.002 A 
HETATM   23  C   UNL     1       5.025  -3.800  23.293  1.00  0.00     0.025 A 
ENDBRANCH  15  17
ENDBRANCH   1  13
TORSDOF 7
ENDMDL
