stable:False satoms:10 tatoms:24 sratio:0.4166666666666667
  -OEChem-07092417403D

 24 25  0     1  0  0  0  0  0999 V2000
    6.4451   -4.8697   26.4988 Cl  0  0  0  0  0  0  0  0  0  0  0  0
    8.1965   -4.3400   26.1062 S   0  0  0  0  0  0  0  0  0  0  0  0
    8.9627   -5.5383   25.9600 O   0  0  0  0  0  0  0  0  0  0  0  0
    8.5982   -3.4543   27.1583 O   0  0  0  0  0  0  0  0  0  0  0  0
    8.0733   -3.6036   24.6881 N   0  0  0  0  0  0  0  0  0  0  0  0
    8.7311   -2.7908   24.0867 C   0  0  0  0  0  0  0  0  0  0  0  0
    9.1859   -1.8682   23.3615 C   0  0  0  0  0  0  0  0  0  0  0  0
   10.8378   -0.9437   23.0505 C   0  0  0  0  0  0  0  0  0  0  0  0
   11.4354   -0.2439   24.0524 C   0  0  0  0  0  0  0  0  0  0  0  0
   12.3782    0.0956   24.2800 C   0  5  0  0  0  0  0  0  0  0  0  0
   13.3099    0.0733   24.0490 H   0  0  0  0  0  0  0  0  0  0  0  0
   12.8958   -1.5056   22.1932 C   0  0  0  0  0  0  0  0  0  0  0  0
   12.0720   -1.3716   22.4948 C   0  0  0  0  0  0  0  0  0  0  0  0
    9.5686   -0.9646   22.6317 C   0  0  0  0  0  0  0  0  0  0  0  0
    8.9639   -0.0591   21.4703 C   0  0  0  0  0  0  0  0  0  0  0  0
    9.5628    0.8343   20.9825 O   0  0  0  0  0  0  0  0  0  0  0  0
    7.7663   -0.5088   21.2392 N   0  0  0  0  0  0  0  0  0  0  0  0
    7.0003   -0.0024   20.3162 C   0  0  0  0  0  0  0  0  0  0  0  0
    7.0477    0.1274   18.9622 C   0  0  0  0  0  0  0  0  0  0  0  0
    6.7672    0.3884   17.8588 N   0  0  0  0  0  0  0  0  0  0  0  0
    5.7273    0.8021   18.4514 C   0  0  1  0  0  0  0  0  0  0  0  0
    5.0375    1.0005   19.4365 N   0  0  0  0  0  0  0  0  0  0  0  0
    5.6941    0.6472   20.4762 C   0  0  0  0  0  0  0  0  0  0  0  0
    5.3264    0.8055   21.4923 H   0  0  0  0  0  0  0  0  0  0  0  0
 20 21  1  0  0  0  0
 19 20  2  0  0  0  0
 19 21  1  0  0  0  0
 21 22  1  0  0  0  0
 18 19  1  0  0  0  0
 22 23  1  0  0  0  0
 18 23  2  0  0  0  0
 17 18  1  0  0  0  0
 23 24  1  0  0  0  0
 15 16  2  0  0  0  0
 15 17  1  0  0  0  0
 14 15  1  0  0  0  0
 12 13  3  0  0  0  0
  8 13  1  0  0  0  0
  8 14  2  3  0  0  0
  7 14  1  0  0  0  0
  8  9  1  0  0  0  0
  6  7  3  0  0  0  0
 10 11  1  0  0  0  0
  9 10  2  0  0  0  0
  5  6  1  0  0  0  0
  2  5  1  0  0  0  0
  2  3  2  0  0  0  0
  1  2  1  0  0  0  0
  2  4  2  0  0  0  0
M  CHG  1  10  -1
M  END
> <Shapegauss>
-270.613983

$$$$
