stable:False satoms:15 tatoms:24 sratio:0.625
  -OEChem-07092417383D

 24 25  0     1  0  0  0  0  0999 V2000
    6.8027   -4.7174   26.2875 Cl  0  0  0  0  0  0  0  0  0  0  0  0
    8.3915   -3.9616   25.9990 C   0  0  0  0  0  0  0  0  0  0  0  0
    9.1590   -4.8102   26.0959 H   0  0  0  0  0  0  0  0  0  0  0  0
    8.5601   -3.2439   26.8650 H   0  0  0  0  0  0  0  0  0  0  0  0
    8.4085   -3.3615   24.7106 N   0  0  0  0  0  0  0  0  0  0  0  0
    9.1842   -2.4279   24.1373 C   0  0  0  0  0  0  0  0  0  0  0  0
    8.7204   -1.7785   23.1672 N   0  0  0  0  0  0  0  0  0  0  0  0
   10.4921   -1.9001   24.4063 N   0  0  0  0  0  0  0  0  0  0  0  0
   10.8041   -1.0398   23.5754 C   0  0  0  0  0  0  0  0  0  0  0  0
   12.1521    0.5110   23.1927 H   0  0  0  0  0  0  0  0  0  0  0  0
   12.9189   -0.7910   23.9247 H   0  0  0  0  0  0  0  0  0  0  0  0
   12.4151   -1.0129   22.2876 H   0  0  0  0  0  0  0  0  0  0  0  0
   12.1341   -0.5685   23.2228 C   0  0  0  0  0  0  0  0  0  0  0  0
    9.6417   -0.8009   22.6226 C   0  0  0  0  0  0  0  0  0  0  0  0
    9.3531   -0.1296   21.6596 C   0  0  0  0  0  0  0  0  0  0  0  0
    9.9890    0.5761   21.3314 N   0  3  0  0  0  0  0  0  0  0  0  0
    7.6937   -0.4989   21.0428 N   0  0  0  0  0  0  0  0  0  0  0  0
    7.0578   -0.0696   20.3506 C   0  0  3  0  0  0  0  0  0  0  0  0
    7.6918   -0.1821   19.5267 N   0  0  0  0  0  0  0  0  0  0  0  0
    6.3436    0.5088   17.3360 N   0  0  0  0  0  0  0  0  0  0  0  0
    5.7910    0.6215   18.2318 C   0  0  0  0  0  0  0  0  0  0  0  0
    5.2004    0.7427   19.3973 C   0  0  0  0  0  0  0  0  0  0  0  0
    5.5385    0.4918   20.4920 C   0  0  0  0  0  0  0  0  0  0  0  0
    5.1407    0.5521   21.4339 H   0  0  0  0  0  0  0  0  0  0  0  0
 20 21  3  0  0  0  0
 21 22  1  0  0  0  0
 22 23  2  0  0  0  0
 18 19  1  0  0  0  0
 17 19  1  0  0  0  0
 18 23  1  0  0  0  0
 17 18  1  0  0  0  0
 23 24  1  0  0  0  0
 15 17  1  0  0  0  0
 15 16  2  0  0  0  0
 14 15  1  0  0  0  0
 12 13  1  0  0  0  0
  7 14  1  0  0  0  0
  9 14  2  0  0  0  0
  6  7  1  0  0  0  0
 10 13  1  0  0  0  0
  9 13  1  0  0  0  0
 11 13  1  0  0  0  0
  8  9  1  0  0  0  0
  6  8  2  0  0  0  0
  5  6  1  0  0  0  0
  2  5  1  0  0  0  0
  2  3  1  0  0  0  0
  1  2  1  0  0  0  0
  2  4  1  0  0  0  0
M  CHG  1  16   1
M  END
> <Shapegauss>
-208.464554

$$$$
