stable:False satoms:15 tatoms:24 sratio:0.625
  -OEChem-08062405203D

 31 32  0     1  0  0  0  0  0999 V2000
   -3.1013    2.3953  -19.6918 Cl  0  0  0  0  0  0  0  0  0  0  0  0
   -4.8778    2.3459  -19.8345 C   0  0  0  0  0  0  0  0  0  0  0  0
   -5.1946    3.4137  -20.1140 H   0  0  0  0  0  0  0  0  0  0  0  0
   -5.2713    2.1322  -18.7891 H   0  0  0  0  0  0  0  0  0  0  0  0
   -5.2517    1.3948  -20.8224 N   0  0  0  0  0  0  0  0  0  0  0  0
   -6.3960    0.7476  -21.0943 C   0  0  0  0  0  0  0  0  0  0  0  0
   -6.3342   -0.3367  -21.7254 N   0  0  0  0  0  0  0  0  0  0  0  0
   -7.7784    0.9664  -20.7739 N   0  0  0  0  0  0  0  0  0  0  0  0
   -8.4941    0.0893  -21.2701 C   0  0  0  0  0  0  0  0  0  0  0  0
  -10.4040   -0.7566  -21.1970 H   0  0  0  0  0  0  0  0  0  0  0  0
  -10.4755    0.9140  -21.0461 H   0  0  0  0  0  0  0  0  0  0  0  0
  -10.0541    0.2971  -22.6034 H   0  0  0  0  0  0  0  0  0  0  0  0
   -9.9203    0.1422  -21.5502 C   0  0  0  0  0  0  0  0  0  0  0  0
   -7.6260   -0.9477  -21.9680 C   0  0  0  0  0  0  0  0  0  0  0  0
   -7.7306   -1.9726  -22.6004 C   0  0  0  0  0  0  0  0  0  0  0  0
   -8.6319   -2.4030  -22.7126 N   0  0  0  0  0  0  0  0  0  0  0  0
   -6.1275   -2.5979  -23.1569 N   0  0  0  0  0  0  0  0  0  0  0  0
   -5.7946   -3.4740  -23.5919 C   0  0  3  0  0  0  0  0  0  0  0  0
   -6.3801   -3.4034  -24.4554 N   0  3  0  0  0  0  0  0  0  0  0  0
   -5.6359   -5.3375  -26.1286 N   0  0  0  0  0  0  0  0  0  0  0  0
   -5.1181   -5.3477  -25.2054 C   0  0  0  0  0  0  0  0  0  0  0  0
   -4.5488   -5.2849  -24.0248 C   0  0  0  0  0  0  0  0  0  0  0  0
   -4.6596   -4.5405  -23.1252 C   0  0  0  0  0  0  0  0  0  0  0  0
   -4.2548   -4.4244  -22.1915 H   0  0  0  0  0  0  0  0  0  0  0  0
   -4.5970    0.6519  -20.6832 H   0  0  0  0  0  0  0  0  0  0  0  0
   -5.4727   -0.7414  -22.0322 H   0  0  0  0  0  0  0  0  0  0  0  0
   -9.3541   -1.8849  -22.2542 H   0  0  0  0  0  0  0  0  0  0  0  0
   -6.5751   -4.0555  -23.0794 H   0  0  0  0  0  0  0  0  0  0  0  0
   -6.0048   -3.1309  -25.3413 H   0  0  0  0  0  0  0  0  0  0  0  0
   -3.8361   -6.0764  -23.8458 H   0  0  0  0  0  0  0  0  0  0  0  0
   -7.2019   -3.9554  -24.5970 H   0  0  0  0  0  0  0  0  0  0  0  0
 20 21  3  0  0  0  0
 21 22  1  0  0  0  0
 22 23  2  0  0  0  0
 18 19  1  0  0  0  0
 17 19  1  0  0  0  0
 18 23  1  0  0  0  0
 17 18  1  0  0  0  0
 23 24  1  0  0  0  0
 15 17  1  0  0  0  0
 15 16  2  0  0  0  0
 14 15  1  0  0  0  0
 12 13  1  0  0  0  0
  7 14  1  0  0  0  0
  9 14  2  0  0  0  0
  6  7  1  0  0  0  0
 10 13  1  0  0  0  0
  9 13  1  0  0  0  0
 11 13  1  0  0  0  0
  8  9  1  0  0  0  0
  6  8  2  0  0  0  0
  5  6  1  0  0  0  0
  2  5  1  0  0  0  0
  2  3  1  0  0  0  0
  1  2  1  0  0  0  0
  2  4  1  0  0  0  0
  5 25  1  0  0  0  0
  7 26  1  0  0  0  0
 16 27  1  0  0  0  0
 18 28  1  0  0  0  0
 19 29  1  0  0  0  0
 22 30  1  0  0  0  0
 19 31  1  0  0  0  0
M  CHG  1  19   1
M  END
> <Chemgauss4>
-6.293095

$$$$
