stable:False satoms:15 tatoms:24 sratio:0.625
  -OEChem-08062405203D

 31 32  0     1  0  0  0  0  0999 V2000
    3.3314    2.3997   19.7792 Cl  0  0  0  0  0  0  0  0  0  0  0  0
    5.1079    2.3504   19.9219 C   0  0  0  0  0  0  0  0  0  0  0  0
    5.4247    3.4181   20.2014 H   0  0  0  0  0  0  0  0  0  0  0  0
    5.5014    2.1366   18.8765 H   0  0  0  0  0  0  0  0  0  0  0  0
    5.4818    1.3992   20.9098 N   0  0  0  0  0  0  0  0  0  0  0  0
    6.6261    0.7521   21.1817 C   0  0  0  0  0  0  0  0  0  0  0  0
    6.5643   -0.3323   21.8128 N   0  0  0  0  0  0  0  0  0  0  0  0
    8.0085    0.9708   20.8613 N   0  0  0  0  0  0  0  0  0  0  0  0
    8.7242    0.0937   21.3575 C   0  0  0  0  0  0  0  0  0  0  0  0
   10.6341   -0.7522   21.2845 H   0  0  0  0  0  0  0  0  0  0  0  0
   10.7056    0.9185   21.1336 H   0  0  0  0  0  0  0  0  0  0  0  0
   10.2842    0.3016   22.6908 H   0  0  0  0  0  0  0  0  0  0  0  0
   10.1504    0.1466   21.6376 C   0  0  0  0  0  0  0  0  0  0  0  0
    7.8561   -0.9433   22.0555 C   0  0  0  0  0  0  0  0  0  0  0  0
    7.9607   -1.9682   22.6879 C   0  0  0  0  0  0  0  0  0  0  0  0
    8.8620   -2.3985   22.8000 N   0  0  0  0  0  0  0  0  0  0  0  0
    6.3577   -2.5934   23.2443 N   0  0  0  0  0  0  0  0  0  0  0  0
    6.0247   -3.4696   23.6794 C   0  0  3  0  0  0  0  0  0  0  0  0
    6.6102   -3.3990   24.5428 N   0  3  0  0  0  0  0  0  0  0  0  0
    5.8660   -5.3331   26.2160 N   0  0  0  0  0  0  0  0  0  0  0  0
    5.3482   -5.3433   25.2928 C   0  0  0  0  0  0  0  0  0  0  0  0
    4.7789   -5.2804   24.1122 C   0  0  0  0  0  0  0  0  0  0  0  0
    4.8897   -4.5361   23.2126 C   0  0  0  0  0  0  0  0  0  0  0  0
    4.4849   -4.4200   22.2790 H   0  0  0  0  0  0  0  0  0  0  0  0
    4.8271    0.6563   20.7706 H   0  0  0  0  0  0  0  0  0  0  0  0
    5.7028   -0.7369   22.1196 H   0  0  0  0  0  0  0  0  0  0  0  0
    9.5842   -1.8804   22.3417 H   0  0  0  0  0  0  0  0  0  0  0  0
    6.8052   -4.0510   23.1668 H   0  0  0  0  0  0  0  0  0  0  0  0
    6.2349   -3.1265   25.4288 H   0  0  0  0  0  0  0  0  0  0  0  0
    4.0662   -6.0719   23.9332 H   0  0  0  0  0  0  0  0  0  0  0  0
    7.4320   -3.9509   24.6845 H   0  0  0  0  0  0  0  0  0  0  0  0
 20 21  3  0  0  0  0
 21 22  1  0  0  0  0
 22 23  2  0  0  0  0
 18 19  1  0  0  0  0
 17 19  1  0  0  0  0
 18 23  1  0  0  0  0
 17 18  1  0  0  0  0
 23 24  1  0  0  0  0
 15 17  1  0  0  0  0
 15 16  2  0  0  0  0
 14 15  1  0  0  0  0
 12 13  1  0  0  0  0
  7 14  1  0  0  0  0
  9 14  2  0  0  0  0
  6  7  1  0  0  0  0
 10 13  1  0  0  0  0
  9 13  1  0  0  0  0
 11 13  1  0  0  0  0
  8  9  1  0  0  0  0
  6  8  2  0  0  0  0
  5  6  1  0  0  0  0
  2  5  1  0  0  0  0
  2  3  1  0  0  0  0
  1  2  1  0  0  0  0
  2  4  1  0  0  0  0
  5 25  1  0  0  0  0
  7 26  1  0  0  0  0
 16 27  1  0  0  0  0
 18 28  1  0  0  0  0
 19 29  1  0  0  0  0
 22 30  1  0  0  0  0
 19 31  1  0  0  0  0
M  CHG  1  19   1
M  END
> <Chemgauss4>
-6.254425

$$$$
