REMARK  1 active torsions:
REMARK  status: ('A' for Active; 'I' for Inactive)
REMARK    1  A    between atoms: C_9  and  C_14 
REMARK       I    between atoms: C_14  and  N_16 
ROOT
HETATM    1  C   UNL     2       9.993  -3.791  21.890  1.00  0.00     0.134 C 
HETATM    2  C   UNL     2       9.775  -3.034  23.003  1.00  0.00     0.195 A 
HETATM    3  O   UNL     2       9.042  -2.176  23.260  1.00  0.00    -0.216 OA
HETATM    4  N   UNL     2      10.190  -3.096  24.033  1.00  0.00    -0.235 N 
ATOM      5  HN  UNL     2      10.775  -3.431  24.798  1.00  0.00     0.197 HD
ENDROOT
BRANCH   1   6
HETATM    6  C   UNL     2      10.256  -5.050  21.606  1.00  0.00     0.243 C 
HETATM    7  O   UNL     2      10.123  -5.635  20.528  1.00  0.00    -0.269 OA
HETATM    8  N   UNL     2      10.668  -5.644  22.752  1.00  0.00    -0.367 N 
HETATM    9  H   UNL     2      10.668  -6.638  22.789  1.00  0.00     0.159 HD
HETATM   10  H   UNL     2      10.965  -5.116  23.521  1.00  0.00     0.159 HD
ENDBRANCH   1   6
TORSDOF 1
