stable:False satoms:20 tatoms:24 sratio:0.8333333333333334
  -OEChem-08062402323D

 27 27  0     1  0  0  0  0  0999 V2000
    8.7749    3.4280   24.4969 H   0  0  0  0  0  0  0  0  0  0  0  0
    9.6479    2.7424   24.4054 C   0  0  0  0  0  0  0  0  0  0  0  0
   11.2983    4.1153   24.2962 H   0  0  0  0  0  0  0  0  0  0  0  0
   10.9161    3.1141   24.1981 C   0  0  0  0  0  0  0  0  0  0  0  0
    8.9452    0.9613   23.7488 H   0  0  0  0  0  0  0  0  0  0  0  0
    9.6365    1.3721   24.4995 C   0  0  3  0  0  0  0  0  0  0  0  0
   11.6704   -0.5183   24.1257 C   0  0  3  0  0  0  0  0  0  0  0  0
   10.8236   -1.6124   24.0630 C   0  0  0  0  0  2  0  0  0  0  0  0
   12.7002    1.9346   23.5290 H   0  0  0  0  0  0  0  0  0  0  0  0
   13.0353   -0.7252   24.0856 C   0  0  0  0  0  0  0  0  0  0  0  0
   13.3024   -1.2274   23.1441 H   0  0  0  0  0  0  0  0  0  0  0  0
   13.5553    0.2423   24.1452 H   0  0  0  0  0  0  0  0  0  0  0  0
   11.0619    0.8097   24.2480 C   0  0  0  0  0  0  0  0  0  0  0  0
   11.7035    1.8922   23.9649 C   0  0  0  0  0  0  0  0  0  0  0  0
    9.1020   -3.6482   23.7168 O   0  0  0  0  0  0  0  0  0  0  0  0
    9.5701   -1.4913   23.6567 N   0  3  0  0  0  0  0  0  0  0  0  0
    8.8493   -2.4499   23.2129 C   0  0  0  0  0  2  0  0  0  0  0  0
    7.9418   -4.3222   24.0366 C   0  0  0  0  0  0  0  0  0  0  0  0
    8.0144   -5.0290   24.8184 H   0  0  0  0  0  0  0  0  0  0  0  0
    6.2104   -3.2936   23.5725 H   0  0  0  0  0  0  0  0  0  0  0  0
    6.5138   -4.7483   22.5732 H   0  0  0  0  0  0  0  0  0  0  0  0
    6.8588   -4.0922   23.3323 C   0  0  0  0  0  0  0  0  0  0  0  0
    9.3016    1.0791   25.5055 H   0  0  0  0  0  0  0  0  0  0  0  0
   11.6470   -0.4323   23.0293 H   0  0  0  0  0  0  0  0  0  0  0  0
   13.3356   -1.3557   24.9355 H   0  0  0  0  0  0  0  0  0  0  0  0
    9.5914   -0.8116   22.9236 H   0  0  0  0  0  0  0  0  0  0  0  0
    9.0700   -1.1215   24.4398 H   0  0  0  0  0  0  0  0  0  0  0  0
 18 19  1  0  0  0  0
 18 22  2  0  0  0  0
 15 18  1  0  0  0  0
 21 22  1  0  0  0  0
 20 22  1  0  0  0  0
 15 17  1  0  0  0  0
 16 17  1  0  0  0  0
  8 16  1  0  0  0  0
  7  8  1  0  0  0  0
 10 12  1  0  0  0  0
  7 10  1  0  0  0  0
  7 13  1  0  0  0  0
 10 11  1  0  0  0  0
  5  6  1  0  0  0  0
  6 13  1  0  0  0  0
 13 14  2  0  0  0  0
  2  6  1  0  0  0  0
  9 14  1  0  0  0  0
  4 14  1  0  0  0  0
  1  2  1  0  0  0  0
  2  4  2  0  0  0  0
  3  4  1  0  0  0  0
  6 23  1  0  0  0  0
  7 24  1  0  0  0  0
 10 25  1  0  0  0  0
 16 26  1  0  0  0  0
 16 27  1  0  0  0  0
M  CHG  1  16   1
M  END
> <Chemgauss4>
-6.482908

$$$$
