stable:False satoms:20 tatoms:24 sratio:0.8333333333333334
  -OEChem-08062402323D

 27 27  0     1  0  0  0  0  0999 V2000
  -13.0452   -2.7695  -22.8823 H   0  0  0  0  0  0  0  0  0  0  0  0
  -12.6809   -1.7386  -23.0946 C   0  0  0  0  0  0  0  0  0  0  0  0
  -13.8203   -1.2001  -24.8360 H   0  0  0  0  0  0  0  0  0  0  0  0
  -13.0112   -0.9953  -24.1566 C   0  0  0  0  0  0  0  0  0  0  0  0
  -10.8896   -1.5346  -22.1746 H   0  0  0  0  0  0  0  0  0  0  0  0
  -11.8318   -0.9861  -22.3203 C   0  0  3  0  0  0  0  0  0  0  0  0
  -10.6714    1.5253  -22.7637 C   0  0  3  0  0  0  0  0  0  0  0  0
   -9.7410    1.4227  -21.7429 C   0  0  0  0  0  2  0  0  0  0  0  0
  -12.0666    0.8505  -25.0067 H   0  0  0  0  0  0  0  0  0  0  0  0
  -10.7536    2.7044  -23.4783 C   0  0  0  0  0  0  0  0  0  0  0  0
   -9.7876    2.9067  -23.9639 H   0  0  0  0  0  0  0  0  0  0  0  0
  -11.5377    2.6153  -24.2447 H   0  0  0  0  0  0  0  0  0  0  0  0
  -11.5352    0.3688  -23.0188 C   0  0  0  0  0  0  0  0  0  0  0  0
  -12.1708    0.2132  -24.1302 C   0  0  0  0  0  0  0  0  0  0  0  0
   -7.8173    1.0485  -19.9023 O   0  0  0  0  0  0  0  0  0  0  0  0
   -9.2996    0.2461  -21.3285 N   0  3  0  0  0  0  0  0  0  0  0  0
   -8.2077    0.0582  -20.6901 C   0  0  0  0  0  2  0  0  0  0  0  0
   -7.3862    0.5858  -18.6766 C   0  0  0  0  0  0  0  0  0  0  0  0
   -7.4918    1.2524  -17.8639 H   0  0  0  0  0  0  0  0  0  0  0  0
   -7.4218   -1.4720  -18.4887 H   0  0  0  0  0  0  0  0  0  0  0  0
   -5.7847   -0.7479  -18.5392 H   0  0  0  0  0  0  0  0  0  0  0  0
   -6.8337   -0.6022  -18.6045 C   0  0  0  0  0  0  0  0  0  0  0  0
  -12.3010   -0.7971  -21.3435 H   0  0  0  0  0  0  0  0  0  0  0  0
   -9.9333    1.1372  -23.4810 H   0  0  0  0  0  0  0  0  0  0  0  0
  -11.0009    3.5304  -22.7953 H   0  0  0  0  0  0  0  0  0  0  0  0
   -9.2283   -0.3175  -22.1515 H   0  0  0  0  0  0  0  0  0  0  0  0
  -10.0203   -0.1165  -20.7376 H   0  0  0  0  0  0  0  0  0  0  0  0
 18 19  1  0  0  0  0
 18 22  2  0  0  0  0
 15 18  1  0  0  0  0
 21 22  1  0  0  0  0
 20 22  1  0  0  0  0
 15 17  1  0  0  0  0
 16 17  1  0  0  0  0
  8 16  1  0  0  0  0
  7  8  1  0  0  0  0
 10 12  1  0  0  0  0
  7 10  1  0  0  0  0
  7 13  1  0  0  0  0
 10 11  1  0  0  0  0
  5  6  1  0  0  0  0
  6 13  1  0  0  0  0
 13 14  2  0  0  0  0
  2  6  1  0  0  0  0
  9 14  1  0  0  0  0
  4 14  1  0  0  0  0
  1  2  1  0  0  0  0
  2  4  2  0  0  0  0
  3  4  1  0  0  0  0
  6 23  1  0  0  0  0
  7 24  1  0  0  0  0
 10 25  1  0  0  0  0
 16 26  1  0  0  0  0
 16 27  1  0  0  0  0
M  CHG  1  16   1
M  END
> <Chemgauss4>
-6.559474

$$$$
