REMARK  5 active torsions:
REMARK  status: ('A' for Active; 'I' for Inactive)
REMARK    1  A    between atoms: C_1  and  S_3 
REMARK    2  A    between atoms: S_3  and  C_5 
REMARK    3  A    between atoms: C_4  and  O_8 
REMARK    4  A    between atoms: C_5  and  C_6 
REMARK    5  A    between atoms: C_6  and  C_7 
ROOT
HETATM    1  C   UNL     2      12.445  -0.099  23.637  1.00  0.00     0.000 C 
ENDROOT
TORSDOF 5
