stable:False satoms:15 tatoms:24 sratio:0.625
  -OEChem-07092417433D

 24 24  0     1  0  0  0  0  0999 V2000
    6.7424   -4.9706   26.4477 O   0  0  0  0  0  0  0  0  0  0  0  0
    8.2202   -4.4360   26.1437 S   0  0  0  0  0  0  0  0  0  0  0  0
    9.1472   -5.5628   26.0818 O   0  0  0  0  0  0  0  0  0  0  0  0
    8.6555   -3.4792   27.1335 O   0  5  0  0  0  0  0  0  0  0  0  0
    8.1128   -3.7335   24.6677 N   0  0  0  0  0  0  0  0  0  0  0  0
    8.9245   -2.9558   24.1442 C   0  0  0  0  0  0  0  0  0  0  0  0
    9.5078   -2.1380   23.5977 C   0  0  0  0  0  0  0  0  0  0  0  0
   10.3566   -1.1912   23.0556 C   0  0  3  0  0  0  0  0  0  0  0  0
   11.4143    0.3281   24.5287 H   0  0  0  0  0  0  0  0  0  0  0  0
   12.2147   -0.1090   23.9444 C   0  0  0  0  0  0  0  0  0  0  0  0
   13.2504    0.1641   23.9421 H   0  0  0  0  0  0  0  0  0  0  0  0
   12.5083   -1.7103   22.5940 H   0  0  0  0  0  0  0  0  0  0  0  0
   11.8007   -1.1437   23.1202 C   0  0  0  0  0  0  0  0  0  0  0  0
    9.8938   -0.2711   22.3855 N   0  0  0  0  0  0  0  0  0  0  0  0
    9.1097    0.1060   21.3387 C   0  0  0  0  0  0  0  0  0  0  0  0
    9.5074    1.0516   20.6796 O   0  0  0  0  0  0  0  0  0  0  0  0
    7.9718   -0.6060   21.2127 N   0  0  0  0  0  0  0  0  0  0  0  0
    7.2539   -0.1015   20.2199 C   0  0  0  0  0  0  0  0  0  0  0  0
    7.2503   -0.0201   18.9570 C   0  0  0  0  0  0  0  0  0  0  0  0
    6.4958    0.3437   17.9388 N   0  0  0  0  0  0  0  0  0  0  0  0
    5.5802    0.6989   18.7496 C   0  0  0  0  0  0  0  0  0  0  0  0
    4.6116    1.0750   18.5621 H   0  0  0  0  0  0  0  0  0  0  0  0
    5.8697    0.5363   20.2126 C   0  0  0  0  0  0  0  0  0  0  0  0
    5.1842    0.8349   21.6390 Cl  0  0  0  0  0  0  0  0  0  0  0  0
 20 21  1  0  0  0  0
 19 20  1  0  0  0  0
 21 22  1  0  0  0  0
 21 23  2  0  0  0  0
 18 19  2  0  0  0  0
 18 23  1  0  0  0  0
 23 24  1  0  0  0  0
 17 18  1  0  0  0  0
 15 16  2  0  0  0  0
 15 17  1  0  0  0  0
 14 15  1  0  0  0  0
  8 14  1  0  0  0  0
 12 13  1  0  0  0  0
  8 13  1  0  0  0  0
  7  8  1  0  0  0  0
 10 13  2  0  0  0  0
  6  7  3  0  0  0  0
 10 11  1  0  0  0  0
  9 10  1  0  0  0  0
  5  6  1  0  0  0  0
  2  5  1  0  0  0  0
  2  3  2  0  0  0  0
  1  2  2  0  0  0  0
  2  4  1  0  0  0  0
M  CHG  1   4  -1
M  END
> <Shapegauss>
-239.198181

$$$$
