stable:False satoms:15 tatoms:24 sratio:0.625
  -OEChem-08062410243D

 30 30  0     1  0  0  0  0  0999 V2000
    6.6782   -5.5078   26.0299 O   0  0  0  0  0  0  0  0  0  0  0  0
    8.1545   -4.9363   25.7931 S   0  0  0  0  0  0  0  0  0  0  0  0
    9.0921   -6.0456   25.6407 O   0  0  0  0  0  0  0  0  0  0  0  0
    8.5702   -4.0695   26.8703 O   0  5  0  0  0  0  0  0  0  0  0  0
    8.0573   -4.1041   24.3853 N   0  0  0  0  0  0  0  0  0  0  0  0
    8.8678   -3.2759   23.9439 C   0  0  0  0  0  0  0  0  0  0  0  0
    9.4499   -2.4075   23.4805 C   0  0  0  0  0  0  0  0  0  0  0  0
   10.2962   -1.4089   23.0363 C   0  0  3  0  0  0  0  0  0  0  0  0
   11.3238   -0.0207   24.6530 H   0  0  0  0  0  0  0  0  0  0  0  0
   12.1345   -0.3969   24.0413 C   0  0  0  0  0  0  0  0  0  0  0  0
   13.1677   -0.1166   24.0760 H   0  0  0  0  0  0  0  0  0  0  0  0
   12.4574   -1.8672   22.5554 H   0  0  0  0  0  0  0  0  0  0  0  0
   11.7390   -1.3561   23.1221 C   0  0  0  0  0  0  0  0  0  0  0  0
    9.8327   -0.4357   22.4465 N   0  0  0  0  0  0  0  0  0  0  0  0
    9.0570    0.0283   21.4288 C   0  0  0  0  0  0  0  0  0  0  0  0
    9.4536    1.0327   20.8625 O   0  0  0  0  0  0  0  0  0  0  0  0
    7.9270   -0.6783   21.2254 N   0  0  0  0  0  0  0  0  0  0  0  0
    7.2157   -0.0918   20.2738 C   0  0  0  0  0  0  0  0  0  0  0  0
    7.2255    0.1034   19.0234 C   0  0  0  0  0  0  0  0  0  0  0  0
    6.4792    0.5518   18.0333 N   0  0  0  0  0  0  0  0  0  0  0  0
    5.5515    0.8250   18.8619 C   0  0  0  0  0  0  0  0  0  0  0  0
    4.5817    1.2089   18.6976 H   0  0  0  0  0  0  0  0  0  0  0  0
    5.8261    0.5331   20.3076 C   0  0  0  0  0  0  0  0  0  0  0  0
    5.1220    0.6961   21.7468 Cl  0  0  0  0  0  0  0  0  0  0  0  0
    7.1897   -3.6098   24.4394 H   0  0  0  0  0  0  0  0  0  0  0  0
   10.2070   -0.8862   24.0000 H   0  0  0  0  0  0  0  0  0  0  0  0
   10.1774    0.3716   22.9256 H   0  0  0  0  0  0  0  0  0  0  0  0
    7.6674   -1.5112   21.7143 H   0  0  0  0  0  0  0  0  0  0  0  0
    8.1817   -0.2064   18.6284 H   0  0  0  0  0  0  0  0  0  0  0  0
    6.5939    0.6404   17.0439 H   0  0  0  0  0  0  0  0  0  0  0  0
 20 21  1  0  0  0  0
 19 20  1  0  0  0  0
 21 22  1  0  0  0  0
 21 23  2  0  0  0  0
 18 19  2  0  0  0  0
 18 23  1  0  0  0  0
 23 24  1  0  0  0  0
 17 18  1  0  0  0  0
 15 16  2  0  0  0  0
 15 17  1  0  0  0  0
 14 15  1  0  0  0  0
  8 14  1  0  0  0  0
 12 13  1  0  0  0  0
  8 13  1  0  0  0  0
  7  8  1  0  0  0  0
 10 13  2  0  0  0  0
  6  7  3  0  0  0  0
 10 11  1  0  0  0  0
  9 10  1  0  0  0  0
  5  6  1  0  0  0  0
  2  5  1  0  0  0  0
  2  3  2  0  0  0  0
  1  2  2  0  0  0  0
  2  4  1  0  0  0  0
  5 25  1  0  0  0  0
  8 26  1  0  0  0  0
 14 27  1  0  0  0  0
 17 28  1  0  0  0  0
 19 29  1  0  0  0  0
 20 30  1  0  0  0  0
M  CHG  1   4  -1
M  END
> <Chemgauss4>
-6.720755

$$$$
