REMARK  2 active torsions:
REMARK  status: ('A' for Active; 'I' for Inactive)
REMARK    1  A    between atoms: O_7  and  C_11 
REMARK    2  A    between atoms: O_8  and  S_17 
ROOT
HETATM    1  N   UNL     1      12.579   0.077  23.281  1.00  0.00     0.072 N 
HETATM    2  H   UNL     1      12.649  -0.891  23.464  1.00  0.00     0.309 HD
HETATM    3  H   UNL     1      12.170   0.509  24.081  1.00  0.00     0.309 HD
HETATM    4  H   UNL     1      12.273   0.369  22.409  1.00  0.00     0.309 HD
ENDROOT
TORSDOF 2
