stable:False satoms:20 tatoms:24 sratio:0.8333333333333334
  -OEChem-08052417303D

 28 30  0     1  0  0  0  0  0999 V2000
   -9.6420    4.9149  -23.9271 C   0  0  2  0  0  0  0  0  0  0  0  0
  -12.0357   -0.6038  -23.6961 C   0  0  0  0  0  0  0  0  0  0  0  0
  -13.2248    5.4761  -23.7857 O   0  0  0  0  0  0  0  0  0  0  0  0
   -9.5675    6.1306  -25.8794 N   0  0  0  0  0  0  0  0  0  0  0  0
  -11.0268   -1.0144  -24.5254 C   0  0  0  0  0  0  0  0  0  0  0  0
  -10.4676    1.2028  -24.3507 C   0  0  0  0  0  0  0  0  0  0  0  0
   -8.0186    5.4338  -25.0645 H   0  0  0  0  0  0  0  0  0  0  0  0
  -11.5828    3.7088  -23.2847 C   0  0  0  0  0  0  0  0  0  0  0  0
  -10.9628    5.6556  -24.2484 N   0  0  0  0  0  0  0  0  0  0  0  0
   -9.3305   -0.1013  -25.6336 H   0  0  0  0  0  0  0  0  0  0  0  0
  -12.3634    3.0658  -23.7187 H   0  0  0  0  0  0  0  0  0  0  0  0
   -8.9693    5.1726  -25.2318 N   0  3  0  0  0  0  0  0  0  0  0  0
   -9.7300    2.4884  -24.5150 C   0  0  0  0  0  0  0  0  0  0  0  0
  -10.1467    0.0412  -24.9458 C   0  0  0  0  0  0  0  0  0  0  0  0
  -10.2569    3.5889  -23.8680 N   0  0  0  0  0  0  0  0  0  0  0  0
  -11.8179    7.7270  -25.7089 Cl  0  0  0  0  0  0  0  0  0  0  0  0
  -10.7537    6.4548  -25.2467 C   0  0  3  0  0  0  0  0  0  0  0  0
  -12.1005    5.0618  -23.7640 C   0  0  0  0  0  0  0  0  0  0  0  0
  -12.8668   -1.1969  -23.3501 H   0  0  0  0  0  0  0  0  0  0  0  0
   -9.0011    5.2578  -22.9370 O   0  0  0  0  0  0  0  0  0  0  0  0
  -11.8791    0.9827  -23.2659 S   0  0  0  0  0  0  0  0  0  0  0  0
   -8.7333    2.5632  -25.1985 O   0  0  0  0  0  0  0  0  0  0  0  0
  -10.9291   -2.0361  -24.8387 H   0  0  0  0  0  0  0  0  0  0  0  0
  -11.4979    3.5528  -22.2081 H   0  0  0  0  0  0  0  0  0  0  0  0
   -9.7609    5.8296  -26.8132 H   0  0  0  0  0  0  0  0  0  0  0  0
  -10.2133    7.1458  -24.5830 H   0  0  0  0  0  0  0  0  0  0  0  0
   -8.2202    4.7218  -22.8635 H   0  0  0  0  0  0  0  0  0  0  0  0
   -8.9937    4.3389  -25.7835 H   0  0  0  0  0  0  0  0  0  0  0  0
  3 18  2  0  0  0  0
  2 19  1  0  0  0  0
  8 11  1  0  0  0  0
  8 18  1  0  0  0  0
  9 18  1  0  0  0  0
  2 21  1  0  0  0  0
  2  5  2  0  0  0  0
  6 21  1  0  0  0  0
 16 17  1  0  0  0  0
  8 24  1  0  0  0  0
  8 15  1  0  0  0  0
  9 17  1  0  0  0  0
  1  9  1  0  0  0  0
  5 23  1  0  0  0  0
  5 14  1  0  0  0  0
  4 17  1  0  0  0  0
  6 14  2  0  0  0  0
  6 13  1  0  0  0  0
 13 15  1  0  0  0  0
  1 15  1  0  0  0  0
 10 14  1  0  0  0  0
 13 22  2  0  0  0  0
  1 20  1  0  0  0  0
  1 12  1  0  0  0  0
  4 12  1  0  0  0  0
  7 12  1  0  0  0  0
  4 25  1  0  0  0  0
 17 26  1  0  0  0  0
 20 27  1  0  0  0  0
 12 28  1  0  0  0  0
M  CHG  1  12   1
M  END
> <Chemgauss4>
-5.811746

$$$$
