stable:False satoms:20 tatoms:24 sratio:0.8333333333333334
  -OEChem-08052417303D

 28 30  0     1  0  0  0  0  0999 V2000
    9.1032    4.3928   23.8498 C   0  0  2  0  0  0  0  0  0  0  0  0
   12.5214   -0.5469   24.2432 C   0  0  0  0  0  0  0  0  0  0  0  0
   12.4915    5.6485   24.1879 O   0  0  0  0  0  0  0  0  0  0  0  0
    8.5066    5.6134   25.7070 N   0  0  0  0  0  0  0  0  0  0  0  0
   11.4985   -1.1302   24.9415 C   0  0  0  0  0  0  0  0  0  0  0  0
   10.5554    0.9280   24.5759 C   0  0  0  0  0  0  0  0  0  0  0  0
    7.2595    4.6057   24.7181 H   0  0  0  0  0  0  0  0  0  0  0  0
   11.3133    3.5804   23.5511 C   0  0  0  0  0  0  0  0  0  0  0  0
   10.1940    5.3873   24.3162 N   0  0  0  0  0  0  0  0  0  0  0  0
    9.5126   -0.5461   25.7504 H   0  0  0  0  0  0  0  0  0  0  0  0
   12.1297    3.1146   24.1235 H   0  0  0  0  0  0  0  0  0  0  0  0
    8.2070    4.5416   25.0314 N   0  3  0  0  0  0  0  0  0  0  0  0
    9.5681    2.0456   24.5680 C   0  0  0  0  0  0  0  0  0  0  0  0
   10.3792   -0.2604   25.1785 C   0  0  0  0  0  0  0  0  0  0  0  0
    9.9636    3.2136   23.9465 N   0  0  0  0  0  0  0  0  0  0  0  0
   10.4076    7.6193   25.7747 Cl  0  0  0  0  0  0  0  0  0  0  0  0
    9.6889    6.1516   25.2326 C   0  0  3  0  0  0  0  0  0  0  0  0
   11.4838    5.0196   24.0287 C   0  0  0  0  0  0  0  0  0  0  0  0
   13.4932   -0.9714   24.0491 H   0  0  0  0  0  0  0  0  0  0  0  0
    8.5628    4.5796   22.7628 O   0  0  0  0  0  0  0  0  0  0  0  0
   12.1282    0.9672   23.7144 S   0  0  0  0  0  0  0  0  0  0  0  0
    8.4853    1.9370   25.0990 O   0  0  0  0  0  0  0  0  0  0  0  0
   11.5538   -2.1437   25.2898 H   0  0  0  0  0  0  0  0  0  0  0  0
   11.4212    3.3864   22.4827 H   0  0  0  0  0  0  0  0  0  0  0  0
    8.6133    5.3778   26.6730 H   0  0  0  0  0  0  0  0  0  0  0  0
    9.1304    6.7069   24.4646 H   0  0  0  0  0  0  0  0  0  0  0  0
    7.9194    3.8981   22.6072 H   0  0  0  0  0  0  0  0  0  0  0  0
    8.3091    3.7419   25.6230 H   0  0  0  0  0  0  0  0  0  0  0  0
  3 18  2  0  0  0  0
  2 19  1  0  0  0  0
  8 11  1  0  0  0  0
  8 18  1  0  0  0  0
  9 18  1  0  0  0  0
  2 21  1  0  0  0  0
  2  5  2  0  0  0  0
  6 21  1  0  0  0  0
 16 17  1  0  0  0  0
  8 24  1  0  0  0  0
  8 15  1  0  0  0  0
  9 17  1  0  0  0  0
  1  9  1  0  0  0  0
  5 23  1  0  0  0  0
  5 14  1  0  0  0  0
  4 17  1  0  0  0  0
  6 14  2  0  0  0  0
  6 13  1  0  0  0  0
 13 15  1  0  0  0  0
  1 15  1  0  0  0  0
 10 14  1  0  0  0  0
 13 22  2  0  0  0  0
  1 20  1  0  0  0  0
  1 12  1  0  0  0  0
  4 12  1  0  0  0  0
  7 12  1  0  0  0  0
  4 25  1  0  0  0  0
 17 26  1  0  0  0  0
 20 27  1  0  0  0  0
 12 28  1  0  0  0  0
M  CHG  1  12   1
M  END
> <Chemgauss4>
-5.814179

$$$$
