stable:False satoms:18 tatoms:24 sratio:0.75
  -OEChem-07092417283D

 24 25  0     1  0  0  0  0  0999 V2000
    6.4817    0.8664   21.8755 H   0  0  0  0  0  0  0  0  0  0  0  0
    5.6437   -0.8395   20.7540 C   0  0  2  0  0  0  0  0  0  0  0  0
    9.9038   -3.3362   24.0981 C   0  0  0  0  0  0  0  0  0  0  0  0
   11.0840   -0.9528   23.6618 C   0  0  0  0  0  0  0  0  0  0  0  0
    9.4279   -4.2932   24.2482 H   0  0  0  0  0  0  0  0  0  0  0  0
   11.7883   -1.8669   24.3205 N   0  0  0  0  0  0  0  0  0  0  0  0
    4.9664    1.3030   21.0324 H   0  0  0  0  0  0  0  0  0  0  0  0
    9.2394   -2.2974   23.4690 C   0  0  0  0  0  0  0  0  0  0  0  0
    7.5118   -1.4999   22.0097 C   0  3  0  0  0  0  0  0  0  0  0  0
   11.8439   -3.8120   24.9053 H   0  0  0  0  0  0  0  0  0  0  0  0
    6.5181   -1.7987   21.1645 O   0  0  0  0  0  0  0  0  0  0  0  0
    6.2166    0.2577   19.7651 O   0  3  1  0  0  0  0  0  0  0  0  0
   11.5778    1.0564   24.1158 H   0  0  0  0  0  0  0  0  0  0  0  0
   11.2137   -3.0539   24.4765 C   0  0  0  0  0  0  0  0  0  0  0  0
    7.0005   -0.1582   19.3735 H   0  0  0  0  0  0  0  0  0  0  0  0
    7.8362   -2.4723   22.9834 C   0  0  0  0  0  0  0  0  0  0  0  0
    4.6818   -1.2385   20.5357 H   0  0  0  0  0  0  0  0  0  0  0  0
    9.8251   -1.1242   23.2740 N   0  0  0  0  0  0  0  0  0  0  0  0
   12.8100    0.2159   23.1636 H   0  0  0  0  0  0  0  0  0  0  0  0
    8.0762   -0.5814   21.9644 H   0  0  0  0  0  0  0  0  0  0  0  0
   11.7343    0.3471   23.3191 C   0  0  0  0  0  0  0  0  0  0  0  0
   11.2865    0.7181   22.3989 H   0  0  0  0  0  0  0  0  0  0  0  0
    7.0847   -3.3611   23.3625 O   0  0  0  0  0  0  0  0  0  0  0  0
    5.8316    0.6316   21.0251 C   0  0  0  0  0  0  0  0  0  0  0  0
 12 15  1  0  0  0  0
  2 12  1  0  0  0  0
 12 24  1  0  0  0  0
  2 17  1  0  0  0  0
  2 24  1  0  0  0  0
  2 11  1  0  0  0  0
  7 24  1  0  0  0  0
  1 24  1  0  0  0  0
  9 11  1  0  0  0  0
  9 20  1  0  0  0  0
  9 16  1  0  0  0  0
 21 22  1  0  0  0  0
 16 23  2  0  0  0  0
  8 16  1  0  0  0  0
 19 21  1  0  0  0  0
  8 18  2  0  0  0  0
  4 18  1  0  0  0  0
  4 21  1  0  0  0  0
 13 21  1  0  0  0  0
  3  8  1  0  0  0  0
  4  6  2  0  0  0  0
  3  5  1  0  0  0  0
  3 14  2  0  0  0  0
  6 14  1  0  0  0  0
 10 14  1  0  0  0  0
M  CHG  2   9   1  12   1
M  END
> <Shapegauss>
-123.147552

$$$$
