stable:False satoms:18 tatoms:24 sratio:0.75
  -OEChem-08052417223D

 22 23  0     1  0  0  0  0  0999 V2000
    6.8137    0.5782   22.4075 H   0  0  0  0  0  0  0  0  0  0  0  0
    7.0544   -0.4351   20.4619 C   0  0  2  0  0  0  0  0  0  0  0  0
   12.2761   -1.3913   23.1794 C   0  0  0  0  0  0  0  0  0  0  0  0
   11.7419    1.0500   24.1884 C   0  0  0  0  0  0  0  0  0  0  0  0
   12.4864   -2.3600   22.7523 H   0  0  0  0  0  0  0  0  0  0  0  0
   12.9162    0.5100   24.4965 N   0  0  0  0  0  0  0  0  0  0  0  0
    5.2622    0.4465   21.5283 H   0  0  0  0  0  0  0  0  0  0  0  0
   11.0619   -0.7625   22.9637 C   0  0  0  0  0  0  0  0  0  0  0  0
    9.0625   -0.4628   21.6742 C   0  0  0  0  0  2  0  0  0  0  0  0
   14.1848   -1.0296   24.1109 H   0  0  0  0  0  0  0  0  0  0  0  0
    8.3654   -0.7831   20.5776 O   0  0  0  0  0  0  0  0  0  0  0  0
    6.7513    1.1068   20.2601 O   0  0  1  0  0  0  0  0  0  0  0  0
   10.9777    2.4094   25.6219 H   0  0  0  0  0  0  0  0  0  0  0  0
   13.1864   -0.6673   23.9448 C   0  0  0  0  0  0  0  0  0  0  0  0
   10.0022   -1.4138   22.1341 C   0  0  0  0  0  0  0  0  0  0  0  0
    6.5068   -1.1226   19.8622 H   0  0  0  0  0  0  0  0  0  0  0  0
   10.8047    0.4319   23.4784 N   0  0  0  0  0  0  0  0  0  0  0  0
   12.3622    3.0332   24.7133 H   0  0  0  0  0  0  0  0  0  0  0  0
   11.4451    2.4386   24.6508 C   0  0  0  0  0  0  0  0  0  0  0  0
   10.7729    2.8999   23.9294 H   0  0  0  0  0  0  0  0  0  0  0  0
    9.9762   -2.6085   21.8686 O   0  0  0  0  0  0  0  0  0  0  0  0
    6.3507    0.4944   21.4178 C   0  0  0  0  0  0  0  0  0  0  0  0
  2 12  1  0  0  0  0
 12 22  1  0  0  0  0
  2 16  1  0  0  0  0
  2 22  1  0  0  0  0
  2 11  1  0  0  0  0
  7 22  1  0  0  0  0
  1 22  1  0  0  0  0
  9 11  1  0  0  0  0
  9 15  1  0  0  0  0
 19 20  1  0  0  0  0
 15 21  2  0  0  0  0
  8 15  1  0  0  0  0
 18 19  1  0  0  0  0
  8 17  2  0  0  0  0
  4 17  1  0  0  0  0
  4 19  1  0  0  0  0
 13 19  1  0  0  0  0
  3  8  1  0  0  0  0
  4  6  2  0  0  0  0
  3  5  1  0  0  0  0
  3 14  2  0  0  0  0
  6 14  1  0  0  0  0
 10 14  1  0  0  0  0
M  END
> <Chemgauss4>
-5.597131

$$$$
