stable:False satoms:18 tatoms:24 sratio:0.75
  -OEChem-08052417223D

 22 23  0     1  0  0  0  0  0999 V2000
   -6.7782    0.9965  -22.4281 H   0  0  0  0  0  0  0  0  0  0  0  0
   -6.7192   -0.4793  -20.7884 C   0  0  2  0  0  0  0  0  0  0  0  0
  -11.9444   -1.5692  -23.4482 C   0  0  0  0  0  0  0  0  0  0  0  0
  -11.8463    1.0958  -23.8375 C   0  0  0  0  0  0  0  0  0  0  0  0
  -11.9796   -2.6328  -23.2680 H   0  0  0  0  0  0  0  0  0  0  0  0
  -12.9512    0.4667  -24.2234 N   0  0  0  0  0  0  0  0  0  0  0  0
   -5.1604    0.9048  -21.6720 H   0  0  0  0  0  0  0  0  0  0  0  0
  -10.8200   -0.8265  -23.1311 C   0  0  0  0  0  0  0  0  0  0  0  0
   -8.7904   -0.5326  -21.8883 C   0  0  0  0  0  2  0  0  0  0  0  0
  -13.9518   -1.3012  -24.1834 H   0  0  0  0  0  0  0  0  0  0  0  0
   -7.9716   -0.9924  -20.9348 O   0  0  0  0  0  0  0  0  0  0  0  0
   -6.6259    0.9970  -20.2210 O   0  0  1  0  0  0  0  0  0  0  0  0
  -11.3989    2.8630  -24.9163 H   0  0  0  0  0  0  0  0  0  0  0  0
  -13.0059   -0.8361  -23.9721 C   0  0  0  0  0  0  0  0  0  0  0  0
   -9.6166   -1.4817  -22.5329 C   0  0  0  0  0  0  0  0  0  0  0  0
   -6.0337   -1.1950  -20.4012 H   0  0  0  0  0  0  0  0  0  0  0  0
  -10.7778    0.4816  -23.3418 N   0  0  0  0  0  0  0  0  0  0  0  0
  -12.7838    3.0230  -23.8265 H   0  0  0  0  0  0  0  0  0  0  0  0
  -11.7888    2.5838  -23.9507 C   0  0  0  0  0  0  0  0  0  0  0  0
  -11.1359    2.9587  -23.1645 H   0  0  0  0  0  0  0  0  0  0  0  0
   -9.3988   -2.6856  -22.5748 O   0  0  0  0  0  0  0  0  0  0  0  0
   -6.2326    0.7519  -21.5097 C   0  0  0  0  0  0  0  0  0  0  0  0
  2 12  1  0  0  0  0
 12 22  1  0  0  0  0
  2 16  1  0  0  0  0
  2 22  1  0  0  0  0
  2 11  1  0  0  0  0
  7 22  1  0  0  0  0
  1 22  1  0  0  0  0
  9 11  1  0  0  0  0
  9 15  1  0  0  0  0
 19 20  1  0  0  0  0
 15 21  2  0  0  0  0
  8 15  1  0  0  0  0
 18 19  1  0  0  0  0
  8 17  2  0  0  0  0
  4 17  1  0  0  0  0
  4 19  1  0  0  0  0
 13 19  1  0  0  0  0
  3  8  1  0  0  0  0
  4  6  2  0  0  0  0
  3  5  1  0  0  0  0
  3 14  2  0  0  0  0
  6 14  1  0  0  0  0
 10 14  1  0  0  0  0
M  END
> <Chemgauss4>
-5.586581

$$$$
