stable:False satoms:7 tatoms:24 sratio:0.2916666666666667
  -OEChem-07092417473D

 24 24  0     0  0  0  0  0  0999 V2000
    6.5665   -4.8231   26.4761 C   0  0  0  0  0  0  0  0  0  0  0  0
    8.2689   -4.2750   26.1344 S   0  0  0  0  0  0  0  0  0  0  0  0
    9.0695   -5.4395   26.0446 O   0  0  0  0  0  0  0  0  0  0  0  0
    8.5960   -3.3802   27.1815 O   0  0  0  0  0  0  0  0  0  0  0  0
    8.1127   -3.5464   24.6948 N   0  0  0  0  0  0  0  0  0  0  0  0
    8.9699   -2.9277   24.1751 C   0  0  0  0  0  0  0  0  0  0  0  0
    9.4379   -2.0204   23.5870 C   0  0  0  0  0  0  0  0  0  0  0  0
   10.0958   -1.0319   23.3503 C   0  0  0  0  0  0  0  0  0  0  0  0
   11.0229   -0.0005   24.2561 C   0  0  0  0  0  0  0  0  0  0  0  0
   12.0209    0.2488   24.2195 C   0  0  0  0  0  0  0  0  0  0  0  0
   13.0542   -0.3331   23.3821 C   0  0  0  0  0  0  0  0  0  0  0  0
   12.7127   -1.2348   22.6850 C   0  0  0  0  0  0  0  0  0  0  0  0
   12.0352   -1.8797   22.3357 C   0  0  0  0  0  0  0  0  0  0  0  0
    9.7374   -0.5518   22.3164 C   0  0  0  0  0  0  0  0  0  0  0  0
    9.0825    0.0615   21.3562 C   0  0  0  0  0  0  0  0  0  0  0  0
    9.5583    0.9990   20.9178 O   0  0  0  0  0  0  0  0  0  0  0  0
    7.9196   -0.5613   21.0953 N   0  0  0  0  0  0  0  0  0  0  0  0
    7.2304   -0.0737   20.1940 C   0  0  0  0  0  0  0  0  0  0  0  0
    7.2535    0.0030   18.8657 C   0  0  0  0  0  0  0  0  0  0  0  0
    6.7540    0.3265   17.7782 N   0  0  0  0  0  0  0  0  0  0  0  0
    5.6896    0.8690   18.2943 C   0  0  0  0  0  0  0  0  0  0  0  0
    5.2990    0.9685   19.3773 C   0  0  0  0  0  0  0  0  0  0  0  0
    5.8399    0.5813   20.5231 C   0  0  0  0  0  0  0  0  0  0  0  0
    5.2570    0.7314   22.0564 Br  0  0  0  0  0  0  0  0  0  0  0  0
 20 21  2  0  0  0  0
 19 20  1  0  0  0  0
 21 22  1  0  0  0  0
 18 19  2  0  0  0  0
 22 23  2  0  0  0  0
 18 23  1  0  0  0  0
 17 18  1  0  0  0  0
 23 24  1  0  0  0  0
 15 16  2  0  0  0  0
 15 17  1  0  0  0  0
 14 15  1  0  0  0  0
  8 14  2  3  0  0  0
 12 13  2  0  0  0  0
 11 12  1  0  0  0  0
  7  8  1  0  0  0  0
  8  9  1  0  0  0  0
 10 11  1  0  0  0  0
  6  7  3  0  0  0  0
  5  6  1  0  0  0  0
  9 10  2  0  0  0  0
  2  5  1  0  0  0  0
  2  3  2  0  0  0  0
  1  2  1  0  0  0  0
  2  4  2  0  0  0  0
M  END
> <Shapegauss>
-284.874542

$$$$
