stable:False satoms:7 tatoms:24 sratio:0.2916666666666667
  -OEChem-08062414023D

 40 40  0     0  0  0  0  0  0999 V2000
    6.0769   -5.0567   25.9884 C   0  0  0  0  0  0  0  0  0  0  0  0
    7.8135   -4.5210   25.8769 S   0  0  0  0  0  0  0  0  0  0  0  0
    8.6054   -5.6927   25.8064 O   0  0  0  0  0  0  0  0  0  0  0  0
    8.0290   -3.6974   27.0080 O   0  0  0  0  0  0  0  0  0  0  0  0
    7.8317   -3.7039   24.4770 N   0  0  0  0  0  0  0  0  0  0  0  0
    8.7499   -3.0711   24.0975 C   0  0  0  0  0  0  0  0  0  0  0  0
    9.2927   -2.1388   23.6239 C   0  0  0  0  0  0  0  0  0  0  0  0
    9.9849   -1.1503   23.5253 C   0  0  0  0  0  0  0  0  0  0  0  0
   10.8143   -0.1931   24.5929 C   0  0  0  0  0  0  0  0  0  0  0  0
   11.8127    0.0392   24.6854 C   0  0  0  0  0  0  0  0  0  0  0  0
   12.9282   -0.5102   23.9362 C   0  0  0  0  0  0  0  0  0  0  0  0
   12.6582   -1.3616   23.1501 C   0  0  0  0  0  0  0  0  0  0  0  0
   12.0177   -1.9714   22.6867 C   0  0  0  0  0  0  0  0  0  0  0  0
    9.7529   -0.6020   22.4893 C   0  0  0  0  0  0  0  0  0  0  0  0
    9.2194    0.0804   21.5009 C   0  0  0  0  0  0  0  0  0  0  0  0
    9.7532    1.0336   21.1785 O   0  0  0  0  0  0  0  0  0  0  0  0
    8.0868   -0.5036   21.0715 N   0  0  0  0  0  0  0  0  0  0  0  0
    7.5111    0.0504   20.1298 C   0  0  0  0  0  0  0  0  0  0  0  0
    7.6870    0.2068   18.8201 C   0  0  0  0  0  0  0  0  0  0  0  0
    7.3191    0.6047   17.7052 N   0  0  0  0  0  0  0  0  0  0  0  0
    6.2090    1.1349   18.1298 C   0  0  0  0  0  0  0  0  0  0  0  0
    5.6982    1.1760   19.1655 C   0  0  0  0  0  0  0  0  0  0  0  0
    6.0998    0.7102   20.3390 C   0  0  0  0  0  0  0  0  0  0  0  0
    5.3470    0.7783   21.8026 Br  0  0  0  0  0  0  0  0  0  0  0  0
    5.9292   -5.6334   26.9134 H   0  0  0  0  0  0  0  0  0  0  0  0
    5.4208   -4.1739   25.9982 H   0  0  0  0  0  0  0  0  0  0  0  0
    5.8312   -5.6865   25.1206 H   0  0  0  0  0  0  0  0  0  0  0  0
    7.0634   -3.0656   24.5252 H   0  0  0  0  0  0  0  0  0  0  0  0
   10.1864    0.2780   25.3347 H   0  0  0  0  0  0  0  0  0  0  0  0
   12.0605    0.7815   25.4298 H   0  0  0  0  0  0  0  0  0  0  0  0
   13.6432   -0.9324   24.6577 H   0  0  0  0  0  0  0  0  0  0  0  0
   13.4051    0.3156   23.3878 H   0  0  0  0  0  0  0  0  0  0  0  0
   13.6096   -1.6021   22.6991 H   0  0  0  0  0  0  0  0  0  0  0  0
   12.3737   -2.6538   21.9291 H   0  0  0  0  0  0  0  0  0  0  0  0
   10.9688   -1.9486   22.9431 H   0  0  0  0  0  0  0  0  0  0  0  0
   10.6736   -0.8645   21.9895 H   0  0  0  0  0  0  0  0  0  0  0  0
    7.7311   -1.3389   21.4907 H   0  0  0  0  0  0  0  0  0  0  0  0
    8.6476   -0.2489   18.6301 H   0  0  0  0  0  0  0  0  0  0  0  0
    5.6507    1.6399   17.3554 H   0  0  0  0  0  0  0  0  0  0  0  0
    4.7399    1.6739   19.1791 H   0  0  0  0  0  0  0  0  0  0  0  0
 20 21  2  0  0  0  0
 19 20  1  0  0  0  0
 21 22  1  0  0  0  0
 18 19  2  0  0  0  0
 22 23  2  0  0  0  0
 18 23  1  0  0  0  0
 17 18  1  0  0  0  0
 23 24  1  0  0  0  0
 15 16  2  0  0  0  0
 15 17  1  0  0  0  0
 14 15  1  0  0  0  0
  8 14  2  3  0  0  0
 12 13  2  0  0  0  0
 11 12  1  0  0  0  0
  7  8  1  0  0  0  0
  8  9  1  0  0  0  0
 10 11  1  0  0  0  0
  6  7  3  0  0  0  0
  5  6  1  0  0  0  0
  9 10  2  0  0  0  0
  2  5  1  0  0  0  0
  2  3  2  0  0  0  0
  1  2  1  0  0  0  0
  2  4  2  0  0  0  0
  1 25  1  0  0  0  0
  1 26  1  0  0  0  0
  1 27  1  0  0  0  0
  5 28  1  0  0  0  0
  9 29  1  0  0  0  0
 10 30  1  0  0  0  0
 11 31  1  0  0  0  0
 11 32  1  0  0  0  0
 12 33  1  0  0  0  0
 13 34  1  0  0  0  0
 13 35  1  0  0  0  0
 14 36  1  0  0  0  0
 17 37  1  0  0  0  0
 19 38  1  0  0  0  0
 21 39  1  0  0  0  0
 22 40  1  0  0  0  0
M  END
> <Chemgauss4>
-12.717386

$$$$
