stable:False satoms:7 tatoms:24 sratio:0.2916666666666667
  -OEChem-08062414023D

 40 40  0     0  0  0  0  0  0999 V2000
   -5.8810   -5.0086  -25.9148 C   0  0  0  0  0  0  0  0  0  0  0  0
   -7.6176   -4.4728  -25.8034 S   0  0  0  0  0  0  0  0  0  0  0  0
   -8.4095   -5.6445  -25.7328 O   0  0  0  0  0  0  0  0  0  0  0  0
   -7.8331   -3.6492  -26.9344 O   0  0  0  0  0  0  0  0  0  0  0  0
   -7.6357   -3.6557  -24.4034 N   0  0  0  0  0  0  0  0  0  0  0  0
   -8.5540   -3.0229  -24.0239 C   0  0  0  0  0  0  0  0  0  0  0  0
   -9.0968   -2.0906  -23.5503 C   0  0  0  0  0  0  0  0  0  0  0  0
   -9.7890   -1.1021  -23.4518 C   0  0  0  0  0  0  0  0  0  0  0  0
  -10.6184   -0.1449  -24.5193 C   0  0  0  0  0  0  0  0  0  0  0  0
  -11.6168    0.0874  -24.6118 C   0  0  0  0  0  0  0  0  0  0  0  0
  -12.7323   -0.4621  -23.8626 C   0  0  0  0  0  0  0  0  0  0  0  0
  -12.4623   -1.3134  -23.0765 C   0  0  0  0  0  0  0  0  0  0  0  0
  -11.8218   -1.9232  -22.6132 C   0  0  0  0  0  0  0  0  0  0  0  0
   -9.5570   -0.5538  -22.4157 C   0  0  0  0  0  0  0  0  0  0  0  0
   -9.0235    0.1286  -21.4274 C   0  0  0  0  0  0  0  0  0  0  0  0
   -9.5573    1.0818  -21.1050 O   0  0  0  0  0  0  0  0  0  0  0  0
   -7.8909   -0.4554  -20.9979 N   0  0  0  0  0  0  0  0  0  0  0  0
   -7.3152    0.0986  -20.0563 C   0  0  0  0  0  0  0  0  0  0  0  0
   -7.4911    0.2550  -18.7465 C   0  0  0  0  0  0  0  0  0  0  0  0
   -7.1232    0.6529  -17.6316 N   0  0  0  0  0  0  0  0  0  0  0  0
   -6.0131    1.1830  -18.0562 C   0  0  0  0  0  0  0  0  0  0  0  0
   -5.5023    1.2242  -19.0920 C   0  0  0  0  0  0  0  0  0  0  0  0
   -5.9039    0.7584  -20.2655 C   0  0  0  0  0  0  0  0  0  0  0  0
   -5.1511    0.8264  -21.7290 Br  0  0  0  0  0  0  0  0  0  0  0  0
   -5.7333   -5.5852  -26.8398 H   0  0  0  0  0  0  0  0  0  0  0  0
   -5.2249   -4.1257  -25.9246 H   0  0  0  0  0  0  0  0  0  0  0  0
   -5.6353   -5.6383  -25.0471 H   0  0  0  0  0  0  0  0  0  0  0  0
   -6.8675   -3.0174  -24.4517 H   0  0  0  0  0  0  0  0  0  0  0  0
   -9.9905    0.3262  -25.2612 H   0  0  0  0  0  0  0  0  0  0  0  0
  -11.8646    0.8296  -25.3562 H   0  0  0  0  0  0  0  0  0  0  0  0
  -13.4473   -0.8842  -24.5841 H   0  0  0  0  0  0  0  0  0  0  0  0
  -13.2091    0.3637  -23.3143 H   0  0  0  0  0  0  0  0  0  0  0  0
  -13.4137   -1.5539  -22.6255 H   0  0  0  0  0  0  0  0  0  0  0  0
  -12.1778   -2.6056  -21.8555 H   0  0  0  0  0  0  0  0  0  0  0  0
  -10.7729   -1.9005  -22.8696 H   0  0  0  0  0  0  0  0  0  0  0  0
  -10.4777   -0.8163  -21.9159 H   0  0  0  0  0  0  0  0  0  0  0  0
   -7.5352   -1.2907  -21.4171 H   0  0  0  0  0  0  0  0  0  0  0  0
   -8.4516   -0.2007  -18.5565 H   0  0  0  0  0  0  0  0  0  0  0  0
   -5.4548    1.6881  -17.2819 H   0  0  0  0  0  0  0  0  0  0  0  0
   -4.5440    1.7221  -19.1055 H   0  0  0  0  0  0  0  0  0  0  0  0
 20 21  2  0  0  0  0
 19 20  1  0  0  0  0
 21 22  1  0  0  0  0
 18 19  2  0  0  0  0
 22 23  2  0  0  0  0
 18 23  1  0  0  0  0
 17 18  1  0  0  0  0
 23 24  1  0  0  0  0
 15 16  2  0  0  0  0
 15 17  1  0  0  0  0
 14 15  1  0  0  0  0
  8 14  2  3  0  0  0
 12 13  2  0  0  0  0
 11 12  1  0  0  0  0
  7  8  1  0  0  0  0
  8  9  1  0  0  0  0
 10 11  1  0  0  0  0
  6  7  3  0  0  0  0
  5  6  1  0  0  0  0
  9 10  2  0  0  0  0
  2  5  1  0  0  0  0
  2  3  2  0  0  0  0
  1  2  1  0  0  0  0
  2  4  2  0  0  0  0
  1 25  1  0  0  0  0
  1 26  1  0  0  0  0
  1 27  1  0  0  0  0
  5 28  1  0  0  0  0
  9 29  1  0  0  0  0
 10 30  1  0  0  0  0
 11 31  1  0  0  0  0
 11 32  1  0  0  0  0
 12 33  1  0  0  0  0
 13 34  1  0  0  0  0
 13 35  1  0  0  0  0
 14 36  1  0  0  0  0
 17 37  1  0  0  0  0
 19 38  1  0  0  0  0
 21 39  1  0  0  0  0
 22 40  1  0  0  0  0
M  END
> <Chemgauss4>
-12.530624

$$$$
