REMARK  3 active torsions:
REMARK  status: ('A' for Active; 'I' for Inactive)
REMARK    1  A    between atoms: C_5  and  C_7 
REMARK    2  A    between atoms: C_5  and  O_8 
REMARK    3  A    between atoms: C_11  and  N_15 
ROOT
HETATM    1  C   UNL     2       9.602  -0.441  20.828  1.00  0.00     0.196 A 
HETATM    2  C   UNL     2       8.502   0.047  20.202  1.00  0.00     0.088 A 
HETATM    3  N   UNL     2       9.516   0.532  19.807  1.00  0.00    -0.372 N 
ATOM      4  HN  UNL     2       9.986   1.184  19.180  1.00  0.00     0.161 HD
ENDROOT
BRANCH   2   5
HETATM    5  N   UNL     2       7.100   0.188  20.087  1.00  0.00    -0.388 N 
HETATM    6  H   UNL     2       7.010   0.763  19.259  1.00  0.00     0.157 HD
ATOM      7  HN  UNL     2       6.367  -0.192  20.685  1.00  0.00     0.157 HD
ENDBRANCH   2   5
TORSDOF 3
