stable:False satoms:19 tatoms:24 sratio:0.7916666666666666
  -OEChem-07092417313D

 24 25  0     1  0  0  0  0  0999 V2000
    7.0168   -2.2531   21.4860 C   0  0  0  0  0  0  0  0  0  0  0  0
    6.0266   -2.2180   21.8999 H   0  0  0  0  0  0  0  0  0  0  0  0
   10.5217   -2.8845   25.3716 H   0  0  0  0  0  0  0  0  0  0  0  0
    8.0605   -1.8512   22.6033 C   0  0  1  0  0  0  0  0  0  0  0  0
    9.5637   -1.5150   26.0406 H   0  0  0  0  0  0  0  0  0  0  0  0
    8.0654   -2.9936   21.6706 O   0  0  0  0  0  0  0  0  0  0  0  0
   10.1618   -1.8876   25.2572 C   0  5  0  0  0  0  0  0  0  0  0  0
    7.7419   -0.9933   24.6635 H   0  0  0  0  0  0  0  0  0  0  0  0
   10.2934   -1.1579   24.0415 C   0  0  1  0  0  0  0  0  0  0  0  0
    9.4225    0.5338   23.6643 H   0  0  0  0  0  0  0  0  0  0  0  0
   11.2491   -1.2989   23.5311 H   0  0  0  0  0  0  0  0  0  0  0  0
    9.8267   -1.5134   20.8096 H   0  0  0  0  0  0  0  0  0  0  0  0
   10.1103   -0.1429   21.7400 H   0  0  0  0  0  0  0  0  0  0  0  0
    9.1533   -1.8860   23.3508 C   0  0  1  0  0  0  0  0  0  0  0  0
    9.3281   -2.9229   23.4475 H   0  0  0  0  0  0  0  0  0  0  0  0
   10.1235    0.2419   24.1050 O   0  0  0  0  0  0  0  0  0  0  0  0
    9.6016   -0.4408   20.8276 C   0  0  0  0  0  0  0  0  0  0  0  0
    8.5017    0.0468   20.2019 C   0  0  3  0  0  0  0  0  0  0  0  0
    9.5161    0.5322   19.8074 N   0  3  0  0  0  0  0  0  0  0  0  0
    6.9074   -1.9187   20.4276 H   0  0  0  0  0  0  0  0  0  0  0  0
    7.0103    0.7627   19.2595 H   0  0  0  0  0  0  0  0  0  0  0  0
    7.1001    0.1881   20.0873 N   0  5  0  0  0  0  0  0  0  0  0  0
    7.6069   -1.1017   23.6108 C   0  0  0  0  0  0  0  0  0  0  0  0
    6.6746   -0.6162   23.3921 H   0  0  0  0  0  0  0  0  0  0  0  0
 21 22  1  0  0  0  0
 18 19  1  0  0  0  0
 17 19  1  0  0  0  0
 18 22  1  0  0  0  0
 17 18  1  0  0  0  0
  1 20  1  0  0  0  0
 12 17  1  0  0  0  0
 13 17  1  0  0  0  0
  1  6  1  0  0  0  0
  1  2  1  0  0  0  0
  1  4  1  0  0  0  0
  4  6  1  0  0  0  0
  4 14  1  0  0  0  0
  4 23  1  0  0  0  0
 14 15  1  0  0  0  0
 14 23  1  0  0  0  0
  9 14  1  0  0  0  0
 23 24  1  0  0  0  0
  9 11  1  0  0  0  0
  8 23  1  0  0  0  0
 10 16  1  0  0  0  0
  9 16  1  0  0  0  0
  7  9  1  0  0  0  0
  3  7  1  0  0  0  0
  5  7  1  0  0  0  0
M  CHG  3   7  -1  19   1  22  -1
M  END
> <Shapegauss>
-100.022835

$$$$
