stable:False satoms:22 tatoms:24 sratio:0.9166666666666666
  -OEChem-07092417313D

 24 25  0     1  0  0  0  0  0999 V2000
    8.0268   -3.8364   23.6948 O   0  0  0  0  0  0  0  0  0  0  0  0
   10.5045   -2.0731   24.2088 H   0  0  0  0  0  0  0  0  0  0  0  0
    7.1322   -1.2914   22.5739 C   0  0  1  0  0  0  0  0  0  0  0  0
    9.5346   -3.9951   25.3163 O   0  5  0  0  0  0  0  0  0  0  0  0
    9.1250   -3.6425   24.2066 C   0  0  0  0  0  0  0  0  0  0  0  0
    7.7104   -1.0670   23.8353 O   0  3  2  0  0  0  0  0  0  0  0  0
    9.2155   -0.8531   21.8040 C   0  0  0  0  0  0  0  0  0  0  0  0
   10.4015    0.7169   22.7571 H   0  0  0  0  0  0  0  0  0  0  0  0
    9.5684    0.4764   22.0882 C   0  0  0  0  0  0  0  0  0  0  0  0
    8.6588   -0.8776   23.9494 H   0  0  0  0  0  0  0  0  0  0  0  0
   10.2291   -2.7177   23.3849 C   0  0  0  0  0  0  0  0  0  0  0  0
    9.8440   -0.0838   20.7427 C   0  0  0  0  0  0  0  0  0  0  0  0
   11.0408   -3.3860   23.1320 H   0  0  0  0  0  0  0  0  0  0  0  0
    6.8931   -0.0277   23.0409 C   0  0  1  0  0  0  0  0  0  0  0  0
    9.8271   -2.0612   22.2181 N   0  0  0  0  0  0  0  0  0  0  0  0
    7.9025   -1.1933   21.3483 O   0  0  0  0  0  0  0  0  0  0  0  0
    8.8181    1.2479   22.1389 H   0  0  0  0  0  0  0  0  0  0  0  0
    6.6511    0.9104   21.9807 O   0  0  0  0  0  0  0  0  0  0  0  0
    9.6764   -2.6364   21.3935 H   0  0  0  0  0  0  0  0  0  0  0  0
    6.4192    0.8186   21.0982 H   0  0  0  0  0  0  0  0  0  0  0  0
    9.2134    0.2733   19.9247 H   0  0  0  0  0  0  0  0  0  0  0  0
    6.1501    0.3395   23.7336 H   0  0  0  0  0  0  0  0  0  0  0  0
    6.2482   -1.8835   22.3033 H   0  0  0  0  0  0  0  0  0  0  0  0
   10.7931   -0.4472   20.4226 H   0  0  0  0  0  0  0  0  0  0  0  0
 12 21  1  0  0  0  0
 12 24  1  0  0  0  0
  7 12  1  0  0  0  0
  9 12  1  0  0  0  0
 18 20  1  0  0  0  0
  7 16  1  0  0  0  0
  3 16  1  0  0  0  0
 15 19  1  0  0  0  0
  7  9  1  0  0  0  0
  7 15  1  0  0  0  0
 14 18  1  0  0  0  0
  9 17  1  0  0  0  0
  8  9  1  0  0  0  0
 11 15  1  0  0  0  0
  3 23  1  0  0  0  0
  3 14  1  0  0  0  0
  3  6  1  0  0  0  0
 14 22  1  0  0  0  0
  6 14  1  0  0  0  0
 11 13  1  0  0  0  0
  5 11  1  0  0  0  0
  2 11  1  0  0  0  0
  1  5  2  0  0  0  0
  6 10  1  0  0  0  0
  4  5  1  0  0  0  0
M  CHG  2   4  -1   6   1
M  END
> <Shapegauss>
-100.738976

$$$$
