stable:False satoms:22 tatoms:24 sratio:0.9166666666666666
  -OEChem-08052420353D

 24 25  0     1  0  0  0  0  0999 V2000
   -7.6456   -5.3343  -21.3433 O   0  0  0  0  0  0  0  0  0  0  0  0
   -4.8878   -4.4109  -22.3700 H   0  0  0  0  0  0  0  0  0  0  0  0
   -8.4178   -3.8671  -23.7484 C   0  0  1  0  0  0  0  0  0  0  0  0
   -5.8047   -4.8962  -20.1826 O   0  5  0  0  0  0  0  0  0  0  0  0
   -6.4353   -5.1903  -21.2021 C   0  0  0  0  0  0  0  0  0  0  0  0
   -7.5014   -3.0996  -23.0089 O   0  0  2  0  0  0  0  0  0  0  0  0
   -6.5695   -4.5956  -24.8339 C   0  0  0  0  0  0  0  0  0  0  0  0
   -4.9562   -3.1853  -25.2675 H   0  0  0  0  0  0  0  0  0  0  0  0
   -5.9620   -3.5340  -25.5245 C   0  0  0  0  0  0  0  0  0  0  0  0
   -5.4624   -5.3116  -22.5394 C   0  0  0  0  0  0  0  0  0  0  0  0
   -6.1361   -4.8435  -26.1991 C   0  0  0  0  0  0  0  0  0  0  0  0
   -4.8537   -6.1912  -22.3801 H   0  0  0  0  0  0  0  0  0  0  0  0
   -8.3363   -2.5766  -24.1958 C   0  0  1  0  0  0  0  0  0  0  0  0
   -6.0558   -5.4163  -23.8007 N   0  3  0  0  0  0  0  0  0  0  0  0
   -7.9915   -4.7539  -24.8147 O   0  0  0  0  0  0  0  0  0  0  0  0
   -6.5501   -2.7175  -25.9093 H   0  0  0  0  0  0  0  0  0  0  0  0
   -8.7075   -2.4525  -25.5776 O   0  0  0  0  0  0  0  0  0  0  0  0
   -6.8461   -5.9948  -23.5983 H   0  0  0  0  0  0  0  0  0  0  0  0
   -9.1745   -2.9897  -26.1558 H   0  0  0  0  0  0  0  0  0  0  0  0
   -6.8999   -4.8951  -26.9791 H   0  0  0  0  0  0  0  0  0  0  0  0
   -8.8081   -1.6741  -23.8359 H   0  0  0  0  0  0  0  0  0  0  0  0
   -9.4192   -4.2219  -23.4717 H   0  0  0  0  0  0  0  0  0  0  0  0
   -5.3691   -5.5757  -26.3037 H   0  0  0  0  0  0  0  0  0  0  0  0
   -5.3704   -5.9498  -24.2963 H   0  0  0  0  0  0  0  0  0  0  0  0
 11 20  1  0  0  0  0
 11 23  1  0  0  0  0
  7 11  1  0  0  0  0
  9 11  1  0  0  0  0
 17 19  1  0  0  0  0
  7 15  1  0  0  0  0
  3 15  1  0  0  0  0
 14 18  1  0  0  0  0
  7  9  1  0  0  0  0
  7 14  1  0  0  0  0
 13 17  1  0  0  0  0
  9 16  1  0  0  0  0
  8  9  1  0  0  0  0
 10 14  1  0  0  0  0
  3 22  1  0  0  0  0
  3 13  1  0  0  0  0
  3  6  1  0  0  0  0
 13 21  1  0  0  0  0
  6 13  1  0  0  0  0
 10 12  1  0  0  0  0
  5 10  1  0  0  0  0
  2 10  1  0  0  0  0
  1  5  2  0  0  0  0
  4  5  1  0  0  0  0
 14 24  1  0  0  0  0
M  CHG  2   4  -1  14   1
M  END
> <Chemgauss4>
-5.138426

$$$$
