stable:False satoms:22 tatoms:24 sratio:0.9166666666666666
  -OEChem-08052420353D

 24 25  0     1  0  0  0  0  0999 V2000
    7.5295   -5.4248   21.4798 O   0  0  0  0  0  0  0  0  0  0  0  0
    4.7717   -4.5014   22.5065 H   0  0  0  0  0  0  0  0  0  0  0  0
    8.3017   -3.9576   23.8849 C   0  0  1  0  0  0  0  0  0  0  0  0
    5.6886   -4.9867   20.3191 O   0  5  0  0  0  0  0  0  0  0  0  0
    6.3192   -5.2807   21.3386 C   0  0  0  0  0  0  0  0  0  0  0  0
    7.3853   -3.1900   23.1454 O   0  0  2  0  0  0  0  0  0  0  0  0
    6.4534   -4.6861   24.9704 C   0  0  0  0  0  0  0  0  0  0  0  0
    4.8401   -3.2757   25.4040 H   0  0  0  0  0  0  0  0  0  0  0  0
    5.8459   -3.6245   25.6610 C   0  0  0  0  0  0  0  0  0  0  0  0
    5.3463   -5.4021   22.6759 C   0  0  0  0  0  0  0  0  0  0  0  0
    6.0200   -4.9340   26.3356 C   0  0  0  0  0  0  0  0  0  0  0  0
    4.7376   -6.2817   22.5166 H   0  0  0  0  0  0  0  0  0  0  0  0
    8.2202   -2.6671   24.3323 C   0  0  1  0  0  0  0  0  0  0  0  0
    5.9397   -5.5068   23.9372 N   0  3  0  0  0  0  0  0  0  0  0  0
    7.8754   -4.8444   24.9512 O   0  0  0  0  0  0  0  0  0  0  0  0
    6.4340   -2.8080   26.0458 H   0  0  0  0  0  0  0  0  0  0  0  0
    8.5914   -2.5429   25.7141 O   0  0  0  0  0  0  0  0  0  0  0  0
    6.7300   -6.0852   23.7348 H   0  0  0  0  0  0  0  0  0  0  0  0
    9.0584   -3.0802   26.2924 H   0  0  0  0  0  0  0  0  0  0  0  0
    6.7838   -4.9856   27.1156 H   0  0  0  0  0  0  0  0  0  0  0  0
    8.6920   -1.7646   23.9724 H   0  0  0  0  0  0  0  0  0  0  0  0
    9.3031   -4.3124   23.6082 H   0  0  0  0  0  0  0  0  0  0  0  0
    5.2530   -5.6662   26.4402 H   0  0  0  0  0  0  0  0  0  0  0  0
    5.2543   -6.0403   24.4328 H   0  0  0  0  0  0  0  0  0  0  0  0
 11 20  1  0  0  0  0
 11 23  1  0  0  0  0
  7 11  1  0  0  0  0
  9 11  1  0  0  0  0
 17 19  1  0  0  0  0
  7 15  1  0  0  0  0
  3 15  1  0  0  0  0
 14 18  1  0  0  0  0
  7  9  1  0  0  0  0
  7 14  1  0  0  0  0
 13 17  1  0  0  0  0
  9 16  1  0  0  0  0
  8  9  1  0  0  0  0
 10 14  1  0  0  0  0
  3 22  1  0  0  0  0
  3 13  1  0  0  0  0
  3  6  1  0  0  0  0
 13 21  1  0  0  0  0
  6 13  1  0  0  0  0
 10 12  1  0  0  0  0
  5 10  1  0  0  0  0
  2 10  1  0  0  0  0
  1  5  2  0  0  0  0
  4  5  1  0  0  0  0
 14 24  1  0  0  0  0
M  CHG  2   4  -1  14   1
M  END
> <Chemgauss4>
-5.153740

$$$$
