stable:False satoms:6 tatoms:24 sratio:0.25
  -OEChem-07092417443D

 24 25  0     1  0  0  0  0  0999 V2000
    6.6766   -4.8180   26.3899 C   0  0  0  0  0  0  0  0  0  0  0  0
    8.1455   -4.3032   26.1513 S   0  0  0  0  0  0  0  0  0  0  0  0
    9.0518   -5.4258   26.1144 O   0  0  0  0  0  0  0  0  0  0  0  0
    8.5443   -3.3530   27.1696 O   0  0  0  0  0  0  0  0  0  0  0  0
    8.1738   -3.5946   24.7045 N   0  0  0  0  0  0  0  0  0  0  0  0
    8.9853   -2.8949   24.1890 C   0  0  0  0  0  0  0  0  0  0  0  0
    9.4469   -2.0111   23.5824 C   0  0  0  0  0  0  0  0  0  0  0  0
   10.3124   -1.1589   23.2204 C   0  0  1  0  0  0  0  0  0  0  0  0
   11.0068    0.0189   24.3140 C   0  0  0  0  0  0  0  0  0  0  0  0
   12.0408    0.2940   24.2460 C   0  0  0  0  0  0  0  0  0  0  0  0
   13.1061   -0.1472   23.4998 C   0  0  0  0  0  0  0  0  0  0  0  0
   12.7378   -1.2411   22.6777 C   0  0  0  0  0  0  0  0  0  0  0  0
   11.8220   -1.7062   22.5389 C   0  0  0  0  0  0  0  0  0  0  0  0
    9.7571   -0.5436   22.2966 C   0  0  0  0  0  0  0  0  0  0  0  0
    9.0645    0.0591   21.3572 C   0  0  0  0  0  0  0  0  0  0  0  0
    9.5399    1.0256   20.9478 O   0  0  0  0  0  0  0  0  0  0  0  0
    7.9150   -0.5779   21.1154 N   0  0  0  0  0  0  0  0  0  0  0  0
    7.1969   -0.1014   20.1924 C   0  0  0  0  0  0  0  0  0  0  0  0
    7.2324   -0.0091   18.8948 C   0  0  0  0  0  0  0  0  0  0  0  0
    6.7130    0.3223   17.7766 N   0  0  0  0  0  0  0  0  0  0  0  0
    5.6577    0.8203   18.2390 C   0  0  0  0  0  0  0  0  0  0  0  0
    5.2375    0.9276   19.3986 C   0  0  0  0  0  0  0  0  0  0  0  0
    5.8139    0.5367   20.5911 C   0  0  0  0  0  0  0  0  0  0  0  0
    5.4060    0.5915   21.6893 C   0  0  0  0  0  0  0  0  0  0  0  0
 20 21  2  0  0  0  0
 19 20  1  0  0  0  0
 21 22  1  0  0  0  0
 18 19  2  0  0  0  0
 22 23  2  0  0  0  0
 18 23  1  0  0  0  0
 17 18  1  0  0  0  0
 23 24  1  0  0  0  0
 15 16  2  0  0  0  0
 15 17  1  0  0  0  0
 14 15  1  0  0  0  0
  8 14  1  0  0  0  0
 12 13  1  0  0  0  0
  8 13  1  0  0  0  0
 11 12  2  0  0  0  0
  7  8  1  0  0  0  0
  8  9  1  0  0  0  0
 10 11  1  0  0  0  0
  6  7  3  0  0  0  0
  5  6  1  0  0  0  0
  9 10  2  0  0  0  0
  2  5  1  0  0  0  0
  2  3  2  0  0  0  0
  1  2  1  0  0  0  0
  2  4  2  0  0  0  0
M  END
> <Shapegauss>
-287.710785

$$$$
