stable:False satoms:6 tatoms:24 sratio:0.25
  -OEChem-08062413253D

 43 44  0     1  0  0  0  0  0999 V2000
    6.2347   -4.3811   26.7066 C   0  0  0  0  0  0  0  0  0  0  0  0
    7.7458   -3.9891   26.5001 S   0  0  0  0  0  0  0  0  0  0  0  0
    8.5608   -5.1801   26.5130 O   0  0  0  0  0  0  0  0  0  0  0  0
    8.1907   -3.0500   27.5095 O   0  0  0  0  0  0  0  0  0  0  0  0
    7.8697   -3.3186   25.0402 N   0  0  0  0  0  0  0  0  0  0  0  0
    8.7479   -2.6970   24.5340 C   0  0  0  0  0  0  0  0  0  0  0  0
    9.2945   -1.8665   23.9228 C   0  0  0  0  0  0  0  0  0  0  0  0
   10.2344   -1.0937   23.5683 C   0  0  1  0  0  0  0  0  0  0  0  0
   10.9899    0.0508   24.6568 C   0  0  0  0  0  0  0  0  0  0  0  0
   12.0440    0.2420   24.6131 C   0  0  0  0  0  0  0  0  0  0  0  0
   13.0909   -0.2988   23.9075 C   0  0  0  0  0  0  0  0  0  0  0  0
   12.6596   -1.3790   23.0981 C   0  0  0  0  0  0  0  0  0  0  0  0
   11.7139   -1.7737   22.9425 C   0  0  0  0  0  0  0  0  0  0  0  0
    9.7551   -0.4581   22.6161 C   0  0  0  0  0  0  0  0  0  0  0  0
    9.1384    0.1754   21.6446 C   0  0  0  0  0  0  0  0  0  0  0  0
    9.7000    1.0917   21.2291 O   0  0  0  0  0  0  0  0  0  0  0  0
    7.9490   -0.3746   21.3829 N   0  0  0  0  0  0  0  0  0  0  0  0
    7.2964    0.1354   20.4297 C   0  0  0  0  0  0  0  0  0  0  0  0
    7.3746    0.1946   19.1320 C   0  0  0  0  0  0  0  0  0  0  0  0
    6.9138    0.5400   17.9925 N   0  0  0  0  0  0  0  0  0  0  0  0
    5.8891    1.1300   18.4136 C   0  0  0  0  0  0  0  0  0  0  0  0
    5.4472    1.2968   19.5580 C   0  0  0  0  0  0  0  0  0  0  0  0
    5.9580    0.8894   20.7747 C   0  0  0  0  0  0  0  0  0  0  0  0
    5.5260    1.0015   21.8592 C   0  0  0  0  0  0  0  0  0  0  0  0
    6.1075   -4.8442   27.6962 H   0  0  0  0  0  0  0  0  0  0  0  0
    5.6096   -3.4783   26.6413 H   0  0  0  0  0  0  0  0  0  0  0  0
    5.9311   -5.0944   25.9263 H   0  0  0  0  0  0  0  0  0  0  0  0
    7.0841   -2.7014   24.9943 H   0  0  0  0  0  0  0  0  0  0  0  0
   10.3848    0.5723   25.3836 H   0  0  0  0  0  0  0  0  0  0  0  0
   12.3520    1.0398   25.2727 H   0  0  0  0  0  0  0  0  0  0  0  0
   14.1104    0.0535   23.9625 H   0  0  0  0  0  0  0  0  0  0  0  0
   13.4487   -1.8741   22.5517 H   0  0  0  0  0  0  0  0  0  0  0  0
   11.5844   -1.8047   21.8506 H   0  0  0  0  0  0  0  0  0  0  0  0
   11.7553   -2.8000   23.3362 H   0  0  0  0  0  0  0  0  0  0  0  0
   10.4109   -0.9769   21.9014 H   0  0  0  0  0  0  0  0  0  0  0  0
   10.2408    0.4697   22.9526 H   0  0  0  0  0  0  0  0  0  0  0  0
    7.5958   -1.1463   21.9118 H   0  0  0  0  0  0  0  0  0  0  0  0
    8.3050   -0.3026   18.9008 H   0  0  0  0  0  0  0  0  0  0  0  0
    5.2830    1.5724   17.6368 H   0  0  0  0  0  0  0  0  0  0  0  0
    4.5188    1.8458   19.6134 H   0  0  0  0  0  0  0  0  0  0  0  0
    4.8801    0.1410   22.0879 H   0  0  0  0  0  0  0  0  0  0  0  0
    6.3545    1.0403   22.5816 H   0  0  0  0  0  0  0  0  0  0  0  0
    4.9380    1.9289   21.9254 H   0  0  0  0  0  0  0  0  0  0  0  0
 20 21  2  0  0  0  0
 19 20  1  0  0  0  0
 21 22  1  0  0  0  0
 18 19  2  0  0  0  0
 22 23  2  0  0  0  0
 18 23  1  0  0  0  0
 17 18  1  0  0  0  0
 23 24  1  0  0  0  0
 15 16  2  0  0  0  0
 15 17  1  0  0  0  0
 14 15  1  0  0  0  0
  8 14  1  0  0  0  0
 12 13  1  0  0  0  0
  8 13  1  0  0  0  0
 11 12  2  0  0  0  0
  7  8  1  0  0  0  0
  8  9  1  0  0  0  0
 10 11  1  0  0  0  0
  6  7  3  0  0  0  0
  5  6  1  0  0  0  0
  9 10  2  0  0  0  0
  2  5  1  0  0  0  0
  2  3  2  0  0  0  0
  1  2  1  0  0  0  0
  2  4  2  0  0  0  0
  1 25  1  0  0  0  0
  1 26  1  0  0  0  0
  1 27  1  0  0  0  0
  5 28  1  0  0  0  0
  9 29  1  0  0  0  0
 10 30  1  0  0  0  0
 11 31  1  0  0  0  0
 12 32  1  0  0  0  0
 13 33  1  0  0  0  0
 13 34  1  0  0  0  0
 14 35  1  0  0  0  0
 14 36  1  0  0  0  0
 17 37  1  0  0  0  0
 19 38  1  0  0  0  0
 21 39  1  0  0  0  0
 22 40  1  0  0  0  0
 24 41  1  0  0  0  0
 24 42  1  0  0  0  0
 24 43  1  0  0  0  0
M  END
> <Chemgauss4>
-12.840709

$$$$
