stable:False satoms:6 tatoms:24 sratio:0.25
  -OEChem-08062413253D

 43 44  0     1  0  0  0  0  0999 V2000
   -6.3445   -4.4370  -26.6311 C   0  0  0  0  0  0  0  0  0  0  0  0
   -7.8556   -4.0451  -26.4246 S   0  0  0  0  0  0  0  0  0  0  0  0
   -8.6707   -5.2361  -26.4375 O   0  0  0  0  0  0  0  0  0  0  0  0
   -8.3005   -3.1059  -27.4340 O   0  0  0  0  0  0  0  0  0  0  0  0
   -7.9795   -3.3745  -24.9647 N   0  0  0  0  0  0  0  0  0  0  0  0
   -8.8577   -2.7530  -24.4585 C   0  0  0  0  0  0  0  0  0  0  0  0
   -9.4043   -1.9225  -23.8473 C   0  0  0  0  0  0  0  0  0  0  0  0
  -10.3443   -1.1496  -23.4928 C   0  0  1  0  0  0  0  0  0  0  0  0
  -11.0998   -0.0052  -24.5813 C   0  0  0  0  0  0  0  0  0  0  0  0
  -12.1538    0.1861  -24.5376 C   0  0  0  0  0  0  0  0  0  0  0  0
  -13.2007   -0.3547  -23.8320 C   0  0  0  0  0  0  0  0  0  0  0  0
  -12.7694   -1.4350  -23.0226 C   0  0  0  0  0  0  0  0  0  0  0  0
  -11.8237   -1.8296  -22.8670 C   0  0  0  0  0  0  0  0  0  0  0  0
   -9.8649   -0.5141  -22.5406 C   0  0  0  0  0  0  0  0  0  0  0  0
   -9.2482    0.1194  -21.5691 C   0  0  0  0  0  0  0  0  0  0  0  0
   -9.8098    1.0358  -21.1536 O   0  0  0  0  0  0  0  0  0  0  0  0
   -8.0588   -0.4306  -21.3074 N   0  0  0  0  0  0  0  0  0  0  0  0
   -7.4063    0.0795  -20.3542 C   0  0  0  0  0  0  0  0  0  0  0  0
   -7.4844    0.1387  -19.0565 C   0  0  0  0  0  0  0  0  0  0  0  0
   -7.0236    0.4840  -17.9170 N   0  0  0  0  0  0  0  0  0  0  0  0
   -5.9989    1.0741  -18.3381 C   0  0  0  0  0  0  0  0  0  0  0  0
   -5.5571    1.2409  -19.4825 C   0  0  0  0  0  0  0  0  0  0  0  0
   -6.0679    0.8335  -20.6992 C   0  0  0  0  0  0  0  0  0  0  0  0
   -5.6358    0.9456  -21.7837 C   0  0  0  0  0  0  0  0  0  0  0  0
   -6.2173   -4.9002  -27.6207 H   0  0  0  0  0  0  0  0  0  0  0  0
   -5.7195   -3.5342  -26.5658 H   0  0  0  0  0  0  0  0  0  0  0  0
   -6.0409   -5.1504  -25.8508 H   0  0  0  0  0  0  0  0  0  0  0  0
   -7.1940   -2.7574  -24.9188 H   0  0  0  0  0  0  0  0  0  0  0  0
  -10.4946    0.5163  -25.3081 H   0  0  0  0  0  0  0  0  0  0  0  0
  -12.4618    0.9839  -25.1972 H   0  0  0  0  0  0  0  0  0  0  0  0
  -14.2202   -0.0025  -23.8870 H   0  0  0  0  0  0  0  0  0  0  0  0
  -13.5585   -1.9301  -22.4762 H   0  0  0  0  0  0  0  0  0  0  0  0
  -11.6942   -1.8607  -21.7751 H   0  0  0  0  0  0  0  0  0  0  0  0
  -11.8651   -2.8559  -23.2607 H   0  0  0  0  0  0  0  0  0  0  0  0
  -10.5207   -1.0328  -21.8259 H   0  0  0  0  0  0  0  0  0  0  0  0
  -10.3506    0.4138  -22.8771 H   0  0  0  0  0  0  0  0  0  0  0  0
   -7.7056   -1.2022  -21.8363 H   0  0  0  0  0  0  0  0  0  0  0  0
   -8.4148   -0.3586  -18.8253 H   0  0  0  0  0  0  0  0  0  0  0  0
   -5.3929    1.5164  -17.5613 H   0  0  0  0  0  0  0  0  0  0  0  0
   -4.6286    1.7898  -19.5379 H   0  0  0  0  0  0  0  0  0  0  0  0
   -4.9900    0.0850  -22.0124 H   0  0  0  0  0  0  0  0  0  0  0  0
   -6.4643    0.9843  -22.5061 H   0  0  0  0  0  0  0  0  0  0  0  0
   -5.0478    1.8729  -21.8499 H   0  0  0  0  0  0  0  0  0  0  0  0
 20 21  2  0  0  0  0
 19 20  1  0  0  0  0
 21 22  1  0  0  0  0
 18 19  2  0  0  0  0
 22 23  2  0  0  0  0
 18 23  1  0  0  0  0
 17 18  1  0  0  0  0
 23 24  1  0  0  0  0
 15 16  2  0  0  0  0
 15 17  1  0  0  0  0
 14 15  1  0  0  0  0
  8 14  1  0  0  0  0
 12 13  1  0  0  0  0
  8 13  1  0  0  0  0
 11 12  2  0  0  0  0
  7  8  1  0  0  0  0
  8  9  1  0  0  0  0
 10 11  1  0  0  0  0
  6  7  3  0  0  0  0
  5  6  1  0  0  0  0
  9 10  2  0  0  0  0
  2  5  1  0  0  0  0
  2  3  2  0  0  0  0
  1  2  1  0  0  0  0
  2  4  2  0  0  0  0
  1 25  1  0  0  0  0
  1 26  1  0  0  0  0
  1 27  1  0  0  0  0
  5 28  1  0  0  0  0
  9 29  1  0  0  0  0
 10 30  1  0  0  0  0
 11 31  1  0  0  0  0
 12 32  1  0  0  0  0
 13 33  1  0  0  0  0
 13 34  1  0  0  0  0
 14 35  1  0  0  0  0
 14 36  1  0  0  0  0
 17 37  1  0  0  0  0
 19 38  1  0  0  0  0
 21 39  1  0  0  0  0
 22 40  1  0  0  0  0
 24 41  1  0  0  0  0
 24 42  1  0  0  0  0
 24 43  1  0  0  0  0
M  END
> <Chemgauss4>
-13.276237

$$$$
