stable:False satoms:11 tatoms:24 sratio:0.4583333333333333
  -OEChem-07092417433D

 24 25  0     0  0  0  0  0  0999 V2000
    6.5035   -4.9432   26.3966 Cl  0  0  0  0  0  0  0  0  0  0  0  0
    8.2324   -4.3049   26.0769 S   0  0  0  0  0  0  0  0  0  0  0  0
    9.0871   -5.4225   25.9085 O   0  0  0  0  0  0  0  0  0  0  0  0
    8.5520   -3.4441   27.1594 O   0  0  0  0  0  0  0  0  0  0  0  0
    8.1141   -3.5576   24.6851 N   0  0  0  0  0  0  0  0  0  0  0  0
    8.7782   -2.8545   24.0371 C   0  0  0  0  0  0  0  0  0  0  0  0
    9.2196   -1.9398   23.3061 C   0  0  0  0  0  0  0  0  0  0  0  0
   10.7818   -0.8653   23.1368 C   0  0  0  0  0  0  0  0  0  0  0  0
   11.3607    0.0375   24.0972 C   0  0  0  0  0  0  0  0  0  0  0  0
   12.0150    0.6279   24.6016 O   0  0  0  0  0  0  0  0  0  0  0  0
   13.5118   -0.4151   23.2396 H   0  0  0  0  0  0  0  0  0  0  0  0
   12.9004   -1.0766   22.7939 C   0  5  0  0  0  0  0  0  0  0  0  0
   11.9719   -1.4235   22.6349 C   0  0  0  0  0  0  0  0  0  0  0  0
    9.5955   -0.9878   22.6067 C   0  0  0  0  0  0  0  0  0  0  0  0
    8.9488   -0.0525   21.4492 C   0  0  0  0  0  0  0  0  0  0  0  0
    9.5304    0.8786   21.0546 O   0  0  0  0  0  0  0  0  0  0  0  0
    7.8070   -0.5589   21.1390 N   0  0  0  0  0  0  0  0  0  0  0  0
    7.0842   -0.0976   20.2533 C   0  0  0  0  0  0  0  0  0  0  0  0
    6.9896    0.0048   18.9084 C   0  0  0  0  0  0  0  0  0  0  0  0
    6.6381    0.2489   17.8058 N   0  0  0  0  0  0  0  0  0  0  0  0
    5.6077    0.7944   18.3108 C   0  0  0  0  0  0  0  0  0  0  0  0
    5.2033    0.9331   19.4604 C   0  0  0  0  0  0  0  0  0  0  0  0
    5.7309    0.5361   20.6227 C   0  0  0  0  0  0  0  0  0  0  0  0
    5.4203    0.5925   21.6120 H   0  0  0  0  0  0  0  0  0  0  0  0
 20 21  2  0  0  0  0
 19 20  1  0  0  0  0
 19 21  1  0  0  0  0
 21 22  1  0  0  0  0
 18 19  2  0  0  0  0
 22 23  2  0  0  0  0
 18 23  1  0  0  0  0
 17 18  1  0  0  0  0
 23 24  1  0  0  0  0
 15 16  2  0  0  0  0
 15 17  1  0  0  0  0
 14 15  1  0  0  0  0
  8 14  2  3  0  0  0
  7 14  1  0  0  0  0
 12 13  2  0  0  0  0
  8 13  1  0  0  0  0
 11 12  1  0  0  0  0
  8  9  1  0  0  0  0
  6  7  3  0  0  0  0
  5  6  1  0  0  0  0
  9 10  1  0  0  0  0
  2  5  1  0  0  0  0
  2  3  2  0  0  0  0
  1  2  1  0  0  0  0
  2  4  2  0  0  0  0
M  CHG  1  12  -1
M  END
> <Shapegauss>
-271.850159

$$$$
