stable:False satoms:11 tatoms:24 sratio:0.4583333333333333
  -OEChem-08062409343D

 32 33  0     0  0  0  0  0  0999 V2000
   -5.8582   -5.1304  -25.9722 Cl  0  0  0  0  0  0  0  0  0  0  0  0
   -7.6204   -4.5082  -25.8929 S   0  0  0  0  0  0  0  0  0  0  0  0
   -8.4745   -5.6301  -25.7527 O   0  0  0  0  0  0  0  0  0  0  0  0
   -7.8242   -3.7220  -27.0571 O   0  0  0  0  0  0  0  0  0  0  0  0
   -7.6725   -3.6746  -24.5468 N   0  0  0  0  0  0  0  0  0  0  0  0
   -8.4157   -2.9464  -24.0246 C   0  0  0  0  0  0  0  0  0  0  0  0
   -8.9499   -1.9975  -23.4080 C   0  0  0  0  0  0  0  0  0  0  0  0
  -10.5347   -0.9459  -23.4864 C   0  0  0  0  0  0  0  0  0  0  0  0
  -11.0107   -0.1154  -24.5618 C   0  0  0  0  0  0  0  0  0  0  0  0
  -11.6100    0.4297  -25.1738 O   0  0  0  0  0  0  0  0  0  0  0  0
  -12.7671   -0.3388  -24.0487 H   0  0  0  0  0  0  0  0  0  0  0  0
  -12.6758   -1.1778  -23.3747 C   0  0  0  0  0  0  0  0  0  0  0  0
  -11.7675   -1.4957  -23.0892 C   0  0  0  0  0  0  0  0  0  0  0  0
   -9.4158   -1.0120  -22.8177 C   0  0  0  0  0  0  0  0  0  0  0  0
   -8.9186    0.0053  -21.6556 C   0  0  0  0  0  0  0  0  0  0  0  0
   -9.5535    0.9471  -21.3896 O   0  0  0  0  0  0  0  0  0  0  0  0
   -7.8137   -0.4583  -21.1857 N   0  0  0  0  0  0  0  0  0  0  0  0
   -7.2036    0.0708  -20.2543 C   0  0  0  0  0  0  0  0  0  0  0  0
   -7.2657    0.2575  -18.9166 C   0  0  0  0  0  0  0  0  0  0  0  0
   -7.0466    0.5758  -17.7988 N   0  0  0  0  0  0  0  0  0  0  0  0
   -5.9719    1.1096  -18.2165 C   0  0  0  0  0  0  0  0  0  0  0  0
   -5.4397    1.1855  -19.3189 C   0  0  0  0  0  0  0  0  0  0  0  0
   -5.8249    0.7074  -20.5063 C   0  0  0  0  0  0  0  0  0  0  0  0
   -5.4033    0.7091  -21.4553 H   0  0  0  0  0  0  0  0  0  0  0  0
   -6.8419   -3.1211  -24.6083 H   0  0  0  0  0  0  0  0  0  0  0  0
  -10.2987    0.7016  -24.3733 H   0  0  0  0  0  0  0  0  0  0  0  0
  -10.6221   -0.7632  -25.3614 H   0  0  0  0  0  0  0  0  0  0  0  0
  -11.0925    0.7936  -25.8826 H   0  0  0  0  0  0  0  0  0  0  0  0
  -13.5618   -1.6747  -23.0079 H   0  0  0  0  0  0  0  0  0  0  0  0
  -11.7332   -2.3383  -22.4144 H   0  0  0  0  0  0  0  0  0  0  0  0
   -7.4322   -1.2868  -21.5955 H   0  0  0  0  0  0  0  0  0  0  0  0
   -4.5059    1.7279  -19.3325 H   0  0  0  0  0  0  0  0  0  0  0  0
 20 21  2  0  0  0  0
 19 20  1  0  0  0  0
 19 21  1  0  0  0  0
 21 22  1  0  0  0  0
 18 19  2  0  0  0  0
 22 23  2  0  0  0  0
 18 23  1  0  0  0  0
 17 18  1  0  0  0  0
 23 24  1  0  0  0  0
 15 16  2  0  0  0  0
 15 17  1  0  0  0  0
 14 15  1  0  0  0  0
  8 14  2  3  0  0  0
  7 14  1  0  0  0  0
 12 13  2  0  0  0  0
  8 13  1  0  0  0  0
 11 12  1  0  0  0  0
  8  9  1  0  0  0  0
  6  7  3  0  0  0  0
  5  6  1  0  0  0  0
  9 10  1  0  0  0  0
  2  5  1  0  0  0  0
  2  3  2  0  0  0  0
  1  2  1  0  0  0  0
  2  4  2  0  0  0  0
  5 25  1  0  0  0  0
  9 26  1  0  0  0  0
  9 27  1  0  0  0  0
 10 28  1  0  0  0  0
 12 29  1  0  0  0  0
 13 30  1  0  0  0  0
 17 31  1  0  0  0  0
 22 32  1  0  0  0  0
M  END
> <Chemgauss4>
-7.871433

$$$$
