stable:False satoms:11 tatoms:24 sratio:0.4583333333333333
  -OEChem-08062409343D

 32 33  0     0  0  0  0  0  0999 V2000
    5.9486   -5.2281   25.9484 Cl  0  0  0  0  0  0  0  0  0  0  0  0
    7.7108   -4.6059   25.8690 S   0  0  0  0  0  0  0  0  0  0  0  0
    8.5649   -5.7278   25.7288 O   0  0  0  0  0  0  0  0  0  0  0  0
    7.9146   -3.8197   27.0332 O   0  0  0  0  0  0  0  0  0  0  0  0
    7.7630   -3.7723   24.5229 N   0  0  0  0  0  0  0  0  0  0  0  0
    8.5061   -3.0441   24.0007 C   0  0  0  0  0  0  0  0  0  0  0  0
    9.0403   -2.0952   23.3842 C   0  0  0  0  0  0  0  0  0  0  0  0
   10.6252   -1.0436   23.4625 C   0  0  0  0  0  0  0  0  0  0  0  0
   11.1011   -0.2132   24.5379 C   0  0  0  0  0  0  0  0  0  0  0  0
   11.7005    0.3320   25.1500 O   0  0  0  0  0  0  0  0  0  0  0  0
   12.8576   -0.4366   24.0248 H   0  0  0  0  0  0  0  0  0  0  0  0
   12.7663   -1.2755   23.3508 C   0  0  0  0  0  0  0  0  0  0  0  0
   11.8579   -1.5935   23.0653 C   0  0  0  0  0  0  0  0  0  0  0  0
    9.5063   -1.1097   22.7939 C   0  0  0  0  0  0  0  0  0  0  0  0
    9.0091   -0.0924   21.6317 C   0  0  0  0  0  0  0  0  0  0  0  0
    9.6440    0.8494   21.3657 O   0  0  0  0  0  0  0  0  0  0  0  0
    7.9042   -0.5560   21.1618 N   0  0  0  0  0  0  0  0  0  0  0  0
    7.2941   -0.0269   20.2305 C   0  0  0  0  0  0  0  0  0  0  0  0
    7.3562    0.1598   18.8927 C   0  0  0  0  0  0  0  0  0  0  0  0
    7.1370    0.4781   17.7749 N   0  0  0  0  0  0  0  0  0  0  0  0
    6.0624    1.0119   18.1926 C   0  0  0  0  0  0  0  0  0  0  0  0
    5.5302    1.0877   19.2950 C   0  0  0  0  0  0  0  0  0  0  0  0
    5.9154    0.6097   20.4824 C   0  0  0  0  0  0  0  0  0  0  0  0
    5.4937    0.6114   21.4314 H   0  0  0  0  0  0  0  0  0  0  0  0
    6.9324   -3.2189   24.5844 H   0  0  0  0  0  0  0  0  0  0  0  0
   10.3891    0.6039   24.3494 H   0  0  0  0  0  0  0  0  0  0  0  0
   10.7125   -0.8610   25.3375 H   0  0  0  0  0  0  0  0  0  0  0  0
   11.1830    0.6958   25.8587 H   0  0  0  0  0  0  0  0  0  0  0  0
   13.6523   -1.7724   22.9841 H   0  0  0  0  0  0  0  0  0  0  0  0
   11.8237   -2.4360   22.3905 H   0  0  0  0  0  0  0  0  0  0  0  0
    7.5226   -1.3845   21.5717 H   0  0  0  0  0  0  0  0  0  0  0  0
    4.5964    1.6302   19.3086 H   0  0  0  0  0  0  0  0  0  0  0  0
 20 21  2  0  0  0  0
 19 20  1  0  0  0  0
 19 21  1  0  0  0  0
 21 22  1  0  0  0  0
 18 19  2  0  0  0  0
 22 23  2  0  0  0  0
 18 23  1  0  0  0  0
 17 18  1  0  0  0  0
 23 24  1  0  0  0  0
 15 16  2  0  0  0  0
 15 17  1  0  0  0  0
 14 15  1  0  0  0  0
  8 14  2  3  0  0  0
  7 14  1  0  0  0  0
 12 13  2  0  0  0  0
  8 13  1  0  0  0  0
 11 12  1  0  0  0  0
  8  9  1  0  0  0  0
  6  7  3  0  0  0  0
  5  6  1  0  0  0  0
  9 10  1  0  0  0  0
  2  5  1  0  0  0  0
  2  3  2  0  0  0  0
  1  2  1  0  0  0  0
  2  4  2  0  0  0  0
  5 25  1  0  0  0  0
  9 26  1  0  0  0  0
  9 27  1  0  0  0  0
 10 28  1  0  0  0  0
 12 29  1  0  0  0  0
 13 30  1  0  0  0  0
 17 31  1  0  0  0  0
 22 32  1  0  0  0  0
M  END
> <Chemgauss4>
-8.088721

$$$$
