stable:False satoms:19 tatoms:24 sratio:0.7916666666666666
  -OEChem-07092417383D

 24 23  0     0  0  0  0  0  0999 V2000
    7.1811   -4.8333   26.4161 F   0  0  0  0  0  0  0  0  0  0  0  0
    8.4614   -4.3130   26.1562 C   0  0  0  0  0  0  0  0  0  0  0  0
    9.1177   -5.2082   26.0318 H   0  0  0  0  0  0  0  0  0  0  0  0
    8.8207   -3.7374   27.1085 H   0  0  0  0  0  0  0  0  0  0  0  0
    8.3204   -3.5095   25.0267 N   0  0  0  0  0  0  0  0  0  0  0  0
    9.2568   -2.9051   24.4422 N   0  0  0  0  0  0  0  0  0  0  0  0
    9.4581   -2.0809   23.7112 C   0  0  0  0  0  0  0  0  0  0  0  0
   10.1837   -1.0327   23.2597 C   0  0  0  0  0  0  0  0  0  0  0  0
   11.0641   -0.6001   24.1498 O   0  0  0  0  0  0  0  0  0  0  0  0
   12.8483    0.0039   24.2064 H   0  0  0  0  0  0  0  0  0  0  0  0
   12.3452   -0.7378   23.4942 C   0  0  0  0  0  0  0  0  0  0  0  0
   12.8770   -0.6142   22.6170 H   0  0  0  0  0  0  0  0  0  0  0  0
   12.1897   -1.8446   23.1469 H   0  0  0  0  0  0  0  0  0  0  0  0
    9.8241   -0.4279   22.1863 C   0  0  0  0  0  0  0  0  0  0  0  0
    8.8733   -0.1768   21.3311 C   0  0  0  0  0  0  0  0  0  0  0  0
    8.8635    0.9030   20.4847 O   0  0  0  0  0  0  0  0  0  0  0  0
    8.0675   -1.0276   21.4073 O   0  0  0  0  0  0  0  0  0  0  0  0
    6.6328    0.5394   19.8771 C   0  0  0  0  0  0  0  0  0  0  0  0
    7.8004    0.6019   19.7497 C   0  0  0  0  0  0  0  0  0  0  0  0
    6.0305    0.5725   17.8756 H   0  0  0  0  0  0  0  0  0  0  0  0
    5.5948    0.7440   18.8434 C   0  0  0  0  0  0  0  0  0  0  0  0
    5.2247    1.7435   18.9615 H   0  0  0  0  0  0  0  0  0  0  0  0
    4.8044    0.0744   19.0955 H   0  0  0  0  0  0  0  0  0  0  0  0
    5.7435    0.5763   21.7180 Br  0  0  0  0  0  0  0  0  0  0  0  0
 20 21  1  0  0  0  0
 21 22  1  0  0  0  0
 21 23  1  0  0  0  0
 18 21  1  0  0  0  0
 18 19  2  0  0  0  0
 16 19  1  0  0  0  0
 18 24  1  0  0  0  0
 15 16  1  0  0  0  0
 15 17  2  0  0  0  0
 14 15  1  0  0  0  0
  8 14  2  0  0  0  0
 11 12  1  0  0  0  0
 11 13  1  0  0  0  0
  7  8  1  0  0  0  0
  8  9  1  0  0  0  0
  9 11  1  0  0  0  0
 10 11  1  0  0  0  0
  6  7  1  0  0  0  0
  5  6  2  0  0  0  0
  2  5  1  0  0  0  0
  2  3  1  0  0  0  0
  1  2  1  0  0  0  0
  2  4  1  0  0  0  0
M  END
> <Shapegauss>
-172.137085

$$$$
