stable:False satoms:19 tatoms:24 sratio:0.7916666666666666
  -OEChem-08062407063D

 28 27  0     0  0  0  0  0  0999 V2000
    6.8095   -2.0667   26.6211 F   0  0  0  0  0  0  0  0  0  0  0  0
    8.1263   -2.2690   26.1710 C   0  0  0  0  0  0  0  0  0  0  0  0
    8.0521   -3.0926   25.4201 H   0  0  0  0  0  0  0  0  0  0  0  0
    8.7619   -2.6627   27.0700 H   0  0  0  0  0  0  0  0  0  0  0  0
    8.5485   -1.0381   25.6731 N   0  0  0  0  0  0  0  0  0  0  0  0
    9.6601   -0.8170   25.1260 N   0  0  0  0  0  0  0  0  0  0  0  0
   10.3531    0.0125   24.8332 C   0  0  0  0  0  0  0  0  0  0  0  0
   11.5883    0.5396   24.6735 C   0  0  0  0  0  0  0  0  0  0  0  0
   12.5307   -0.1802   25.2637 O   0  0  0  0  0  0  0  0  0  0  0  0
   14.2833   -0.7821   24.9207 H   0  0  0  0  0  0  0  0  0  0  0  0
   13.4281   -0.5556   24.1942 C   0  0  0  0  0  0  0  0  0  0  0  0
   13.9236   -0.2455   23.3422 H   0  0  0  0  0  0  0  0  0  0  0  0
   12.5993   -0.9509   23.4684 H   0  0  0  0  0  0  0  0  0  0  0  0
   11.7148    1.7306   24.2122 C   0  0  0  0  0  0  0  0  0  0  0  0
   11.1590    2.8877   23.9867 C   0  0  0  0  0  0  0  0  0  0  0  0
   11.8567    4.0534   23.7947 O   0  0  0  0  0  0  0  0  0  0  0  0
    9.9938    2.7443   23.9617 O   0  0  0  0  0  0  0  0  0  0  0  0
    9.9237    5.3616   23.9664 C   0  0  0  0  0  0  0  0  0  0  0  0
   10.8578    4.8594   23.4578 C   0  0  0  0  0  0  0  0  0  0  0  0
    9.5059    6.8730   22.5840 H   0  0  0  0  0  0  0  0  0  0  0  0
    9.2732    6.6407   23.6076 C   0  0  0  0  0  0  0  0  0  0  0  0
    9.6335    7.3813   24.2944 H   0  0  0  0  0  0  0  0  0  0  0  0
    8.2347    6.4975   23.8016 H   0  0  0  0  0  0  0  0  0  0  0  0
    9.2483    4.7735   25.8046 Br  0  0  0  0  0  0  0  0  0  0  0  0
    9.9356    0.7963   25.4823 H   0  0  0  0  0  0  0  0  0  0  0  0
    9.9915    0.1573   23.8044 H   0  0  0  0  0  0  0  0  0  0  0  0
   12.7299    1.8082   23.8516 H   0  0  0  0  0  0  0  0  0  0  0  0
   10.9208    5.1335   22.4150 H   0  0  0  0  0  0  0  0  0  0  0  0
 20 21  1  0  0  0  0
 21 22  1  0  0  0  0
 21 23  1  0  0  0  0
 18 21  1  0  0  0  0
 18 19  2  0  0  0  0
 16 19  1  0  0  0  0
 18 24  1  0  0  0  0
 15 16  1  0  0  0  0
 15 17  2  0  0  0  0
 14 15  1  0  0  0  0
  8 14  2  0  0  0  0
 11 12  1  0  0  0  0
 11 13  1  0  0  0  0
  7  8  1  0  0  0  0
  8  9  1  0  0  0  0
  9 11  1  0  0  0  0
 10 11  1  0  0  0  0
  6  7  1  0  0  0  0
  5  6  2  0  0  0  0
  2  5  1  0  0  0  0
  2  3  1  0  0  0  0
  1  2  1  0  0  0  0
  2  4  1  0  0  0  0
  7 25  1  0  0  0  0
  7 26  1  0  0  0  0
 14 27  1  0  0  0  0
 19 28  1  0  0  0  0
M  END
> <Chemgauss4>
-6.326431

$$$$
