stable:False satoms:19 tatoms:24 sratio:0.7916666666666666
  -OEChem-08062407063D

 28 27  0     0  0  0  0  0  0999 V2000
   -6.8406   -3.0322  -25.0486 F   0  0  0  0  0  0  0  0  0  0  0  0
   -8.2303   -3.0843  -24.8399 C   0  0  0  0  0  0  0  0  0  0  0  0
   -8.3732   -3.8418  -24.0316 H   0  0  0  0  0  0  0  0  0  0  0  0
   -8.7290   -3.5018  -25.8116 H   0  0  0  0  0  0  0  0  0  0  0  0
   -8.6131   -1.7836  -24.5192 N   0  0  0  0  0  0  0  0  0  0  0  0
   -9.7780   -1.4240  -24.2072 N   0  0  0  0  0  0  0  0  0  0  0  0
  -10.4281   -0.5173  -24.1094 C   0  0  0  0  0  0  0  0  0  0  0  0
  -11.6144    0.1223  -24.2221 C   0  0  0  0  0  0  0  0  0  0  0  0
  -12.5008   -0.5663  -24.9253 O   0  0  0  0  0  0  0  0  0  0  0  0
  -14.3367   -0.9886  -24.8746 H   0  0  0  0  0  0  0  0  0  0  0  0
  -13.6084   -0.7704  -24.0188 C   0  0  0  0  0  0  0  0  0  0  0  0
  -14.2165   -0.3464  -23.2991 H   0  0  0  0  0  0  0  0  0  0  0  0
  -12.9664   -1.1673  -23.1243 H   0  0  0  0  0  0  0  0  0  0  0  0
  -11.7050    1.3557  -23.8789 C   0  0  0  0  0  0  0  0  0  0  0  0
  -11.0887    2.4781  -23.6365 C   0  0  0  0  0  0  0  0  0  0  0  0
  -11.6924    3.7099  -23.6625 O   0  0  0  0  0  0  0  0  0  0  0  0
   -9.9666    2.2416  -23.3835 O   0  0  0  0  0  0  0  0  0  0  0  0
   -9.6418    4.8335  -23.5620 C   0  0  0  0  0  0  0  0  0  0  0  0
  -10.6966    4.4571  -23.2028 C   0  0  0  0  0  0  0  0  0  0  0  0
   -9.3342    6.4212  -22.2375 H   0  0  0  0  0  0  0  0  0  0  0  0
   -8.9448    6.0809  -23.1801 C   0  0  0  0  0  0  0  0  0  0  0  0
   -9.1015    6.7854  -23.9733 H   0  0  0  0  0  0  0  0  0  0  0  0
   -7.9073    5.8358  -23.1654 H   0  0  0  0  0  0  0  0  0  0  0  0
   -8.7071    4.0316  -25.1944 Br  0  0  0  0  0  0  0  0  0  0  0  0
   -9.8261    0.1689  -24.7232 H   0  0  0  0  0  0  0  0  0  0  0  0
  -10.2452   -0.3128  -23.0442 H   0  0  0  0  0  0  0  0  0  0  0  0
  -12.7559    1.5485  -23.7213 H   0  0  0  0  0  0  0  0  0  0  0  0
  -10.9192    4.8264  -22.2126 H   0  0  0  0  0  0  0  0  0  0  0  0
 20 21  1  0  0  0  0
 21 22  1  0  0  0  0
 21 23  1  0  0  0  0
 18 21  1  0  0  0  0
 18 19  2  0  0  0  0
 16 19  1  0  0  0  0
 18 24  1  0  0  0  0
 15 16  1  0  0  0  0
 15 17  2  0  0  0  0
 14 15  1  0  0  0  0
  8 14  2  0  0  0  0
 11 12  1  0  0  0  0
 11 13  1  0  0  0  0
  7  8  1  0  0  0  0
  8  9  1  0  0  0  0
  9 11  1  0  0  0  0
 10 11  1  0  0  0  0
  6  7  1  0  0  0  0
  5  6  2  0  0  0  0
  2  5  1  0  0  0  0
  2  3  1  0  0  0  0
  1  2  1  0  0  0  0
  2  4  1  0  0  0  0
  7 25  1  0  0  0  0
  7 26  1  0  0  0  0
 14 27  1  0  0  0  0
 19 28  1  0  0  0  0
M  END
> <Chemgauss4>
-6.127795

$$$$
