stable:False satoms:22 tatoms:24 sratio:0.9166666666666666
  -OEChem-07092417363D

 24 22  0     0  0  0  0  0  0999 V2000
    7.3740   -4.2034   25.4332 H   0  0  0  0  0  0  0  0  0  0  0  0
    8.1923   -4.2254   26.0068 N   0  0  0  0  0  0  0  0  0  0  0  0
    9.0757   -4.4399   25.6110 H   0  0  0  0  0  0  0  0  0  0  0  0
    8.0140   -4.2669   26.9591 H   0  0  0  0  0  0  0  0  0  0  0  0
    8.3340   -2.7477   24.0076 O   0  0  0  0  0  0  0  0  0  0  0  0
    9.3433   -2.1077   24.1318 C   0  0  0  0  0  0  0  0  0  0  0  0
    9.9820   -1.1335   23.2417 C   0  0  0  0  0  0  0  0  0  0  0  0
    9.9362   -2.1835   25.0275 H   0  0  0  0  0  0  0  0  0  0  0  0
   11.2130   -0.5007   23.5697 C   0  0  0  0  0  0  0  0  0  0  0  0
   11.2550    0.1483   24.4041 H   0  0  0  0  0  0  0  0  0  0  0  0
   12.2923   -0.6504   22.7765 C   0  0  0  0  0  0  0  0  0  0  0  0
   13.2190   -0.1692   22.9244 H   0  0  0  0  0  0  0  0  0  0  0  0
   12.2179   -1.2945   21.9416 H   0  0  0  0  0  0  0  0  0  0  0  0
    9.4932   -0.7878   22.0841 C   0  0  0  0  0  0  0  0  0  0  0  0
    9.0714   -0.4258   21.0412 N   0  0  0  0  0  0  0  0  0  0  0  0
    8.0020    0.2618   20.6589 O   0  0  0  0  0  0  0  0  0  0  0  0
    6.6428   -1.2854   20.5242 H   0  0  0  0  0  0  0  0  0  0  0  0
    6.8726   -0.3188   20.0736 C   0  0  0  0  0  0  0  0  0  0  0  0
    9.6342   -0.1418   20.2499 H   0  0  0  0  0  0  0  0  0  0  0  0
    6.9749   -0.4406   18.9820 H   0  0  0  0  0  0  0  0  0  0  0  0
    4.8846    0.4269   19.8906 H   0  0  0  0  0  0  0  0  0  0  0  0
    6.0729    1.6726   19.9446 H   0  0  0  0  0  0  0  0  0  0  0  0
    5.7943    0.7189   20.3712 C   0  0  0  0  0  0  0  0  0  0  0  0
    5.6925    0.8043   21.4413 H   0  0  0  0  0  0  0  0  0  0  0  0
 18 20  1  0  0  0  0
 21 23  1  0  0  0  0
 22 23  1  0  0  0  0
 18 23  1  0  0  0  0
 17 18  1  0  0  0  0
 16 18  1  0  0  0  0
 15 19  1  0  0  0  0
 23 24  1  0  0  0  0
 15 16  1  0  0  0  0
 14 15  1  0  0  0  0
 11 13  1  0  0  0  0
  7 14  2  3  0  0  0
 11 12  1  0  0  0  0
  9 11  2  0  0  0  0
  7  9  1  0  0  0  0
  6  7  1  0  0  0  0
  9 10  1  0  0  0  0
  5  6  2  0  0  0  0
  6  8  1  0  0  0  0
  1  2  1  0  0  0  0
  2  3  1  0  0  0  0
  2  4  1  0  0  0  0
M  END
> <Shapegauss>
-122.418922

$$$$
