stable:False satoms:8 tatoms:24 sratio:0.3333333333333333
  -OEChem-08062414393D

 40 42  0     1  0  0  0  0  0999 V2000
   -6.4527   -5.1534  -26.0880 C   0  0  0  0  0  0  0  0  0  0  0  0
   -8.1397   -4.5329  -25.9285 S   0  0  0  0  0  0  0  0  0  0  0  0
   -9.0071   -5.6945  -25.9026 O   0  0  0  0  0  0  0  0  0  0  0  0
   -8.3700   -3.6609  -27.0237 O   0  0  0  0  0  0  0  0  0  0  0  0
   -8.1371   -3.7610  -24.5061 N   0  0  0  0  0  0  0  0  0  0  0  0
   -8.9868   -3.1161  -24.0990 C   0  0  0  0  0  0  0  0  0  0  0  0
   -9.4660   -2.1210  -23.5391 C   0  0  0  0  0  0  0  0  0  0  0  0
  -10.4013   -1.2307  -23.3385 C   0  0  1  0  0  0  0  0  0  0  0  0
  -10.9757   -0.1734  -24.5085 C   0  0  0  0  0  0  0  0  0  0  0  0
  -12.0321    0.1594  -24.5074 C   0  0  0  0  0  0  0  0  0  0  0  0
  -13.0976   -0.2059  -23.8101 C   0  0  0  0  0  0  0  0  0  0  0  0
  -12.7949   -1.2732  -22.9316 C   0  0  0  0  0  0  0  0  0  0  0  0
  -11.8894   -1.7590  -22.7064 C   0  0  0  0  0  0  0  0  0  0  0  0
   -9.7642   -0.7355  -22.4799 C   0  0  3  0  0  0  0  0  0  0  0  0
   -9.1860   -0.0008  -21.4580 C   0  0  0  0  0  0  0  0  0  0  0  0
   -9.6948    0.9770  -21.1338 O   0  0  0  0  0  0  0  0  0  0  0  0
   -8.0953   -0.6063  -21.0593 N   0  0  0  0  0  0  0  0  0  0  0  0
   -7.3942   -0.0707  -20.1348 C   0  0  0  0  0  0  0  0  0  0  0  0
   -7.4984    0.0843  -18.8363 C   0  0  0  0  0  0  0  0  0  0  0  0
   -7.1006    0.4321  -17.7232 N   0  0  0  0  0  0  0  0  0  0  0  0
   -5.9473    0.9383  -18.2157 C   0  0  0  0  0  0  0  0  0  0  0  0
   -5.5209    0.9801  -19.2828 C   0  0  0  0  0  0  0  0  0  0  0  0
   -6.0080    0.5345  -20.4424 C   0  0  0  0  0  0  0  0  0  0  0  0
   -5.3802    0.6088  -21.8786 Cl  0  0  0  0  0  0  0  0  0  0  0  0
   -6.3510   -5.7010  -27.0366 H   0  0  0  0  0  0  0  0  0  0  0  0
   -5.7486   -4.3084  -26.0752 H   0  0  0  0  0  0  0  0  0  0  0  0
   -6.2298   -5.8291  -25.2490 H   0  0  0  0  0  0  0  0  0  0  0  0
   -7.3388   -3.1594  -24.5337 H   0  0  0  0  0  0  0  0  0  0  0  0
   -9.8632   -3.7021  -24.3333 H   0  0  0  0  0  0  0  0  0  0  0  0
  -10.3051    0.1880  -25.2741 H   0  0  0  0  0  0  0  0  0  0  0  0
  -12.2355    0.9431  -25.2221 H   0  0  0  0  0  0  0  0  0  0  0  0
  -14.0716    0.2518  -23.9004 H   0  0  0  0  0  0  0  0  0  0  0  0
  -13.6488   -1.6592  -22.3947 H   0  0  0  0  0  0  0  0  0  0  0  0
  -11.7873   -1.7278  -21.6116 H   0  0  0  0  0  0  0  0  0  0  0  0
  -12.0100   -2.8022  -23.0339 H   0  0  0  0  0  0  0  0  0  0  0  0
  -10.2370   -1.3987  -21.7406 H   0  0  0  0  0  0  0  0  0  0  0  0
   -7.8157   -1.4735  -21.4714 H   0  0  0  0  0  0  0  0  0  0  0  0
   -8.4792   -0.3158  -18.6256 H   0  0  0  0  0  0  0  0  0  0  0  0
   -5.3087    1.3861  -17.4687 H   0  0  0  0  0  0  0  0  0  0  0  0
   -4.5586    1.4642  -19.3600 H   0  0  0  0  0  0  0  0  0  0  0  0
 20 21  2  0  0  0  0
 19 20  1  0  0  0  0
 21 22  1  0  0  0  0
 18 19  2  0  0  0  0
 22 23  2  0  0  0  0
 18 23  1  0  0  0  0
 17 18  1  0  0  0  0
 23 24  1  0  0  0  0
 15 16  2  0  0  0  0
 15 17  1  0  0  0  0
 14 15  1  0  0  0  0
  8 14  1  0  0  0  0
  7 14  1  0  0  0  0
 12 13  1  0  0  0  0
  8 13  1  0  0  0  0
 11 12  2  0  0  0  0
  7  8  1  0  0  0  0
  8  9  1  0  0  0  0
 10 11  1  0  0  0  0
  6  7  2  3  0  0  0
  5  6  1  0  0  0  0
  9 10  2  0  0  0  0
  2  5  1  0  0  0  0
  2  3  2  0  0  0  0
  1  2  1  0  0  0  0
  2  4  2  0  0  0  0
  1 25  1  0  0  0  0
  1 26  1  0  0  0  0
  1 27  1  0  0  0  0
  5 28  1  0  0  0  0
  6 29  1  0  0  0  0
  9 30  1  0  0  0  0
 10 31  1  0  0  0  0
 11 32  1  0  0  0  0
 12 33  1  0  0  0  0
 13 34  1  0  0  0  0
 13 35  1  0  0  0  0
 14 36  1  0  0  0  0
 17 37  1  0  0  0  0
 19 38  1  0  0  0  0
 21 39  1  0  0  0  0
 22 40  1  0  0  0  0
M  END
> <Chemgauss4>
-13.485477

$$$$
