stable:False satoms:16 tatoms:24 sratio:0.6666666666666666
  -OEChem-07092417403D

 24 24  0     1  0  0  0  0  0999 V2000
    6.7579   -4.6274   26.2714 F   0  0  0  0  0  0  0  0  0  0  0  0
    8.0339   -4.3725   25.9275 C   0  0  0  0  0  0  0  0  0  0  0  0
    8.7194   -5.4937   26.0801 F   0  0  0  0  0  0  0  0  0  0  0  0
    8.5339   -3.4759   26.8187 F   0  0  0  0  0  0  0  0  0  0  0  0
    8.0974   -3.8796   24.5907 N   0  3  0  0  0  0  0  0  0  0  0  0
    8.8137   -3.0546   24.1065 C   0  0  0  0  0  0  0  0  0  0  0  0
    9.4459   -2.2419   23.5172 C   0  0  0  0  0  0  0  0  0  0  0  0
   10.1450   -1.4378   22.7555 C   0  0  3  0  0  0  0  0  0  0  0  0
   11.2176   -0.1404   24.5577 H   0  0  0  0  0  0  0  0  0  0  0  0
   12.1627    0.3194   24.5261 N   0  0  0  0  0  0  0  0  0  0  0  0
   13.0086   -0.2109   23.7362 N   0  0  0  0  0  0  0  0  0  0  0  0
   12.6300   -1.1844   23.0088 N   0  0  0  0  0  0  0  0  0  0  0  0
   11.4320   -1.4297   22.6729 N   0  0  0  0  0  0  0  0  0  0  0  0
    9.2636   -0.7509   21.7565 C   0  3  0  0  0  0  0  0  0  0  0  0
    9.7471   -0.0842   21.0897 H   0  0  0  0  0  0  0  0  0  0  0  0
    8.5747    1.3555   19.9570 O   0  0  0  0  0  0  0  0  0  0  0  0
    7.9523   -0.9219   21.5818 N   0  3  0  0  0  0  0  0  0  0  0  0
    7.3273   -0.1265   20.5932 C   0  0  3  0  0  0  0  0  0  0  0  0
    7.6343    0.2425   18.5864 H   0  0  0  0  0  0  0  0  0  0  0  0
    7.6295    0.5131   19.5857 C   0  0  1  0  0  0  0  0  0  0  0  0
    5.4235    1.4152   18.4848 H   0  0  0  0  0  0  0  0  0  0  0  0
    5.3900    0.9811   19.3552 C   0  0  0  0  0  2  0  0  0  0  0  0
    6.0903    0.5626   20.3988 C   0  0  1  0  0  0  0  0  0  0  0  0
    5.5533    0.7527   21.3382 H   0  0  0  0  0  0  0  0  0  0  0  0
 21 22  1  0  0  0  0
 19 20  1  0  0  0  0
 22 23  1  0  0  0  0
 16 20  1  0  0  0  0
 20 23  1  0  0  0  0
 18 20  1  0  0  0  0
 18 23  1  0  0  0  0
 23 24  1  0  0  0  0
 17 18  1  0  0  0  0
 14 15  1  0  0  0  0
 14 17  1  0  0  0  0
  8 14  1  0  0  0  0
  8 13  1  0  0  0  0
 12 13  2  0  0  0  0
  7  8  1  0  0  0  0
 11 12  1  0  0  0  0
  6  7  3  0  0  0  0
 10 11  2  0  0  0  0
  5  6  1  0  0  0  0
  9 10  1  0  0  0  0
  2  5  1  0  0  0  0
  2  3  1  0  0  0  0
  1  2  1  0  0  0  0
  2  4  1  0  0  0  0
M  CHG  3   5   1  14   1  17   1
M  END
> <Shapegauss>
-198.468246

$$$$
