stable:False satoms:18 tatoms:24 sratio:0.75
  -OEChem-07092417333D

 24 26  0     1  0  0  0  0  0999 V2000
    6.8180   -0.6829   22.9096 H   0  0  0  0  0  0  0  0  0  0  0  0
    9.2790   -2.7124   23.7928 C   0  0  0  0  0  0  0  0  0  0  0  0
   11.1908   -1.3954   24.1250 H   0  0  0  0  0  0  0  0  0  0  0  0
    9.5480   -3.3682   24.7547 O   0  0  0  0  0  0  0  0  0  0  0  0
    6.0109   -2.6632   23.4892 H   0  0  0  0  0  0  0  0  0  0  0  0
   11.5571   -0.8430   23.2030 C   0  0  0  0  0  0  0  0  0  0  0  0
    7.5603   -3.2952   21.9464 C   0  0  0  0  0  0  0  0  0  0  0  0
    6.9738   -3.0649   23.4462 C   0  0  0  0  0  0  0  0  0  0  0  0
   11.5634    0.1303   23.5190 H   0  0  0  0  0  0  0  0  0  0  0  0
   12.2358   -1.4661   22.9927 H   0  0  0  0  0  0  0  0  0  0  0  0
    8.1679   -2.2428   23.0701 C   0  0  0  0  0  0  0  0  0  0  0  0
    8.4427   -3.3301   21.3366 H   0  0  0  0  0  0  0  0  0  0  0  0
    8.8925   -0.6683   22.3997 C   0  0  3  0  0  0  0  0  0  0  0  0
    7.1802   -3.7226   24.2195 H   0  0  0  0  0  0  0  0  0  0  0  0
    7.5575    1.1654   21.3302 C   0  0  0  0  0  0  0  0  0  0  0  0
    9.7398    1.5307   21.4118 O   0  0  0  0  0  0  0  0  0  0  0  0
    9.5764   -1.8661   22.7860 N   0  0  0  0  0  0  0  0  0  0  0  0
    7.6904    2.3597   20.9523 N   0  0  0  0  0  0  0  0  0  0  0  0
    6.6898   -3.4409   21.3244 H   0  0  0  0  0  0  0  0  0  0  0  0
   11.2494   -0.5793   21.9955 H   0  0  0  0  0  0  0  0  0  0  0  0
    6.2638    0.5892   21.0705 F   0  0  0  0  0  0  0  0  0  0  0  0
    8.8408    2.5719   20.9217 N   0  0  0  0  0  0  0  0  0  0  0  0
    7.6734   -0.9533   22.5059 N   0  0  0  0  0  0  0  0  0  0  0  0
    8.8824    0.6571   21.7940 C   0  0  0  0  0  0  0  0  0  0  0  0
 18 22  2  0  0  0  0
 16 22  1  0  0  0  0
 15 18  1  0  0  0  0
 15 21  1  0  0  0  0
  7 19  1  0  0  0  0
 15 24  2  0  0  0  0
  7 12  1  0  0  0  0
 16 24  1  0  0  0  0
 13 24  1  0  0  0  0
  7 11  1  0  0  0  0
  7  8  1  0  0  0  0
  6 20  1  0  0  0  0
 13 23  1  0  0  0  0
 13 17  1  0  0  0  0
  1 23  1  0  0  0  0
 11 23  1  0  0  0  0
 11 17  1  0  0  0  0
  2 17  1  0  0  0  0
  6 10  1  0  0  0  0
  8 11  1  0  0  0  0
  2 11  1  0  0  0  0
  6  9  1  0  0  0  0
  3  6  1  0  0  0  0
  5  8  1  0  0  0  0
  8 14  1  0  0  0  0
  2  4  2  0  0  0  0
M  END
> <Shapegauss>
-122.959282

$$$$
