MODEL 1
REMARK VINA RESULT:    -7.899      0.000      0.000
REMARK INTER + INTRA:         -10.629
REMARK INTER:                  -9.747
REMARK INTRA:                  -0.882
REMARK UNBOUND:                -0.882
REMARK  4 active torsions:
REMARK  status: ('A' for Active; 'I' for Inactive)
REMARK    1  A    between atoms: S_2  and  N_5 
REMARK    2  A    between atoms: N_5  and  C_7 
REMARK    3  A    between atoms: C_15  and  C_16 
REMARK       I    between atoms: C_16  and  N_18 
REMARK    4  A    between atoms: N_18  and  C_20 
ROOT
HETATM    1  C   UNL     1       8.706   0.860  22.143  1.00  0.00     0.109 C 
HETATM    2  C   UNL     1       9.203   0.067  22.959  1.00  0.00    -0.008 A 
HETATM    3  C   UNL     1      10.187  -0.492  23.523  1.00  0.00     0.058 A 
HETATM    4  C   UNL     1      11.410  -1.483  22.688  1.00  0.00    -0.003 C 
HETATM    5  C   UNL     1      12.396  -1.501  23.007  1.00  0.00    -0.002 C 
HETATM    6  C   UNL     1      13.118  -0.727  24.013  1.00  0.00    -0.001 C 
HETATM    7  C   UNL     1      12.264   0.241  24.592  1.00  0.00    -0.002 C 
HETATM    8  C   UNL     1      11.260   0.471  24.462  1.00  0.00    -0.003 C 
HETATM    9  C   UNL     1       9.529  -1.111  24.230  1.00  0.00     0.040 A 
ENDROOT
BRANCH   9  10
HETATM   10  C   UNL     1       8.808  -1.889  25.160  1.00  0.00     0.254 C 
HETATM   11  O   UNL     1       8.476  -1.386  26.149  1.00  0.00    -0.268 OA
HETATM   12  N   UNL     1       8.638  -3.112  24.740  1.00  0.00    -0.321 N 
ATOM     13  HN  UNL     1       9.019  -3.382  23.833  1.00  0.00     0.169 HD
BRANCH  12  14
HETATM   14  C   UNL     1       8.026  -3.957  25.415  1.00  0.00     0.056 A 
HETATM   15  C   UNL     1       8.339  -4.824  26.370  1.00  0.00     0.117 A 
HETATM   16  N   UNL     1       8.067  -5.731  27.136  1.00  0.00    -0.373 N 
HETATM   17  C   UNL     1       6.695  -5.784  26.829  1.00  0.00     0.088 A 
ATOM     18  HN  UNL     1       8.641  -6.272  27.783  1.00  0.00     0.164 HD
HETATM   19  C   UNL     1       6.096  -5.154  26.030  1.00  0.00     0.026 A 
HETATM   20  C   UNL     1       6.485  -4.174  25.197  1.00  0.00    -0.033 A 
HETATM   21  C   UNL     1       5.664  -3.383  24.136  1.00  0.00     0.050 C 
ENDBRANCH  12  14
ENDBRANCH   9  10
BRANCH   1  22
HETATM   22  N   UNL     1       7.863   1.228  21.381  1.00  0.00    -0.295 N 
ATOM     23  HN  UNL     1       7.579   2.206  21.443  1.00  0.00     0.177 HD
BRANCH  22  24
HETATM   24  S   UNL     1       7.125   0.319  20.257  1.00  0.00     0.226 S 
HETATM   25  C   UNL     1       5.720   1.202  19.799  1.00  0.00     0.186 C 
HETATM   26  O   UNL     1       7.962   0.187  19.106  1.00  0.00    -0.206 OA
HETATM   27  O   UNL     1       6.710  -0.922  20.806  1.00  0.00    -0.206 OA
ENDBRANCH  22  24
ENDBRANCH   1  22
TORSDOF 4
ENDMDL
MODEL 2
REMARK VINA RESULT:    -7.800      2.558      5.970
REMARK INTER + INTRA:         -10.507
REMARK INTER:                  -9.769
REMARK INTRA:                  -0.738
REMARK UNBOUND:                -0.882
REMARK  4 active torsions:
REMARK  status: ('A' for Active; 'I' for Inactive)
REMARK    1  A    between atoms: S_2  and  N_5 
REMARK    2  A    between atoms: N_5  and  C_7 
REMARK    3  A    between atoms: C_15  and  C_16 
REMARK       I    between atoms: C_16  and  N_18 
REMARK    4  A    between atoms: N_18  and  C_20 
ROOT
HETATM    1  C   UNL     1       8.572  -3.385  24.035  1.00  0.00     0.109 C 
HETATM    2  C   UNL     1       8.956  -2.328  23.509  1.00  0.00    -0.008 A 
HETATM    3  C   UNL     1       9.735  -1.336  23.424  1.00  0.00     0.058 A 
HETATM    4  C   UNL     1       9.965  -0.111  24.698  1.00  0.00    -0.003 C 
HETATM    5  C   UNL     1      10.882   0.350  24.841  1.00  0.00    -0.002 C 
HETATM    6  C   UNL     1      12.201   0.117  24.259  1.00  0.00    -0.001 C 
HETATM    7  C   UNL     1      12.158  -0.989  23.376  1.00  0.00    -0.002 C 
HETATM    8  C   UNL     1      11.393  -1.614  23.058  1.00  0.00    -0.003 C 
HETATM    9  C   UNL     1       9.216  -0.910  22.494  1.00  0.00     0.040 A 
ENDROOT
BRANCH   9  10
HETATM   10  C   UNL     1       8.666  -0.325  21.334  1.00  0.00     0.254 C 
HETATM   11  O   UNL     1       9.364   0.306  20.660  1.00  0.00    -0.268 OA
HETATM   12  N   UNL     1       7.395  -0.591  21.214  1.00  0.00    -0.321 N 
ATOM     13  HN  UNL     1       6.938  -1.162  21.925  1.00  0.00     0.169 HD
BRANCH  12  14
HETATM   14  C   UNL     1       6.725  -0.167  20.257  1.00  0.00     0.056 A 
HETATM   15  C   UNL     1       6.377  -0.623  19.060  1.00  0.00     0.117 A 
HETATM   16  N   UNL     1       5.849  -0.499  17.970  1.00  0.00    -0.373 N 
HETATM   17  C   UNL     1       5.307   0.778  18.205  1.00  0.00     0.088 A 
ATOM     18  HN  UNL     1       5.812  -1.114  17.157  1.00  0.00     0.164 HD
HETATM   19  C   UNL     1       5.427   1.461  19.161  1.00  0.00     0.026 A 
HETATM   20  C   UNL     1       6.058   1.254  20.330  1.00  0.00    -0.033 A 
HETATM   21  C   UNL     1       6.213   2.196  21.560  1.00  0.00     0.050 C 
ENDBRANCH  12  14
ENDBRANCH   9  10
BRANCH   1  22
HETATM   22  N   UNL     1       7.746  -4.185  24.357  1.00  0.00    -0.295 N 
ATOM     23  HN  UNL     1       7.674  -4.401  25.352  1.00  0.00     0.177 HD
BRANCH  22  24
HETATM   24  S   UNL     1       6.727  -4.963  23.361  1.00  0.00     0.226 S 
HETATM   25  C   UNL     1       5.772  -3.733  22.626  1.00  0.00     0.186 C 
HETATM   26  O   UNL     1       7.460  -5.630  22.332  1.00  0.00    -0.206 OA
HETATM   27  O   UNL     1       5.862  -5.817  24.093  1.00  0.00    -0.206 OA
ENDBRANCH  22  24
ENDBRANCH   1  22
TORSDOF 4
ENDMDL
MODEL 3
REMARK VINA RESULT:    -7.349      3.282      7.104
REMARK INTER + INTRA:          -9.949
REMARK INTER:                  -9.259
REMARK INTRA:                  -0.691
REMARK UNBOUND:                -0.882
REMARK  4 active torsions:
REMARK  status: ('A' for Active; 'I' for Inactive)
REMARK    1  A    between atoms: S_2  and  N_5 
REMARK    2  A    between atoms: N_5  and  C_7 
REMARK    3  A    between atoms: C_15  and  C_16 
REMARK       I    between atoms: C_16  and  N_18 
REMARK    4  A    between atoms: N_18  and  C_20 
ROOT
HETATM    1  C   UNL     1       6.360  -3.968  26.032  1.00  0.00     0.109 C 
HETATM    2  C   UNL     1       6.897  -3.796  24.926  1.00  0.00    -0.008 A 
HETATM    3  C   UNL     1       7.046  -4.061  23.699  1.00  0.00     0.058 A 
HETATM    4  C   UNL     1       7.550  -5.645  23.054  1.00  0.00    -0.003 C 
HETATM    5  C   UNL     1       7.201  -5.988  22.141  1.00  0.00    -0.002 C 
HETATM    6  C   UNL     1       6.191  -5.476  21.218  1.00  0.00    -0.001 C 
HETATM    7  C   UNL     1       5.582  -4.317  21.753  1.00  0.00    -0.002 C 
HETATM    8  C   UNL     1       5.735  -3.772  22.623  1.00  0.00    -0.003 C 
HETATM    9  C   UNL     1       7.842  -3.250  23.541  1.00  0.00     0.040 A 
ENDROOT
BRANCH   9  10
HETATM   10  C   UNL     1       8.802  -2.262  23.240  1.00  0.00     0.254 C 
HETATM   11  O   UNL     1       8.877  -1.890  22.146  1.00  0.00    -0.268 OA
HETATM   12  N   UNL     1       9.493  -1.921  24.293  1.00  0.00    -0.321 N 
ATOM     13  HN  UNL     1       9.291  -2.372  25.186  1.00  0.00     0.169 HD
BRANCH  12  14
HETATM   14  C   UNL     1      10.390  -1.063  24.239  1.00  0.00     0.056 A 
HETATM   15  C   UNL     1      11.677  -1.048  23.915  1.00  0.00     0.117 A 
HETATM   16  N   UNL     1      12.755  -0.492  23.802  1.00  0.00    -0.373 N 
HETATM   17  C   UNL     1      12.304   0.793  24.158  1.00  0.00     0.088 A 
ATOM     18  HN  UNL     1      13.676  -0.841  23.539  1.00  0.00     0.164 HD
HETATM   19  C   UNL     1      11.222   1.122  24.499  1.00  0.00     0.026 A 
HETATM   20  C   UNL     1      10.078   0.429  24.622  1.00  0.00    -0.033 A 
HETATM   21  C   UNL     1       8.673   0.900  25.101  1.00  0.00     0.050 C 
ENDBRANCH  12  14
ENDBRANCH   9  10
BRANCH   1  22
HETATM   22  N   UNL     1       6.343  -3.980  27.227  1.00  0.00    -0.295 N 
ATOM     23  HN  UNL     1       6.335  -3.075  27.697  1.00  0.00     0.177 HD
BRANCH  22  24
HETATM   24  S   UNL     1       6.333  -5.300  28.171  1.00  0.00     0.226 S 
HETATM   25  C   UNL     1       5.071  -6.297  27.558  1.00  0.00     0.186 C 
HETATM   26  O   UNL     1       7.565  -6.010  28.035  1.00  0.00    -0.206 OA
HETATM   27  O   UNL     1       6.016  -4.957  29.511  1.00  0.00    -0.206 OA
ENDBRANCH  22  24
ENDBRANCH   1  22
TORSDOF 4
ENDMDL
MODEL 4
REMARK VINA RESULT:    -7.142      3.465      7.542
REMARK INTER + INTRA:          -9.695
REMARK INTER:                  -8.974
REMARK INTRA:                  -0.720
REMARK UNBOUND:                -0.882
REMARK  4 active torsions:
REMARK  status: ('A' for Active; 'I' for Inactive)
REMARK    1  A    between atoms: S_2  and  N_5 
REMARK    2  A    between atoms: N_5  and  C_7 
REMARK    3  A    between atoms: C_15  and  C_16 
REMARK       I    between atoms: C_16  and  N_18 
REMARK    4  A    between atoms: N_18  and  C_20 
ROOT
HETATM    1  C   UNL     1       7.131  -5.394  26.818  1.00  0.00     0.109 C 
HETATM    2  C   UNL     1       7.361  -4.516  25.969  1.00  0.00    -0.008 A 
HETATM    3  C   UNL     1       7.221  -4.002  24.823  1.00  0.00     0.058 A 
HETATM    4  C   UNL     1       7.672  -4.791  23.290  1.00  0.00    -0.003 C 
HETATM    5  C   UNL     1       7.136  -4.621  22.420  1.00  0.00    -0.002 C 
HETATM    6  C   UNL     1       5.891  -3.905  22.156  1.00  0.00    -0.001 C 
HETATM    7  C   UNL     1       5.344  -3.412  23.365  1.00  0.00    -0.002 C 
HETATM    8  C   UNL     1       5.665  -3.439  24.352  1.00  0.00    -0.003 C 
HETATM    9  C   UNL     1       7.885  -3.097  25.063  1.00  0.00     0.040 A 
ENDROOT
BRANCH   9  10
HETATM   10  C   UNL     1       8.659  -1.937  25.272  1.00  0.00     0.254 C 
HETATM   11  O   UNL     1       8.973  -1.680  26.356  1.00  0.00    -0.268 OA
HETATM   12  N   UNL     1       8.893  -1.303  24.156  1.00  0.00    -0.321 N 
ATOM     13  HN  UNL     1       8.519  -1.679  23.285  1.00  0.00     0.169 HD
BRANCH  12  14
HETATM   14  C   UNL     1       9.560  -0.255  24.126  1.00  0.00     0.056 A 
HETATM   15  C   UNL     1       9.350   1.018  24.438  1.00  0.00     0.117 A 
HETATM   16  N   UNL     1       9.690   2.186  24.492  1.00  0.00    -0.373 N 
HETATM   17  C   UNL     1      11.002   1.986  24.023  1.00  0.00     0.088 A 
ATOM     18  HN  UNL     1       9.192   3.028  24.780  1.00  0.00     0.164 HD
HETATM   19  C   UNL     1      11.506   0.982  23.660  1.00  0.00     0.026 A 
HETATM   20  C   UNL     1      11.044  -0.279  23.609  1.00  0.00    -0.033 A 
HETATM   21  C   UNL     1      11.737  -1.576  23.098  1.00  0.00     0.050 C 
ENDBRANCH  12  14
ENDBRANCH   9  10
BRANCH   1  22
HETATM   22  N   UNL     1       7.413  -6.083  27.752  1.00  0.00    -0.295 N 
ATOM     23  HN  UNL     1       8.378  -6.406  27.812  1.00  0.00     0.177 HD
BRANCH  22  24
HETATM   24  S   UNL     1       6.404  -6.553  28.933  1.00  0.00     0.226 S 
HETATM   25  C   UNL     1       4.850  -6.656  28.199  1.00  0.00     0.186 C 
HETATM   26  O   UNL     1       6.763  -7.857  29.395  1.00  0.00    -0.206 OA
HETATM   27  O   UNL     1       6.345  -5.578  29.962  1.00  0.00    -0.206 OA
ENDBRANCH  22  24
ENDBRANCH   1  22
TORSDOF 4
ENDMDL
MODEL 5
REMARK VINA RESULT:    -6.885     14.039     16.539
REMARK INTER + INTRA:          -9.378
REMARK INTER:                  -8.558
REMARK INTRA:                  -0.820
REMARK UNBOUND:                -0.882
REMARK  4 active torsions:
REMARK  status: ('A' for Active; 'I' for Inactive)
REMARK    1  A    between atoms: S_2  and  N_5 
REMARK    2  A    between atoms: N_5  and  C_7 
REMARK    3  A    between atoms: C_15  and  C_16 
REMARK       I    between atoms: C_16  and  N_18 
REMARK    4  A    between atoms: N_18  and  C_20 
ROOT
HETATM    1  C   UNL     1      24.387  -3.918  24.603  1.00  0.00     0.109 C 
HETATM    2  C   UNL     1      23.980  -2.953  23.934  1.00  0.00    -0.008 A 
HETATM    3  C   UNL     1      23.323  -1.883  23.795  1.00  0.00     0.058 A 
HETATM    4  C   UNL     1      21.560  -1.736  24.014  1.00  0.00    -0.003 C 
HETATM    5  C   UNL     1      21.136  -0.866  24.383  1.00  0.00    -0.002 C 
HETATM    6  C   UNL     1      21.717   0.353  24.939  1.00  0.00    -0.001 C 
HETATM    7  C   UNL     1      23.126   0.241  24.997  1.00  0.00    -0.002 C 
HETATM    8  C   UNL     1      23.792  -0.499  24.702  1.00  0.00    -0.003 C 
HETATM    9  C   UNL     1      23.643  -1.737  22.703  1.00  0.00     0.040 A 
ENDROOT
BRANCH   9  10
HETATM   10  C   UNL     1      24.004  -1.454  21.369  1.00  0.00     0.254 C 
HETATM   11  O   UNL     1      24.992  -0.880  21.183  1.00  0.00    -0.268 OA
HETATM   12  N   UNL     1      23.115  -1.895  20.523  1.00  0.00    -0.321 N 
ATOM     13  HN  UNL     1      22.288  -2.374  20.877  1.00  0.00     0.169 HD
BRANCH  12  14
HETATM   14  C   UNL     1      23.249  -1.746  19.296  1.00  0.00     0.056 A 
HETATM   15  C   UNL     1      22.916  -0.819  18.406  1.00  0.00     0.117 A 
HETATM   16  N   UNL     1      22.838  -0.396  17.267  1.00  0.00    -0.373 N 
HETATM   17  C   UNL     1      23.522  -1.465  16.658  1.00  0.00     0.088 A 
ATOM     18  HN  UNL     1      22.418   0.450  16.882  1.00  0.00     0.164 HD
HETATM   19  C   UNL     1      23.948  -2.444  17.162  1.00  0.00     0.026 A 
HETATM   20  C   UNL     1      23.971  -2.850  18.442  1.00  0.00    -0.033 A 
HETATM   21  C   UNL     1      24.524  -4.168  19.062  1.00  0.00     0.050 C 
ENDBRANCH  12  14
ENDBRANCH   9  10
BRANCH   1  22
HETATM   22  N   UNL     1      24.742  -5.049  24.750  1.00  0.00    -0.295 N 
ATOM     23  HN  UNL     1      25.274  -5.468  23.987  1.00  0.00     0.177 HD
BRANCH  22  24
HETATM   24  S   UNL     1      24.458  -5.981  26.048  1.00  0.00     0.226 S 
HETATM   25  C   UNL     1      26.001  -6.269  26.755  1.00  0.00     0.186 C 
HETATM   26  O   UNL     1      23.661  -5.271  26.997  1.00  0.00    -0.206 OA
HETATM   27  O   UNL     1      23.908  -7.230  25.659  1.00  0.00    -0.206 OA
ENDBRANCH  22  24
ENDBRANCH   1  22
TORSDOF 4
ENDMDL
MODEL 6
REMARK VINA RESULT:    -6.856      1.774      2.025
REMARK INTER + INTRA:          -9.342
REMARK INTER:                  -8.657
REMARK INTRA:                  -0.686
REMARK UNBOUND:                -0.882
REMARK  4 active torsions:
REMARK  status: ('A' for Active; 'I' for Inactive)
REMARK    1  A    between atoms: S_2  and  N_5 
REMARK    2  A    between atoms: N_5  and  C_7 
REMARK    3  A    between atoms: C_15  and  C_16 
REMARK       I    between atoms: C_16  and  N_18 
REMARK    4  A    between atoms: N_18  and  C_20 
ROOT
HETATM    1  C   UNL     1       7.259   0.270  22.226  1.00  0.00     0.109 C 
HETATM    2  C   UNL     1       7.901  -0.600  22.838  1.00  0.00    -0.008 A 
HETATM    3  C   UNL     1       8.966  -1.068  23.330  1.00  0.00     0.058 A 
HETATM    4  C   UNL     1      10.433  -1.462  22.396  1.00  0.00    -0.003 C 
HETATM    5  C   UNL     1      11.377  -1.354  22.809  1.00  0.00    -0.002 C 
HETATM    6  C   UNL     1      11.841  -0.779  24.069  1.00  0.00    -0.001 C 
HETATM    7  C   UNL     1      10.749  -0.246  24.794  1.00  0.00    -0.002 C 
HETATM    8  C   UNL     1       9.726  -0.219  24.620  1.00  0.00    -0.003 C 
HETATM    9  C   UNL     1       8.452  -2.002  23.754  1.00  0.00     0.040 A 
ENDROOT
BRANCH   9  10
HETATM   10  C   UNL     1       7.906  -3.165  24.338  1.00  0.00     0.254 C 
HETATM   11  O   UNL     1       8.557  -3.750  25.096  1.00  0.00    -0.268 OA
HETATM   12  N   UNL     1       6.704  -3.410  23.895  1.00  0.00    -0.321 N 
ATOM     13  HN  UNL     1       6.290  -2.780  23.208  1.00  0.00     0.169 HD
BRANCH  12  14
HETATM   14  C   UNL     1       6.049  -4.391  24.288  1.00  0.00     0.056 A 
HETATM   15  C   UNL     1       5.338  -4.692  25.367  1.00  0.00     0.117 A 
HETATM   16  N   UNL     1       4.683  -5.461  26.047  1.00  0.00    -0.373 N 
HETATM   17  C   UNL     1       4.675  -6.520  25.119  1.00  0.00     0.088 A 
ATOM     18  HN  UNL     1       4.275  -5.370  26.978  1.00  0.00     0.164 HD
HETATM   19  C   UNL     1       5.209  -6.577  24.068  1.00  0.00     0.026 A 
HETATM   20  C   UNL     1       5.945  -5.678  23.392  1.00  0.00    -0.033 A 
HETATM   21  C   UNL     1       6.655  -5.804  22.012  1.00  0.00     0.050 C 
ENDBRANCH  12  14
ENDBRANCH   9  10
BRANCH   1  22
HETATM   22  N   UNL     1       6.386   0.652  21.507  1.00  0.00    -0.295 N 
ATOM     23  HN  UNL     1       5.658   1.228  21.931  1.00  0.00     0.177 HD
BRANCH  22  24
HETATM   24  S   UNL     1       6.246   0.341  19.920  1.00  0.00     0.226 S 
HETATM   25  C   UNL     1       5.094   1.475  19.327  1.00  0.00     0.186 C 
HETATM   26  O   UNL     1       7.490   0.587  19.261  1.00  0.00    -0.206 OA
HETATM   27  O   UNL     1       5.734  -0.965  19.707  1.00  0.00    -0.206 OA
ENDBRANCH  22  24
ENDBRANCH   1  22
TORSDOF 4
ENDMDL
MODEL 7
REMARK VINA RESULT:    -6.460      3.890      6.562
REMARK INTER + INTRA:          -8.853
REMARK INTER:                  -8.152
REMARK INTRA:                  -0.701
REMARK UNBOUND:                -0.882
REMARK  4 active torsions:
REMARK  status: ('A' for Active; 'I' for Inactive)
REMARK    1  A    between atoms: S_2  and  N_5 
REMARK    2  A    between atoms: N_5  and  C_7 
REMARK    3  A    between atoms: C_15  and  C_16 
REMARK       I    between atoms: C_16  and  N_18 
REMARK    4  A    between atoms: N_18  and  C_20 
ROOT
HETATM    1  C   UNL     1       7.517   1.692  25.736  1.00  0.00     0.109 C 
HETATM    2  C   UNL     1       8.196   1.398  24.738  1.00  0.00    -0.008 A 
HETATM    3  C   UNL     1       9.233   0.933  24.186  1.00  0.00     0.058 A 
HETATM    4  C   UNL     1      10.879   1.583  24.402  1.00  0.00    -0.003 C 
HETATM    5  C   UNL     1      11.708   0.962  24.383  1.00  0.00    -0.002 C 
HETATM    6  C   UNL     1      11.848  -0.491  24.338  1.00  0.00    -0.001 C 
HETATM    7  C   UNL     1      10.575  -1.107  24.374  1.00  0.00    -0.002 C 
HETATM    8  C   UNL     1       9.606  -0.734  24.393  1.00  0.00    -0.003 C 
HETATM    9  C   UNL     1       8.834   1.095  23.123  1.00  0.00     0.040 A 
ENDROOT
BRANCH   9  10
HETATM   10  C   UNL     1       8.419   1.225  21.781  1.00  0.00     0.254 C 
HETATM   11  O   UNL     1       9.112   1.796  21.050  1.00  0.00    -0.268 OA
HETATM   12  N   UNL     1       7.259   0.666  21.576  1.00  0.00    -0.321 N 
ATOM     13  HN  UNL     1       6.782   0.212  22.356  1.00  0.00     0.169 HD
BRANCH  12  14
HETATM   14  C   UNL     1       6.718   0.670  20.457  1.00  0.00     0.056 A 
HETATM   15  C   UNL     1       6.896   0.029  19.309  1.00  0.00     0.117 A 
HETATM   16  N   UNL     1       6.640  -0.174  18.136  1.00  0.00    -0.373 N 
HETATM   17  C   UNL     1       5.558   0.721  18.057  1.00  0.00     0.088 A 
ATOM     18  HN  UNL     1       7.067  -0.789  17.443  1.00  0.00     0.164 HD
HETATM   19  C   UNL     1       5.140   1.442  18.893  1.00  0.00     0.026 A 
HETATM   20  C   UNL     1       5.502   1.625  20.174  1.00  0.00    -0.033 A 
HETATM   21  C   UNL     1       4.937   2.610  21.240  1.00  0.00     0.050 C 
ENDBRANCH  12  14
ENDBRANCH   9  10
BRANCH   1  22
HETATM   22  N   UNL     1       6.717   2.347  26.335  1.00  0.00    -0.295 N 
ATOM     23  HN  UNL     1       6.185   3.031  25.797  1.00  0.00     0.177 HD
BRANCH  22  24
HETATM   24  S   UNL     1       6.399   2.252  27.923  1.00  0.00     0.226 S 
HETATM   25  C   UNL     1       4.684   2.159  28.045  1.00  0.00     0.186 C 
HETATM   26  O   UNL     1       6.948   1.048  28.462  1.00  0.00    -0.206 OA
HETATM   27  O   UNL     1       6.828   3.426  28.594  1.00  0.00    -0.206 OA
ENDBRANCH  22  24
ENDBRANCH   1  22
TORSDOF 4
ENDMDL
MODEL 8
REMARK VINA RESULT:    -6.270     24.982     28.656
REMARK INTER + INTRA:          -8.618
REMARK INTER:                  -7.853
REMARK INTRA:                  -0.766
REMARK UNBOUND:                -0.882
REMARK  4 active torsions:
REMARK  status: ('A' for Active; 'I' for Inactive)
REMARK    1  A    between atoms: S_2  and  N_5 
REMARK    2  A    between atoms: N_5  and  C_7 
REMARK    3  A    between atoms: C_15  and  C_16 
REMARK       I    between atoms: C_16  and  N_18 
REMARK    4  A    between atoms: N_18  and  C_20 
ROOT
HETATM    1  C   UNL     1       8.690  14.722   2.575  1.00  0.00     0.109 C 
HETATM    2  C   UNL     1       8.999  15.926   2.571  1.00  0.00    -0.008 A 
HETATM    3  C   UNL     1       8.916  17.102   2.119  1.00  0.00     0.058 A 
HETATM    4  C   UNL     1       9.327  17.584   0.453  1.00  0.00    -0.003 C 
HETATM    5  C   UNL     1       8.818  18.349  -0.026  1.00  0.00    -0.002 C 
HETATM    6  C   UNL     1       7.636  19.124   0.341  1.00  0.00    -0.001 C 
HETATM    7  C   UNL     1       7.111  18.664   1.571  1.00  0.00    -0.002 C 
HETATM    8  C   UNL     1       7.415  17.934   2.244  1.00  0.00    -0.003 C 
HETATM    9  C   UNL     1       9.644  17.534   2.893  1.00  0.00     0.040 A 
ENDROOT
BRANCH   9  10
HETATM   10  C   UNL     1      10.502  18.163   3.819  1.00  0.00     0.254 C 
HETATM   11  O   UNL     1      11.249  17.501   4.405  1.00  0.00    -0.268 OA
HETATM   12  N   UNL     1      10.293  19.450   3.877  1.00  0.00    -0.321 N 
ATOM     13  HN  UNL     1       9.572  19.862   3.285  1.00  0.00     0.169 HD
BRANCH  12  14
HETATM   14  C   UNL     1      10.949  20.186   4.634  1.00  0.00     0.056 A 
HETATM   15  C   UNL     1      12.084  20.868   4.553  1.00  0.00     0.117 A 
HETATM   16  N   UNL     1      12.960  21.567   5.031  1.00  0.00    -0.373 N 
HETATM   17  C   UNL     1      12.351  21.739   6.288  1.00  0.00     0.088 A 
ATOM     18  HN  UNL     1      13.841  21.912   4.649  1.00  0.00     0.164 HD
HETATM   19  C   UNL     1      11.342  21.271   6.684  1.00  0.00     0.026 A 
HETATM   20  C   UNL     1      10.434  20.478   6.090  1.00  0.00    -0.033 A 
HETATM   21  C   UNL     1       9.123  19.860   6.660  1.00  0.00     0.050 C 
ENDBRANCH  12  14
ENDBRANCH   9  10
BRANCH   1  22
HETATM   22  N   UNL     1       8.904  13.560   2.748  1.00  0.00    -0.295 N 
ATOM     23  HN  UNL     1       9.805  13.204   2.430  1.00  0.00     0.177 HD
BRANCH  22  24
HETATM   24  S   UNL     1       7.896  12.494   3.442  1.00  0.00     0.226 S 
HETATM   25  C   UNL     1       6.851  13.429   4.441  1.00  0.00     0.186 C 
HETATM   26  O   UNL     1       7.099  11.852   2.445  1.00  0.00    -0.206 OA
HETATM   27  O   UNL     1       8.611  11.592   4.271  1.00  0.00    -0.206 OA
ENDBRANCH  22  24
ENDBRANCH   1  22
TORSDOF 4
ENDMDL
MODEL 9
REMARK VINA RESULT:    -6.220      3.273      7.227
REMARK INTER + INTRA:          -8.556
REMARK INTER:                  -7.761
REMARK INTRA:                  -0.795
REMARK UNBOUND:                -0.882
REMARK  4 active torsions:
REMARK  status: ('A' for Active; 'I' for Inactive)
REMARK    1  A    between atoms: S_2  and  N_5 
REMARK    2  A    between atoms: N_5  and  C_7 
REMARK    3  A    between atoms: C_15  and  C_16 
REMARK       I    between atoms: C_16  and  N_18 
REMARK    4  A    between atoms: N_18  and  C_20 
ROOT
HETATM    1  C   UNL     1       6.481  -4.124  26.152  1.00  0.00     0.109 C 
HETATM    2  C   UNL     1       6.991  -3.854  25.052  1.00  0.00    -0.008 A 
HETATM    3  C   UNL     1       7.087  -3.987  23.799  1.00  0.00     0.058 A 
HETATM    4  C   UNL     1       7.490  -5.509  22.964  1.00  0.00    -0.003 C 
HETATM    5  C   UNL     1       7.095  -5.731  22.032  1.00  0.00    -0.002 C 
HETATM    6  C   UNL     1       6.084  -5.073  21.210  1.00  0.00    -0.001 C 
HETATM    7  C   UNL     1       5.551  -3.954  21.892  1.00  0.00    -0.002 C 
HETATM    8  C   UNL     1       5.759  -3.517  22.811  1.00  0.00    -0.003 C 
HETATM    9  C   UNL     1       7.917  -3.201  23.702  1.00  0.00     0.040 A 
ENDROOT
BRANCH   9  10
HETATM   10  C   UNL     1       8.916  -2.230  23.477  1.00  0.00     0.254 C 
HETATM   11  O   UNL     1      10.001  -2.596  23.302  1.00  0.00    -0.268 OA
HETATM   12  N   UNL     1       8.434  -1.019  23.520  1.00  0.00    -0.321 N 
ATOM     13  HN  UNL     1       7.439  -0.888  23.701  1.00  0.00     0.169 HD
BRANCH  12  14
HETATM   14  C   UNL     1       9.153  -0.021  23.345  1.00  0.00     0.056 A 
HETATM   15  C   UNL     1       9.903   0.760  24.113  1.00  0.00     0.117 A 
HETATM   16  N   UNL     1      10.616   1.730  24.294  1.00  0.00    -0.373 N 
HETATM   17  C   UNL     1      10.668   2.138  22.948  1.00  0.00     0.088 A 
ATOM     18  HN  UNL     1      11.036   2.118  25.139  1.00  0.00     0.164 HD
HETATM   19  C   UNL     1      10.117   1.665  22.017  1.00  0.00     0.026 A 
HETATM   20  C   UNL     1       9.315   0.592  21.907  1.00  0.00    -0.033 A 
HETATM   21  C   UNL     1       8.586   0.015  20.658  1.00  0.00     0.050 C 
ENDBRANCH  12  14
ENDBRANCH   9  10
BRANCH   1  22
HETATM   22  N   UNL     1       6.501  -4.269  27.337  1.00  0.00    -0.295 N 
ATOM     23  HN  UNL     1       7.418  -4.326  27.780  1.00  0.00     0.177 HD
BRANCH  22  24
HETATM   24  S   UNL     1       5.207  -4.384  28.310  1.00  0.00     0.226 S 
HETATM   25  C   UNL     1       5.685  -5.429  29.592  1.00  0.00     0.186 C 
HETATM   26  O   UNL     1       4.899  -3.107  28.871  1.00  0.00    -0.206 OA
HETATM   27  O   UNL     1       4.118  -4.988  27.629  1.00  0.00    -0.206 OA
ENDBRANCH  22  24
ENDBRANCH   1  22
TORSDOF 4
ENDMDL
