REMARK  4 active torsions:
REMARK  status: ('A' for Active; 'I' for Inactive)
REMARK    1  A    between atoms: S_2  and  N_5 
REMARK    2  A    between atoms: N_5  and  C_7 
REMARK    3  A    between atoms: C_15  and  C_16 
REMARK       I    between atoms: C_16  and  N_18 
REMARK    4  A    between atoms: N_18  and  C_20 
ROOT
HETATM    1  C   UNL     1       8.984  -2.935  24.158  1.00  0.00     0.109 C 
HETATM    2  C   UNL     1       9.434  -1.972  23.515  1.00  0.00    -0.008 A 
HETATM    3  C   UNL     1      10.345  -1.146  23.225  1.00  0.00     0.058 A 
HETATM    4  C   UNL     1      11.062   0.021  24.366  1.00  0.00    -0.003 C 
HETATM    5  C   UNL     1      12.057   0.301  24.293  1.00  0.00    -0.002 C 
HETATM    6  C   UNL     1      13.156  -0.180  23.460  1.00  0.00    -0.001 C 
HETATM    7  C   UNL     1      12.724  -1.262  22.657  1.00  0.00    -0.002 C 
HETATM    8  C   UNL     1      11.807  -1.733  22.534  1.00  0.00    -0.003 C 
HETATM    9  C   UNL     1       9.727  -0.634  22.405  1.00  0.00     0.040 A 
ENDROOT
BRANCH   9  10
HETATM   10  C   UNL     1       9.059   0.038  21.360  1.00  0.00     0.254 C 
HETATM   11  O   UNL     1       9.556   0.985  20.917  1.00  0.00    -0.268 OA
HETATM   12  N   UNL     1       7.928  -0.538  21.059  1.00  0.00    -0.321 N 
ATOM     13  HN  UNL     1       7.643  -1.371  21.574  1.00  0.00     0.169 HD
BRANCH  12  14
HETATM   14  C   UNL     1       7.188  -0.099  20.162  1.00  0.00     0.056 A 
HETATM   15  C   UNL     1       7.237  -0.022  18.838  1.00  0.00     0.117 A 
HETATM   16  N   UNL     1       6.794   0.334  17.761  1.00  0.00    -0.373 N 
HETATM   17  C   UNL     1       5.595   0.877  18.259  1.00  0.00     0.088 A 
ATOM     18  HN  UNL     1       7.167   0.263  16.814  1.00  0.00     0.164 HD
HETATM   19  C   UNL     1       5.242   0.968  19.382  1.00  0.00     0.026 A 
HETATM   20  C   UNL     1       5.812   0.565  20.530  1.00  0.00    -0.033 A 
HETATM   21  C   UNL     1       5.321   0.728  21.999  1.00  0.00     0.050 C 
ENDBRANCH  12  14
ENDBRANCH   9  10
BRANCH   1  22
HETATM   22  N   UNL     1       8.113  -3.563  24.681  1.00  0.00    -0.295 N 
ATOM     23  HN  UNL     1       7.229  -3.635  24.177  1.00  0.00     0.177 HD
BRANCH  22  24
HETATM   24  S   UNL     1       8.203  -4.312  26.118  1.00  0.00     0.226 S 
HETATM   25  C   UNL     1       6.601  -4.839  26.465  1.00  0.00     0.186 C 
HETATM   26  O   UNL     1       9.038  -5.467  26.018  1.00  0.00    -0.206 OA
HETATM   27  O   UNL     1       8.601  -3.405  27.134  1.00  0.00    -0.206 OA
ENDBRANCH  22  24
ENDBRANCH   1  22
TORSDOF 4
