MODEL 1
REMARK VINA RESULT:    -4.586      0.000      0.000
REMARK INTER + INTRA:          -6.173
REMARK INTER:                  -5.926
REMARK INTRA:                  -0.247
REMARK UNBOUND:                -0.247
REMARK  5 active torsions:
REMARK  status: ('A' for Active; 'I' for Inactive)
REMARK    1  A    between atoms: C_2  and  C_4 
REMARK    2  A    between atoms: C_3  and  C_7 
REMARK    3  A    between atoms: C_5  and  C_11 
REMARK    4  A    between atoms: O_6  and  C_8 
REMARK    5  A    between atoms: O_6  and  C_11 
ROOT
HETATM    1  C   UNL     1       9.717   1.461  22.359  1.00  0.00     0.079 A 
HETATM    2  C   UNL     1      10.726   1.601  23.214  1.00  0.00     0.035 C 
HETATM    3  C   UNL     1       8.338   0.894  21.596  1.00  0.00     0.209 A 
HETATM    4  O   UNL     1       9.380   1.774  21.243  1.00  0.00    -0.339 OA
ENDROOT
BRANCH   3   5
HETATM    5  C   UNL     1       7.980  -0.243  20.651  1.00  0.00     0.207 C 
BRANCH   5   6
HETATM    6  O   UNL     1       7.933   0.180  19.296  1.00  0.00    -0.389 OA
BRANCH   6   7
HETATM    7  C   UNL     1       6.631   0.066  18.706  1.00  0.00     0.163 C 
HETATM    8  C   UNL     1       5.680  -0.680  19.532  1.00  0.00     0.033 C 
ENDBRANCH   6   7
ENDBRANCH   5   6
ENDBRANCH   3   5
BRANCH   2   9
HETATM    9  C   UNL     1      11.047   1.067  24.462  1.00  0.00     0.003 C 
HETATM   10  C   UNL     1      12.008   0.152  24.856  1.00  0.00     0.007 C 
BRANCH  10  11
HETATM   11  C   UNL     1      13.119  -0.400  24.112  1.00  0.00     0.040 C 
HETATM   12  C   UNL     1      13.279  -1.332  23.377  1.00  0.00    -0.047 C 
ENDBRANCH  10  11
ENDBRANCH   2   9
TORSDOF 5
ENDMDL
MODEL 2
REMARK VINA RESULT:    -4.354     23.083     25.849
REMARK INTER + INTRA:          -5.874
REMARK INTER:                  -5.672
REMARK INTRA:                  -0.203
REMARK UNBOUND:                -0.247
REMARK  5 active torsions:
REMARK  status: ('A' for Active; 'I' for Inactive)
REMARK    1  A    between atoms: C_2  and  C_4 
REMARK    2  A    between atoms: C_3  and  C_7 
REMARK    3  A    between atoms: C_5  and  C_11 
REMARK    4  A    between atoms: O_6  and  C_8 
REMARK    5  A    between atoms: O_6  and  C_11 
ROOT
HETATM    1  C   UNL     1       3.256 -20.413   8.630  1.00  0.00     0.079 A 
HETATM    2  C   UNL     1       3.768 -21.352   7.841  1.00  0.00     0.035 C 
HETATM    3  C   UNL     1       2.200 -19.535   9.590  1.00  0.00     0.209 A 
HETATM    4  O   UNL     1       3.437 -19.269   8.970  1.00  0.00    -0.339 OA
ENDROOT
BRANCH   3   5
HETATM    5  C   UNL     1       1.044 -18.570   9.374  1.00  0.00     0.207 C 
BRANCH   5   6
HETATM    6  O   UNL     1       0.736 -17.832  10.547  1.00  0.00    -0.389 OA
BRANCH   6   7
HETATM    7  C   UNL     1      -0.391 -16.958  10.394  1.00  0.00     0.163 C 
HETATM    8  C   UNL     1      -0.162 -15.874   9.438  1.00  0.00     0.033 C 
ENDBRANCH   6   7
ENDBRANCH   5   6
ENDBRANCH   3   5
BRANCH   2   9
HETATM    9  C   UNL     1       3.374 -22.627   7.435  1.00  0.00     0.003 C 
HETATM   10  C   UNL     1       3.114 -23.785   8.148  1.00  0.00     0.007 C 
BRANCH  10  11
HETATM   11  C   UNL     1       2.983 -23.981   9.576  1.00  0.00     0.040 C 
HETATM   12  C   UNL     1       3.349 -24.805  10.364  1.00  0.00    -0.047 C 
ENDBRANCH  10  11
ENDBRANCH   2   9
TORSDOF 5
ENDMDL
MODEL 3
REMARK VINA RESULT:    -4.309      3.696      3.928
REMARK INTER + INTRA:          -5.816
REMARK INTER:                  -5.545
REMARK INTRA:                  -0.271
REMARK UNBOUND:                -0.247
REMARK  5 active torsions:
REMARK  status: ('A' for Active; 'I' for Inactive)
REMARK    1  A    between atoms: C_2  and  C_4 
REMARK    2  A    between atoms: C_3  and  C_7 
REMARK    3  A    between atoms: C_5  and  C_11 
REMARK    4  A    between atoms: O_6  and  C_8 
REMARK    5  A    between atoms: O_6  and  C_11 
ROOT
HETATM    1  C   UNL     1       9.610  -1.301  24.748  1.00  0.00     0.079 A 
HETATM    2  C   UNL     1      10.140  -0.146  25.136  1.00  0.00     0.035 C 
HETATM    3  C   UNL     1       9.159  -2.618  23.817  1.00  0.00     0.209 A 
HETATM    4  O   UNL     1       8.762  -2.099  25.065  1.00  0.00    -0.339 OA
ENDROOT
BRANCH   3   5
HETATM    5  C   UNL     1       8.095  -2.929  22.775  1.00  0.00     0.207 C 
BRANCH   5   6
HETATM    6  O   UNL     1       7.346  -4.089  23.103  1.00  0.00    -0.389 OA
BRANCH   6   7
HETATM    7  C   UNL     1       6.750  -4.728  21.965  1.00  0.00     0.163 C 
HETATM    8  C   UNL     1       7.030  -6.162  21.889  1.00  0.00     0.033 C 
ENDBRANCH   6   7
ENDBRANCH   5   6
ENDBRANCH   3   5
BRANCH   2   9
HETATM    9  C   UNL     1      11.057   0.755  24.592  1.00  0.00     0.003 C 
HETATM   10  C   UNL     1      12.382   0.614  24.219  1.00  0.00     0.007 C 
BRANCH  10  11
HETATM   11  C   UNL     1      13.185  -0.583  24.099  1.00  0.00     0.040 C 
HETATM   12  C   UNL     1      13.232  -1.511  23.343  1.00  0.00    -0.047 C 
ENDBRANCH  10  11
ENDBRANCH   2   9
TORSDOF 5
ENDMDL
MODEL 4
REMARK VINA RESULT:    -4.208     20.619     23.266
REMARK INTER + INTRA:          -5.686
REMARK INTER:                  -5.499
REMARK INTRA:                  -0.186
REMARK UNBOUND:                -0.247
REMARK  5 active torsions:
REMARK  status: ('A' for Active; 'I' for Inactive)
REMARK    1  A    between atoms: C_2  and  C_4 
REMARK    2  A    between atoms: C_3  and  C_7 
REMARK    3  A    between atoms: C_5  and  C_11 
REMARK    4  A    between atoms: O_6  and  C_8 
REMARK    5  A    between atoms: O_6  and  C_11 
ROOT
HETATM    1  C   UNL     1       8.465  12.544   3.611  1.00  0.00     0.079 A 
HETATM    2  C   UNL     1       7.812  11.387   3.551  1.00  0.00     0.035 C 
HETATM    3  C   UNL     1       8.933  14.128   3.337  1.00  0.00     0.209 A 
HETATM    4  O   UNL     1       9.523  13.010   3.958  1.00  0.00    -0.339 OA
ENDROOT
BRANCH   3   5
HETATM    5  C   UNL     1       9.721  14.887   2.279  1.00  0.00     0.207 C 
BRANCH   5   6
HETATM    6  O   UNL     1       9.594  16.293   2.421  1.00  0.00    -0.389 OA
BRANCH   6   7
HETATM    7  C   UNL     1       8.650  16.878   1.513  1.00  0.00     0.163 C 
HETATM    8  C   UNL     1       9.267  17.753   0.515  1.00  0.00     0.033 C 
ENDBRANCH   6   7
ENDBRANCH   5   6
ENDBRANCH   3   5
BRANCH   2   9
HETATM    9  C   UNL     1       6.607  10.957   2.995  1.00  0.00     0.003 C 
HETATM   10  C   UNL     1       5.651  10.061   3.441  1.00  0.00     0.007 C 
BRANCH  10  11
HETATM   11  C   UNL     1       5.512   9.426   4.733  1.00  0.00     0.040 C 
HETATM   12  C   UNL     1       6.012   8.488   5.285  1.00  0.00    -0.047 C 
ENDBRANCH  10  11
ENDBRANCH   2   9
TORSDOF 5
ENDMDL
MODEL 5
REMARK VINA RESULT:    -4.182      1.951      2.800
REMARK INTER + INTRA:          -5.651
REMARK INTER:                  -5.170
REMARK INTRA:                  -0.481
REMARK UNBOUND:                -0.247
REMARK  5 active torsions:
REMARK  status: ('A' for Active; 'I' for Inactive)
REMARK    1  A    between atoms: C_2  and  C_4 
REMARK    2  A    between atoms: C_3  and  C_7 
REMARK    3  A    between atoms: C_5  and  C_11 
REMARK    4  A    between atoms: O_6  and  C_8 
REMARK    5  A    between atoms: O_6  and  C_11 
ROOT
HETATM    1  C   UNL     1       9.280   0.809  21.502  1.00  0.00     0.079 A 
HETATM    2  C   UNL     1      10.399   1.305  22.022  1.00  0.00     0.035 C 
HETATM    3  C   UNL     1       7.734   0.186  21.341  1.00  0.00     0.209 A 
HETATM    4  O   UNL     1       8.866   0.266  20.507  1.00  0.00    -0.339 OA
ENDROOT
BRANCH   3   5
HETATM    5  C   UNL     1       7.054  -1.162  21.535  1.00  0.00     0.207 C 
BRANCH   5   6
HETATM    6  O   UNL     1       7.942  -2.141  22.051  1.00  0.00    -0.389 OA
BRANCH   6   7
HETATM    7  C   UNL     1       7.945  -2.214  23.484  1.00  0.00     0.163 C 
HETATM    8  C   UNL     1       9.284  -2.127  24.068  1.00  0.00     0.033 C 
ENDBRANCH   6   7
ENDBRANCH   5   6
ENDBRANCH   3   5
BRANCH   2   9
HETATM    9  C   UNL     1      10.774   1.805  23.269  1.00  0.00     0.003 C 
HETATM   10  C   UNL     1      11.447   1.228  24.333  1.00  0.00     0.007 C 
BRANCH  10  11
HETATM   11  C   UNL     1      12.149  -0.035  24.406  1.00  0.00     0.040 C 
HETATM   12  C   UNL     1      13.223  -0.439  24.066  1.00  0.00    -0.047 C 
ENDBRANCH  10  11
ENDBRANCH   2   9
TORSDOF 5
ENDMDL
MODEL 6
REMARK VINA RESULT:    -4.094     23.314     25.021
REMARK INTER + INTRA:          -5.537
REMARK INTER:                  -5.352
REMARK INTRA:                  -0.186
REMARK UNBOUND:                -0.247
REMARK  5 active torsions:
REMARK  status: ('A' for Active; 'I' for Inactive)
REMARK    1  A    between atoms: C_2  and  C_4 
REMARK    2  A    between atoms: C_3  and  C_7 
REMARK    3  A    between atoms: C_5  and  C_11 
REMARK    4  A    between atoms: O_6  and  C_8 
REMARK    5  A    between atoms: O_6  and  C_11 
ROOT
HETATM    1  C   UNL     1       1.619 -18.786   9.668  1.00  0.00     0.079 A 
HETATM    2  C   UNL     1       2.654 -19.585   9.428  1.00  0.00     0.035 C 
HETATM    3  C   UNL     1       0.333 -17.734   9.461  1.00  0.00     0.209 A 
HETATM    4  O   UNL     1       1.106 -18.156  10.561  1.00  0.00    -0.339 OA
ENDROOT
BRANCH   3   5
HETATM    5  C   UNL     1       0.145 -16.243   9.220  1.00  0.00     0.207 C 
BRANCH   5   6
HETATM    6  O   UNL     1      -1.032 -15.965   8.476  1.00  0.00    -0.389 OA
BRANCH   6   7
HETATM    7  C   UNL     1      -0.790 -15.755   7.078  1.00  0.00     0.163 C 
HETATM    8  C   UNL     1      -1.514 -14.608   6.527  1.00  0.00     0.033 C 
ENDBRANCH   6   7
ENDBRANCH   5   6
ENDBRANCH   3   5
BRANCH   2   9
HETATM    9  C   UNL     1       3.217 -20.160   8.288  1.00  0.00     0.003 C 
HETATM   10  C   UNL     1       3.330 -21.477   7.876  1.00  0.00     0.007 C 
BRANCH  10  11
HETATM   11  C   UNL     1       2.719 -22.670   8.419  1.00  0.00     0.040 C 
HETATM   12  C   UNL     1       3.112 -23.727   8.823  1.00  0.00    -0.047 C 
ENDBRANCH  10  11
ENDBRANCH   2   9
TORSDOF 5
ENDMDL
MODEL 7
REMARK VINA RESULT:    -4.013      3.644      4.191
REMARK INTER + INTRA:          -5.433
REMARK INTER:                  -5.159
REMARK INTRA:                  -0.274
REMARK UNBOUND:                -0.247
REMARK  5 active torsions:
REMARK  status: ('A' for Active; 'I' for Inactive)
REMARK    1  A    between atoms: C_2  and  C_4 
REMARK    2  A    between atoms: C_3  and  C_7 
REMARK    3  A    between atoms: C_5  and  C_11 
REMARK    4  A    between atoms: O_6  and  C_8 
REMARK    5  A    between atoms: O_6  and  C_11 
ROOT
HETATM    1  C   UNL     1       9.981  -1.649  22.833  1.00  0.00     0.079 A 
HETATM    2  C   UNL     1      11.264  -1.316  22.942  1.00  0.00     0.035 C 
HETATM    3  C   UNL     1       8.366  -1.916  23.185  1.00  0.00     0.209 A 
HETATM    4  O   UNL     1       9.236  -2.305  22.148  1.00  0.00    -0.339 OA
ENDROOT
BRANCH   3   5
HETATM    5  C   UNL     1       7.546  -2.980  23.900  1.00  0.00     0.207 C 
BRANCH   5   6
HETATM    6  O   UNL     1       7.754  -4.273  23.353  1.00  0.00    -0.389 OA
BRANCH   6   7
HETATM    7  C   UNL     1       6.709  -4.695  22.465  1.00  0.00     0.163 C 
HETATM    8  C   UNL     1       6.924  -6.031  21.907  1.00  0.00     0.033 C 
ENDBRANCH   6   7
ENDBRANCH   5   6
ENDBRANCH   3   5
BRANCH   2   9
HETATM    9  C   UNL     1      12.032  -0.629  23.883  1.00  0.00     0.003 C 
HETATM   10  C   UNL     1      12.068   0.705  24.251  1.00  0.00     0.007 C 
BRANCH  10  11
HETATM   11  C   UNL     1      11.171   1.784  23.902  1.00  0.00     0.040 C 
HETATM   12  C   UNL     1      10.151   2.227  24.345  1.00  0.00    -0.047 C 
ENDBRANCH  10  11
ENDBRANCH   2   9
TORSDOF 5
ENDMDL
MODEL 8
REMARK VINA RESULT:    -4.011     13.778     15.545
REMARK INTER + INTRA:          -5.430
REMARK INTER:                  -5.162
REMARK INTRA:                  -0.268
REMARK UNBOUND:                -0.247
REMARK  5 active torsions:
REMARK  status: ('A' for Active; 'I' for Inactive)
REMARK    1  A    between atoms: C_2  and  C_4 
REMARK    2  A    between atoms: C_3  and  C_7 
REMARK    3  A    between atoms: C_5  and  C_11 
REMARK    4  A    between atoms: O_6  and  C_8 
REMARK    5  A    between atoms: O_6  and  C_11 
ROOT
HETATM    1  C   UNL     1      23.118  -1.638  20.003  1.00  0.00     0.079 A 
HETATM    2  C   UNL     1      22.520  -1.145  18.923  1.00  0.00     0.035 C 
HETATM    3  C   UNL     1      24.271  -2.265  21.044  1.00  0.00     0.209 A 
HETATM    4  O   UNL     1      22.865  -2.169  21.058  1.00  0.00    -0.339 OA
ENDROOT
BRANCH   3   5
HETATM    5  C   UNL     1      24.920  -3.618  21.297  1.00  0.00     0.207 C 
BRANCH   5   6
HETATM    6  O   UNL     1      24.034  -4.695  21.035  1.00  0.00    -0.389 OA
BRANCH   6   7
HETATM    7  C   UNL     1      24.437  -5.512  19.927  1.00  0.00     0.163 C 
HETATM    8  C   UNL     1      25.146  -6.729  20.329  1.00  0.00     0.033 C 
ENDBRANCH   6   7
ENDBRANCH   5   6
ENDBRANCH   3   5
BRANCH   2   9
HETATM    9  C   UNL     1      22.951  -0.661  17.688  1.00  0.00     0.003 C 
HETATM   10  C   UNL     1      23.430  -1.303  16.559  1.00  0.00     0.007 C 
BRANCH  10  11
HETATM   11  C   UNL     1      23.453  -2.713  16.238  1.00  0.00     0.040 C 
HETATM   12  C   UNL     1      23.876  -3.704  16.762  1.00  0.00    -0.047 C 
ENDBRANCH  10  11
ENDBRANCH   2   9
TORSDOF 5
ENDMDL
MODEL 9
REMARK VINA RESULT:    -3.985      2.090      6.456
REMARK INTER + INTRA:          -5.396
REMARK INTER:                  -5.172
REMARK INTRA:                  -0.224
REMARK UNBOUND:                -0.247
REMARK  5 active torsions:
REMARK  status: ('A' for Active; 'I' for Inactive)
REMARK    1  A    between atoms: C_2  and  C_4 
REMARK    2  A    between atoms: C_3  and  C_7 
REMARK    3  A    between atoms: C_5  and  C_11 
REMARK    4  A    between atoms: O_6  and  C_8 
REMARK    5  A    between atoms: O_6  and  C_11 
ROOT
HETATM    1  C   UNL     1       9.498   0.633  21.464  1.00  0.00     0.079 A 
HETATM    2  C   UNL     1       8.508   0.208  20.684  1.00  0.00     0.035 C 
HETATM    3  C   UNL     1      10.432   0.985  22.808  1.00  0.00     0.209 A 
HETATM    4  O   UNL     1      10.447   1.378  21.455  1.00  0.00    -0.339 OA
ENDROOT
BRANCH   3   5
HETATM    5  C   UNL     1      10.464   2.057  23.888  1.00  0.00     0.207 C 
BRANCH   5   6
HETATM    6  O   UNL     1      11.602   2.898  23.776  1.00  0.00    -0.389 OA
BRANCH   6   7
HETATM    7  C   UNL     1      11.280   4.293  23.707  1.00  0.00     0.163 C 
HETATM    8  C   UNL     1      12.454   5.165  23.750  1.00  0.00     0.033 C 
ENDBRANCH   6   7
ENDBRANCH   5   6
ENDBRANCH   3   5
BRANCH   2   9
HETATM    9  C   UNL     1       7.374  -0.584  20.867  1.00  0.00     0.003 C 
HETATM   10  C   UNL     1       6.102  -0.516  20.326  1.00  0.00     0.007 C 
BRANCH  10  11
HETATM   11  C   UNL     1       5.602   0.299  19.239  1.00  0.00     0.040 C 
HETATM   12  C   UNL     1       5.786   0.357  18.057  1.00  0.00    -0.047 C 
ENDBRANCH  10  11
ENDBRANCH   2   9
TORSDOF 5
ENDMDL
