stable:False satoms:20 tatoms:24 sratio:0.8333333333333334
  -OEChem-07092417293D

 24 24  0     1  0  0  0  0  0999 V2000
   10.4448   -0.5294   23.0120 C   0  0  0  0  0  0  0  0  0  0  0  0
    8.7612   -0.1050   21.6014 H   0  0  0  0  0  0  0  0  0  0  0  0
    9.0060   -0.8577   25.9248 C   0  0  0  0  0  0  0  0  0  0  0  0
   10.8745   -0.4139   24.2647 C   0  0  0  0  0  0  0  0  0  0  0  0
   10.9550   -0.2776   26.3163 H   0  0  0  0  0  0  0  0  0  0  0  0
    7.9197   -1.4243   25.1551 C   0  0  0  0  0  0  0  0  0  0  0  0
    7.3067   -1.6328   23.0545 H   0  0  0  0  0  0  0  0  0  0  0  0
    9.4922   -0.8594   21.6746 C   0  0  1  0  0  0  0  0  0  0  0  0
   11.9373   -0.2179   24.2609 H   0  0  0  0  0  0  0  0  0  0  0  0
    7.7558   -2.4603   21.0536 O   0  0  0  0  0  0  0  0  0  0  0  0
    6.1792   -1.1806   21.0706 H   0  0  0  0  0  0  0  0  0  0  0  0
    9.8668   -2.7884   21.1733 H   0  0  0  0  0  0  0  0  0  0  0  0
   10.2850   -0.5099   25.5257 C   0  0  0  0  0  0  0  0  0  0  0  0
    7.1788   -1.9398   25.7343 H   0  0  0  0  0  0  0  0  0  0  0  0
    9.2201   -2.0617   19.7733 H   0  0  0  0  0  0  0  0  0  0  0  0
    7.9062   -0.8940   18.5748 H   0  0  0  0  0  0  0  0  0  0  0  0
    6.8246   -1.6439   20.3300 C   0  0  0  0  0  0  0  0  0  0  0  0
    6.2271   -2.3304   19.7438 H   0  0  0  0  0  0  0  0  0  0  0  0
    7.6282   -1.4750   23.9951 C   0  5  0  0  0  0  0  0  0  0  0  0
    8.7739   -0.7446   26.9631 H   0  0  0  0  0  0  0  0  0  0  0  0
   10.8556   -0.5700   21.8782 O   0  0  0  0  0  0  0  0  0  0  0  0
    9.1111   -2.0852   20.8584 C   0  0  0  0  0  0  0  0  0  0  0  0
    7.4685   -0.6299   19.4929 C   0  5  0  0  0  0  0  0  0  0  0  0
    7.6059    0.3415   19.8652 H   0  0  0  0  0  0  0  0  0  0  0  0
 16 23  1  0  0  0  0
 23 24  1  0  0  0  0
 17 23  1  0  0  0  0
 17 18  1  0  0  0  0
 15 22  1  0  0  0  0
 10 17  1  0  0  0  0
 11 17  1  0  0  0  0
 10 22  1  0  0  0  0
 12 22  1  0  0  0  0
  8 22  1  0  0  0  0
  2  8  1  0  0  0  0
  8 21  1  0  0  0  0
  1  8  1  0  0  0  0
  1 21  1  0  0  0  0
  1  4  2  0  0  0  0
  7 19  1  0  0  0  0
  6 19  2  0  0  0  0
  4  9  1  0  0  0  0
  4 13  1  0  0  0  0
  6 14  1  0  0  0  0
  3  6  1  0  0  0  0
  3 13  2  0  0  0  0
  5 13  1  0  0  0  0
  3 20  1  0  0  0  0
M  CHG  2  19  -1  23  -1
M  END
> <Shapegauss>
-111.982628

$$$$
