REMARK  5 active torsions:
REMARK  status: ('A' for Active; 'I' for Inactive)
REMARK    1  A    between atoms: C_2  and  C_4 
REMARK    2  A    between atoms: C_3  and  C_7 
REMARK    3  A    between atoms: C_5  and  C_11 
REMARK    4  A    between atoms: O_6  and  C_8 
REMARK    5  A    between atoms: O_6  and  C_11 
ROOT
HETATM    1  C   UNL     1      10.445  -0.529  23.012  1.00  0.00     0.079 A 
HETATM    2  C   UNL     1      10.874  -0.414  24.265  1.00  0.00     0.035 C 
HETATM    3  C   UNL     1       9.492  -0.859  21.675  1.00  0.00     0.209 A 
HETATM    4  O   UNL     1      10.856  -0.570  21.878  1.00  0.00    -0.339 OA
ENDROOT
BRANCH   3   5
HETATM    5  C   UNL     1       9.111  -2.085  20.858  1.00  0.00     0.207 C 
BRANCH   5   6
HETATM    6  O   UNL     1       7.756  -2.460  21.054  1.00  0.00    -0.389 OA
BRANCH   6   7
HETATM    7  C   UNL     1       6.825  -1.644  20.330  1.00  0.00     0.163 C 
HETATM    8  C   UNL     1       7.468  -0.630  19.493  1.00  0.00     0.033 C 
ENDBRANCH   6   7
ENDBRANCH   5   6
ENDBRANCH   3   5
BRANCH   2   9
HETATM    9  C   UNL     1      10.285  -0.510  25.526  1.00  0.00     0.003 C 
HETATM   10  C   UNL     1       9.006  -0.858  25.925  1.00  0.00     0.007 C 
BRANCH  10  11
HETATM   11  C   UNL     1       7.920  -1.424  25.155  1.00  0.00     0.040 C 
HETATM   12  C   UNL     1       7.628  -1.475  23.995  1.00  0.00    -0.047 C 
ENDBRANCH  10  11
ENDBRANCH   2   9
TORSDOF 5
