lig_61
     RDKit          3D

 24 26  0  0  1  0  0  0  0  0999 V2000
   27.6211    1.6934  -11.1017 O   0  0  0  0  0  0  0  0  0  0  0  0
   27.2713    0.4339  -11.6267 C   0  0  1  0  0  0  0  0  0  0  0  0
   26.1326   -0.1227  -10.8260 C   0  0  0  0  0  0  0  0  0  0  0  0
   24.9258    0.0446  -11.5023 C   0  0  0  0  0  0  0  0  0  0  0  0
   23.6988   -0.3235  -10.9317 C   0  0  0  0  0  0  0  0  0  0  0  0
   22.5600   -0.1488  -11.6801 O   0  0  0  0  0  0  0  0  0  0  0  0
   21.3418   -0.4719  -11.1585 C   0  0  0  0  0  0  0  0  0  0  0  0
   20.7926   -1.7517  -11.3744 C   0  0  0  0  0  0  0  0  0  0  0  0
   19.5266   -2.0652  -10.8533 C   0  0  0  0  0  0  0  0  0  0  0  0
   18.9820   -3.2794  -11.0756 F   0  0  0  0  0  0  0  0  0  0  0  0
   18.8083   -1.1003  -10.1237 C   0  0  0  0  0  0  0  0  0  0  0  0
   19.3386    0.1871   -9.9217 C   0  0  0  0  0  0  0  0  0  0  0  0
   18.4211    1.3963   -9.0935 Cl  0  0  0  0  0  0  0  0  0  0  0  0
   20.6131    0.4889  -10.4285 C   0  0  0  0  0  0  0  0  0  0  0  0
   23.7146   -0.8469   -9.6090 C   0  0  0  0  0  0  0  0  0  0  0  0
   24.9346   -1.0233   -8.9189 C   0  0  0  0  0  0  0  0  0  0  0  0
   26.1641   -0.6837   -9.5268 C   0  0  0  0  0  0  0  0  0  0  0  0
   27.6930   -0.8978   -8.5925 S   0  0  0  0  0  0  0  0  0  0  0  0
   27.4376   -1.8519   -7.5022 O   0  0  0  0  0  0  0  0  0  0  0  0
   28.7913   -1.1871   -9.5164 O   0  0  0  0  0  0  0  0  0  0  0  0
   28.0080    0.7520   -7.8604 C   0  0  0  0  0  0  0  0  0  0  0  0
   27.4035    0.8364   -6.6757 F   0  0  0  0  0  0  0  0  0  0  0  0
   25.1336    0.6633  -12.8603 C   0  0  0  0  0  0  0  0  0  0  0  0
   26.6658    0.6223  -13.0377 C   0  0  0  0  0  0  0  0  0  0  0  0
  2  1  1  1
  2 24  1  0
  2  3  1  0
  3 17  1  0
  3  4  2  0
  4  5  1  0
  4 23  1  0
  5  6  1  0
  5 15  2  0
  6  7  1  0
  7 14  1  0
  7  8  2  0
  8  9  1  0
  9 10  1  0
  9 11  2  0
 11 12  1  0
 12 13  1  0
 12 14  2  0
 15 16  1  0
 16 17  2  0
 17 18  1  0
 18 19  2  0
 18 20  2  0
 18 21  1  0
 21 22  1  0
 23 24  1  0
M  END
>  <s_m_source_file>  (1) 
ligprep_hif2a.smi

>  <i_m_source_file_index>  (1) 
38

>  <i_lp_mmshare_version>  (1) 
53161

>  <i_f3d_flags>  (1) 
0

>  <s_epik_input>  (1) 
RltDSDJdUyg9TykoPU8pYzFbY0hdW2NIXWMoYyhjMTIpW0NIMl1bQ0gyXVtDQEhdMltPSF0pT2MzW2NIXWMoRilbY0hdYyhDbClbY0hdMw==

>  <s_epik_cmdline>  (1) 
J2VwaWtfcHl0aG9uJywgJy1waHQnLCAnMC4wJywgJy1waCcsICc3LjQnLCAnLXRuJywgJzgnLCAnLW1hJywgJzUwMCcsICctaW1hZScsICc8aW5maWxlLm1hZT4nLCAnLW9tYWUnLCAnPG91dGZpbGUubWFlPic=

>  <r_lp_tautomer_probability>  (1) 
1

>  <r_epik_Ionization_Penalty>  (1) 
  0.0000

>  <r_epik_Ionization_Penalty_Charging>  (1) 
  0.0000

>  <r_epik_Ionization_Penalty_Neutral>  (1) 
  0.0000

>  <r_epik_State_Penalty>  (1) 
 -0.0000

>  <r_epik_Charging_Adjusted_Penalty>  (1) 
0

>  <i_epik_Tot_Q>  (1) 
0

>  <i_epik_Tot_abs_Q>  (1) 
0

>  <s_lp_Force_Field>  (1) 
S-OPLS

>  <r_lp_Energy>  (1) 
26.565

>  <b_lp_Chiralities_Consistent>  (1) 
1

>  <s_lp_Variant>  (1) 
lig_61-1

>  <s_i_glide_gridfile>  (1) 
glide-grid_HIF2a-5TBM

>  <i_i_glide_lignum>  (1) 
38

>  <i_i_glide_rotatable_bonds>  (1) 
5

>  <r_i_docking_score>  (1) 
-10.6424594173658

>  <r_i_glide_ligand_efficiency>  (1) 
-0.443435809056908

>  <r_i_glide_ligand_efficiency_sa>  (1) 
-1.27909020878748

>  <r_i_glide_ligand_efficiency_ln>  (1) 
-2.54722888921695

>  <r_i_glide_gscore>  (1) 
-10.6424594173658

>  <r_i_glide_lipo>  (1) 
-5.08843102054111

>  <r_i_glide_hbond>  (1) 
0

>  <r_i_glide_metal>  (1) 
-0

>  <r_i_glide_rewards>  (1) 
-2.61041970023691

>  <r_i_glide_evdw>  (1) 
-52.909008026123

>  <r_i_glide_ecoul>  (1) 
-6.57716941833496

>  <r_i_glide_erotb>  (1) 
0.688417117468606

>  <r_i_glide_esite>  (1) 
0

>  <r_i_glide_emodel>  (1) 
-95.9976391454206

>  <r_i_glide_energy>  (1) 
-59.486177444458

>  <r_i_glide_einternal>  (1) 
0.406987130641937

>  <i_i_glide_confnum>  (1) 
7

>  <i_i_glide_posenum>  (1) 
7

>  <r_i_glide_eff_state_penalty>  (1) 
-0

>  <r_i_glide_rmsd>  (1) 
0.0773425484375629

>  <s_glide_core_constrain_type>  (1) 
snapped_core_restrain

$$$$
