lig_41
     RDKit          3D

 24 25  0  0  1  0  0  0  0  0999 V2000
   28.0210    1.4351  -10.9628 O   0  0  0  0  0  0  0  0  0  0  0  0
   27.4421    0.3309  -11.6041 C   0  0  0  0  0  0  0  0  0  0  0  0
   26.1590   -0.1027  -10.9085 C   0  0  0  0  0  0  0  0  0  0  0  0
   24.9141    0.0955  -11.5595 C   0  0  0  0  0  0  0  0  0  0  0  0
   24.8215    0.8884  -13.0957 Cl  0  0  0  0  0  0  0  0  0  0  0  0
   23.7056   -0.3106  -10.9572 C   0  0  0  0  0  0  0  0  0  0  0  0
   22.5505   -0.1180  -11.6783 O   0  0  0  0  0  0  0  0  0  0  0  0
   21.3365   -0.4441  -11.1424 C   0  0  0  0  0  0  0  0  0  0  0  0
   20.7929   -1.7240  -11.3608 C   0  0  0  0  0  0  0  0  0  0  0  0
   19.5268   -2.0391  -10.8379 C   0  0  0  0  0  0  0  0  0  0  0  0
   18.9807   -3.2517  -11.0726 F   0  0  0  0  0  0  0  0  0  0  0  0
   18.8115   -1.0820  -10.0964 C   0  0  0  0  0  0  0  0  0  0  0  0
   19.3370    0.2090   -9.9042 C   0  0  0  0  0  0  0  0  0  0  0  0
   18.4213    1.4179   -9.0758 Cl  0  0  0  0  0  0  0  0  0  0  0  0
   20.6066    0.5202  -10.4205 C   0  0  0  0  0  0  0  0  0  0  0  0
   23.7280   -0.8638   -9.6579 C   0  0  0  0  0  0  0  0  0  0  0  0
   24.9495   -1.0243   -8.9845 C   0  0  0  0  0  0  0  0  0  0  0  0
   26.1664   -0.6735   -9.6037 C   0  0  0  0  0  0  0  0  0  0  0  0
   27.6635   -0.9252   -8.6162 S   0  0  0  0  0  0  0  0  0  0  0  0
   27.3418   -1.9033   -7.5663 O   0  0  0  0  0  0  0  0  0  0  0  0
   28.7972   -1.2365   -9.4913 O   0  0  0  0  0  0  0  0  0  0  0  0
   28.0023    0.6989   -7.7951 C   0  0  0  0  0  0  0  0  0  0  0  0
   27.3042    1.6731   -8.3731 F   0  0  0  0  0  0  0  0  0  0  0  0
   27.6211    0.6107   -6.5199 F   0  0  0  0  0  0  0  0  0  0  0  0
  1  2  1  0
  2  3  1  0
  3 18  2  0
  3  4  1  0
  4  5  1  0
  4  6  2  0
  6  7  1  0
  6 16  1  0
  7  8  1  0
  8 15  1  0
  8  9  2  0
  9 10  1  0
 10 11  1  0
 10 12  2  0
 12 13  1  0
 13 14  1  0
 13 15  2  0
 16 17  2  0
 17 18  1  0
 18 19  1  0
 19 20  2  0
 19 21  2  0
 19 22  1  0
 22 23  1  0
 22 24  1  0
M  END
>  <s_m_source_file>  (1) 
ligprep_hif2a.smi

>  <i_m_source_file_index>  (1) 
32

>  <i_lp_mmshare_version>  (1) 
53161

>  <i_f3d_flags>  (1) 
0

>  <s_epik_input>  (1) 
RltDSF0oRilTKD1PKSg9TyljMVtjSF1bY0hdYyhjKENsKWMxW0NIMl1bT0hdKU9jMltjSF1jKEYpW2NIXWMoQ2wpW2NIXTI=

>  <s_epik_cmdline>  (1) 
J2VwaWtfcHl0aG9uJywgJy1waHQnLCAnMC4wJywgJy1waCcsICc3LjQnLCAnLXRuJywgJzgnLCAnLW1hJywgJzUwMCcsICctaW1hZScsICc8aW5maWxlLm1hZT4nLCAnLW9tYWUnLCAnPG91dGZpbGUubWFlPic=

>  <r_lp_tautomer_probability>  (1) 
1

>  <r_epik_Ionization_Penalty>  (1) 
  0.0000

>  <r_epik_Ionization_Penalty_Charging>  (1) 
  0.0000

>  <r_epik_Ionization_Penalty_Neutral>  (1) 
  0.0000

>  <r_epik_State_Penalty>  (1) 
 -0.0000

>  <r_epik_Charging_Adjusted_Penalty>  (1) 
0

>  <i_epik_Tot_Q>  (1) 
0

>  <i_epik_Tot_abs_Q>  (1) 
0

>  <s_lp_Force_Field>  (1) 
S-OPLS

>  <r_lp_Energy>  (1) 
27.3926

>  <b_lp_Chiralities_Consistent>  (1) 
1

>  <s_lp_Variant>  (1) 
lig_41-1

>  <s_i_glide_gridfile>  (1) 
glide-grid_HIF2a-5TBM

>  <i_i_glide_lignum>  (1) 
32

>  <i_i_glide_rotatable_bonds>  (1) 
6

>  <r_i_docking_score>  (1) 
-10.369812794962

>  <r_i_glide_ligand_efficiency>  (1) 
-0.432075533123417

>  <r_i_glide_ligand_efficiency_sa>  (1) 
-1.24632150265489

>  <r_i_glide_ligand_efficiency_ln>  (1) 
-2.48197204153744

>  <r_i_glide_gscore>  (1) 
-10.369812794962

>  <r_i_glide_lipo>  (1) 
-4.7087450712833

>  <r_i_glide_hbond>  (1) 
0

>  <r_i_glide_metal>  (1) 
-0

>  <r_i_glide_rewards>  (1) 
-2.7976598940601

>  <r_i_glide_evdw>  (1) 
-51.5422286987305

>  <r_i_glide_ecoul>  (1) 
-5.97028017044067

>  <r_i_glide_erotb>  (1) 
0.609245630884033

>  <r_i_glide_esite>  (1) 
0

>  <r_i_glide_emodel>  (1) 
-90.8615172373065

>  <r_i_glide_energy>  (1) 
-57.5125088691711

>  <r_i_glide_einternal>  (1) 
2.47725343704224

>  <i_i_glide_confnum>  (1) 
2

>  <i_i_glide_posenum>  (1) 
12

>  <r_i_glide_eff_state_penalty>  (1) 
-0

>  <r_i_glide_rmsd>  (1) 
0.0922914797540917

>  <s_glide_core_constrain_type>  (1) 
snapped_core_restrain

$$$$
