lig_290
     RDKit          3D

 29 31  0  0  1  0  0  0  0  0999 V2000
   18.8215   -1.0656  -10.1587 C   0  0  0  0  0  0  0  0  0  0  0  0
   19.5070   -2.0487  -10.8912 C   0  0  0  0  0  0  0  0  0  0  0  0
   18.9450   -3.2644  -11.0756 F   0  0  0  0  0  0  0  0  0  0  0  0
   20.7679   -1.7664  -11.4456 C   0  0  0  0  0  0  0  0  0  0  0  0
   21.3423   -0.4963  -11.2520 C   0  0  0  0  0  0  0  0  0  0  0  0
   22.5628   -0.2064  -11.7810 O   0  0  0  0  0  0  0  0  0  0  0  0
   23.6737   -0.3412  -10.9966 C   0  0  0  0  0  0  0  0  0  0  0  0
   23.6632   -0.8394   -9.6668 C   0  0  0  0  0  0  0  0  0  0  0  0
   24.8698   -0.9853   -8.9439 C   0  0  0  0  0  0  0  0  0  0  0  0
   26.1028   -0.6628   -9.5463 C   0  0  0  0  0  0  0  0  0  0  0  0
   27.6101   -0.9133   -8.6120 S   0  0  0  0  0  0  0  0  0  0  0  0
   27.3085   -1.9027   -7.5616 O   0  0  0  0  0  0  0  0  0  0  0  0
   28.7168   -1.1996   -9.5328 O   0  0  0  0  0  0  0  0  0  0  0  0
   27.9835    0.7025   -7.8093 C   0  0  0  0  0  0  0  0  0  0  0  0
   27.6186    0.6451   -6.5308 F   0  0  0  0  0  0  0  0  0  0  0  0
   29.2913    0.8978   -7.8871 F   0  0  0  0  0  0  0  0  0  0  0  0
   27.3188    1.6826   -8.4135 F   0  0  0  0  0  0  0  0  0  0  0  0
   26.0942   -0.1263  -10.8507 C   0  0  0  0  0  0  0  0  0  0  0  0
   24.9036    0.0398  -11.5469 C   0  0  0  0  0  0  0  0  0  0  0  0
   25.1282    0.6401  -12.9094 C   0  0  0  0  0  0  0  0  0  0  0  0
   26.6525    0.5398  -13.0869 C   0  0  0  0  0  0  0  0  0  0  0  0
   27.1606    1.5568  -13.7889 F   0  0  0  0  0  0  0  0  0  0  0  0
   26.8796   -0.5908  -13.7561 F   0  0  0  0  0  0  0  0  0  0  0  0
   27.2483    0.3876  -11.6654 C   0  0  1  0  0  0  0  0  0  0  0  0
   27.6211    1.6931  -11.1566 N   0  0  0  0  0  0  0  0  0  0  0  0
   20.6549    0.4894  -10.5277 C   0  0  0  0  0  0  0  0  0  0  0  0
   19.3863    0.2133   -9.9929 C   0  0  0  0  0  0  0  0  0  0  0  0
   18.6914    1.2555   -9.2665 C   0  0  0  0  0  0  0  0  0  0  0  0
   18.1418    2.0865   -8.6759 N   0  0  0  0  0  0  0  0  0  0  0  0
  1 27  2  0
  1  2  1  0
  2  3  1  0
  2  4  2  0
  4  5  1  0
  5  6  1  0
  5 26  2  0
  6  7  1  0
  7 19  1  0
  7  8  2  0
  8  9  1  0
  9 10  2  0
 10 11  1  0
 10 18  1  0
 11 12  2  0
 11 13  2  0
 11 14  1  0
 14 15  1  0
 14 16  1  0
 14 17  1  0
 18 24  1  0
 18 19  2  0
 19 20  1  0
 20 21  1  0
 21 22  1  0
 21 23  1  0
 21 24  1  0
 24 25  1  1
 26 27  1  0
 27 28  1  0
 28 29  3  0
M  END
>  <s_m_source_file>  (1) 
ligprep_hif2a.smi

>  <i_m_source_file_index>  (1) 
26

>  <i_lp_mmshare_version>  (1) 
53161

>  <i_f3d_flags>  (1) 
0

>  <s_epik_input>  (1) 
RmMxW2NIXWMoQyNOKVtjSF1jKFtjSF0xKU9jKFtjSF1bY0hdYzJTKD1PKSg9TylDKEYpKEYpRiljKGMyMylbQ0gyXUMoRikoRilbQ0BIXTNbTkgyXQ==

>  <s_epik_cmdline>  (1) 
J2VwaWtfcHl0aG9uJywgJy1waHQnLCAnMC4wJywgJy1waCcsICc3LjQnLCAnLXRuJywgJzgnLCAnLW1hJywgJzUwMCcsICctaW1hZScsICc8aW5maWxlLm1hZT4nLCAnLW9tYWUnLCAnPG91dGZpbGUubWFlPic=

>  <r_lp_tautomer_probability>  (1) 
1

>  <r_epik_Ionization_Penalty>  (1) 
  0.0252

>  <r_epik_Ionization_Penalty_Charging>  (1) 
  0.0000

>  <r_epik_Ionization_Penalty_Neutral>  (1) 
  0.0252

>  <r_epik_State_Penalty>  (1) 
 -0.0000

>  <r_epik_Charging_Adjusted_Penalty>  (1) 
0

>  <i_epik_Tot_Q>  (1) 
0

>  <i_epik_Tot_abs_Q>  (1) 
0

>  <s_lp_Force_Field>  (1) 
S-OPLS

>  <r_lp_Energy>  (1) 
43.2136

>  <b_lp_Chiralities_Consistent>  (1) 
1

>  <s_lp_Variant>  (1) 
lig_290-1

>  <s_i_glide_gridfile>  (1) 
glide-grid_HIF2a-5TBM

>  <i_i_glide_lignum>  (1) 
26

>  <i_i_glide_rotatable_bonds>  (1) 
4

>  <r_i_docking_score>  (1) 
-11.1052968247173

>  <r_i_glide_ligand_efficiency>  (1) 
-0.382941269817838

>  <r_i_glide_ligand_efficiency_sa>  (1) 
-1.17651690519029

>  <r_i_glide_ligand_efficiency_ln>  (1) 
-2.54283136683042

>  <r_i_glide_gscore>  (1) 
-11.1052968247173

>  <r_i_glide_lipo>  (1) 
-4.79028761508194

>  <r_i_glide_hbond>  (1) 
-0.140517534765752

>  <r_i_glide_metal>  (1) 
-0

>  <r_i_glide_rewards>  (1) 
-3.0774880269443

>  <r_i_glide_evdw>  (1) 
-54.4588737487793

>  <r_i_glide_ecoul>  (1) 
-5.28556251525879

>  <r_i_glide_erotb>  (1) 
0.41877441680248

>  <r_i_glide_esite>  (1) 
0

>  <r_i_glide_emodel>  (1) 
-95.3464655838497

>  <r_i_glide_energy>  (1) 
-59.7444362640381

>  <r_i_glide_einternal>  (1) 
0.289383888244629

>  <i_i_glide_confnum>  (1) 
2

>  <i_i_glide_posenum>  (1) 
5

>  <r_i_glide_eff_state_penalty>  (1) 
-0

>  <r_i_glide_rmsd>  (1) 
0.0850347823259615

>  <s_glide_core_constrain_type>  (1) 
snapped_core_restrain

$$$$
