lig_23
     RDKit          3D

 26 28  0  0  1  0  0  0  0  0999 V2000
   27.6283    1.6482  -11.1090 O   0  0  0  0  0  0  0  0  0  0  0  0
   27.2436    0.3841  -11.6145 C   0  0  1  0  0  0  0  0  0  0  0  0
   26.0861   -0.1430  -10.8126 C   0  0  0  0  0  0  0  0  0  0  0  0
   24.8928    0.0405  -11.5038 C   0  0  0  0  0  0  0  0  0  0  0  0
   23.6525   -0.3108  -10.9499 C   0  0  0  0  0  0  0  0  0  0  0  0
   22.5300   -0.1151  -11.7174 O   0  0  0  0  0  0  0  0  0  0  0  0
   21.3080   -0.4445  -11.2088 C   0  0  0  0  0  0  0  0  0  0  0  0
   20.5844    0.4988  -10.4529 C   0  0  0  0  0  0  0  0  0  0  0  0
   19.3350    0.1544   -9.9145 C   0  0  0  0  0  0  0  0  0  0  0  0
   18.6363    1.0586   -9.1867 F   0  0  0  0  0  0  0  0  0  0  0  0
   18.8173   -1.1357  -10.1279 C   0  0  0  0  0  0  0  0  0  0  0  0
   19.5216   -2.0659  -10.9103 C   0  0  0  0  0  0  0  0  0  0  0  0
   18.9853   -3.2818  -11.1518 F   0  0  0  0  0  0  0  0  0  0  0  0
   20.7717   -1.7234  -11.4537 C   0  0  0  0  0  0  0  0  0  0  0  0
   23.6454   -0.8371   -9.6309 C   0  0  0  0  0  0  0  0  0  0  0  0
   24.8553   -1.0302   -8.9247 C   0  0  0  0  0  0  0  0  0  0  0  0
   26.0944   -0.7160   -9.5227 C   0  0  0  0  0  0  0  0  0  0  0  0
   27.6061   -0.9691   -8.5839 S   0  0  0  0  0  0  0  0  0  0  0  0
   27.3072   -1.8993   -7.4853 O   0  0  0  0  0  0  0  0  0  0  0  0
   28.6966   -1.3139   -9.5027 O   0  0  0  0  0  0  0  0  0  0  0  0
   27.9598    0.6899   -7.8736 C   0  0  0  0  0  0  0  0  0  0  0  0
   29.2550    0.9248   -7.9943 F   0  0  0  0  0  0  0  0  0  0  0  0
   27.5928    0.7199   -6.5937 F   0  0  0  0  0  0  0  0  0  0  0  0
   25.1200    0.6256  -12.8699 C   0  0  0  0  0  0  0  0  0  0  0  0
   26.6513    0.5515  -13.0389 C   0  0  1  0  0  0  0  0  0  0  0  0
   27.1633    1.6837  -13.7030 O   0  0  0  0  0  0  0  0  0  0  0  0
  2  1  1  1
  2 25  1  0
  2  3  1  0
  3 17  1  0
  3  4  2  0
  4  5  1  0
  4 24  1  0
  5  6  1  0
  5 15  2  0
  6  7  1  0
  7 14  1  0
  7  8  2  0
  8  9  1  0
  9 10  1  0
  9 11  2  0
 11 12  1  0
 12 13  1  0
 12 14  2  0
 15 16  1  0
 16 17  2  0
 17 18  1  0
 18 19  2  0
 18 20  2  0
 18 21  1  0
 21 22  1  0
 21 23  1  0
 24 25  1  0
 25 26  1  1
M  END
>  <s_m_source_file>  (1) 
ligprep_hif2a.smi

>  <i_m_source_file_index>  (1) 
14

>  <i_lp_mmshare_version>  (1) 
53161

>  <i_f3d_flags>  (1) 
0

>  <s_epik_input>  (1) 
RltDSF0oRilTKD1PKSg9TyljMVtjSF1bY0hdYyhjKGMxMilbQ0gyXVtDQEBIXShbT0hdKVtDQEhdMltPSF0pT2MzW2NIXWMoRilbY0hdYyhGKVtjSF0z

>  <s_epik_cmdline>  (1) 
J2VwaWtfcHl0aG9uJywgJy1waHQnLCAnMC4wJywgJy1waCcsICc3LjQnLCAnLXRuJywgJzgnLCAnLW1hJywgJzUwMCcsICctaW1hZScsICc8aW5maWxlLm1hZT4nLCAnLW9tYWUnLCAnPG91dGZpbGUubWFlPic=

>  <r_lp_tautomer_probability>  (1) 
1

>  <r_epik_Ionization_Penalty>  (1) 
  0.0000

>  <r_epik_Ionization_Penalty_Charging>  (1) 
  0.0000

>  <r_epik_Ionization_Penalty_Neutral>  (1) 
  0.0000

>  <r_epik_State_Penalty>  (1) 
 -0.0000

>  <r_epik_Charging_Adjusted_Penalty>  (1) 
0

>  <i_epik_Tot_Q>  (1) 
0

>  <i_epik_Tot_abs_Q>  (1) 
0

>  <s_lp_Force_Field>  (1) 
S-OPLS

>  <r_lp_Energy>  (1) 
27.4617

>  <b_lp_Chiralities_Consistent>  (1) 
1

>  <s_lp_Variant>  (1) 
lig_23-1

>  <s_i_glide_gridfile>  (1) 
glide-grid_HIF2a-5TBM

>  <i_i_glide_lignum>  (1) 
14

>  <i_i_glide_rotatable_bonds>  (1) 
6

>  <r_i_docking_score>  (1) 
-10.9425062785721

>  <r_i_glide_ligand_efficiency>  (1) 
-0.420865626098927

>  <r_i_glide_ligand_efficiency_sa>  (1) 
-1.2468127612918

>  <r_i_glide_ligand_efficiency_ln>  (1) 
-2.56981169423099

>  <r_i_glide_gscore>  (1) 
-10.9425062785721

>  <r_i_glide_lipo>  (1) 
-4.76271953862243

>  <r_i_glide_hbond>  (1) 
0

>  <r_i_glide_metal>  (1) 
-0

>  <r_i_glide_rewards>  (1) 
-3.16855809520512

>  <r_i_glide_evdw>  (1) 
-51.2012023925781

>  <r_i_glide_ecoul>  (1) 
-8.08157444000244

>  <r_i_glide_erotb>  (1) 
0.761067640884715

>  <r_i_glide_esite>  (1) 
0

>  <r_i_glide_emodel>  (1) 
-96.1754658503232

>  <r_i_glide_energy>  (1) 
-59.2827768325806

>  <r_i_glide_einternal>  (1) 
2.32087850570679

>  <i_i_glide_confnum>  (1) 
53

>  <i_i_glide_posenum>  (1) 
59

>  <r_i_glide_eff_state_penalty>  (1) 
-0

>  <r_i_glide_rmsd>  (1) 
0.102435814507161

>  <s_glide_core_constrain_type>  (1) 
snapped_core_restrain

$$$$
