lig_67
     RDKit          3D

 23 25  0  0  1  0  0  0  0  0999 V2000
   27.6211    1.6958  -11.2082 O   0  0  0  0  0  0  0  0  0  0  0  0
   27.2411    0.4288  -11.6853 C   0  0  1  0  0  0  0  0  0  0  0  0
   26.0837   -0.0565  -10.8632 C   0  0  0  0  0  0  0  0  0  0  0  0
   24.8902    0.0687  -11.5585 C   0  0  0  0  0  0  0  0  0  0  0  0
   23.6663   -0.3114  -10.9871 C   0  0  0  0  0  0  0  0  0  0  0  0
   22.5376   -0.1881  -11.7544 O   0  0  0  0  0  0  0  0  0  0  0  0
   21.3214   -0.4811  -11.2061 C   0  0  0  0  0  0  0  0  0  0  0  0
   20.7483   -1.7482  -11.4196 C   0  0  0  0  0  0  0  0  0  0  0  0
   19.4935   -2.0447  -10.8594 C   0  0  0  0  0  0  0  0  0  0  0  0
   18.9263   -3.2505  -11.0752 F   0  0  0  0  0  0  0  0  0  0  0  0
   18.8204   -1.0810  -10.0861 C   0  0  0  0  0  0  0  0  0  0  0  0
   19.3865    0.1890   -9.8825 C   0  0  0  0  0  0  0  0  0  0  0  0
   18.7304    1.1217   -9.1526 F   0  0  0  0  0  0  0  0  0  0  0  0
   20.6418    0.4887  -10.4409 C   0  0  0  0  0  0  0  0  0  0  0  0
   23.6852   -0.7945   -9.6494 C   0  0  0  0  0  0  0  0  0  0  0  0
   24.9003   -0.8963   -8.9330 C   0  0  0  0  0  0  0  0  0  0  0  0
   26.1219   -0.5345   -9.5405 C   0  0  0  0  0  0  0  0  0  0  0  0
   27.3790   -0.6278   -8.8262 C   0  0  0  0  0  0  0  0  0  0  0  0
   28.3834   -0.6986   -8.2625 N   0  0  0  0  0  0  0  0  0  0  0  0
   25.1138    0.6356  -12.9378 C   0  0  0  0  0  0  0  0  0  0  0  0
   26.6470    0.5367  -13.1108 C   0  0  0  0  0  0  0  0  0  0  0  0
   27.1713    1.5333  -13.8270 F   0  0  0  0  0  0  0  0  0  0  0  0
   26.8997   -0.6059  -13.7530 F   0  0  0  0  0  0  0  0  0  0  0  0
  2  1  1  1
  2 21  1  0
  2  3  1  0
  3 17  1  0
  3  4  2  0
  4  5  1  0
  4 20  1  0
  5  6  1  0
  5 15  2  0
  6  7  1  0
  7 14  1  0
  7  8  2  0
  8  9  1  0
  9 10  1  0
  9 11  2  0
 11 12  1  0
 12 13  1  0
 12 14  2  0
 15 16  1  0
 16 17  2  0
 17 18  1  0
 18 19  3  0
 20 21  1  0
 21 22  1  0
 21 23  1  0
M  END
>  <s_m_source_file>  (1) 
ligprep_hif2a.smi

>  <i_m_source_file_index>  (1) 
39

>  <i_lp_mmshare_version>  (1) 
53161

>  <i_f3d_flags>  (1) 
0

>  <s_epik_input>  (1) 
W09IXVtDQEBIXTFDKEYpKEYpW0NIMl1jKGMxMiljKFtjSF1bY0hdYzJDI04pT2MzW2NIXWMoRilbY0hdYyhGKVtjSF0z

>  <s_epik_cmdline>  (1) 
J2VwaWtfcHl0aG9uJywgJy1waHQnLCAnMC4wJywgJy1waCcsICc3LjQnLCAnLXRuJywgJzgnLCAnLW1hJywgJzUwMCcsICctaW1hZScsICc8aW5maWxlLm1hZT4nLCAnLW9tYWUnLCAnPG91dGZpbGUubWFlPic=

>  <r_lp_tautomer_probability>  (1) 
1

>  <r_epik_Ionization_Penalty>  (1) 
  0.0012

>  <r_epik_Ionization_Penalty_Charging>  (1) 
  0.0000

>  <r_epik_Ionization_Penalty_Neutral>  (1) 
  0.0012

>  <r_epik_State_Penalty>  (1) 
 -0.0000

>  <r_epik_Charging_Adjusted_Penalty>  (1) 
0

>  <i_epik_Tot_Q>  (1) 
0

>  <i_epik_Tot_abs_Q>  (1) 
0

>  <s_lp_Force_Field>  (1) 
S-OPLS

>  <r_lp_Energy>  (1) 
29.7258

>  <b_lp_Chiralities_Consistent>  (1) 
1

>  <s_lp_Variant>  (1) 
lig_67-1

>  <s_i_glide_gridfile>  (1) 
glide-grid_HIF2a-5TBM

>  <i_i_glide_lignum>  (1) 
39

>  <i_i_glide_rotatable_bonds>  (1) 
3

>  <r_i_docking_score>  (1) 
-11.0615599861457

>  <r_i_glide_ligand_efficiency>  (1) 
-0.480937390701987

>  <r_i_glide_ligand_efficiency_sa>  (1) 
-1.36772196336386

>  <r_i_glide_ligand_efficiency_ln>  (1) 
-2.67478550533057

>  <r_i_glide_gscore>  (1) 
-11.0615599861457

>  <r_i_glide_lipo>  (1) 
-4.4149434784909

>  <r_i_glide_hbond>  (1) 
-0.32

>  <r_i_glide_metal>  (1) 
-0

>  <r_i_glide_rewards>  (1) 
-3.77691258172398

>  <r_i_glide_evdw>  (1) 
-45.4248161315918

>  <r_i_glide_ecoul>  (1) 
-5.43804550170898

>  <r_i_glide_erotb>  (1) 
0.53724370590512

>  <r_i_glide_esite>  (1) 
0

>  <r_i_glide_emodel>  (1) 
-83.3266375494827

>  <r_i_glide_energy>  (1) 
-50.8628616333008

>  <r_i_glide_einternal>  (1) 
0.00676916865631938

>  <i_i_glide_confnum>  (1) 
2

>  <i_i_glide_posenum>  (1) 
2

>  <r_i_glide_eff_state_penalty>  (1) 
-0

>  <r_i_glide_rmsd>  (1) 
0.0957277555084212

>  <s_glide_core_constrain_type>  (1) 
snapped_core_restrain

$$$$
