lig_25
     RDKit          3D

 26 28  0  0  1  0  0  0  0  0999 V2000
   27.6211    1.6375  -11.1250 O   0  0  0  0  0  0  0  0  0  0  0  0
   27.2233    0.3814  -11.6314 C   0  0  1  0  0  0  0  0  0  0  0  0
   26.0659   -0.1370  -10.8169 C   0  0  0  0  0  0  0  0  0  0  0  0
   24.8666    0.0391  -11.5021 C   0  0  0  0  0  0  0  0  0  0  0  0
   23.6342   -0.3428  -10.9448 C   0  0  0  0  0  0  0  0  0  0  0  0
   22.5056   -0.2040  -11.7135 O   0  0  0  0  0  0  0  0  0  0  0  0
   21.2820   -0.4918  -11.1697 C   0  0  0  0  0  0  0  0  0  0  0  0
   20.5748    0.4921  -10.4558 C   0  0  0  0  0  0  0  0  0  0  0  0
   19.3164    0.1779   -9.9239 C   0  0  0  0  0  0  0  0  0  0  0  0
   18.4211    1.3847   -9.0763 Cl  0  0  0  0  0  0  0  0  0  0  0  0
   18.8219   -1.1294  -10.1103 C   0  0  0  0  0  0  0  0  0  0  0  0
   19.4854   -2.0824  -10.8006 N   0  0  0  0  0  0  0  0  0  0  0  0
   20.6918   -1.7651  -11.3197 C   0  0  0  0  0  0  0  0  0  0  0  0
   23.6360   -0.8617   -9.6232 C   0  0  0  0  0  0  0  0  0  0  0  0
   24.8487   -1.0311   -8.9181 C   0  0  0  0  0  0  0  0  0  0  0  0
   26.0809   -0.7048   -9.5244 C   0  0  0  0  0  0  0  0  0  0  0  0
   27.5965   -0.9564   -8.5978 S   0  0  0  0  0  0  0  0  0  0  0  0
   27.3076   -1.8903   -7.4997 O   0  0  0  0  0  0  0  0  0  0  0  0
   28.6792   -1.2957   -9.5273 O   0  0  0  0  0  0  0  0  0  0  0  0
   27.9539    0.6997   -7.8849 C   0  0  0  0  0  0  0  0  0  0  0  0
   29.2582    0.9024   -7.9613 F   0  0  0  0  0  0  0  0  0  0  0  0
   27.5517    0.7411   -6.6165 F   0  0  0  0  0  0  0  0  0  0  0  0
   25.0885    0.6413  -12.8670 C   0  0  0  0  0  0  0  0  0  0  0  0
   26.6178    0.5383  -13.0512 C   0  0  0  0  0  0  0  0  0  0  0  0
   27.1563    1.5350  -13.7589 F   0  0  0  0  0  0  0  0  0  0  0  0
   26.8524   -0.5933  -13.7183 F   0  0  0  0  0  0  0  0  0  0  0  0
  2  1  1  1
  2 24  1  0
  2  3  1  0
  3 16  1  0
  3  4  2  0
  4  5  1  0
  4 23  1  0
  5  6  1  0
  5 14  2  0
  6  7  1  0
  7 13  1  0
  7  8  2  0
  8  9  1  0
  9 10  1  0
  9 11  2  0
 11 12  1  0
 12 13  2  0
 14 15  1  0
 15 16  2  0
 16 17  1  0
 17 18  2  0
 17 19  2  0
 17 20  1  0
 20 21  1  0
 20 22  1  0
 23 24  1  0
 24 25  1  0
 24 26  1  0
M  END
>  <s_m_source_file>  (1) 
ligprep_hif2a.smi

>  <i_m_source_file_index>  (1) 
19

>  <i_lp_mmshare_version>  (1) 
53161

>  <i_f3d_flags>  (1) 
0

>  <s_epik_input>  (1) 
RltDSF0oRilTKD1PKSg9TyljMVtjSF1bY0hdYyhjKGMxMilbQ0gyXUMoRikoRilbQ0BIXTJbT0hdKU9jM1tjSF1jKENsKVtjSF1uW2NIXTM=

>  <s_epik_cmdline>  (1) 
J2VwaWtfcHl0aG9uJywgJy1waHQnLCAnMC4wJywgJy1waCcsICc3LjQnLCAnLXRuJywgJzgnLCAnLW1hJywgJzUwMCcsICctaW1hZScsICc8aW5maWxlLm1hZT4nLCAnLW9tYWUnLCAnPG91dGZpbGUubWFlPic=

>  <r_lp_tautomer_probability>  (1) 
1

>  <r_epik_Ionization_Penalty>  (1) 
  0.0012

>  <r_epik_Ionization_Penalty_Charging>  (1) 
  0.0000

>  <r_epik_Ionization_Penalty_Neutral>  (1) 
  0.0012

>  <r_epik_State_Penalty>  (1) 
 -0.0000

>  <r_epik_Charging_Adjusted_Penalty>  (1) 
0

>  <i_epik_Tot_Q>  (1) 
0

>  <i_epik_Tot_abs_Q>  (1) 
0

>  <s_lp_Force_Field>  (1) 
S-OPLS

>  <r_lp_Energy>  (1) 
32.7075

>  <b_lp_Chiralities_Consistent>  (1) 
1

>  <s_lp_Variant>  (1) 
lig_25-1

>  <s_i_glide_gridfile>  (1) 
glide-grid_HIF2a-5TBM

>  <i_i_glide_lignum>  (1) 
19

>  <i_i_glide_rotatable_bonds>  (1) 
5

>  <r_i_docking_score>  (1) 
-10.7456515149874

>  <r_i_glide_ligand_efficiency>  (1) 
-0.413294289037978

>  <r_i_glide_ligand_efficiency_sa>  (1) 
-1.22438270504051

>  <r_i_glide_ligand_efficiency_ln>  (1) 
-2.52358099893629

>  <r_i_glide_gscore>  (1) 
-10.7456515149874

>  <r_i_glide_lipo>  (1) 
-4.78398150265292

>  <r_i_glide_hbond>  (1) 
-0.32

>  <r_i_glide_metal>  (1) 
-0

>  <r_i_glide_rewards>  (1) 
-2.48265027405514

>  <r_i_glide_evdw>  (1) 
-54.0538749694824

>  <r_i_glide_ecoul>  (1) 
-6.91779136657715

>  <r_i_glide_erotb>  (1) 
0.581342715181333

>  <r_i_glide_esite>  (1) 
0

>  <r_i_glide_emodel>  (1) 
-97.4903078257458

>  <r_i_glide_energy>  (1) 
-60.9716663360596

>  <r_i_glide_einternal>  (1) 
0.868094742298126

>  <i_i_glide_confnum>  (1) 
154

>  <i_i_glide_posenum>  (1) 
33

>  <r_i_glide_eff_state_penalty>  (1) 
-0

>  <r_i_glide_rmsd>  (1) 
0.10643066316787

>  <s_glide_core_constrain_type>  (1) 
snapped_core_restrain

$$$$
