lig_235
     RDKit          3D

 28 30  0  0  1  0  0  0  0  0999 V2000
   27.6206    1.6691  -11.2180 O   0  0  0  0  0  0  0  0  0  0  0  0
   27.2389    0.4008  -11.6993 C   0  0  1  0  0  0  0  0  0  0  0  0
   26.0908   -0.1236  -10.8772 C   0  0  0  0  0  0  0  0  0  0  0  0
   24.8907    0.0360  -11.5599 C   0  0  0  0  0  0  0  0  0  0  0  0
   23.6679   -0.3614  -10.9997 C   0  0  0  0  0  0  0  0  0  0  0  0
   22.5426   -0.2525  -11.7721 O   0  0  0  0  0  0  0  0  0  0  0  0
   21.3134   -0.5183  -11.2256 C   0  0  0  0  0  0  0  0  0  0  0  0
   20.7048   -1.7871  -11.3435 C   0  0  0  0  0  0  0  0  0  0  0  0
   19.4912   -2.0732  -10.8233 N   0  0  0  0  0  0  0  0  0  0  0  0
   18.8355   -1.0948  -10.1592 C   0  0  0  0  0  0  0  0  0  0  0  0
   19.3507    0.2100  -10.0011 C   0  0  0  0  0  0  0  0  0  0  0  0
   18.6349    1.2539   -9.2870 C   0  0  0  0  0  0  0  0  0  0  0  0
   18.0801    2.0876   -8.7102 N   0  0  0  0  0  0  0  0  0  0  0  0
   20.6166    0.4889  -10.5365 C   0  0  0  0  0  0  0  0  0  0  0  0
   23.6815   -0.8852   -9.6805 C   0  0  0  0  0  0  0  0  0  0  0  0
   24.8934   -1.0443   -8.9767 C   0  0  0  0  0  0  0  0  0  0  0  0
   26.1159   -0.6959   -9.5860 C   0  0  0  0  0  0  0  0  0  0  0  0
   27.6289   -0.9324   -8.6590 S   0  0  0  0  0  0  0  0  0  0  0  0
   27.3454   -1.9050   -7.5924 O   0  0  0  0  0  0  0  0  0  0  0  0
   28.7302   -1.2214   -9.5838 O   0  0  0  0  0  0  0  0  0  0  0  0
   27.9521    0.7038   -7.8867 C   0  0  0  0  0  0  0  0  0  0  0  0
   29.2228    1.0143   -8.0647 F   0  0  0  0  0  0  0  0  0  0  0  0
   27.1814    1.6402   -8.4376 F   0  0  0  0  0  0  0  0  0  0  0  0
   27.6557    0.6149   -6.5943 F   0  0  0  0  0  0  0  0  0  0  0  0
   25.0929    0.6352  -12.9237 C   0  0  0  0  0  0  0  0  0  0  0  0
   26.6170    0.5440  -13.1144 C   0  0  0  0  0  0  0  0  0  0  0  0
   27.1238    1.5549  -13.8268 F   0  0  0  0  0  0  0  0  0  0  0  0
   26.8573   -0.5939  -13.7711 F   0  0  0  0  0  0  0  0  0  0  0  0
  2  1  1  1
  2 26  1  0
  2  3  1  0
  3 17  1  0
  3  4  2  0
  4  5  1  0
  4 25  1  0
  5  6  1  0
  5 15  2  0
  6  7  1  0
  7 14  1  0
  7  8  2  0
  8  9  1  0
  9 10  2  0
 10 11  1  0
 11 12  1  0
 11 14  2  0
 12 13  3  0
 15 16  1  0
 16 17  2  0
 17 18  1  0
 18 19  2  0
 18 20  2  0
 18 21  1  0
 21 22  1  0
 21 23  1  0
 21 24  1  0
 25 26  1  0
 26 27  1  0
 26 28  1  0
M  END
>  <s_m_source_file>  (1) 
ligprep_hif2a.smi

>  <i_m_source_file_index>  (1) 
17

>  <i_lp_mmshare_version>  (1) 
53161

>  <i_f3d_flags>  (1) 
0

>  <s_epik_input>  (1) 
RkMoRikoRilTKD1PKSg9TyljMVtjSF1bY0hdYyhjKGMxMilbQ0gyXUMoRikoRilbQ0BIXTJbT0hdKU9jM1tjSF1uW2NIXWMoQyNOKVtjSF0z

>  <s_epik_cmdline>  (1) 
J2VwaWtfcHl0aG9uJywgJy1waHQnLCAnMC4wJywgJy1waCcsICc3LjQnLCAnLXRuJywgJzgnLCAnLW1hJywgJzUwMCcsICctaW1hZScsICc8aW5maWxlLm1hZT4nLCAnLW9tYWUnLCAnPG91dGZpbGUubWFlPic=

>  <r_lp_tautomer_probability>  (1) 
1

>  <r_epik_Ionization_Penalty>  (1) 
  0.0012

>  <r_epik_Ionization_Penalty_Charging>  (1) 
  0.0000

>  <r_epik_Ionization_Penalty_Neutral>  (1) 
  0.0012

>  <r_epik_State_Penalty>  (1) 
 -0.0000

>  <r_epik_Charging_Adjusted_Penalty>  (1) 
0

>  <i_epik_Tot_Q>  (1) 
0

>  <i_epik_Tot_abs_Q>  (1) 
0

>  <s_lp_Force_Field>  (1) 
S-OPLS

>  <r_lp_Energy>  (1) 
38.3046

>  <b_lp_Chiralities_Consistent>  (1) 
1

>  <s_lp_Variant>  (1) 
lig_235-1

>  <s_i_glide_gridfile>  (1) 
glide-grid_HIF2a-5TBM

>  <i_i_glide_lignum>  (1) 
17

>  <i_i_glide_rotatable_bonds>  (1) 
5

>  <r_i_docking_score>  (1) 
-10.8889301331203

>  <r_i_glide_ligand_efficiency>  (1) 
-0.388890361897153

>  <r_i_glide_ligand_efficiency_sa>  (1) 
-1.18090018289396

>  <r_i_glide_ligand_efficiency_ln>  (1) 
-2.51348478760527

>  <r_i_glide_gscore>  (1) 
-10.8889301331203

>  <r_i_glide_lipo>  (1) 
-4.4950517593062

>  <r_i_glide_hbond>  (1) 
-0.32

>  <r_i_glide_metal>  (1) 
-0

>  <r_i_glide_rewards>  (1) 
-2.91816292322112

>  <r_i_glide_evdw>  (1) 
-54.7469749450684

>  <r_i_glide_ecoul>  (1) 
-6.52341651916504

>  <r_i_glide_erotb>  (1) 
0.560145774535195

>  <r_i_glide_esite>  (1) 
0

>  <r_i_glide_emodel>  (1) 
-499.11832537287

>  <r_i_glide_energy>  (1) 
-61.2703914642334

>  <r_i_glide_einternal>  (1) 
0.0279683861881495

>  <i_i_glide_confnum>  (1) 
146

>  <i_i_glide_posenum>  (1) 
41

>  <r_i_glide_eff_state_penalty>  (1) 
-0

>  <r_i_glide_rmsd>  (1) 
0.0988674991883434

>  <s_glide_core_constrain_type>  (1) 
snapped_core_restrain

$$$$
