lig_84
     RDKit          3D

 25 27  0  0  1  0  0  0  0  0999 V2000
   18.8382   -1.1089  -10.1508 C   0  0  0  0  0  0  0  0  0  0  0  0
   19.5949   -2.0651  -10.8529 C   0  0  0  0  0  0  0  0  0  0  0  0
   19.0768   -3.2922  -11.0765 F   0  0  0  0  0  0  0  0  0  0  0  0
   20.8766   -1.7414  -11.3387 C   0  0  0  0  0  0  0  0  0  0  0  0
   21.4034   -0.4539  -11.1198 C   0  0  0  0  0  0  0  0  0  0  0  0
   22.6296   -0.1080  -11.6229 O   0  0  0  0  0  0  0  0  0  0  0  0
   23.7697   -0.3113  -10.8801 C   0  0  0  0  0  0  0  0  0  0  0  0
   23.7717   -0.8659   -9.5701 C   0  0  0  0  0  0  0  0  0  0  0  0
   24.9862   -1.0669   -8.8726 C   0  0  0  0  0  0  0  0  0  0  0  0
   26.2183   -0.7375   -9.4754 C   0  0  0  0  0  0  0  0  0  0  0  0
   27.7399   -0.9425   -8.5712 S   0  0  0  0  0  0  0  0  0  0  0  0
   28.8208   -1.2239   -9.5192 O   0  0  0  0  0  0  0  0  0  0  0  0
   27.5010   -1.8911   -7.4759 O   0  0  0  0  0  0  0  0  0  0  0  0
   28.0508    0.7268   -7.8750 C   0  0  0  0  0  0  0  0  0  0  0  0
   27.4762    1.6658   -8.6258 F   0  0  0  0  0  0  0  0  0  0  0  0
   27.5960    0.7825   -6.6253 F   0  0  0  0  0  0  0  0  0  0  0  0
   26.2056   -0.1590  -10.7543 C   0  0  0  0  0  0  0  0  0  0  0  0
   25.0177    0.0638  -11.4260 C   0  0  0  0  0  0  0  0  0  0  0  0
   25.3515    0.7222  -12.6995 C   0  0  0  0  0  0  0  0  0  0  0  0
   24.5709    1.1280  -13.5505 O   0  0  0  0  0  0  0  0  0  0  0  0
   26.7010    0.8359  -12.7578 O   0  0  0  0  0  0  0  0  0  0  0  0
   27.3480    0.3218  -11.5998 C   0  0  0  0  0  0  0  0  0  0  0  0
   20.6390    0.5019  -10.4245 C   0  0  0  0  0  0  0  0  0  0  0  0
   19.3559    0.1835   -9.9430 C   0  0  0  0  0  0  0  0  0  0  0  0
   18.4212    1.3869   -9.1286 Cl  0  0  0  0  0  0  0  0  0  0  0  0
  1 24  2  0
  1  2  1  0
  2  3  1  0
  2  4  2  0
  4  5  1  0
  5  6  1  0
  5 23  2  0
  6  7  1  0
  7 18  1  0
  7  8  2  0
  8  9  1  0
  9 10  2  0
 10 11  1  0
 10 17  1  0
 11 12  2  0
 11 13  2  0
 11 14  1  0
 14 15  1  0
 14 16  1  0
 17 22  1  0
 17 18  2  0
 18 19  1  0
 19 20  2  0
 19 21  1  0
 21 22  1  0
 23 24  1  0
 24 25  1  0
M  END
>  <s_m_source_file>  (1) 
ligprep_hif2a.smi

>  <i_m_source_file_index>  (1) 
42

>  <i_lp_mmshare_version>  (1) 
53161

>  <i_f3d_flags>  (1) 
0

>  <s_epik_input>  (1) 
RmMxW2NIXWMoQ2wpW2NIXWMoW2NIXTEpT2MoYyhjMjMpQyg9TylPW0NIMl0zKVtjSF1bY0hdYzJTKD1PKSg9TylbQ0hdKEYpRg==

>  <s_epik_cmdline>  (1) 
J2VwaWtfcHl0aG9uJywgJy1waHQnLCAnMC4wJywgJy1waCcsICc3LjQnLCAnLXRuJywgJzgnLCAnLW1hJywgJzUwMCcsICctaW1hZScsICc8aW5maWxlLm1hZT4nLCAnLW9tYWUnLCAnPG91dGZpbGUubWFlPic=

>  <r_lp_tautomer_probability>  (1) 
1

>  <r_epik_Ionization_Penalty>  (1) 
  0.0000

>  <r_epik_Ionization_Penalty_Charging>  (1) 
  0.0000

>  <r_epik_Ionization_Penalty_Neutral>  (1) 
  0.0000

>  <r_epik_State_Penalty>  (1) 
 -0.0000

>  <r_epik_Charging_Adjusted_Penalty>  (1) 
0

>  <i_epik_Tot_Q>  (1) 
0

>  <i_epik_Tot_abs_Q>  (1) 
0

>  <s_epik_Chemistry_Notes>  (1) 
This compound has an ester and may undergo hydrolysis at high or low pH.

>  <s_lp_Force_Field>  (1) 
S-OPLS

>  <r_lp_Energy>  (1) 
14.816

>  <b_lp_Chiralities_Consistent>  (1) 
1

>  <s_lp_Variant>  (1) 
lig_84-1

>  <s_i_glide_gridfile>  (1) 
glide-grid_HIF2a-5TBM

>  <i_i_glide_lignum>  (1) 
42

>  <i_i_glide_rotatable_bonds>  (1) 
4

>  <r_i_docking_score>  (1) 
-10.1894835904597

>  <r_i_glide_ligand_efficiency>  (1) 
-0.407579343618389

>  <r_i_glide_ligand_efficiency_sa>  (1) 
-1.19176922919061

>  <r_i_glide_ligand_efficiency_ln>  (1) 
-2.41521296512159

>  <r_i_glide_gscore>  (1) 
-10.1894835904597

>  <r_i_glide_lipo>  (1) 
-4.41253154493547

>  <r_i_glide_hbond>  (1) 
0

>  <r_i_glide_metal>  (1) 
-0

>  <r_i_glide_rewards>  (1) 
-3.20478488027181

>  <r_i_glide_evdw>  (1) 
-53.9086990356445

>  <r_i_glide_ecoul>  (1) 
-2.55436635017395

>  <r_i_glide_erotb>  (1) 
0.506422739055869

>  <r_i_glide_esite>  (1) 
0

>  <r_i_glide_emodel>  (1) 
-87.4462904588384

>  <r_i_glide_energy>  (1) 
-56.4630653858185

>  <r_i_glide_einternal>  (1) 
1.5931932926178

>  <i_i_glide_confnum>  (1) 
4

>  <i_i_glide_posenum>  (1) 
2

>  <r_i_glide_eff_state_penalty>  (1) 
-0

>  <r_i_glide_rmsd>  (1) 
0.0906067848970614

>  <s_glide_core_constrain_type>  (1) 
snapped_core_restrain

$$$$
