lig_37
     RDKit          3D

 25 27  0  0  1  0  0  0  0  0999 V2000
   68.7271  -35.6639   28.1110 C   0  0  0  0  0  0  0  0  0  0  0  0
   70.0373  -35.5503   28.6178 C   0  0  0  0  0  0  0  0  0  0  0  0
   70.9219  -34.6054   28.0650 C   0  0  0  0  0  0  0  0  0  0  0  0
   70.4907  -33.7945   26.9977 C   0  0  0  0  0  0  0  0  0  0  0  0
   69.1776  -33.8948   26.4576 C   0  0  0  0  0  0  0  0  0  0  0  0
   68.3047  -34.8431   27.0443 C   0  0  0  0  0  0  0  0  0  0  0  0
   69.0574  -32.9305   25.3960 C   0  0  0  0  0  0  0  0  0  0  0  0
   70.2660  -32.2760   25.3024 C   0  0  0  0  0  0  0  0  0  0  0  0
   71.1093  -32.7954   26.2724 N   0  0  0  0  0  0  0  0  0  0  0  0
   70.7891  -31.1732   24.4496 C   0  0  0  0  0  0  0  0  0  0  0  0
   70.1336  -30.7652   23.4635 O   0  0  0  0  0  0  0  0  0  0  0  0
   71.8883  -30.6555   24.7444 O   0  0  0  0  0  0  0  0  0  0  0  0
   67.8242  -32.6290   24.5946 C   0  0  0  0  0  0  0  0  0  0  0  0
   67.1526  -31.3202   25.0463 C   0  0  0  0  0  0  0  0  0  0  0  0
   66.5439  -31.3809   26.4539 C   0  0  0  0  0  0  0  0  0  0  0  0
   65.4067  -32.2229   26.3777 O   0  0  0  0  0  0  0  0  0  0  0  0
   64.5336  -32.2433   27.4347 C   0  0  0  0  0  0  0  0  0  0  0  0
   63.2590  -32.7775   27.1776 C   0  0  0  0  0  0  0  0  0  0  0  0
   62.3051  -32.9128   28.2024 C   0  0  0  0  0  0  0  0  0  0  0  0
   62.6232  -32.4688   29.5066 C   0  0  0  0  0  0  0  0  0  0  0  0
   63.8862  -31.8836   29.7698 C   0  0  0  0  0  0  0  0  0  0  0  0
   64.8409  -31.7834   28.7355 C   0  0  0  0  0  0  0  0  0  0  0  0
   64.2321  -31.3712   31.1565 C   0  0  0  0  0  0  0  0  0  0  0  0
   61.4703  -32.6540   30.7781 Cl  0  0  0  0  0  0  0  0  0  0  0  0
   60.9703  -33.5636   27.8918 C   0  0  0  0  0  0  0  0  0  0  0  0
  1  6  2  0
  1  2  1  0
  2  3  2  0
  3  4  1  0
  4  9  1  0
  4  5  2  0
  5  6  1  0
  5  7  1  0
  7  8  2  0
  7 13  1  0
  8  9  1  0
  8 10  1  0
 10 11  2  0
 10 12  1  0
 13 14  1  0
 14 15  1  0
 15 16  1  0
 16 17  1  0
 17 22  1  0
 17 18  2  0
 18 19  1  0
 19 20  2  0
 19 25  1  0
 20 21  1  0
 20 24  1  0
 21 22  2  0
 21 23  1  0
M  CHG  1  12  -1
M  END
>  <s_m_source_file>  (1) 
ligprep_mcl1.smi

>  <i_m_source_file_index>  (1) 
13

>  <i_lp_mmshare_version>  (1) 
53161

>  <i_f3d_flags>  (1) 
0

>  <s_epik_input>  (1) 
W2NIXTFbY0hdW2NIXVtjSF1jKGMxMiljKGMoW25IXTIpQyg9TylbT0hdKVtDSDJdW0NIMl1bQ0gyXU9jM1tjSF1jKFtDSDNdKWMoQ2wpYyhbY0hdMylbQ0gzXQ==

>  <s_epik_cmdline>  (1) 
J2VwaWtfcHl0aG9uJywgJy1waHQnLCAnMC4wJywgJy1waCcsICc3LjQnLCAnLXRuJywgJzgnLCAnLW1hJywgJzUwMCcsICctaW1hZScsICc8aW5maWxlLm1hZT4nLCAnLW9tYWUnLCAnPG91dGZpbGUubWFlPic=

>  <r_lp_tautomer_probability>  (1) 
1

>  <r_epik_Ionization_Penalty>  (1) 
  0.0005

>  <r_epik_Ionization_Penalty_Charging>  (1) 
  0.0005

>  <r_epik_Ionization_Penalty_Neutral>  (1) 
  0.0000

>  <r_epik_State_Penalty>  (1) 
 -0.0000

>  <r_epik_Charging_Adjusted_Penalty>  (1) 
0.000518745

>  <i_epik_Tot_Q>  (1) 
-1

>  <i_epik_Tot_abs_Q>  (1) 
1

>  <s_lp_Force_Field>  (1) 
S-OPLS

>  <r_lp_Energy>  (1) 
32.8043

>  <b_lp_Chiralities_Consistent>  (1) 
1

>  <s_lp_Variant>  (1) 
lig_37-1

>  <s_i_glide_gridfile>  (1) 
glide-grid_MCL1-4HW3

>  <i_i_glide_lignum>  (1) 
13

>  <i_i_glide_rotatable_bonds>  (1) 
6

>  <r_i_docking_score>  (1) 
-9.56234286317792

>  <r_i_glide_ligand_efficiency>  (1) 
-0.382493714527117

>  <r_i_glide_ligand_efficiency_sa>  (1) 
-1.1184184048322

>  <r_i_glide_ligand_efficiency_ln>  (1) 
-2.26656181886478

>  <r_i_glide_gscore>  (1) 
-9.56234286317792

>  <r_i_glide_lipo>  (1) 
-5.48054042755764

>  <r_i_glide_hbond>  (1) 
-0.430091145565846

>  <r_i_glide_metal>  (1) 
-0

>  <r_i_glide_rewards>  (1) 
-1.80544625789785

>  <r_i_glide_evdw>  (1) 
-44.1461029052734

>  <r_i_glide_ecoul>  (1) 
-3.27262115478516

>  <r_i_glide_erotb>  (1) 
0.901815516812407

>  <r_i_glide_esite>  (1) 
-0.0498822304875442

>  <r_i_glide_emodel>  (1) 
-82.9523709478391

>  <r_i_glide_energy>  (1) 
-47.4187240600586

>  <r_i_glide_einternal>  (1) 
0.236127212643623

>  <i_i_glide_confnum>  (1) 
5

>  <i_i_glide_posenum>  (1) 
19

>  <r_i_glide_eff_state_penalty>  (1) 
-0

>  <r_i_glide_rmsd>  (1) 
0.082611355512197

>  <s_glide_core_constrain_type>  (1) 
snapped_core_restrain

$$$$
