lig_32
     RDKit          3D

 23 25  0  0  1  0  0  0  0  0999 V2000
   68.7696  -35.7042   28.0911 C   0  0  0  0  0  0  0  0  0  0  0  0
   70.0985  -35.6183   28.5499 C   0  0  0  0  0  0  0  0  0  0  0  0
   70.9788  -34.6825   27.9725 C   0  0  0  0  0  0  0  0  0  0  0  0
   70.5191  -33.8428   26.9386 C   0  0  0  0  0  0  0  0  0  0  0  0
   69.1859  -33.9209   26.4440 C   0  0  0  0  0  0  0  0  0  0  0  0
   68.3224  -34.8658   27.0500 C   0  0  0  0  0  0  0  0  0  0  0  0
   69.0406  -32.9480   25.3948 C   0  0  0  0  0  0  0  0  0  0  0  0
   70.2501  -32.2988   25.2703 C   0  0  0  0  0  0  0  0  0  0  0  0
   71.1208  -32.8359   26.2068 N   0  0  0  0  0  0  0  0  0  0  0  0
   70.7481  -31.1921   24.4087 C   0  0  0  0  0  0  0  0  0  0  0  0
   71.8458  -30.6588   24.6831 O   0  0  0  0  0  0  0  0  0  0  0  0
   70.0736  -30.7964   23.4307 O   0  0  0  0  0  0  0  0  0  0  0  0
   67.7906  -32.6484   24.6165 C   0  0  0  0  0  0  0  0  0  0  0  0
   67.1282  -31.3357   25.0677 C   0  0  0  0  0  0  0  0  0  0  0  0
   66.5034  -31.4062   26.4667 C   0  0  0  0  0  0  0  0  0  0  0  0
   65.3475  -32.2228   26.3781 O   0  0  0  0  0  0  0  0  0  0  0  0
   64.4846  -32.2507   27.4447 C   0  0  0  0  0  0  0  0  0  0  0  0
   63.1860  -32.7348   27.1932 C   0  0  0  0  0  0  0  0  0  0  0  0
   62.2566  -32.8575   28.2416 C   0  0  0  0  0  0  0  0  0  0  0  0
   62.6124  -32.4782   29.5524 C   0  0  0  0  0  0  0  0  0  0  0  0
   63.8983  -31.9584   29.8045 C   0  0  0  0  0  0  0  0  0  0  0  0
   64.8327  -31.8449   28.7564 C   0  0  0  0  0  0  0  0  0  0  0  0
   61.6260  -32.6535   30.6884 C   0  0  0  0  0  0  0  0  0  0  0  0
  1  6  2  0
  1  2  1  0
  2  3  2  0
  3  4  1  0
  4  9  1  0
  4  5  2  0
  5  6  1  0
  5  7  1  0
  7  8  2  0
  7 13  1  0
  8  9  1  0
  8 10  1  0
 10 11  2  0
 10 12  1  0
 13 14  1  0
 14 15  1  0
 15 16  1  0
 16 17  1  0
 17 22  1  0
 17 18  2  0
 18 19  1  0
 19 20  2  0
 20 21  1  0
 20 23  1  0
 21 22  2  0
M  CHG  1  12  -1
M  END
>  <s_m_source_file>  (1) 
ligprep_mcl1.smi

>  <i_m_source_file_index>  (1) 
8

>  <i_lp_mmshare_version>  (1) 
53161

>  <i_f3d_flags>  (1) 
0

>  <s_epik_input>  (1) 
W2NIXTFbY0hdW2NIXVtjSF1jKGMxMiljKGMoW25IXTIpQyg9TylbT0hdKVtDSDJdW0NIMl1bQ0gyXU9jM1tjSF1bY0hdYyhbQ0gzXSlbY0hdW2NIXTM=

>  <s_epik_cmdline>  (1) 
J2VwaWtfcHl0aG9uJywgJy1waHQnLCAnMC4wJywgJy1waCcsICc3LjQnLCAnLXRuJywgJzgnLCAnLW1hJywgJzUwMCcsICctaW1hZScsICc8aW5maWxlLm1hZT4nLCAnLW9tYWUnLCAnPG91dGZpbGUubWFlPic=

>  <r_lp_tautomer_probability>  (1) 
1

>  <r_epik_Ionization_Penalty>  (1) 
  0.0005

>  <r_epik_Ionization_Penalty_Charging>  (1) 
  0.0005

>  <r_epik_Ionization_Penalty_Neutral>  (1) 
  0.0000

>  <r_epik_State_Penalty>  (1) 
 -0.0000

>  <r_epik_Charging_Adjusted_Penalty>  (1) 
0.000454155

>  <i_epik_Tot_Q>  (1) 
-1

>  <i_epik_Tot_abs_Q>  (1) 
1

>  <s_lp_Force_Field>  (1) 
S-OPLS

>  <r_lp_Energy>  (1) 
32.6067

>  <b_lp_Chiralities_Consistent>  (1) 
1

>  <s_lp_Variant>  (1) 
lig_32-1

>  <s_i_glide_gridfile>  (1) 
glide-grid_MCL1-4HW3

>  <i_i_glide_lignum>  (1) 
8

>  <i_i_glide_rotatable_bonds>  (1) 
6

>  <r_i_docking_score>  (1) 
-8.50189089472525

>  <r_i_glide_ligand_efficiency>  (1) 
-0.369647430205446

>  <r_i_glide_ligand_efficiency_sa>  (1) 
-1.05122811984955

>  <r_i_glide_ligand_efficiency_ln>  (1) 
-2.05583430922901

>  <r_i_glide_gscore>  (1) 
-8.50189089472525

>  <r_i_glide_lipo>  (1) 
-4.82223196649819

>  <r_i_glide_hbond>  (1) 
-0.408224806598405

>  <r_i_glide_metal>  (1) 
-0

>  <r_i_glide_rewards>  (1) 
-1.98509493497294

>  <r_i_glide_evdw>  (1) 
-38.3433990478516

>  <r_i_glide_ecoul>  (1) 
-3.26107120513916

>  <r_i_glide_erotb>  (1) 
1.16744936544065

>  <r_i_glide_esite>  (1) 
-0.0474579189329131

>  <r_i_glide_emodel>  (1) 
-69.2646548914072

>  <r_i_glide_energy>  (1) 
-41.6044702529907

>  <r_i_glide_einternal>  (1) 
2.65060663223267

>  <i_i_glide_confnum>  (1) 
5

>  <i_i_glide_posenum>  (1) 
48

>  <r_i_glide_eff_state_penalty>  (1) 
-0

>  <r_i_glide_rmsd>  (1) 
0.102533375423064

>  <s_glide_core_constrain_type>  (1) 
snapped_core_restrain

$$$$
