lig_CHEMBL3265024
     RDKit          3D

 31 35  0  0  1  0  0  0  0  0999 V2000
    5.6536   -0.4922   16.4283 C   0  0  0  0  0  0  0  0  0  0  0  0
    5.9053    0.4335   15.4574 C   0  0  0  0  0  0  0  0  0  0  0  0
    4.7502    0.5329   14.7114 N   0  0  0  0  0  0  0  0  0  0  0  0
    3.8362   -0.4030   15.2468 C   0  0  0  0  0  0  0  0  0  0  0  0
    4.3903   -1.0520   16.2715 N   0  0  0  0  0  0  0  0  0  0  0  0
    2.5449   -0.4484   14.6454 C   0  0  0  0  0  0  0  0  0  0  0  0
    1.6148   -1.3510   15.1960 N   0  0  0  0  0  0  0  0  0  0  0  0
    0.2331   -1.5518   15.0006 C   0  0  0  0  0  0  0  0  0  0  0  0
   -0.3692   -2.5889   15.7450 C   0  0  0  0  0  0  0  0  0  0  0  0
   -1.7467   -2.8512   15.6297 C   0  0  0  0  0  0  0  0  0  0  0  0
   -2.5460   -2.0738   14.7700 C   0  0  0  0  0  0  0  0  0  0  0  0
   -3.8867   -2.3382   14.6766 O   0  0  0  0  0  0  0  0  0  0  0  0
   -4.2207   -3.1177   13.5400 C   0  0  0  0  0  0  0  0  0  0  0  0
   -1.9740   -1.0229   14.0204 C   0  0  0  0  0  0  0  0  0  0  0  0
   -2.8210   -0.2843   13.2177 O   0  0  0  0  0  0  0  0  0  0  0  0
   -2.2530    0.6804   12.3418 C   0  0  0  0  0  0  0  0  0  0  0  0
   -0.5826   -0.7764   14.1392 C   0  0  0  0  0  0  0  0  0  0  0  0
    2.2276    0.3349   13.6539 N   0  0  0  0  0  0  0  0  0  0  0  0
    3.1478    1.2478   13.1834 C   0  0  0  0  0  0  0  0  0  0  0  0
    2.6916    2.1426   12.1048 C   0  0  0  0  0  0  0  0  0  0  0  0
    3.5877    2.6055   11.1082 C   0  0  0  0  0  0  0  0  0  0  0  0
    3.1476    3.4470   10.0667 C   0  0  0  0  0  0  0  0  0  0  0  0
    1.7953    3.8264    9.9987 C   0  0  0  0  0  0  0  0  0  0  0  0
    0.9029    3.3957   11.0021 C   0  0  0  0  0  0  0  0  0  0  0  0
    1.3467    2.5706   12.0511 C   0  0  0  0  0  0  0  0  0  0  0  0
   -0.4391    3.8173   10.9497 N   0  0  0  0  0  0  0  0  0  0  0  0
   -0.9578    4.4150    9.8702 C   0  0  0  0  0  0  0  0  0  0  0  0
   -2.1249    4.7969    9.8353 O   0  0  0  0  0  0  0  0  0  0  0  0
   -0.0407    4.5600    8.6407 C   0  0  0  0  0  0  0  0  0  0  0  0
    1.3527    4.6400    8.9818 O   0  0  0  0  0  0  0  0  0  0  0  0
    4.4197    1.3486   13.6847 C   0  0  0  0  0  0  0  0  0  0  0  0
  1  5  1  0
  1  2  2  0
  2  3  1  0
  3 31  1  0
  3  4  1  0
  4  5  2  0
  4  6  1  0
  6  7  1  0
  6 18  2  0
  7  8  1  0
  8 17  1  0
  8  9  2  0
  9 10  1  0
 10 11  2  0
 11 12  1  0
 11 14  1  0
 12 13  1  0
 14 15  1  0
 14 17  2  0
 15 16  1  0
 18 19  1  0
 19 20  1  0
 19 31  2  0
 20 25  1  0
 20 21  2  0
 21 22  1  0
 22 23  2  0
 23 30  1  0
 23 24  1  0
 24 25  2  0
 24 26  1  0
 26 27  1  0
 27 28  2  0
 27 29  1  0
 29 30  1  0
M  END
>  <s_m_source_file>  (1) 
ligprep_syk.smi

>  <i_m_source_file_index>  (1) 
31

>  <i_lp_mmshare_version>  (1) 
53161

>  <i_f3d_flags>  (1) 
0

>  <s_epik_input>  (1) 
W0NIM11PYyhbY0hdMSljKE9bQ0gzXSlbY0hdW2NIXWMxW05IXWMoYyhuMjMpbltjSF1bY0hdMiluYyhbY0hdMyktYyhbY0hdW2NIXTQpW2NIXWMoYzQ1KVtOSF1DKD1PKVtDSDJdTzU=

>  <s_epik_cmdline>  (1) 
J2VwaWtfcHl0aG9uJywgJy1waHQnLCAnMC4wJywgJy1waCcsICc3LjQnLCAnLXRuJywgJzgnLCAnLW1hJywgJzUwMCcsICctaW1hZScsICc8aW5maWxlLm1hZT4nLCAnLW9tYWUnLCAnPG91dGZpbGUubWFlPic=

>  <r_lp_tautomer_probability>  (1) 
1

>  <r_epik_Ionization_Penalty>  (1) 
  0.0014

>  <r_epik_Ionization_Penalty_Charging>  (1) 
  0.0014

>  <r_epik_Ionization_Penalty_Neutral>  (1) 
  0.0000

>  <r_epik_State_Penalty>  (1) 
 -0.0000

>  <r_epik_Charging_Adjusted_Penalty>  (1) 
0.00136682

>  <i_epik_Tot_Q>  (1) 
0

>  <i_epik_Tot_abs_Q>  (1) 
0

>  <s_lp_Force_Field>  (1) 
S-OPLS

>  <r_lp_Energy>  (1) 
50.9166

>  <b_lp_Chiralities_Consistent>  (1) 
1

>  <s_lp_Variant>  (1) 
lig_CHEMBL3265024-1

>  <s_i_glide_gridfile>  (1) 
glide-grid_SYK-4PV0

>  <i_i_glide_lignum>  (1) 
31

>  <i_i_glide_rotatable_bonds>  (1) 
5

>  <r_i_docking_score>  (1) 
-8.00661261395736

>  <r_i_glide_ligand_efficiency>  (1) 
-0.258277826256689

>  <r_i_glide_ligand_efficiency_sa>  (1) 
-0.811348965415748

>  <r_i_glide_ligand_efficiency_ln>  (1) 
-1.80573651765579

>  <r_i_glide_gscore>  (1) 
-8.00661261395736

>  <r_i_glide_lipo>  (1) 
-2.77972594707507

>  <r_i_glide_hbond>  (1) 
-0.326346029907562

>  <r_i_glide_metal>  (1) 
-0

>  <r_i_glide_rewards>  (1) 
-2.07289943515515

>  <r_i_glide_evdw>  (1) 
-48.438892364502

>  <r_i_glide_ecoul>  (1) 
-6.41792917251587

>  <r_i_glide_erotb>  (1) 
0.56718480297939

>  <r_i_glide_esite>  (1) 
-0.0101920106964898

>  <r_i_glide_emodel>  (1) 
-87.7169794118141

>  <r_i_glide_energy>  (1) 
-54.8568215370178

>  <r_i_glide_einternal>  (1) 
-1.32343444647631e-07

>  <i_i_glide_confnum>  (1) 
2

>  <i_i_glide_posenum>  (1) 
1

>  <r_i_glide_eff_state_penalty>  (1) 
-0

>  <r_i_glide_rmsd>  (1) 
0.0764522646538154

>  <s_glide_core_constrain_type>  (1) 
snapped_core_restrain

$$$$
