lig_CHEMBL3265035
     RDKit          3D

 30 34  0  0  1  0  0  0  0  0999 V2000
   -7.0106   -2.0038   14.6987 O   0  0  0  0  0  0  0  0  0  0  0  0
   -6.2150   -2.4248   15.7830 C   0  0  0  0  0  0  0  0  0  0  0  0
   -4.7813   -1.8634   15.6663 C   0  0  0  0  0  0  0  0  0  0  0  0
   -3.9102   -2.6264   14.7337 N   0  0  0  0  0  0  0  0  0  0  0  0
   -2.4645   -2.2151   14.8453 C   0  0  0  0  0  0  0  0  0  0  0  0
   -1.9482   -1.1353   14.0959 C   0  0  0  0  0  0  0  0  0  0  0  0
   -0.5818   -0.8119   14.2054 C   0  0  0  0  0  0  0  0  0  0  0  0
    0.2653   -1.5648   15.0539 C   0  0  0  0  0  0  0  0  0  0  0  0
    1.6335   -1.3276   15.2334 N   0  0  0  0  0  0  0  0  0  0  0  0
    2.5423   -0.4311   14.6561 C   0  0  0  0  0  0  0  0  0  0  0  0
    2.2120    0.3476   13.6644 N   0  0  0  0  0  0  0  0  0  0  0  0
    3.1417    1.2448   13.1721 C   0  0  0  0  0  0  0  0  0  0  0  0
    2.6788    2.1417   12.0925 C   0  0  0  0  0  0  0  0  0  0  0  0
    3.5623    2.5546   11.0626 C   0  0  0  0  0  0  0  0  0  0  0  0
    3.1328    3.4019   10.0232 C   0  0  0  0  0  0  0  0  0  0  0  0
    1.8035    3.8762    9.9823 C   0  0  0  0  0  0  0  0  0  0  0  0
    0.9332    3.4689   11.0303 C   0  0  0  0  0  0  0  0  0  0  0  0
    1.3541    2.6260   12.0692 C   0  0  0  0  0  0  0  0  0  0  0  0
   -0.2627    4.0888   10.7188 N   0  0  0  0  0  0  0  0  0  0  0  0
   -0.2202    4.8270    9.5791 N   0  0  0  0  0  0  0  0  0  0  0  0
    1.0080    4.7117    9.1328 C   0  0  0  0  0  0  0  0  0  0  0  0
    4.4247    1.3273   13.6532 C   0  0  0  0  0  0  0  0  0  0  0  0
    4.7577    0.5204   14.6899 N   0  0  0  0  0  0  0  0  0  0  0  0
    3.8381   -0.4022   15.2425 C   0  0  0  0  0  0  0  0  0  0  0  0
    4.3875   -1.0436   16.2719 N   0  0  0  0  0  0  0  0  0  0  0  0
    5.6463   -0.4886   16.4229 C   0  0  0  0  0  0  0  0  0  0  0  0
    5.9148    0.4188   15.4376 C   0  0  0  0  0  0  0  0  0  0  0  0
   -0.2836   -2.6221   15.8115 C   0  0  0  0  0  0  0  0  0  0  0  0
   -1.6487   -2.9459   15.7110 C   0  0  0  0  0  0  0  0  0  0  0  0
   -4.3816   -2.7003   13.3289 C   0  0  0  0  0  0  0  0  0  0  0  0
  1  2  1  0
  2  3  1  0
  3  4  1  0
  4  5  1  0
  4 30  1  0
  5 29  2  0
  5  6  1  0
  6  7  2  0
  7  8  1  0
  8  9  1  0
  8 28  2  0
  9 10  1  0
 10 24  1  0
 10 11  2  0
 11 12  1  0
 12 13  1  0
 12 22  2  0
 13 18  1  0
 13 14  2  0
 14 15  1  0
 15 16  2  0
 16 21  1  0
 16 17  1  0
 17 18  2  0
 17 19  1  0
 19 20  1  0
 20 21  2  0
 22 23  1  0
 23 27  1  0
 23 24  1  0
 24 25  2  0
 25 26  1  0
 26 27  2  0
 28 29  1  0
M  END
>  <s_m_source_file>  (1) 
ligprep_syk.smi

>  <i_m_source_file_index>  (1) 
42

>  <i_lp_mmshare_version>  (1) 
53161

>  <i_f3d_flags>  (1) 
0

>  <s_epik_input>  (1) 
W09IXVtDSDJdW0NIMl1OKFtDSDNdKWMxW2NIXVtjSF1jKFtjSF1bY0hdMSlbTkhdYyhjKG4yMyluW2NIXVtjSF0zKW5jKFtjSF0yKS1jKFtjSF1bY0hdNClbY0hdYyhjNDUpW25IXW5bY0hdNQ==

>  <s_epik_cmdline>  (1) 
J2VwaWtfcHl0aG9uJywgJy1waHQnLCAnMC4wJywgJy1waCcsICc3LjQnLCAnLXRuJywgJzgnLCAnLW1hJywgJzUwMCcsICctaW1hZScsICc8aW5maWxlLm1hZT4nLCAnLW9tYWUnLCAnPG91dGZpbGUubWFlPic=

>  <r_lp_tautomer_probability>  (1) 
0.980392

>  <r_epik_Ionization_Penalty>  (1) 
  0.3903

>  <r_epik_Ionization_Penalty_Charging>  (1) 
  0.3903

>  <r_epik_Ionization_Penalty_Neutral>  (1) 
  0.0000

>  <r_epik_State_Penalty>  (1) 
  0.3881

>  <r_epik_Charging_Adjusted_Penalty>  (1) 
0.778354

>  <i_epik_Tot_Q>  (1) 
1

>  <i_epik_Tot_abs_Q>  (1) 
1

>  <s_lp_Force_Field>  (1) 
S-OPLS

>  <r_lp_Energy>  (1) 
44.7094

>  <b_lp_Chiralities_Consistent>  (1) 
1

>  <s_lp_Variant>  (1) 
lig_CHEMBL3265035-2

>  <s_i_glide_gridfile>  (1) 
glide-grid_SYK-4PV0

>  <i_i_glide_lignum>  (1) 
44

>  <i_i_glide_rotatable_bonds>  (1) 
7

>  <r_i_docking_score>  (1) 
-7.16530686483709

>  <r_i_glide_ligand_efficiency>  (1) 
-0.238843562161236

>  <r_i_glide_ligand_efficiency_sa>  (1) 
-0.742142479343813

>  <r_i_glide_ligand_efficiency_ln>  (1) 
-1.62803579196238

>  <r_i_glide_gscore>  (1) 
-7.55340686483709

>  <r_i_glide_lipo>  (1) 
-2.67670671844726

>  <r_i_glide_hbond>  (1) 
-0.359310494288882

>  <r_i_glide_metal>  (1) 
-0

>  <r_i_glide_rewards>  (1) 
-2.0914963857775

>  <r_i_glide_evdw>  (1) 
-45.5899848937988

>  <r_i_glide_ecoul>  (1) 
-5.62625885009766

>  <r_i_glide_erotb>  (1) 
0.733492854520366

>  <r_i_glide_esite>  (1) 
-0.0359480486392224

>  <r_i_glide_emodel>  (1) 
-67.9593158875577

>  <r_i_glide_energy>  (1) 
-51.2162437438965

>  <r_i_glide_einternal>  (1) 
3.21544313430786

>  <i_i_glide_confnum>  (1) 
41

>  <i_i_glide_posenum>  (1) 
69

>  <r_i_glide_eff_state_penalty>  (1) 
0.3881

>  <r_i_glide_rmsd>  (1) 
0.0897869981933588

>  <s_glide_core_constrain_type>  (1) 
snapped_core_restrain

$$$$
