lig_CHEMBL3264996
     RDKit          3D

 39 43  0  0  1  0  0  0  0  0999 V2000
    5.6484   -0.4942   16.4772 C   0  0  0  0  0  0  0  0  0  0  0  0
    5.9085    0.4130   15.4912 C   0  0  0  0  0  0  0  0  0  0  0  0
    4.7544    0.5111   14.7430 N   0  0  0  0  0  0  0  0  0  0  0  0
    3.8301   -0.4052   15.2972 C   0  0  0  0  0  0  0  0  0  0  0  0
    4.3792   -1.0422   16.3295 N   0  0  0  0  0  0  0  0  0  0  0  0
    2.5364   -0.4434   14.7006 C   0  0  0  0  0  0  0  0  0  0  0  0
    1.5998   -1.3307   15.2596 N   0  0  0  0  0  0  0  0  0  0  0  0
    0.2255   -1.5538   15.0413 C   0  0  0  0  0  0  0  0  0  0  0  0
   -0.3705   -2.5888   15.7918 C   0  0  0  0  0  0  0  0  0  0  0  0
   -1.7449   -2.8641   15.6702 C   0  0  0  0  0  0  0  0  0  0  0  0
   -2.5449   -2.1097   14.7898 C   0  0  0  0  0  0  0  0  0  0  0  0
   -3.8856   -2.3831   14.7057 O   0  0  0  0  0  0  0  0  0  0  0  0
   -4.2383   -3.1349   13.5555 C   0  0  0  0  0  0  0  0  0  0  0  0
   -1.9754   -1.0632   14.0314 C   0  0  0  0  0  0  0  0  0  0  0  0
   -2.8190   -0.3377   13.2146 O   0  0  0  0  0  0  0  0  0  0  0  0
   -2.2367    0.6571   12.3863 C   0  0  0  0  0  0  0  0  0  0  0  0
   -0.5864   -0.7977   14.1612 C   0  0  0  0  0  0  0  0  0  0  0  0
    2.2196    0.3409   13.7101 N   0  0  0  0  0  0  0  0  0  0  0  0
    3.1492    1.2359   13.2248 C   0  0  0  0  0  0  0  0  0  0  0  0
    2.6905    2.1294   12.1464 C   0  0  0  0  0  0  0  0  0  0  0  0
    3.6010    2.6005   11.1709 C   0  0  0  0  0  0  0  0  0  0  0  0
    3.1693    3.4329   10.1238 C   0  0  0  0  0  0  0  0  0  0  0  0
    1.8150    3.8028   10.0360 C   0  0  0  0  0  0  0  0  0  0  0  0
    0.8920    3.3668   11.0098 C   0  0  0  0  0  0  0  0  0  0  0  0
   -0.5546    3.7262   10.8638 C   0  0  0  0  0  0  0  0  0  0  0  0
   -1.0696    3.7178    9.7462 O   0  0  0  0  0  0  0  0  0  0  0  0
   -1.1876    4.0988   11.9937 N   0  0  0  0  0  0  0  0  0  0  0  0
   -2.5467    4.5118   12.1195 C   0  0  0  0  0  0  0  0  0  0  0  0
   -2.8749    5.4148   13.1528 C   0  0  0  0  0  0  0  0  0  0  0  0
   -4.2015    5.8644   13.3192 C   0  0  0  0  0  0  0  0  0  0  0  0
   -5.2255    5.4124   12.4502 C   0  0  0  0  0  0  0  0  0  0  0  0
   -6.6483    5.8422   12.5977 C   0  0  0  0  0  0  0  0  0  0  0  0
   -7.5698    5.3570   11.9387 O   0  0  0  0  0  0  0  0  0  0  0  0
   -6.8382    6.7988   13.5308 O   0  0  0  0  0  0  0  0  0  0  0  0
   -8.1581    7.2659   13.7742 C   0  0  0  0  0  0  0  0  0  0  0  0
   -4.8977    4.4887   11.4293 C   0  0  0  0  0  0  0  0  0  0  0  0
   -3.5753    4.0323   11.2718 C   0  0  0  0  0  0  0  0  0  0  0  0
    1.3355    2.5308   12.0592 C   0  0  0  0  0  0  0  0  0  0  0  0
    4.4318    1.3161   13.7067 C   0  0  0  0  0  0  0  0  0  0  0  0
  1  5  1  0
  1  2  2  0
  2  3  1  0
  3 39  1  0
  3  4  1  0
  4  5  2  0
  4  6  1  0
  6  7  1  0
  6 18  2  0
  7  8  1  0
  8 17  1  0
  8  9  2  0
  9 10  1  0
 10 11  2  0
 11 12  1  0
 11 14  1  0
 12 13  1  0
 14 15  1  0
 14 17  2  0
 15 16  1  0
 18 19  1  0
 19 20  1  0
 19 39  2  0
 20 38  1  0
 20 21  2  0
 21 22  1  0
 22 23  2  0
 23 24  1  0
 24 25  1  0
 24 38  2  0
 25 26  2  0
 25 27  1  0
 27 28  1  0
 28 37  1  0
 28 29  2  0
 29 30  1  0
 30 31  2  0
 31 32  1  0
 31 36  1  0
 32 33  2  0
 32 34  1  0
 34 35  1  0
 36 37  2  0
M  END
>  <s_m_source_file>  (1) 
ligprep_syk.smi

>  <i_m_source_file_index>  (1) 
4

>  <i_lp_mmshare_version>  (1) 
53161

>  <i_f3d_flags>  (1) 
0

>  <s_epik_input>  (1) 
W0NIM11PYyhbY0hdMSljKE9bQ0gzXSlbY0hdW2NIXWMxW05IXWMoYyhuMjMpbltjSF1bY0hdMiluYyhbY0hdMyktYzRbY0hdW2NIXVtjSF1jKFtjSF00KUMoPU8pW05IXWM1W2NIXVtjSF1jKFtjSF1bY0hdNSlDKD1PKU9bQ0gzXQ==

>  <s_epik_cmdline>  (1) 
J2VwaWtfcHl0aG9uJywgJy1waHQnLCAnMC4wJywgJy1waCcsICc3LjQnLCAnLXRuJywgJzgnLCAnLW1hJywgJzUwMCcsICctaW1hZScsICc8aW5maWxlLm1hZT4nLCAnLW9tYWUnLCAnPG91dGZpbGUubWFlPic=

>  <r_lp_tautomer_probability>  (1) 
1

>  <r_epik_Ionization_Penalty>  (1) 
  0.0009

>  <r_epik_Ionization_Penalty_Charging>  (1) 
  0.0009

>  <r_epik_Ionization_Penalty_Neutral>  (1) 
  0.0000

>  <r_epik_State_Penalty>  (1) 
 -0.0000

>  <r_epik_Charging_Adjusted_Penalty>  (1) 
0.000851558

>  <i_epik_Tot_Q>  (1) 
0

>  <i_epik_Tot_abs_Q>  (1) 
0

>  <s_epik_Chemistry_Notes>  (1) 
This compound has an ester and may undergo hydrolysis at high or low pH.

>  <s_lp_Force_Field>  (1) 
S-OPLS

>  <r_lp_Energy>  (1) 
55.1764

>  <b_lp_Chiralities_Consistent>  (1) 
1

>  <s_lp_Variant>  (1) 
lig_CHEMBL3264996-1

>  <s_i_glide_gridfile>  (1) 
glide-grid_SYK-4PV0

>  <i_i_glide_lignum>  (1) 
4

>  <i_i_glide_rotatable_bonds>  (1) 
10

>  <r_i_docking_score>  (1) 
-8.62703324967808

>  <r_i_glide_ligand_efficiency>  (1) 
-0.221205980760976

>  <r_i_glide_ligand_efficiency_sa>  (1) 
-0.750156252303713

>  <r_i_glide_ligand_efficiency_ln>  (1) 
-1.84988082163292

>  <r_i_glide_gscore>  (1) 
-8.62703324967808

>  <r_i_glide_lipo>  (1) 
-2.88578989943501

>  <r_i_glide_hbond>  (1) 
-0.836078519671108

>  <r_i_glide_metal>  (1) 
-0

>  <r_i_glide_rewards>  (1) 
-1.4873566307553

>  <r_i_glide_evdw>  (1) 
-55.3281631469727

>  <r_i_glide_ecoul>  (1) 
-9.07964134216309

>  <r_i_glide_erotb>  (1) 
0.750503920547659

>  <r_i_glide_esite>  (1) 
-0.0399577616912209

>  <r_i_glide_emodel>  (1) 
-96.8226283771373

>  <r_i_glide_energy>  (1) 
-64.4078044891357

>  <r_i_glide_einternal>  (1) 
0.0129685075953603

>  <i_i_glide_confnum>  (1) 
2

>  <i_i_glide_posenum>  (1) 
1

>  <r_i_glide_eff_state_penalty>  (1) 
-0

>  <r_i_glide_rmsd>  (1) 
0.0499023470067498

>  <s_glide_core_constrain_type>  (1) 
snapped_core_restrain

$$$$
