lig_CHEMBL3265021
     RDKit          3D

 29 33  0  0  1  0  0  0  0  0999 V2000
   -0.3889    3.9511   10.6222 C   0  0  0  0  0  0  0  0  0  0  0  0
   -0.2758    4.6516    9.5186 N   0  0  0  0  0  0  0  0  0  0  0  0
    1.0329    4.5682    9.1687 N   0  0  0  0  0  0  0  0  0  0  0  0
    1.7925    3.7958   10.0277 C   0  0  0  0  0  0  0  0  0  0  0  0
    3.1432    3.4165   10.0658 C   0  0  0  0  0  0  0  0  0  0  0  0
    3.5844    2.5825   11.1090 C   0  0  0  0  0  0  0  0  0  0  0  0
    2.6894    2.1297   12.1093 C   0  0  0  0  0  0  0  0  0  0  0  0
    3.1526    1.2398   13.1897 C   0  0  0  0  0  0  0  0  0  0  0  0
    4.4274    1.3370   13.6863 C   0  0  0  0  0  0  0  0  0  0  0  0
    4.7556    0.5244   14.7166 N   0  0  0  0  0  0  0  0  0  0  0  0
    3.8366   -0.4018   15.2614 C   0  0  0  0  0  0  0  0  0  0  0  0
    4.3880   -1.0403   16.2938 N   0  0  0  0  0  0  0  0  0  0  0  0
    5.6562   -0.4920   16.4379 C   0  0  0  0  0  0  0  0  0  0  0  0
    5.9132    0.4225   15.4579 C   0  0  0  0  0  0  0  0  0  0  0  0
    2.5459   -0.4488   14.6588 C   0  0  0  0  0  0  0  0  0  0  0  0
    1.6154   -1.3511   15.2061 N   0  0  0  0  0  0  0  0  0  0  0  0
    0.2355   -1.5484   15.0089 C   0  0  0  0  0  0  0  0  0  0  0  0
   -0.3679   -2.5795   15.7597 C   0  0  0  0  0  0  0  0  0  0  0  0
   -1.7453   -2.8379   15.6472 C   0  0  0  0  0  0  0  0  0  0  0  0
   -2.5414   -2.0756   14.7731 C   0  0  0  0  0  0  0  0  0  0  0  0
   -3.8823   -2.3443   14.6776 O   0  0  0  0  0  0  0  0  0  0  0  0
   -4.2145   -3.1194   13.5366 C   0  0  0  0  0  0  0  0  0  0  0  0
   -1.9687   -1.0276   14.0206 C   0  0  0  0  0  0  0  0  0  0  0  0
   -2.8211   -0.2905   13.2224 O   0  0  0  0  0  0  0  0  0  0  0  0
   -2.2619    0.6824   12.3518 C   0  0  0  0  0  0  0  0  0  0  0  0
   -0.5773   -0.7773   14.1418 C   0  0  0  0  0  0  0  0  0  0  0  0
    2.2306    0.3303   13.6638 N   0  0  0  0  0  0  0  0  0  0  0  0
    1.3399    2.5508   12.0566 C   0  0  0  0  0  0  0  0  0  0  0  0
    0.8620    3.3749   11.0138 C   0  0  0  0  0  0  0  0  0  0  0  0
  1 29  1  0
  1  2  2  0
  2  3  1  0
  3  4  1  0
  4 29  2  0
  4  5  1  0
  5  6  2  0
  6  7  1  0
  7  8  1  0
  7 28  2  0
  8 27  1  0
  8  9  2  0
  9 10  1  0
 10 14  1  0
 10 11  1  0
 11 12  2  0
 11 15  1  0
 12 13  1  0
 13 14  2  0
 15 16  1  0
 15 27  2  0
 16 17  1  0
 17 26  1  0
 17 18  2  0
 18 19  1  0
 19 20  2  0
 20 21  1  0
 20 23  1  0
 21 22  1  0
 23 24  1  0
 23 26  2  0
 24 25  1  0
 28 29  1  0
M  END
>  <s_m_source_file>  (1) 
ligprep_syk.smi

>  <i_m_source_file_index>  (1) 
28

>  <i_lp_mmshare_version>  (1) 
53161

>  <i_f3d_flags>  (1) 
0

>  <s_epik_input>  (1) 
W25IXTFuW2NIXWMoYzEyKVtjSF1jKFtjSF1bY0hdMiktYyhbY0hdMyluYyhjKG4zNCluW2NIXVtjSF00KVtOSF1jNVtjSF1bY0hdYyhPW0NIM10pYyhbY0hdNSlPW0NIM10=

>  <s_epik_cmdline>  (1) 
J2VwaWtfcHl0aG9uJywgJy1waHQnLCAnMC4wJywgJy1waCcsICc3LjQnLCAnLXRuJywgJzgnLCAnLW1hJywgJzUwMCcsICctaW1hZScsICc8aW5maWxlLm1hZT4nLCAnLW9tYWUnLCAnPG91dGZpbGUubWFlPic=

>  <r_lp_tautomer_probability>  (1) 
1

>  <r_epik_Ionization_Penalty>  (1) 
  0.0009

>  <r_epik_Ionization_Penalty_Charging>  (1) 
  0.0009

>  <r_epik_Ionization_Penalty_Neutral>  (1) 
  0.0000

>  <r_epik_State_Penalty>  (1) 
 -0.0000

>  <r_epik_Charging_Adjusted_Penalty>  (1) 
0.000851558

>  <i_epik_Tot_Q>  (1) 
0

>  <i_epik_Tot_abs_Q>  (1) 
0

>  <s_lp_Force_Field>  (1) 
S-OPLS

>  <r_lp_Energy>  (1) 
43.5459

>  <b_lp_Chiralities_Consistent>  (1) 
1

>  <s_lp_Variant>  (1) 
lig_CHEMBL3265021-1

>  <s_i_glide_gridfile>  (1) 
glide-grid_SYK-4PV0

>  <i_i_glide_lignum>  (1) 
28

>  <i_i_glide_rotatable_bonds>  (1) 
5

>  <r_i_docking_score>  (1) 
-7.58229313993507

>  <r_i_glide_ligand_efficiency>  (1) 
-0.261458384135692

>  <r_i_glide_ligand_efficiency_sa>  (1) 
-0.80328299189509

>  <r_i_glide_ligand_efficiency_ln>  (1) 
-1.73615285868064

>  <r_i_glide_gscore>  (1) 
-7.58229313993507

>  <r_i_glide_lipo>  (1) 
-2.58023159057545

>  <r_i_glide_hbond>  (1) 
-0.333325800354272

>  <r_i_glide_metal>  (1) 
-0

>  <r_i_glide_rewards>  (1) 
-2.18723623372461

>  <r_i_glide_evdw>  (1) 
-46.1575202941895

>  <r_i_glide_ecoul>  (1) 
-5.50260019302368

>  <r_i_glide_erotb>  (1) 
0.651766528382292

>  <r_i_glide_esite>  (1) 
0

>  <r_i_glide_emodel>  (1) 
-81.4279610339109

>  <r_i_glide_energy>  (1) 
-51.6601204872131

>  <r_i_glide_einternal>  (1) 
-3.58821409918164e-07

>  <i_i_glide_confnum>  (1) 
2

>  <i_i_glide_posenum>  (1) 
1

>  <r_i_glide_eff_state_penalty>  (1) 
-0

>  <r_i_glide_rmsd>  (1) 
0.070390598829594

>  <s_glide_core_constrain_type>  (1) 
snapped_core_restrain

$$$$
