lig_CHEMBL3264994
     RDKit          3D

 38 42  0  0  1  0  0  0  0  0999 V2000
    5.6576   -0.4850   16.4250 C   0  0  0  0  0  0  0  0  0  0  0  0
    5.9149    0.4156   15.4278 C   0  0  0  0  0  0  0  0  0  0  0  0
    4.7578    0.5106   14.6775 N   0  0  0  0  0  0  0  0  0  0  0  0
    3.8393   -0.4021   15.2414 C   0  0  0  0  0  0  0  0  0  0  0  0
    4.3856   -1.0278   16.2847 N   0  0  0  0  0  0  0  0  0  0  0  0
    2.5515   -0.4552   14.6416 C   0  0  0  0  0  0  0  0  0  0  0  0
    1.6410   -1.3564   15.2124 N   0  0  0  0  0  0  0  0  0  0  0  0
    0.2698   -1.5835   15.0260 C   0  0  0  0  0  0  0  0  0  0  0  0
   -0.5783   -0.8161   14.1975 C   0  0  0  0  0  0  0  0  0  0  0  0
   -1.9478   -1.1317   14.0967 C   0  0  0  0  0  0  0  0  0  0  0  0
   -2.5069   -2.2203   14.8092 C   0  0  0  0  0  0  0  0  0  0  0  0
   -4.0044   -2.5557   14.6959 C   0  0  0  0  0  0  0  0  0  0  0  0
   -4.7876   -1.6022   15.6211 C   0  0  0  0  0  0  0  0  0  0  0  0
   -4.3226   -4.0033   15.1382 C   0  0  0  0  0  0  0  0  0  0  0  0
   -4.4876   -2.4364   13.2310 C   0  0  0  0  0  0  0  0  0  0  0  0
   -1.6527   -2.9608   15.6570 C   0  0  0  0  0  0  0  0  0  0  0  0
   -0.2861   -2.6505   15.7570 C   0  0  0  0  0  0  0  0  0  0  0  0
    2.2227    0.3088   13.6387 N   0  0  0  0  0  0  0  0  0  0  0  0
    3.1423    1.2087   13.1411 C   0  0  0  0  0  0  0  0  0  0  0  0
    2.6642    2.1090   12.0664 C   0  0  0  0  0  0  0  0  0  0  0  0
    3.5455    2.5928   11.0695 C   0  0  0  0  0  0  0  0  0  0  0  0
    3.1014    3.4848   10.0734 C   0  0  0  0  0  0  0  0  0  0  0  0
    1.7617    3.9149   10.0579 C   0  0  0  0  0  0  0  0  0  0  0  0
    0.8619    3.4336   11.0278 C   0  0  0  0  0  0  0  0  0  0  0  0
   -0.4614    3.9352   11.0543 N   0  0  0  0  0  0  0  0  0  0  0  0
   -1.5808    3.2213   11.2586 C   0  0  0  0  0  0  0  0  0  0  0  0
   -1.6682    2.0013   11.1111 O   0  0  0  0  0  0  0  0  0  0  0  0
   -2.7760    4.0451   11.6288 C   0  0  0  0  0  0  0  0  0  0  0  0
   -2.6660    5.0073   12.6535 C   0  0  0  0  0  0  0  0  0  0  0  0
   -3.7974    5.7203   13.0864 C   0  0  0  0  0  0  0  0  0  0  0  0
   -5.0519    5.5306   12.4711 C   0  0  0  0  0  0  0  0  0  0  0  0
   -6.2534    6.3087   12.9399 C   0  0  0  0  0  0  0  0  0  0  0  0
   -7.3688    6.0571   12.4341 O   0  0  0  0  0  0  0  0  0  0  0  0
   -6.1094    7.1827   13.8271 O   0  0  0  0  0  0  0  0  0  0  0  0
   -5.1568    4.5797   11.4261 C   0  0  0  0  0  0  0  0  0  0  0  0
   -4.0318    3.8279   11.0215 C   0  0  0  0  0  0  0  0  0  0  0  0
    1.3187    2.5445   12.0276 C   0  0  0  0  0  0  0  0  0  0  0  0
    4.4255    1.3018   13.6279 C   0  0  0  0  0  0  0  0  0  0  0  0
  1  5  1  0
  1  2  2  0
  2  3  1  0
  3 38  1  0
  3  4  1  0
  4  5  2  0
  4  6  1  0
  6  7  1  0
  6 18  2  0
  7  8  1  0
  8 17  1  0
  8  9  2  0
  9 10  1  0
 10 11  2  0
 11 12  1  0
 11 16  1  0
 12 13  1  0
 12 14  1  0
 12 15  1  0
 16 17  2  0
 18 19  1  0
 19 20  1  0
 19 38  2  0
 20 37  1  0
 20 21  2  0
 21 22  1  0
 22 23  2  0
 23 24  1  0
 24 25  1  0
 24 37  2  0
 25 26  1  0
 26 27  2  0
 26 28  1  0
 28 36  1  0
 28 29  2  0
 29 30  1  0
 30 31  2  0
 31 32  1  0
 31 35  1  0
 32 33  2  0
 32 34  1  0
 35 36  2  0
M  CHG  1  34  -1
M  END
>  <s_m_source_file>  (1) 
ligprep_syk.smi

>  <i_m_source_file_index>  (1) 
2

>  <i_lp_mmshare_version>  (1) 
53161

>  <i_f3d_flags>  (1) 
0

>  <s_epik_input>  (1) 
W0NIM11DKFtDSDNdKShbQ0gzXSljKFtjSF1bY0hdMSlbY0hdW2NIXWMxW05IXWMoYyhuMjMpbltjSF1bY0hdMiluYyhbY0hdMyktYzRbY0hdW2NIXVtjSF1jKFtjSF00KVtOSF1DKD1PKWM1W2NIXVtjSF1jKEMoPU8pW09IXSlbY0hdW2NIXTU=

>  <s_epik_cmdline>  (1) 
J2VwaWtfcHl0aG9uJywgJy1waHQnLCAnMC4wJywgJy1waCcsICc3LjQnLCAnLXRuJywgJzgnLCAnLW1hJywgJzUwMCcsICctaW1hZScsICc8aW5maWxlLm1hZT4nLCAnLW9tYWUnLCAnPG91dGZpbGUubWFlPic=

>  <r_lp_tautomer_probability>  (1) 
1

>  <r_epik_Ionization_Penalty>  (1) 
  0.0010

>  <r_epik_Ionization_Penalty_Charging>  (1) 
  0.0010

>  <r_epik_Ionization_Penalty_Neutral>  (1) 
  0.0000

>  <r_epik_State_Penalty>  (1) 
 -0.0000

>  <r_epik_Charging_Adjusted_Penalty>  (1) 
0.000981166

>  <i_epik_Tot_Q>  (1) 
-1

>  <i_epik_Tot_abs_Q>  (1) 
1

>  <s_lp_Force_Field>  (1) 
S-OPLS

>  <r_lp_Energy>  (1) 
64.7515

>  <b_lp_Chiralities_Consistent>  (1) 
1

>  <s_lp_Variant>  (1) 
lig_CHEMBL3264994-1

>  <s_i_glide_gridfile>  (1) 
glide-grid_SYK-4PV0

>  <i_i_glide_lignum>  (1) 
2

>  <i_i_glide_rotatable_bonds>  (1) 
8

>  <r_i_docking_score>  (1) 
-8.34711504973766

>  <r_i_glide_ligand_efficiency>  (1) 
-0.219660922361517

>  <r_i_glide_ligand_efficiency_sa>  (1) 
-0.738494617918752

>  <r_i_glide_ligand_efficiency_ln>  (1) 
-1.79988355197052

>  <r_i_glide_gscore>  (1) 
-8.34711504973766

>  <r_i_glide_lipo>  (1) 
-2.74777116354402

>  <r_i_glide_hbond>  (1) 
-0.427974967097901

>  <r_i_glide_metal>  (1) 
-0

>  <r_i_glide_rewards>  (1) 
-1.16211914601482

>  <r_i_glide_evdw>  (1) 
-53.4879989624023

>  <r_i_glide_ecoul>  (1) 
-12.5421686172485

>  <r_i_glide_erotb>  (1) 
0.562229015896356

>  <r_i_glide_esite>  (1) 
-0.0157535482698691

>  <r_i_glide_emodel>  (1) 
-99.1675447618242

>  <r_i_glide_energy>  (1) 
-66.0301675796509

>  <r_i_glide_einternal>  (1) 
9.06780624389648

>  <i_i_glide_confnum>  (1) 
24

>  <i_i_glide_posenum>  (1) 
287

>  <r_i_glide_eff_state_penalty>  (1) 
-0

>  <r_i_glide_rmsd>  (1) 
0.0922526462829415

>  <s_glide_core_constrain_type>  (1) 
snapped_core_restrain

$$$$
