stable:False satoms:12 tatoms:24 sratio:0.5
  -OEChem-07092417273D

 24 24  0     1  0  0  0  0  0999 V2000
    7.2216   -0.1366   21.2454 C   0  0  0  0  0  0  0  0  0  0  0  0
    7.5245   -3.6647   23.5279 C   0  0  0  0  0  0  0  0  0  0  0  0
    7.6407   -1.6777   20.2744 C   0  0  0  0  0  0  0  0  0  0  0  0
   10.5013   -1.1256   22.7315 N   0  0  0  0  0  0  0  0  0  0  0  0
    7.0492   -3.7627   22.1716 S   0  0  0  0  0  0  0  0  0  0  0  0
    7.6653   -3.6839   25.0403 S   0  0  0  0  0  0  0  0  0  0  0  0
    7.6579   -0.3780   20.0982 N   0  0  0  0  0  0  0  0  0  0  0  0
   10.1023   -1.8941   23.6776 N   0  0  0  0  0  0  0  0  0  0  0  0
   10.2937    1.1227   22.0578 N   0  5  0  0  0  0  0  0  0  0  0  0
    6.7737   -0.0656   22.3316 N   0  0  0  0  0  0  0  0  0  0  0  0
    8.5489   -2.0013   25.5234 C   0  0  2  0  0  0  0  0  0  0  0  0
   11.7154   -2.6518   22.0805 H   0  0  0  0  0  0  0  0  0  0  0  0
    6.1424    0.5474   22.7736 H   0  0  0  0  0  0  0  0  0  0  0  0
    8.5662   -0.3783   25.1568 S   0  0  0  0  0  0  0  0  0  0  0  0
   10.4464   -2.0035   20.8713 H   0  0  0  0  0  0  0  0  0  0  0  0
    8.8521    1.8912   23.1592 H   0  0  0  0  0  0  0  0  0  0  0  0
   10.9233   -1.9916   21.8312 C   0  3  0  0  0  0  0  0  0  0  0  0
    8.6439    2.0727   21.3579 H   0  0  0  0  0  0  0  0  0  0  0  0
    8.3590   -2.1718   26.5993 H   0  0  0  0  0  0  0  0  0  0  0  0
    8.0107   -2.9586   19.7338 N   0  0  0  0  0  0  0  0  0  0  0  0
    7.5806   -2.8119   20.7906 C   0  0  0  0  0  0  0  0  0  0  0  0
   10.6363    0.4846   21.3694 H   0  0  0  0  0  0  0  0  0  0  0  0
    9.5063   -1.7273   24.7243 N   0  0  0  0  0  0  0  0  0  0  0  0
    9.2221    1.6763   22.1693 C   0  3  0  0  0  0  0  0  0  0  0  0
  3 20  1  0  0  0  0
 20 21  1  0  0  0  0
  3  7  1  0  0  0  0
  1  7  1  0  0  0  0
  3 21  2  0  0  0  0
  5 21  1  0  0  0  0
 15 17  1  0  0  0  0
  1 10  2  3  0  0  0
 18 24  1  0  0  0  0
  9 22  1  0  0  0  0
 12 17  1  0  0  0  0
  4 17  1  0  0  0  0
  9 24  1  0  0  0  0
 16 24  1  0  0  0  0
  2  5  1  0  0  0  0
 10 13  1  0  0  0  0
  4  8  2  0  0  0  0
  2  6  1  0  0  0  0
  8 23  1  0  0  0  0
 14 23  1  0  0  0  0
 11 23  1  0  0  0  0
  6 11  1  0  0  0  0
 11 14  1  0  0  0  0
 11 19  1  0  0  0  0
M  CHG  3   9  -1  17   1  24   1
M  END
> <Shapegauss>
-160.014267

$$$$
