stable:False satoms:9 tatoms:24 sratio:0.375
  -OEChem-08062418023D

 45 46  0     1  0  0  0  0  0999 V2000
    6.3405   -5.1538   26.2216 C   0  0  0  0  0  0  0  0  0  0  0  0
    7.9478   -4.5551   26.0356 S   0  0  0  0  0  0  0  0  0  0  0  0
    8.8293   -5.6997   25.9976 O   0  0  0  0  0  0  0  0  0  0  0  0
    8.2043   -3.6981   27.1428 O   0  0  0  0  0  0  0  0  0  0  0  0
    7.8849   -3.7782   24.6031 N   0  0  0  0  0  0  0  0  0  0  0  0
    8.8305   -3.1103   24.1269 C   0  0  0  0  0  0  0  0  0  0  0  0
    9.2975   -2.0987   23.5586 C   0  0  0  0  0  0  0  0  0  0  0  0
   10.1621   -1.2115   23.4849 C   0  0  2  0  0  0  0  0  0  0  0  0
   10.7839   -0.1276   24.6495 C   0  0  0  0  0  0  0  0  0  0  0  0
   11.8302    0.1831   24.6390 C   0  0  0  0  0  0  0  0  0  0  0  0
   12.9013   -0.1562   23.9820 C   0  0  0  0  0  0  0  0  0  0  0  0
   12.6324   -1.3438   23.0212 C   0  0  0  0  0  0  0  0  0  0  0  0
   11.7691   -1.7725   22.8493 C   0  0  0  0  0  0  0  0  0  0  0  0
    9.6267   -0.6674   22.5589 C   0  0  2  0  0  0  0  0  0  0  0  0
    9.0014   -0.0058   21.5713 C   0  0  0  0  0  0  0  0  0  0  0  0
    9.4764    0.9651   21.2208 O   0  0  0  0  0  0  0  0  0  0  0  0
    7.9046   -0.5961   21.1765 N   0  0  0  0  0  0  0  0  0  0  0  0
    7.2297   -0.1291   20.2282 C   0  0  0  0  0  0  0  0  0  0  0  0
    7.3611   -0.0075   18.9202 C   0  0  0  0  0  0  0  0  0  0  0  0
    6.9622    0.3467   17.8456 N   0  0  0  0  0  0  0  0  0  0  0  0
    5.7810    0.9341   18.2504 C   0  0  0  0  0  0  0  0  0  0  0  0
    5.3283    0.9480   19.3421 C   0  0  0  0  0  0  0  0  0  0  0  0
    5.8224    0.4960   20.5122 C   0  0  0  0  0  0  0  0  0  0  0  0
    5.2395    0.5548   21.9342 C   0  0  0  0  0  0  0  0  0  0  0  0
    6.2616   -5.7054   27.1701 H   0  0  0  0  0  0  0  0  0  0  0  0
    5.6338   -4.3109   26.2280 H   0  0  0  0  0  0  0  0  0  0  0  0
    6.1009   -5.8268   25.3852 H   0  0  0  0  0  0  0  0  0  0  0  0
    7.1136   -3.1454   24.6716 H   0  0  0  0  0  0  0  0  0  0  0  0
    9.6961   -3.7340   24.2946 H   0  0  0  0  0  0  0  0  0  0  0  0
   11.0762   -1.6891   23.1023 H   0  0  0  0  0  0  0  0  0  0  0  0
   10.1265    0.2593   25.4141 H   0  0  0  0  0  0  0  0  0  0  0  0
   12.0257    0.9696   25.3528 H   0  0  0  0  0  0  0  0  0  0  0  0
   13.6823   -0.4479   24.6996 H   0  0  0  0  0  0  0  0  0  0  0  0
   13.2474    0.7067   23.3941 H   0  0  0  0  0  0  0  0  0  0  0  0
   13.4844   -1.7381   22.4874 H   0  0  0  0  0  0  0  0  0  0  0  0
   11.7044   -2.5968   22.1546 H   0  0  0  0  0  0  0  0  0  0  0  0
   10.8815   -1.4210   23.3543 H   0  0  0  0  0  0  0  0  0  0  0  0
   10.1889   -1.2754   21.8348 H   0  0  0  0  0  0  0  0  0  0  0  0
    7.5998   -1.4303   21.6360 H   0  0  0  0  0  0  0  0  0  0  0  0
    8.3195   -0.4584   18.7093 H   0  0  0  0  0  0  0  0  0  0  0  0
    5.2071    1.4363   17.4856 H   0  0  0  0  0  0  0  0  0  0  0  0
    4.3505    1.4007   19.4149 H   0  0  0  0  0  0  0  0  0  0  0  0
    4.6478   -0.3525   22.1262 H   0  0  0  0  0  0  0  0  0  0  0  0
    6.0598    0.6188   22.6642 H   0  0  0  0  0  0  0  0  0  0  0  0
    4.5939    1.4403   22.0294 H   0  0  0  0  0  0  0  0  0  0  0  0
 20 21  2  0  0  0  0
 19 20  1  0  0  0  0
 21 22  1  0  0  0  0
 18 19  2  0  0  0  0
 22 23  2  0  0  0  0
 18 23  1  0  0  0  0
 17 18  1  0  0  0  0
 23 24  1  0  0  0  0
 15 16  2  0  0  0  0
 15 17  1  0  0  0  0
 14 15  1  0  0  0  0
  8 14  1  0  0  0  0
  7 14  1  0  0  0  0
 12 13  2  0  0  0  0
 11 12  1  0  0  0  0
  7  8  1  0  0  0  0
  8  9  1  0  0  0  0
  6  7  2  3  0  0  0
 10 11  1  0  0  0  0
  5  6  1  0  0  0  0
  9 10  2  0  0  0  0
  2  5  1  0  0  0  0
  2  3  2  0  0  0  0
  1  2  1  0  0  0  0
  2  4  2  0  0  0  0
  1 25  1  0  0  0  0
  1 26  1  0  0  0  0
  1 27  1  0  0  0  0
  5 28  1  0  0  0  0
  6 29  1  0  0  0  0
  8 30  1  0  0  0  0
  9 31  1  0  0  0  0
 10 32  1  0  0  0  0
 11 33  1  0  0  0  0
 11 34  1  0  0  0  0
 12 35  1  0  0  0  0
 13 36  1  0  0  0  0
 13 37  1  0  0  0  0
 14 38  1  0  0  0  0
 17 39  1  0  0  0  0
 19 40  1  0  0  0  0
 21 41  1  0  0  0  0
 22 42  1  0  0  0  0
 24 43  1  0  0  0  0
 24 44  1  0  0  0  0
 24 45  1  0  0  0  0
M  END
> <Chemgauss4>
-13.404399

$$$$
