stable:False satoms:21 tatoms:24 sratio:0.875
  -OEChem-07092417313D

 24 24  0     1  0  0  0  0  0999 V2000
    6.5908   -1.1706   24.8771 H   0  0  0  0  0  0  0  0  0  0  0  0
   10.4373   -2.9674   22.3036 H   0  0  0  0  0  0  0  0  0  0  0  0
    9.6389   -2.4815   25.0349 H   0  0  0  0  0  0  0  0  0  0  0  0
    8.6247   -1.9043   21.9563 N   0  0  0  0  0  0  0  0  0  0  0  0
    7.4713   -1.1747   24.3872 N   0  0  0  0  0  0  0  0  0  0  0  0
    7.5224   -2.4644   22.4103 C   0  0  0  0  0  0  0  0  0  0  0  0
   10.3267    1.5062   21.8474 C   0  0  0  0  0  0  0  0  0  0  0  0
    9.4799   -3.8767   24.0163 H   0  0  0  0  0  0  0  0  0  0  0  0
    9.2625   -2.8030   24.0663 C   0  0  0  0  0  0  0  0  0  0  0  0
   11.2341    1.6549   23.3283 S   0  0  0  0  0  0  0  0  0  0  0  0
   10.4714   -1.3164   22.9662 H   0  0  0  0  0  0  0  0  0  0  0  0
    9.8482   -2.1995   22.8069 C   0  0  0  0  0  0  0  0  0  0  0  0
    7.7771   -2.5086   23.9094 C   0  0  1  0  0  0  0  0  0  0  0  0
    8.2966   -0.5827   24.2532 H   0  0  0  0  0  0  0  0  0  0  0  0
    8.6870    0.5145   22.5890 H   0  0  0  0  0  0  0  0  0  0  0  0
   10.6506    2.1432   20.8469 O   0  0  0  0  0  0  0  0  0  0  0  0
    9.2549    0.6859   21.7676 N   0  0  0  0  0  0  0  0  0  0  0  0
    7.9623   -1.0082   20.7946 C   0  0  0  0  0  0  0  0  0  0  0  0
    8.8044    0.1596   20.5390 C   0  0  0  0  0  0  0  0  0  0  0  0
    7.8394   -1.6465   19.9107 H   0  0  0  0  0  0  0  0  0  0  0  0
    8.9146    0.6899   19.4612 O   0  0  0  0  0  0  0  0  0  0  0  0
    7.0478   -3.2112   24.2919 H   0  0  0  0  0  0  0  0  0  0  0  0
    6.4715   -2.6659   21.8083 O   0  0  0  0  0  0  0  0  0  0  0  0
    6.9695   -0.6626   21.1242 H   0  0  0  0  0  0  0  0  0  0  0  0
 19 21  2  0  0  0  0
 18 20  1  0  0  0  0
 18 19  1  0  0  0  0
 17 19  1  0  0  0  0
 18 24  1  0  0  0  0
  4 18  1  0  0  0  0
  7 16  2  0  0  0  0
  7 17  1  0  0  0  0
 15 17  1  0  0  0  0
  6 23  2  0  0  0  0
  7 10  1  0  0  0  0
  4  6  1  0  0  0  0
  4 12  1  0  0  0  0
  2 12  1  0  0  0  0
  6 13  1  0  0  0  0
 11 12  1  0  0  0  0
  9 12  1  0  0  0  0
  9 13  1  0  0  0  0
 13 22  1  0  0  0  0
  5 13  1  0  0  0  0
  8  9  1  0  0  0  0
  3  9  1  0  0  0  0
  5 14  1  0  0  0  0
  1  5  1  0  0  0  0
M  END
> <Shapegauss>
-120.684784

$$$$
