stable:False satoms:21 tatoms:24 sratio:0.875
  -OEChem-08052420423D

 24 24  0     1  0  0  0  0  0999 V2000
    6.9408   -6.5009   26.1097 H   0  0  0  0  0  0  0  0  0  0  0  0
    6.9975   -2.4144   25.9980 H   0  0  0  0  0  0  0  0  0  0  0  0
    5.6031   -4.0961   27.8851 H   0  0  0  0  0  0  0  0  0  0  0  0
    7.8391   -4.3004   25.4772 N   0  0  0  0  0  0  0  0  0  0  0  0
    6.7339   -6.3051   27.0683 N   0  3  0  0  0  0  0  0  0  0  0  0
    8.5269   -4.9135   26.4183 C   0  0  0  0  0  0  0  0  0  0  0  0
    5.1900   -5.0614   22.8421 C   0  0  0  0  0  0  0  0  0  0  0  0
    6.9958   -3.0760   28.0569 H   0  0  0  0  0  0  0  0  0  0  0  0
    6.5851   -3.8995   27.4604 C   0  0  0  0  0  0  0  0  0  0  0  0
    3.6447   -4.9087   23.6341 S   0  5  0  0  0  0  0  0  0  0  0  0
    5.7772   -3.5778   25.4293 H   0  0  0  0  0  0  0  0  0  0  0  0
    6.6923   -3.4616   26.0147 C   0  0  0  0  0  0  0  0  0  0  0  0
    7.4748   -5.1344   27.4946 C   0  0  1  0  0  0  0  0  0  0  0  0
    5.7545   -6.1304   27.1699 H   0  0  0  0  0  0  0  0  0  0  0  0
    5.2884   -4.9135   21.6255 O   0  0  0  0  0  0  0  0  0  0  0  0
    6.3091   -5.3394   23.5480 N   0  5  0  0  0  0  0  0  0  0  0  0
    8.5323   -4.9943   24.2007 C   0  0  0  0  0  0  0  0  0  0  0  0
    7.5948   -4.9987   23.0785 C   0  0  0  0  0  0  0  0  0  0  0  0
    9.4555   -4.4431   23.9824 H   0  0  0  0  0  0  0  0  0  0  0  0
    7.9263   -4.9226   21.9212 O   0  0  0  0  0  0  0  0  0  0  0  0
    8.0398   -5.3637   28.3890 H   0  0  0  0  0  0  0  0  0  0  0  0
    9.6528   -5.3970   26.3408 O   0  0  0  0  0  0  0  0  0  0  0  0
    8.7906   -6.0359   24.4494 H   0  0  0  0  0  0  0  0  0  0  0  0
    6.9939   -7.0889   27.6322 H   0  0  0  0  0  0  0  0  0  0  0  0
 18 20  2  0  0  0  0
 17 19  1  0  0  0  0
 17 18  1  0  0  0  0
 16 18  1  0  0  0  0
 17 23  1  0  0  0  0
  4 17  1  0  0  0  0
  7 15  2  0  0  0  0
  7 16  1  0  0  0  0
  6 22  2  0  0  0  0
  7 10  1  0  0  0  0
  4  6  1  0  0  0  0
  4 12  1  0  0  0  0
  2 12  1  0  0  0  0
  6 13  1  0  0  0  0
 11 12  1  0  0  0  0
  9 12  1  0  0  0  0
  9 13  1  0  0  0  0
 13 21  1  0  0  0  0
  5 13  1  0  0  0  0
  8  9  1  0  0  0  0
  3  9  1  0  0  0  0
  5 14  1  0  0  0  0
  1  5  1  0  0  0  0
  5 24  1  0  0  0  0
M  CHG  3   5   1  10  -1  16  -1
M  END
> <Chemgauss4>
-6.597843

$$$$
