stable:False satoms:21 tatoms:24 sratio:0.875
  -OEChem-08052420423D

 24 24  0     1  0  0  0  0  0999 V2000
  -10.1267   -0.5043  -21.5180 H   0  0  0  0  0  0  0  0  0  0  0  0
   -8.6648   -1.0217  -25.3009 H   0  0  0  0  0  0  0  0  0  0  0  0
   -7.1838   -0.2790  -22.9369 H   0  0  0  0  0  0  0  0  0  0  0  0
  -10.1670   -1.3501  -23.8272 N   0  0  0  0  0  0  0  0  0  0  0  0
   -9.1736   -0.7151  -21.3010 N   0  3  0  0  0  0  0  0  0  0  0  0
   -9.9054   -2.2692  -22.9207 C   0  0  0  0  0  0  0  0  0  0  0  0
  -11.5608    2.1911  -24.0661 C   0  0  0  0  0  0  0  0  0  0  0  0
   -7.2159   -1.7432  -23.8668 H   0  0  0  0  0  0  0  0  0  0  0  0
   -7.8598   -1.0327  -23.3347 C   0  0  0  0  0  0  0  0  0  0  0  0
  -10.2163    3.2712  -23.8127 S   0  5  0  0  0  0  0  0  0  0  0  0
   -9.0868    0.4585  -24.4082 H   0  0  0  0  0  0  0  0  0  0  0  0
   -8.9307   -0.6194  -24.3224 C   0  0  0  0  0  0  0  0  0  0  0  0
   -8.6711   -1.7033  -22.2348 C   0  0  1  0  0  0  0  0  0  0  0  0
   -8.6226    0.1163  -21.3729 H   0  0  0  0  0  0  0  0  0  0  0  0
  -12.5505    2.5590  -24.6961 O   0  0  0  0  0  0  0  0  0  0  0  0
  -11.5404    0.9292  -23.5813 N   0  5  0  0  0  0  0  0  0  0  0  0
  -11.7738   -1.3963  -23.7404 C   0  0  0  0  0  0  0  0  0  0  0  0
  -12.3217   -0.1019  -24.1434 C   0  0  0  0  0  0  0  0  0  0  0  0
  -12.1182   -2.2214  -24.3763 H   0  0  0  0  0  0  0  0  0  0  0  0
  -13.3851    0.0392  -24.6950 O   0  0  0  0  0  0  0  0  0  0  0  0
   -8.2500   -2.5399  -21.6920 H   0  0  0  0  0  0  0  0  0  0  0  0
  -10.6154   -3.2052  -22.5639 O   0  0  0  0  0  0  0  0  0  0  0  0
  -12.0755   -1.5993  -22.7004 H   0  0  0  0  0  0  0  0  0  0  0  0
   -9.1155   -1.0752  -20.3699 H   0  0  0  0  0  0  0  0  0  0  0  0
 18 20  2  0  0  0  0
 17 19  1  0  0  0  0
 17 18  1  0  0  0  0
 16 18  1  0  0  0  0
 17 23  1  0  0  0  0
  4 17  1  0  0  0  0
  7 15  2  0  0  0  0
  7 16  1  0  0  0  0
  6 22  2  0  0  0  0
  7 10  1  0  0  0  0
  4  6  1  0  0  0  0
  4 12  1  0  0  0  0
  2 12  1  0  0  0  0
  6 13  1  0  0  0  0
 11 12  1  0  0  0  0
  9 12  1  0  0  0  0
  9 13  1  0  0  0  0
 13 21  1  0  0  0  0
  5 13  1  0  0  0  0
  8  9  1  0  0  0  0
  3  9  1  0  0  0  0
  5 14  1  0  0  0  0
  1  5  1  0  0  0  0
  5 24  1  0  0  0  0
M  CHG  3   5   1  10  -1  16  -1
M  END
> <Chemgauss4>
-5.527855

$$$$
