
 OpenBabel07202414163D

 59 63  0  0  0  0  0  0  0  0999 V2000
   -2.0165   -0.2530   -0.0408 Cl  0  0  0  0  0  0  0  0  0  0  0  0
   -0.2969   -0.1333   -0.0575 C   0  0  0  0  0  0  0  0  0  0  0  0
    0.3103    1.1095   -0.0590 C   0  0  0  0  0  0  0  0  0  0  0  0
    1.7050    1.2262   -0.0569 C   0  0  0  0  0  0  0  0  0  0  0  0
    2.3465    2.4828   -0.0021 N   0  0  0  0  0  0  0  0  0  0  0  0
    1.8739    3.6908    0.5516 C   0  0  0  0  0  0  0  0  0  0  0  0
    1.0572    3.6988    1.6935 C   0  0  0  0  0  0  0  0  0  0  0  0
    0.5261    4.8775    2.2422 C   0  0  0  0  0  0  0  0  0  0  0  0
   -0.2455    4.8692    3.3761 N   0  0  0  0  0  0  0  0  0  0  0  0
   -0.0674    3.8890    4.4541 C   0  0  0  0  0  0  0  0  0  0  0  0
   -1.3436    3.0613    4.6506 C   0  0  0  0  0  0  0  0  0  0  0  0
   -2.4868    3.9092    4.8660 O   0  0  0  0  0  0  0  0  0  0  0  0
   -2.6801    4.7763    3.7329 C   0  0  0  0  0  0  0  0  0  0  0  0
   -1.4654    5.6855    3.4832 C   0  0  0  0  0  0  0  0  0  0  0  0
    0.8423    6.0826    1.5787 C   0  0  0  0  0  0  0  0  0  0  0  0
    1.6600    6.0972    0.4527 C   0  0  0  0  0  0  0  0  0  0  0  0
    2.1746    4.9073   -0.0635 C   0  0  0  0  0  0  0  0  0  0  0  0
    2.4851    0.0383   -0.0363 C   0  0  0  0  0  0  0  0  0  0  0  0
    1.8768   -1.2233   -0.0476 C   0  0  0  0  0  0  0  0  0  0  0  0
    2.6405   -2.5275    0.0714 C   0  0  0  0  0  0  0  0  0  0  0  0
    4.0313   -2.5718   -0.5276 C   0  0  0  0  0  0  0  0  0  0  0  0
    5.0442   -2.4567    0.1558 O   0  0  0  0  0  0  0  0  0  0  0  0
    4.0137   -2.7605   -1.9019 N   0  0  0  0  0  0  0  0  0  0  0  0
    5.2190   -2.7945   -2.6476 C   0  0  0  0  0  0  0  0  0  0  0  0
    5.4090   -1.7982   -3.6022 C   0  0  0  0  0  0  0  0  0  0  0  0
    6.5324   -1.6567   -4.3293 N   0  0  0  0  0  0  0  0  0  0  0  0
    7.4050   -2.6778   -4.2562 C   0  0  0  0  0  0  0  0  0  0  0  0
    7.1624   -3.8616   -3.5738 C   0  0  0  0  0  0  0  0  0  0  0  0
    7.8615   -5.0408   -3.8910 C   0  0  0  0  0  0  0  0  0  0  0  0
    7.6729   -6.1982   -3.1460 C   0  0  0  0  0  0  0  0  0  0  0  0
    6.8842   -6.1426   -2.0027 C   0  0  0  0  0  0  0  0  0  0  0  0
    6.1198   -4.9979   -1.7348 C   0  0  0  0  0  0  0  0  0  0  0  0
    6.1474   -3.8725   -2.5961 C   0  0  0  0  0  0  0  0  0  0  0  0
    0.4676   -1.2941   -0.0489 C   0  0  0  0  0  0  0  0  0  0  0  0
   -0.3077    2.0029   -0.0782 H   0  0  0  0  0  0  0  0  0  0  0  0
    3.1326    2.5734   -0.6342 H   0  0  0  0  0  0  0  0  0  0  0  0
    0.8355    2.7517    2.1681 H   0  0  0  0  0  0  0  0  0  0  0  0
    0.1402    4.4413    5.3771 H   0  0  0  0  0  0  0  0  0  0  0  0
    0.7919    3.2263    4.2991 H   0  0  0  0  0  0  0  0  0  0  0  0
   -1.2375    2.4150    5.5253 H   0  0  0  0  0  0  0  0  0  0  0  0
   -1.5343    2.4214    3.8057 H   0  0  0  0  0  0  0  0  0  0  0  0
   -3.5632    5.3876    3.9375 H   0  0  0  0  0  0  0  0  0  0  0  0
   -2.8971    4.1578    2.8524 H   0  0  0  0  0  0  0  0  0  0  0  0
   -1.3461    6.3749    4.3271 H   0  0  0  0  0  0  0  0  0  0  0  0
   -1.6535    6.2861    2.5841 H   0  0  0  0  0  0  0  0  0  0  0  0
    0.4832    7.0211    1.9844 H   0  0  0  0  0  0  0  0  0  0  0  0
    1.9055    7.0429   -0.0165 H   0  0  0  0  0  0  0  0  0  0  0  0
    2.7992    4.9399   -0.9512 H   0  0  0  0  0  0  0  0  0  0  0  0
    3.5664    0.1304    0.0314 H   0  0  0  0  0  0  0  0  0  0  0  0
    2.0635   -3.3242   -0.4154 H   0  0  0  0  0  0  0  0  0  0  0  0
    2.7187   -2.8014    1.1310 H   0  0  0  0  0  0  0  0  0  0  0  0
    3.2413   -2.2750   -2.3462 H   0  0  0  0  0  0  0  0  0  0  0  0
    4.6523   -1.0453   -3.7971 H   0  0  0  0  0  0  0  0  0  0  0  0
    8.3495   -2.5145   -4.7697 H   0  0  0  0  0  0  0  0  0  0  0  0
    8.4909   -5.0763   -4.7802 H   0  0  0  0  0  0  0  0  0  0  0  0
    8.1537   -7.1264   -3.4455 H   0  0  0  0  0  0  0  0  0  0  0  0
    6.8345   -7.0051   -1.3429 H   0  0  0  0  0  0  0  0  0  0  0  0
    5.4926   -4.9938   -0.8446 H   0  0  0  0  0  0  0  0  0  0  0  0
   -0.0265   -2.2606   -0.0270 H   0  0  0  0  0  0  0  0  0  0  0  0
  1  2  1  0  0  0  0
  2  3  2  0  0  0  0
  2 34  1  0  0  0  0
  3  4  1  0  0  0  0
  3 35  1  0  0  0  0
  4  5  1  0  0  0  0
  4 18  2  0  0  0  0
  5  6  1  0  0  0  0
  5 36  1  0  0  0  0
  6  7  2  0  0  0  0
  6 17  1  0  0  0  0
  7  8  1  0  0  0  0
  7 37  1  0  0  0  0
  8  9  1  0  0  0  0
  8 15  2  0  0  0  0
  9 10  1  0  0  0  0
  9 14  1  0  0  0  0
 10 11  1  0  0  0  0
 10 38  1  0  0  0  0
 10 39  1  0  0  0  0
 11 12  1  0  0  0  0
 11 40  1  0  0  0  0
 11 41  1  0  0  0  0
 12 13  1  0  0  0  0
 13 14  1  0  0  0  0
 13 42  1  0  0  0  0
 13 43  1  0  0  0  0
 14 44  1  0  0  0  0
 14 45  1  0  0  0  0
 15 16  1  0  0  0  0
 15 46  1  0  0  0  0
 16 17  2  0  0  0  0
 16 47  1  0  0  0  0
 17 48  1  0  0  0  0
 18 19  1  0  0  0  0
 18 49  1  0  0  0  0
 19 20  1  0  0  0  0
 19 34  2  0  0  0  0
 20 21  1  0  0  0  0
 20 50  1  0  0  0  0
 20 51  1  0  0  0  0
 21 22  2  0  0  0  0
 21 23  1  0  0  0  0
 23 24  1  0  0  0  0
 23 52  1  0  0  0  0
 24 25  2  0  0  0  0
 24 33  1  0  0  0  0
 25 26  1  0  0  0  0
 25 53  1  0  0  0  0
 26 27  2  0  0  0  0
 27 28  1  0  0  0  0
 27 54  1  0  0  0  0
 28 29  2  0  0  0  0
 28 33  1  0  0  0  0
 29 30  1  0  0  0  0
 29 55  1  0  0  0  0
 30 31  2  0  0  0  0
 30 56  1  0  0  0  0
 31 32  1  0  0  0  0
 31 57  1  0  0  0  0
 32 33  2  0  0  0  0
 32 58  1  0  0  0  0
 34 59  1  0  0  0  0
M  END
$$$$
