stable:False satoms:10 tatoms:24 sratio:0.4166666666666667
  -OEChem-07092417493D

 24 24  0     1  0  0  0  0  0999 V2000
    6.5710   -4.9055   26.4712 C   0  0  0  0  0  0  0  0  0  0  0  0
    8.2237   -4.3038   26.1264 S   0  0  0  0  0  0  0  0  0  0  0  0
    9.0840   -5.4552   26.0671 O   0  0  0  0  0  0  0  0  0  0  0  0
    8.5900   -3.4250   27.1874 O   0  0  0  0  0  0  0  0  0  0  0  0
    8.1117   -3.5461   24.7066 N   0  0  0  0  0  0  0  0  0  0  0  0
    8.9643   -2.9303   24.1243 C   0  0  0  0  0  0  0  0  0  0  0  0
    9.4111   -1.9914   23.4654 C   0  0  0  0  0  0  0  0  0  0  0  0
   10.2841   -1.1386   23.2309 C   0  0  2  0  0  0  0  0  0  0  0  0
   11.0598    0.0182   24.2952 C   0  0  0  0  0  0  0  0  0  0  0  0
   12.0352    0.3137   24.2709 C   0  0  0  0  0  0  0  0  0  0  0  0
   13.2016   -0.1902   23.4351 C   0  0  0  0  0  0  0  0  0  0  0  0
   12.7045   -1.2581   22.6292 C   0  0  0  0  0  0  0  0  0  0  0  0
   11.8360   -1.7438   22.4403 C   0  0  0  0  0  0  0  0  0  0  0  0
    9.7536   -0.5014   22.3268 C   0  0  0  0  0  0  0  0  0  0  0  0
    9.0590    0.0766   21.3904 C   0  0  0  0  0  0  0  0  0  0  0  0
    9.5158    1.0285   20.9678 O   0  0  0  0  0  0  0  0  0  0  0  0
    7.9472   -0.5463   21.0915 N   0  0  0  0  0  0  0  0  0  0  0  0
    7.1730   -0.0965   20.2025 C   0  0  0  0  0  0  0  0  0  0  0  0
    7.2392   -0.0441   18.8751 C   0  0  0  0  0  0  0  0  0  0  0  0
    6.7900    0.3077   17.8113 N   0  0  0  0  0  0  0  0  0  0  0  0
    5.6458    0.8670   18.1993 C   0  0  0  0  0  0  0  0  0  0  0  0
    5.2463    0.9800   19.4421 C   0  0  0  0  0  0  0  0  0  0  0  0
    5.7975    0.5666   20.5532 C   0  0  0  0  0  0  0  0  0  0  0  0
    5.3399    0.6277   21.9868 C   0  0  0  0  0  0  0  0  0  0  0  0
 20 21  2  0  0  0  0
 19 20  1  0  0  0  0
 21 22  1  0  0  0  0
 18 19  2  0  0  0  0
 22 23  2  0  0  0  0
 18 23  1  0  0  0  0
 17 18  1  0  0  0  0
 23 24  1  0  0  0  0
 15 16  2  0  0  0  0
 15 17  1  0  0  0  0
 14 15  1  0  0  0  0
  8 14  1  0  0  0  0
 12 13  2  0  0  0  0
 11 12  1  0  0  0  0
  7  8  1  0  0  0  0
  8  9  1  0  0  0  0
 10 11  1  0  0  0  0
  6  7  2  3  0  0  0
  5  6  1  0  0  0  0
  9 10  2  0  0  0  0
  2  5  1  0  0  0  0
  2  3  2  0  0  0  0
  1  2  1  0  0  0  0
  2  4  2  0  0  0  0
M  END
> <Shapegauss>
-284.912384

$$$$
