MODEL 1
REMARK VINA RESULT:    -6.899      0.000      0.000
REMARK INTER + INTRA:         -11.153
REMARK INTER:                 -10.328
REMARK INTRA:                  -0.825
REMARK UNBOUND:                -0.825
REMARK  10 active torsions:
REMARK  status: ('A' for Active; 'I' for Inactive)
REMARK    1  A    between atoms: S_2  and  N_5 
REMARK    2  A    between atoms: C_7  and  C_8 
REMARK    3  A    between atoms: C_8  and  C_9 
REMARK    4  A    between atoms: C_9  and  C_15 
REMARK    5  A    between atoms: C_9  and  C_10 
REMARK    6  A    between atoms: C_10  and  C_11 
REMARK    7  A    between atoms: C_11  and  C_12 
REMARK    8  A    between atoms: C_12  and  C_13 
REMARK    9  A    between atoms: C_15  and  C_16 
REMARK       I    between atoms: C_16  and  N_18 
REMARK   10  A    between atoms: N_18  and  C_20 
ROOT
HETATM    1  C   UNL     1       9.321  -1.829  23.416  1.00  0.00     0.108 C 
ENDROOT
BRANCH   1   2
HETATM    2  C   UNL     1       8.508  -2.752  23.590  1.00  0.00     0.011 C 
BRANCH   2   3
HETATM    3  C   UNL     1       7.903  -3.750  23.198  1.00  0.00     0.097 C 
HETATM    4  N   UNL     1       7.580  -4.584  22.395  1.00  0.00    -0.296 N 
ATOM      5  HN  UNL     1       8.331  -4.961  21.818  1.00  0.00     0.177 HD
BRANCH   4   6
HETATM    6  S   UNL     1       6.108  -5.182  22.116  1.00  0.00     0.226 S 
HETATM    7  C   UNL     1       4.971  -3.903  22.650  1.00  0.00     0.186 C 
HETATM    8  O   UNL     1       5.862  -5.403  20.716  1.00  0.00    -0.206 OA
HETATM    9  O   UNL     1       5.836  -6.347  22.890  1.00  0.00    -0.206 OA
ENDBRANCH   4   6
ENDBRANCH   2   3
ENDBRANCH   1   2
BRANCH   1  10
HETATM   10  C   UNL     1       8.905  -1.343  22.369  1.00  0.00    -0.071 C 
BRANCH  10  11
HETATM   11  C   UNL     1       8.415  -0.697  21.350  1.00  0.00     0.289 C 
HETATM   12  O   UNL     1       9.167  -0.073  20.770  1.00  0.00    -0.259 OA
HETATM   13  N   UNL     1       7.133  -0.885  21.167  1.00  0.00    -0.315 N 
ATOM     14  HN  UNL     1       6.618  -1.497  21.800  1.00  0.00     0.170 HD
BRANCH  13  15
HETATM   15  C   UNL     1       6.525  -0.318  20.219  1.00  0.00     0.057 A 
HETATM   16  C   UNL     1       6.192  -0.701  18.989  1.00  0.00     0.117 A 
HETATM   17  N   UNL     1       5.721  -0.463  17.903  1.00  0.00    -0.373 N 
HETATM   18  C   UNL     1       5.293   0.784  18.087  1.00  0.00     0.088 A 
ATOM     19  HN  UNL     1       5.667  -1.055  17.074  1.00  0.00     0.164 HD
HETATM   20  C   UNL     1       5.441   1.476  19.191  1.00  0.00     0.026 A 
HETATM   21  C   UNL     1       5.970   1.142  20.339  1.00  0.00    -0.033 A 
HETATM   22  C   UNL     1       6.103   1.889  21.640  1.00  0.00     0.050 C 
ENDBRANCH  13  15
ENDBRANCH  10  11
ENDBRANCH   1  10
BRANCH   1  23
HETATM   23  C   UNL     1       9.771  -0.496  24.462  1.00  0.00    -0.010 C 
BRANCH  23  24
HETATM   24  C   UNL     1      10.705  -0.275  24.805  1.00  0.00    -0.025 C 
BRANCH  24  25
HETATM   25  C   UNL     1      11.772   0.652  24.242  1.00  0.00     0.053 C 
BRANCH  25  26
HETATM   26  C   UNL     1      13.009  -0.059  24.294  1.00  0.00    -0.033 C 
HETATM   27  C   UNL     1      13.430  -0.905  23.929  1.00  0.00     0.007 C 
ENDBRANCH  25  26
ENDBRANCH  24  25
ENDBRANCH  23  24
ENDBRANCH   1  23
TORSDOF 10
ENDMDL
MODEL 2
REMARK VINA RESULT:    -6.695      3.741      6.358
REMARK INTER + INTRA:         -10.847
REMARK INTER:                  -9.914
REMARK INTRA:                  -0.933
REMARK UNBOUND:                -0.825
REMARK  10 active torsions:
REMARK  status: ('A' for Active; 'I' for Inactive)
REMARK    1  A    between atoms: S_2  and  N_5 
REMARK    2  A    between atoms: C_7  and  C_8 
REMARK    3  A    between atoms: C_8  and  C_9 
REMARK    4  A    between atoms: C_9  and  C_15 
REMARK    5  A    between atoms: C_9  and  C_10 
REMARK    6  A    between atoms: C_10  and  C_11 
REMARK    7  A    between atoms: C_11  and  C_12 
REMARK    8  A    between atoms: C_12  and  C_13 
REMARK    9  A    between atoms: C_15  and  C_16 
REMARK       I    between atoms: C_16  and  N_18 
REMARK   10  A    between atoms: N_18  and  C_20 
ROOT
HETATM    1  C   UNL     1       7.493  -4.469  24.548  1.00  0.00     0.108 C 
ENDROOT
BRANCH   1   2
HETATM    2  C   UNL     1       7.757  -4.620  25.752  1.00  0.00     0.011 C 
BRANCH   2   3
HETATM    3  C   UNL     1       7.534  -5.122  26.854  1.00  0.00     0.097 C 
HETATM    4  N   UNL     1       7.442  -6.024  27.644  1.00  0.00    -0.296 N 
ATOM      5  HN  UNL     1       8.182  -6.724  27.608  1.00  0.00     0.177 HD
BRANCH   4   6
HETATM    6  S   UNL     1       6.295  -6.266  28.751  1.00  0.00     0.226 S 
HETATM    7  C   UNL     1       4.894  -5.296  28.198  1.00  0.00     0.186 C 
HETATM    8  O   UNL     1       5.862  -7.636  28.802  1.00  0.00    -0.206 OA
HETATM    9  O   UNL     1       6.669  -5.782  30.039  1.00  0.00    -0.206 OA
ENDBRANCH   4   6
ENDBRANCH   2   3
ENDBRANCH   1   2
BRANCH   1  10
HETATM   10  C   UNL     1       8.284  -3.583  24.243  1.00  0.00    -0.071 C 
BRANCH  10  11
HETATM   11  C   UNL     1       8.996  -2.570  23.840  1.00  0.00     0.289 C 
HETATM   12  O   UNL     1       9.057  -2.441  22.713  1.00  0.00    -0.259 OA
HETATM   13  N   UNL     1       9.519  -1.867  24.813  1.00  0.00    -0.315 N 
ATOM     14  HN  UNL     1       9.344  -2.138  25.781  1.00  0.00     0.170 HD
BRANCH  13  15
HETATM   15  C   UNL     1      10.235  -0.858  24.570  1.00  0.00     0.057 A 
HETATM   16  C   UNL     1      11.521  -0.702  24.268  1.00  0.00     0.117 A 
HETATM   17  N   UNL     1      12.473   0.007  24.047  1.00  0.00    -0.373 N 
HETATM   18  C   UNL     1      11.900   1.208  24.083  1.00  0.00     0.088 A 
ATOM     19  HN  UNL     1      13.447  -0.245  23.880  1.00  0.00     0.164 HD
HETATM   20  C   UNL     1      10.635   1.431  24.342  1.00  0.00     0.026 A 
HETATM   21  C   UNL     1       9.655   0.597  24.574  1.00  0.00    -0.033 A 
HETATM   22  C   UNL     1       8.184   0.816  24.816  1.00  0.00     0.050 C 
ENDBRANCH  13  15
ENDBRANCH  10  11
ENDBRANCH   1  10
BRANCH   1  23
HETATM   23  C   UNL     1       7.480  -5.627  23.231  1.00  0.00    -0.010 C 
BRANCH  23  24
HETATM   24  C   UNL     1       6.700  -5.839  22.610  1.00  0.00    -0.025 C 
BRANCH  24  25
HETATM   25  C   UNL     1       6.271  -5.189  21.303  1.00  0.00     0.053 C 
BRANCH  25  26
HETATM   26  C   UNL     1       5.646  -3.950  21.642  1.00  0.00    -0.033 C 
HETATM   27  C   UNL     1       5.795  -2.955  21.534  1.00  0.00     0.007 C 
ENDBRANCH  25  26
ENDBRANCH  24  25
ENDBRANCH  23  24
ENDBRANCH   1  23
TORSDOF 10
ENDMDL
MODEL 3
REMARK VINA RESULT:    -6.486      2.653      5.233
REMARK INTER + INTRA:         -10.534
REMARK INTER:                  -9.839
REMARK INTRA:                  -0.695
REMARK UNBOUND:                -0.825
REMARK  10 active torsions:
REMARK  status: ('A' for Active; 'I' for Inactive)
REMARK    1  A    between atoms: S_2  and  N_5 
REMARK    2  A    between atoms: C_7  and  C_8 
REMARK    3  A    between atoms: C_8  and  C_9 
REMARK    4  A    between atoms: C_9  and  C_15 
REMARK    5  A    between atoms: C_9  and  C_10 
REMARK    6  A    between atoms: C_10  and  C_11 
REMARK    7  A    between atoms: C_11  and  C_12 
REMARK    8  A    between atoms: C_12  and  C_13 
REMARK    9  A    between atoms: C_15  and  C_16 
REMARK       I    between atoms: C_16  and  N_18 
REMARK   10  A    between atoms: N_18  and  C_20 
ROOT
HETATM    1  C   UNL     1       7.587  -2.459  24.361  1.00  0.00     0.108 C 
ENDROOT
BRANCH   1   2
HETATM    2  C   UNL     1       8.598  -1.977  24.897  1.00  0.00     0.011 C 
BRANCH   2   3
HETATM    3  C   UNL     1       9.612  -1.279  24.865  1.00  0.00     0.097 C 
HETATM    4  N   UNL     1      10.223  -0.245  24.810  1.00  0.00    -0.296 N 
ATOM      5  HN  UNL     1       9.862   0.517  25.382  1.00  0.00     0.177 HD
BRANCH   4   6
HETATM    6  S   UNL     1      11.543   0.087  23.945  1.00  0.00     0.226 S 
HETATM    7  C   UNL     1      11.820  -1.365  22.931  1.00  0.00     0.186 C 
HETATM    8  O   UNL     1      11.346   1.193  23.047  1.00  0.00    -0.206 OA
HETATM    9  O   UNL     1      12.699   0.268  24.760  1.00  0.00    -0.206 OA
ENDBRANCH   4   6
ENDBRANCH   2   3
ENDBRANCH   1   2
BRANCH   1  10
HETATM   10  C   UNL     1       7.667  -1.979  23.234  1.00  0.00    -0.071 C 
BRANCH  10  11
HETATM   11  C   UNL     1       7.585  -1.471  22.038  1.00  0.00     0.289 C 
HETATM   12  O   UNL     1       8.575  -1.366  21.490  1.00  0.00    -0.259 OA
HETATM   13  N   UNL     1       6.365  -1.171  21.670  1.00  0.00    -0.315 N 
ATOM     14  HN  UNL     1       5.589  -1.347  22.308  1.00  0.00     0.170 HD
BRANCH  13  15
HETATM   15  C   UNL     1       6.137  -0.667  20.537  1.00  0.00     0.057 A 
HETATM   16  C   UNL     1       5.797  -1.185  19.359  1.00  0.00     0.117 A 
HETATM   17  N   UNL     1       5.572  -1.061  18.179  1.00  0.00    -0.373 N 
HETATM   18  C   UNL     1       5.675   0.260  18.046  1.00  0.00     0.088 A 
ATOM     19  HN  UNL     1       5.360  -1.772  17.479  1.00  0.00     0.164 HD
HETATM   20  C   UNL     1       5.987   1.092  19.009  1.00  0.00     0.026 A 
HETATM   21  C   UNL     1       6.219   0.875  20.278  1.00  0.00    -0.033 A 
HETATM   22  C   UNL     1       6.521   1.811  21.419  1.00  0.00     0.050 C 
ENDBRANCH  13  15
ENDBRANCH  10  11
ENDBRANCH   1  10
BRANCH   1  23
HETATM   23  C   UNL     1       7.079  -4.127  24.179  1.00  0.00    -0.010 C 
BRANCH  23  24
HETATM   24  C   UNL     1       6.202  -4.460  23.780  1.00  0.00    -0.025 C 
BRANCH  24  25
HETATM   25  C   UNL     1       5.789  -5.850  23.321  1.00  0.00     0.053 C 
BRANCH  25  26
HETATM   26  C   UNL     1       6.316  -6.027  22.006  1.00  0.00    -0.033 C 
HETATM   27  C   UNL     1       6.122  -5.750  21.052  1.00  0.00     0.007 C 
ENDBRANCH  25  26
ENDBRANCH  24  25
ENDBRANCH  23  24
ENDBRANCH   1  23
TORSDOF 10
ENDMDL
MODEL 4
REMARK VINA RESULT:    -6.437      2.764      5.938
REMARK INTER + INTRA:         -10.461
REMARK INTER:                  -9.630
REMARK INTRA:                  -0.831
REMARK UNBOUND:                -0.825
REMARK  10 active torsions:
REMARK  status: ('A' for Active; 'I' for Inactive)
REMARK    1  A    between atoms: S_2  and  N_5 
REMARK    2  A    between atoms: C_7  and  C_8 
REMARK    3  A    between atoms: C_8  and  C_9 
REMARK    4  A    between atoms: C_9  and  C_15 
REMARK    5  A    between atoms: C_9  and  C_10 
REMARK    6  A    between atoms: C_10  and  C_11 
REMARK    7  A    between atoms: C_11  and  C_12 
REMARK    8  A    between atoms: C_12  and  C_13 
REMARK    9  A    between atoms: C_15  and  C_16 
REMARK       I    between atoms: C_16  and  N_18 
REMARK   10  A    between atoms: N_18  and  C_20 
ROOT
HETATM    1  C   UNL     1       8.417  -1.710  23.243  1.00  0.00     0.108 C 
ENDROOT
BRANCH   1   2
HETATM    2  C   UNL     1       7.885  -1.575  22.128  1.00  0.00     0.011 C 
BRANCH   2   3
HETATM    3  C   UNL     1       7.154  -0.970  21.344  1.00  0.00     0.097 C 
HETATM    4  N   UNL     1       6.236  -0.854  20.577  1.00  0.00    -0.296 N 
ATOM      5  HN  UNL     1       5.363  -1.300  20.856  1.00  0.00     0.177 HD
BRANCH   4   6
HETATM    6  S   UNL     1       6.210  -0.081  19.162  1.00  0.00     0.226 S 
HETATM    7  C   UNL     1       4.919   1.152  19.321  1.00  0.00     0.186 C 
HETATM    8  O   UNL     1       7.435   0.627  18.901  1.00  0.00    -0.206 OA
HETATM    9  O   UNL     1       5.854  -0.936  18.078  1.00  0.00    -0.206 OA
ENDBRANCH   4   6
ENDBRANCH   2   3
ENDBRANCH   1   2
BRANCH   1  10
HETATM   10  C   UNL     1       8.078  -2.854  23.529  1.00  0.00    -0.071 C 
BRANCH  10  11
HETATM   11  C   UNL     1       7.562  -4.013  23.820  1.00  0.00     0.289 C 
HETATM   12  O   UNL     1       8.258  -4.899  23.680  1.00  0.00    -0.259 OA
HETATM   13  N   UNL     1       6.321  -3.954  24.232  1.00  0.00    -0.315 N 
ATOM     14  HN  UNL     1       5.855  -3.048  24.300  1.00  0.00     0.170 HD
BRANCH  13  15
HETATM   15  C   UNL     1       5.693  -5.001  24.546  1.00  0.00     0.057 A 
HETATM   16  C   UNL     1       4.939  -5.855  23.859  1.00  0.00     0.117 A 
HETATM   17  N   UNL     1       4.214  -6.820  23.813  1.00  0.00    -0.373 N 
HETATM   18  C   UNL     1       4.260  -7.223  25.081  1.00  0.00     0.088 A 
ATOM     19  HN  UNL     1       3.707  -7.215  23.022  1.00  0.00     0.164 HD
HETATM   20  C   UNL     1       4.922  -6.622  26.039  1.00  0.00     0.026 A 
HETATM   21  C   UNL     1       5.694  -5.568  26.007  1.00  0.00    -0.033 A 
HETATM   22  C   UNL     1       6.513  -4.887  27.073  1.00  0.00     0.050 C 
ENDBRANCH  13  15
ENDBRANCH  10  11
ENDBRANCH   1  10
BRANCH   1  23
HETATM   23  C   UNL     1      10.089  -1.526  23.735  1.00  0.00    -0.010 C 
BRANCH  23  24
HETATM   24  C   UNL     1      10.471  -0.808  24.349  1.00  0.00    -0.025 C 
BRANCH  24  25
HETATM   25  C   UNL     1      11.858  -0.183  24.398  1.00  0.00     0.053 C 
BRANCH  25  26
HETATM   26  C   UNL     1      11.709   1.187  24.023  1.00  0.00    -0.033 C 
HETATM   27  C   UNL     1      11.010   1.919  24.034  1.00  0.00     0.007 C 
ENDBRANCH  25  26
ENDBRANCH  24  25
ENDBRANCH  23  24
ENDBRANCH   1  23
TORSDOF 10
ENDMDL
MODEL 5
REMARK VINA RESULT:    -6.308     14.207     16.254
REMARK INTER + INTRA:         -10.268
REMARK INTER:                  -9.330
REMARK INTRA:                  -0.938
REMARK UNBOUND:                -0.825
REMARK  10 active torsions:
REMARK  status: ('A' for Active; 'I' for Inactive)
REMARK    1  A    between atoms: S_2  and  N_5 
REMARK    2  A    between atoms: C_7  and  C_8 
REMARK    3  A    between atoms: C_8  and  C_9 
REMARK    4  A    between atoms: C_9  and  C_15 
REMARK    5  A    between atoms: C_9  and  C_10 
REMARK    6  A    between atoms: C_10  and  C_11 
REMARK    7  A    between atoms: C_11  and  C_12 
REMARK    8  A    between atoms: C_12  and  C_13 
REMARK    9  A    between atoms: C_15  and  C_16 
REMARK       I    between atoms: C_16  and  N_18 
REMARK   10  A    between atoms: N_18  and  C_20 
ROOT
HETATM    1  C   UNL     1      24.021  -1.637  23.252  1.00  0.00     0.108 C 
ENDROOT
BRANCH   1   2
HETATM    2  C   UNL     1      23.753  -2.776  23.669  1.00  0.00     0.011 C 
BRANCH   2   3
HETATM    3  C   UNL     1      24.092  -3.890  24.070  1.00  0.00     0.097 C 
HETATM    4  N   UNL     1      24.001  -5.083  24.182  1.00  0.00    -0.296 N 
ATOM      5  HN  UNL     1      23.764  -5.594  23.332  1.00  0.00     0.177 HD
BRANCH   4   6
HETATM    6  S   UNL     1      24.205  -5.978  25.508  1.00  0.00     0.226 S 
HETATM    7  C   UNL     1      25.977  -6.028  25.774  1.00  0.00     0.186 C 
HETATM    8  O   UNL     1      23.624  -5.372  26.675  1.00  0.00    -0.206 OA
HETATM    9  O   UNL     1      23.761  -7.322  25.334  1.00  0.00    -0.206 OA
ENDBRANCH   4   6
ENDBRANCH   2   3
ENDBRANCH   1   2
BRANCH   1  10
HETATM   10  C   UNL     1      23.588  -1.698  22.106  1.00  0.00    -0.071 C 
BRANCH  10  11
HETATM   11  C   UNL     1      23.226  -1.897  20.871  1.00  0.00     0.289 C 
HETATM   12  O   UNL     1      22.106  -1.867  20.687  1.00  0.00    -0.259 OA
HETATM   13  N   UNL     1      24.226  -2.094  20.049  1.00  0.00    -0.315 N 
ATOM     14  HN  UNL     1      25.182  -2.078  20.406  1.00  0.00     0.170 HD
BRANCH  13  15
HETATM   15  C   UNL     1      24.023  -2.303  18.823  1.00  0.00     0.057 A 
HETATM   16  C   UNL     1      23.600  -1.534  17.822  1.00  0.00     0.117 A 
HETATM   17  N   UNL     1      23.264  -1.393  16.671  1.00  0.00    -0.373 N 
HETATM   18  C   UNL     1      23.492  -2.615  16.196  1.00  0.00     0.088 A 
ATOM     19  HN  UNL     1      22.905  -0.565  16.195  1.00  0.00     0.164 HD
HETATM   20  C   UNL     1      23.928  -3.629  16.903  1.00  0.00     0.026 A 
HETATM   21  C   UNL     1      24.273  -3.701  18.162  1.00  0.00    -0.033 A 
HETATM   22  C   UNL     1      24.831  -4.831  18.989  1.00  0.00     0.050 C 
ENDBRANCH  13  15
ENDBRANCH  10  11
ENDBRANCH   1  10
BRANCH   1  23
HETATM   23  C   UNL     1      23.587  -0.061  23.886  1.00  0.00    -0.010 C 
BRANCH  23  24
HETATM   24  C   UNL     1      23.161   0.139  24.790  1.00  0.00    -0.025 C 
BRANCH  24  25
HETATM   25  C   UNL     1      21.711   0.406  25.163  1.00  0.00     0.053 C 
BRANCH  25  26
HETATM   26  C   UNL     1      21.138  -0.850  25.528  1.00  0.00    -0.033 C 
HETATM   27  C   UNL     1      20.502  -1.546  25.159  1.00  0.00     0.007 C 
ENDBRANCH  25  26
ENDBRANCH  24  25
ENDBRANCH  23  24
ENDBRANCH   1  23
TORSDOF 10
ENDMDL
MODEL 6
REMARK VINA RESULT:    -6.099     24.140     27.568
REMARK INTER + INTRA:          -9.955
REMARK INTER:                  -8.797
REMARK INTRA:                  -1.157
REMARK UNBOUND:                -0.825
REMARK  10 active torsions:
REMARK  status: ('A' for Active; 'I' for Inactive)
REMARK    1  A    between atoms: S_2  and  N_5 
REMARK    2  A    between atoms: C_7  and  C_8 
REMARK    3  A    between atoms: C_8  and  C_9 
REMARK    4  A    between atoms: C_9  and  C_15 
REMARK    5  A    between atoms: C_9  and  C_10 
REMARK    6  A    between atoms: C_10  and  C_11 
REMARK    7  A    between atoms: C_11  and  C_12 
REMARK    8  A    between atoms: C_12  and  C_13 
REMARK    9  A    between atoms: C_15  and  C_16 
REMARK       I    between atoms: C_16  and  N_18 
REMARK   10  A    between atoms: N_18  and  C_20 
ROOT
HETATM    1  C   UNL     1       8.630  17.205   1.232  1.00  0.00     0.108 C 
ENDROOT
BRANCH   1   2
HETATM    2  C   UNL     1       9.014  16.029   1.345  1.00  0.00     0.011 C 
BRANCH   2   3
HETATM    3  C   UNL     1       8.917  14.901   1.828  1.00  0.00     0.097 C 
HETATM    4  N   UNL     1       8.343  13.889   2.132  1.00  0.00    -0.296 N 
ATOM      5  HN  UNL     1       7.703  13.514   1.433  1.00  0.00     0.177 HD
BRANCH   4   6
HETATM    6  S   UNL     1       8.456  13.052   3.506  1.00  0.00     0.226 S 
HETATM    7  C   UNL     1       7.066  13.591   4.501  1.00  0.00     0.186 C 
HETATM    8  O   UNL     1       8.301  11.637   3.301  1.00  0.00    -0.206 OA
HETATM    9  O   UNL     1       9.645  13.354   4.232  1.00  0.00    -0.206 OA
ENDBRANCH   4   6
ENDBRANCH   2   3
ENDBRANCH   1   2
BRANCH   1  10
HETATM   10  C   UNL     1       9.212  17.734   2.174  1.00  0.00    -0.071 C 
BRANCH  10  11
HETATM   11  C   UNL     1       9.681  18.297   3.251  1.00  0.00     0.289 C 
HETATM   12  O   UNL     1       8.949  18.363   4.118  1.00  0.00    -0.259 OA
HETATM   13  N   UNL     1      10.926  18.687   3.148  1.00  0.00    -0.315 N 
ATOM     14  HN  UNL     1      11.431  18.533   2.275  1.00  0.00     0.170 HD
BRANCH  13  15
HETATM   15  C   UNL     1      11.509  19.251   4.113  1.00  0.00     0.057 A 
HETATM   16  C   UNL     1      12.119  18.796   5.204  1.00  0.00     0.117 A 
HETATM   17  N   UNL     1      12.679  18.988   6.257  1.00  0.00    -0.373 N 
HETATM   18  C   UNL     1      12.736  20.318   6.266  1.00  0.00     0.088 A 
ATOM     19  HN  UNL     1      13.015  18.317   6.947  1.00  0.00     0.164 HD
HETATM   20  C   UNL     1      12.241  21.100   5.337  1.00  0.00     0.026 A 
HETATM   21  C   UNL     1      11.642  20.809   4.212  1.00  0.00    -0.033 A 
HETATM   22  C   UNL     1      11.115  21.677   3.099  1.00  0.00     0.050 C 
ENDBRANCH  13  15
ENDBRANCH  10  11
ENDBRANCH   1  10
BRANCH   1  23
HETATM   23  C   UNL     1       8.731  18.310  -0.124  1.00  0.00    -0.010 C 
BRANCH  23  24
HETATM   24  C   UNL     1       8.199  19.169  -0.256  1.00  0.00    -0.025 C 
BRANCH  24  25
HETATM   25  C   UNL     1       8.654  20.620  -0.297  1.00  0.00     0.053 C 
BRANCH  25  26
HETATM   26  C   UNL     1       8.119  21.256   0.864  1.00  0.00    -0.033 C 
HETATM   27  C   UNL     1       7.412  21.103   1.573  1.00  0.00     0.007 C 
ENDBRANCH  25  26
ENDBRANCH  24  25
ENDBRANCH  23  24
ENDBRANCH   1  23
TORSDOF 10
ENDMDL
MODEL 7
REMARK VINA RESULT:    -6.074      2.987      6.556
REMARK INTER + INTRA:          -9.917
REMARK INTER:                  -9.142
REMARK INTRA:                  -0.775
REMARK UNBOUND:                -0.825
REMARK  10 active torsions:
REMARK  status: ('A' for Active; 'I' for Inactive)
REMARK    1  A    between atoms: S_2  and  N_5 
REMARK    2  A    between atoms: C_7  and  C_8 
REMARK    3  A    between atoms: C_8  and  C_9 
REMARK    4  A    between atoms: C_9  and  C_15 
REMARK    5  A    between atoms: C_9  and  C_10 
REMARK    6  A    between atoms: C_10  and  C_11 
REMARK    7  A    between atoms: C_11  and  C_12 
REMARK    8  A    between atoms: C_12  and  C_13 
REMARK    9  A    between atoms: C_15  and  C_16 
REMARK       I    between atoms: C_16  and  N_18 
REMARK   10  A    between atoms: N_18  and  C_20 
ROOT
HETATM    1  C   UNL     1       8.026   0.201  20.974  1.00  0.00     0.108 C 
ENDROOT
BRANCH   1   2
HETATM    2  C   UNL     1       9.234   0.263  21.255  1.00  0.00     0.011 C 
BRANCH   2   3
HETATM    3  C   UNL     1      10.161   0.216  22.065  1.00  0.00     0.097 C 
HETATM    4  N   UNL     1      10.776  -0.233  22.995  1.00  0.00    -0.296 N 
ATOM      5  HN  UNL     1      10.859  -1.249  23.025  1.00  0.00     0.177 HD
BRANCH   4   6
HETATM    6  S   UNL     1      11.485   0.568  24.202  1.00  0.00     0.226 S 
HETATM    7  C   UNL     1      11.241   2.303  23.823  1.00  0.00     0.186 C 
HETATM    8  O   UNL     1      10.853   0.323  25.470  1.00  0.00    -0.206 OA
HETATM    9  O   UNL     1      12.891   0.336  24.259  1.00  0.00    -0.206 OA
ENDBRANCH   4   6
ENDBRANCH   2   3
ENDBRANCH   1   2
BRANCH   1  10
HETATM   10  C   UNL     1       7.738  -0.907  21.415  1.00  0.00    -0.071 C 
BRANCH  10  11
HETATM   11  C   UNL     1       7.524  -2.042  22.016  1.00  0.00     0.289 C 
HETATM   12  O   UNL     1       8.430  -2.491  22.535  1.00  0.00    -0.259 OA
HETATM   13  N   UNL     1       6.291  -2.470  21.922  1.00  0.00    -0.315 N 
ATOM     14  HN  UNL     1       5.603  -1.916  21.411  1.00  0.00     0.170 HD
BRANCH  13  15
HETATM   15  C   UNL     1       5.941  -3.558  22.454  1.00  0.00     0.057 A 
HETATM   16  C   UNL     1       5.943  -4.821  22.037  1.00  0.00     0.117 A 
HETATM   17  N   UNL     1       5.673  -5.986  22.204  1.00  0.00    -0.373 N 
HETATM   18  C   UNL     1       5.185  -5.951  23.442  1.00  0.00     0.088 A 
ATOM     19  HN  UNL     1       5.789  -6.778  21.571  1.00  0.00     0.164 HD
HETATM   20  C   UNL     1       5.047  -4.869  24.167  1.00  0.00     0.026 A 
HETATM   21  C   UNL     1       5.367  -3.627  23.910  1.00  0.00    -0.033 A 
HETATM   22  C   UNL     1       5.276  -2.373  24.740  1.00  0.00     0.050 C 
ENDBRANCH  13  15
ENDBRANCH  10  11
ENDBRANCH   1  10
BRANCH   1  23
HETATM   23  C   UNL     1       6.706   1.279  21.381  1.00  0.00    -0.010 C 
BRANCH  23  24
HETATM   24  C   UNL     1       6.188   1.881  20.743  1.00  0.00    -0.025 C 
BRANCH  24  25
HETATM   25  C   UNL     1       4.908   1.626  19.960  1.00  0.00     0.053 C 
BRANCH  25  26
HETATM   26  C   UNL     1       5.277   0.901  18.787  1.00  0.00    -0.033 C 
HETATM   27  C   UNL     1       5.863   1.004  17.967  1.00  0.00     0.007 C 
ENDBRANCH  25  26
ENDBRANCH  24  25
ENDBRANCH  23  24
ENDBRANCH   1  23
TORSDOF 10
ENDMDL
MODEL 8
REMARK VINA RESULT:    -6.014      3.497      5.701
REMARK INTER + INTRA:          -9.828
REMARK INTER:                  -9.231
REMARK INTRA:                  -0.596
REMARK UNBOUND:                -0.825
REMARK  10 active torsions:
REMARK  status: ('A' for Active; 'I' for Inactive)
REMARK    1  A    between atoms: S_2  and  N_5 
REMARK    2  A    between atoms: C_7  and  C_8 
REMARK    3  A    between atoms: C_8  and  C_9 
REMARK    4  A    between atoms: C_9  and  C_15 
REMARK    5  A    between atoms: C_9  and  C_10 
REMARK    6  A    between atoms: C_10  and  C_11 
REMARK    7  A    between atoms: C_11  and  C_12 
REMARK    8  A    between atoms: C_12  and  C_13 
REMARK    9  A    between atoms: C_15  and  C_16 
REMARK       I    between atoms: C_16  and  N_18 
REMARK   10  A    between atoms: N_18  and  C_20 
ROOT
HETATM    1  C   UNL     1       8.862  -1.220  22.812  1.00  0.00     0.108 C 
ENDROOT
BRANCH   1   2
HETATM    2  C   UNL     1       7.958  -1.246  21.961  1.00  0.00     0.011 C 
BRANCH   2   3
HETATM    3  C   UNL     1       7.204  -0.685  21.166  1.00  0.00     0.097 C 
HETATM    4  N   UNL     1       6.261  -0.611  20.423  1.00  0.00    -0.296 N 
ATOM      5  HN  UNL     1       5.397  -1.038  20.756  1.00  0.00     0.177 HD
BRANCH   4   6
HETATM    6  S   UNL     1       6.191   0.079  18.967  1.00  0.00     0.226 S 
HETATM    7  C   UNL     1       4.987   1.397  19.127  1.00  0.00     0.186 C 
HETATM    8  O   UNL     1       7.436   0.692  18.590  1.00  0.00    -0.206 OA
HETATM    9  O   UNL     1       5.717  -0.814  17.963  1.00  0.00    -0.206 OA
ENDBRANCH   4   6
ENDBRANCH   2   3
ENDBRANCH   1   2
BRANCH   1  10
HETATM   10  C   UNL     1       9.349  -0.113  22.605  1.00  0.00    -0.071 C 
BRANCH  10  11
HETATM   11  C   UNL     1       9.749   1.120  22.489  1.00  0.00     0.289 C 
HETATM   12  O   UNL     1       9.863   1.491  21.421  1.00  0.00    -0.259 OA
HETATM   13  N   UNL     1       9.948   1.725  23.633  1.00  0.00    -0.315 N 
ATOM     14  HN  UNL     1       9.783   1.221  24.504  1.00  0.00     0.170 HD
BRANCH  13  15
HETATM   15  C   UNL     1      10.340   2.923  23.671  1.00  0.00     0.057 A 
HETATM   16  C   UNL     1      11.539   3.495  23.597  1.00  0.00     0.117 A 
HETATM   17  N   UNL     1      12.244   4.474  23.644  1.00  0.00    -0.373 N 
HETATM   18  C   UNL     1      11.330   5.429  23.791  1.00  0.00     0.088 A 
ATOM     19  HN  UNL     1      13.260   4.547  23.586  1.00  0.00     0.164 HD
HETATM   20  C   UNL     1      10.038   5.228  23.889  1.00  0.00     0.026 A 
HETATM   21  C   UNL     1       9.344   4.122  23.828  1.00  0.00    -0.033 A 
HETATM   22  C   UNL     1       7.861   3.861  23.877  1.00  0.00     0.050 C 
ENDBRANCH  13  15
ENDBRANCH  10  11
ENDBRANCH   1  10
BRANCH   1  23
HETATM   23  C   UNL     1       8.796  -1.439  24.550  1.00  0.00    -0.010 C 
BRANCH  23  24
HETATM   24  C   UNL     1       8.927  -2.310  25.063  1.00  0.00    -0.025 C 
BRANCH  24  25
HETATM   25  C   UNL     1       8.285  -2.806  26.351  1.00  0.00     0.053 C 
BRANCH  25  26
HETATM   26  C   UNL     1       8.573  -4.201  26.447  1.00  0.00    -0.033 C 
HETATM   27  C   UNL     1       8.120  -5.067  26.710  1.00  0.00     0.007 C 
ENDBRANCH  25  26
ENDBRANCH  24  25
ENDBRANCH  23  24
ENDBRANCH   1  23
TORSDOF 10
ENDMDL
MODEL 9
REMARK VINA RESULT:    -5.753      3.032      6.831
REMARK INTER + INTRA:          -9.437
REMARK INTER:                  -8.394
REMARK INTRA:                  -1.043
REMARK UNBOUND:                -0.825
REMARK  10 active torsions:
REMARK  status: ('A' for Active; 'I' for Inactive)
REMARK    1  A    between atoms: S_2  and  N_5 
REMARK    2  A    between atoms: C_7  and  C_8 
REMARK    3  A    between atoms: C_8  and  C_9 
REMARK    4  A    between atoms: C_9  and  C_15 
REMARK    5  A    between atoms: C_9  and  C_10 
REMARK    6  A    between atoms: C_10  and  C_11 
REMARK    7  A    between atoms: C_11  and  C_12 
REMARK    8  A    between atoms: C_12  and  C_13 
REMARK    9  A    between atoms: C_15  and  C_16 
REMARK       I    between atoms: C_16  and  N_18 
REMARK   10  A    between atoms: N_18  and  C_20 
ROOT
HETATM    1  C   UNL     1       7.341   0.060  21.250  1.00  0.00     0.108 C 
ENDROOT
BRANCH   1   2
HETATM    2  C   UNL     1       8.582   0.006  21.256  1.00  0.00     0.011 C 
BRANCH   2   3
HETATM    3  C   UNL     1       9.664   0.040  21.844  1.00  0.00     0.097 C 
HETATM    4  N   UNL     1      10.853  -0.103  21.949  1.00  0.00    -0.296 N 
ATOM      5  HN  UNL     1      11.411   0.210  21.155  1.00  0.00     0.177 HD
BRANCH   4   6
HETATM    6  S   UNL     1      11.676  -0.726  23.188  1.00  0.00     0.226 S 
HETATM    7  C   UNL     1      10.433  -1.203  24.388  1.00  0.00     0.186 C 
HETATM    8  O   UNL     1      12.390  -1.921  22.826  1.00  0.00    -0.206 OA
HETATM    9  O   UNL     1      12.530   0.230  23.812  1.00  0.00    -0.206 OA
ENDBRANCH   4   6
ENDBRANCH   2   3
ENDBRANCH   1   2
BRANCH   1  10
HETATM   10  C   UNL     1       7.069  -0.661  22.204  1.00  0.00    -0.071 C 
BRANCH  10  11
HETATM   11  C   UNL     1       6.945  -1.439  23.241  1.00  0.00     0.289 C 
HETATM   12  O   UNL     1       6.605  -0.921  24.194  1.00  0.00    -0.259 OA
HETATM   13  N   UNL     1       7.232  -2.694  23.002  1.00  0.00    -0.315 N 
ATOM     14  HN  UNL     1       7.519  -2.975  22.065  1.00  0.00     0.170 HD
BRANCH  13  15
HETATM   15  C   UNL     1       7.159  -3.559  23.916  1.00  0.00     0.057 A 
HETATM   16  C   UNL     1       7.998  -3.954  24.870  1.00  0.00     0.117 A 
HETATM   17  N   UNL     1       8.285  -4.691  25.783  1.00  0.00    -0.373 N 
HETATM   18  C   UNL     1       7.167  -5.407  25.882  1.00  0.00     0.088 A 
ATOM     19  HN  UNL     1       9.145  -4.748  26.328  1.00  0.00     0.164 HD
HETATM   20  C   UNL     1       6.118  -5.278  25.106  1.00  0.00     0.026 A 
HETATM   21  C   UNL     1       5.884  -4.445  24.126  1.00  0.00    -0.033 A 
HETATM   22  C   UNL     1       4.673  -4.231  23.256  1.00  0.00     0.050 C 
ENDBRANCH  13  15
ENDBRANCH  10  11
ENDBRANCH   1  10
BRANCH   1  23
HETATM   23  C   UNL     1       6.261   1.439  21.319  1.00  0.00    -0.010 C 
BRANCH  23  24
HETATM   24  C   UNL     1       5.884   1.961  20.529  1.00  0.00    -0.025 C 
BRANCH  24  25
HETATM   25  C   UNL     1       4.739   1.634  19.582  1.00  0.00     0.053 C 
BRANCH  25  26
HETATM   26  C   UNL     1       5.308   0.949  18.466  1.00  0.00    -0.033 C 
HETATM   27  C   UNL     1       5.966   1.110  17.713  1.00  0.00     0.007 C 
ENDBRANCH  25  26
ENDBRANCH  24  25
ENDBRANCH  23  24
ENDBRANCH   1  23
TORSDOF 10
ENDMDL
