stable:False satoms:20 tatoms:24 sratio:0.8333333333333334
  -OEChem-07092417363D

 24 23  0     1  0  0  0  0  0999 V2000
    7.2705   -3.8524   25.5595 H   0  0  0  0  0  0  0  0  0  0  0  0
    8.4629   -4.0634   26.7928 H   0  0  0  0  0  0  0  0  0  0  0  0
    8.9333   -4.0731   25.2160 H   0  0  0  0  0  0  0  0  0  0  0  0
    8.2212   -2.5500   26.1026 H   0  0  0  0  0  0  0  0  0  0  0  0
    8.2425   -3.5927   25.8720 C   0  0  0  0  0  0  0  0  0  0  0  0
    8.6161   -0.8484   22.2597 C   0  0  0  0  0  0  0  0  0  0  0  0
   10.0520   -2.5827   24.1673 N   0  0  0  0  0  0  0  0  0  0  0  0
    9.3825   -2.2812   24.4443 C   0  0  0  0  0  0  0  0  0  0  0  0
    9.9194   -1.2768   23.7125 N   0  0  2  0  0  0  0  0  0  0  0  0
   12.0933   -0.0241   23.9579 H   0  0  0  0  0  0  0  0  0  0  0  0
   12.9607    0.1765   22.4844 H   0  0  0  0  0  0  0  0  0  0  0  0
   12.3727   -1.3972   22.9120 H   0  0  0  0  0  0  0  0  0  0  0  0
   12.1615   -0.3605   22.9447 C   0  0  0  0  0  0  0  0  0  0  0  0
    9.9521   -0.6595   22.6690 C   0  0  3  0  0  0  0  0  0  0  0  0
    8.4401    0.1386   20.4699 H   0  0  0  0  0  0  0  0  0  0  0  0
   10.9186   -0.0284   22.1803 O   0  0  0  0  0  0  0  0  0  0  0  0
    7.2411   -1.0141   22.0479 N   0  0  0  0  0  0  0  0  0  0  0  0
    6.3485   -1.0753   19.8204 H   0  0  0  0  0  0  0  0  0  0  0  0
    8.0029   -0.4561   21.2934 C   0  0  0  0  0  0  0  0  0  0  0  0
    6.9551    0.9821   18.3232 H   0  0  0  0  0  0  0  0  0  0  0  0
    6.1091    0.6238   18.8519 C   0  0  0  0  0  0  0  0  0  0  0  0
    6.0609   -0.0672   19.8707 C   0  0  0  0  0  0  0  0  0  0  0  0
    5.1601    0.7685   18.5070 H   0  0  0  0  0  0  0  0  0  0  0  0
    5.7069    0.2234   20.8374 H   0  0  0  0  0  0  0  0  0  0  0  0
 20 21  1  0  0  0  0
 21 23  1  0  0  0  0
 21 22  2  0  0  0  0
 18 22  1  0  0  0  0
 22 24  1  0  0  0  0
 15 19  1  0  0  0  0
 17 19  1  0  0  0  0
  6 19  2  0  0  0  0
  6 17  1  0  0  0  0
 14 16  1  0  0  0  0
 13 16  1  0  0  0  0
  6 14  1  0  0  0  0
 11 13  1  0  0  0  0
  9 14  1  0  0  0  0
 12 13  1  0  0  0  0
 10 13  1  0  0  0  0
  7  9  1  0  0  0  0
  8  9  1  0  0  0  0
  7  8  1  0  0  0  0
  3  5  1  0  0  0  0
  1  5  1  0  0  0  0
  4  5  1  0  0  0  0
  2  5  1  0  0  0  0
M  END
> <Shapegauss>
-131.663300

$$$$
