stable:False satoms:22 tatoms:24 sratio:0.9166666666666666
  -OEChem-07092417333D

 24 23  0     1  0  0  0  0  0999 V2000
    7.2541   -2.6954   24.7975 N   0  0  0  0  0  0  0  0  0  0  0  0
    8.6044   -2.7728   25.0922 N   0  0  0  0  0  0  0  0  0  0  0  0
    9.3537   -0.8938   24.2833 O   0  0  0  0  0  0  0  0  0  0  0  0
    6.9016   -1.7899   25.0304 H   0  0  0  0  0  0  0  0  0  0  0  0
   10.4102   -3.9171   24.0246 H   0  0  0  0  0  0  0  0  0  0  0  0
    7.2337   -3.0012   23.8351 H   0  0  0  0  0  0  0  0  0  0  0  0
    9.8155    0.9042   23.5519 H   0  0  0  0  0  0  0  0  0  0  0  0
    9.4870   -2.1406   24.3788 C   0  0  3  0  0  0  0  0  0  0  0  0
   10.9622   -0.3568   23.0894 H   0  0  0  0  0  0  0  0  0  0  0  0
   11.5591   -2.5057   24.3133 H   0  0  0  0  0  0  0  0  0  0  0  0
    9.1454   -0.2409   21.9303 C   0  0  3  0  0  0  0  0  0  0  0  0
   10.8924   -2.8198   22.7650 H   0  0  0  0  0  0  0  0  0  0  0  0
   10.6692   -2.8856   23.8184 C   0  0  0  0  0  0  0  0  0  0  0  0
    9.8996   -0.1040   23.1776 C   0  0  0  0  0  0  0  0  0  0  0  0
    9.7122   -2.2284   21.6147 H   0  0  0  0  0  0  0  0  0  0  0  0
    8.9172   -1.5407   21.4436 C   0  0  0  0  0  0  0  0  0  0  0  0
    7.1884    1.7352   19.8999 H   0  0  0  0  0  0  0  0  0  0  0  0
    8.4474    0.8471   21.3313 C   0  5  3  0  0  0  0  0  0  0  0  0
    7.9837   -2.0717   20.9206 O   0  0  0  0  0  0  0  0  0  0  0  0
    6.5790   -0.2062   20.0697 C   0  0  0  0  0  0  0  0  0  0  0  0
    6.1220   -0.2831   19.1085 H   0  0  0  0  0  0  0  0  0  0  0  0
    7.3738    0.8087   20.4054 C   0  0  0  0  0  0  0  0  0  0  0  0
    8.7542    1.8208   21.6277 H   0  0  0  0  0  0  0  0  0  0  0  0
    6.3180   -0.9525   20.7876 H   0  0  0  0  0  0  0  0  0  0  0  0
 20 21  1  0  0  0  0
 17 22  1  0  0  0  0
 20 22  2  0  0  0  0
 20 24  1  0  0  0  0
 18 22  1  0  0  0  0
 16 19  2  0  0  0  0
 18 23  1  0  0  0  0
 11 18  1  0  0  0  0
 15 16  1  0  0  0  0
 11 16  1  0  0  0  0
 11 14  1  0  0  0  0
 12 13  1  0  0  0  0
  9 14  1  0  0  0  0
  7 14  1  0  0  0  0
  3 14  1  0  0  0  0
  5 13  1  0  0  0  0
 10 13  1  0  0  0  0
  8 13  1  0  0  0  0
  1  6  1  0  0  0  0
  3  8  1  0  0  0  0
  2  8  1  0  0  0  0
  1  4  1  0  0  0  0
  1  2  1  0  0  0  0
M  CHG  1  18  -1
M  END
> <Shapegauss>
-108.308922

$$$$
