
 OpenBabel07202414163D

 40 42  0  0  0  0  0  0  0  0999 V2000
    0.3434    5.5956   -0.3224 C   0  0  0  0  0  0  0  0  0  0  0  0
   -0.0383    4.9415   -1.6199 C   0  0  0  0  0  0  0  0  0  0  0  0
    0.3577    5.5548   -2.8178 C   0  0  0  0  0  0  0  0  0  0  0  0
    0.0492    4.9475   -4.0228 C   0  0  0  0  0  0  0  0  0  0  0  0
   -0.6206    3.7839   -4.1174 N   0  0  0  0  0  0  0  0  0  0  0  0
   -0.9811    3.1913   -2.9555 C   0  0  0  0  0  0  0  0  0  0  0  0
   -0.7222    3.7112   -1.6834 C   0  0  0  0  0  0  0  0  0  0  0  0
   -1.0977    2.8999   -0.4651 C   0  0  0  0  0  0  0  0  0  0  0  0
   -2.5646    2.5027   -0.3981 C   0  0  0  0  0  0  0  0  0  0  0  0
   -2.9354    1.3826   -0.7393 O   0  0  0  0  0  0  0  0  0  0  0  0
   -3.3898    3.5283    0.0389 N   0  0  0  0  0  0  0  0  0  0  0  0
   -4.7916    3.3971    0.1572 C   0  0  0  0  0  0  0  0  0  0  0  0
   -5.3511    2.2539    0.7472 C   0  0  0  0  0  0  0  0  0  0  0  0
   -6.7374    2.1242    0.8929 C   0  0  0  0  0  0  0  0  0  0  0  0
   -7.5853    3.1152    0.4071 C   0  0  0  0  0  0  0  0  0  0  0  0
   -7.0413    4.2425   -0.2069 C   0  0  0  0  0  0  0  0  0  0  0  0
   -5.6422    4.4179   -0.2992 C   0  0  0  0  0  0  0  0  0  0  0  0
   -5.1811    5.7145   -0.9175 C   0  0  0  0  0  0  0  0  0  0  0  0
   -5.8503    6.0312   -2.1840 N   0  0  0  0  0  0  0  0  0  0  0  0
   -7.2859    5.7019   -2.1949 C   0  0  0  0  0  0  0  0  0  0  0  0
   -7.9051    5.3048   -0.8425 C   0  0  0  0  0  0  0  0  0  0  0  0
    0.6768    6.6287   -0.4800 H   0  0  0  0  0  0  0  0  0  0  0  0
    1.1623    5.0455    0.1528 H   0  0  0  0  0  0  0  0  0  0  0  0
   -0.5133    5.6433    0.3552 H   0  0  0  0  0  0  0  0  0  0  0  0
    0.9123    6.4876   -2.8187 H   0  0  0  0  0  0  0  0  0  0  0  0
    0.3506    5.3913   -4.9674 H   0  0  0  0  0  0  0  0  0  0  0  0
   -1.4892    2.2378   -3.0840 H   0  0  0  0  0  0  0  0  0  0  0  0
   -0.8502    3.4171    0.4674 H   0  0  0  0  0  0  0  0  0  0  0  0
   -0.4992    1.9800   -0.4599 H   0  0  0  0  0  0  0  0  0  0  0  0
   -3.0169    4.4592   -0.0798 H   0  0  0  0  0  0  0  0  0  0  0  0
   -4.7143    1.4609    1.1310 H   0  0  0  0  0  0  0  0  0  0  0  0
   -7.1506    1.2403    1.3725 H   0  0  0  0  0  0  0  0  0  0  0  0
   -8.6629    2.9908    0.4896 H   0  0  0  0  0  0  0  0  0  0  0  0
   -4.1068    5.7208   -1.1152 H   0  0  0  0  0  0  0  0  0  0  0  0
   -5.3581    6.5238   -0.1972 H   0  0  0  0  0  0  0  0  0  0  0  0
   -5.3982    5.4928   -2.9248 H   0  0  0  0  0  0  0  0  0  0  0  0
   -7.4258    4.8673   -2.8960 H   0  0  0  0  0  0  0  0  0  0  0  0
   -7.8354    6.5502   -2.6150 H   0  0  0  0  0  0  0  0  0  0  0  0
   -8.9202    4.9280   -1.0125 H   0  0  0  0  0  0  0  0  0  0  0  0
   -7.9696    6.1671   -0.1737 H   0  0  0  0  0  0  0  0  0  0  0  0
  1  2  1  0  0  0  0
  1 22  1  0  0  0  0
  1 23  1  0  0  0  0
  1 24  1  0  0  0  0
  2  3  1  0  0  0  0
  2  7  2  0  0  0  0
  3  4  2  0  0  0  0
  3 25  1  0  0  0  0
  4  5  1  0  0  0  0
  4 26  1  0  0  0  0
  5  6  2  0  0  0  0
  6  7  1  0  0  0  0
  6 27  1  0  0  0  0
  7  8  1  0  0  0  0
  8  9  1  0  0  0  0
  8 28  1  0  0  0  0
  8 29  1  0  0  0  0
  9 10  2  0  0  0  0
  9 11  1  0  0  0  0
 11 12  1  0  0  0  0
 11 30  1  0  0  0  0
 12 13  1  0  0  0  0
 12 17  2  0  0  0  0
 13 14  2  0  0  0  0
 13 31  1  0  0  0  0
 14 15  1  0  0  0  0
 14 32  1  0  0  0  0
 15 16  2  0  0  0  0
 15 33  1  0  0  0  0
 16 17  1  0  0  0  0
 16 21  1  0  0  0  0
 17 18  1  0  0  0  0
 18 19  1  0  0  0  0
 18 34  1  0  0  0  0
 18 35  1  0  0  0  0
 19 20  1  0  0  0  0
 19 36  1  0  0  0  0
 20 21  1  0  0  0  0
 20 37  1  0  0  0  0
 20 38  1  0  0  0  0
 21 39  1  0  0  0  0
 21 40  1  0  0  0  0
M  END
$$$$
