
 OpenBabel07202414153D

 44 47  0  0  1  0  0  0  0  0999 V2000
    9.6571   -6.7357   -4.1612 C   0  0  0  0  0  0  0  0  0  0  0  0
    8.9965   -6.1181   -3.0594 O   0  0  0  0  0  0  0  0  0  0  0  0
    8.2387   -5.0111   -3.3354 C   0  0  0  0  0  0  0  0  0  0  0  0
    7.9284   -4.5480   -4.6090 C   0  0  0  0  0  0  0  0  0  0  0  0
    7.1177   -3.4254   -4.7548 C   0  0  0  0  0  0  0  0  0  0  0  0
    6.6075   -2.7537   -3.6352 C   0  0  0  0  0  0  0  0  0  0  0  0
    5.7818   -1.6472   -3.8089 C   0  0  0  0  0  0  0  0  0  0  0  0
    5.2304   -0.9443   -2.8059 N   0  0  0  0  0  0  0  0  0  0  0  0
    5.5400   -1.3461   -1.5521 C   0  0  0  0  0  0  0  0  0  0  0  0
    6.3774   -2.4217   -1.2301 C   0  0  0  0  0  0  0  0  0  0  0  0
    6.6650   -2.7637    0.1267 N   0  0  0  0  0  0  0  0  0  0  0  0
    6.3939   -1.9675    1.2315 C   0  0  0  0  0  0  0  0  0  0  0  0
    6.0245   -0.7920    1.1709 O   0  0  0  0  0  0  0  0  0  0  0  0
    6.6581   -2.5752    2.6123 C   0  0  3  0  0  0  0  0  0  0  0  0
    8.0706   -2.2258    3.0912 C   0  0  0  0  0  0  0  0  0  0  0  0
    9.0778   -3.2501    2.6012 C   0  0  0  0  0  0  0  0  0  0  0  0
    8.7074   -4.5754    3.0735 N   0  0  0  0  0  0  0  0  0  0  0  0
    7.3884   -4.9859    2.8803 C   0  0  0  0  0  0  0  0  0  0  0  0
    7.0621   -6.3414    2.9977 C   0  0  0  0  0  0  0  0  0  0  0  0
    5.7390   -6.7803    2.8680 C   0  0  0  0  0  0  0  0  0  0  0  0
    5.4443   -8.4807    2.9577 Cl  0  0  0  0  0  0  0  0  0  0  0  0
    4.7144   -5.8542    2.6671 C   0  0  0  0  0  0  0  0  0  0  0  0
    3.0602   -6.3166    2.4924 Cl  0  0  0  0  0  0  0  0  0  0  0  0
    5.0201   -4.4945    2.5999 C   0  0  0  0  0  0  0  0  0  0  0  0
    6.3521   -4.0557    2.7057 C   0  0  0  0  0  0  0  0  0  0  0  0
    6.9129   -3.1805   -2.3174 C   0  0  0  0  0  0  0  0  0  0  0  0
    7.7413   -4.3316   -2.2097 C   0  0  0  0  0  0  0  0  0  0  0  0
   10.1872   -7.6157   -3.7846 H   0  0  0  0  0  0  0  0  0  0  0  0
   10.3984   -6.0573   -4.5971 H   0  0  0  0  0  0  0  0  0  0  0  0
    8.9475   -7.0837   -4.9197 H   0  0  0  0  0  0  0  0  0  0  0  0
    8.2856   -5.0374   -5.5086 H   0  0  0  0  0  0  0  0  0  0  0  0
    6.8810   -3.0804   -5.7615 H   0  0  0  0  0  0  0  0  0  0  0  0
    5.5218   -1.2836   -4.8003 H   0  0  0  0  0  0  0  0  0  0  0  0
    5.0340   -0.7551   -0.7963 H   0  0  0  0  0  0  0  0  0  0  0  0
    7.1381   -3.6432    0.2910 H   0  0  0  0  0  0  0  0  0  0  0  0
    5.9583   -2.0673    3.2930 H   0  0  0  0  0  0  0  0  0  0  0  0
    8.0818   -2.2158    4.1900 H   0  0  0  0  0  0  0  0  0  0  0  0
    8.3645   -1.2218    2.7631 H   0  0  0  0  0  0  0  0  0  0  0  0
   10.0714   -3.0016    2.9897 H   0  0  0  0  0  0  0  0  0  0  0  0
    9.1505   -3.2486    1.5081 H   0  0  0  0  0  0  0  0  0  0  0  0
    9.4065   -5.2946    2.9047 H   0  0  0  0  0  0  0  0  0  0  0  0
    7.8480   -7.0690    3.1859 H   0  0  0  0  0  0  0  0  0  0  0  0
    4.2189   -3.7687    2.4651 H   0  0  0  0  0  0  0  0  0  0  0  0
    8.0160   -4.7286   -1.2363 H   0  0  0  0  0  0  0  0  0  0  0  0
  1  2  1  0  0  0  0
  1 28  1  0  0  0  0
  1 29  1  0  0  0  0
  1 30  1  0  0  0  0
  2  3  1  0  0  0  0
  3  4  1  0  0  0  0
  3 27  2  0  0  0  0
  4  5  2  0  0  0  0
  4 31  1  0  0  0  0
  5  6  1  0  0  0  0
  5 32  1  0  0  0  0
  6  7  1  0  0  0  0
  6 26  2  0  0  0  0
  7  8  2  0  0  0  0
  7 33  1  0  0  0  0
  8  9  1  0  0  0  0
  9 10  2  0  0  0  0
  9 34  1  0  0  0  0
 10 11  1  0  0  0  0
 10 26  1  0  0  0  0
 11 12  1  0  0  0  0
 11 35  1  0  0  0  0
 12 13  2  0  0  0  0
 12 14  1  0  0  0  0
 14 15  1  0  0  0  0
 14 25  1  0  0  0  0
 14 36  1  0  0  0  0
 15 16  1  0  0  0  0
 15 37  1  0  0  0  0
 15 38  1  0  0  0  0
 16 17  1  0  0  0  0
 16 39  1  0  0  0  0
 16 40  1  0  0  0  0
 17 18  1  0  0  0  0
 17 41  1  0  0  0  0
 18 19  1  0  0  0  0
 18 25  2  0  0  0  0
 19 20  2  0  0  0  0
 19 42  1  0  0  0  0
 20 21  1  0  0  0  0
 20 22  1  0  0  0  0
 22 23  1  0  0  0  0
 22 24  2  0  0  0  0
 24 25  1  0  0  0  0
 24 43  1  0  0  0  0
 26 27  1  0  0  0  0
 27 44  1  0  0  0  0
M  END
$$$$
