MODEL 1
REMARK VINA RESULT:    -6.921      0.000      0.000
REMARK INTER + INTRA:          -9.707
REMARK INTER:                  -9.146
REMARK INTRA:                  -0.560
REMARK UNBOUND:                -0.560
REMARK  6 active torsions:
REMARK  status: ('A' for Active; 'I' for Inactive)
REMARK    1  A    between atoms: S_2  and  N_5 
REMARK    2  A    between atoms: N_5  and  C_7 
REMARK    3  A    between atoms: C_8  and  C_9 
REMARK    4  A    between atoms: C_9  and  C_14 
REMARK    5  A    between atoms: N_11  and  C_13 
REMARK       I    between atoms: N_15  and  C_17 
REMARK       I    between atoms: C_17  and  N_19 
REMARK    6  A    between atoms: N_19  and  C_21 
ROOT
HETATM    1  C   UNL     1       7.509  -4.300  23.466  1.00  0.00     0.093 C 
HETATM    2  N   UNL     1       8.364  -3.614  22.841  1.00  0.00    -0.301 N 
ATOM      3  HN  UNL     1       8.670  -4.084  21.990  1.00  0.00     0.171 HD
HETATM    4  C   UNL     1       8.995  -2.396  23.002  1.00  0.00     0.325 C 
HETATM    5  O   UNL     1       9.102  -1.706  22.024  1.00  0.00    -0.247 OA
HETATM    6  N   UNL     1       9.522  -2.101  24.227  1.00  0.00    -0.310 N 
ATOM      7  HN  UNL     1       9.309  -2.678  25.041  1.00  0.00     0.170 HD
ENDROOT
BRANCH   1   8
HETATM    8  C   UNL     1       7.788  -4.826  24.702  1.00  0.00    -0.025 C 
HETATM    9  C   UNL     1       7.876  -5.134  25.770  1.00  0.00     0.028 C 
BRANCH   9  10
HETATM   10  N   UNL     1       8.000  -5.746  26.828  1.00  0.00    -0.229 N 
ATOM     11  HN  UNL     1       8.900  -6.178  27.035  1.00  0.00     0.190 HD
BRANCH  10  12
HETATM   12  S   UNL     1       6.806  -5.900  27.911  1.00  0.00     0.327 S 
HETATM   13 CL   UNL     1       5.412  -6.499  26.750  1.00  0.00     0.042 Cl
HETATM   14  O   UNL     1       7.035  -6.913  28.882  1.00  0.00    -0.188 OA
HETATM   15  O   UNL     1       6.375  -4.651  28.422  1.00  0.00    -0.188 OA
ENDBRANCH  10  12
ENDBRANCH   9  10
ENDBRANCH   1   8
BRANCH   1  16
HETATM   16  C   UNL     1       6.397  -4.436  22.787  1.00  0.00     0.055 C 
HETATM   17  C   UNL     1       5.975  -5.279  21.896  1.00  0.00     0.083 C 
BRANCH  17  18
HETATM   18  N   UNL     1       6.621  -6.416  21.894  1.00  0.00    -0.408 N 
HETATM   19  H   UNL     1       6.117  -7.128  22.412  1.00  0.00     0.155 HD
ATOM     20  HN  UNL     1       7.517  -6.568  21.430  1.00  0.00     0.155 HD
ENDBRANCH  17  18
ENDBRANCH   1  16
BRANCH   6  21
HETATM   21  C   UNL     1      10.287  -1.083  24.326  1.00  0.00     0.038 A 
HETATM   22  C   UNL     1      11.553  -0.781  24.125  1.00  0.00     0.153 A 
HETATM   23  N   UNL     1      12.582  -0.167  24.000  1.00  0.00    -0.400 N 
HETATM   24  C   UNL     1      11.955   0.914  24.246  1.00  0.00     0.129 A 
ATOM     25  HN  UNL     1      13.549  -0.412  23.786  1.00  0.00     0.154 HD
HETATM   26  C   UNL     1      10.763   1.131  24.536  1.00  0.00     0.002 A 
HETATM   27  C   UNL     1       9.782   0.331  24.647  1.00  0.00     0.025 A 
ENDBRANCH   6  21
TORSDOF 6
ENDMDL
MODEL 2
REMARK VINA RESULT:    -6.470      3.977      5.800
REMARK INTER + INTRA:          -9.111
REMARK INTER:                  -8.627
REMARK INTRA:                  -0.484
REMARK UNBOUND:                -0.560
REMARK  6 active torsions:
REMARK  status: ('A' for Active; 'I' for Inactive)
REMARK    1  A    between atoms: S_2  and  N_5 
REMARK    2  A    between atoms: N_5  and  C_7 
REMARK    3  A    between atoms: C_8  and  C_9 
REMARK    4  A    between atoms: C_9  and  C_14 
REMARK    5  A    between atoms: N_11  and  C_13 
REMARK       I    between atoms: N_15  and  C_17 
REMARK       I    between atoms: C_17  and  N_19 
REMARK    6  A    between atoms: N_19  and  C_21 
ROOT
HETATM    1  C   UNL     1      10.205  -1.308  23.038  1.00  0.00     0.093 C 
HETATM    2  N   UNL     1       9.744  -0.199  22.650  1.00  0.00    -0.301 N 
ATOM      3  HN  UNL     1       9.927   0.539  23.329  1.00  0.00     0.171 HD
HETATM    4  C   UNL     1       9.059   0.281  21.552  1.00  0.00     0.325 C 
HETATM    5  O   UNL     1       9.421   1.337  21.104  1.00  0.00    -0.247 OA
HETATM    6  N   UNL     1       7.978  -0.425  21.107  1.00  0.00    -0.310 N 
ATOM      7  HN  UNL     1       7.783  -1.362  21.461  1.00  0.00     0.170 HD
ENDROOT
BRANCH   1   8
HETATM    8  C   UNL     1       9.374  -2.355  23.341  1.00  0.00    -0.025 C 
HETATM    9  C   UNL     1       8.691  -3.235  23.396  1.00  0.00     0.028 C 
BRANCH   9  10
HETATM   10  N   UNL     1       8.109  -4.276  23.691  1.00  0.00    -0.229 N 
ATOM     11  HN  UNL     1       8.547  -4.901  24.367  1.00  0.00     0.190 HD
BRANCH  10  12
HETATM   12  S   UNL     1       6.680  -4.704  23.060  1.00  0.00     0.327 S 
HETATM   13 CL   UNL     1       7.294  -5.797  21.619  1.00  0.00     0.042 Cl
HETATM   14  O   UNL     1       5.889  -5.515  23.921  1.00  0.00    -0.188 OA
HETATM   15  O   UNL     1       6.005  -3.613  22.460  1.00  0.00    -0.188 OA
ENDBRANCH  10  12
ENDBRANCH   9  10
ENDBRANCH   1   8
BRANCH   1  16
HETATM   16  C   UNL     1      11.513  -1.294  23.117  1.00  0.00     0.055 C 
HETATM   17  C   UNL     1      12.374  -0.609  23.804  1.00  0.00     0.083 C 
BRANCH  17  18
HETATM   18  N   UNL     1      11.874  -0.051  24.875  1.00  0.00    -0.408 N 
HETATM   19  H   UNL     1      11.338  -0.716  25.423  1.00  0.00     0.155 HD
ATOM     20  HN  UNL     1      12.005   0.929  25.128  1.00  0.00     0.155 HD
ENDBRANCH  17  18
ENDBRANCH   1  16
BRANCH   6  21
HETATM   21  C   UNL     1       7.218   0.119  20.237  1.00  0.00     0.038 A 
HETATM   22  C   UNL     1       6.978   0.026  18.945  1.00  0.00     0.153 A 
HETATM   23  N   UNL     1       6.482   0.163  17.856  1.00  0.00    -0.400 N 
HETATM   24  C   UNL     1       5.607   0.938  18.363  1.00  0.00     0.129 A 
ATOM     25  HN  UNL     1       6.681  -0.192  16.921  1.00  0.00     0.154 HD
HETATM   26  C   UNL     1       5.449   1.358  19.525  1.00  0.00     0.002 A 
HETATM   27  C   UNL     1       6.103   1.115  20.587  1.00  0.00     0.025 A 
ENDBRANCH   6  21
TORSDOF 6
ENDMDL
MODEL 3
REMARK VINA RESULT:    -6.265      4.184      7.656
REMARK INTER + INTRA:          -8.839
REMARK INTER:                  -8.471
REMARK INTRA:                  -0.368
REMARK UNBOUND:                -0.560
REMARK  6 active torsions:
REMARK  status: ('A' for Active; 'I' for Inactive)
REMARK    1  A    between atoms: S_2  and  N_5 
REMARK    2  A    between atoms: N_5  and  C_7 
REMARK    3  A    between atoms: C_8  and  C_9 
REMARK    4  A    between atoms: C_9  and  C_14 
REMARK    5  A    between atoms: N_11  and  C_13 
REMARK       I    between atoms: N_15  and  C_17 
REMARK       I    between atoms: C_17  and  N_19 
REMARK    6  A    between atoms: N_19  and  C_21 
ROOT
HETATM    1  C   UNL     1       8.781  -2.305  23.110  1.00  0.00     0.093 C 
HETATM    2  N   UNL     1       8.703  -3.542  23.344  1.00  0.00    -0.301 N 
ATOM      3  HN  UNL     1       9.437  -4.060  22.861  1.00  0.00     0.171 HD
HETATM    4  C   UNL     1       7.889  -4.383  24.077  1.00  0.00     0.325 C 
HETATM    5  O   UNL     1       8.432  -5.248  24.711  1.00  0.00    -0.247 OA
HETATM    6  N   UNL     1       6.537  -4.228  23.968  1.00  0.00    -0.310 N 
ATOM      7  HN  UNL     1       6.140  -3.413  23.499  1.00  0.00     0.170 HD
ENDROOT
BRANCH   1   8
HETATM    8  C   UNL     1       7.800  -1.652  22.409  1.00  0.00    -0.025 C 
HETATM    9  C   UNL     1       7.146  -1.064  21.722  1.00  0.00     0.028 C 
BRANCH   9  10
HETATM   10  N   UNL     1       6.243  -0.649  21.001  1.00  0.00    -0.229 N 
ATOM     11  HN  UNL     1       5.310  -1.044  21.116  1.00  0.00     0.190 HD
BRANCH  10  12
HETATM   12  S   UNL     1       6.460   0.496  19.876  1.00  0.00     0.327 S 
HETATM   13 CL   UNL     1       5.791  -0.439  18.351  1.00  0.00     0.042 Cl
HETATM   14  O   UNL     1       5.657   1.654  20.069  1.00  0.00    -0.188 OA
HETATM   15  O   UNL     1       7.830   0.741  19.611  1.00  0.00    -0.188 OA
ENDBRANCH  10  12
ENDBRANCH   9  10
ENDBRANCH   1   8
BRANCH   1  16
HETATM   16  C   UNL     1       9.879  -1.782  23.597  1.00  0.00     0.055 C 
HETATM   17  C   UNL     1      11.037  -1.475  23.097  1.00  0.00     0.083 C 
BRANCH  17  18
HETATM   18  N   UNL     1      11.033  -1.335  21.797  1.00  0.00    -0.408 N 
HETATM   19  H   UNL     1      10.460  -0.548  21.512  1.00  0.00     0.155 HD
ATOM     20  HN  UNL     1      11.542  -1.940  21.152  1.00  0.00     0.155 HD
ENDBRANCH  17  18
ENDBRANCH   1  16
BRANCH   6  21
HETATM   21  C   UNL     1       5.784  -5.129  24.469  1.00  0.00     0.038 A 
HETATM   22  C   UNL     1       5.093  -6.173  24.059  1.00  0.00     0.153 A 
HETATM   23  N   UNL     1       4.428  -7.177  24.045  1.00  0.00    -0.400 N 
HETATM   24  C   UNL     1       4.409  -7.170  25.319  1.00  0.00     0.129 A 
ATOM     25  HN  UNL     1       4.043  -7.780  23.318  1.00  0.00     0.154 HD
HETATM   26  C   UNL     1       4.880  -6.368  26.148  1.00  0.00     0.002 A 
HETATM   27  C   UNL     1       5.564  -5.311  25.977  1.00  0.00     0.025 A 
ENDBRANCH   6  21
TORSDOF 6
ENDMDL
MODEL 4
REMARK VINA RESULT:    -6.166     28.918     30.515
REMARK INTER + INTRA:          -8.708
REMARK INTER:                  -7.935
REMARK INTRA:                  -0.774
REMARK UNBOUND:                -0.560
REMARK  6 active torsions:
REMARK  status: ('A' for Active; 'I' for Inactive)
REMARK    1  A    between atoms: S_2  and  N_5 
REMARK    2  A    between atoms: N_5  and  C_7 
REMARK    3  A    between atoms: C_8  and  C_9 
REMARK    4  A    between atoms: C_9  and  C_14 
REMARK    5  A    between atoms: N_11  and  C_13 
REMARK       I    between atoms: N_15  and  C_17 
REMARK       I    between atoms: C_17  and  N_19 
REMARK    6  A    between atoms: N_19  and  C_21 
ROOT
HETATM    1  C   UNL     1       9.233  18.194   0.698  1.00  0.00     0.093 C 
HETATM    2  N   UNL     1      10.218  18.874   1.098  1.00  0.00    -0.301 N 
ATOM      3  HN  UNL     1      10.882  19.049   0.344  1.00  0.00     0.171 HD
HETATM    4  C   UNL     1      10.638  19.443   2.284  1.00  0.00     0.325 C 
HETATM    5  O   UNL     1      11.090  20.556   2.222  1.00  0.00    -0.247 OA
HETATM    6  N   UNL     1      10.589  18.683   3.417  1.00  0.00    -0.310 N 
ATOM      7  HN  UNL     1      10.101  17.787   3.425  1.00  0.00     0.170 HD
ENDROOT
BRANCH   1   8
HETATM    8  C   UNL     1       9.013  16.923   1.163  1.00  0.00    -0.025 C 
HETATM    9  C   UNL     1       8.992  15.843   1.439  1.00  0.00     0.028 C 
BRANCH   9  10
HETATM   10  N   UNL     1       8.895  14.760   2.012  1.00  0.00    -0.229 N 
ATOM     11  HN  UNL     1       8.242  14.071   1.640  1.00  0.00     0.190 HD
BRANCH  10  12
HETATM   12  S   UNL     1       9.754  14.373   3.328  1.00  0.00     0.327 S 
HETATM   13 CL   UNL     1       8.943  15.559   4.587  1.00  0.00     0.042 Cl
HETATM   14  O   UNL     1       9.546  13.041   3.782  1.00  0.00    -0.188 OA
HETATM   15  O   UNL     1      11.108  14.779   3.230  1.00  0.00    -0.188 OA
ENDBRANCH  10  12
ENDBRANCH   9  10
ENDBRANCH   1   8
BRANCH   1  16
HETATM   16  C   UNL     1       8.515  18.845  -0.183  1.00  0.00     0.055 C 
HETATM   17  C   UNL     1       7.458  19.595  -0.117  1.00  0.00     0.083 C 
BRANCH  17  18
HETATM   18  N   UNL     1       7.235  20.094   1.072  1.00  0.00    -0.408 N 
HETATM   19  H   UNL     1       6.613  19.500   1.610  1.00  0.00     0.155 HD
ATOM     20  HN  UNL     1       7.635  20.968   1.413  1.00  0.00     0.155 HD
ENDBRANCH  17  18
ENDBRANCH   1  16
BRANCH   6  21
HETATM   21  C   UNL     1      11.170  19.123   4.465  1.00  0.00     0.038 A 
HETATM   22  C   UNL     1      10.844  19.721   5.593  1.00  0.00     0.153 A 
HETATM   23  N   UNL     1      10.897  20.196   6.699  1.00  0.00    -0.400 N 
HETATM   24  C   UNL     1      12.129  19.878   6.765  1.00  0.00     0.129 A 
ATOM     25  HN  UNL     1      10.233  20.658   7.321  1.00  0.00     0.154 HD
HETATM   26  C   UNL     1      12.889  19.339   5.938  1.00  0.00     0.002 A 
HETATM   27  C   UNL     1      12.659  18.904   4.767  1.00  0.00     0.025 A 
ENDBRANCH   6  21
TORSDOF 6
ENDMDL
MODEL 5
REMARK VINA RESULT:    -5.975      3.731      5.504
REMARK INTER + INTRA:          -8.457
REMARK INTER:                  -8.025
REMARK INTRA:                  -0.432
REMARK UNBOUND:                -0.560
REMARK  6 active torsions:
REMARK  status: ('A' for Active; 'I' for Inactive)
REMARK    1  A    between atoms: S_2  and  N_5 
REMARK    2  A    between atoms: N_5  and  C_7 
REMARK    3  A    between atoms: C_8  and  C_9 
REMARK    4  A    between atoms: C_9  and  C_14 
REMARK    5  A    between atoms: N_11  and  C_13 
REMARK       I    between atoms: N_15  and  C_17 
REMARK       I    between atoms: C_17  and  N_19 
REMARK    6  A    between atoms: N_19  and  C_21 
ROOT
HETATM    1  C   UNL     1       9.970  -1.386  22.972  1.00  0.00     0.093 C 
HETATM    2  N   UNL     1       9.489  -0.279  22.604  1.00  0.00    -0.301 N 
ATOM      3  HN  UNL     1       9.711   0.463  23.268  1.00  0.00     0.171 HD
HETATM    4  C   UNL     1       8.743   0.197  21.544  1.00  0.00     0.325 C 
HETATM    5  O   UNL     1       9.082   1.248  21.070  1.00  0.00    -0.247 OA
HETATM    6  N   UNL     1       7.638  -0.510  21.165  1.00  0.00    -0.310 N 
ATOM      7  HN  UNL     1       7.462  -1.445  21.534  1.00  0.00     0.170 HD
ENDROOT
BRANCH   1   8
HETATM    8  C   UNL     1       9.155  -2.430  23.327  1.00  0.00    -0.025 C 
HETATM    9  C   UNL     1       8.642  -3.339  23.721  1.00  0.00     0.028 C 
BRANCH   9  10
HETATM   10  N   UNL     1       7.845  -4.155  24.177  1.00  0.00    -0.229 N 
ATOM     11  HN  UNL     1       7.342  -4.758  23.527  1.00  0.00     0.190 HD
BRANCH  10  12
HETATM   12  S   UNL     1       7.555  -4.322  25.762  1.00  0.00     0.327 S 
HETATM   13 CL   UNL     1       6.654  -2.670  26.087  1.00  0.00     0.042 Cl
HETATM   14  O   UNL     1       6.658  -5.381  26.076  1.00  0.00    -0.188 OA
HETATM   15  O   UNL     1       8.740  -4.277  26.536  1.00  0.00    -0.188 OA
ENDBRANCH  10  12
ENDBRANCH   9  10
ENDBRANCH   1   8
BRANCH   1  16
HETATM   16  C   UNL     1      11.280  -1.375  22.976  1.00  0.00     0.055 C 
HETATM   17  C   UNL     1      12.180  -0.715  23.638  1.00  0.00     0.083 C 
BRANCH  17  18
HETATM   18  N   UNL     1      11.741  -0.197  24.756  1.00  0.00    -0.408 N 
HETATM   19  H   UNL     1      12.314  -0.481  25.544  1.00  0.00     0.155 HD
ATOM     20  HN  UNL     1      10.928   0.415  24.827  1.00  0.00     0.155 HD
ENDBRANCH  17  18
ENDBRANCH   1  16
BRANCH   6  21
HETATM   21  C   UNL     1       6.831   0.030  20.336  1.00  0.00     0.038 A 
HETATM   22  C   UNL     1       5.770   0.811  20.362  1.00  0.00     0.153 A 
HETATM   23  N   UNL     1       4.862   1.526  20.025  1.00  0.00    -0.400 N 
HETATM   24  C   UNL     1       5.221   1.393  18.810  1.00  0.00     0.129 A 
ATOM     25  HN  UNL     1       4.117   2.028  20.510  1.00  0.00     0.154 HD
HETATM   26  C   UNL     1       6.133   0.725  18.286  1.00  0.00     0.002 A 
HETATM   27  C   UNL     1       7.020  -0.016  18.813  1.00  0.00     0.025 A 
ENDBRANCH   6  21
TORSDOF 6
ENDMDL
MODEL 6
REMARK VINA RESULT:    -5.884     27.248     29.347
REMARK INTER + INTRA:          -8.337
REMARK INTER:                  -7.908
REMARK INTRA:                  -0.429
REMARK UNBOUND:                -0.560
REMARK  6 active torsions:
REMARK  status: ('A' for Active; 'I' for Inactive)
REMARK    1  A    between atoms: S_2  and  N_5 
REMARK    2  A    between atoms: N_5  and  C_7 
REMARK    3  A    between atoms: C_8  and  C_9 
REMARK    4  A    between atoms: C_9  and  C_14 
REMARK    5  A    between atoms: N_11  and  C_13 
REMARK       I    between atoms: N_15  and  C_17 
REMARK       I    between atoms: C_17  and  N_19 
REMARK    6  A    between atoms: N_19  and  C_21 
ROOT
HETATM    1  C   UNL     1       9.246  15.005   3.327  1.00  0.00     0.093 C 
HETATM    2  N   UNL     1       9.162  13.746   3.329  1.00  0.00    -0.301 N 
ATOM      3  HN  UNL     1      10.084  13.310   3.307  1.00  0.00     0.171 HD
HETATM    4  C   UNL     1       8.156  12.800   3.354  1.00  0.00     0.325 C 
HETATM    5  O   UNL     1       8.314  11.857   4.082  1.00  0.00    -0.247 OA
HETATM    6  N   UNL     1       7.102  12.958   2.500  1.00  0.00    -0.310 N 
ATOM      7  HN  UNL     1       6.973  13.828   1.983  1.00  0.00     0.170 HD
ENDROOT
BRANCH   1   8
HETATM    8  C   UNL     1       8.789  15.743   2.266  1.00  0.00    -0.025 C 
HETATM    9  C   UNL     1       8.291  16.417   1.529  1.00  0.00     0.028 C 
BRANCH   9  10
HETATM   10  N   UNL     1       8.022  17.205   0.626  1.00  0.00    -0.229 N 
ATOM     11  HN  UNL     1       7.843  16.832  -0.306  1.00  0.00     0.190 HD
BRANCH  10  12
HETATM   12  S   UNL     1       7.937  18.808   0.842  1.00  0.00     0.327 S 
HETATM   13 CL   UNL     1       9.778  19.170   1.196  1.00  0.00     0.042 Cl
HETATM   14  O   UNL     1       7.563  19.528  -0.326  1.00  0.00    -0.188 OA
HETATM   15  O   UNL     1       7.238  19.157   2.024  1.00  0.00    -0.188 OA
ENDBRANCH  10  12
ENDBRANCH   9  10
ENDBRANCH   1   8
BRANCH   1  16
HETATM   16  C   UNL     1       9.815  15.460   4.415  1.00  0.00     0.055 C 
HETATM   17  C   UNL     1      10.987  15.318   4.955  1.00  0.00     0.083 C 
BRANCH  17  18
HETATM   18  N   UNL     1      11.912  14.926   4.118  1.00  0.00    -0.408 N 
HETATM   19  H   UNL     1      12.182  13.964   4.291  1.00  0.00     0.155 HD
ATOM     20  HN  UNL     1      12.311  15.513   3.385  1.00  0.00     0.155 HD
ENDBRANCH  17  18
ENDBRANCH   1  16
BRANCH   6  21
HETATM   21  C   UNL     1       6.284  11.987   2.365  1.00  0.00     0.038 A 
HETATM   22  C   UNL     1       6.208  10.849   1.705  1.00  0.00     0.153 A 
HETATM   23  N   UNL     1       5.844   9.769   1.317  1.00  0.00    -0.400 N 
HETATM   24  C   UNL     1       4.861   9.820   2.126  1.00  0.00     0.129 A 
ATOM     25  HN  UNL     1       6.182   9.095   0.629  1.00  0.00     0.154 HD
HETATM   26  C   UNL     1       4.490  10.705   2.920  1.00  0.00     0.002 A 
HETATM   27  C   UNL     1       5.003  11.834   3.197  1.00  0.00     0.025 A 
ENDBRANCH   6  21
TORSDOF 6
ENDMDL
MODEL 7
REMARK VINA RESULT:    -5.856      2.669      3.643
REMARK INTER + INTRA:          -8.299
REMARK INTER:                  -7.617
REMARK INTRA:                  -0.682
REMARK UNBOUND:                -0.560
REMARK  6 active torsions:
REMARK  status: ('A' for Active; 'I' for Inactive)
REMARK    1  A    between atoms: S_2  and  N_5 
REMARK    2  A    between atoms: N_5  and  C_7 
REMARK    3  A    between atoms: C_8  and  C_9 
REMARK    4  A    between atoms: C_9  and  C_14 
REMARK    5  A    between atoms: N_11  and  C_13 
REMARK       I    between atoms: N_15  and  C_17 
REMARK       I    between atoms: C_17  and  N_19 
REMARK    6  A    between atoms: N_19  and  C_21 
ROOT
HETATM    1  C   UNL     1       3.896  -5.655  23.723  1.00  0.00     0.093 C 
HETATM    2  N   UNL     1       4.615  -5.197  22.793  1.00  0.00    -0.301 N 
ATOM      3  HN  UNL     1       4.628  -5.822  21.988  1.00  0.00     0.171 HD
HETATM    4  C   UNL     1       5.390  -4.074  22.574  1.00  0.00     0.325 C 
HETATM    5  O   UNL     1       5.298  -3.552  21.496  1.00  0.00    -0.247 OA
HETATM    6  N   UNL     1       6.257  -3.689  23.556  1.00  0.00    -0.310 N 
ATOM      7  HN  UNL     1       6.215  -4.108  24.486  1.00  0.00     0.170 HD
ENDROOT
BRANCH   1   8
HETATM    8  C   UNL     1       4.443  -6.036  24.920  1.00  0.00    -0.025 C 
HETATM    9  C   UNL     1       4.950  -6.503  25.798  1.00  0.00     0.028 C 
BRANCH   9  10
HETATM   10  N   UNL     1       5.593  -6.736  26.819  1.00  0.00    -0.229 N 
ATOM     11  HN  UNL     1       5.509  -7.659  27.244  1.00  0.00     0.190 HD
BRANCH  10  12
HETATM   12  S   UNL     1       6.567  -5.650  27.522  1.00  0.00     0.327 S 
HETATM   13 CL   UNL     1       7.868  -5.460  26.137  1.00  0.00     0.042 Cl
HETATM   14  O   UNL     1       5.960  -4.381  27.732  1.00  0.00    -0.188 OA
HETATM   15  O   UNL     1       7.260  -6.187  28.635  1.00  0.00    -0.188 OA
ENDBRANCH  10  12
ENDBRANCH   9  10
ENDBRANCH   1   8
BRANCH   1  16
HETATM   16  C   UNL     1       2.633  -5.721  23.379  1.00  0.00     0.055 C 
HETATM   17  C   UNL     1       1.868  -6.657  22.907  1.00  0.00     0.083 C 
BRANCH  17  18
HETATM   18  N   UNL     1       2.321  -7.866  23.114  1.00  0.00    -0.408 N 
HETATM   19  H   UNL     1       2.482  -8.355  22.240  1.00  0.00     0.155 HD
ATOM     20  HN  UNL     1       2.490  -8.267  24.038  1.00  0.00     0.155 HD
ENDBRANCH  17  18
ENDBRANCH   1  16
BRANCH   6  21
HETATM   21  C   UNL     1       7.122  -2.791  23.280  1.00  0.00     0.038 A 
HETATM   22  C   UNL     1       8.304  -2.707  22.704  1.00  0.00     0.153 A 
HETATM   23  N   UNL     1       9.314  -2.273  22.212  1.00  0.00    -0.400 N 
HETATM   24  C   UNL     1       8.900  -1.088  22.433  1.00  0.00     0.129 A 
ATOM     25  HN  UNL     1      10.149  -2.682  21.794  1.00  0.00     0.154 HD
HETATM   26  C   UNL     1       7.869  -0.663  22.989  1.00  0.00     0.002 A 
HETATM   27  C   UNL     1       6.881  -1.289  23.486  1.00  0.00     0.025 A 
ENDBRANCH   6  21
TORSDOF 6
ENDMDL
MODEL 8
REMARK VINA RESULT:    -5.799      3.170      4.392
REMARK INTER + INTRA:          -8.224
REMARK INTER:                  -7.358
REMARK INTRA:                  -0.867
REMARK UNBOUND:                -0.560
REMARK  6 active torsions:
REMARK  status: ('A' for Active; 'I' for Inactive)
REMARK    1  A    between atoms: S_2  and  N_5 
REMARK    2  A    between atoms: N_5  and  C_7 
REMARK    3  A    between atoms: C_8  and  C_9 
REMARK    4  A    between atoms: C_9  and  C_14 
REMARK    5  A    between atoms: N_11  and  C_13 
REMARK       I    between atoms: N_15  and  C_17 
REMARK       I    between atoms: C_17  and  N_19 
REMARK    6  A    between atoms: N_19  and  C_21 
ROOT
HETATM    1  C   UNL     1       6.283  -4.297  26.012  1.00  0.00     0.093 C 
HETATM    2  N   UNL     1       6.721  -3.116  25.963  1.00  0.00    -0.301 N 
ATOM      3  HN  UNL     1       6.102  -2.467  26.448  1.00  0.00     0.171 HD
HETATM    4  C   UNL     1       7.817  -2.466  25.429  1.00  0.00     0.325 C 
HETATM    5  O   UNL     1       8.349  -1.640  26.121  1.00  0.00    -0.247 OA
HETATM    6  N   UNL     1       8.163  -2.743  24.137  1.00  0.00    -0.310 N 
ATOM      7  HN  UNL     1       7.739  -3.525  23.638  1.00  0.00     0.170 HD
ENDROOT
BRANCH   1   8
HETATM    8  C   UNL     1       5.873  -4.949  24.877  1.00  0.00    -0.025 C 
HETATM    9  C   UNL     1       5.449  -5.314  23.912  1.00  0.00     0.028 C 
BRANCH   9  10
HETATM   10  N   UNL     1       5.251  -5.840  22.820  1.00  0.00    -0.229 N 
ATOM     11  HN  UNL     1       4.460  -6.475  22.724  1.00  0.00     0.190 HD
BRANCH  10  12
HETATM   12  S   UNL     1       6.185  -5.572  21.524  1.00  0.00     0.327 S 
HETATM   13 CL   UNL     1       6.045  -3.670  21.429  1.00  0.00     0.042 Cl
HETATM   14  O   UNL     1       7.554  -5.904  21.722  1.00  0.00    -0.188 OA
HETATM   15  O   UNL     1       5.605  -6.065  20.329  1.00  0.00    -0.188 OA
ENDBRANCH  10  12
ENDBRANCH   9  10
ENDBRANCH   1   8
BRANCH   1  16
HETATM   16  C   UNL     1       6.265  -4.764  27.236  1.00  0.00     0.055 C 
HETATM   17  C   UNL     1       6.948  -5.665  27.874  1.00  0.00     0.083 C 
BRANCH  17  18
HETATM   18  N   UNL     1       8.100  -5.946  27.323  1.00  0.00    -0.408 N 
HETATM   19  H   UNL     1       8.618  -5.103  27.100  1.00  0.00     0.155 HD
ATOM     20  HN  UNL     1       8.434  -6.893  27.141  1.00  0.00     0.155 HD
ENDBRANCH  17  18
ENDBRANCH   1  16
BRANCH   6  21
HETATM   21  C   UNL     1       9.031  -1.997  23.572  1.00  0.00     0.038 A 
HETATM   22  C   UNL     1      10.325  -2.008  23.322  1.00  0.00     0.153 A 
HETATM   23  N   UNL     1      11.415  -1.726  22.893  1.00  0.00    -0.400 N 
HETATM   24  C   UNL     1      10.905  -0.734  22.278  1.00  0.00     0.129 A 
ATOM     25  HN  UNL     1      12.352  -2.118  22.985  1.00  0.00     0.154 HD
HETATM   26  C   UNL     1       9.740  -0.293  22.243  1.00  0.00     0.002 A 
HETATM   27  C   UNL     1       8.678  -0.722  22.792  1.00  0.00     0.025 A 
ENDBRANCH   6  21
TORSDOF 6
ENDMDL
MODEL 9
REMARK VINA RESULT:    -5.649      2.975      4.094
REMARK INTER + INTRA:          -8.026
REMARK INTER:                  -7.585
REMARK INTRA:                  -0.441
REMARK UNBOUND:                -0.560
REMARK  6 active torsions:
REMARK  status: ('A' for Active; 'I' for Inactive)
REMARK    1  A    between atoms: S_2  and  N_5 
REMARK    2  A    between atoms: N_5  and  C_7 
REMARK    3  A    between atoms: C_8  and  C_9 
REMARK    4  A    between atoms: C_9  and  C_14 
REMARK    5  A    between atoms: N_11  and  C_13 
REMARK       I    between atoms: N_15  and  C_17 
REMARK       I    between atoms: C_17  and  N_19 
REMARK    6  A    between atoms: N_19  and  C_21 
ROOT
HETATM    1  C   UNL     1       7.937  -3.688  25.714  1.00  0.00     0.093 C 
HETATM    2  N   UNL     1       8.030  -2.512  26.163  1.00  0.00    -0.301 N 
ATOM      3  HN  UNL     1       7.284  -2.305  26.825  1.00  0.00     0.171 HD
HETATM    4  C   UNL     1       8.874  -1.431  25.997  1.00  0.00     0.325 C 
HETATM    5  O   UNL     1       9.195  -0.835  26.990  1.00  0.00    -0.247 OA
HETATM    6  N   UNL     1       9.212  -1.068  24.725  1.00  0.00    -0.310 N 
ATOM      7  HN  UNL     1       8.994  -1.672  23.932  1.00  0.00     0.170 HD
ENDROOT
BRANCH   1   8
HETATM    8  C   UNL     1       7.662  -3.922  24.391  1.00  0.00    -0.025 C 
HETATM    9  C   UNL     1       7.606  -4.022  23.281  1.00  0.00     0.028 C 
BRANCH   9  10
HETATM   10  N   UNL     1       7.443  -4.404  22.126  1.00  0.00    -0.229 N 
ATOM     11  HN  UNL     1       8.005  -3.978  21.390  1.00  0.00     0.190 HD
BRANCH  10  12
HETATM   12  S   UNL     1       6.378  -5.552  21.712  1.00  0.00     0.327 S 
HETATM   13 CL   UNL     1       4.916  -5.035  22.827  1.00  0.00     0.042 Cl
HETATM   14  O   UNL     1       5.947  -5.479  20.359  1.00  0.00    -0.188 OA
HETATM   15  O   UNL     1       6.770  -6.839  22.158  1.00  0.00    -0.188 OA
ENDBRANCH  10  12
ENDBRANCH   9  10
ENDBRANCH   1   8
BRANCH   1  16
HETATM   16  C   UNL     1       8.116  -4.586  26.650  1.00  0.00     0.055 C 
HETATM   17  C   UNL     1       7.320  -5.299  27.388  1.00  0.00     0.083 C 
BRANCH  17  18
HETATM   18  N   UNL     1       6.112  -5.417  26.903  1.00  0.00    -0.408 N 
HETATM   19  H   UNL     1       5.437  -4.910  27.466  1.00  0.00     0.155 HD
ATOM     20  HN  UNL     1       5.877  -5.952  26.066  1.00  0.00     0.155 HD
ENDBRANCH  17  18
ENDBRANCH   1  16
BRANCH   6  21
HETATM   21  C   UNL     1       9.810   0.048  24.554  1.00  0.00     0.038 A 
HETATM   22  C   UNL     1      11.030   0.485  24.319  1.00  0.00     0.153 A 
HETATM   23  N   UNL     1      11.965   1.198  24.059  1.00  0.00    -0.400 N 
HETATM   24  C   UNL     1      11.169   2.189  23.964  1.00  0.00     0.129 A 
ATOM     25  HN  UNL     1      12.971   1.065  23.958  1.00  0.00     0.154 HD
HETATM   26  C   UNL     1       9.939   2.280  24.139  1.00  0.00     0.002 A 
HETATM   27  C   UNL     1       9.080   1.394  24.440  1.00  0.00     0.025 A 
ENDBRANCH   6  21
TORSDOF 6
ENDMDL
