stable:False satoms:10 tatoms:24 sratio:0.4166666666666667
  -OEChem-08062416363D

 45 46  0     1  0  0  0  0  0999 V2000
    6.3742   -5.0796   26.3514 C   0  0  0  0  0  0  0  0  0  0  0  0
    8.0436   -4.4802   26.0752 S   0  0  0  0  0  0  0  0  0  0  0  0
    8.9199   -5.6291   26.0539 O   0  0  0  0  0  0  0  0  0  0  0  0
    8.3390   -3.6210   27.1826 O   0  0  0  0  0  0  0  0  0  0  0  0
    8.0247   -3.6658   24.6551 N   0  0  0  0  0  0  0  0  0  0  0  0
    8.8989   -2.9882   24.2272 C   0  0  0  0  0  0  0  0  0  0  0  0
    9.3777   -1.9700   23.6528 C   0  0  0  0  0  0  0  0  0  0  0  0
   10.2872   -1.0920   23.5588 C   0  0  1  0  0  0  0  0  0  0  0  0
   10.8755   -0.0789   24.6427 C   0  0  0  0  0  0  0  0  0  0  0  0
   11.9299    0.2951   24.7096 C   0  0  0  0  0  0  0  0  0  0  0  0
   13.0783   -0.1702   23.9106 C   0  0  0  0  0  0  0  0  0  0  0  0
   12.7019   -1.1753   23.1016 C   0  0  0  0  0  0  0  0  0  0  0  0
   11.7819   -1.6969   22.8604 C   0  0  0  0  0  0  0  0  0  0  0  0
    9.7280   -0.5047   22.5817 C   0  0  0  0  0  0  0  0  0  0  0  0
    9.0991    0.0996   21.6249 C   0  0  0  0  0  0  0  0  0  0  0  0
    9.5650    1.0969   21.2988 O   0  0  0  0  0  0  0  0  0  0  0  0
    8.0292   -0.5336   21.1734 N   0  0  0  0  0  0  0  0  0  0  0  0
    7.3579   -0.0716   20.2446 C   0  0  0  0  0  0  0  0  0  0  0  0
    7.4438    0.0924   18.9687 C   0  0  0  0  0  0  0  0  0  0  0  0
    7.0512    0.4980   17.8558 N   0  0  0  0  0  0  0  0  0  0  0  0
    5.9064    1.0082   18.2920 C   0  0  0  0  0  0  0  0  0  0  0  0
    5.4056    1.0425   19.4259 C   0  0  0  0  0  0  0  0  0  0  0  0
    5.8909    0.6060   20.5812 C   0  0  0  0  0  0  0  0  0  0  0  0
    5.3797    0.6301   21.8717 C   0  0  0  0  0  0  0  0  0  0  0  0
    6.3362   -5.6365   27.2993 H   0  0  0  0  0  0  0  0  0  0  0  0
    5.6817   -4.2263   26.3996 H   0  0  0  0  0  0  0  0  0  0  0  0
    6.0815   -5.7431   25.5244 H   0  0  0  0  0  0  0  0  0  0  0  0
    7.2288   -3.0628   24.7096 H   0  0  0  0  0  0  0  0  0  0  0  0
    9.7814   -3.5662   24.4587 H   0  0  0  0  0  0  0  0  0  0  0  0
    8.6771   -1.7353   22.8651 H   0  0  0  0  0  0  0  0  0  0  0  0
   10.1854    0.2842   25.3899 H   0  0  0  0  0  0  0  0  0  0  0  0
   12.1241    1.0744   25.4316 H   0  0  0  0  0  0  0  0  0  0  0  0
   14.0769    0.2374   23.9672 H   0  0  0  0  0  0  0  0  0  0  0  0
   13.5383   -1.5685   22.5428 H   0  0  0  0  0  0  0  0  0  0  0  0
   11.6671   -1.6699   21.7667 H   0  0  0  0  0  0  0  0  0  0  0  0
   11.8998   -2.7394   23.1910 H   0  0  0  0  0  0  0  0  0  0  0  0
    9.9698   -1.3456   21.9152 H   0  0  0  0  0  0  0  0  0  0  0  0
   10.5377    0.2388   22.5426 H   0  0  0  0  0  0  0  0  0  0  0  0
    7.7591   -1.4013   21.5908 H   0  0  0  0  0  0  0  0  0  0  0  0
    8.3786   -0.3926   18.7289 H   0  0  0  0  0  0  0  0  0  0  0  0
    5.3059    1.4752   17.5254 H   0  0  0  0  0  0  0  0  0  0  0  0
    4.4269    1.4959   19.4815 H   0  0  0  0  0  0  0  0  0  0  0  0
    4.7893   -0.2808   22.0499 H   0  0  0  0  0  0  0  0  0  0  0  0
    6.2085    0.6767   22.5935 H   0  0  0  0  0  0  0  0  0  0  0  0
    4.7362    1.5138   21.9946 H   0  0  0  0  0  0  0  0  0  0  0  0
 20 21  2  0  0  0  0
 19 20  1  0  0  0  0
 21 22  1  0  0  0  0
 18 19  2  0  0  0  0
 22 23  2  0  0  0  0
 18 23  1  0  0  0  0
 17 18  1  0  0  0  0
 23 24  1  0  0  0  0
 15 16  2  0  0  0  0
 15 17  1  0  0  0  0
 14 15  1  0  0  0  0
  8 14  1  0  0  0  0
 12 13  1  0  0  0  0
  8 13  1  0  0  0  0
 11 12  2  0  0  0  0
  7  8  1  0  0  0  0
  8  9  1  0  0  0  0
 10 11  1  0  0  0  0
  6  7  2  3  0  0  0
  5  6  1  0  0  0  0
  9 10  2  0  0  0  0
  2  5  1  0  0  0  0
  2  3  2  0  0  0  0
  1  2  1  0  0  0  0
  2  4  2  0  0  0  0
  1 25  1  0  0  0  0
  1 26  1  0  0  0  0
  1 27  1  0  0  0  0
  5 28  1  0  0  0  0
  6 29  1  0  0  0  0
  7 30  1  0  0  0  0
  9 31  1  0  0  0  0
 10 32  1  0  0  0  0
 11 33  1  0  0  0  0
 12 34  1  0  0  0  0
 13 35  1  0  0  0  0
 13 36  1  0  0  0  0
 14 37  1  0  0  0  0
 14 38  1  0  0  0  0
 17 39  1  0  0  0  0
 19 40  1  0  0  0  0
 21 41  1  0  0  0  0
 22 42  1  0  0  0  0
 24 43  1  0  0  0  0
 24 44  1  0  0  0  0
 24 45  1  0  0  0  0
M  END
> <Chemgauss4>
-13.097730

$$$$
