stable:False satoms:10 tatoms:24 sratio:0.4166666666666667
  -OEChem-08062416363D

 45 46  0     1  0  0  0  0  0999 V2000
   -6.5701   -5.1277  -26.2779 C   0  0  0  0  0  0  0  0  0  0  0  0
   -8.2395   -4.5284  -26.0016 S   0  0  0  0  0  0  0  0  0  0  0  0
   -9.1159   -5.6773  -25.9804 O   0  0  0  0  0  0  0  0  0  0  0  0
   -8.5349   -3.6692  -27.1090 O   0  0  0  0  0  0  0  0  0  0  0  0
   -8.2206   -3.7140  -24.5815 N   0  0  0  0  0  0  0  0  0  0  0  0
   -9.0948   -3.0364  -24.1537 C   0  0  0  0  0  0  0  0  0  0  0  0
   -9.5736   -2.0182  -23.5793 C   0  0  0  0  0  0  0  0  0  0  0  0
  -10.4831   -1.1402  -23.4853 C   0  0  1  0  0  0  0  0  0  0  0  0
  -11.0714   -0.1271  -24.5692 C   0  0  0  0  0  0  0  0  0  0  0  0
  -12.1258    0.2469  -24.6360 C   0  0  0  0  0  0  0  0  0  0  0  0
  -13.2743   -0.2184  -23.8371 C   0  0  0  0  0  0  0  0  0  0  0  0
  -12.8978   -1.2235  -23.0280 C   0  0  0  0  0  0  0  0  0  0  0  0
  -11.9778   -1.7451  -22.7868 C   0  0  0  0  0  0  0  0  0  0  0  0
   -9.9239   -0.5529  -22.5081 C   0  0  0  0  0  0  0  0  0  0  0  0
   -9.2950    0.0514  -21.5514 C   0  0  0  0  0  0  0  0  0  0  0  0
   -9.7609    1.0487  -21.2252 O   0  0  0  0  0  0  0  0  0  0  0  0
   -8.2251   -0.5818  -21.0998 N   0  0  0  0  0  0  0  0  0  0  0  0
   -7.5538   -0.1198  -20.1711 C   0  0  0  0  0  0  0  0  0  0  0  0
   -7.6397    0.0442  -18.8951 C   0  0  0  0  0  0  0  0  0  0  0  0
   -7.2471    0.4498  -17.7822 N   0  0  0  0  0  0  0  0  0  0  0  0
   -6.1023    0.9600  -18.2185 C   0  0  0  0  0  0  0  0  0  0  0  0
   -5.6015    0.9943  -19.3523 C   0  0  0  0  0  0  0  0  0  0  0  0
   -6.0868    0.5578  -20.5076 C   0  0  0  0  0  0  0  0  0  0  0  0
   -5.5756    0.5819  -21.7981 C   0  0  0  0  0  0  0  0  0  0  0  0
   -6.5321   -5.6846  -27.2257 H   0  0  0  0  0  0  0  0  0  0  0  0
   -5.8776   -4.2745  -26.3260 H   0  0  0  0  0  0  0  0  0  0  0  0
   -6.2774   -5.7913  -25.4509 H   0  0  0  0  0  0  0  0  0  0  0  0
   -7.4247   -3.1110  -24.6360 H   0  0  0  0  0  0  0  0  0  0  0  0
   -9.9773   -3.6144  -24.3852 H   0  0  0  0  0  0  0  0  0  0  0  0
   -8.8730   -1.7835  -22.7916 H   0  0  0  0  0  0  0  0  0  0  0  0
  -10.3813    0.2360  -25.3163 H   0  0  0  0  0  0  0  0  0  0  0  0
  -12.3200    1.0262  -25.3581 H   0  0  0  0  0  0  0  0  0  0  0  0
  -14.2728    0.1892  -23.8937 H   0  0  0  0  0  0  0  0  0  0  0  0
  -13.7342   -1.6167  -22.4693 H   0  0  0  0  0  0  0  0  0  0  0  0
  -11.8630   -1.7181  -21.6931 H   0  0  0  0  0  0  0  0  0  0  0  0
  -12.0958   -2.7875  -23.1175 H   0  0  0  0  0  0  0  0  0  0  0  0
  -10.1657   -1.3938  -21.8416 H   0  0  0  0  0  0  0  0  0  0  0  0
  -10.7337    0.1906  -22.4690 H   0  0  0  0  0  0  0  0  0  0  0  0
   -7.9550   -1.4494  -21.5172 H   0  0  0  0  0  0  0  0  0  0  0  0
   -8.5745   -0.4407  -18.6553 H   0  0  0  0  0  0  0  0  0  0  0  0
   -5.5018    1.4270  -17.4518 H   0  0  0  0  0  0  0  0  0  0  0  0
   -4.6228    1.4477  -19.4079 H   0  0  0  0  0  0  0  0  0  0  0  0
   -4.9852   -0.3290  -21.9763 H   0  0  0  0  0  0  0  0  0  0  0  0
   -6.4044    0.6286  -22.5199 H   0  0  0  0  0  0  0  0  0  0  0  0
   -4.9321    1.4656  -21.9211 H   0  0  0  0  0  0  0  0  0  0  0  0
 20 21  2  0  0  0  0
 19 20  1  0  0  0  0
 21 22  1  0  0  0  0
 18 19  2  0  0  0  0
 22 23  2  0  0  0  0
 18 23  1  0  0  0  0
 17 18  1  0  0  0  0
 23 24  1  0  0  0  0
 15 16  2  0  0  0  0
 15 17  1  0  0  0  0
 14 15  1  0  0  0  0
  8 14  1  0  0  0  0
 12 13  1  0  0  0  0
  8 13  1  0  0  0  0
 11 12  2  0  0  0  0
  7  8  1  0  0  0  0
  8  9  1  0  0  0  0
 10 11  1  0  0  0  0
  6  7  2  3  0  0  0
  5  6  1  0  0  0  0
  9 10  2  0  0  0  0
  2  5  1  0  0  0  0
  2  3  2  0  0  0  0
  1  2  1  0  0  0  0
  2  4  2  0  0  0  0
  1 25  1  0  0  0  0
  1 26  1  0  0  0  0
  1 27  1  0  0  0  0
  5 28  1  0  0  0  0
  6 29  1  0  0  0  0
  7 30  1  0  0  0  0
  9 31  1  0  0  0  0
 10 32  1  0  0  0  0
 11 33  1  0  0  0  0
 12 34  1  0  0  0  0
 13 35  1  0  0  0  0
 13 36  1  0  0  0  0
 14 37  1  0  0  0  0
 14 38  1  0  0  0  0
 17 39  1  0  0  0  0
 19 40  1  0  0  0  0
 21 41  1  0  0  0  0
 22 42  1  0  0  0  0
 24 43  1  0  0  0  0
 24 44  1  0  0  0  0
 24 45  1  0  0  0  0
M  END
> <Chemgauss4>
-13.106847

$$$$
