stable:False satoms:18 tatoms:24 sratio:0.75
  -OEChem-07092417373D

 24 23  0     1  0  0  0  0  0999 V2000
    7.0032   -4.6575   26.1863 H   0  0  0  0  0  0  0  0  0  0  0  0
    8.1013   -4.4059   26.1586 C   0  0  0  0  0  0  0  0  0  0  0  0
    8.6741   -5.3524   26.1027 H   0  0  0  0  0  0  0  0  0  0  0  0
    8.3460   -3.8600   27.0823 H   0  0  0  0  0  0  0  0  0  0  0  0
    8.5542   -3.5953   25.0733 C   0  0  0  0  0  0  0  0  0  0  0  0
    9.1593   -3.0331   24.3399 O   0  0  0  0  0  0  0  0  0  0  0  0
    9.7823   -0.5132   23.1520 C   0  5  2  0  0  0  0  0  0  0  0  0
   10.8691   -1.3392   23.0661 C   0  0  0  0  0  0  0  0  0  0  0  0
    9.7968    0.1361   24.0416 H   0  0  0  0  0  0  0  0  0  0  0  0
   12.2278    0.2587   23.7504 H   0  0  0  0  0  0  0  0  0  0  0  0
   12.0917   -0.4310   22.9173 C   0  0  0  0  0  0  0  0  0  0  0  0
   12.9815   -1.0535   22.7679 H   0  0  0  0  0  0  0  0  0  0  0  0
   11.0486   -2.5475   22.9668 O   0  0  0  0  0  0  0  0  0  0  0  0
   11.7435    0.0823   22.0056 H   0  0  0  0  0  0  0  0  0  0  0  0
    9.0101    0.0035   21.8717 C   0  0  0  0  0  0  0  0  0  0  0  0
    9.6530    0.7956   21.2709 O   0  0  0  0  0  0  0  0  0  0  0  0
    7.7521   -0.3925   21.4109 N   0  0  0  0  0  0  0  0  0  0  0  0
    7.0084    0.0206   20.3331 C   0  0  0  0  0  0  0  0  0  0  0  0
    7.4164   -0.1042   19.0850 N   0  0  0  0  0  0  0  0  0  0  0  0
    6.7598    0.1452   18.0134 N   0  0  0  0  0  0  0  0  0  0  0  0
    5.7464    0.6119   18.4412 C   0  0  0  0  0  0  0  0  0  0  0  0
    5.0339    0.8733   19.3804 N   0  0  0  0  0  0  0  0  0  0  0  0
    5.6656    0.4965   20.4581 C   0  0  0  0  0  0  0  0  0  0  0  0
    5.1591    0.5716   21.4210 H   0  0  0  0  0  0  0  0  0  0  0  0
 20 21  2  0  0  0  0
 19 20  1  0  0  0  0
 21 22  1  0  0  0  0
 18 19  2  0  0  0  0
 22 23  2  0  0  0  0
 18 23  1  0  0  0  0
 17 18  1  0  0  0  0
 23 24  1  0  0  0  0
 15 16  2  0  0  0  0
 15 17  1  0  0  0  0
  7 15  1  0  0  0  0
 11 14  1  0  0  0  0
 11 12  1  0  0  0  0
  8 11  1  0  0  0  0
 10 11  1  0  0  0  0
  8 13  2  0  0  0  0
  7  8  1  0  0  0  0
  7  9  1  0  0  0  0
  5  6  1  0  0  0  0
  2  5  1  0  0  0  0
  2  3  1  0  0  0  0
  1  2  1  0  0  0  0
  2  4  1  0  0  0  0
M  CHG  1   7  -1
M  END
> <Shapegauss>
-191.706833

$$$$
