REMARK  6 active torsions:
REMARK  status: ('A' for Active; 'I' for Inactive)
REMARK    1  A    between atoms: S_2  and  N_5 
REMARK    2  A    between atoms: N_5  and  C_7 
REMARK    3  A    between atoms: C_8  and  C_9 
REMARK    4  A    between atoms: C_9  and  C_15 
REMARK    5  A    between atoms: C_15  and  C_16 
REMARK       I    between atoms: C_16  and  N_18 
REMARK    6  A    between atoms: N_18  and  C_20 
ROOT
HETATM    1  C   UNL     1      10.317  -1.118  23.271  1.00  0.00     0.076 C 
HETATM    2  C   UNL     1      11.013   0.019  24.289  1.00  0.00     0.003 C 
HETATM    3  C   UNL     1      12.070   0.320  24.251  1.00  0.00    -0.002 C 
HETATM    4  C   UNL     1      13.155  -0.210  23.418  1.00  0.00    -0.001 C 
HETATM    5  C   UNL     1      12.757  -1.220  22.673  1.00  0.00    -0.002 C 
HETATM    6  C   UNL     1      11.809  -1.738  22.505  1.00  0.00     0.003 C 
ENDROOT
BRANCH   1   7
HETATM    7  C   UNL     1       9.443  -1.956  23.511  1.00  0.00     0.021 C 
HETATM    8  C   UNL     1       8.991  -2.924  24.177  1.00  0.00     0.098 C 
BRANCH   8   9
HETATM    9  N   UNL     1       8.111  -3.572  24.689  1.00  0.00    -0.296 N 
ATOM     10  HN  UNL     1       7.237  -3.656  24.170  1.00  0.00     0.177 HD
BRANCH   9  11
HETATM   11  S   UNL     1       8.186  -4.317  26.115  1.00  0.00     0.226 S 
HETATM   12  C   UNL     1       6.596  -4.829  26.462  1.00  0.00     0.186 C 
HETATM   13  O   UNL     1       9.060  -5.485  26.046  1.00  0.00    -0.206 OA
HETATM   14  O   UNL     1       8.607  -3.437  27.178  1.00  0.00    -0.206 OA
ENDBRANCH   9  11
ENDBRANCH   8   9
ENDBRANCH   1   7
BRANCH   1  15
HETATM   15  C   UNL     1       9.721  -0.587  22.350  1.00  0.00    -0.061 C 
BRANCH  15  16
HETATM   16  C   UNL     1       9.052   0.036  21.394  1.00  0.00     0.290 C 
HETATM   17  O   UNL     1       9.524   1.009  21.004  1.00  0.00    -0.259 OA
HETATM   18  N   UNL     1       7.912  -0.577  21.104  1.00  0.00    -0.315 N 
ATOM     19  HN  UNL     1       7.618  -1.404  21.623  1.00  0.00     0.170 HD
BRANCH  18  20
HETATM   20  C   UNL     1       7.197  -0.113  20.169  1.00  0.00     0.057 A 
HETATM   21  C   UNL     1       7.260  -0.038  18.877  1.00  0.00     0.117 A 
HETATM   22  N   UNL     1       6.775   0.300  17.776  1.00  0.00    -0.373 N 
HETATM   23  C   UNL     1       5.660   0.879  18.208  1.00  0.00     0.088 A 
ATOM     24  HN  UNL     1       7.129   0.170  16.828  1.00  0.00     0.164 HD
HETATM   25  C   UNL     1       5.265   0.982  19.355  1.00  0.00     0.026 A 
HETATM   26  C   UNL     1       5.812   0.565  20.513  1.00  0.00    -0.033 A 
HETATM   27  C   UNL     1       5.292   0.721  21.963  1.00  0.00     0.050 C 
ENDBRANCH  18  20
ENDBRANCH  15  16
ENDBRANCH   1  15
TORSDOF 6
