stable:False satoms:14 tatoms:24 sratio:0.5833333333333334
  -OEChem-07092417373D

 24 24  0     0  0  0  0  0  0999 V2000
    7.1709   -4.6040   26.2340 H   0  0  0  0  0  0  0  0  0  0  0  0
    8.2132   -4.2924   25.9983 C   0  0  0  0  0  0  0  0  0  0  0  0
    8.8377   -5.2076   26.0157 H   0  0  0  0  0  0  0  0  0  0  0  0
    8.5790   -3.6207   26.7999 H   0  0  0  0  0  0  0  0  0  0  0  0
    8.2341   -3.6397   24.7357 N   0  0  0  0  0  0  0  0  0  0  0  0
    9.1036   -3.0114   24.1476 N   0  0  0  0  0  0  0  0  0  0  0  0
    8.8582   -2.0299   23.3439 N   0  0  0  0  0  0  0  0  0  0  0  0
   10.6361   -0.9913   23.4765 C   0  0  0  0  0  0  0  0  0  0  0  0
   10.7526   -0.5422   24.4576 H   0  0  0  0  0  0  0  0  0  0  0  0
   12.5835    0.4997   24.1400 H   0  0  0  0  0  0  0  0  0  0  0  0
   13.1751    0.1063   23.4639 N   0  5  0  0  0  0  0  0  0  0  0  0
   12.8677   -0.8349   23.0287 C   0  0  0  0  0  0  0  0  0  0  0  0
   11.8452   -1.2862   23.0288 C   0  0  0  0  0  0  0  0  0  0  0  0
    9.5205   -1.1191   22.7881 C   0  0  0  0  0  0  0  0  0  0  0  0
    9.0624   -0.2549   21.5633 C   0  0  0  0  0  0  0  0  0  0  0  0
    9.5900    0.8026   21.3501 O   0  0  0  0  0  0  0  0  0  0  0  0
    8.0999   -0.7575   20.7923 N   0  0  0  0  0  0  0  0  0  0  0  0
    7.1002   -0.1114   20.2134 C   0  0  0  0  0  0  0  0  0  0  0  0
    6.7576    0.2040   18.9613 C   0  0  0  0  0  0  0  0  0  0  0  0
    7.2531    0.1133   18.0103 H   0  0  0  0  0  0  0  0  0  0  0  0
    4.8827    1.1533   18.2567 H   0  0  0  0  0  0  0  0  0  0  0  0
    5.0348    0.9423   20.2808 N   0  0  0  0  0  0  0  0  0  0  0  0
    5.4742    0.8016   19.1268 C   0  0  0  0  0  0  0  0  0  0  0  0
    5.9518    0.3902   21.0831 O   0  0  0  0  0  0  0  0  0  0  0  0
 19 20  1  0  0  0  0
 21 23  1  0  0  0  0
 19 23  1  0  0  0  0
 18 19  2  0  0  0  0
 22 23  2  0  0  0  0
 17 18  1  0  0  0  0
 18 24  1  0  0  0  0
 22 24  1  0  0  0  0
 15 17  1  0  0  0  0
 15 16  2  0  0  0  0
 14 15  1  0  0  0  0
  7 14  1  0  0  0  0
  8 14  2  3  0  0  0
 12 13  2  0  0  0  0
 11 12  1  0  0  0  0
  8 13  1  0  0  0  0
  6  7  1  0  0  0  0
 10 11  1  0  0  0  0
  8  9  1  0  0  0  0
  5  6  2  3  0  0  0
  2  5  1  0  0  0  0
  2  3  1  0  0  0  0
  1  2  1  0  0  0  0
  2  4  1  0  0  0  0
M  CHG  1  11  -1
M  END
> <Shapegauss>
-196.214539

$$$$
