
 OpenBabel07202414163D

 49 52  0  0  0  0  0  0  0  0999 V2000
   -2.1278   -0.1631    0.1246 Cl  0  0  0  0  0  0  0  0  0  0  0  0
   -0.4093   -0.0919    0.0522 C   0  0  0  0  0  0  0  0  0  0  0  0
    0.2256    1.1491    0.0235 C   0  0  0  0  0  0  0  0  0  0  0  0
    1.6199    1.2140   -0.0636 C   0  0  0  0  0  0  0  0  0  0  0  0
    2.3267    2.5470   -0.1107 C   0  0  0  0  0  0  0  0  0  0  0  0
    3.2845    2.7564    1.0522 C   0  0  0  0  0  0  0  0  0  0  0  0
    2.9805    2.4864    2.2102 O   0  0  0  0  0  0  0  0  0  0  0  0
    4.4842    3.3340    0.6694 N   0  0  0  0  0  0  0  0  0  0  0  0
    5.5346    3.6032    1.5831 C   0  0  0  0  0  0  0  0  0  0  0  0
    5.8556    2.7038    2.6005 C   0  0  0  0  0  0  0  0  0  0  0  0
    6.8710    2.8722    3.4778 N   0  0  0  0  0  0  0  0  0  0  0  0
    7.5773    4.0155    3.3550 C   0  0  0  0  0  0  0  0  0  0  0  0
    7.3454    4.9998    2.4008 C   0  0  0  0  0  0  0  0  0  0  0  0
    8.0926    6.1891    2.3676 C   0  0  0  0  0  0  0  0  0  0  0  0
    7.8190    7.1830    1.4329 C   0  0  0  0  0  0  0  0  0  0  0  0
    6.8031    6.9964    0.5054 C   0  0  0  0  0  0  0  0  0  0  0  0
    6.0574    5.8181    0.5170 C   0  0  0  0  0  0  0  0  0  0  0  0
    6.3066    4.7875    1.4631 C   0  0  0  0  0  0  0  0  0  0  0  0
    2.3519    0.0159   -0.1107 C   0  0  0  0  0  0  0  0  0  0  0  0
    1.7251   -1.2353   -0.0346 C   0  0  0  0  0  0  0  0  0  0  0  0
    2.5379   -2.3734   -0.0696 N   0  0  0  0  0  0  0  0  0  0  0  0
    2.0276   -3.6217    0.4819 C   0  0  0  0  0  0  0  0  0  0  0  0
    3.1856   -4.5264    0.8395 C   0  0  0  0  0  0  0  0  0  0  0  0
    4.1703   -4.0855    1.7403 C   0  0  0  0  0  0  0  0  0  0  0  0
    5.2172   -4.9258    2.1232 C   0  0  0  0  0  0  0  0  0  0  0  0
    5.2829   -6.2182    1.6096 C   0  0  0  0  0  0  0  0  0  0  0  0
    6.6897   -7.3660    2.1372 Br  0  0  0  0  0  0  0  0  0  0  0  0
    4.3175   -6.6749    0.7149 C   0  0  0  0  0  0  0  0  0  0  0  0
    3.2692   -5.8300    0.3314 C   0  0  0  0  0  0  0  0  0  0  0  0
    0.3298   -1.2739    0.0144 C   0  0  0  0  0  0  0  0  0  0  0  0
   -0.3681    2.0596    0.0748 H   0  0  0  0  0  0  0  0  0  0  0  0
    1.6042    3.3731   -0.0830 H   0  0  0  0  0  0  0  0  0  0  0  0
    2.8550    2.6227   -1.0683 H   0  0  0  0  0  0  0  0  0  0  0  0
    4.5020    3.8196   -0.2156 H   0  0  0  0  0  0  0  0  0  0  0  0
    5.3116    1.7716    2.7252 H   0  0  0  0  0  0  0  0  0  0  0  0
    8.3682    4.1262    4.0983 H   0  0  0  0  0  0  0  0  0  0  0  0
    8.8884    6.3589    3.0985 H   0  0  0  0  0  0  0  0  0  0  0  0
    8.3932    8.1093    1.4341 H   0  0  0  0  0  0  0  0  0  0  0  0
    6.5743    7.7760   -0.2165 H   0  0  0  0  0  0  0  0  0  0  0  0
    5.2517    5.7324   -0.2065 H   0  0  0  0  0  0  0  0  0  0  0  0
    3.4397    0.0499   -0.1612 H   0  0  0  0  0  0  0  0  0  0  0  0
    2.9371   -2.5057   -0.9963 H   0  0  0  0  0  0  0  0  0  0  0  0
    1.3687   -4.1079   -0.2466 H   0  0  0  0  0  0  0  0  0  0  0  0
    1.4522   -3.4504    1.4009 H   0  0  0  0  0  0  0  0  0  0  0  0
    4.1174   -3.0761    2.1481 H   0  0  0  0  0  0  0  0  0  0  0  0
    5.9653   -4.5638    2.8228 H   0  0  0  0  0  0  0  0  0  0  0  0
    4.3645   -7.6840    0.3170 H   0  0  0  0  0  0  0  0  0  0  0  0
    2.5162   -6.2041   -0.3590 H   0  0  0  0  0  0  0  0  0  0  0  0
   -0.2021   -2.2219    0.0257 H   0  0  0  0  0  0  0  0  0  0  0  0
  1  2  1  0  0  0  0
  2  3  2  0  0  0  0
  2 30  1  0  0  0  0
  3  4  1  0  0  0  0
  3 31  1  0  0  0  0
  4  5  1  0  0  0  0
  4 19  2  0  0  0  0
  5  6  1  0  0  0  0
  5 32  1  0  0  0  0
  5 33  1  0  0  0  0
  6  7  2  0  0  0  0
  6  8  1  0  0  0  0
  8  9  1  0  0  0  0
  8 34  1  0  0  0  0
  9 10  2  0  0  0  0
  9 18  1  0  0  0  0
 10 11  1  0  0  0  0
 10 35  1  0  0  0  0
 11 12  2  0  0  0  0
 12 13  1  0  0  0  0
 12 36  1  0  0  0  0
 13 14  2  0  0  0  0
 13 18  1  0  0  0  0
 14 15  1  0  0  0  0
 14 37  1  0  0  0  0
 15 16  2  0  0  0  0
 15 38  1  0  0  0  0
 16 17  1  0  0  0  0
 16 39  1  0  0  0  0
 17 18  2  0  0  0  0
 17 40  1  0  0  0  0
 19 20  1  0  0  0  0
 19 41  1  0  0  0  0
 20 21  1  0  0  0  0
 20 30  2  0  0  0  0
 21 22  1  0  0  0  0
 21 42  1  0  0  0  0
 22 23  1  0  0  0  0
 22 43  1  0  0  0  0
 22 44  1  0  0  0  0
 23 24  2  0  0  0  0
 23 29  1  0  0  0  0
 24 25  1  0  0  0  0
 24 45  1  0  0  0  0
 25 26  2  0  0  0  0
 25 46  1  0  0  0  0
 26 27  1  0  0  0  0
 26 28  1  0  0  0  0
 28 29  2  0  0  0  0
 28 47  1  0  0  0  0
 29 48  1  0  0  0  0
 30 49  1  0  0  0  0
M  END
$$$$
