stable:False satoms:8 tatoms:24 sratio:0.3333333333333333
  -OEChem-08062418033D

 45 46  0     1  0  0  0  0  0999 V2000
    5.9763   -5.2551   25.9039 C   0  0  0  0  0  0  0  0  0  0  0  0
    7.5936   -4.7121   25.7792 S   0  0  0  0  0  0  0  0  0  0  0  0
    8.4367   -5.8728   25.7185 O   0  0  0  0  0  0  0  0  0  0  0  0
    7.8879   -3.9372   26.9741 O   0  0  0  0  0  0  0  0  0  0  0  0
    7.7160   -3.8330   24.4296 N   0  0  0  0  0  0  0  0  0  0  0  0
    8.5957   -3.1783   24.0174 C   0  0  0  0  0  0  0  0  0  0  0  0
    9.1400   -2.1443   23.4952 C   0  0  0  0  0  0  0  0  0  0  0  0
   10.0354   -1.2819   23.4874 C   0  0  2  0  0  0  0  0  0  0  0  0
   10.6508   -0.2829   24.6701 C   0  0  0  0  0  0  0  0  0  0  0  0
   11.6866   -0.0074   24.7747 C   0  0  0  0  0  0  0  0  0  0  0  0
   12.8512   -0.4450   24.0685 C   0  0  0  0  0  0  0  0  0  0  0  0
   12.5031   -1.4949   23.1002 C   0  0  0  0  0  0  0  0  0  0  0  0
   11.6264   -1.8904   22.8339 C   0  0  0  0  0  0  0  0  0  0  0  0
    9.5551   -0.6867   22.5517 C   0  0  2  0  0  0  0  0  0  0  0  0
    9.0133    0.0220   21.5709 C   0  0  0  0  0  0  0  0  0  0  0  0
    9.5274    0.9988   21.3010 O   0  0  0  0  0  0  0  0  0  0  0  0
    7.9449   -0.5756   21.0811 N   0  0  0  0  0  0  0  0  0  0  0  0
    7.2991   -0.0194   20.1383 C   0  0  0  0  0  0  0  0  0  0  0  0
    7.5499    0.1733   18.8596 C   0  0  0  0  0  0  0  0  0  0  0  0
    7.1741    0.6373   17.7806 N   0  0  0  0  0  0  0  0  0  0  0  0
    5.9792    1.2025   18.1317 C   0  0  0  0  0  0  0  0  0  0  0  0
    5.4996    1.1434   19.2400 C   0  0  0  0  0  0  0  0  0  0  0  0
    5.8857    0.5968   20.4103 C   0  0  0  0  0  0  0  0  0  0  0  0
    5.2025    0.6065   21.7610 C   0  0  0  0  0  0  0  0  0  0  0  0
    5.8610   -5.8588   26.8163 H   0  0  0  0  0  0  0  0  0  0  0  0
    5.3011   -4.3880   25.9504 H   0  0  0  0  0  0  0  0  0  0  0  0
    5.7265   -5.8677   25.0251 H   0  0  0  0  0  0  0  0  0  0  0  0
    6.9491   -3.1940   24.4893 H   0  0  0  0  0  0  0  0  0  0  0  0
    9.4457   -3.8282   24.1641 H   0  0  0  0  0  0  0  0  0  0  0  0
   10.9414   -1.7816   23.1140 H   0  0  0  0  0  0  0  0  0  0  0  0
    9.9546    0.1212   25.3901 H   0  0  0  0  0  0  0  0  0  0  0  0
   11.8792    0.7247   25.5449 H   0  0  0  0  0  0  0  0  0  0  0  0
   13.5818   -0.8438   24.7876 H   0  0  0  0  0  0  0  0  0  0  0  0
   13.2920    0.4090   23.5334 H   0  0  0  0  0  0  0  0  0  0  0  0
   13.3521   -1.9155   22.5817 H   0  0  0  0  0  0  0  0  0  0  0  0
   11.5900   -2.6691   22.0864 H   0  0  0  0  0  0  0  0  0  0  0  0
   10.7141   -1.5397   23.2932 H   0  0  0  0  0  0  0  0  0  0  0  0
   10.1302   -1.2904   21.8342 H   0  0  0  0  0  0  0  0  0  0  0  0
    7.6460   -1.4568   21.4475 H   0  0  0  0  0  0  0  0  0  0  0  0
    8.5147   -0.2748   18.6729 H   0  0  0  0  0  0  0  0  0  0  0  0
    5.4289    1.7355   17.3704 H   0  0  0  0  0  0  0  0  0  0  0  0
    4.5441    1.6423   19.3079 H   0  0  0  0  0  0  0  0  0  0  0  0
    4.5708   -0.2886   21.8594 H   0  0  0  0  0  0  0  0  0  0  0  0
    5.9626    0.6079   22.5562 H   0  0  0  0  0  0  0  0  0  0  0  0
    4.5778    1.5075   21.8493 H   0  0  0  0  0  0  0  0  0  0  0  0
 20 21  2  0  0  0  0
 19 20  1  0  0  0  0
 21 22  1  0  0  0  0
 18 19  2  0  0  0  0
 22 23  2  0  0  0  0
 18 23  1  0  0  0  0
 17 18  1  0  0  0  0
 23 24  1  0  0  0  0
 15 16  2  0  0  0  0
 15 17  1  0  0  0  0
 14 15  1  0  0  0  0
  8 14  1  0  0  0  0
  7 14  1  0  0  0  0
 12 13  2  0  0  0  0
 11 12  1  0  0  0  0
  7  8  1  0  0  0  0
  8  9  1  0  0  0  0
 10 11  1  0  0  0  0
  6  7  2  3  0  0  0
  5  6  1  0  0  0  0
  9 10  2  0  0  0  0
  2  5  1  0  0  0  0
  2  3  2  0  0  0  0
  1  2  1  0  0  0  0
  2  4  2  0  0  0  0
  1 25  1  0  0  0  0
  1 26  1  0  0  0  0
  1 27  1  0  0  0  0
  5 28  1  0  0  0  0
  6 29  1  0  0  0  0
  8 30  1  0  0  0  0
  9 31  1  0  0  0  0
 10 32  1  0  0  0  0
 11 33  1  0  0  0  0
 11 34  1  0  0  0  0
 12 35  1  0  0  0  0
 13 36  1  0  0  0  0
 13 37  1  0  0  0  0
 14 38  1  0  0  0  0
 17 39  1  0  0  0  0
 19 40  1  0  0  0  0
 21 41  1  0  0  0  0
 22 42  1  0  0  0  0
 24 43  1  0  0  0  0
 24 44  1  0  0  0  0
 24 45  1  0  0  0  0
M  END
> <Chemgauss4>
-12.830677

$$$$
