stable:False satoms:8 tatoms:24 sratio:0.3333333333333333
  -OEChem-08062418033D

 45 46  0     1  0  0  0  0  0999 V2000
   -6.1356   -5.1986  -25.9203 C   0  0  0  0  0  0  0  0  0  0  0  0
   -7.7529   -4.6556  -25.7955 S   0  0  0  0  0  0  0  0  0  0  0  0
   -8.5959   -5.8162  -25.7348 O   0  0  0  0  0  0  0  0  0  0  0  0
   -8.0471   -3.8807  -26.9904 O   0  0  0  0  0  0  0  0  0  0  0  0
   -7.8753   -3.7764  -24.4459 N   0  0  0  0  0  0  0  0  0  0  0  0
   -8.7550   -3.1217  -24.0338 C   0  0  0  0  0  0  0  0  0  0  0  0
   -9.2993   -2.0877  -23.5115 C   0  0  0  0  0  0  0  0  0  0  0  0
  -10.1947   -1.2253  -23.5037 C   0  0  2  0  0  0  0  0  0  0  0  0
  -10.8100   -0.2263  -24.6864 C   0  0  0  0  0  0  0  0  0  0  0  0
  -11.8458    0.0491  -24.7910 C   0  0  0  0  0  0  0  0  0  0  0  0
  -13.0105   -0.3884  -24.0848 C   0  0  0  0  0  0  0  0  0  0  0  0
  -12.6624   -1.4384  -23.1165 C   0  0  0  0  0  0  0  0  0  0  0  0
  -11.7857   -1.8338  -22.8503 C   0  0  0  0  0  0  0  0  0  0  0  0
   -9.7143   -0.6302  -22.5680 C   0  0  2  0  0  0  0  0  0  0  0  0
   -9.1725    0.0786  -21.5873 C   0  0  0  0  0  0  0  0  0  0  0  0
   -9.6866    1.0554  -21.3173 O   0  0  0  0  0  0  0  0  0  0  0  0
   -8.1042   -0.5190  -21.0975 N   0  0  0  0  0  0  0  0  0  0  0  0
   -7.4584    0.0371  -20.1546 C   0  0  0  0  0  0  0  0  0  0  0  0
   -7.7092    0.2298  -18.8759 C   0  0  0  0  0  0  0  0  0  0  0  0
   -7.3333    0.6939  -17.7969 N   0  0  0  0  0  0  0  0  0  0  0  0
   -6.1385    1.2590  -18.1480 C   0  0  0  0  0  0  0  0  0  0  0  0
   -5.6588    1.2000  -19.2563 C   0  0  0  0  0  0  0  0  0  0  0  0
   -6.0450    0.6534  -20.4266 C   0  0  0  0  0  0  0  0  0  0  0  0
   -5.3618    0.6631  -21.7773 C   0  0  0  0  0  0  0  0  0  0  0  0
   -6.0203   -5.8022  -26.8326 H   0  0  0  0  0  0  0  0  0  0  0  0
   -5.4604   -4.3314  -25.9668 H   0  0  0  0  0  0  0  0  0  0  0  0
   -5.8858   -5.8111  -25.0415 H   0  0  0  0  0  0  0  0  0  0  0  0
   -7.1084   -3.1375  -24.5056 H   0  0  0  0  0  0  0  0  0  0  0  0
   -9.6050   -3.7716  -24.1805 H   0  0  0  0  0  0  0  0  0  0  0  0
  -11.1007   -1.7250  -23.1303 H   0  0  0  0  0  0  0  0  0  0  0  0
  -10.1138    0.1778  -25.4064 H   0  0  0  0  0  0  0  0  0  0  0  0
  -12.0384    0.7813  -25.5613 H   0  0  0  0  0  0  0  0  0  0  0  0
  -13.7411   -0.7873  -24.8039 H   0  0  0  0  0  0  0  0  0  0  0  0
  -13.4513    0.4656  -23.5497 H   0  0  0  0  0  0  0  0  0  0  0  0
  -13.5114   -1.8590  -22.5981 H   0  0  0  0  0  0  0  0  0  0  0  0
  -11.7493   -2.6125  -22.1028 H   0  0  0  0  0  0  0  0  0  0  0  0
  -10.8733   -1.4831  -23.3096 H   0  0  0  0  0  0  0  0  0  0  0  0
  -10.2895   -1.2338  -21.8505 H   0  0  0  0  0  0  0  0  0  0  0  0
   -7.8053   -1.4002  -21.4638 H   0  0  0  0  0  0  0  0  0  0  0  0
   -8.6740   -0.2183  -18.6893 H   0  0  0  0  0  0  0  0  0  0  0  0
   -5.5882    1.7920  -17.3868 H   0  0  0  0  0  0  0  0  0  0  0  0
   -4.7033    1.6988  -19.3243 H   0  0  0  0  0  0  0  0  0  0  0  0
   -4.7301   -0.2321  -21.8757 H   0  0  0  0  0  0  0  0  0  0  0  0
   -6.1219    0.6645  -22.5725 H   0  0  0  0  0  0  0  0  0  0  0  0
   -4.7371    1.5641  -21.8657 H   0  0  0  0  0  0  0  0  0  0  0  0
 20 21  2  0  0  0  0
 19 20  1  0  0  0  0
 21 22  1  0  0  0  0
 18 19  2  0  0  0  0
 22 23  2  0  0  0  0
 18 23  1  0  0  0  0
 17 18  1  0  0  0  0
 23 24  1  0  0  0  0
 15 16  2  0  0  0  0
 15 17  1  0  0  0  0
 14 15  1  0  0  0  0
  8 14  1  0  0  0  0
  7 14  1  0  0  0  0
 12 13  2  0  0  0  0
 11 12  1  0  0  0  0
  7  8  1  0  0  0  0
  8  9  1  0  0  0  0
 10 11  1  0  0  0  0
  6  7  2  3  0  0  0
  5  6  1  0  0  0  0
  9 10  2  0  0  0  0
  2  5  1  0  0  0  0
  2  3  2  0  0  0  0
  1  2  1  0  0  0  0
  2  4  2  0  0  0  0
  1 25  1  0  0  0  0
  1 26  1  0  0  0  0
  1 27  1  0  0  0  0
  5 28  1  0  0  0  0
  6 29  1  0  0  0  0
  8 30  1  0  0  0  0
  9 31  1  0  0  0  0
 10 32  1  0  0  0  0
 11 33  1  0  0  0  0
 11 34  1  0  0  0  0
 12 35  1  0  0  0  0
 13 36  1  0  0  0  0
 13 37  1  0  0  0  0
 14 38  1  0  0  0  0
 17 39  1  0  0  0  0
 19 40  1  0  0  0  0
 21 41  1  0  0  0  0
 22 42  1  0  0  0  0
 24 43  1  0  0  0  0
 24 44  1  0  0  0  0
 24 45  1  0  0  0  0
M  END
> <Chemgauss4>
-12.602581

$$$$
