MODEL 1
REMARK VINA RESULT:    -6.220      0.000      0.000
REMARK INTER + INTRA:          -8.465
REMARK INTER:                  -7.674
REMARK INTRA:                  -0.791
REMARK UNBOUND:                -0.791
REMARK  4 active torsions:
REMARK  status: ('A' for Active; 'I' for Inactive)
REMARK    1  A    between atoms: S_2  and  C_5 
REMARK    2  A    between atoms: C_8  and  N_9 
REMARK    3  A    between atoms: C_11  and  N_13 
REMARK       I    between atoms: N_13  and  C_14 
REMARK       I    between atoms: C_14  and  N_16 
REMARK    4  A    between atoms: N_16  and  C_18 
ROOT
HETATM    1  N   UNL     1       9.399  -2.672  23.558  1.00  0.00    -0.322 N 
ATOM      2  HN  UNL     1       9.867  -2.832  24.450  1.00  0.00     0.169 HD
HETATM    3  C   UNL     1       9.637  -1.877  22.733  1.00  0.00     0.158 C 
HETATM    4  C   UNL     1      11.193  -1.508  22.667  1.00  0.00     0.106 C 
ENDROOT
BRANCH   3   5
HETATM    5  N   UNL     1       8.833  -1.303  21.858  1.00  0.00    -0.338 NA
HETATM    6  C   UNL     1       8.180  -0.495  21.066  1.00  0.00     0.401 C 
HETATM    7  O   UNL     1       8.670   0.478  20.546  1.00  0.00    -0.230 OA
HETATM    8  N   UNL     1       6.857  -0.888  20.832  1.00  0.00    -0.281 N 
ATOM      9  HN  UNL     1       6.465  -1.714  21.284  1.00  0.00     0.173 HD
BRANCH   8  10
HETATM   10  C   UNL     1       6.131  -0.152  20.005  1.00  0.00     0.134 A 
HETATM   11  N   UNL     1       5.475   0.976  20.323  1.00  0.00    -0.331 N 
HETATM   12  C   UNL     1       4.926   1.392  19.224  1.00  0.00     0.234 A 
ATOM     13  HN  UNL     1       5.420   1.416  21.241  1.00  0.00     0.168 HD
HETATM   14  O   UNL     1       5.204   0.617  18.161  1.00  0.00    -0.314 OA
HETATM   15  C   UNL     1       5.924  -0.376  18.604  1.00  0.00     0.191 A 
ENDBRANCH   8  10
ENDBRANCH   3   5
BRANCH   1  16
HETATM   16  C   UNL     1       8.255  -3.377  22.977  1.00  0.00     0.121 A 
HETATM   17  C   UNL     1       7.182  -4.019  23.305  1.00  0.00     0.307 A 
HETATM   18  N   UNL     1       7.744  -4.100  22.212  1.00  0.00    -0.351 N 
ATOM     19  HN  UNL     1       7.757  -4.514  21.280  1.00  0.00     0.162 HD
BRANCH  17  20
HETATM   20  S   UNL     1       6.451  -4.885  24.729  1.00  0.00     0.329 S 
HETATM   21  F   UNL     1       7.503  -5.449  25.599  1.00  0.00    -0.102 F 
HETATM   22  O   UNL     1       5.786  -3.854  25.405  1.00  0.00    -0.192 OA
HETATM   23  O   UNL     1       5.651  -5.903  24.194  1.00  0.00    -0.192 OA
ENDBRANCH  17  20
ENDBRANCH   1  16
TORSDOF 4
ENDMDL
MODEL 2
REMARK VINA RESULT:    -6.156      3.416      6.515
REMARK INTER + INTRA:          -8.386
REMARK INTER:                  -7.632
REMARK INTRA:                  -0.754
REMARK UNBOUND:                -0.791
REMARK  4 active torsions:
REMARK  status: ('A' for Active; 'I' for Inactive)
REMARK    1  A    between atoms: S_2  and  C_5 
REMARK    2  A    between atoms: C_8  and  N_9 
REMARK    3  A    between atoms: C_11  and  N_13 
REMARK       I    between atoms: N_13  and  C_14 
REMARK       I    between atoms: C_14  and  N_16 
REMARK    4  A    between atoms: N_16  and  C_18 
ROOT
HETATM    1  N   UNL     1       9.033  -0.663  20.890  1.00  0.00    -0.322 N 
ATOM      2  HN  UNL     1       9.572  -0.351  20.082  1.00  0.00     0.169 HD
HETATM    3  C   UNL     1       9.413  -1.122  21.897  1.00  0.00     0.158 C 
HETATM    4  C   UNL     1      10.855  -0.571  22.317  1.00  0.00     0.106 C 
ENDROOT
BRANCH   3   5
HETATM    5  N   UNL     1       8.815  -1.964  22.718  1.00  0.00    -0.338 NA
HETATM    6  C   UNL     1       8.180  -2.561  23.691  1.00  0.00     0.401 C 
HETATM    7  O   UNL     1       7.306  -2.041  24.342  1.00  0.00    -0.230 OA
HETATM    8  N   UNL     1       8.574  -3.891  23.885  1.00  0.00    -0.281 N 
ATOM      9  HN  UNL     1       9.315  -4.308  23.323  1.00  0.00     0.173 HD
BRANCH   8  10
HETATM   10  C   UNL     1       7.951  -4.588  24.823  1.00  0.00     0.134 A 
HETATM   11  N   UNL     1       6.645  -4.898  24.837  1.00  0.00    -0.331 N 
HETATM   12  C   UNL     1       6.459  -5.611  25.904  1.00  0.00     0.234 A 
ATOM     13  HN  UNL     1       5.942  -4.628  24.150  1.00  0.00     0.168 HD
HETATM   14  O   UNL     1       7.585  -5.831  26.604  1.00  0.00    -0.314 OA
HETATM   15  C   UNL     1       8.536  -5.186  25.987  1.00  0.00     0.191 A 
ENDBRANCH   8  10
ENDBRANCH   3   5
BRANCH   1  16
HETATM   16  C   UNL     1       7.583  -0.653  21.091  1.00  0.00     0.121 A 
HETATM   17  C   UNL     1       6.468  -0.544  20.447  1.00  0.00     0.307 A 
HETATM   18  N   UNL     1       6.603  -0.358  21.657  1.00  0.00    -0.351 N 
ATOM     19  HN  UNL     1       6.162  -0.114  22.544  1.00  0.00     0.162 HD
BRANCH  17  20
HETATM   20  S   UNL     1       5.824   0.066  18.857  1.00  0.00     0.329 S 
HETATM   21  F   UNL     1       6.745   1.055  18.262  1.00  0.00    -0.102 F 
HETATM   22  O   UNL     1       5.806  -1.093  18.070  1.00  0.00    -0.192 OA
HETATM   23  O   UNL     1       4.584   0.651  19.142  1.00  0.00    -0.192 OA
ENDBRANCH  17  20
ENDBRANCH   1  16
TORSDOF 4
ENDMDL
MODEL 3
REMARK VINA RESULT:    -5.971      3.564      6.051
REMARK INTER + INTRA:          -8.158
REMARK INTER:                  -7.569
REMARK INTRA:                  -0.589
REMARK UNBOUND:                -0.791
REMARK  4 active torsions:
REMARK  status: ('A' for Active; 'I' for Inactive)
REMARK    1  A    between atoms: S_2  and  C_5 
REMARK    2  A    between atoms: C_8  and  N_9 
REMARK    3  A    between atoms: C_11  and  N_13 
REMARK       I    between atoms: N_13  and  C_14 
REMARK       I    between atoms: C_14  and  N_16 
REMARK    4  A    between atoms: N_16  and  C_18 
ROOT
HETATM    1  N   UNL     1       9.613   0.254  21.198  1.00  0.00    -0.322 N 
ATOM      2  HN  UNL     1       9.828   1.198  20.877  1.00  0.00     0.169 HD
HETATM    3  C   UNL     1       8.653  -0.387  21.011  1.00  0.00     0.158 C 
HETATM    4  C   UNL     1       7.961  -0.062  19.605  1.00  0.00     0.106 C 
ENDROOT
BRANCH   3   5
HETATM    5  N   UNL     1       8.114  -1.334  21.755  1.00  0.00    -0.338 NA
HETATM    6  C   UNL     1       7.554  -2.059  22.687  1.00  0.00     0.401 C 
HETATM    7  O   UNL     1       6.746  -1.633  23.476  1.00  0.00    -0.230 OA
HETATM    8  N   UNL     1       7.943  -3.404  22.659  1.00  0.00    -0.281 N 
ATOM      9  HN  UNL     1       8.628  -3.741  21.983  1.00  0.00     0.173 HD
BRANCH   8  10
HETATM   10  C   UNL     1       7.392  -4.224  23.540  1.00  0.00     0.134 A 
HETATM   11  N   UNL     1       7.644  -4.250  24.859  1.00  0.00    -0.331 N 
HETATM   12  C   UNL     1       6.875  -5.171  25.352  1.00  0.00     0.234 A 
ATOM     13  HN  UNL     1       8.306  -3.665  25.369  1.00  0.00     0.168 HD
HETATM   14  O   UNL     1       6.084  -5.754  24.436  1.00  0.00    -0.314 OA
HETATM   15  C   UNL     1       6.393  -5.221  23.286  1.00  0.00     0.191 A 
ENDBRANCH   8  10
ENDBRANCH   3   5
BRANCH   1  16
HETATM   16  C   UNL     1      10.428  -0.650  22.011  1.00  0.00     0.121 A 
HETATM   17  C   UNL     1      11.094  -0.701  23.117  1.00  0.00     0.307 A 
HETATM   18  N   UNL     1      11.242  -1.474  22.170  1.00  0.00    -0.351 N 
ATOM     19  HN  UNL     1      11.736  -2.280  21.787  1.00  0.00     0.162 HD
BRANCH  17  20
HETATM   20  S   UNL     1      11.868   0.407  24.337  1.00  0.00     0.329 S 
HETATM   21  F   UNL     1      11.973   1.781  23.806  1.00  0.00    -0.102 F 
HETATM   22  O   UNL     1      10.953   0.381  25.397  1.00  0.00    -0.192 OA
HETATM   23  O   UNL     1      13.139  -0.125  24.590  1.00  0.00    -0.192 OA
ENDBRANCH  17  20
ENDBRANCH   1  16
TORSDOF 4
ENDMDL
MODEL 4
REMARK VINA RESULT:    -5.913     26.857     28.434
REMARK INTER + INTRA:          -8.086
REMARK INTER:                  -7.277
REMARK INTRA:                  -0.809
REMARK UNBOUND:                -0.791
REMARK  4 active torsions:
REMARK  status: ('A' for Active; 'I' for Inactive)
REMARK    1  A    between atoms: S_2  and  C_5 
REMARK    2  A    between atoms: C_8  and  N_9 
REMARK    3  A    between atoms: C_11  and  N_13 
REMARK       I    between atoms: N_13  and  C_14 
REMARK       I    between atoms: C_14  and  N_16 
REMARK    4  A    between atoms: N_16  and  C_18 
ROOT
HETATM    1  N   UNL     1      11.629  21.141   3.055  1.00  0.00    -0.322 N 
ATOM      2  HN  UNL     1      11.679  22.102   3.393  1.00  0.00     0.169 HD
HETATM    3  C   UNL     1      11.071  20.716   2.118  1.00  0.00     0.158 C 
HETATM    4  C   UNL     1      10.988  21.775   0.921  1.00  0.00     0.106 C 
ENDROOT
BRANCH   3   5
HETATM    5  N   UNL     1      10.562  19.517   1.912  1.00  0.00    -0.338 NA
HETATM    6  C   UNL     1       9.950  18.451   1.469  1.00  0.00     0.401 C 
HETATM    7  O   UNL     1       9.797  18.201   0.299  1.00  0.00    -0.230 OA
HETATM    8  N   UNL     1       9.522  17.588   2.486  1.00  0.00    -0.281 N 
ATOM      9  HN  UNL     1       9.661  17.821   3.469  1.00  0.00     0.173 HD
BRANCH   8  10
HETATM   10  C   UNL     1       8.929  16.459   2.128  1.00  0.00     0.134 A 
HETATM   11  N   UNL     1       9.532  15.392   1.580  1.00  0.00    -0.331 N 
HETATM   12  C   UNL     1       8.604  14.501   1.418  1.00  0.00     0.234 A 
ATOM     13  HN  UNL     1      10.519  15.300   1.340  1.00  0.00     0.168 HD
HETATM   14  O   UNL     1       7.398  14.898   1.860  1.00  0.00    -0.314 OA
HETATM   15  C   UNL     1       7.543  16.124   2.282  1.00  0.00     0.191 A 
ENDBRANCH   8  10
ENDBRANCH   3   5
BRANCH   1  16
HETATM   16  C   UNL     1      12.237  19.933   3.617  1.00  0.00     0.121 A 
HETATM   17  C   UNL     1      12.494  19.354   4.744  1.00  0.00     0.307 A 
HETATM   18  N   UNL     1      13.054  19.098   3.677  1.00  0.00    -0.351 N 
ATOM     19  HN  UNL     1      13.751  18.540   3.183  1.00  0.00     0.162 HD
BRANCH  17  20
HETATM   20  S   UNL     1      12.660  19.748   6.514  1.00  0.00     0.329 S 
HETATM   21  F   UNL     1      12.741  21.208   6.722  1.00  0.00    -0.102 F 
HETATM   22  O   UNL     1      11.459  19.263   7.047  1.00  0.00    -0.192 OA
HETATM   23  O   UNL     1      13.837  19.120   6.941  1.00  0.00    -0.192 OA
ENDBRANCH  17  20
ENDBRANCH   1  16
TORSDOF 4
ENDMDL
MODEL 5
REMARK VINA RESULT:    -5.829      4.553      6.719
REMARK INTER + INTRA:          -7.983
REMARK INTER:                  -7.435
REMARK INTRA:                  -0.548
REMARK UNBOUND:                -0.791
REMARK  4 active torsions:
REMARK  status: ('A' for Active; 'I' for Inactive)
REMARK    1  A    between atoms: S_2  and  C_5 
REMARK    2  A    between atoms: C_8  and  N_9 
REMARK    3  A    between atoms: C_11  and  N_13 
REMARK       I    between atoms: N_13  and  C_14 
REMARK       I    between atoms: C_14  and  N_16 
REMARK    4  A    between atoms: N_16  and  C_18 
ROOT
HETATM    1  N   UNL     1       6.719   2.836  21.608  1.00  0.00    -0.322 N 
ATOM      2  HN  UNL     1       6.116   3.573  21.242  1.00  0.00     0.169 HD
HETATM    3  C   UNL     1       7.565   2.908  22.414  1.00  0.00     0.158 C 
HETATM    4  C   UNL     1       7.280   4.045  23.504  1.00  0.00     0.106 C 
ENDROOT
BRANCH   3   5
HETATM    5  N   UNL     1       8.653   2.177  22.560  1.00  0.00    -0.338 NA
HETATM    6  C   UNL     1       9.767   1.509  22.423  1.00  0.00     0.401 C 
HETATM    7  O   UNL     1      10.646   1.816  21.655  1.00  0.00    -0.230 OA
HETATM    8  N   UNL     1       9.875   0.415  23.292  1.00  0.00    -0.281 N 
ATOM      9  HN  UNL     1       9.118   0.175  23.932  1.00  0.00     0.173 HD
BRANCH   8  10
HETATM   10  C   UNL     1      10.991  -0.295  23.255  1.00  0.00     0.134 A 
HETATM   11  N   UNL     1      12.136   0.002  23.891  1.00  0.00    -0.331 N 
HETATM   12  C   UNL     1      12.958  -0.963  23.615  1.00  0.00     0.234 A 
ATOM     13  HN  UNL     1      12.321   0.818  24.473  1.00  0.00     0.168 HD
HETATM   14  O   UNL     1      12.418  -1.923  22.845  1.00  0.00    -0.314 OA
HETATM   15  C   UNL     1      11.204  -1.535  22.567  1.00  0.00     0.191 A 
ENDBRANCH   8  10
ENDBRANCH   3   5
BRANCH   1  16
HETATM   16  C   UNL     1       6.750   1.414  21.263  1.00  0.00     0.121 A 
HETATM   17  C   UNL     1       6.496   0.597  20.295  1.00  0.00     0.307 A 
HETATM   18  N   UNL     1       6.587   0.276  21.481  1.00  0.00    -0.351 N 
ATOM     19  HN  UNL     1       6.547  -0.469  22.176  1.00  0.00     0.162 HD
BRANCH  17  20
HETATM   20  S   UNL     1       5.541   0.516  18.746  1.00  0.00     0.329 S 
HETATM   21  F   UNL     1       6.092   1.446  17.740  1.00  0.00    -0.102 F 
HETATM   22  O   UNL     1       5.750  -0.805  18.329  1.00  0.00    -0.192 OA
HETATM   23  O   UNL     1       4.228   0.868  19.083  1.00  0.00    -0.192 OA
ENDBRANCH  17  20
ENDBRANCH   1  16
TORSDOF 4
ENDMDL
MODEL 6
REMARK VINA RESULT:    -5.807      3.963      5.120
REMARK INTER + INTRA:          -7.956
REMARK INTER:                  -7.305
REMARK INTRA:                  -0.650
REMARK UNBOUND:                -0.791
REMARK  4 active torsions:
REMARK  status: ('A' for Active; 'I' for Inactive)
REMARK    1  A    between atoms: S_2  and  C_5 
REMARK    2  A    between atoms: C_8  and  N_9 
REMARK    3  A    between atoms: C_11  and  N_13 
REMARK       I    between atoms: N_13  and  C_14 
REMARK       I    between atoms: C_14  and  N_16 
REMARK    4  A    between atoms: N_16  and  C_18 
ROOT
HETATM    1  N   UNL     1      10.397  -2.016  22.836  1.00  0.00    -0.322 N 
ATOM      2  HN  UNL     1      10.453  -2.973  23.184  1.00  0.00     0.169 HD
HETATM    3  C   UNL     1      11.174  -1.148  22.939  1.00  0.00     0.158 C 
HETATM    4  C   UNL     1      12.683  -1.677  22.993  1.00  0.00     0.106 C 
ENDROOT
BRANCH   3   5
HETATM    5  N   UNL     1      10.980   0.157  22.971  1.00  0.00    -0.338 NA
HETATM    6  C   UNL     1      10.847   1.432  22.720  1.00  0.00     0.401 C 
HETATM    7  O   UNL     1      10.443   1.872  21.672  1.00  0.00    -0.230 OA
HETATM    8  N   UNL     1      11.174   2.254  23.806  1.00  0.00    -0.281 N 
ATOM      9  HN  UNL     1      11.515   1.859  24.682  1.00  0.00     0.173 HD
BRANCH   8  10
HETATM   10  C   UNL     1      11.027   3.561  23.657  1.00  0.00     0.134 A 
HETATM   11  N   UNL     1       9.861   4.212  23.516  1.00  0.00    -0.331 N 
HETATM   12  C   UNL     1      10.161   5.471  23.433  1.00  0.00     0.234 A 
ATOM     13  HN  UNL     1       8.928   3.800  23.482  1.00  0.00     0.168 HD
HETATM   14  O   UNL     1      11.479   5.714  23.543  1.00  0.00    -0.314 OA
HETATM   15  C   UNL     1      12.063   4.553  23.650  1.00  0.00     0.191 A 
ENDBRANCH   8  10
ENDBRANCH   3   5
BRANCH   1  16
HETATM   16  C   UNL     1       9.324  -1.373  22.076  1.00  0.00     0.121 A 
HETATM   17  C   UNL     1       8.044  -1.405  21.898  1.00  0.00     0.307 A 
HETATM   18  N   UNL     1       8.852  -0.906  21.113  1.00  0.00    -0.351 N 
ATOM     19  HN  UNL     1       9.005  -0.420  20.229  1.00  0.00     0.162 HD
BRANCH  17  20
HETATM   20  S   UNL     1       6.623  -2.516  22.147  1.00  0.00     0.329 S 
HETATM   21  F   UNL     1       5.880  -2.152  23.370  1.00  0.00    -0.102 F 
HETATM   22  O   UNL     1       5.832  -2.255  21.021  1.00  0.00    -0.192 OA
HETATM   23  O   UNL     1       7.157  -3.806  22.256  1.00  0.00    -0.192 OA
ENDBRANCH  17  20
ENDBRANCH   1  16
TORSDOF 4
ENDMDL
MODEL 7
REMARK VINA RESULT:    -5.655      2.812      4.233
REMARK INTER + INTRA:          -7.768
REMARK INTER:                  -7.102
REMARK INTRA:                  -0.666
REMARK UNBOUND:                -0.791
REMARK  4 active torsions:
REMARK  status: ('A' for Active; 'I' for Inactive)
REMARK    1  A    between atoms: S_2  and  C_5 
REMARK    2  A    between atoms: C_8  and  N_9 
REMARK    3  A    between atoms: C_11  and  N_13 
REMARK       I    between atoms: N_13  and  C_14 
REMARK       I    between atoms: C_14  and  N_16 
REMARK    4  A    between atoms: N_16  and  C_18 
ROOT
HETATM    1  N   UNL     1       4.726  -5.424  24.644  1.00  0.00    -0.322 N 
ATOM      2  HN  UNL     1       4.529  -6.359  25.001  1.00  0.00     0.169 HD
HETATM    3  C   UNL     1       4.310  -4.898  23.685  1.00  0.00     0.158 C 
HETATM    4  C   UNL     1       2.830  -5.380  23.314  1.00  0.00     0.106 C 
ENDROOT
BRANCH   3   5
HETATM    5  N   UNL     1       4.860  -3.968  22.928  1.00  0.00    -0.338 NA
HETATM    6  C   UNL     1       5.471  -3.270  22.007  1.00  0.00     0.401 C 
HETATM    7  O   UNL     1       5.472  -3.558  20.835  1.00  0.00    -0.230 OA
HETATM    8  N   UNL     1       6.093  -2.116  22.500  1.00  0.00    -0.281 N 
ATOM      9  HN  UNL     1       6.079  -1.894  23.495  1.00  0.00     0.173 HD
BRANCH   8  10
HETATM   10  C   UNL     1       6.699  -1.323  21.630  1.00  0.00     0.134 A 
HETATM   11  N   UNL     1       6.102  -0.619  20.655  1.00  0.00    -0.331 N 
HETATM   12  C   UNL     1       7.047   0.042  20.061  1.00  0.00     0.234 A 
ATOM     13  HN  UNL     1       5.108  -0.606  20.429  1.00  0.00     0.168 HD
HETATM   14  O   UNL     1       8.260  -0.153  20.606  1.00  0.00    -0.314 OA
HETATM   15  C   UNL     1       8.100  -1.022  21.566  1.00  0.00     0.191 A 
ENDBRANCH   8  10
ENDBRANCH   3   5
BRANCH   1  16
HETATM   16  C   UNL     1       5.603  -4.391  25.199  1.00  0.00     0.121 A 
HETATM   17  C   UNL     1       6.774  -4.223  25.720  1.00  0.00     0.307 A 
HETATM   18  N   UNL     1       5.831  -3.439  25.840  1.00  0.00    -0.351 N 
ATOM     19  HN  UNL     1       5.486  -2.563  26.230  1.00  0.00     0.162 HD
BRANCH  17  20
HETATM   20  S   UNL     1       8.094  -5.179  26.530  1.00  0.00     0.329 S 
HETATM   21  F   UNL     1       8.927  -5.878  25.530  1.00  0.00    -0.102 F 
HETATM   22  O   UNL     1       8.852  -4.181  27.157  1.00  0.00    -0.192 OA
HETATM   23  O   UNL     1       7.449  -6.098  27.368  1.00  0.00    -0.192 OA
ENDBRANCH  17  20
ENDBRANCH   1  16
TORSDOF 4
ENDMDL
MODEL 8
REMARK VINA RESULT:    -5.607      4.576      6.479
REMARK INTER + INTRA:          -7.709
REMARK INTER:                  -7.123
REMARK INTRA:                  -0.586
REMARK UNBOUND:                -0.791
REMARK  4 active torsions:
REMARK  status: ('A' for Active; 'I' for Inactive)
REMARK    1  A    between atoms: S_2  and  C_5 
REMARK    2  A    between atoms: C_8  and  N_9 
REMARK    3  A    between atoms: C_11  and  N_13 
REMARK       I    between atoms: N_13  and  C_14 
REMARK       I    between atoms: C_14  and  N_16 
REMARK    4  A    between atoms: N_16  and  C_18 
ROOT
HETATM    1  N   UNL     1       7.106  -0.688  22.094  1.00  0.00    -0.322 N 
ATOM      2  HN  UNL     1       6.284  -1.281  22.210  1.00  0.00     0.169 HD
HETATM    3  C   UNL     1       7.852  -0.296  22.906  1.00  0.00     0.158 C 
HETATM    4  C   UNL     1       8.016  -1.312  24.131  1.00  0.00     0.106 C 
ENDROOT
BRANCH   3   5
HETATM    5  N   UNL     1       8.579   0.805  22.921  1.00  0.00    -0.338 NA
HETATM    6  C   UNL     1       9.483   1.737  22.780  1.00  0.00     0.401 C 
HETATM    7  O   UNL     1      10.188   1.848  21.807  1.00  0.00    -0.230 OA
HETATM    8  N   UNL     1       9.530   2.639  23.851  1.00  0.00    -0.281 N 
ATOM      9  HN  UNL     1       8.924   2.525  24.663  1.00  0.00     0.173 HD
BRANCH   8  10
HETATM   10  C   UNL     1      10.388   3.645  23.773  1.00  0.00     0.134 A 
HETATM   11  N   UNL     1      11.716   3.537  23.609  1.00  0.00    -0.331 N 
HETATM   12  C   UNL     1      12.169   4.751  23.552  1.00  0.00     0.234 A 
ATOM     13  HN  UNL     1      12.259   2.676  23.542  1.00  0.00     0.168 HD
HETATM   14  O   UNL     1      11.207   5.685  23.637  1.00  0.00    -0.314 OA
HETATM   15  C   UNL     1      10.083   5.045  23.809  1.00  0.00     0.191 A 
ENDBRANCH   8  10
ENDBRANCH   3   5
BRANCH   1  16
HETATM   16  C   UNL     1       7.658  -0.106  20.870  1.00  0.00     0.121 A 
HETATM   17  C   UNL     1       7.307   0.349  19.712  1.00  0.00     0.307 A 
HETATM   18  N   UNL     1       8.444  -0.023  20.007  1.00  0.00    -0.351 N 
ATOM     19  HN  UNL     1       9.408  -0.164  19.706  1.00  0.00     0.162 HD
BRANCH  17  20
HETATM   20  S   UNL     1       5.916   0.269  18.540  1.00  0.00     0.329 S 
HETATM   21  F   UNL     1       5.922  -1.012  17.805  1.00  0.00    -0.102 F 
HETATM   22  O   UNL     1       4.801   0.320  19.386  1.00  0.00    -0.192 OA
HETATM   23  O   UNL     1       6.089   1.346  17.662  1.00  0.00    -0.192 OA
ENDBRANCH  17  20
ENDBRANCH   1  16
TORSDOF 4
ENDMDL
MODEL 9
REMARK VINA RESULT:    -5.411     18.694     19.930
REMARK INTER + INTRA:          -7.467
REMARK INTER:                  -6.926
REMARK INTRA:                  -0.541
REMARK UNBOUND:                -0.791
REMARK  4 active torsions:
REMARK  status: ('A' for Active; 'I' for Inactive)
REMARK    1  A    between atoms: S_2  and  C_5 
REMARK    2  A    between atoms: C_8  and  N_9 
REMARK    3  A    between atoms: C_11  and  N_13 
REMARK       I    between atoms: N_13  and  C_14 
REMARK       I    between atoms: C_14  and  N_16 
REMARK    4  A    between atoms: N_16  and  C_18 
ROOT
HETATM    1  N   UNL     1      -1.465 -16.259  14.881  1.00  0.00    -0.322 N 
ATOM      2  HN  UNL     1      -1.353 -15.892  15.825  1.00  0.00     0.169 HD
HETATM    3  C   UNL     1      -0.664 -16.372  14.035  1.00  0.00     0.158 C 
HETATM    4  C   UNL     1       0.805 -16.639  14.611  1.00  0.00     0.106 C 
ENDROOT
BRANCH   3   5
HETATM    5  N   UNL     1      -0.815 -16.354  12.724  1.00  0.00    -0.338 NA
HETATM    6  C   UNL     1      -0.722 -16.494  11.428  1.00  0.00     0.401 C 
HETATM    7  O   UNL     1      -0.260 -17.470  10.889  1.00  0.00    -0.230 OA
HETATM    8  N   UNL     1      -1.257 -15.418  10.709  1.00  0.00    -0.281 N 
ATOM      9  HN  UNL     1      -1.641 -14.603  11.187  1.00  0.00     0.173 HD
BRANCH   8  10
HETATM   10  C   UNL     1      -1.246 -15.493   9.387  1.00  0.00     0.134 A 
HETATM   11  N   UNL     1      -0.153 -15.535   8.608  1.00  0.00    -0.331 N 
HETATM   12  C   UNL     1      -0.586 -15.639   7.390  1.00  0.00     0.234 A 
ATOM     13  HN  UNL     1       0.819 -15.493   8.913  1.00  0.00     0.168 HD
HETATM   14  O   UNL     1      -1.925 -15.704   7.302  1.00  0.00    -0.314 OA
HETATM   15  C   UNL     1      -2.383 -15.584   8.518  1.00  0.00     0.191 A 
ENDBRANCH   8  10
ENDBRANCH   3   5
BRANCH   1  16
HETATM   16  C   UNL     1      -2.667 -16.783  14.231  1.00  0.00     0.121 A 
HETATM   17  C   UNL     1      -3.908 -16.499  14.008  1.00  0.00     0.307 A 
HETATM   18  N   UNL     1      -3.422 -17.629  13.942  1.00  0.00    -0.351 N 
ATOM     19  HN  UNL     1      -3.573 -18.621  13.760  1.00  0.00     0.162 HD
BRANCH  17  20
HETATM   20  S   UNL     1      -5.236 -15.429  14.647  1.00  0.00     0.329 S 
HETATM   21  F   UNL     1      -6.557 -16.059  14.454  1.00  0.00    -0.102 F 
HETATM   22  O   UNL     1      -4.942 -15.363  16.015  1.00  0.00    -0.192 OA
HETATM   23  O   UNL     1      -5.147 -14.231  13.926  1.00  0.00    -0.192 OA
ENDBRANCH  17  20
ENDBRANCH   1  16
TORSDOF 4
ENDMDL
