stable:False satoms:15 tatoms:24 sratio:0.625
  -OEChem-07092417393D

 24 24  0     1  0  0  0  0  0999 V2000
    6.7940   -4.7841   26.2970 F   0  0  0  0  0  0  0  0  0  0  0  0
    8.2090   -4.3646   26.1310 S   0  0  0  0  0  0  0  0  0  0  0  0
    8.8861   -5.5235   25.9694 O   0  0  0  0  0  0  0  0  0  0  0  0
    8.5545   -3.5677   27.1408 O   0  0  0  0  0  0  0  0  0  0  0  0
    8.2696   -3.5313   24.8104 O   0  0  0  0  0  0  0  0  0  0  0  0
    9.0748   -2.8068   24.3136 C   0  0  0  0  0  0  0  0  0  0  0  0
    9.8862   -1.8729   23.9936 C   0  0  0  0  0  0  0  0  0  0  0  0
   10.5317   -1.0224   23.1616 C   0  0  1  0  0  0  0  0  0  0  0  0
   10.7978   -0.9487   24.4470 O   0  0  0  0  0  0  0  0  0  0  0  0
   12.5346    0.3792   24.0211 H   0  0  0  0  0  0  0  0  0  0  0  0
   12.8700   -0.3733   23.3645 C   0  3  0  0  0  0  0  0  0  0  0  0
   12.8762   -1.1653   22.5370 N   0  0  0  0  0  0  0  0  0  0  0  0
   11.5354   -1.3752   22.2187 O   0  0  0  0  0  0  0  0  0  0  0  0
    9.4937   -0.2344   22.6674 N   0  0  0  0  0  0  0  0  0  0  0  0
    9.1348    0.1920   21.4639 C   0  0  0  0  0  0  0  0  0  0  0  0
    9.7010    1.1150   20.9047 O   0  0  0  0  0  0  0  0  0  0  0  0
    8.0247   -0.4653   20.9479 N   0  0  0  0  0  0  0  0  0  0  0  0
    7.0690    0.0514   20.3405 C   0  0  0  0  0  0  0  0  0  0  0  0
    7.2392   -0.1959   18.2011 H   0  0  0  0  0  0  0  0  0  0  0  0
    6.6581    0.4421   18.6115 N   0  5  0  0  0  0  0  0  0  0  0  0
    4.7110    1.0019   18.6026 H   0  0  0  0  0  0  0  0  0  0  0  0
    5.5680    0.6929   19.1584 C   0  0  0  0  0  0  0  0  0  0  0  0
    5.8692    0.4854   20.4854 C   0  0  0  0  0  0  0  0  0  0  0  0
    5.2956    0.5814   21.5078 H   0  0  0  0  0  0  0  0  0  0  0  0
 19 20  1  0  0  0  0
 21 22  1  0  0  0  0
 20 22  1  0  0  0  0
 22 23  2  0  0  0  0
 18 23  1  0  0  0  0
 17 18  1  0  0  0  0
 23 24  1  0  0  0  0
 15 16  2  0  0  0  0
 15 17  1  0  0  0  0
 14 15  1  0  0  0  0
 12 13  1  0  0  0  0
  8 13  1  0  0  0  0
 11 12  2  0  0  0  0
  8 14  1  0  0  0  0
  7  8  1  0  0  0  0
  8  9  1  0  0  0  0
 10 11  1  0  0  0  0
  6  7  2  3  0  0  0
  7  9  1  0  0  0  0
  5  6  1  0  0  0  0
  2  5  1  0  0  0  0
  2  3  2  0  0  0  0
  1  2  1  0  0  0  0
  2  4  2  0  0  0  0
M  CHG  2  11   1  20  -1
M  END
> <Shapegauss>
-226.732208

$$$$
