stable:False satoms:15 tatoms:24 sratio:0.625
  -OEChem-08062404143D

 30 30  0     1  0  0  0  0  0999 V2000
   -6.5987   -5.5369  -25.3816 F   0  0  0  0  0  0  0  0  0  0  0  0
   -7.9301   -4.8934  -25.5184 S   0  0  0  0  0  0  0  0  0  0  0  0
   -8.8089   -5.9162  -25.4229 O   0  0  0  0  0  0  0  0  0  0  0  0
   -7.9484   -4.1470  -26.6215 O   0  0  0  0  0  0  0  0  0  0  0  0
   -8.0902   -3.9455  -24.2864 O   0  0  0  0  0  0  0  0  0  0  0  0
   -8.8400   -3.0650  -23.9991 C   0  0  0  0  0  0  0  0  0  0  0  0
   -9.5288   -1.9934  -23.8985 C   0  0  0  0  0  0  0  0  0  0  0  0
  -10.1639   -0.9832  -23.2594 C   0  0  1  0  0  0  0  0  0  0  0  0
  -10.1757   -0.9855  -24.5741 O   0  0  0  0  0  0  0  0  0  0  0  0
  -12.2848   -0.0060  -23.9502 C   0  0  0  0  0  2  0  0  0  0  0  0
  -12.5734   -0.7102  -23.0942 N   0  0  0  0  0  0  0  0  0  0  0  0
  -11.3669   -1.0927  -22.5099 O   0  0  0  0  0  0  0  0  0  0  0  0
   -9.1165   -0.3215  -22.6208 N   0  0  0  0  0  0  0  0  0  0  0  0
   -8.9166    0.1514  -21.3979 C   0  0  0  0  0  0  0  0  0  0  0  0
   -9.4131    1.1964  -21.0149 O   0  0  0  0  0  0  0  0  0  0  0  0
   -8.0443   -0.6185  -20.6384 N   0  0  0  0  0  0  0  0  0  0  0  0
   -7.1425   -0.2011  -19.8888 C   0  0  0  0  0  0  0  0  0  0  0  0
   -7.0683    0.4663  -17.1603 H   0  0  0  0  0  0  0  0  0  0  0  0
   -6.9937    0.2760  -18.1392 N   0  3  0  0  0  0  0  0  0  0  0  0
   -5.0151    0.5308  -17.7858 H   0  0  0  0  0  0  0  0  0  0  0  0
   -5.7960    0.3075  -18.4780 C   0  0  0  0  0  0  0  0  0  0  0  0
   -5.8810    0.0301  -19.8236 C   0  0  0  0  0  0  0  0  0  0  0  0
   -5.1232   -0.0547  -20.7191 H   0  0  0  0  0  0  0  0  0  0  0  0
   -9.3022   -3.5759  -23.1674 H   0  0  0  0  0  0  0  0  0  0  0  0
   -8.3344   -0.1678  -23.2247 H   0  0  0  0  0  0  0  0  0  0  0  0
   -8.1522   -1.6107  -20.7003 H   0  0  0  0  0  0  0  0  0  0  0  0
   -7.2655   -0.8796  -19.0318 H   0  0  0  0  0  0  0  0  0  0  0  0
   -7.5407    0.7913  -19.6309 H   0  0  0  0  0  0  0  0  0  0  0  0
   -7.3710   -0.6298  -18.3323 H   0  0  0  0  0  0  0  0  0  0  0  0
   -7.5037    0.9660  -18.6527 H   0  0  0  0  0  0  0  0  0  0  0  0
 18 19  1  0  0  0  0
 20 21  1  0  0  0  0
 19 21  1  0  0  0  0
 21 22  2  0  0  0  0
 17 22  1  0  0  0  0
 16 17  1  0  0  0  0
 22 23  1  0  0  0  0
 14 15  2  0  0  0  0
 14 16  1  0  0  0  0
 13 14  1  0  0  0  0
 11 12  1  0  0  0  0
  8 12  1  0  0  0  0
 10 11  2  0  0  0  0
  8 13  1  0  0  0  0
  7  8  1  0  0  0  0
  8  9  1  0  0  0  0
  6  7  2  3  0  0  0
  7  9  1  0  0  0  0
  5  6  1  0  0  0  0
  2  5  1  0  0  0  0
  2  3  2  0  0  0  0
  1  2  1  0  0  0  0
  2  4  2  0  0  0  0
  6 24  1  0  0  0  0
 13 25  1  0  0  0  0
 16 26  1  0  0  0  0
 17 27  1  0  0  0  0
 17 28  1  0  0  0  0
 19 29  1  0  0  0  0
 19 30  1  0  0  0  0
M  CHG  1  19   1
M  END
> <Chemgauss4>
-6.584322

$$$$
