stable:False satoms:15 tatoms:24 sratio:0.625
  -OEChem-08062404143D

 30 30  0     1  0  0  0  0  0999 V2000
    6.7317   -5.3833   25.4810 F   0  0  0  0  0  0  0  0  0  0  0  0
    8.0632   -4.7397   25.6178 S   0  0  0  0  0  0  0  0  0  0  0  0
    8.9420   -5.7626   25.5223 O   0  0  0  0  0  0  0  0  0  0  0  0
    8.0814   -3.9933   26.7208 O   0  0  0  0  0  0  0  0  0  0  0  0
    8.2232   -3.7918   24.3858 O   0  0  0  0  0  0  0  0  0  0  0  0
    8.9731   -2.9113   24.0985 C   0  0  0  0  0  0  0  0  0  0  0  0
    9.6619   -1.8397   23.9979 C   0  0  0  0  0  0  0  0  0  0  0  0
   10.2970   -0.8295   23.3588 C   0  0  1  0  0  0  0  0  0  0  0  0
   10.3087   -0.8318   24.6735 O   0  0  0  0  0  0  0  0  0  0  0  0
   12.4178    0.1477   24.0496 C   0  0  0  0  0  2  0  0  0  0  0  0
   12.7064   -0.5566   23.1936 N   0  0  0  0  0  0  0  0  0  0  0  0
   11.5000   -0.9390   22.6093 O   0  0  0  0  0  0  0  0  0  0  0  0
    9.2496   -0.1679   22.7202 N   0  0  0  0  0  0  0  0  0  0  0  0
    9.0496    0.3051   21.4973 C   0  0  0  0  0  0  0  0  0  0  0  0
    9.5461    1.3501   21.1143 O   0  0  0  0  0  0  0  0  0  0  0  0
    8.1773   -0.4648   20.7377 N   0  0  0  0  0  0  0  0  0  0  0  0
    7.2755   -0.0474   19.9882 C   0  0  0  0  0  0  0  0  0  0  0  0
    7.2013    0.6200   17.2597 H   0  0  0  0  0  0  0  0  0  0  0  0
    7.1267    0.4296   18.2385 N   0  3  0  0  0  0  0  0  0  0  0  0
    5.1481    0.6845   17.8852 H   0  0  0  0  0  0  0  0  0  0  0  0
    5.9290    0.4612   18.5774 C   0  0  0  0  0  0  0  0  0  0  0  0
    6.0141    0.1837   19.9230 C   0  0  0  0  0  0  0  0  0  0  0  0
    5.2562    0.0990   20.8185 H   0  0  0  0  0  0  0  0  0  0  0  0
    9.4353   -3.4222   23.2667 H   0  0  0  0  0  0  0  0  0  0  0  0
    8.4675   -0.0141   23.3240 H   0  0  0  0  0  0  0  0  0  0  0  0
    8.2852   -1.4570   20.7997 H   0  0  0  0  0  0  0  0  0  0  0  0
    7.3985   -0.7260   19.1311 H   0  0  0  0  0  0  0  0  0  0  0  0
    7.6738    0.9450   19.7302 H   0  0  0  0  0  0  0  0  0  0  0  0
    7.5041   -0.4761   18.4317 H   0  0  0  0  0  0  0  0  0  0  0  0
    7.6367    1.1197   18.7521 H   0  0  0  0  0  0  0  0  0  0  0  0
 18 19  1  0  0  0  0
 20 21  1  0  0  0  0
 19 21  1  0  0  0  0
 21 22  2  0  0  0  0
 17 22  1  0  0  0  0
 16 17  1  0  0  0  0
 22 23  1  0  0  0  0
 14 15  2  0  0  0  0
 14 16  1  0  0  0  0
 13 14  1  0  0  0  0
 11 12  1  0  0  0  0
  8 12  1  0  0  0  0
 10 11  2  0  0  0  0
  8 13  1  0  0  0  0
  7  8  1  0  0  0  0
  8  9  1  0  0  0  0
  6  7  2  3  0  0  0
  7  9  1  0  0  0  0
  5  6  1  0  0  0  0
  2  5  1  0  0  0  0
  2  3  2  0  0  0  0
  1  2  1  0  0  0  0
  2  4  2  0  0  0  0
  6 24  1  0  0  0  0
 13 25  1  0  0  0  0
 16 26  1  0  0  0  0
 17 27  1  0  0  0  0
 17 28  1  0  0  0  0
 19 29  1  0  0  0  0
 19 30  1  0  0  0  0
M  CHG  1  19   1
M  END
> <Chemgauss4>
-6.707847

$$$$
