stable:False satoms:18 tatoms:24 sratio:0.75
  -OEChem-07092417383D

 24 23  0     1  0  0  0  0  0999 V2000
    7.0584   -4.6730   26.2610 H   0  0  0  0  0  0  0  0  0  0  0  0
    8.1031   -4.3270   26.0872 C   0  0  0  0  0  0  0  0  0  0  0  0
    8.7757   -5.2115   26.0603 H   0  0  0  0  0  0  0  0  0  0  0  0
    8.4044   -3.6777   26.9340 H   0  0  0  0  0  0  0  0  0  0  0  0
    8.1356   -3.6466   24.8433 N   0  3  0  0  0  0  0  0  0  0  0  0
    8.9432   -2.9361   24.2947 C   0  0  0  0  0  0  0  0  0  0  0  0
    9.5301   -2.1205   23.7063 C   0  0  0  0  0  0  0  0  0  0  0  0
   10.1482   -1.0580   23.1947 C   0  0  3  0  0  0  0  0  0  0  0  0
   10.8614    0.0518   24.2707 S   0  0  0  0  0  0  0  0  0  0  0  0
   13.1658   -0.0837   24.1719 H   0  0  0  0  0  0  0  0  0  0  0  0
   12.4588   -0.5475   23.5051 C   0  0  0  0  0  0  0  0  0  0  0  0
   12.6532   -0.2475   22.4889 H   0  0  0  0  0  0  0  0  0  0  0  0
   12.3321   -1.6328   23.4623 H   0  0  0  0  0  0  0  0  0  0  0  0
   10.1428   -0.7145   21.9354 N   0  0  0  0  0  0  0  0  0  0  0  0
    9.0756   -0.0533   21.4052 C   0  0  0  0  0  0  0  0  0  0  0  0
    9.1829    0.9360   20.7711 O   0  0  0  0  0  0  0  0  0  0  0  0
    7.5686   -0.8304   21.7391 S   0  0  0  0  0  0  0  0  0  0  0  0
    6.6921    0.2742   19.5167 C   0  0  0  0  0  0  0  0  0  0  0  0
    7.6437   -0.0506   19.1246 H   0  0  0  0  0  0  0  0  0  0  0  0
    5.9417    0.5964   17.5826 H   0  0  0  0  0  0  0  0  0  0  0  0
    5.7506    0.6832   18.6311 C   0  0  0  0  0  0  0  0  0  0  0  0
    4.8356    1.0601   19.0291 H   0  0  0  0  0  0  0  0  0  0  0  0
    6.4684    0.2145   20.8607 C   0  3  0  0  0  0  0  0  0  0  0  0
    5.7122    0.7042   21.4204 H   0  0  0  0  0  0  0  0  0  0  0  0
 20 21  1  0  0  0  0
 21 22  1  0  0  0  0
 18 21  2  0  0  0  0
 18 19  1  0  0  0  0
 18 23  1  0  0  0  0
 15 16  2  0  0  0  0
 23 24  1  0  0  0  0
 17 23  1  0  0  0  0
 15 17  1  0  0  0  0
 14 15  1  0  0  0  0
  8 14  1  0  0  0  0
 11 12  1  0  0  0  0
  7  8  1  0  0  0  0
  8  9  1  0  0  0  0
 11 13  1  0  0  0  0
 10 11  1  0  0  0  0
  9 11  1  0  0  0  0
  6  7  3  0  0  0  0
  5  6  1  0  0  0  0
  2  5  1  0  0  0  0
  2  3  1  0  0  0  0
  1  2  1  0  0  0  0
  2  4  1  0  0  0  0
M  CHG  2   5   1  23   1
M  END
> <Shapegauss>
-178.885193

$$$$
