stable:False satoms:18 tatoms:24 sratio:0.75
  -OEChem-08062405323D

 27 26  0     1  0  0  0  0  0999 V2000
   -7.1421   -4.6069  -26.5138 H   0  0  0  0  0  0  0  0  0  0  0  0
   -8.1505   -4.4874  -26.0554 C   0  0  0  0  0  0  0  0  0  0  0  0
   -8.5766   -5.4943  -25.8549 H   0  0  0  0  0  0  0  0  0  0  0  0
   -8.8062   -3.9623  -26.7791 H   0  0  0  0  0  0  0  0  0  0  0  0
   -7.9956   -3.7687  -24.8427 N   0  3  0  0  0  0  0  0  0  0  0  0
   -8.7615   -3.2236  -24.0850 C   0  0  0  0  0  0  0  0  0  0  0  0
   -9.3334   -2.5261  -23.3484 C   0  0  0  0  0  0  0  0  0  0  0  0
  -10.0101   -1.5986  -22.6743 C   0  0  3  0  0  0  0  0  0  0  0  0
  -11.2160   -0.7254  -23.4997 S   0  0  0  0  0  0  0  0  0  0  0  0
  -13.3176   -1.3522  -22.7726 H   0  0  0  0  0  0  0  0  0  0  0  0
  -12.3718   -1.6176  -22.3314 C   0  0  0  0  0  0  0  0  0  0  0  0
  -12.3456   -1.3162  -21.2975 H   0  0  0  0  0  0  0  0  0  0  0  0
  -12.0003   -2.6460  -22.3377 H   0  0  0  0  0  0  0  0  0  0  0  0
   -9.7406   -1.1993  -21.4611 N   0  0  0  0  0  0  0  0  0  0  0  0
   -8.7445   -0.2966  -21.2372 C   0  0  0  0  0  0  0  0  0  0  0  0
   -8.8933    0.6765  -20.5866 O   0  0  0  0  0  0  0  0  0  0  0  0
   -7.2505   -0.7442  -21.9816 S   0  0  0  0  0  0  0  0  0  0  0  0
   -6.0737    0.6345  -20.0733 C   0  0  0  0  0  0  0  0  0  0  0  0
   -6.7867    0.1311  -19.4384 H   0  0  0  0  0  0  0  0  0  0  0  0
   -4.9190    1.2085  -18.4165 H   0  0  0  0  0  0  0  0  0  0  0  0
   -5.0430    1.2819  -19.4760 C   0  0  0  0  0  0  0  0  0  0  0  0
   -4.3775    1.8277  -20.1059 H   0  0  0  0  0  0  0  0  0  0  0  0
   -6.2146    0.5572  -21.4276 C   0  0  0  0  0  2  0  0  0  0  0  0
   -7.3676   -3.0328  -25.0959 H   0  0  0  0  0  0  0  0  0  0  0  0
  -10.7436   -2.3353  -22.3147 H   0  0  0  0  0  0  0  0  0  0  0  0
  -10.2684   -1.5580  -20.6912 H   0  0  0  0  0  0  0  0  0  0  0  0
   -7.5222   -4.4225  -24.2525 H   0  0  0  0  0  0  0  0  0  0  0  0
 20 21  1  0  0  0  0
 21 22  1  0  0  0  0
 18 21  2  0  0  0  0
 18 19  1  0  0  0  0
 18 23  1  0  0  0  0
 15 16  2  0  0  0  0
 17 23  1  0  0  0  0
 15 17  1  0  0  0  0
 14 15  1  0  0  0  0
  8 14  1  0  0  0  0
 11 12  1  0  0  0  0
  7  8  1  0  0  0  0
  8  9  1  0  0  0  0
 11 13  1  0  0  0  0
 10 11  1  0  0  0  0
  9 11  1  0  0  0  0
  6  7  3  0  0  0  0
  5  6  1  0  0  0  0
  2  5  1  0  0  0  0
  2  3  1  0  0  0  0
  1  2  1  0  0  0  0
  2  4  1  0  0  0  0
  5 24  1  0  0  0  0
  8 25  1  0  0  0  0
 14 26  1  0  0  0  0
  5 27  1  0  0  0  0
M  CHG  1   5   1
M  END
> <Chemgauss4>
-7.759771

$$$$
