stable:False satoms:18 tatoms:24 sratio:0.75
  -OEChem-08062405323D

 27 26  0     1  0  0  0  0  0999 V2000
    7.0465   -4.6842   26.4141 H   0  0  0  0  0  0  0  0  0  0  0  0
    8.0550   -4.5647   25.9557 C   0  0  0  0  0  0  0  0  0  0  0  0
    8.4811   -5.5715   25.7552 H   0  0  0  0  0  0  0  0  0  0  0  0
    8.7107   -4.0396   26.6794 H   0  0  0  0  0  0  0  0  0  0  0  0
    7.9000   -3.8459   24.7430 N   0  3  0  0  0  0  0  0  0  0  0  0
    8.6660   -3.3008   23.9853 C   0  0  0  0  0  0  0  0  0  0  0  0
    9.2378   -2.6034   23.2488 C   0  0  0  0  0  0  0  0  0  0  0  0
    9.9145   -1.6759   22.5746 C   0  0  3  0  0  0  0  0  0  0  0  0
   11.1204   -0.8026   23.4000 S   0  0  0  0  0  0  0  0  0  0  0  0
   13.2220   -1.4295   22.6729 H   0  0  0  0  0  0  0  0  0  0  0  0
   12.2762   -1.6948   22.2317 C   0  0  0  0  0  0  0  0  0  0  0  0
   12.2500   -1.3935   21.1978 H   0  0  0  0  0  0  0  0  0  0  0  0
   11.9047   -2.7233   22.2380 H   0  0  0  0  0  0  0  0  0  0  0  0
    9.6450   -1.2765   21.3614 N   0  0  0  0  0  0  0  0  0  0  0  0
    8.6489   -0.3739   21.1375 C   0  0  0  0  0  0  0  0  0  0  0  0
    8.7977    0.5992   20.4869 O   0  0  0  0  0  0  0  0  0  0  0  0
    7.1549   -0.8214   21.8819 S   0  0  0  0  0  0  0  0  0  0  0  0
    5.9781    0.5572   19.9736 C   0  0  0  0  0  0  0  0  0  0  0  0
    6.6911    0.0539   19.3387 H   0  0  0  0  0  0  0  0  0  0  0  0
    4.8234    1.1312   18.3168 H   0  0  0  0  0  0  0  0  0  0  0  0
    4.9475    1.2046   19.3763 C   0  0  0  0  0  0  0  0  0  0  0  0
    4.2819    1.7505   20.0062 H   0  0  0  0  0  0  0  0  0  0  0  0
    6.1190    0.4800   21.3279 C   0  0  0  0  0  2  0  0  0  0  0  0
    7.2720   -3.1100   24.9963 H   0  0  0  0  0  0  0  0  0  0  0  0
   10.6480   -2.4125   22.2150 H   0  0  0  0  0  0  0  0  0  0  0  0
   10.1728   -1.6352   20.5915 H   0  0  0  0  0  0  0  0  0  0  0  0
    7.4267   -4.4998   24.1528 H   0  0  0  0  0  0  0  0  0  0  0  0
 20 21  1  0  0  0  0
 21 22  1  0  0  0  0
 18 21  2  0  0  0  0
 18 19  1  0  0  0  0
 18 23  1  0  0  0  0
 15 16  2  0  0  0  0
 17 23  1  0  0  0  0
 15 17  1  0  0  0  0
 14 15  1  0  0  0  0
  8 14  1  0  0  0  0
 11 12  1  0  0  0  0
  7  8  1  0  0  0  0
  8  9  1  0  0  0  0
 11 13  1  0  0  0  0
 10 11  1  0  0  0  0
  9 11  1  0  0  0  0
  6  7  3  0  0  0  0
  5  6  1  0  0  0  0
  2  5  1  0  0  0  0
  2  3  1  0  0  0  0
  1  2  1  0  0  0  0
  2  4  1  0  0  0  0
  5 24  1  0  0  0  0
  8 25  1  0  0  0  0
 14 26  1  0  0  0  0
  5 27  1  0  0  0  0
M  CHG  1   5   1
M  END
> <Chemgauss4>
-7.671224

$$$$
