stable:False satoms:20 tatoms:24 sratio:0.8333333333333334
  -OEChem-08062403113D

 24 24  0     1  0  0  0  0  0999 V2000
   -8.2495   -6.2192  -26.8601 O   0  0  0  0  0  0  0  0  0  0  0  0
   -7.4951   -5.5464  -26.1702 C   0  0  0  0  0  0  0  0  0  0  0  0
   -6.2546   -5.9958  -25.8678 O   0  5  0  0  0  0  0  0  0  0  0  0
   -7.8902   -4.3195  -25.7184 N   0  5  0  0  0  0  0  0  0  0  0  0
   -9.4230   -1.9355  -24.5473 C   0  0  0  0  0  0  0  0  0  0  0  0
   -7.5391   -3.6239  -24.5613 C   0  0  0  0  0  0  0  0  0  0  0  0
   -7.5409   -1.6361  -23.2454 O   0  0  0  0  0  0  0  0  0  0  0  0
   -6.7071   -4.0166  -23.7690 O   0  0  0  0  0  0  0  0  0  0  0  0
   -6.1112   -2.4000  -22.0477 H   0  0  0  0  0  0  0  0  0  0  0  0
   -5.8827   -0.7087  -22.5195 H   0  0  0  0  0  0  0  0  0  0  0  0
   -5.5515   -1.9878  -23.6929 H   0  0  0  0  0  0  0  0  0  0  0  0
   -6.1962   -1.6869  -22.8710 C   0  0  0  0  0  0  0  0  0  0  0  0
   -8.1651   -2.3584  -24.1515 C   0  0  3  0  0  0  0  0  0  0  0  0
  -10.2907   -1.4276  -23.6198 C   0  0  0  0  0  0  0  0  0  0  0  0
   -9.9723   -1.1186  -22.6541 H   0  0  0  0  0  0  0  0  0  0  0  0
  -11.5489   -1.2379  -23.9746 N   0  0  0  0  0  0  0  0  0  0  0  0
   -9.8165   -1.8737  -25.5481 H   0  0  0  0  0  0  0  0  0  0  0  0
  -12.1997   -0.1668  -24.4708 C   0  0  0  0  0  0  0  0  0  0  0  0
  -11.8048    0.5680  -25.1161 H   0  0  0  0  0  0  0  0  0  0  0  0
  -14.1558    0.5636  -23.8291 H   0  0  0  0  0  0  0  0  0  0  0  0
  -13.4925   -0.2326  -24.0008 C   0  0  0  0  0  0  0  0  0  0  0  0
  -12.5900   -2.0557  -23.4030 O   0  0  0  0  0  0  0  0  0  0  0  0
  -13.7565   -1.4830  -23.6512 O   0  0  0  0  0  0  0  0  0  0  0  0
   -7.6820   -1.8126  -24.9754 H   0  0  0  0  0  0  0  0  0  0  0  0
 20 21  1  0  0  0  0
 18 19  1  0  0  0  0
 18 21  2  0  0  0  0
 21 23  1  0  0  0  0
 16 18  1  0  0  0  0
 22 23  1  0  0  0  0
 16 22  1  0  0  0  0
 14 16  1  0  0  0  0
 14 15  1  0  0  0  0
  5 14  2  0  0  0  0
  5 17  1  0  0  0  0
  5 13  1  0  0  0  0
 10 12  1  0  0  0  0
  7 13  1  0  0  0  0
  7 12  1  0  0  0  0
  6 13  1  0  0  0  0
 11 12  1  0  0  0  0
  9 12  1  0  0  0  0
  4  6  1  0  0  0  0
  6  8  2  0  0  0  0
  2  4  1  0  0  0  0
  1  2  2  0  0  0  0
  2  3  1  0  0  0  0
 13 24  1  0  0  0  0
M  CHG  2   3  -1   4  -1
M  END
> <Chemgauss4>
-6.315486

$$$$
