stable:False satoms:20 tatoms:24 sratio:0.8333333333333334
  -OEChem-08062403113D

 24 24  0     1  0  0  0  0  0999 V2000
    8.0676   -6.1035   26.5061 O   0  0  0  0  0  0  0  0  0  0  0  0
    7.3799   -5.4426   25.7393 C   0  0  0  0  0  0  0  0  0  0  0  0
    6.1819   -5.9079   25.3144 O   0  5  0  0  0  0  0  0  0  0  0  0
    7.8050   -4.2130   25.3238 N   0  5  0  0  0  0  0  0  0  0  0  0
    9.4221   -1.8158   24.3025 C   0  0  0  0  0  0  0  0  0  0  0  0
    7.5660   -3.5264   24.1332 C   0  0  0  0  0  0  0  0  0  0  0  0
    7.6794   -1.5440   22.8139 O   0  0  0  0  0  0  0  0  0  0  0  0
    6.8237   -3.9321   23.2623 O   0  0  0  0  0  0  0  0  0  0  0  0
    6.3882   -2.3297   21.4806 H   0  0  0  0  0  0  0  0  0  0  0  0
    6.0935   -0.6394   21.9177 H   0  0  0  0  0  0  0  0  0  0  0  0
    5.6588   -1.9175   23.0579 H   0  0  0  0  0  0  0  0  0  0  0  0
    6.3806   -1.6124   22.3045 C   0  0  0  0  0  0  0  0  0  0  0  0
    8.2160   -2.2552   23.7827 C   0  0  3  0  0  0  0  0  0  0  0  0
   10.3741   -1.3013   23.4657 C   0  0  0  0  0  0  0  0  0  0  0  0
   10.1524   -1.0001   22.4710 H   0  0  0  0  0  0  0  0  0  0  0  0
   11.5872   -1.0953   23.9460 N   0  0  0  0  0  0  0  0  0  0  0  0
    9.7106   -1.7451   25.3379 H   0  0  0  0  0  0  0  0  0  0  0  0
   12.1718   -0.0145   24.5003 C   0  0  0  0  0  0  0  0  0  0  0  0
   11.7047    0.7182   25.0981 H   0  0  0  0  0  0  0  0  0  0  0  0
   14.1746    0.7365   24.0576 H   0  0  0  0  0  0  0  0  0  0  0  0
   13.5064   -0.0668   24.1650 C   0  0  0  0  0  0  0  0  0  0  0  0
   12.6905   -1.9030   23.4879 O   0  0  0  0  0  0  0  0  0  0  0  0
   13.8189   -1.3155   23.8507 O   0  0  0  0  0  0  0  0  0  0  0  0
    7.6452   -1.7118   24.5501 H   0  0  0  0  0  0  0  0  0  0  0  0
 20 21  1  0  0  0  0
 18 19  1  0  0  0  0
 18 21  2  0  0  0  0
 21 23  1  0  0  0  0
 16 18  1  0  0  0  0
 22 23  1  0  0  0  0
 16 22  1  0  0  0  0
 14 16  1  0  0  0  0
 14 15  1  0  0  0  0
  5 14  2  0  0  0  0
  5 17  1  0  0  0  0
  5 13  1  0  0  0  0
 10 12  1  0  0  0  0
  7 13  1  0  0  0  0
  7 12  1  0  0  0  0
  6 13  1  0  0  0  0
 11 12  1  0  0  0  0
  9 12  1  0  0  0  0
  4  6  1  0  0  0  0
  6  8  2  0  0  0  0
  2  4  1  0  0  0  0
  1  2  2  0  0  0  0
  2  3  1  0  0  0  0
 13 24  1  0  0  0  0
M  CHG  2   3  -1   4  -1
M  END
> <Chemgauss4>
-6.395654

$$$$
