REMARK  5 active torsions:
REMARK  status: ('A' for Active; 'I' for Inactive)
REMARK    1  A    between atoms: C_1  and  N_6 
REMARK    2  A    between atoms: C_1  and  N_3 
REMARK    3  A    between atoms: N_6  and  N_9 
REMARK    4  A    between atoms: N_9  and  N_14 
REMARK    5  A    between atoms: C_11  and  N_14 
ROOT
HETATM    1  C   UNL     1      10.018  -0.491  23.718  1.00  0.00     0.004 C 
HETATM    2  C   UNL     1       8.691  -0.587  24.134  1.00  0.00    -0.009 C 
HETATM    3  C   UNL     1       8.190   0.872  23.629  1.00  0.00     0.004 C 
ENDROOT
TORSDOF 5
