stable:False satoms:19 tatoms:24 sratio:0.7916666666666666
  -OEChem-07092417353D

 24 24  0     1  0  0  0  0  0999 V2000
    8.0301   -3.8348   25.5376 H   0  0  0  0  0  0  0  0  0  0  0  0
    8.6258   -3.8926   24.6050 C   0  0  0  0  0  0  0  0  0  0  0  0
    8.9431   -4.9482   24.5740 H   0  0  0  0  0  0  0  0  0  0  0  0
    9.9104   -1.9972   26.2172 O   0  0  0  0  0  0  0  0  0  0  0  0
    9.8543   -3.0724   24.2500 C   0  5  3  0  0  0  0  0  0  0  0  0
    7.9750   -3.5026   23.8297 H   0  0  0  0  0  0  0  0  0  0  0  0
   10.1689   -1.9846   24.9754 C   0  0  0  0  0  0  0  0  0  0  0  0
   10.9999   -0.8546   24.2602 C   0  0  0  0  0  0  0  0  0  0  0  0
   10.7366   -0.8031   22.8252 C   0  0  0  0  0  0  0  0  0  0  0  0
   10.8197    0.1209   24.7274 H   0  0  0  0  0  0  0  0  0  0  0  0
   12.0880   -1.0409   24.3827 H   0  0  0  0  0  0  0  0  0  0  0  0
   11.6488   -0.9552   22.0268 O   0  0  0  0  0  0  0  0  0  0  0  0
   10.5165   -3.3239   23.4088 H   0  0  0  0  0  0  0  0  0  0  0  0
    9.1018   -0.4662   21.1426 N   0  0  0  0  0  0  0  0  0  0  0  0
    8.6756   -0.3670   23.0407 H   0  0  0  0  0  0  0  0  0  0  0  0
    7.9463   -0.0244   20.6918 C   0  0  0  0  0  0  0  0  0  0  0  0
    9.4060   -0.5832   22.3841 N   0  3  0  0  0  0  0  0  0  0  0  0
    6.1959    0.6974   19.2929 C   0  0  0  0  0  0  0  0  0  0  0  0
    7.4781    0.1974   19.3514 C   0  0  0  0  0  0  0  0  0  0  0  0
    8.0338    0.0280   18.4446 H   0  0  0  0  0  0  0  0  0  0  0  0
    5.6853    0.9867   18.3715 H   0  0  0  0  0  0  0  0  0  0  0  0
    5.5874    0.8225   20.4927 C   0  0  0  0  0  0  0  0  0  0  0  0
    4.6208    1.2230   20.6711 H   0  0  0  0  0  0  0  0  0  0  0  0
    6.5359    0.2848   21.7935 S   0  0  0  0  0  0  0  0  0  0  0  0
 18 21  1  0  0  0  0
 19 20  1  0  0  0  0
 18 19  1  0  0  0  0
 18 22  2  0  0  0  0
 16 19  2  0  0  0  0
 22 23  1  0  0  0  0
 22 24  1  0  0  0  0
 14 16  1  0  0  0  0
 16 24  1  0  0  0  0
 14 17  2  0  0  0  0
  9 12  2  0  0  0  0
  9 17  1  0  0  0  0
 15 17  1  0  0  0  0
  8  9  1  0  0  0  0
  5 13  1  0  0  0  0
  2  6  1  0  0  0  0
  2  5  1  0  0  0  0
  5  7  1  0  0  0  0
  8 11  1  0  0  0  0
  8 10  1  0  0  0  0
  7  8  1  0  0  0  0
  2  3  1  0  0  0  0
  1  2  1  0  0  0  0
  4  7  2  0  0  0  0
M  CHG  2   5  -1  17   1
M  END
> <Shapegauss>
-152.906509

$$$$
