MODEL 1
REMARK VINA RESULT:    -4.953      0.000      0.000
REMARK INTER + INTRA:          -6.525
REMARK INTER:                  -6.111
REMARK INTRA:                  -0.414
REMARK UNBOUND:                -0.414
REMARK  4 active torsions:
REMARK  status: ('A' for Active; 'I' for Inactive)
REMARK    1  A    between atoms: C_3  and  C_4 
REMARK    2  A    between atoms: C_4  and  C_5 
REMARK    3  A    between atoms: C_5  and  C_6 
REMARK       I    between atoms: C_6  and  N_12 
REMARK    4  A    between atoms: N_8  and  C_11 
ROOT
HETATM    1  C   UNL     1       9.376  14.433   2.550  1.00  0.00     0.243 C 
HETATM    2  O   UNL     1      10.374  14.224   3.222  1.00  0.00    -0.271 OA
HETATM    3  N   UNL     1       8.260  12.484   3.304  1.00  0.00    -0.291 N 
ATOM      4  HN  UNL     1       9.009  12.362   3.984  1.00  0.00     0.187 HD
HETATM    5  H   UNL     1       7.478  13.685   1.984  1.00  0.00     0.190 HD
HETATM    6  N   UNL     1       8.258  13.561   2.606  1.00  0.00    -0.269 N 
ENDROOT
BRANCH   1   7
HETATM    7  C   UNL     1       9.311  15.601   1.676  1.00  0.00     0.186 C 
BRANCH   7   8
HETATM    8  C   UNL     1       8.035  16.480   1.955  1.00  0.00     0.154 C 
HETATM    9  O   UNL     1       7.093  16.137   2.733  1.00  0.00    -0.293 OA
BRANCH   8  10
HETATM   10  C   UNL     1       7.868  17.582   1.204  1.00  0.00     0.019 C 
HETATM   11  C   UNL     1       8.977  18.042   0.272  1.00  0.00     0.039 C 
ENDBRANCH   8  10
ENDBRANCH   7   8
ENDBRANCH   1   7
BRANCH   3  12
HETATM   12  C   UNL     1       7.362  11.525   3.205  1.00  0.00     0.088 C 
HETATM   13  C   UNL     1       6.773  10.677   4.205  1.00  0.00     0.039 C 
HETATM   14  C   UNL     1       5.875   9.767   3.692  1.00  0.00     0.010 C 
HETATM   15  C   UNL     1       5.657   9.879   2.363  1.00  0.00     0.052 C 
HETATM   16  S   UNL     1       6.511  11.158   1.643  1.00  0.00    -0.083 SA
ENDBRANCH   3  12
TORSDOF 4
ENDMDL
MODEL 2
REMARK VINA RESULT:    -4.914     25.673     26.465
REMARK INTER + INTRA:          -6.477
REMARK INTER:                  -6.245
REMARK INTRA:                  -0.232
REMARK UNBOUND:                -0.414
REMARK  4 active torsions:
REMARK  status: ('A' for Active; 'I' for Inactive)
REMARK    1  A    between atoms: C_3  and  C_4 
REMARK    2  A    between atoms: C_4  and  C_5 
REMARK    3  A    between atoms: C_5  and  C_6 
REMARK       I    between atoms: C_6  and  N_12 
REMARK    4  A    between atoms: N_8  and  C_11 
ROOT
HETATM    1  C   UNL     1      10.443  -1.508  22.630  1.00  0.00     0.243 C 
HETATM    2  O   UNL     1      10.041  -0.683  21.824  1.00  0.00    -0.271 OA
HETATM    3  N   UNL     1       8.523  -2.883  22.428  1.00  0.00    -0.291 N 
ATOM      4  HN  UNL     1       8.230  -2.296  21.647  1.00  0.00     0.187 HD
HETATM    5  H   UNL     1       9.973  -3.298  23.660  1.00  0.00     0.190 HD
HETATM    6  N   UNL     1       9.684  -2.670  22.929  1.00  0.00    -0.269 N 
ENDROOT
BRANCH   1   7
HETATM    7  C   UNL     1      11.725  -1.317  23.300  1.00  0.00     0.186 C 
BRANCH   7   8
HETATM    8  C   UNL     1      11.729  -0.041  24.222  1.00  0.00     0.154 C 
HETATM    9  O   UNL     1      12.730   0.725  24.370  1.00  0.00    -0.293 OA
BRANCH   8  10
HETATM   10  C   UNL     1      10.659   0.153  25.012  1.00  0.00     0.019 C 
HETATM   11  C   UNL     1       9.788   1.383  24.824  1.00  0.00     0.039 C 
ENDBRANCH   8  10
ENDBRANCH   7   8
ENDBRANCH   1   7
BRANCH   3  12
HETATM   12  C   UNL     1       7.681  -3.804  22.850  1.00  0.00     0.088 C 
HETATM   13  C   UNL     1       6.989  -4.846  22.141  1.00  0.00     0.039 C 
HETATM   14  C   UNL     1       6.165  -5.602  22.945  1.00  0.00     0.010 C 
HETATM   15  C   UNL     1       6.207  -5.277  24.256  1.00  0.00     0.052 C 
HETATM   16  S   UNL     1       7.310  -4.037  24.612  1.00  0.00    -0.083 SA
ENDBRANCH   3  12
TORSDOF 4
ENDMDL
MODEL 3
REMARK VINA RESULT:    -4.904      4.796      7.165
REMARK INTER + INTRA:          -6.465
REMARK INTER:                  -6.002
REMARK INTRA:                  -0.463
REMARK UNBOUND:                -0.414
REMARK  4 active torsions:
REMARK  status: ('A' for Active; 'I' for Inactive)
REMARK    1  A    between atoms: C_3  and  C_4 
REMARK    2  A    between atoms: C_4  and  C_5 
REMARK    3  A    between atoms: C_5  and  C_6 
REMARK       I    between atoms: C_6  and  N_12 
REMARK    4  A    between atoms: N_8  and  C_11 
ROOT
HETATM    1  C   UNL     1      10.701  15.243   4.231  1.00  0.00     0.243 C 
HETATM    2  O   UNL     1      11.597  14.519   4.639  1.00  0.00    -0.271 OA
HETATM    3  N   UNL     1      11.926  17.239   4.593  1.00  0.00    -0.291 N 
ATOM      4  HN  UNL     1      12.740  16.660   4.796  1.00  0.00     0.187 HD
HETATM    5  H   UNL     1      10.098  17.249   3.920  1.00  0.00     0.190 HD
HETATM    6  N   UNL     1      10.867  16.651   4.168  1.00  0.00    -0.269 N 
ENDROOT
BRANCH   1   7
HETATM    7  C   UNL     1       9.435  14.666   3.788  1.00  0.00     0.186 C 
BRANCH   7   8
HETATM    8  C   UNL     1       9.034  15.155   2.346  1.00  0.00     0.154 C 
HETATM    9  O   UNL     1       9.856  15.298   1.391  1.00  0.00    -0.293 OA
BRANCH   8  10
HETATM   10  C   UNL     1       7.775  15.591   2.171  1.00  0.00     0.019 C 
HETATM   11  C   UNL     1       7.451  17.066   2.334  1.00  0.00     0.039 C 
ENDBRANCH   8  10
ENDBRANCH   7   8
ENDBRANCH   1   7
BRANCH   3  12
HETATM   12  C   UNL     1      12.037  18.538   4.785  1.00  0.00     0.088 C 
HETATM   13  C   UNL     1      12.680  19.286   5.830  1.00  0.00     0.039 C 
HETATM   14  C   UNL     1      12.554  20.650   5.686  1.00  0.00     0.010 C 
HETATM   15  C   UNL     1      11.914  21.039   4.561  1.00  0.00     0.052 C 
HETATM   16  S   UNL     1      11.457  19.746   3.560  1.00  0.00    -0.083 SA
ENDBRANCH   3  12
TORSDOF 4
ENDMDL
MODEL 4
REMARK VINA RESULT:    -4.874     24.801     25.511
REMARK INTER + INTRA:          -6.428
REMARK INTER:                  -5.988
REMARK INTRA:                  -0.439
REMARK UNBOUND:                -0.414
REMARK  4 active torsions:
REMARK  status: ('A' for Active; 'I' for Inactive)
REMARK    1  A    between atoms: C_3  and  C_4 
REMARK    2  A    between atoms: C_4  and  C_5 
REMARK    3  A    between atoms: C_5  and  C_6 
REMARK       I    between atoms: C_6  and  N_12 
REMARK    4  A    between atoms: N_8  and  C_11 
ROOT
HETATM    1  C   UNL     1      11.898  -1.190  23.363  1.00  0.00     0.243 C 
HETATM    2  O   UNL     1      12.623  -1.967  22.762  1.00  0.00    -0.271 OA
HETATM    3  N   UNL     1       9.901  -2.268  22.680  1.00  0.00    -0.291 N 
ATOM      4  HN  UNL     1      10.479  -3.015  22.295  1.00  0.00     0.187 HD
HETATM    5  H   UNL     1       9.890  -0.658  23.777  1.00  0.00     0.190 HD
HETATM    6  N   UNL     1      10.488  -1.351  23.359  1.00  0.00    -0.269 N 
ENDROOT
BRANCH   1   7
HETATM    7  C   UNL     1      12.474  -0.076  24.111  1.00  0.00     0.186 C 
BRANCH   7   8
HETATM    8  C   UNL     1      11.394   1.006  24.489  1.00  0.00     0.154 C 
HETATM    9  O   UNL     1      10.392   0.778  25.234  1.00  0.00    -0.293 OA
BRANCH   8  10
HETATM   10  C   UNL     1      11.460   2.191  23.859  1.00  0.00     0.019 C 
HETATM   11  C   UNL     1      10.202   3.019  23.662  1.00  0.00     0.039 C 
ENDBRANCH   8  10
ENDBRANCH   7   8
ENDBRANCH   1   7
BRANCH   3  12
HETATM   12  C   UNL     1       8.606  -2.315  22.445  1.00  0.00     0.088 C 
HETATM   13  C   UNL     1       7.737  -1.397  21.760  1.00  0.00     0.039 C 
HETATM   14  C   UNL     1       6.419  -1.798  21.744  1.00  0.00     0.010 C 
HETATM   15  C   UNL     1       6.192  -3.005  22.308  1.00  0.00     0.052 C 
HETATM   16  S   UNL     1       7.602  -3.769  22.864  1.00  0.00    -0.083 SA
ENDBRANCH   3  12
TORSDOF 4
ENDMDL
MODEL 5
REMARK VINA RESULT:    -4.819     22.100     24.194
REMARK INTER + INTRA:          -6.359
REMARK INTER:                  -5.927
REMARK INTRA:                  -0.432
REMARK UNBOUND:                -0.414
REMARK  4 active torsions:
REMARK  status: ('A' for Active; 'I' for Inactive)
REMARK    1  A    between atoms: C_3  and  C_4 
REMARK    2  A    between atoms: C_4  and  C_5 
REMARK    3  A    between atoms: C_5  and  C_6 
REMARK       I    between atoms: C_6  and  N_12 
REMARK    4  A    between atoms: N_8  and  C_11 
ROOT
HETATM    1  C   UNL     1       7.371   0.035  21.948  1.00  0.00     0.243 C 
HETATM    2  O   UNL     1       6.936   0.970  22.602  1.00  0.00    -0.271 OA
HETATM    3  N   UNL     1       9.405  -0.080  23.160  1.00  0.00    -0.291 N 
ATOM      4  HN  UNL     1       9.010   0.595  23.815  1.00  0.00     0.187 HD
HETATM    5  H   UNL     1       9.027  -1.251  21.650  1.00  0.00     0.190 HD
HETATM    6  N   UNL     1       8.633  -0.544  22.246  1.00  0.00    -0.269 N 
ENDROOT
BRANCH   1   7
HETATM    7  C   UNL     1       6.590  -0.517  20.845  1.00  0.00     0.186 C 
BRANCH   7   8
HETATM    8  C   UNL     1       7.049   0.052  19.451  1.00  0.00     0.154 C 
HETATM    9  O   UNL     1       8.255   0.079  19.058  1.00  0.00    -0.293 OA
BRANCH   8  10
HETATM   10  C   UNL     1       6.124   0.683  18.707  1.00  0.00     0.019 C 
HETATM   11  C   UNL     1       4.837   1.172  19.349  1.00  0.00     0.039 C 
ENDBRANCH   8  10
ENDBRANCH   7   8
ENDBRANCH   1   7
BRANCH   3  12
HETATM   12  C   UNL     1      10.669  -0.414  23.315  1.00  0.00     0.088 C 
HETATM   13  C   UNL     1      11.440  -1.484  22.743  1.00  0.00     0.039 C 
HETATM   14  C   UNL     1      12.746  -1.513  23.178  1.00  0.00     0.010 C 
HETATM   15  C   UNL     1      13.086  -0.498  24.003  1.00  0.00     0.052 C 
HETATM   16  S   UNL     1      11.826   0.609  24.271  1.00  0.00    -0.083 SA
ENDBRANCH   3  12
TORSDOF 4
ENDMDL
MODEL 6
REMARK VINA RESULT:    -4.762      3.329      6.979
REMARK INTER + INTRA:          -6.289
REMARK INTER:                  -6.078
REMARK INTRA:                  -0.211
REMARK UNBOUND:                -0.414
REMARK  4 active torsions:
REMARK  status: ('A' for Active; 'I' for Inactive)
REMARK    1  A    between atoms: C_3  and  C_4 
REMARK    2  A    between atoms: C_4  and  C_5 
REMARK    3  A    between atoms: C_5  and  C_6 
REMARK       I    between atoms: C_6  and  N_12 
REMARK    4  A    between atoms: N_8  and  C_11 
ROOT
HETATM    1  C   UNL     1       9.184  15.171   1.833  1.00  0.00     0.243 C 
HETATM    2  O   UNL     1      10.274  14.977   2.348  1.00  0.00    -0.271 OA
HETATM    3  N   UNL     1       9.722  17.371   1.135  1.00  0.00    -0.291 N 
ATOM      4  HN  UNL     1      10.683  17.188   1.422  1.00  0.00     0.187 HD
HETATM    5  H   UNL     1       7.967  16.584   0.829  1.00  0.00     0.190 HD
HETATM    6  N   UNL     1       8.893  16.392   1.170  1.00  0.00    -0.269 N 
ENDROOT
BRANCH   1   7
HETATM    7  C   UNL     1       8.154  14.137   1.880  1.00  0.00     0.186 C 
BRANCH   7   8
HETATM    8  C   UNL     1       7.978  13.541   3.326  1.00  0.00     0.154 C 
HETATM    9  O   UNL     1       7.769  14.242   4.362  1.00  0.00    -0.293 OA
BRANCH   8  10
HETATM   10  C   UNL     1       8.220  12.228   3.486  1.00  0.00     0.019 C 
HETATM   11  C   UNL     1       7.135  11.212   3.174  1.00  0.00     0.039 C 
ENDBRANCH   8  10
ENDBRANCH   7   8
ENDBRANCH   1   7
BRANCH   3  12
HETATM   12  C   UNL     1       9.421  18.596   0.756  1.00  0.00     0.088 C 
HETATM   13  C   UNL     1       8.452  19.080  -0.189  1.00  0.00     0.039 C 
HETATM   14  C   UNL     1       8.458  20.451  -0.327  1.00  0.00     0.010 C 
HETATM   15  C   UNL     1       9.316  21.095   0.495  1.00  0.00     0.052 C 
HETATM   16  S   UNL     1      10.155  20.058   1.545  1.00  0.00    -0.083 SA
ENDBRANCH   3  12
TORSDOF 4
ENDMDL
MODEL 7
REMARK VINA RESULT:    -4.752     24.545     26.928
REMARK INTER + INTRA:          -6.277
REMARK INTER:                  -5.818
REMARK INTRA:                  -0.459
REMARK UNBOUND:                -0.414
REMARK  4 active torsions:
REMARK  status: ('A' for Active; 'I' for Inactive)
REMARK    1  A    between atoms: C_3  and  C_4 
REMARK    2  A    between atoms: C_4  and  C_5 
REMARK    3  A    between atoms: C_5  and  C_6 
REMARK       I    between atoms: C_6  and  N_12 
REMARK    4  A    between atoms: N_8  and  C_11 
ROOT
HETATM    1  C   UNL     1       7.582  -4.916  23.293  1.00  0.00     0.243 C 
HETATM    2  O   UNL     1       8.103  -5.236  24.351  1.00  0.00    -0.271 OA
HETATM    3  N   UNL     1       8.993  -3.039  22.977  1.00  0.00    -0.291 N 
ATOM      4  HN  UNL     1       9.542  -3.363  23.773  1.00  0.00     0.187 HD
HETATM    5  H   UNL     1       7.564  -3.487  21.731  1.00  0.00     0.190 HD
HETATM    6  N   UNL     1       8.053  -3.802  22.552  1.00  0.00    -0.269 N 
ENDROOT
BRANCH   1   7
HETATM    7  C   UNL     1       6.462  -5.688  22.763  1.00  0.00     0.186 C 
BRANCH   7   8
HETATM    8  C   UNL     1       5.185  -4.797  22.530  1.00  0.00     0.154 C 
HETATM    9  O   UNL     1       5.159  -3.779  21.773  1.00  0.00    -0.293 OA
BRANCH   8  10
HETATM   10  C   UNL     1       4.112  -5.044  23.300  1.00  0.00     0.019 C 
HETATM   11  C   UNL     1       3.735  -4.078  24.411  1.00  0.00     0.039 C 
ENDBRANCH   8  10
ENDBRANCH   7   8
ENDBRANCH   1   7
BRANCH   3  12
HETATM   12  C   UNL     1       9.301  -1.867  22.459  1.00  0.00     0.088 C 
HETATM   13  C   UNL     1       8.500  -0.913  21.742  1.00  0.00     0.039 C 
HETATM   14  C   UNL     1       9.205   0.200  21.338  1.00  0.00     0.010 C 
HETATM   15  C   UNL     1      10.493   0.228  21.746  1.00  0.00     0.052 C 
HETATM   16  S   UNL     1      10.928  -1.101  22.707  1.00  0.00    -0.083 SA
ENDBRANCH   3  12
TORSDOF 4
ENDMDL
MODEL 8
REMARK VINA RESULT:    -4.656     32.166     34.719
REMARK INTER + INTRA:          -6.159
REMARK INTER:                  -5.699
REMARK INTRA:                  -0.460
REMARK UNBOUND:                -0.414
REMARK  4 active torsions:
REMARK  status: ('A' for Active; 'I' for Inactive)
REMARK    1  A    between atoms: C_3  and  C_4 
REMARK    2  A    between atoms: C_4  and  C_5 
REMARK    3  A    between atoms: C_5  and  C_6 
REMARK       I    between atoms: C_6  and  N_12 
REMARK    4  A    between atoms: N_8  and  C_11 
ROOT
HETATM    1  C   UNL     1       3.236 -19.681   8.849  1.00  0.00     0.243 C 
HETATM    2  O   UNL     1       4.188 -19.167   9.414  1.00  0.00    -0.271 OA
HETATM    3  N   UNL     1       1.808 -17.824   9.210  1.00  0.00    -0.291 N 
ATOM      4  HN  UNL     1       2.621 -17.312   9.552  1.00  0.00     0.187 HD
HETATM    5  H   UNL     1       1.199 -19.446   8.320  1.00  0.00     0.190 HD
HETATM    6  N   UNL     1       2.007 -18.986   8.704  1.00  0.00    -0.269 N 
ENDROOT
BRANCH   1   7
HETATM    7  C   UNL     1       3.348 -21.028   8.297  1.00  0.00     0.186 C 
BRANCH   7   8
HETATM    8  C   UNL     1       2.091 -21.914   8.634  1.00  0.00     0.154 C 
HETATM    9  O   UNL     1       0.951 -21.761   8.097  1.00  0.00    -0.293 OA
BRANCH   8  10
HETATM   10  C   UNL     1       2.199 -22.775   9.660  1.00  0.00     0.019 C 
HETATM   11  C   UNL     1       2.945 -24.086   9.477  1.00  0.00     0.039 C 
ENDBRANCH   8  10
ENDBRANCH   7   8
ENDBRANCH   1   7
BRANCH   3  12
HETATM   12  C   UNL     1       0.631 -17.243   9.318  1.00  0.00     0.088 C 
HETATM   13  C   UNL     1       0.256 -15.856   9.285  1.00  0.00     0.039 C 
HETATM   14  C   UNL     1      -1.095 -15.649   9.460  1.00  0.00     0.010 C 
HETATM   15  C   UNL     1      -1.828 -16.780   9.560  1.00  0.00     0.052 C 
HETATM   16  S   UNL     1      -0.911 -18.199   9.396  1.00  0.00    -0.083 SA
ENDBRANCH   3  12
TORSDOF 4
ENDMDL
MODEL 9
REMARK VINA RESULT:    -4.600     23.961     25.585
REMARK INTER + INTRA:          -6.090
REMARK INTER:                  -5.609
REMARK INTRA:                  -0.481
REMARK UNBOUND:                -0.414
REMARK  4 active torsions:
REMARK  status: ('A' for Active; 'I' for Inactive)
REMARK    1  A    between atoms: C_3  and  C_4 
REMARK    2  A    between atoms: C_4  and  C_5 
REMARK    3  A    between atoms: C_5  and  C_6 
REMARK       I    between atoms: C_6  and  N_12 
REMARK    4  A    between atoms: N_8  and  C_11 
ROOT
HETATM    1  C   UNL     1       9.394   0.116  21.549  1.00  0.00     0.243 C 
HETATM    2  O   UNL     1       8.649   0.460  20.644  1.00  0.00    -0.271 OA
HETATM    3  N   UNL     1       8.271  -1.939  21.913  1.00  0.00    -0.291 N 
ATOM      4  HN  UNL     1       7.729  -1.751  21.069  1.00  0.00     0.187 HD
HETATM    5  H   UNL     1       9.788  -1.377  22.997  1.00  0.00     0.190 HD
HETATM    6  N   UNL     1       9.233  -1.138  22.194  1.00  0.00    -0.269 N 
ENDROOT
BRANCH   1   7
HETATM    7  C   UNL     1      10.478   0.992  21.981  1.00  0.00     0.186 C 
BRANCH   7   8
HETATM    8  C   UNL     1      10.660   0.984  23.545  1.00  0.00     0.154 C 
HETATM    9  O   UNL     1       9.700   1.052  24.371  1.00  0.00    -0.293 OA
BRANCH   8  10
HETATM   10  C   UNL     1      11.915   1.067  24.020  1.00  0.00     0.019 C 
HETATM   11  C   UNL     1      12.728  -0.196  24.245  1.00  0.00     0.039 C 
ENDBRANCH   8  10
ENDBRANCH   7   8
ENDBRANCH   1   7
BRANCH   3  12
HETATM   12  C   UNL     1       7.932  -2.987  22.635  1.00  0.00     0.088 C 
HETATM   13  C   UNL     1       7.234  -4.192  22.279  1.00  0.00     0.039 C 
HETATM   14  C   UNL     1       7.049  -5.052  23.339  1.00  0.00     0.010 C 
HETATM   15  C   UNL     1       7.614  -4.645  24.498  1.00  0.00     0.052 C 
HETATM   16  S   UNL     1       8.465  -3.183  24.360  1.00  0.00    -0.083 SA
ENDBRANCH   3  12
TORSDOF 4
ENDMDL
