REMARK  4 active torsions:
REMARK  status: ('A' for Active; 'I' for Inactive)
REMARK    1  A    between atoms: C_3  and  C_4 
REMARK    2  A    between atoms: C_4  and  C_5 
REMARK    3  A    between atoms: C_5  and  C_6 
REMARK       I    between atoms: C_6  and  N_12 
REMARK    4  A    between atoms: N_8  and  C_11 
ROOT
HETATM    1  C   UNL     1      10.737  -0.803  22.825  1.00  0.00     0.243 C 
HETATM    2  O   UNL     1      11.649  -0.955  22.027  1.00  0.00    -0.271 OA
HETATM    3  N   UNL     1       9.102  -0.466  21.143  1.00  0.00    -0.291 N 
ATOM      4  HN  UNL     1       9.806  -0.735  20.456  1.00  0.00     0.187 HD
HETATM    5  H   UNL     1       8.676  -0.367  23.041  1.00  0.00     0.190 HD
HETATM    6  N   UNL     1       9.406  -0.583  22.384  1.00  0.00    -0.269 N 
ENDROOT
BRANCH   1   7
HETATM    7  C   UNL     1      11.000  -0.855  24.260  1.00  0.00     0.186 C 
BRANCH   7   8
HETATM    8  C   UNL     1      10.169  -1.985  24.975  1.00  0.00     0.154 C 
HETATM    9  O   UNL     1       9.910  -1.997  26.217  1.00  0.00    -0.293 OA
BRANCH   8  10
HETATM   10  C   UNL     1       9.854  -3.072  24.250  1.00  0.00     0.019 C 
HETATM   11  C   UNL     1       8.626  -3.893  24.605  1.00  0.00     0.039 C 
ENDBRANCH   8  10
ENDBRANCH   7   8
ENDBRANCH   1   7
BRANCH   3  12
HETATM   12  C   UNL     1       7.946  -0.024  20.692  1.00  0.00     0.088 C 
HETATM   13  C   UNL     1       7.478   0.197  19.351  1.00  0.00     0.039 C 
HETATM   14  C   UNL     1       6.196   0.697  19.293  1.00  0.00     0.010 C 
HETATM   15  C   UNL     1       5.587   0.823  20.493  1.00  0.00     0.052 C 
HETATM   16  S   UNL     1       6.536   0.285  21.794  1.00  0.00    -0.083 SA
ENDBRANCH   3  12
TORSDOF 4
