stable:False satoms:21 tatoms:24 sratio:0.875
  -OEChem-08062402563D

 26 26  0     1  0  0  0  0  0999 V2000
   11.6029    5.6769   23.1984 H   0  0  0  0  0  0  0  0  0  0  0  0
   12.0238    4.9655   23.8939 C   0  0  0  0  0  0  0  0  0  0  0  0
   11.8725    5.3264   24.9012 H   0  0  0  0  0  0  0  0  0  0  0  0
   13.0930    4.8902   23.7282 H   0  0  0  0  0  0  0  0  0  0  0  0
   10.1534    3.5484   23.0848 N   0  3  0  0  0  0  0  0  0  0  0  0
   11.2378    3.7159   23.5752 C   0  0  0  0  0  0  0  0  0  0  0  0
   10.7849    2.4409   23.1331 C   0  0  0  0  0  0  0  0  0  0  0  0
   12.2182    0.5215   23.3610 C   0  0  0  0  0  0  0  0  0  0  0  0
   12.9733    0.5210   22.5976 H   0  0  0  0  0  0  0  0  0  0  0  0
   13.1818   -1.1181   24.2599 H   0  0  0  0  0  0  0  0  0  0  0  0
   13.3807    0.3073   25.2011 H   0  0  0  0  0  0  0  0  0  0  0  0
   11.8054   -0.4561   25.2013 H   0  0  0  0  0  0  0  0  0  0  0  0
   12.6590   -0.2112   24.5739 C   0  0  0  0  0  0  0  0  0  0  0  0
   11.0303    1.0489   22.9843 C   0  0  0  0  0  0  0  0  0  0  0  0
   10.0995    0.1663   22.3106 C   0  0  0  0  0  0  0  0  0  0  0  0
    9.9660   -0.9961   22.6039 O   0  0  0  0  0  0  0  0  0  0  0  0
    9.0618    2.1702   21.9250 H   0  0  0  0  0  0  0  0  0  0  0  0
    9.2598    0.6492   20.9687 C   0  0  1  0  0  0  0  0  0  0  0  0
    7.1074    0.8267   21.1627 H   0  0  0  0  0  0  0  0  0  0  0  0
    7.6065   -0.8203   20.9167 H   0  0  0  0  0  0  0  0  0  0  0  0
    7.6308    0.2840   19.5493 H   0  0  0  0  0  0  0  0  0  0  0  0
    7.8089    0.1966   20.6186 C   0  0  0  0  0  0  0  0  0  0  0  0
    9.2520    1.9904   20.9453 O   0  0  0  0  0  0  0  0  0  0  0  0
    9.9192    0.2564   20.1983 H   0  0  0  0  0  0  0  0  0  0  0  0
    9.9731    3.9510   22.1873 H   0  0  0  0  0  0  0  0  0  0  0  0
    9.3486    3.6595   23.6678 H   0  0  0  0  0  0  0  0  0  0  0  0
 20 22  1  0  0  0  0
 19 22  1  0  0  0  0
 21 22  1  0  0  0  0
 18 22  1  0  0  0  0
 15 16  2  0  0  0  0
 18 24  1  0  0  0  0
 15 18  1  0  0  0  0
 18 23  1  0  0  0  0
 17 23  1  0  0  0  0
 14 15  1  0  0  0  0
 12 13  1  0  0  0  0
  7 14  1  0  0  0  0
  8 14  2  3  0  0  0
  5  7  1  0  0  0  0
  5  6  1  0  0  0  0
  6  7  2  0  0  0  0
  8 13  1  0  0  0  0
  8  9  1  0  0  0  0
 10 13  1  0  0  0  0
 11 13  1  0  0  0  0
  2  6  1  0  0  0  0
  1  2  1  0  0  0  0
  2  3  1  0  0  0  0
  2  4  1  0  0  0  0
  5 25  1  0  0  0  0
  5 26  1  0  0  0  0
M  CHG  1   5   1
M  END
> <Chemgauss4>
-6.122786

$$$$
