stable:False satoms:21 tatoms:24 sratio:0.875
  -OEChem-08062402563D

 26 26  0     1  0  0  0  0  0999 V2000
  -11.1670    5.9504  -23.4787 H   0  0  0  0  0  0  0  0  0  0  0  0
  -11.5599    5.2459  -24.1971 C   0  0  0  0  0  0  0  0  0  0  0  0
  -11.2958    5.5738  -25.1923 H   0  0  0  0  0  0  0  0  0  0  0  0
  -12.6424    5.2316  -24.1315 H   0  0  0  0  0  0  0  0  0  0  0  0
   -9.8541    3.7513  -23.1883 N   0  3  0  0  0  0  0  0  0  0  0  0
  -10.8772    3.9643  -23.7819 C   0  0  0  0  0  0  0  0  0  0  0  0
  -10.5385    2.6781  -23.2749 C   0  0  0  0  0  0  0  0  0  0  0  0
  -12.0481    0.8327  -23.6003 C   0  0  0  0  0  0  0  0  0  0  0  0
  -12.8699    0.8908  -22.9116 H   0  0  0  0  0  0  0  0  0  0  0  0
  -13.0129   -0.7746  -24.5547 H   0  0  0  0  0  0  0  0  0  0  0  0
  -13.0442    0.6363  -25.5374 H   0  0  0  0  0  0  0  0  0  0  0  0
  -11.5204   -0.2097  -25.3746 H   0  0  0  0  0  0  0  0  0  0  0  0
  -12.4138    0.0954  -24.8352 C   0  0  0  0  0  0  0  0  0  0  0  0
  -10.8732    1.3051  -23.1234 C   0  0  0  0  0  0  0  0  0  0  0  0
  -10.0592    0.3908  -22.3483 C   0  0  0  0  0  0  0  0  0  0  0  0
   -9.9634   -0.7838  -22.6055 O   0  0  0  0  0  0  0  0  0  0  0  0
   -8.9530    2.3454  -21.9047 H   0  0  0  0  0  0  0  0  0  0  0  0
   -9.3228    0.8606  -20.9426 C   0  0  1  0  0  0  0  0  0  0  0  0
   -7.1552    0.9187  -20.9361 H   0  0  0  0  0  0  0  0  0  0  0  0
   -7.7651   -0.6930  -20.7070 H   0  0  0  0  0  0  0  0  0  0  0  0
   -7.8557    0.4437  -19.3692 H   0  0  0  0  0  0  0  0  0  0  0  0
   -7.9380    0.3401  -20.4487 C   0  0  0  0  0  0  0  0  0  0  0  0
   -9.2432    2.1996  -20.9441 O   0  0  0  0  0  0  0  0  0  0  0  0
  -10.0718    0.5221  -20.2305 H   0  0  0  0  0  0  0  0  0  0  0  0
   -9.7362    4.1653  -22.2857 H   0  0  0  0  0  0  0  0  0  0  0  0
   -8.9935    3.8053  -23.6948 H   0  0  0  0  0  0  0  0  0  0  0  0
 20 22  1  0  0  0  0
 19 22  1  0  0  0  0
 21 22  1  0  0  0  0
 18 22  1  0  0  0  0
 15 16  2  0  0  0  0
 18 24  1  0  0  0  0
 15 18  1  0  0  0  0
 18 23  1  0  0  0  0
 17 23  1  0  0  0  0
 14 15  1  0  0  0  0
 12 13  1  0  0  0  0
  7 14  1  0  0  0  0
  8 14  2  3  0  0  0
  5  7  1  0  0  0  0
  5  6  1  0  0  0  0
  6  7  2  0  0  0  0
  8 13  1  0  0  0  0
  8  9  1  0  0  0  0
 10 13  1  0  0  0  0
 11 13  1  0  0  0  0
  2  6  1  0  0  0  0
  1  2  1  0  0  0  0
  2  3  1  0  0  0  0
  2  4  1  0  0  0  0
  5 25  1  0  0  0  0
  5 26  1  0  0  0  0
M  CHG  1   5   1
M  END
> <Chemgauss4>
-5.707025

$$$$
