REMARK  5 active torsions:
REMARK  status: ('A' for Active; 'I' for Inactive)
REMARK    1  A    between atoms: N_1  and  C_5 
REMARK    2  A    between atoms: N_3  and  C_14 
REMARK    3  A    between atoms: C_5  and  S_12 
REMARK    4  A    between atoms: C_10  and  O_18 
REMARK    5  A    between atoms: S_12  and  C_13 
ROOT
HETATM    1  C   UNL     1       7.154  -0.370  20.537  1.00  0.00     0.068 C 
HETATM    2  O   UNL     1      11.328  -0.535  22.779  1.00  0.00    -0.272 OA
HETATM    3  C   UNL     1      10.174  -0.542  22.290  1.00  0.00     0.255 A 
HETATM    4  CA  UNL     1       9.481  -0.126  21.433  1.00  0.00     0.089 A 
HETATM    5  C   UNL     1       7.989   0.620  19.957  1.00  0.00     0.069 C 
HETATM    6  C   UNL     1       7.658  -1.297  21.358  1.00  0.00     0.064 C 
HETATM    7  C   UNL     1       9.291   0.659  20.262  1.00  0.00     0.066 C 
HETATM    8  N   UNL     1       8.849  -0.949  22.015  1.00  0.00    -0.169 NA
ENDROOT
BRANCH   6   9
HETATM    9  S   UNL     1       7.082  -2.876  21.629  1.00  0.00    -0.102 SA
BRANCH   9  10
HETATM   10  C   UNL     1       7.626  -3.156  23.348  1.00  0.00     0.177 C 
BRANCH  10  11
HETATM   11  N   UNL     1       8.520  -2.208  23.799  1.00  0.00    -0.256 NA
HETATM   12  C   UNL     1       9.400  -1.810  24.610  1.00  0.00     0.067 A 
HETATM   13  C   UNL     1       8.948  -2.813  25.089  1.00  0.00     0.167 A 
BRANCH  12  14
HETATM   14  N   UNL     1      10.379  -0.885  25.109  1.00  0.00    -0.392 N 
HETATM   15  H   UNL     1      11.047  -0.351  24.620  1.00  0.00     0.157 HD
HETATM   16  H   UNL     1      10.721  -1.101  26.015  1.00  0.00     0.157 HD
ENDBRANCH  12  14
ENDBRANCH  10  11
ENDBRANCH   9  10
ENDBRANCH   6   9
BRANCH   5  17
HETATM   17  O   UNL     1       7.550   1.376  19.004  1.00  0.00    -0.361 OA
HETATM   18  H   UNL     1       7.571   2.281  18.967  1.00  0.00     0.217 HD
ENDBRANCH   5  17
TORSDOF 5
