MODEL 1
REMARK VINA RESULT:    -6.894      0.000      0.000
REMARK INTER + INTRA:         -10.536
REMARK INTER:                  -9.715
REMARK INTRA:                  -0.821
REMARK UNBOUND:                -0.821
REMARK  7 active torsions:
REMARK  status: ('A' for Active; 'I' for Inactive)
REMARK    1  A    between atoms: S_2  and  N_5 
REMARK    2  A    between atoms: N_5  and  C_7 
REMARK    3  A    between atoms: C_8  and  C_15 
REMARK    4  A    between atoms: C_9  and  S_10 
REMARK    5  A    between atoms: S_10  and  C_11 
REMARK    6  A    between atoms: C_11  and  C_12 
REMARK    7  A    between atoms: C_15  and  C_16 
REMARK       I    between atoms: C_16  and  N_18 
ROOT
HETATM    1  C   UNL     1       9.755  -1.449  22.990  1.00  0.00     0.247 A 
HETATM    2  O   UNL     1      10.428  -1.798  22.198  1.00  0.00    -0.335 OA
HETATM    3  C   UNL     1       8.894  -1.347  22.116  1.00  0.00     0.243 A 
ENDROOT
BRANCH   3   4
HETATM    4  C   UNL     1       8.142  -2.537  22.517  1.00  0.00    -0.030 C 
HETATM    5  C   UNL     1       7.439  -3.408  22.706  1.00  0.00     0.026 C 
BRANCH   5   6
HETATM    6  N   UNL     1       6.857  -4.418  23.108  1.00  0.00    -0.224 N 
ATOM      7  HN  UNL     1       7.207  -4.692  24.027  1.00  0.00     0.192 HD
BRANCH   6   8
HETATM    8  S   UNL     1       5.718  -5.427  22.618  1.00  0.00     0.216 S 
HETATM    9  O   UNL     1       4.518  -4.526  22.448  1.00  0.00    -0.577 OA
HETATM   10  O   UNL     1       6.117  -5.966  21.335  1.00  0.00    -0.577 OA
HETATM   11  O   UNL     1       5.459  -6.495  23.571  1.00  0.00    -0.577 OA
ENDBRANCH   6   8
ENDBRANCH   5   6
ENDBRANCH   3   4
BRANCH   3  12
HETATM   12  C   UNL     1       8.340  -0.185  21.180  1.00  0.00     0.273 C 
HETATM   13  O   UNL     1       8.931   0.860  21.051  1.00  0.00    -0.269 OA
HETATM   14  N   UNL     1       7.216  -0.613  20.704  1.00  0.00    -0.324 N 
HETATM   15  C   UNL     1       6.604   0.097  19.800  1.00  0.00     0.053 A 
ATOM     16  HN  UNL     1       6.814  -1.491  21.033  1.00  0.00     0.169 HD
HETATM   17  C   UNL     1       6.868   0.499  18.574  1.00  0.00     0.172 A 
HETATM   18  C   UNL     1       5.235   0.675  19.901  1.00  0.00     0.112 A 
HETATM   19  N   UNL     1       6.619   1.053  17.534  1.00  0.00    -0.387 N 
HETATM   20  C   UNL     1       5.568   1.399  18.015  1.00  0.00     0.206 A 
ATOM     21  HN  UNL     1       7.090   1.175  16.638  1.00  0.00     0.156 HD
HETATM   22  N   UNL     1       4.764   1.404  18.929  1.00  0.00    -0.374 N 
ATOM     23  HN  UNL     1       3.871   1.897  18.934  1.00  0.00     0.161 HD
ENDBRANCH   3  12
BRANCH   1  24
HETATM   24  S   UNL     1       9.644  -0.888  24.715  1.00  0.00    -0.105 SA
BRANCH  24  25
HETATM   25  C   UNL     1      10.799  -0.063  24.372  1.00  0.00     0.047 C 
BRANCH  25  26
HETATM   26  C   UNL     1      11.831   0.180  24.677  1.00  0.00    -0.004 C 
HETATM   27  C   UNL     1      12.729  -0.028  24.453  1.00  0.00     0.011 C 
ENDBRANCH  25  26
ENDBRANCH  24  25
ENDBRANCH   1  24
TORSDOF 7
ENDMDL
MODEL 2
REMARK VINA RESULT:    -6.565      2.357      5.386
REMARK INTER + INTRA:         -10.073
REMARK INTER:                  -9.194
REMARK INTRA:                  -0.879
REMARK UNBOUND:                -0.821
REMARK  7 active torsions:
REMARK  status: ('A' for Active; 'I' for Inactive)
REMARK    1  A    between atoms: S_2  and  N_5 
REMARK    2  A    between atoms: N_5  and  C_7 
REMARK    3  A    between atoms: C_8  and  C_15 
REMARK    4  A    between atoms: C_9  and  S_10 
REMARK    5  A    between atoms: S_10  and  C_11 
REMARK    6  A    between atoms: C_11  and  C_12 
REMARK    7  A    between atoms: C_15  and  C_16 
REMARK       I    between atoms: C_16  and  N_18 
ROOT
HETATM    1  C   UNL     1       7.116  -2.863  23.928  1.00  0.00     0.247 A 
HETATM    2  O   UNL     1       6.212  -2.420  24.363  1.00  0.00    -0.335 OA
HETATM    3  C   UNL     1       7.090  -1.940  23.114  1.00  0.00     0.243 A 
ENDROOT
BRANCH   3   4
HETATM    4  C   UNL     1       8.197  -1.192  23.714  1.00  0.00    -0.030 C 
HETATM    5  C   UNL     1       8.965  -0.629  24.333  1.00  0.00     0.026 C 
BRANCH   5   6
HETATM    6  N   UNL     1       9.924   0.016  24.762  1.00  0.00    -0.224 N 
ATOM      7  HN  UNL     1       9.829   0.176  25.765  1.00  0.00     0.192 HD
BRANCH   6   8
HETATM    8  S   UNL     1      11.273   0.676  24.214  1.00  0.00     0.216 S 
HETATM    9  O   UNL     1      11.315   0.217  22.776  1.00  0.00    -0.577 OA
HETATM   10  O   UNL     1      11.123   2.115  24.268  1.00  0.00    -0.577 OA
HETATM   11  O   UNL     1      12.452   0.250  24.951  1.00  0.00    -0.577 OA
ENDBRANCH   6   8
ENDBRANCH   5   6
ENDBRANCH   3   4
BRANCH   3  12
HETATM   12  C   UNL     1       6.529  -1.722  21.641  1.00  0.00     0.273 C 
HETATM   13  O   UNL     1       5.847  -2.554  21.094  1.00  0.00    -0.269 OA
HETATM   14  N   UNL     1       6.989  -0.578  21.248  1.00  0.00    -0.324 N 
HETATM   15  C   UNL     1       6.577  -0.091  20.112  1.00  0.00     0.053 A 
ATOM     16  HN  UNL     1       7.663  -0.066  21.817  1.00  0.00     0.169 HD
HETATM   17  C   UNL     1       5.422   0.301  19.613  1.00  0.00     0.172 A 
HETATM   18  C   UNL     1       7.422   0.252  18.935  1.00  0.00     0.112 A 
HETATM   19  N   UNL     1       4.707   0.766  18.763  1.00  0.00    -0.387 N 
HETATM   20  C   UNL     1       5.673   0.834  18.043  1.00  0.00     0.206 A 
ATOM     21  HN  UNL     1       3.718   1.000  18.686  1.00  0.00     0.156 HD
HETATM   22  N   UNL     1       6.866   0.694  17.842  1.00  0.00    -0.374 N 
ATOM     23  HN  UNL     1       7.349   0.890  16.965  1.00  0.00     0.161 HD
ENDBRANCH   3  12
BRANCH   1  24
HETATM   24  S   UNL     1       8.206  -4.317  23.909  1.00  0.00    -0.105 SA
BRANCH  24  25
HETATM   25  C   UNL     1       7.211  -4.873  22.995  1.00  0.00     0.047 C 
BRANCH  25  26
HETATM   26  C   UNL     1       7.029  -5.699  22.286  1.00  0.00    -0.004 C 
HETATM   27  C   UNL     1       6.396  -5.982  21.640  1.00  0.00     0.011 C 
ENDBRANCH  25  26
ENDBRANCH  24  25
ENDBRANCH   1  24
TORSDOF 7
ENDMDL
MODEL 3
REMARK VINA RESULT:    -6.557      3.143      6.293
REMARK INTER + INTRA:         -10.061
REMARK INTER:                  -8.986
REMARK INTRA:                  -1.075
REMARK UNBOUND:                -0.821
REMARK  7 active torsions:
REMARK  status: ('A' for Active; 'I' for Inactive)
REMARK    1  A    between atoms: S_2  and  N_5 
REMARK    2  A    between atoms: N_5  and  C_7 
REMARK    3  A    between atoms: C_8  and  C_15 
REMARK    4  A    between atoms: C_9  and  S_10 
REMARK    5  A    between atoms: S_10  and  C_11 
REMARK    6  A    between atoms: C_11  and  C_12 
REMARK    7  A    between atoms: C_15  and  C_16 
REMARK       I    between atoms: C_16  and  N_18 
ROOT
HETATM    1  C   UNL     1       8.867   0.343  23.333  1.00  0.00     0.247 A 
HETATM    2  O   UNL     1       8.247   0.589  24.203  1.00  0.00    -0.335 OA
HETATM    3  C   UNL     1       8.250  -0.722  23.284  1.00  0.00     0.243 A 
ENDROOT
BRANCH   3   4
HETATM    4  C   UNL     1       7.429  -0.357  22.128  1.00  0.00    -0.030 C 
HETATM    5  C   UNL     1       6.714  -0.234  21.255  1.00  0.00     0.026 C 
BRANCH   5   6
HETATM    6  N   UNL     1       6.073   0.137  20.268  1.00  0.00    -0.224 N 
ATOM      7  HN  UNL     1       5.136   0.432  20.540  1.00  0.00     0.192 HD
BRANCH   6   8
HETATM    8  S   UNL     1       6.276   0.292  18.689  1.00  0.00     0.216 S 
HETATM    9  O   UNL     1       7.776   0.385  18.548  1.00  0.00    -0.577 OA
HETATM   10  O   UNL     1       5.795  -0.916  18.054  1.00  0.00    -0.577 OA
HETATM   11  O   UNL     1       5.609   1.465  18.146  1.00  0.00    -0.577 OA
ENDBRANCH   6   8
ENDBRANCH   5   6
ENDBRANCH   3   4
BRANCH   3  12
HETATM   12  C   UNL     1       8.474  -2.204  23.818  1.00  0.00     0.273 C 
HETATM   13  O   UNL     1       9.334  -2.918  23.361  1.00  0.00    -0.269 OA
HETATM   14  N   UNL     1       7.569  -2.400  24.722  1.00  0.00    -0.324 N 
HETATM   15  C   UNL     1       7.603  -3.500  25.419  1.00  0.00     0.053 A 
ATOM     16  HN  UNL     1       6.840  -1.706  24.885  1.00  0.00     0.169 HD
HETATM   17  C   UNL     1       8.444  -4.059  26.265  1.00  0.00     0.172 A 
HETATM   18  C   UNL     1       6.533  -4.533  25.499  1.00  0.00     0.112 A 
HETATM   19  N   UNL     1       8.804  -4.909  27.037  1.00  0.00    -0.387 N 
HETATM   20  C   UNL     1       7.792  -5.515  26.781  1.00  0.00     0.206 A 
ATOM     21  HN  UNL     1       9.612  -5.055  27.642  1.00  0.00     0.156 HD
HETATM   22  N   UNL     1       6.723  -5.611  26.207  1.00  0.00    -0.374 N 
ATOM     23  HN  UNL     1       6.083  -6.403  26.269  1.00  0.00     0.161 HD
ENDBRANCH   3  12
BRANCH   1  24
HETATM   24  S   UNL     1      10.322   0.818  22.354  1.00  0.00    -0.105 SA
BRANCH  24  25
HETATM   25  C   UNL     1      11.078   0.250  23.467  1.00  0.00     0.047 C 
BRANCH  25  26
HETATM   26  C   UNL     1      11.987   0.388  24.078  1.00  0.00    -0.004 C 
HETATM   27  C   UNL     1      12.734  -0.099  24.399  1.00  0.00     0.011 C 
ENDBRANCH  25  26
ENDBRANCH  24  25
ENDBRANCH   1  24
TORSDOF 7
ENDMDL
MODEL 4
REMARK VINA RESULT:    -6.408      3.331      6.290
REMARK INTER + INTRA:          -9.851
REMARK INTER:                  -8.873
REMARK INTRA:                  -0.977
REMARK UNBOUND:                -0.821
REMARK  7 active torsions:
REMARK  status: ('A' for Active; 'I' for Inactive)
REMARK    1  A    between atoms: S_2  and  N_5 
REMARK    2  A    between atoms: N_5  and  C_7 
REMARK    3  A    between atoms: C_8  and  C_15 
REMARK    4  A    between atoms: C_9  and  S_10 
REMARK    5  A    between atoms: S_10  and  C_11 
REMARK    6  A    between atoms: C_11  and  C_12 
REMARK    7  A    between atoms: C_15  and  C_16 
REMARK       I    between atoms: C_16  and  N_18 
ROOT
HETATM    1  C   UNL     1       6.673  -3.647  22.837  1.00  0.00     0.247 A 
HETATM    2  O   UNL     1       7.330  -4.324  22.278  1.00  0.00    -0.335 OA
HETATM    3  C   UNL     1       7.559  -2.801  22.711  1.00  0.00     0.243 A 
ENDROOT
BRANCH   3   4
HETATM    4  C   UNL     1       6.865  -2.022  21.683  1.00  0.00    -0.030 C 
HETATM    5  C   UNL     1       6.414  -1.278  20.953  1.00  0.00     0.026 C 
BRANCH   5   6
HETATM    6  N   UNL     1       5.783  -0.688  20.073  1.00  0.00    -0.224 N 
ATOM      7  HN  UNL     1       4.783  -0.856  20.176  1.00  0.00     0.192 HD
BRANCH   6   8
HETATM    8  S   UNL     1       6.067   0.261  18.818  1.00  0.00     0.216 S 
HETATM    9  O   UNL     1       5.590  -0.569  17.651  1.00  0.00    -0.577 OA
HETATM   10  O   UNL     1       5.242   1.443  18.953  1.00  0.00    -0.577 OA
HETATM   11  O   UNL     1       7.471   0.621  18.686  1.00  0.00    -0.577 OA
ENDBRANCH   6   8
ENDBRANCH   5   6
ENDBRANCH   3   4
BRANCH   3  12
HETATM   12  C   UNL     1       8.783  -2.280  23.584  1.00  0.00     0.273 C 
HETATM   13  O   UNL     1       9.090  -2.812  24.623  1.00  0.00    -0.269 OA
HETATM   14  N   UNL     1       9.252  -1.246  22.964  1.00  0.00    -0.324 N 
HETATM   15  C   UNL     1      10.348  -0.694  23.400  1.00  0.00     0.053 A 
ATOM     16  HN  UNL     1       8.771  -0.869  22.147  1.00  0.00     0.169 HD
HETATM   17  C   UNL     1      11.603  -1.067  23.545  1.00  0.00     0.172 A 
HETATM   18  C   UNL     1      10.511   0.712  23.862  1.00  0.00     0.112 A 
HETATM   19  N   UNL     1      12.761  -0.900  23.831  1.00  0.00    -0.387 N 
HETATM   20  C   UNL     1      12.472   0.218  24.180  1.00  0.00     0.206 A 
ATOM     21  HN  UNL     1      13.612  -1.460  23.795  1.00  0.00     0.156 HD
HETATM   22  N   UNL     1      11.664   1.118  24.315  1.00  0.00    -0.374 N 
ATOM     23  HN  UNL     1      11.856   2.036  24.716  1.00  0.00     0.161 HD
ENDBRANCH   3  12
BRANCH   1  24
HETATM   24  S   UNL     1       5.166  -3.521  23.843  1.00  0.00    -0.105 SA
BRANCH  24  25
HETATM   25  C   UNL     1       5.778  -4.584  24.636  1.00  0.00     0.047 C 
BRANCH  25  26
HETATM   26  C   UNL     1       6.307  -4.785  25.583  1.00  0.00    -0.004 C 
HETATM   27  C   UNL     1       6.496  -5.498  26.178  1.00  0.00     0.011 C 
ENDBRANCH  25  26
ENDBRANCH  24  25
ENDBRANCH   1  24
TORSDOF 7
ENDMDL
MODEL 5
REMARK VINA RESULT:    -6.302     22.968     25.887
REMARK INTER + INTRA:          -9.701
REMARK INTER:                  -8.701
REMARK INTRA:                  -1.000
REMARK UNBOUND:                -0.821
REMARK  7 active torsions:
REMARK  status: ('A' for Active; 'I' for Inactive)
REMARK    1  A    between atoms: S_2  and  N_5 
REMARK    2  A    between atoms: N_5  and  C_7 
REMARK    3  A    between atoms: C_8  and  C_15 
REMARK    4  A    between atoms: C_9  and  S_10 
REMARK    5  A    between atoms: S_10  and  C_11 
REMARK    6  A    between atoms: C_11  and  C_12 
REMARK    7  A    between atoms: C_15  and  C_16 
REMARK       I    between atoms: C_16  and  N_18 
ROOT
HETATM    1  C   UNL     1       8.969  15.770   1.968  1.00  0.00     0.247 A 
HETATM    2  O   UNL     1       9.746  15.340   1.324  1.00  0.00    -0.335 OA
HETATM    3  C   UNL     1       9.265  14.899   2.785  1.00  0.00     0.243 A 
ENDROOT
BRANCH   3   4
HETATM    4  C   UNL     1       9.986  15.794   3.692  1.00  0.00    -0.030 C 
HETATM    5  C   UNL     1      10.591  16.340   4.483  1.00  0.00     0.026 C 
BRANCH   5   6
HETATM    6  N   UNL     1      11.161  17.157   5.210  1.00  0.00    -0.224 N 
ATOM      7  HN  UNL     1      11.082  16.882   6.189  1.00  0.00     0.192 HD
BRANCH   6   8
HETATM    8  S   UNL     1      11.986  18.520   5.073  1.00  0.00     0.216 S 
HETATM    9  O   UNL     1      13.105  18.146   4.131  1.00  0.00    -0.577 OA
HETATM   10  O   UNL     1      11.127  19.505   4.451  1.00  0.00    -0.577 OA
HETATM   11  O   UNL     1      12.493  19.005   6.347  1.00  0.00    -0.577 OA
ENDBRANCH   6   8
ENDBRANCH   5   6
ENDBRANCH   3   4
BRANCH   3  12
HETATM   12  C   UNL     1       8.728  13.450   3.164  1.00  0.00     0.273 C 
HETATM   13  O   UNL     1       9.313  12.743   3.949  1.00  0.00    -0.269 OA
HETATM   14  N   UNL     1       7.661  13.265   2.455  1.00  0.00    -0.324 N 
HETATM   15  C   UNL     1       6.942  12.199   2.664  1.00  0.00     0.053 A 
ATOM     16  HN  UNL     1       7.388  13.944   1.744  1.00  0.00     0.169 HD
HETATM   17  C   UNL     1       6.252  11.705   3.671  1.00  0.00     0.172 A 
HETATM   18  C   UNL     1       6.620  11.138   1.671  1.00  0.00     0.112 A 
HETATM   19  N   UNL     1       5.532  10.902   4.205  1.00  0.00    -0.387 N 
HETATM   20  C   UNL     1       5.566  10.254   3.187  1.00  0.00     0.206 A 
ATOM     21  HN  UNL     1       5.088  10.808   5.118  1.00  0.00     0.156 HD
HETATM   22  N   UNL     1       5.921  10.099   2.033  1.00  0.00    -0.374 N 
ATOM     23  HN  UNL     1       5.708   9.292   1.448  1.00  0.00     0.161 HD
ENDBRANCH   3  12
BRANCH   1  24
HETATM   24  S   UNL     1       7.573  16.931   2.052  1.00  0.00    -0.105 SA
BRANCH  24  25
HETATM   25  C   UNL     1       8.125  17.462   0.808  1.00  0.00     0.047 C 
BRANCH  25  26
HETATM   26  C   UNL     1       8.444  18.395   0.312  1.00  0.00    -0.004 C 
HETATM   27  C   UNL     1       8.093  19.101  -0.213  1.00  0.00     0.011 C 
ENDBRANCH  25  26
ENDBRANCH  24  25
ENDBRANCH   1  24
TORSDOF 7
ENDMDL
MODEL 6
REMARK VINA RESULT:    -6.233      4.356      6.788
REMARK INTER + INTRA:          -9.604
REMARK INTER:                  -8.388
REMARK INTRA:                  -1.217
REMARK UNBOUND:                -0.821
REMARK  7 active torsions:
REMARK  status: ('A' for Active; 'I' for Inactive)
REMARK    1  A    between atoms: S_2  and  N_5 
REMARK    2  A    between atoms: N_5  and  C_7 
REMARK    3  A    between atoms: C_8  and  C_15 
REMARK    4  A    between atoms: C_9  and  S_10 
REMARK    5  A    between atoms: S_10  and  C_11 
REMARK    6  A    between atoms: C_11  and  C_12 
REMARK    7  A    between atoms: C_15  and  C_16 
REMARK       I    between atoms: C_16  and  N_18 
ROOT
HETATM    1  C   UNL     1       5.313  -4.412  24.708  1.00  0.00     0.247 A 
HETATM    2  O   UNL     1       5.081  -3.340  24.695  1.00  0.00    -0.335 OA
HETATM    3  C   UNL     1       6.400  -4.097  25.195  1.00  0.00     0.243 A 
ENDROOT
BRANCH   3   4
HETATM    4  C   UNL     1       6.076  -4.532  26.555  1.00  0.00    -0.030 C 
HETATM    5  C   UNL     1       5.904  -4.717  27.662  1.00  0.00     0.026 C 
BRANCH   5   6
HETATM    6  N   UNL     1       5.612  -5.157  28.776  1.00  0.00    -0.224 N 
ATOM      7  HN  UNL     1       4.886  -4.585  29.208  1.00  0.00     0.192 HD
BRANCH   6   8
HETATM    8  S   UNL     1       6.032  -6.358  29.745  1.00  0.00     0.216 S 
HETATM    9  O   UNL     1       4.752  -7.147  29.881  1.00  0.00    -0.577 OA
HETATM   10  O   UNL     1       7.033  -7.153  29.067  1.00  0.00    -0.577 OA
HETATM   11  O   UNL     1       6.522  -5.899  31.036  1.00  0.00    -0.577 OA
ENDBRANCH   6   8
ENDBRANCH   5   6
ENDBRANCH   3   4
BRANCH   3  12
HETATM   12  C   UNL     1       7.867  -3.820  24.646  1.00  0.00     0.273 C 
HETATM   13  O   UNL     1       8.631  -4.722  24.398  1.00  0.00    -0.269 OA
HETATM   14  N   UNL     1       7.994  -2.534  24.593  1.00  0.00    -0.324 N 
HETATM   15  C   UNL     1       9.066  -2.028  24.053  1.00  0.00     0.053 A 
ATOM     16  HN  UNL     1       7.266  -1.925  24.968  1.00  0.00     0.169 HD
HETATM   17  C   UNL     1       9.623  -2.044  22.859  1.00  0.00     0.172 A 
HETATM   18  C   UNL     1      10.054  -1.132  24.714  1.00  0.00     0.112 A 
HETATM   19  N   UNL     1      10.456  -1.742  22.045  1.00  0.00    -0.387 N 
HETATM   20  C   UNL     1      11.032  -1.137  22.915  1.00  0.00     0.206 A 
ATOM     21  HN  UNL     1      10.608  -1.919  21.052  1.00  0.00     0.156 HD
HETATM   22  N   UNL     1      11.110  -0.734  24.062  1.00  0.00    -0.374 N 
ATOM     23  HN  UNL     1      11.874  -0.179  24.447  1.00  0.00     0.161 HD
ENDBRANCH   3  12
BRANCH   1  24
HETATM   24  S   UNL     1       4.797  -6.058  24.139  1.00  0.00    -0.105 SA
BRANCH  24  25
HETATM   25  C   UNL     1       5.152  -5.555  22.814  1.00  0.00     0.047 C 
BRANCH  25  26
HETATM   26  C   UNL     1       5.827  -5.725  21.958  1.00  0.00    -0.004 C 
HETATM   27  C   UNL     1       6.660  -6.128  21.752  1.00  0.00     0.011 C 
ENDBRANCH  25  26
ENDBRANCH  24  25
ENDBRANCH   1  24
TORSDOF 7
ENDMDL
MODEL 7
REMARK VINA RESULT:    -6.078     19.490     22.798
REMARK INTER + INTRA:          -9.385
REMARK INTER:                  -8.424
REMARK INTRA:                  -0.961
REMARK UNBOUND:                -0.821
REMARK  7 active torsions:
REMARK  status: ('A' for Active; 'I' for Inactive)
REMARK    1  A    between atoms: S_2  and  N_5 
REMARK    2  A    between atoms: N_5  and  C_7 
REMARK    3  A    between atoms: C_8  and  C_15 
REMARK    4  A    between atoms: C_9  and  S_10 
REMARK    5  A    between atoms: S_10  and  C_11 
REMARK    6  A    between atoms: C_11  and  C_12 
REMARK    7  A    between atoms: C_15  and  C_16 
REMARK       I    between atoms: C_16  and  N_18 
ROOT
HETATM    1  C   UNL     1       5.169  10.524   2.008  1.00  0.00     0.247 A 
HETATM    2  O   UNL     1       5.509   9.665   1.417  1.00  0.00    -0.335 OA
HETATM    3  C   UNL     1       5.683   9.968   2.979  1.00  0.00     0.243 A 
ENDROOT
BRANCH   3   4
HETATM    4  C   UNL     1       6.846  10.854   3.050  1.00  0.00    -0.030 C 
HETATM    5  C   UNL     1       7.630  11.669   3.150  1.00  0.00     0.026 C 
BRANCH   5   6
HETATM    6  N   UNL     1       8.654  12.356   3.175  1.00  0.00    -0.224 N 
ATOM      7  HN  UNL     1       9.444  11.837   2.791  1.00  0.00     0.192 HD
BRANCH   6   8
HETATM    8  S   UNL     1       9.112  13.819   3.630  1.00  0.00     0.216 S 
HETATM    9  O   UNL     1       9.450  14.491   2.322  1.00  0.00    -0.577 OA
HETATM   10  O   UNL     1       7.976  14.475   4.242  1.00  0.00    -0.577 OA
HETATM   11  O   UNL     1      10.250  13.800   4.537  1.00  0.00    -0.577 OA
ENDBRANCH   6   8
ENDBRANCH   5   6
ENDBRANCH   3   4
BRANCH   3  12
HETATM   12  C   UNL     1       5.188   9.010   4.149  1.00  0.00     0.273 C 
HETATM   13  O   UNL     1       5.078   9.404   5.285  1.00  0.00    -0.269 OA
HETATM   14  N   UNL     1       5.006   7.848   3.610  1.00  0.00    -0.324 N 
HETATM   15  C   UNL     1       4.475   6.898   4.325  1.00  0.00     0.053 A 
ATOM     16  HN  UNL     1       5.275   7.679   2.641  1.00  0.00     0.169 HD
HETATM   17  C   UNL     1       3.321   6.700   4.929  1.00  0.00     0.172 A 
HETATM   18  C   UNL     1       5.090   5.581   4.649  1.00  0.00     0.112 A 
HETATM   19  N   UNL     1       2.525   6.064   5.570  1.00  0.00    -0.387 N 
HETATM   20  C   UNL     1       3.357   5.196   5.669  1.00  0.00     0.206 A 
ATOM     21  HN  UNL     1       1.566   6.199   5.890  1.00  0.00     0.156 HD
HETATM   22  N   UNL     1       4.457   4.739   5.416  1.00  0.00    -0.374 N 
ATOM     23  HN  UNL     1       4.822   3.847   5.749  1.00  0.00     0.161 HD
ENDBRANCH   3  12
BRANCH   1  24
HETATM   24  S   UNL     1       4.128  12.012   2.016  1.00  0.00    -0.105 SA
BRANCH  24  25
HETATM   25  C   UNL     1       3.019  11.063   2.046  1.00  0.00     0.047 C 
BRANCH  25  26
HETATM   26  C   UNL     1       2.241  10.594   1.418  1.00  0.00    -0.004 C 
HETATM   27  C   UNL     1       1.526  10.830   0.843  1.00  0.00     0.011 C 
ENDBRANCH  25  26
ENDBRANCH  24  25
ENDBRANCH   1  24
TORSDOF 7
ENDMDL
MODEL 8
REMARK VINA RESULT:    -6.074      6.458      8.474
REMARK INTER + INTRA:          -9.380
REMARK INTER:                  -8.430
REMARK INTRA:                  -0.950
REMARK UNBOUND:                -0.821
REMARK  7 active torsions:
REMARK  status: ('A' for Active; 'I' for Inactive)
REMARK    1  A    between atoms: S_2  and  N_5 
REMARK    2  A    between atoms: N_5  and  C_7 
REMARK    3  A    between atoms: C_8  and  C_15 
REMARK    4  A    between atoms: C_9  and  S_10 
REMARK    5  A    between atoms: S_10  and  C_11 
REMARK    6  A    between atoms: C_11  and  C_12 
REMARK    7  A    between atoms: C_15  and  C_16 
REMARK       I    between atoms: C_16  and  N_18 
ROOT
HETATM    1  C   UNL     1       4.885  -6.434  24.217  1.00  0.00     0.247 A 
HETATM    2  O   UNL     1       5.052  -7.475  23.913  1.00  0.00    -0.335 OA
HETATM    3  C   UNL     1       3.826  -6.824  24.709  1.00  0.00     0.243 A 
ENDROOT
BRANCH   3   4
HETATM    4  C   UNL     1       4.285  -6.762  26.098  1.00  0.00    -0.030 C 
HETATM    5  C   UNL     1       4.547  -6.562  27.185  1.00  0.00     0.026 C 
BRANCH   5   6
HETATM    6  N   UNL     1       4.985  -6.571  28.337  1.00  0.00    -0.224 N 
ATOM      7  HN  UNL     1       4.230  -6.718  29.007  1.00  0.00     0.192 HD
BRANCH   6   8
HETATM    8  S   UNL     1       6.386  -6.421  29.094  1.00  0.00     0.216 S 
HETATM    9  O   UNL     1       6.099  -5.361  30.130  1.00  0.00    -0.577 OA
HETATM   10  O   UNL     1       6.682  -7.679  29.744  1.00  0.00    -0.577 OA
HETATM   11  O   UNL     1       7.469  -6.028  28.206  1.00  0.00    -0.577 OA
ENDBRANCH   6   8
ENDBRANCH   5   6
ENDBRANCH   3   4
BRANCH   3  12
HETATM   12  C   UNL     1       2.304  -6.898  24.249  1.00  0.00     0.273 C 
HETATM   13  O   UNL     1       1.398  -6.827  25.045  1.00  0.00    -0.269 OA
HETATM   14  N   UNL     1       2.324  -7.075  22.968  1.00  0.00    -0.324 N 
HETATM   15  C   UNL     1       1.201  -7.045  22.310  1.00  0.00     0.053 A 
ATOM     16  HN  UNL     1       3.206  -7.236  22.481  1.00  0.00     0.169 HD
HETATM   17  C   UNL     1       0.261  -6.151  22.083  1.00  0.00     0.172 A 
HETATM   18  C   UNL     1       0.628  -8.142  21.482  1.00  0.00     0.112 A 
HETATM   19  N   UNL     1      -0.763  -5.751  21.592  1.00  0.00    -0.387 N 
HETATM   20  C   UNL     1      -0.916  -6.848  21.113  1.00  0.00     0.206 A 
ATOM     21  HN  UNL     1      -1.277  -4.870  21.584  1.00  0.00     0.156 HD
HETATM   22  N   UNL     1      -0.534  -7.986  20.911  1.00  0.00    -0.374 N 
ATOM     23  HN  UNL     1      -1.038  -8.699  20.384  1.00  0.00     0.161 HD
ENDBRANCH   3  12
BRANCH   1  24
HETATM   24  S   UNL     1       5.448  -4.717  24.033  1.00  0.00    -0.105 SA
BRANCH  24  25
HETATM   25  C   UNL     1       6.544  -5.308  23.270  1.00  0.00     0.047 C 
BRANCH  25  26
HETATM   26  C   UNL     1       7.045  -5.289  22.287  1.00  0.00    -0.004 C 
HETATM   27  C   UNL     1       7.131  -5.811  21.500  1.00  0.00     0.011 C 
ENDBRANCH  25  26
ENDBRANCH  24  25
ENDBRANCH   1  24
TORSDOF 7
ENDMDL
MODEL 9
REMARK VINA RESULT:    -5.979      3.942      6.261
REMARK INTER + INTRA:          -9.247
REMARK INTER:                  -8.268
REMARK INTRA:                  -0.979
REMARK UNBOUND:                -0.821
REMARK  7 active torsions:
REMARK  status: ('A' for Active; 'I' for Inactive)
REMARK    1  A    between atoms: S_2  and  N_5 
REMARK    2  A    between atoms: N_5  and  C_7 
REMARK    3  A    between atoms: C_8  and  C_15 
REMARK    4  A    between atoms: C_9  and  S_10 
REMARK    5  A    between atoms: S_10  and  C_11 
REMARK    6  A    between atoms: C_11  and  C_12 
REMARK    7  A    between atoms: C_15  and  C_16 
REMARK       I    between atoms: C_16  and  N_18 
ROOT
HETATM    1  C   UNL     1       9.193   0.949  23.499  1.00  0.00     0.247 A 
HETATM    2  O   UNL     1       8.600   0.183  24.014  1.00  0.00    -0.335 OA
HETATM    3  C   UNL     1       8.121   1.476  23.202  1.00  0.00     0.243 A 
ENDROOT
BRANCH   3   4
HETATM    4  C   UNL     1       8.229   2.572  24.166  1.00  0.00    -0.030 C 
HETATM    5  C   UNL     1       8.309   3.530  24.771  1.00  0.00     0.026 C 
BRANCH   5   6
HETATM    6  N   UNL     1       8.417   4.398  25.641  1.00  0.00    -0.224 N 
ATOM      7  HN  UNL     1       8.311   3.989  26.569  1.00  0.00     0.192 HD
BRANCH   6   8
HETATM    8  S   UNL     1       8.674   5.973  25.746  1.00  0.00     0.216 S 
HETATM    9  O   UNL     1       7.293   6.554  25.561  1.00  0.00    -0.577 OA
HETATM   10  O   UNL     1       9.156   6.260  27.080  1.00  0.00    -0.577 OA
HETATM   11  O   UNL     1       9.605   6.463  24.741  1.00  0.00    -0.577 OA
ENDBRANCH   6   8
ENDBRANCH   5   6
ENDBRANCH   3   4
BRANCH   3  12
HETATM   12  C   UNL     1       7.136   1.449  21.953  1.00  0.00     0.273 C 
HETATM   13  O   UNL     1       6.334   2.331  21.760  1.00  0.00    -0.269 OA
HETATM   14  N   UNL     1       7.383   0.345  21.324  1.00  0.00    -0.324 N 
HETATM   15  C   UNL     1       6.799   0.127  20.180  1.00  0.00     0.053 A 
ATOM     16  HN  UNL     1       8.024  -0.343  21.718  1.00  0.00     0.169 HD
HETATM   17  C   UNL     1       6.797   0.699  18.994  1.00  0.00     0.172 A 
HETATM   18  C   UNL     1       5.899  -1.011  19.847  1.00  0.00     0.112 A 
HETATM   19  N   UNL     1       6.482   0.800  17.837  1.00  0.00    -0.387 N 
HETATM   20  C   UNL     1       5.780  -0.170  17.984  1.00  0.00     0.206 A 
ATOM     21  HN  UNL     1       6.709   1.431  17.068  1.00  0.00     0.156 HD
HETATM   22  N   UNL     1       5.348  -1.080  18.667  1.00  0.00    -0.374 N 
ATOM     23  HN  UNL     1       4.668  -1.779  18.368  1.00  0.00     0.161 HD
ENDBRANCH   3  12
BRANCH   1  24
HETATM   24  S   UNL     1      10.848   1.408  22.905  1.00  0.00    -0.105 SA
BRANCH  24  25
HETATM   25  C   UNL     1      11.307   0.349  23.801  1.00  0.00     0.047 C 
BRANCH  25  26
HETATM   26  C   UNL     1      12.161   0.028  24.422  1.00  0.00    -0.004 C 
HETATM   27  C   UNL     1      13.039  -0.318  24.335  1.00  0.00     0.011 C 
ENDBRANCH  25  26
ENDBRANCH  24  25
ENDBRANCH   1  24
TORSDOF 7
ENDMDL
