stable:False satoms:9 tatoms:24 sratio:0.375
  -OEChem-07092417423D

 24 26  0     1  0  0  0  0  0999 V2000
    6.7446   -4.8351   26.3298 O   0  0  0  0  0  0  0  0  0  0  0  0
    8.1528   -4.3348   26.1152 S   0  0  0  0  0  0  0  0  0  0  0  0
    9.0606   -5.4548   25.9925 O   0  0  0  0  0  0  0  0  0  0  0  0
    8.5762   -3.4393   27.1802 O   0  5  0  0  0  0  0  0  0  0  0  0
    8.0628   -3.6108   24.6924 N   0  0  0  0  0  0  0  0  0  0  0  0
    8.7088   -2.8056   24.0165 C   0  0  0  0  0  0  0  0  0  0  0  0
    9.0752   -1.9970   23.3090 C   0  0  0  0  0  0  0  0  0  0  0  0
   10.7869   -0.9740   23.1371 C   0  0  3  0  0  0  0  0  0  0  0  0
   11.0766    0.0114   24.6358 S   0  0  0  0  0  0  0  0  0  0  0  0
   12.4065    0.2220   24.0681 C   0  0  0  0  0  0  0  0  0  0  0  0
   13.1629   -0.2291   23.4034 C   0  0  0  0  0  0  0  0  0  0  0  0
   13.3250   -1.0236   22.9128 C   0  0  0  0  0  0  0  0  0  0  0  0
   11.2567   -1.5708   22.3459 O   0  0  0  0  0  0  0  0  0  0  0  0
    9.7589   -1.0188   22.4610 C   0  0  1  0  0  0  0  0  0  0  0  0
    9.0512   -0.0857   21.3836 C   0  0  0  0  0  0  0  0  0  0  0  0
    9.6175    0.8651   20.9011 O   0  0  0  0  0  0  0  0  0  0  0  0
    7.8539   -0.5537   21.2346 N   0  0  0  0  0  0  0  0  0  0  0  0
    7.0911   -0.0489   20.3084 C   0  0  0  0  0  0  0  0  0  0  0  0
    7.1269    0.0350   18.9937 C   0  0  0  0  0  0  0  0  0  0  0  0
    6.6944    0.3372   17.9116 N   0  0  0  0  0  0  0  0  0  0  0  0
    5.7538    0.8439   18.4728 C   0  0  1  0  0  0  0  0  0  0  0  0
    5.1331    1.1100   19.4860 N   0  0  0  0  0  0  0  0  0  0  0  0
    5.7700    0.6091   20.5074 C   0  0  0  0  0  0  0  0  0  0  0  0
    5.3376    0.6581   21.4977 H   0  0  0  0  0  0  0  0  0  0  0  0
 20 21  1  0  0  0  0
 19 20  2  0  0  0  0
 19 21  1  0  0  0  0
 21 22  1  0  0  0  0
 18 19  1  0  0  0  0
 22 23  1  0  0  0  0
 18 23  2  0  0  0  0
 17 18  1  0  0  0  0
 23 24  1  0  0  0  0
 15 16  2  0  0  0  0
 15 17  1  0  0  0  0
 14 15  1  0  0  0  0
 13 14  1  0  0  0  0
  8 13  1  0  0  0  0
  8 14  1  0  0  0  0
  7 14  1  0  0  0  0
 11 12  2  0  0  0  0
  8  9  1  0  0  0  0
  6  7  3  0  0  0  0
 10 11  1  0  0  0  0
  5  6  1  0  0  0  0
  9 10  1  0  0  0  0
  2  5  1  0  0  0  0
  2  3  2  0  0  0  0
  1  2  2  0  0  0  0
  2  4  1  0  0  0  0
M  CHG  1   4  -1
M  END
> <Shapegauss>
-285.282104

$$$$
