stable:False satoms:5 tatoms:24 sratio:0.20833333333333334
  -OEChem-07092417503D

 24 25  0     1  0  0  0  0  0999 V2000
    6.6258   -4.8414   26.4346 C   0  0  0  0  0  0  0  0  0  0  0  0
    8.1947   -4.3058   26.1136 S   0  0  0  0  0  0  0  0  0  0  0  0
    9.0430   -5.4838   26.0493 O   0  0  0  0  0  0  0  0  0  0  0  0
    8.6118   -3.4285   27.1786 O   0  0  0  0  0  0  0  0  0  0  0  0
    8.0804   -3.5341   24.7045 N   0  0  0  0  0  0  0  0  0  0  0  0
    8.9711   -2.9123   24.1488 C   0  0  0  0  0  0  0  0  0  0  0  0
    9.4079   -1.9669   23.5015 C   0  0  0  0  0  0  0  0  0  0  0  0
   10.3149   -1.1602   23.2467 C   0  0  1  0  0  0  0  0  0  0  0  0
   11.0142    0.0209   24.2904 C   0  0  0  0  0  0  0  0  0  0  0  0
   12.0613    0.3203   24.2326 C   0  0  0  0  0  0  0  0  0  0  0  0
   13.0966   -0.1320   23.4928 C   0  0  0  0  0  0  0  0  0  0  0  0
   12.7651   -1.3029   22.6415 C   0  0  0  0  0  0  0  0  0  0  0  0
   11.8324   -1.7521   22.5194 C   0  0  0  0  0  0  0  0  0  0  0  0
    9.6877   -0.5674   22.3814 C   0  0  0  0  0  0  0  0  0  0  0  0
    9.0561    0.0391   21.3886 C   0  0  0  0  0  0  0  0  0  0  0  0
    9.5613    0.9939   20.9916 O   0  0  0  0  0  0  0  0  0  0  0  0
    7.9336   -0.5828   21.0596 N   0  0  0  0  0  0  0  0  0  0  0  0
    7.1970   -0.1461   20.1480 C   0  0  0  0  0  0  0  0  0  0  0  0
    7.2636   -0.0249   18.8638 C   0  0  0  0  0  0  0  0  0  0  0  0
    6.7593    0.3619   17.7661 N   0  0  0  0  0  0  0  0  0  0  0  0
    5.6658    0.8899   18.2366 C   0  0  0  0  0  0  0  0  0  0  0  0
    5.2520    1.0012   19.3838 C   0  0  0  0  0  0  0  0  0  0  0  0
    5.8351    0.5562   20.5439 C   0  0  0  0  0  0  0  0  0  0  0  0
    5.3536    0.6678   21.9790 C   0  0  0  0  0  0  0  0  0  0  0  0
 20 21  2  0  0  0  0
 19 20  1  0  0  0  0
 21 22  1  0  0  0  0
 18 19  2  0  0  0  0
 22 23  2  0  0  0  0
 18 23  1  0  0  0  0
 17 18  1  0  0  0  0
 23 24  1  0  0  0  0
 15 16  2  0  0  0  0
 15 17  1  0  0  0  0
 14 15  1  0  0  0  0
  8 14  1  0  0  0  0
 12 13  1  0  0  0  0
  8 13  1  0  0  0  0
 11 12  2  0  0  0  0
  7  8  1  0  0  0  0
  8  9  1  0  0  0  0
 10 11  1  0  0  0  0
  6  7  2  3  0  0  0
  5  6  1  0  0  0  0
  9 10  2  0  0  0  0
  2  5  1  0  0  0  0
  2  3  2  0  0  0  0
  1  2  1  0  0  0  0
  2  4  2  0  0  0  0
M  END
> <Shapegauss>
-286.145233

$$$$
