stable:False satoms:20 tatoms:24 sratio:0.8333333333333334
  -OEChem-08052414423D

 26 26  0     1  0  0  0  0  0999 V2000
    8.7235   -2.1513   22.9947 C   0  0  0  0  0  0  0  0  0  0  0  0
   10.8758   -2.1702   23.6044 H   0  0  0  0  0  0  0  0  0  0  0  0
    7.0765   -2.1556   25.8142 C   0  0  0  0  0  0  0  0  0  0  0  0
    7.4896   -2.5106   23.3348 C   0  0  0  0  0  0  0  0  0  0  0  0
    5.8002   -2.9845   24.4097 H   0  0  0  0  0  0  0  0  0  0  0  0
    8.1907   -1.3655   26.2914 C   0  0  0  0  0  0  0  0  0  0  0  0
    9.6242   -1.4956   24.9420 H   0  0  0  0  0  0  0  0  0  0  0  0
   10.2720   -1.5151   23.0431 C   0  0  1  0  0  0  0  0  0  0  0  0
    6.9478   -2.8094   22.4487 H   0  0  0  0  0  0  0  0  0  0  0  0
   11.4243    0.3317   24.1500 O   0  0  0  0  0  0  0  0  0  0  0  0
   12.5179   -0.7686   25.4603 H   0  0  0  0  0  0  0  0  0  0  0  0
   10.1078    0.4220   22.4657 H   0  0  0  0  0  0  0  0  0  0  0  0
    6.7671   -2.5611   24.5273 C   0  0  0  0  0  0  0  0  0  0  0  0
    8.0266   -0.8786   27.2328 H   0  0  0  0  0  0  0  0  0  0  0  0
   11.7409    0.0003   22.2181 H   0  0  0  0  0  0  0  0  0  0  0  0
   14.1612   -1.5975   23.8506 H   0  0  0  0  0  0  0  0  0  0  0  0
   12.6794   -0.2589   24.5148 C   0  0  0  0  0  0  0  0  0  0  0  0
   13.3535    0.5700   24.6892 H   0  0  0  0  0  0  0  0  0  0  0  0
    9.2857   -1.0987   25.8877 C   0  0  0  0  0  0  0  0  0  0  0  0
    6.3794   -2.4113   26.5845 H   0  0  0  0  0  0  0  0  0  0  0  0
    9.4143   -1.9693   22.0223 O   0  0  0  0  0  0  0  0  0  0  0  0
   10.9122   -0.1413   22.9132 C   0  0  0  0  0  0  0  0  0  0  0  0
   13.2016   -1.1837   23.5071 C   0  0  0  0  0  0  0  0  0  0  0  0
   13.3526   -0.6460   22.5594 H   0  0  0  0  0  0  0  0  0  0  0  0
    9.9351   -0.4611   26.4692 H   0  0  0  0  0  0  0  0  0  0  0  0
   12.4833   -2.0025   23.3537 H   0  0  0  0  0  0  0  0  0  0  0  0
 16 23  1  0  0  0  0
 23 24  1  0  0  0  0
 17 23  1  0  0  0  0
 17 18  1  0  0  0  0
 15 22  1  0  0  0  0
 10 17  1  0  0  0  0
 11 17  1  0  0  0  0
 10 22  1  0  0  0  0
 12 22  1  0  0  0  0
  8 22  1  0  0  0  0
  2  8  1  0  0  0  0
  8 21  1  0  0  0  0
  1  8  1  0  0  0  0
  1 21  1  0  0  0  0
  1  4  2  0  0  0  0
  7 19  1  0  0  0  0
  6 19  2  0  0  0  0
  4  9  1  0  0  0  0
  4 13  1  0  0  0  0
  6 14  1  0  0  0  0
  3  6  1  0  0  0  0
  3 13  2  0  0  0  0
  5 13  1  0  0  0  0
  3 20  1  0  0  0  0
 19 25  1  0  0  0  0
 23 26  1  0  0  0  0
M  END
> <Chemgauss4>
-5.795942

$$$$
