stable:False satoms:20 tatoms:24 sratio:0.8333333333333334
  -OEChem-08052414423D

 26 26  0     1  0  0  0  0  0999 V2000
  -11.0915    1.2969  -24.0097 C   0  0  0  0  0  0  0  0  0  0  0  0
   -8.9478    0.7577  -23.6661 H   0  0  0  0  0  0  0  0  0  0  0  0
  -12.7215   -1.4916  -23.5301 C   0  0  0  0  0  0  0  0  0  0  0  0
  -12.2794    0.8500  -24.4052 C   0  0  0  0  0  0  0  0  0  0  0  0
  -13.9062   -0.3504  -24.7881 H   0  0  0  0  0  0  0  0  0  0  0  0
  -11.6961   -1.7440  -22.5410 C   0  0  0  0  0  0  0  0  0  0  0  0
  -10.2605   -0.4224  -22.8322 H   0  0  0  0  0  0  0  0  0  0  0  0
   -9.6191    1.4380  -23.2242 C   0  0  1  0  0  0  0  0  0  0  0  0
  -12.7889    1.6286  -24.9550 H   0  0  0  0  0  0  0  0  0  0  0  0
   -8.6664    0.8171  -21.0631 O   0  0  0  0  0  0  0  0  0  0  0  0
   -7.4588   -0.6810  -21.7120 H   0  0  0  0  0  0  0  0  0  0  0  0
   -9.9894    2.4408  -21.5008 H   0  0  0  0  0  0  0  0  0  0  0  0
  -12.9894   -0.3413  -24.2521 C   0  0  0  0  0  0  0  0  0  0  0  0
  -11.9084   -2.5522  -21.8688 H   0  0  0  0  0  0  0  0  0  0  0  0
   -8.3214    2.6288  -21.7986 H   0  0  0  0  0  0  0  0  0  0  0  0
   -5.7410    0.7389  -22.7179 H   0  0  0  0  0  0  0  0  0  0  0  0
   -7.3547    0.3603  -21.4213 C   0  0  0  0  0  0  0  0  0  0  0  0
   -6.7719    0.3996  -20.5099 H   0  0  0  0  0  0  0  0  0  0  0  0
  -10.6366   -1.2603  -22.2640 C   0  0  0  0  0  0  0  0  0  0  0  0
  -13.3855   -2.3186  -23.6706 H   0  0  0  0  0  0  0  0  0  0  0  0
  -10.4265    2.3034  -23.9880 O   0  0  0  0  0  0  0  0  0  0  0  0
   -9.1286    1.8977  -21.8596 C   0  0  0  0  0  0  0  0  0  0  0  0
   -6.7400    1.1422  -22.4956 C   0  0  0  0  0  0  0  0  0  0  0  0
   -6.6494    2.1919  -22.1794 H   0  0  0  0  0  0  0  0  0  0  0  0
  -10.0570   -1.6618  -21.4459 H   0  0  0  0  0  0  0  0  0  0  0  0
   -7.3678    1.0837  -23.3970 H   0  0  0  0  0  0  0  0  0  0  0  0
 16 23  1  0  0  0  0
 23 24  1  0  0  0  0
 17 23  1  0  0  0  0
 17 18  1  0  0  0  0
 15 22  1  0  0  0  0
 10 17  1  0  0  0  0
 11 17  1  0  0  0  0
 10 22  1  0  0  0  0
 12 22  1  0  0  0  0
  8 22  1  0  0  0  0
  2  8  1  0  0  0  0
  8 21  1  0  0  0  0
  1  8  1  0  0  0  0
  1 21  1  0  0  0  0
  1  4  2  0  0  0  0
  7 19  1  0  0  0  0
  6 19  2  0  0  0  0
  4  9  1  0  0  0  0
  4 13  1  0  0  0  0
  6 14  1  0  0  0  0
  3  6  1  0  0  0  0
  3 13  2  0  0  0  0
  5 13  1  0  0  0  0
  3 20  1  0  0  0  0
 19 25  1  0  0  0  0
 23 26  1  0  0  0  0
M  END
> <Chemgauss4>
-5.550929

$$$$
