stable:False satoms:19 tatoms:24 sratio:0.7916666666666666
  -OEChem-07092417293D

 24 24  0     0  0  0  0  0  0999 V2000
    9.8800   -2.1598   22.1163 C   0  0  0  0  0  0  0  0  0  0  0  0
   10.2711    1.4210   24.8800 H   0  0  0  0  0  0  0  0  0  0  0  0
   13.3804   -1.7944   23.9863 H   0  0  0  0  0  0  0  0  0  0  0  0
   11.5079   -1.0355   23.6729 N   0  0  0  0  0  0  0  0  0  0  0  0
    8.5355   -2.2358   21.6828 C   0  0  0  0  0  0  0  0  0  0  0  0
    6.9287   -3.7444   19.2197 H   0  0  0  0  0  0  0  0  0  0  0  0
    4.5658   -1.0461   21.5131 H   0  0  0  0  0  0  0  0  0  0  0  0
    7.6913   -1.2404   22.3127 C   0  0  0  0  0  0  0  0  0  0  0  0
    5.5527   -1.4464   21.2917 C   0  0  0  0  0  0  0  0  0  0  0  0
    9.0188    2.2231   23.9383 H   0  0  0  0  0  0  0  0  0  0  0  0
    6.4793   -0.9236   22.0318 N   0  0  0  0  0  0  0  0  0  0  0  0
    8.1463   -0.4477   23.3130 N   0  0  0  0  0  0  0  0  0  0  0  0
    8.0461   -3.1276   20.7893 N   0  0  0  0  0  0  0  0  0  0  0  0
   10.6546   -2.7876   21.6834 H   0  0  0  0  0  0  0  0  0  0  0  0
    8.5685    1.0309   25.1638 H   0  0  0  0  0  0  0  0  0  0  0  0
    9.2125    2.6020   25.6583 H   0  0  0  0  0  0  0  0  0  0  0  0
    5.7158   -2.4136   20.3189 C   0  0  0  0  0  0  0  0  0  0  0  0
   12.3226   -2.8232   22.9272 H   0  0  0  0  0  0  0  0  0  0  0  0
   10.2635   -1.2068   23.0793 C   0  0  0  0  0  0  0  0  0  0  0  0
    9.2658    1.8315   24.9194 C   0  0  0  0  0  0  0  0  0  0  0  0
    6.9123   -3.1099   20.1032 C   0  0  0  0  0  0  0  0  0  0  0  0
   12.4344   -1.9192   23.5144 C   0  3  0  0  0  0  0  0  0  0  0  0
    4.8354   -2.6760   19.7232 H   0  0  0  0  0  0  0  0  0  0  0  0
    9.3950   -0.2606   23.4579 N   0  0  0  0  0  0  0  0  0  0  0  0
  6 21  1  0  0  0  0
 17 23  1  0  0  0  0
 17 21  1  0  0  0  0
 13 21  2  0  0  0  0
  9 17  2  0  0  0  0
  5 13  1  0  0  0  0
  7  9  1  0  0  0  0
  9 11  1  0  0  0  0
  1  5  2  0  0  0  0
  5  8  1  0  0  0  0
  1 14  1  0  0  0  0
  8 11  2  0  0  0  0
  1 19  1  0  0  0  0
  8 12  2  0  0  0  0
 18 22  1  0  0  0  0
 19 24  2  0  0  0  0
  4 19  1  0  0  0  0
 12 24  1  0  0  0  0
  4 22  1  0  0  0  0
  3 22  1  0  0  0  0
 10 20  1  0  0  0  0
  2 20  1  0  0  0  0
 15 20  1  0  0  0  0
 16 20  1  0  0  0  0
M  CHG  1  22   1
M  END
> <Shapegauss>
-109.401306

$$$$
