stable:False satoms:18 tatoms:24 sratio:0.75
  -OEChem-08062403093D

 25 25  0     0  0  0  0  0  0999 V2000
  -12.8613    0.9365  -24.4835 H   0  0  0  0  0  0  0  0  0  0  0  0
  -12.1263    0.3183  -24.8085 N   0  0  0  0  0  0  0  0  0  0  0  0
  -11.8913    0.4265  -25.7764 H   0  0  0  0  0  0  0  0  0  0  0  0
  -11.6256   -1.1570  -22.7485 S   0  0  0  0  0  0  0  0  0  0  0  0
  -11.1789   -0.3960  -24.0856 C   0  0  0  0  0  0  0  0  0  0  0  0
   -9.9788   -0.5512  -24.6094 O   0  0  0  0  0  0  0  0  0  0  0  0
   -8.6149   -0.5452  -21.9755 H   0  0  0  0  0  0  0  0  0  0  0  0
   -8.1491   -1.4965  -24.4495 H   0  0  0  0  0  0  0  0  0  0  0  0
   -9.2843   -2.2441  -22.9360 C   0  0  0  0  0  2  0  0  0  0  0  0
   -6.9021   -3.4084  -23.0280 S   0  0  0  0  0  0  0  0  0  0  0  0
   -9.4357   -2.5730  -25.0323 H   0  0  0  0  0  0  0  0  0  0  0  0
   -9.1849   -1.7741  -24.3260 C   0  0  0  0  0  0  0  0  0  0  0  0
   -8.4524   -1.5205  -22.1549 N   0  0  0  0  0  0  0  0  0  0  0  0
   -7.2122   -2.0687  -21.8924 C   0  0  0  0  0  0  0  0  0  0  0  0
   -6.4137   -1.6924  -20.9449 N   0  0  0  0  0  0  0  0  0  0  0  0
   -5.2093    0.1415  -20.2644 N   0  0  0  0  0  0  0  0  0  0  0  0
   -6.2325   -0.6207  -20.1371 C   0  0  0  0  0  0  0  0  0  0  0  0
   -4.4234   -0.0695  -20.8499 H   0  0  0  0  0  0  0  0  0  0  0  0
   -4.2882    1.6182  -18.9780 H   0  0  0  0  0  0  0  0  0  0  0  0
   -6.4466    1.2805  -17.4720 H   0  0  0  0  0  0  0  0  0  0  0  0
   -6.9360   -0.1265  -18.9778 C   0  0  0  0  0  0  0  0  0  0  0  0
   -5.1270    0.9852  -19.1450 C   0  0  0  0  0  0  0  0  0  0  0  0
   -6.2503    0.7806  -18.4136 C   0  0  0  0  0  0  0  0  0  0  0  0
   -5.7324   -2.3991  -20.7542 H   0  0  0  0  0  0  0  0  0  0  0  0
   -7.9008   -0.4759  -18.6410 H   0  0  0  0  0  0  0  0  0  0  0  0
 19 22  1  0  0  0  0
 16 18  1  0  0  0  0
 16 22  1  0  0  0  0
 22 23  2  0  0  0  0
 16 17  1  0  0  0  0
 20 23  1  0  0  0  0
 21 23  1  0  0  0  0
 17 21  2  0  0  0  0
 15 17  1  0  0  0  0
 14 15  1  0  0  0  0
 10 14  2  0  0  0  0
 13 14  1  0  0  0  0
  7 13  1  0  0  0  0
  8 12  1  0  0  0  0
  9 13  1  0  0  0  0
  9 12  1  0  0  0  0
  6 12  1  0  0  0  0
 11 12  1  0  0  0  0
  5  6  1  0  0  0  0
  4  5  2  0  0  0  0
  2  5  1  0  0  0  0
  2  3  1  0  0  0  0
  1  2  1  0  0  0  0
 15 24  1  0  0  0  0
 21 25  1  0  0  0  0
M  END
> <Chemgauss4>
-7.308201

$$$$
