stable:False satoms:8 tatoms:24 sratio:0.3333333333333333
  -OEChem-08062415263D

 45 45  0     0  0  0  0  0  0999 V2000
    6.6291   -5.4649   26.1208 C   0  0  0  0  0  0  0  0  0  0  0  0
    8.2744   -4.8291   25.8527 S   0  0  0  0  0  0  0  0  0  0  0  0
    9.1361   -5.9577   25.7430 O   0  0  0  0  0  0  0  0  0  0  0  0
    8.6231   -4.0053   26.9556 O   0  0  0  0  0  0  0  0  0  0  0  0
    8.1509   -3.9764   24.4436 N   0  0  0  0  0  0  0  0  0  0  0  0
    9.0480   -3.3365   23.9858 C   0  0  0  0  0  0  0  0  0  0  0  0
    9.4643   -2.2978   23.4452 C   0  0  0  0  0  0  0  0  0  0  0  0
   10.1934   -1.3190   23.3583 C   0  0  0  0  0  0  0  0  0  0  0  0
   11.0313   -0.3899   24.3899 C   0  0  0  0  0  0  0  0  0  0  0  0
   12.0384   -0.1169   24.3715 C   0  0  0  0  0  0  0  0  0  0  0  0
   13.1092   -0.5358   23.5611 C   0  0  0  0  0  0  0  0  0  0  0  0
   12.7569   -1.5436   22.6464 C   0  0  0  0  0  0  0  0  0  0  0  0
   12.0063   -2.0302   22.3958 C   0  0  0  0  0  0  0  0  0  0  0  0
    9.7314   -0.8192   22.4281 C   0  0  0  0  0  0  0  0  0  0  0  0
    9.0868   -0.1157   21.4683 C   0  0  0  0  0  0  0  0  0  0  0  0
    9.5461    0.8714   21.1460 O   0  0  0  0  0  0  0  0  0  0  0  0
    7.9877   -0.7174   21.0822 N   0  0  0  0  0  0  0  0  0  0  0  0
    7.2428   -0.1965   20.2222 C   0  0  0  0  0  0  0  0  0  0  0  0
    7.3023    0.0175   18.9129 C   0  0  0  0  0  0  0  0  0  0  0  0
    6.8698    0.4220   17.8852 N   0  0  0  0  0  0  0  0  0  0  0  0
    5.6572    0.9736   18.3870 C   0  0  0  0  0  0  0  0  0  0  0  0
    5.3148    0.9222   19.5415 C   0  0  0  0  0  0  0  0  0  0  0  0
    5.8796    0.3986   20.6330 C   0  0  0  0  0  0  0  0  0  0  0  0
    5.3586    0.3758   22.1489 C   0  0  0  0  0  0  0  0  0  0  0  0
    6.6102   -6.0550   27.0489 H   0  0  0  0  0  0  0  0  0  0  0  0
    5.9215   -4.6269   26.2048 H   0  0  0  0  0  0  0  0  0  0  0  0
    6.3408   -6.1047   25.2737 H   0  0  0  0  0  0  0  0  0  0  0  0
    7.3957   -3.3345   24.5766 H   0  0  0  0  0  0  0  0  0  0  0  0
    9.9207   -3.9636   24.0933 H   0  0  0  0  0  0  0  0  0  0  0  0
    8.8371   -2.2116   22.5703 H   0  0  0  0  0  0  0  0  0  0  0  0
   10.4628    0.0049   25.2189 H   0  0  0  0  0  0  0  0  0  0  0  0
   12.3080    0.6232   25.1105 H   0  0  0  0  0  0  0  0  0  0  0  0
   13.9091   -0.9194   24.2114 H   0  0  0  0  0  0  0  0  0  0  0  0
   13.4800    0.3328   22.9971 H   0  0  0  0  0  0  0  0  0  0  0  0
   13.6143   -1.8404   22.0605 H   0  0  0  0  0  0  0  0  0  0  0  0
   12.0795   -2.7714   21.6137 H   0  0  0  0  0  0  0  0  0  0  0  0
   11.0604   -1.8547   22.8866 H   0  0  0  0  0  0  0  0  0  0  0  0
   10.2722   -1.4372   21.7267 H   0  0  0  0  0  0  0  0  0  0  0  0
    7.7421   -1.6018   21.4791 H   0  0  0  0  0  0  0  0  0  0  0  0
    8.2577   -0.4020   18.6342 H   0  0  0  0  0  0  0  0  0  0  0  0
    5.0011    1.4705   17.6877 H   0  0  0  0  0  0  0  0  0  0  0  0
    4.3618    1.3934   19.7314 H   0  0  0  0  0  0  0  0  0  0  0  0
    4.7731   -0.5392   22.3223 H   0  0  0  0  0  0  0  0  0  0  0  0
    6.2199    0.3950   22.8329 H   0  0  0  0  0  0  0  0  0  0  0  0
    4.7252    1.2564   22.3321 H   0  0  0  0  0  0  0  0  0  0  0  0
 20 21  2  0  0  0  0
 19 20  1  0  0  0  0
 21 22  1  0  0  0  0
 18 19  2  0  0  0  0
 22 23  2  0  0  0  0
 18 23  1  0  0  0  0
 17 18  1  0  0  0  0
 23 24  1  0  0  0  0
 15 16  2  0  0  0  0
 15 17  1  0  0  0  0
 14 15  1  0  0  0  0
  8 14  2  3  0  0  0
 12 13  2  0  0  0  0
 11 12  1  0  0  0  0
  7  8  1  0  0  0  0
  8  9  1  0  0  0  0
 10 11  1  0  0  0  0
  6  7  2  3  0  0  0
  5  6  1  0  0  0  0
  9 10  2  0  0  0  0
  2  5  1  0  0  0  0
  2  3  2  0  0  0  0
  1  2  1  0  0  0  0
  2  4  2  0  0  0  0
  1 25  1  0  0  0  0
  1 26  1  0  0  0  0
  1 27  1  0  0  0  0
  5 28  1  0  0  0  0
  6 29  1  0  0  0  0
  7 30  1  0  0  0  0
  9 31  1  0  0  0  0
 10 32  1  0  0  0  0
 11 33  1  0  0  0  0
 11 34  1  0  0  0  0
 12 35  1  0  0  0  0
 13 36  1  0  0  0  0
 13 37  1  0  0  0  0
 14 38  1  0  0  0  0
 17 39  1  0  0  0  0
 19 40  1  0  0  0  0
 21 41  1  0  0  0  0
 22 42  1  0  0  0  0
 24 43  1  0  0  0  0
 24 44  1  0  0  0  0
 24 45  1  0  0  0  0
M  END
> <Chemgauss4>
-12.508471

$$$$
