stable:False satoms:8 tatoms:24 sratio:0.3333333333333333
  -OEChem-08062415263D

 45 45  0     0  0  0  0  0  0999 V2000
   -5.8721   -5.0263  -25.9870 C   0  0  0  0  0  0  0  0  0  0  0  0
   -7.5553   -4.4461  -25.8707 S   0  0  0  0  0  0  0  0  0  0  0  0
   -8.3871   -5.6022  -25.8680 O   0  0  0  0  0  0  0  0  0  0  0  0
   -7.8202   -3.6091  -26.9868 O   0  0  0  0  0  0  0  0  0  0  0  0
   -7.5979   -3.6213  -24.4405 N   0  0  0  0  0  0  0  0  0  0  0  0
   -8.5556   -3.0187  -24.0615 C   0  0  0  0  0  0  0  0  0  0  0  0
   -9.0559   -2.0051  -23.5450 C   0  0  0  0  0  0  0  0  0  0  0  0
   -9.8209   -1.0507  -23.5121 C   0  0  0  0  0  0  0  0  0  0  0  0
  -10.5828   -0.1247  -24.6035 C   0  0  0  0  0  0  0  0  0  0  0  0
  -11.5950    0.1177  -24.6796 C   0  0  0  0  0  0  0  0  0  0  0  0
  -12.7262   -0.3508  -23.9869 C   0  0  0  0  0  0  0  0  0  0  0  0
  -12.4334   -1.3675  -23.0611 C   0  0  0  0  0  0  0  0  0  0  0  0
  -11.6958   -1.8368  -22.7468 C   0  0  0  0  0  0  0  0  0  0  0  0
   -9.4685   -0.5578  -22.5315 C   0  0  0  0  0  0  0  0  0  0  0  0
   -8.9440    0.1434  -21.4996 C   0  0  0  0  0  0  0  0  0  0  0  0
   -9.4640    1.1090  -21.2056 O   0  0  0  0  0  0  0  0  0  0  0  0
   -7.8694   -0.4334  -21.0183 N   0  0  0  0  0  0  0  0  0  0  0  0
   -7.2295    0.0905  -20.0793 C   0  0  0  0  0  0  0  0  0  0  0  0
   -7.4240    0.2738  -18.7785 C   0  0  0  0  0  0  0  0  0  0  0  0
   -7.1075    0.6684  -17.7056 N   0  0  0  0  0  0  0  0  0  0  0  0
   -5.8697    1.2669  -18.0748 C   0  0  0  0  0  0  0  0  0  0  0  0
   -5.4144    1.2512  -19.1906 C   0  0  0  0  0  0  0  0  0  0  0  0
   -5.8523    0.7350  -20.3422 C   0  0  0  0  0  0  0  0  0  0  0  0
   -5.1846    0.7612  -21.7994 C   0  0  0  0  0  0  0  0  0  0  0  0
   -5.7434   -5.5951  -26.9198 H   0  0  0  0  0  0  0  0  0  0  0  0
   -5.1868   -4.1659  -25.9849 H   0  0  0  0  0  0  0  0  0  0  0  0
   -5.6480   -5.6757  -25.1279 H   0  0  0  0  0  0  0  0  0  0  0  0
   -6.8542   -2.9543  -24.4861 H   0  0  0  0  0  0  0  0  0  0  0  0
   -9.3930   -3.6692  -24.2665 H   0  0  0  0  0  0  0  0  0  0  0  0
   -8.5206   -1.9193  -22.6110 H   0  0  0  0  0  0  0  0  0  0  0  0
   -9.9487    0.3051  -25.3648 H   0  0  0  0  0  0  0  0  0  0  0  0
  -11.8143    0.8654  -25.4274 H   0  0  0  0  0  0  0  0  0  0  0  0
  -13.4459   -0.7438  -24.7201 H   0  0  0  0  0  0  0  0  0  0  0  0
  -13.1781    0.4937  -23.4460 H   0  0  0  0  0  0  0  0  0  0  0  0
  -13.3342   -1.7027  -22.5684 H   0  0  0  0  0  0  0  0  0  0  0  0
  -11.8217   -2.5968  -21.9899 H   0  0  0  0  0  0  0  0  0  0  0  0
  -10.7124   -1.6224  -23.1385 H   0  0  0  0  0  0  0  0  0  0  0  0
  -10.0555   -1.2070  -21.8987 H   0  0  0  0  0  0  0  0  0  0  0  0
   -7.5580   -1.3012  -21.4057 H   0  0  0  0  0  0  0  0  0  0  0  0
   -8.3882   -0.1802  -18.6034 H   0  0  0  0  0  0  0  0  0  0  0  0
   -5.3017    1.7677  -17.3047 H   0  0  0  0  0  0  0  0  0  0  0  0
   -4.4628    1.7548  -19.2765 H   0  0  0  0  0  0  0  0  0  0  0  0
   -4.5561   -0.1319  -21.9314 H   0  0  0  0  0  0  0  0  0  0  0  0
   -5.9749    0.7696  -22.5646 H   0  0  0  0  0  0  0  0  0  0  0  0
   -4.5649    1.6641  -21.9024 H   0  0  0  0  0  0  0  0  0  0  0  0
 20 21  2  0  0  0  0
 19 20  1  0  0  0  0
 21 22  1  0  0  0  0
 18 19  2  0  0  0  0
 22 23  2  0  0  0  0
 18 23  1  0  0  0  0
 17 18  1  0  0  0  0
 23 24  1  0  0  0  0
 15 16  2  0  0  0  0
 15 17  1  0  0  0  0
 14 15  1  0  0  0  0
  8 14  2  3  0  0  0
 12 13  2  0  0  0  0
 11 12  1  0  0  0  0
  7  8  1  0  0  0  0
  8  9  1  0  0  0  0
 10 11  1  0  0  0  0
  6  7  2  3  0  0  0
  5  6  1  0  0  0  0
  9 10  2  0  0  0  0
  2  5  1  0  0  0  0
  2  3  2  0  0  0  0
  1  2  1  0  0  0  0
  2  4  2  0  0  0  0
  1 25  1  0  0  0  0
  1 26  1  0  0  0  0
  1 27  1  0  0  0  0
  5 28  1  0  0  0  0
  6 29  1  0  0  0  0
  7 30  1  0  0  0  0
  9 31  1  0  0  0  0
 10 32  1  0  0  0  0
 11 33  1  0  0  0  0
 11 34  1  0  0  0  0
 12 35  1  0  0  0  0
 13 36  1  0  0  0  0
 13 37  1  0  0  0  0
 14 38  1  0  0  0  0
 17 39  1  0  0  0  0
 19 40  1  0  0  0  0
 21 41  1  0  0  0  0
 22 42  1  0  0  0  0
 24 43  1  0  0  0  0
 24 44  1  0  0  0  0
 24 45  1  0  0  0  0
M  END
> <Chemgauss4>
-12.599133

$$$$
