MODEL 1
REMARK VINA RESULT:    -3.942      0.000      0.000
REMARK INTER + INTRA:          -4.727
REMARK INTER:                  -4.633
REMARK INTRA:                  -0.094
REMARK UNBOUND:                -0.094
REMARK  3 active torsions:
REMARK  status: ('A' for Active; 'I' for Inactive)
REMARK    1  A    between atoms: C_3  and  N_8 
REMARK    2  A    between atoms: C_3  and  C_5 
REMARK    3  A    between atoms: C_5  and  N_10 
ROOT
HETATM    1  S   UNL     1      12.408   0.063  24.300  1.00  0.00    -0.068 SA
HETATM    2  O   UNL     1      12.327  -1.855  22.562  1.00  0.00    -0.260 OA
HETATM    3  C   UNL     1       9.764  -0.416  24.541  1.00  0.00     0.137 C 
HETATM    4  N   UNL     1      10.308  -1.306  23.522  1.00  0.00    -0.341 N 
HETATM    5  C   UNL     1      10.870   0.392  25.198  1.00  0.00     0.104 C 
HETATM    6  C   UNL     1      11.631  -1.200  23.288  1.00  0.00     0.282 C 
ENDROOT
BRANCH   4   7
HETATM    7  C   UNL     1       9.459  -2.236  22.796  1.00  0.00     0.146 C 
BRANCH   7   8
HETATM    8  C   UNL     1       8.383  -2.838  23.711  1.00  0.00     0.140 C 
BRANCH   8   9
HETATM    9  N   UNL     1       7.998  -4.214  23.364  1.00  0.00    -0.402 N 
HETATM   10  C   UNL     1       7.847  -4.973  24.447  1.00  0.00     0.114 C 
HETATM   11  C   UNL     1       7.080  -4.561  22.301  1.00  0.00     0.148 C 
ENDBRANCH   8   9
ENDBRANCH   7   8
ENDBRANCH   4   7
TORSDOF 3
ENDMDL
MODEL 2
REMARK VINA RESULT:    -3.899      3.161      4.838
REMARK INTER + INTRA:          -4.676
REMARK INTER:                  -4.508
REMARK INTRA:                  -0.169
REMARK UNBOUND:                -0.094
REMARK  3 active torsions:
REMARK  status: ('A' for Active; 'I' for Inactive)
REMARK    1  A    between atoms: C_3  and  N_8 
REMARK    2  A    between atoms: C_3  and  C_5 
REMARK    3  A    between atoms: C_5  and  N_10 
ROOT
HETATM    1  S   UNL     1       6.881  -0.231  21.229  1.00  0.00    -0.068 SA
HETATM    2  O   UNL     1       8.979   1.269  20.999  1.00  0.00    -0.260 OA
HETATM    3  C   UNL     1       8.612  -2.016  22.277  1.00  0.00     0.137 C 
HETATM    4  N   UNL     1       9.354  -0.826  21.876  1.00  0.00    -0.341 N 
HETATM    5  C   UNL     1       7.119  -1.813  22.080  1.00  0.00     0.104 C 
HETATM    6  C   UNL     1       8.626   0.174  21.341  1.00  0.00     0.282 C 
ENDROOT
BRANCH   4   7
HETATM    7  C   UNL     1      10.797  -0.744  22.034  1.00  0.00     0.146 C 
BRANCH   7   8
HETATM    8  C   UNL     1      11.261  -1.471  23.304  1.00  0.00     0.140 C 
BRANCH   8   9
HETATM    9  N   UNL     1      11.672  -0.575  24.395  1.00  0.00    -0.402 N 
HETATM   10  C   UNL     1      12.928  -0.160  24.244  1.00  0.00     0.114 C 
HETATM   11  C   UNL     1      10.817   0.423  24.997  1.00  0.00     0.148 C 
ENDBRANCH   8   9
ENDBRANCH   7   8
ENDBRANCH   4   7
TORSDOF 3
ENDMDL
MODEL 3
REMARK VINA RESULT:    -3.830      2.084      2.615
REMARK INTER + INTRA:          -4.596
REMARK INTER:                  -4.448
REMARK INTRA:                  -0.148
REMARK UNBOUND:                -0.094
REMARK  3 active torsions:
REMARK  status: ('A' for Active; 'I' for Inactive)
REMARK    1  A    between atoms: C_3  and  N_8 
REMARK    2  A    between atoms: C_3  and  C_5 
REMARK    3  A    between atoms: C_5  and  N_10 
ROOT
HETATM    1  S   UNL     1      12.405  -0.063  24.413  1.00  0.00    -0.068 SA
HETATM    2  O   UNL     1      12.322  -1.939  22.630  1.00  0.00    -0.260 OA
HETATM    3  C   UNL     1       9.774   0.190  23.870  1.00  0.00     0.137 C 
HETATM    4  N   UNL     1      10.332  -0.843  23.004  1.00  0.00    -0.341 N 
HETATM    5  C   UNL     1      10.817   0.691  24.853  1.00  0.00     0.104 C 
HETATM    6  C   UNL     1      11.645  -1.101  23.161  1.00  0.00     0.282 C 
ENDROOT
BRANCH   4   7
HETATM    7  C   UNL     1       9.512  -1.532  22.021  1.00  0.00     0.146 C 
BRANCH   7   8
HETATM    8  C   UNL     1       8.592  -0.553  21.278  1.00  0.00     0.140 C 
BRANCH   8   9
HETATM    9  N   UNL     1       7.161  -0.876  21.378  1.00  0.00    -0.402 N 
HETATM   10  C   UNL     1       6.491  -0.487  20.296  1.00  0.00     0.114 C 
HETATM   11  C   UNL     1       6.639  -2.095  21.957  1.00  0.00     0.148 C 
ENDBRANCH   8   9
ENDBRANCH   7   8
ENDBRANCH   4   7
TORSDOF 3
ENDMDL
MODEL 4
REMARK VINA RESULT:    -3.575      4.217      4.798
REMARK INTER + INTRA:          -4.296
REMARK INTER:                  -4.156
REMARK INTRA:                  -0.140
REMARK UNBOUND:                -0.094
REMARK  3 active torsions:
REMARK  status: ('A' for Active; 'I' for Inactive)
REMARK    1  A    between atoms: C_3  and  N_8 
REMARK    2  A    between atoms: C_3  and  C_5 
REMARK    3  A    between atoms: C_5  and  N_10 
ROOT
HETATM    1  S   UNL     1      10.633  -0.964  22.492  1.00  0.00    -0.068 SA
HETATM    2  O   UNL     1      10.462   1.415  21.485  1.00  0.00    -0.260 OA
HETATM    3  C   UNL     1       7.986  -1.071  21.979  1.00  0.00     0.137 C 
HETATM    4  N   UNL     1       8.483   0.246  21.596  1.00  0.00    -0.341 N 
HETATM    5  C   UNL     1       9.126  -1.969  22.426  1.00  0.00     0.104 C 
HETATM    6  C   UNL     1       9.801   0.458  21.779  1.00  0.00     0.282 C 
ENDROOT
BRANCH   4   7
HETATM    7  C   UNL     1       7.593   1.266  21.066  1.00  0.00     0.146 C 
BRANCH   7   8
HETATM    8  C   UNL     1       6.264   0.658  20.597  1.00  0.00     0.140 C 
BRANCH   8   9
HETATM    9  N   UNL     1       6.261   0.230  19.190  1.00  0.00    -0.402 N 
HETATM   10  C   UNL     1       5.724  -0.979  19.044  1.00  0.00     0.114 C 
HETATM   11  C   UNL     1       5.991   1.105  18.071  1.00  0.00     0.148 C 
ENDBRANCH   8   9
ENDBRANCH   7   8
ENDBRANCH   4   7
TORSDOF 3
ENDMDL
MODEL 5
REMARK VINA RESULT:    -3.533      4.926      5.932
REMARK INTER + INTRA:          -4.247
REMARK INTER:                  -4.092
REMARK INTRA:                  -0.155
REMARK UNBOUND:                -0.094
REMARK  3 active torsions:
REMARK  status: ('A' for Active; 'I' for Inactive)
REMARK    1  A    between atoms: C_3  and  N_8 
REMARK    2  A    between atoms: C_3  and  C_5 
REMARK    3  A    between atoms: C_5  and  N_10 
ROOT
HETATM    1  S   UNL     1       4.958   1.475  19.554  1.00  0.00    -0.068 SA
HETATM    2  O   UNL     1       6.311   1.614  21.757  1.00  0.00    -0.260 OA
HETATM    3  C   UNL     1       7.040  -0.009  18.692  1.00  0.00     0.137 C 
HETATM    4  N   UNL     1       7.317   0.438  20.052  1.00  0.00    -0.341 N 
HETATM    5  C   UNL     1       5.644   0.407  18.260  1.00  0.00     0.104 C 
HETATM    6  C   UNL     1       6.360   1.186  20.636  1.00  0.00     0.282 C 
ENDROOT
BRANCH   4   7
HETATM    7  C   UNL     1       8.564   0.104  20.721  1.00  0.00     0.146 C 
BRANCH   7   8
HETATM    8  C   UNL     1       8.399  -1.128  21.623  1.00  0.00     0.140 C 
BRANCH   8   9
HETATM    9  N   UNL     1       9.119  -1.037  22.902  1.00  0.00    -0.402 N 
HETATM   10  C   UNL     1      10.172  -1.851  22.934  1.00  0.00     0.114 C 
HETATM   11  C   UNL     1       9.336   0.192  23.632  1.00  0.00     0.148 C 
ENDBRANCH   8   9
ENDBRANCH   7   8
ENDBRANCH   4   7
TORSDOF 3
ENDMDL
MODEL 6
REMARK VINA RESULT:    -3.523      1.535      2.236
REMARK INTER + INTRA:          -4.235
REMARK INTER:                  -4.060
REMARK INTRA:                  -0.174
REMARK UNBOUND:                -0.094
REMARK  3 active torsions:
REMARK  status: ('A' for Active; 'I' for Inactive)
REMARK    1  A    between atoms: C_3  and  N_8 
REMARK    2  A    between atoms: C_3  and  C_5 
REMARK    3  A    between atoms: C_5  and  N_10 
ROOT
HETATM    1  S   UNL     1      11.937  -0.101  24.401  1.00  0.00    -0.068 SA
HETATM    2  O   UNL     1       9.611   0.326  25.455  1.00  0.00    -0.260 OA
HETATM    3  C   UNL     1      10.630  -1.960  22.947  1.00  0.00     0.137 C 
HETATM    4  N   UNL     1       9.686  -1.343  23.872  1.00  0.00    -0.341 N 
HETATM    5  C   UNL     1      11.987  -1.283  23.029  1.00  0.00     0.104 C 
HETATM    6  C   UNL     1      10.183  -0.376  24.668  1.00  0.00     0.282 C 
ENDROOT
BRANCH   4   7
HETATM    7  C   UNL     1       8.298  -1.768  23.933  1.00  0.00     0.146 C 
BRANCH   7   8
HETATM    8  C   UNL     1       7.988  -2.817  22.855  1.00  0.00     0.140 C 
BRANCH   8   9
HETATM    9  N   UNL     1       7.571  -4.123  23.387  1.00  0.00    -0.402 N 
HETATM   10  C   UNL     1       7.200  -4.955  22.417  1.00  0.00     0.114 C 
HETATM   11  C   UNL     1       8.215  -4.797  24.492  1.00  0.00     0.148 C 
ENDBRANCH   8   9
ENDBRANCH   7   8
ENDBRANCH   4   7
TORSDOF 3
ENDMDL
MODEL 7
REMARK VINA RESULT:    -3.499      2.433      2.791
REMARK INTER + INTRA:          -4.207
REMARK INTER:                  -4.100
REMARK INTRA:                  -0.107
REMARK UNBOUND:                -0.094
REMARK  3 active torsions:
REMARK  status: ('A' for Active; 'I' for Inactive)
REMARK    1  A    between atoms: C_3  and  N_8 
REMARK    2  A    between atoms: C_3  and  C_5 
REMARK    3  A    between atoms: C_5  and  N_10 
ROOT
HETATM    1  S   UNL     1       9.986  -0.013  21.810  1.00  0.00    -0.068 SA
HETATM    2  O   UNL     1       7.612  -0.620  20.974  1.00  0.00    -0.260 OA
HETATM    3  C   UNL     1       9.770  -2.296  23.230  1.00  0.00     0.137 C 
HETATM    4  N   UNL     1       8.527  -2.084  22.496  1.00  0.00    -0.341 N 
HETATM    5  C   UNL     1      10.798  -1.239  22.868  1.00  0.00     0.104 C 
HETATM    6  C   UNL     1       8.478  -0.982  21.722  1.00  0.00     0.282 C 
ENDROOT
BRANCH   4   7
HETATM    7  C   UNL     1       7.409  -3.005  22.617  1.00  0.00     0.146 C 
BRANCH   7   8
HETATM    8  C   UNL     1       7.778  -4.219  23.482  1.00  0.00     0.140 C 
BRANCH   8   9
HETATM    9  N   UNL     1       7.061  -5.452  23.126  1.00  0.00    -0.402 N 
HETATM   10  C   UNL     1       5.881  -5.531  23.737  1.00  0.00     0.114 C 
HETATM   11  C   UNL     1       7.050  -6.037  21.804  1.00  0.00     0.148 C 
ENDBRANCH   8   9
ENDBRANCH   7   8
ENDBRANCH   4   7
TORSDOF 3
ENDMDL
MODEL 8
REMARK VINA RESULT:    -3.476      3.616      4.281
REMARK INTER + INTRA:          -4.180
REMARK INTER:                  -4.045
REMARK INTRA:                  -0.134
REMARK UNBOUND:                -0.094
REMARK  3 active torsions:
REMARK  status: ('A' for Active; 'I' for Inactive)
REMARK    1  A    between atoms: C_3  and  N_8 
REMARK    2  A    between atoms: C_3  and  C_5 
REMARK    3  A    between atoms: C_5  and  N_10 
ROOT
HETATM    1  S   UNL     1       6.902  -1.114  21.438  1.00  0.00    -0.068 SA
HETATM    2  O   UNL     1       5.434  -3.242  21.590  1.00  0.00    -0.260 OA
HETATM    3  C   UNL     1       8.680  -2.576  22.845  1.00  0.00     0.137 C 
HETATM    4  N   UNL     1       7.474  -3.372  22.648  1.00  0.00    -0.341 N 
HETATM    5  C   UNL     1       8.580  -1.253  22.106  1.00  0.00     0.104 C 
HETATM    6  C   UNL     1       6.485  -2.785  21.946  1.00  0.00     0.282 C 
ENDROOT
BRANCH   4   7
HETATM    7  C   UNL     1       7.352  -4.712  23.199  1.00  0.00     0.146 C 
BRANCH   7   8
HETATM    8  C   UNL     1       8.263  -4.898  24.420  1.00  0.00     0.140 C 
BRANCH   8   9
HETATM    9  N   UNL     1       7.552  -5.280  25.649  1.00  0.00    -0.402 N 
HETATM   10  C   UNL     1       8.237  -4.944  26.740  1.00  0.00     0.114 C 
HETATM   11  C   UNL     1       6.121  -5.178  25.829  1.00  0.00     0.148 C 
ENDBRANCH   8   9
ENDBRANCH   7   8
ENDBRANCH   4   7
TORSDOF 3
ENDMDL
MODEL 9
REMARK VINA RESULT:    -3.400      3.083      5.059
REMARK INTER + INTRA:          -4.090
REMARK INTER:                  -3.990
REMARK INTRA:                  -0.100
REMARK UNBOUND:                -0.094
REMARK  3 active torsions:
REMARK  status: ('A' for Active; 'I' for Inactive)
REMARK    1  A    between atoms: C_3  and  N_8 
REMARK    2  A    between atoms: C_3  and  C_5 
REMARK    3  A    between atoms: C_5  and  N_10 
ROOT
HETATM    1  S   UNL     1       6.665  -4.750  24.555  1.00  0.00    -0.068 SA
HETATM    2  O   UNL     1       7.502  -3.943  22.242  1.00  0.00    -0.260 OA
HETATM    3  C   UNL     1       8.529  -3.052  25.513  1.00  0.00     0.137 C 
HETATM    4  N   UNL     1       8.588  -3.036  24.056  1.00  0.00    -0.341 N 
HETATM    5  C   UNL     1       7.380  -3.919  25.998  1.00  0.00     0.104 C 
HETATM    6  C   UNL     1       7.705  -3.828  23.419  1.00  0.00     0.282 C 
ENDROOT
BRANCH   4   7
HETATM    7  C   UNL     1       9.561  -2.221  23.347  1.00  0.00     0.146 C 
BRANCH   7   8
HETATM    8  C   UNL     1      10.193  -1.174  24.274  1.00  0.00     0.140 C 
BRANCH   8   9
HETATM    9  N   UNL     1      11.328  -0.451  23.681  1.00  0.00    -0.402 N 
HETATM   10  C   UNL     1      10.923   0.544  22.895  1.00  0.00     0.114 C 
HETATM   11  C   UNL     1      12.559  -0.151  24.379  1.00  0.00     0.148 C 
ENDBRANCH   8   9
ENDBRANCH   7   8
ENDBRANCH   4   7
TORSDOF 3
ENDMDL
