MODEL 1
REMARK VINA RESULT:    -6.920      0.000      0.000
REMARK INTER + INTRA:          -9.943
REMARK INTER:                  -9.347
REMARK INTRA:                  -0.596
REMARK UNBOUND:                -0.596
REMARK  6 active torsions:
REMARK  status: ('A' for Active; 'I' for Inactive)
REMARK    1  A    between atoms: S_2  and  N_5 
REMARK    2  A    between atoms: N_5  and  C_7 
REMARK    3  A    between atoms: C_8  and  C_9 
REMARK    4  A    between atoms: C_9  and  C_13 
REMARK    5  A    between atoms: C_13  and  C_14 
REMARK       I    between atoms: C_14  and  N_16 
REMARK    6  A    between atoms: N_16  and  C_18 
ROOT
HETATM    1  C   UNL     1       7.142  -3.235  22.307  1.00  0.00     0.078 C 
HETATM    2  C   UNL     1       5.883  -5.005  23.516  1.00  0.00     0.024 C 
HETATM    3  C   UNL     1       6.998  -5.511  21.717  1.00  0.00     0.024 C 
HETATM    4  C   UNL     1       6.819  -4.633  22.275  1.00  0.00    -0.028 C 
ENDROOT
BRANCH   1   5
HETATM    5  C   UNL     1       6.613  -2.168  21.609  1.00  0.00    -0.034 C 
HETATM    6  C   UNL     1       6.056  -1.384  20.927  1.00  0.00     0.026 C 
BRANCH   6   7
HETATM    7  N   UNL     1       5.709  -0.479  20.253  1.00  0.00    -0.243 N 
ATOM      8  HN  UNL     1       4.984   0.131  20.631  1.00  0.00     0.189 HD
BRANCH   7   9
HETATM    9  S   UNL     1       6.277  -0.121  18.794  1.00  0.00     0.233 S 
HETATM   10  C   UNL     1       5.505   1.180  18.403  1.00  0.00     0.186 C 
HETATM   11  O   UNL     1       7.657   0.194  18.920  1.00  0.00    -0.205 OA
HETATM   12  O   UNL     1       6.001  -1.110  17.819  1.00  0.00    -0.205 OA
ENDBRANCH   7   9
ENDBRANCH   6   7
ENDBRANCH   1   5
BRANCH   1  13
HETATM   13  C   UNL     1       8.103  -2.990  22.917  1.00  0.00    -0.034 C 
BRANCH  13  14
HETATM   14  C   UNL     1       9.223  -2.418  23.543  1.00  0.00     0.294 C 
HETATM   15  O   UNL     1       9.371  -2.638  24.733  1.00  0.00    -0.258 OA
HETATM   16  N   UNL     1       9.908  -1.715  22.634  1.00  0.00    -0.318 N 
ATOM     17  HN  UNL     1       9.595  -1.510  21.685  1.00  0.00     0.169 HD
BRANCH  16  18
HETATM   18  C   UNL     1      11.016  -1.341  23.146  1.00  0.00     0.037 A 
HETATM   19  C   UNL     1      12.297  -1.657  23.194  1.00  0.00     0.153 A 
HETATM   20  N   UNL     1      13.487  -1.516  23.422  1.00  0.00    -0.400 N 
HETATM   21  C   UNL     1      13.277  -0.500  24.069  1.00  0.00     0.129 A 
ATOM     22  HN  UNL     1      14.326  -2.040  23.171  1.00  0.00     0.154 HD
HETATM   23  C   UNL     1      12.284   0.214  24.331  1.00  0.00     0.002 A 
HETATM   24  C   UNL     1      11.076  -0.024  23.929  1.00  0.00     0.025 A 
ENDBRANCH  16  18
ENDBRANCH  13  14
ENDBRANCH   1  13
TORSDOF 6
ENDMDL
MODEL 2
REMARK VINA RESULT:    -6.733      2.960      6.341
REMARK INTER + INTRA:          -9.691
REMARK INTER:                  -9.001
REMARK INTRA:                  -0.690
REMARK UNBOUND:                -0.596
REMARK  6 active torsions:
REMARK  status: ('A' for Active; 'I' for Inactive)
REMARK    1  A    between atoms: S_2  and  N_5 
REMARK    2  A    between atoms: N_5  and  C_7 
REMARK    3  A    between atoms: C_8  and  C_9 
REMARK    4  A    between atoms: C_9  and  C_13 
REMARK    5  A    between atoms: C_13  and  C_14 
REMARK       I    between atoms: C_14  and  N_16 
REMARK    6  A    between atoms: N_16  and  C_18 
ROOT
HETATM    1  C   UNL     1       9.463  -1.740  23.017  1.00  0.00     0.078 C 
HETATM    2  C   UNL     1      10.982  -0.480  24.527  1.00  0.00     0.024 C 
HETATM    3  C   UNL     1      11.812  -1.624  22.872  1.00  0.00     0.024 C 
HETATM    4  C   UNL     1      10.846  -1.439  23.257  1.00  0.00    -0.028 C 
ENDROOT
BRANCH   1   5
HETATM    5  C   UNL     1       8.711  -2.854  23.334  1.00  0.00    -0.034 C 
HETATM    6  C   UNL     1       8.001  -3.789  23.433  1.00  0.00     0.026 C 
BRANCH   6   7
HETATM    7  N   UNL     1       7.276  -4.660  23.765  1.00  0.00    -0.243 N 
ATOM      8  HN  UNL     1       7.392  -5.026  24.710  1.00  0.00     0.189 HD
BRANCH   7   9
HETATM    9  S   UNL     1       6.124  -5.320  22.862  1.00  0.00     0.233 S 
HETATM   10  C   UNL     1       6.914  -6.099  21.762  1.00  0.00     0.186 C 
HETATM   11  O   UNL     1       5.418  -6.260  23.661  1.00  0.00    -0.205 OA
HETATM   12  O   UNL     1       5.291  -4.372  22.221  1.00  0.00    -0.205 OA
ENDBRANCH   7   9
ENDBRANCH   6   7
ENDBRANCH   1   5
BRANCH   1  13
HETATM   13  C   UNL     1       8.932  -0.978  22.315  1.00  0.00    -0.034 C 
BRANCH  13  14
HETATM   14  C   UNL     1       8.319  -0.276  21.263  1.00  0.00     0.294 C 
HETATM   15  O   UNL     1       9.007   0.521  20.648  1.00  0.00    -0.258 OA
HETATM   16  N   UNL     1       7.041  -0.662  21.180  1.00  0.00    -0.318 N 
ATOM     17  HN  UNL     1       6.556  -1.256  21.854  1.00  0.00     0.169 HD
BRANCH  16  18
HETATM   18  C   UNL     1       6.525  -0.167  20.123  1.00  0.00     0.037 A 
HETATM   19  C   UNL     1       6.252  -0.461  18.865  1.00  0.00     0.153 A 
HETATM   20  N   UNL     1       5.748  -0.339  17.761  1.00  0.00    -0.400 N 
HETATM   21  C   UNL     1       5.354   0.788  18.028  1.00  0.00     0.129 A 
ATOM     22  HN  UNL     1       5.681  -0.940  16.939  1.00  0.00     0.154 HD
HETATM   23  C   UNL     1       5.343   1.523  19.040  1.00  0.00     0.002 A 
HETATM   24  C   UNL     1       5.848   1.207  20.189  1.00  0.00     0.025 A 
ENDBRANCH  16  18
ENDBRANCH  13  14
ENDBRANCH   1  13
TORSDOF 6
ENDMDL
MODEL 3
REMARK VINA RESULT:    -6.712      3.249      6.938
REMARK INTER + INTRA:          -9.662
REMARK INTER:                  -8.960
REMARK INTRA:                  -0.702
REMARK UNBOUND:                -0.596
REMARK  6 active torsions:
REMARK  status: ('A' for Active; 'I' for Inactive)
REMARK    1  A    between atoms: S_2  and  N_5 
REMARK    2  A    between atoms: N_5  and  C_7 
REMARK    3  A    between atoms: C_8  and  C_9 
REMARK    4  A    between atoms: C_9  and  C_13 
REMARK    5  A    between atoms: C_13  and  C_14 
REMARK       I    between atoms: C_14  and  N_16 
REMARK    6  A    between atoms: N_16  and  C_18 
ROOT
HETATM    1  C   UNL     1       9.623  -1.859  23.115  1.00  0.00     0.078 C 
HETATM    2  C   UNL     1      11.078  -0.172  24.218  1.00  0.00     0.024 C 
HETATM    3  C   UNL     1      11.940  -1.574  22.794  1.00  0.00     0.024 C 
HETATM    4  C   UNL     1      10.979  -1.394  23.193  1.00  0.00    -0.028 C 
ENDROOT
BRANCH   1   5
HETATM    5  C   UNL     1       9.001  -2.937  23.712  1.00  0.00    -0.034 C 
HETATM    6  C   UNL     1       8.317  -3.800  24.132  1.00  0.00     0.026 C 
BRANCH   6   7
HETATM    7  N   UNL     1       7.773  -4.648  24.749  1.00  0.00    -0.243 N 
ATOM      8  HN  UNL     1       7.311  -5.385  24.217  1.00  0.00     0.189 HD
BRANCH   7   9
HETATM    9  S   UNL     1       7.697  -4.743  26.350  1.00  0.00     0.233 S 
HETATM   10  C   UNL     1       6.682  -3.622  26.741  1.00  0.00     0.186 C 
HETATM   11  O   UNL     1       7.133  -6.002  26.693  1.00  0.00    -0.205 OA
HETATM   12  O   UNL     1       8.928  -4.471  26.995  1.00  0.00    -0.205 OA
ENDBRANCH   7   9
ENDBRANCH   6   7
ENDBRANCH   1   5
BRANCH   1  13
HETATM   13  C   UNL     1       8.988  -1.318  22.303  1.00  0.00    -0.034 C 
BRANCH  13  14
HETATM   14  C   UNL     1       8.439  -0.459  21.336  1.00  0.00     0.294 C 
HETATM   15  O   UNL     1       9.172   0.394  20.866  1.00  0.00    -0.258 OA
HETATM   16  N   UNL     1       7.157  -0.792  21.148  1.00  0.00    -0.318 N 
ATOM     17  HN  UNL     1       6.629  -1.459  21.711  1.00  0.00     0.169 HD
BRANCH  16  18
HETATM   18  C   UNL     1       6.700  -0.141  20.150  1.00  0.00     0.037 A 
HETATM   19  C   UNL     1       6.623  -0.179  18.832  1.00  0.00     0.153 A 
HETATM   20  N   UNL     1       6.240   0.124  17.715  1.00  0.00    -0.400 N 
HETATM   21  C   UNL     1       5.653   1.107  18.145  1.00  0.00     0.129 A 
ATOM     22  HN  UNL     1       6.360  -0.283  16.787  1.00  0.00     0.154 HD
HETATM   23  C   UNL     1       5.414   1.592  19.273  1.00  0.00     0.002 A 
HETATM   24  C   UNL     1       5.822   1.092  20.395  1.00  0.00     0.025 A 
ENDBRANCH  16  18
ENDBRANCH  13  14
ENDBRANCH   1  13
TORSDOF 6
ENDMDL
MODEL 4
REMARK VINA RESULT:    -6.545      4.022      6.146
REMARK INTER + INTRA:          -9.436
REMARK INTER:                  -8.787
REMARK INTRA:                  -0.649
REMARK UNBOUND:                -0.596
REMARK  6 active torsions:
REMARK  status: ('A' for Active; 'I' for Inactive)
REMARK    1  A    between atoms: S_2  and  N_5 
REMARK    2  A    between atoms: N_5  and  C_7 
REMARK    3  A    between atoms: C_8  and  C_9 
REMARK    4  A    between atoms: C_9  and  C_13 
REMARK    5  A    between atoms: C_13  and  C_14 
REMARK       I    between atoms: C_14  and  N_16 
REMARK    6  A    between atoms: N_16  and  C_18 
ROOT
HETATM    1  C   UNL     1       7.508  -4.520  23.926  1.00  0.00     0.078 C 
HETATM    2  C   UNL     1       7.158  -5.851  21.856  1.00  0.00     0.024 C 
HETATM    3  C   UNL     1       5.652  -4.409  22.479  1.00  0.00     0.024 C 
HETATM    4  C   UNL     1       6.583  -4.740  22.850  1.00  0.00    -0.028 C 
ENDROOT
BRANCH   1   5
HETATM    5  C   UNL     1       7.512  -4.988  25.225  1.00  0.00    -0.034 C 
HETATM    6  C   UNL     1       7.685  -5.311  26.344  1.00  0.00     0.026 C 
BRANCH   6   7
HETATM    7  N   UNL     1       7.724  -5.828  27.406  1.00  0.00    -0.243 N 
ATOM      8  HN  UNL     1       8.638  -6.131  27.742  1.00  0.00     0.189 HD
BRANCH   7   9
HETATM    9  S   UNL     1       6.466  -6.098  28.367  1.00  0.00     0.233 S 
HETATM   10  C   UNL     1       5.700  -4.736  28.367  1.00  0.00     0.186 C 
HETATM   11  O   UNL     1       5.641  -7.080  27.754  1.00  0.00    -0.205 OA
HETATM   12  O   UNL     1       6.826  -6.403  29.702  1.00  0.00    -0.205 OA
ENDBRANCH   7   9
ENDBRANCH   6   7
ENDBRANCH   1   5
BRANCH   1  13
HETATM   13  C   UNL     1       8.301  -3.698  23.702  1.00  0.00    -0.034 C 
BRANCH  13  14
HETATM   14  C   UNL     1       9.029  -2.518  23.473  1.00  0.00     0.294 C 
HETATM   15  O   UNL     1       9.087  -2.112  22.325  1.00  0.00    -0.258 OA
HETATM   16  N   UNL     1       9.528  -2.091  24.638  1.00  0.00    -0.318 N 
ATOM     17  HN  UNL     1       9.506  -2.608  25.517  1.00  0.00     0.169 HD
BRANCH  16  18
HETATM   18  C   UNL     1      10.037  -0.932  24.472  1.00  0.00     0.037 A 
HETATM   19  C   UNL     1       9.750   0.352  24.573  1.00  0.00     0.153 A 
HETATM   20  N   UNL     1       9.952   1.554  24.621  1.00  0.00    -0.400 N 
HETATM   21  C   UNL     1      11.115   1.407  24.271  1.00  0.00     0.129 A 
ATOM     22  HN  UNL     1       9.378   2.363  24.858  1.00  0.00     0.154 HD
HETATM   23  C   UNL     1      11.874   0.438  24.050  1.00  0.00     0.002 A 
HETATM   24  C   UNL     1      11.527  -0.807  24.134  1.00  0.00     0.025 A 
ENDBRANCH  16  18
ENDBRANCH  13  14
ENDBRANCH   1  13
TORSDOF 6
ENDMDL
MODEL 5
REMARK VINA RESULT:    -6.219      2.844      5.104
REMARK INTER + INTRA:          -8.996
REMARK INTER:                  -8.309
REMARK INTRA:                  -0.687
REMARK UNBOUND:                -0.596
REMARK  6 active torsions:
REMARK  status: ('A' for Active; 'I' for Inactive)
REMARK    1  A    between atoms: S_2  and  N_5 
REMARK    2  A    between atoms: N_5  and  C_7 
REMARK    3  A    between atoms: C_8  and  C_9 
REMARK    4  A    between atoms: C_9  and  C_13 
REMARK    5  A    between atoms: C_13  and  C_14 
REMARK       I    between atoms: C_14  and  N_16 
REMARK    6  A    between atoms: N_16  and  C_18 
ROOT
HETATM    1  C   UNL     1       9.984  -1.123  23.138  1.00  0.00     0.078 C 
HETATM    2  C   UNL     1      12.419  -1.095  23.637  1.00  0.00     0.024 C 
HETATM    3  C   UNL     1      11.095   0.305  24.648  1.00  0.00     0.024 C 
HETATM    4  C   UNL     1      10.983  -0.458  23.927  1.00  0.00    -0.028 C 
ENDROOT
BRANCH   1   5
HETATM    5  C   UNL     1       9.373  -0.756  21.956  1.00  0.00    -0.034 C 
HETATM    6  C   UNL     1       8.783  -0.300  21.044  1.00  0.00     0.026 C 
BRANCH   6   7
HETATM    7  N   UNL     1       8.168  -0.076  20.060  1.00  0.00    -0.243 N 
ATOM      8  HN  UNL     1       8.697   0.019  19.194  1.00  0.00     0.189 HD
BRANCH   7   9
HETATM    9  S   UNL     1       6.574   0.095  19.966  1.00  0.00     0.233 S 
HETATM   10  C   UNL     1       6.321   0.394  18.454  1.00  0.00     0.186 C 
HETATM   11  O   UNL     1       5.974  -1.153  20.286  1.00  0.00    -0.205 OA
HETATM   12  O   UNL     1       6.074   1.183  20.722  1.00  0.00    -0.205 OA
ENDBRANCH   7   9
ENDBRANCH   6   7
ENDBRANCH   1   5
BRANCH   1  13
HETATM   13  C   UNL     1       9.515  -2.051  23.662  1.00  0.00    -0.034 C 
BRANCH  13  14
HETATM   14  C   UNL     1       8.702  -3.003  24.300  1.00  0.00     0.294 C 
HETATM   15  O   UNL     1       8.154  -3.832  23.594  1.00  0.00    -0.258 OA
HETATM   16  N   UNL     1       8.711  -2.759  25.615  1.00  0.00    -0.318 N 
ATOM     17  HN  UNL     1       9.120  -1.939  26.063  1.00  0.00     0.169 HD
BRANCH  16  18
HETATM   18  C   UNL     1       8.124  -3.717  26.220  1.00  0.00     0.037 A 
HETATM   19  C   UNL     1       8.339  -4.926  26.704  1.00  0.00     0.153 A 
HETATM   20  N   UNL     1       8.123  -5.941  27.346  1.00  0.00    -0.400 N 
HETATM   21  C   UNL     1       6.970  -5.595  27.567  1.00  0.00     0.129 A 
ATOM     22  HN  UNL     1       8.682  -6.756  27.599  1.00  0.00     0.154 HD
HETATM   23  C   UNL     1       6.276  -4.579  27.347  1.00  0.00     0.002 A 
HETATM   24  C   UNL     1       6.688  -3.523  26.720  1.00  0.00     0.025 A 
ENDBRANCH  16  18
ENDBRANCH  13  14
ENDBRANCH   1  13
TORSDOF 6
ENDMDL
MODEL 6
REMARK VINA RESULT:    -6.091     19.689     23.003
REMARK INTER + INTRA:          -8.823
REMARK INTER:                  -8.238
REMARK INTRA:                  -0.585
REMARK UNBOUND:                -0.596
REMARK  6 active torsions:
REMARK  status: ('A' for Active; 'I' for Inactive)
REMARK    1  A    between atoms: S_2  and  N_5 
REMARK    2  A    between atoms: N_5  and  C_7 
REMARK    3  A    between atoms: C_8  and  C_9 
REMARK    4  A    between atoms: C_9  and  C_13 
REMARK    5  A    between atoms: C_13  and  C_14 
REMARK       I    between atoms: C_14  and  N_16 
REMARK    6  A    between atoms: N_16  and  C_18 
ROOT
HETATM    1  C   UNL     1       6.021  11.753   3.336  1.00  0.00     0.078 C 
HETATM    2  C   UNL     1       3.976  12.995   4.008  1.00  0.00     0.024 C 
HETATM    3  C   UNL     1       4.334  12.563   1.905  1.00  0.00     0.024 C 
HETATM    4  C   UNL     1       4.840  12.378   2.813  1.00  0.00    -0.028 C 
ENDROOT
BRANCH   1   5
HETATM    5  C   UNL     1       7.326  12.199   3.406  1.00  0.00    -0.034 C 
HETATM    6  C   UNL     1       8.365  12.750   3.475  1.00  0.00     0.026 C 
BRANCH   6   7
HETATM    7  N   UNL     1       9.485  13.119   3.405  1.00  0.00    -0.243 N 
ATOM      8  HN  UNL     1      10.214  12.414   3.513  1.00  0.00     0.189 HD
BRANCH   7   9
HETATM    9  S   UNL     1       9.962  14.632   3.156  1.00  0.00     0.233 S 
HETATM   10  C   UNL     1       9.040  15.473   4.095  1.00  0.00     0.186 C 
HETATM   11  O   UNL     1      11.303  14.756   3.611  1.00  0.00    -0.205 OA
HETATM   12  O   UNL     1       9.765  15.078   1.826  1.00  0.00    -0.205 OA
ENDBRANCH   7   9
ENDBRANCH   6   7
ENDBRANCH   1   5
BRANCH   1  13
HETATM   13  C   UNL     1       5.875  10.631   3.612  1.00  0.00    -0.034 C 
BRANCH  13  14
HETATM   14  C   UNL     1       5.636   9.386   4.217  1.00  0.00     0.294 C 
HETATM   15  O   UNL     1       6.049   9.229   5.354  1.00  0.00    -0.258 OA
HETATM   16  N   UNL     1       4.976   8.609   3.351  1.00  0.00    -0.318 N 
ATOM     17  HN  UNL     1       4.803   8.830   2.370  1.00  0.00     0.169 HD
BRANCH  16  18
HETATM   18  C   UNL     1       4.600   7.546   3.948  1.00  0.00     0.037 A 
HETATM   19  C   UNL     1       5.041   6.366   4.344  1.00  0.00     0.153 A 
HETATM   20  N   UNL     1       5.041   5.304   4.944  1.00  0.00    -0.400 N 
HETATM   21  C   UNL     1       3.875   5.455   5.281  1.00  0.00     0.129 A 
ATOM     22  HN  UNL     1       5.738   4.576   5.102  1.00  0.00     0.154 HD
HETATM   23  C   UNL     1       3.017   6.359   5.178  1.00  0.00     0.002 A 
HETATM   24  C   UNL     1       3.204   7.491   4.579  1.00  0.00     0.025 A 
ENDBRANCH  16  18
ENDBRANCH  13  14
ENDBRANCH   1  13
TORSDOF 6
ENDMDL
MODEL 7
REMARK VINA RESULT:    -5.849      4.608      7.097
REMARK INTER + INTRA:          -8.496
REMARK INTER:                  -7.832
REMARK INTRA:                  -0.664
REMARK UNBOUND:                -0.596
REMARK  6 active torsions:
REMARK  status: ('A' for Active; 'I' for Inactive)
REMARK    1  A    between atoms: S_2  and  N_5 
REMARK    2  A    between atoms: N_5  and  C_7 
REMARK    3  A    between atoms: C_8  and  C_9 
REMARK    4  A    between atoms: C_9  and  C_13 
REMARK    5  A    between atoms: C_13  and  C_14 
REMARK       I    between atoms: C_14  and  N_16 
REMARK    6  A    between atoms: N_16  and  C_18 
ROOT
HETATM    1  C   UNL     1       4.759  -5.598  24.755  1.00  0.00     0.078 C 
HETATM    2  C   UNL     1       3.121  -6.192  22.984  1.00  0.00     0.024 C 
HETATM    3  C   UNL     1       2.798  -4.417  24.200  1.00  0.00     0.024 C 
HETATM    4  C   UNL     1       3.527  -5.178  24.149  1.00  0.00    -0.028 C 
ENDROOT
BRANCH   1   5
HETATM    5  C   UNL     1       5.002  -6.286  25.928  1.00  0.00    -0.034 C 
HETATM    6  C   UNL     1       5.047  -6.804  26.985  1.00  0.00     0.026 C 
BRANCH   6   7
HETATM    7  N   UNL     1       5.331  -7.292  28.023  1.00  0.00    -0.243 N 
ATOM      8  HN  UNL     1       4.810  -8.123  28.303  1.00  0.00     0.189 HD
BRANCH   7   9
HETATM    9  S   UNL     1       6.464  -6.764  29.031  1.00  0.00     0.233 S 
HETATM   10  C   UNL     1       5.701  -5.763  29.957  1.00  0.00     0.186 C 
HETATM   11  O   UNL     1       6.903  -7.863  29.819  1.00  0.00    -0.205 OA
HETATM   12  O   UNL     1       7.513  -6.063  28.389  1.00  0.00    -0.205 OA
ENDBRANCH   7   9
ENDBRANCH   6   7
ENDBRANCH   1   5
BRANCH   1  13
HETATM   13  C   UNL     1       5.708  -5.158  24.243  1.00  0.00    -0.034 C 
BRANCH  13  14
HETATM   14  C   UNL     1       6.960  -4.620  23.904  1.00  0.00     0.294 C 
HETATM   15  O   UNL     1       7.829  -5.402  23.559  1.00  0.00    -0.258 OA
HETATM   16  N   UNL     1       6.909  -3.291  24.055  1.00  0.00    -0.318 N 
ATOM     17  HN  UNL     1       6.141  -2.773  24.480  1.00  0.00     0.169 HD
BRANCH  16  18
HETATM   18  C   UNL     1       7.978  -2.778  23.582  1.00  0.00     0.037 A 
HETATM   19  C   UNL     1       8.559  -2.457  22.441  1.00  0.00     0.153 A 
HETATM   20  N   UNL     1       9.369  -1.933  21.695  1.00  0.00    -0.400 N 
HETATM   21  C   UNL     1      10.080  -1.611  22.637  1.00  0.00     0.129 A 
ATOM     22  HN  UNL     1       9.431  -1.811  20.684  1.00  0.00     0.154 HD
HETATM   23  C   UNL     1      10.004  -1.667  23.884  1.00  0.00     0.002 A 
HETATM   24  C   UNL     1       9.014  -2.182  24.542  1.00  0.00     0.025 A 
ENDBRANCH  16  18
ENDBRANCH  13  14
ENDBRANCH   1  13
TORSDOF 6
ENDMDL
MODEL 8
REMARK VINA RESULT:    -5.785      3.441      4.513
REMARK INTER + INTRA:          -8.410
REMARK INTER:                  -7.792
REMARK INTRA:                  -0.618
REMARK UNBOUND:                -0.596
REMARK  6 active torsions:
REMARK  status: ('A' for Active; 'I' for Inactive)
REMARK    1  A    between atoms: S_2  and  N_5 
REMARK    2  A    between atoms: N_5  and  C_7 
REMARK    3  A    between atoms: C_8  and  C_9 
REMARK    4  A    between atoms: C_9  and  C_13 
REMARK    5  A    between atoms: C_13  and  C_14 
REMARK       I    between atoms: C_14  and  N_16 
REMARK    6  A    between atoms: N_16  and  C_18 
ROOT
HETATM    1  C   UNL     1       9.162  -0.210  22.548  1.00  0.00     0.078 C 
HETATM    2  C   UNL     1       9.745  -1.097  24.795  1.00  0.00     0.024 C 
HETATM    3  C   UNL     1      10.743  -1.889  23.031  1.00  0.00     0.024 C 
HETATM    4  C   UNL     1      10.001  -1.163  23.219  1.00  0.00    -0.028 C 
ENDROOT
BRANCH   1   5
HETATM    5  C   UNL     1       7.969  -0.372  21.874  1.00  0.00    -0.034 C 
HETATM    6  C   UNL     1       7.044  -0.628  21.189  1.00  0.00     0.026 C 
BRANCH   6   7
HETATM    7  N   UNL     1       6.051  -0.655  20.550  1.00  0.00    -0.243 N 
ATOM      8  HN  UNL     1       5.323  -1.303  20.850  1.00  0.00     0.189 HD
BRANCH   7   9
HETATM    9  S   UNL     1       5.745   0.236  19.250  1.00  0.00     0.233 S 
HETATM   10  C   UNL     1       5.769  -0.796  18.077  1.00  0.00     0.186 C 
HETATM   11  O   UNL     1       4.427   0.755  19.368  1.00  0.00    -0.205 OA
HETATM   12  O   UNL     1       6.728   1.222  18.993  1.00  0.00    -0.205 OA
ENDBRANCH   7   9
ENDBRANCH   6   7
ENDBRANCH   1   5
BRANCH   1  13
HETATM   13  C   UNL     1       9.647   0.843  22.434  1.00  0.00    -0.034 C 
BRANCH  13  14
HETATM   14  C   UNL     1      10.428   2.009  22.496  1.00  0.00     0.294 C 
HETATM   15  O   UNL     1      10.908   2.416  21.452  1.00  0.00    -0.258 OA
HETATM   16  N   UNL     1      10.475   2.425  23.767  1.00  0.00    -0.318 N 
ATOM     17  HN  UNL     1      10.125   1.907  24.573  1.00  0.00     0.169 HD
BRANCH  16  18
HETATM   18  C   UNL     1      11.030   3.573  23.808  1.00  0.00     0.037 A 
HETATM   19  C   UNL     1      12.205   4.163  23.692  1.00  0.00     0.153 A 
HETATM   20  N   UNL     1      13.001   5.078  23.562  1.00  0.00    -0.400 N 
HETATM   21  C   UNL     1      12.126   5.911  23.754  1.00  0.00     0.129 A 
ATOM     22  HN  UNL     1      14.002   5.129  23.370  1.00  0.00     0.154 HD
HETATM   23  C   UNL     1      10.886   5.896  23.910  1.00  0.00     0.002 A 
HETATM   24  C   UNL     1      10.156   4.826  23.931  1.00  0.00     0.025 A 
ENDBRANCH  16  18
ENDBRANCH  13  14
ENDBRANCH   1  13
TORSDOF 6
ENDMDL
MODEL 9
REMARK VINA RESULT:    -5.760      4.300      6.778
REMARK INTER + INTRA:          -8.376
REMARK INTER:                  -7.786
REMARK INTRA:                  -0.590
REMARK UNBOUND:                -0.596
REMARK  6 active torsions:
REMARK  status: ('A' for Active; 'I' for Inactive)
REMARK    1  A    between atoms: S_2  and  N_5 
REMARK    2  A    between atoms: N_5  and  C_7 
REMARK    3  A    between atoms: C_8  and  C_9 
REMARK    4  A    between atoms: C_9  and  C_13 
REMARK    5  A    between atoms: C_13  and  C_14 
REMARK       I    between atoms: C_14  and  N_16 
REMARK    6  A    between atoms: N_16  and  C_18 
ROOT
HETATM    1  C   UNL     1       7.565  -4.255  23.760  1.00  0.00     0.078 C 
HETATM    2  C   UNL     1       5.511  -4.585  22.400  1.00  0.00     0.024 C 
HETATM    3  C   UNL     1       7.370  -5.543  21.796  1.00  0.00     0.024 C 
HETATM    4  C   UNL     1       7.065  -4.908  22.583  1.00  0.00    -0.028 C 
ENDROOT
BRANCH   1   5
HETATM    5  C   UNL     1       8.284  -3.086  23.910  1.00  0.00    -0.034 C 
HETATM    6  C   UNL     1       8.938  -2.108  23.858  1.00  0.00     0.026 C 
BRANCH   6   7
HETATM    7  N   UNL     1       9.650  -1.181  24.035  1.00  0.00    -0.243 N 
ATOM      8  HN  UNL     1       9.399  -0.541  24.788  1.00  0.00     0.189 HD
BRANCH   7   9
HETATM    9  S   UNL     1      10.976  -0.840  23.196  1.00  0.00     0.233 S 
HETATM   10  C   UNL     1      11.973  -0.311  24.276  1.00  0.00     0.186 C 
HETATM   11  O   UNL     1      11.489  -2.054  22.664  1.00  0.00    -0.205 OA
HETATM   12  O   UNL     1      10.790   0.177  22.228  1.00  0.00    -0.205 OA
ENDBRANCH   7   9
ENDBRANCH   6   7
ENDBRANCH   1   5
BRANCH   1  13
HETATM   13  C   UNL     1       7.469  -4.896  24.728  1.00  0.00    -0.034 C 
BRANCH  13  14
HETATM   14  C   UNL     1       7.159  -5.456  25.978  1.00  0.00     0.294 C 
HETATM   15  O   UNL     1       8.091  -5.839  26.664  1.00  0.00    -0.258 OA
HETATM   16  N   UNL     1       5.831  -5.446  26.133  1.00  0.00    -0.318 N 
ATOM     17  HN  UNL     1       5.152  -5.207  25.411  1.00  0.00     0.169 HD
BRANCH  16  18
HETATM   18  C   UNL     1       5.550  -5.787  27.331  1.00  0.00     0.037 A 
HETATM   19  C   UNL     1       5.226  -6.837  28.063  1.00  0.00     0.153 A 
HETATM   20  N   UNL     1       5.032  -7.492  29.073  1.00  0.00    -0.400 N 
HETATM   21  C   UNL     1       5.119  -6.495  29.777  1.00  0.00     0.129 A 
ATOM     22  HN  UNL     1       4.863  -8.481  29.259  1.00  0.00     0.154 HD
HETATM   23  C   UNL     1       5.403  -5.290  29.602  1.00  0.00     0.002 A 
HETATM   24  C   UNL     1       5.682  -4.755  28.457  1.00  0.00     0.025 A 
ENDBRANCH  16  18
ENDBRANCH  13  14
ENDBRANCH   1  13
TORSDOF 6
ENDMDL
