REMARK  6 active torsions:
REMARK  status: ('A' for Active; 'I' for Inactive)
REMARK    1  A    between atoms: S_2  and  N_5 
REMARK    2  A    between atoms: N_5  and  C_7 
REMARK    3  A    between atoms: C_8  and  C_9 
REMARK    4  A    between atoms: C_9  and  C_13 
REMARK    5  A    between atoms: C_13  and  C_14 
REMARK       I    between atoms: C_14  and  N_16 
REMARK    6  A    between atoms: N_16  and  C_18 
ROOT
HETATM    1  C   UNL     1      10.329  -1.210  22.994  1.00  0.00     0.078 C 
HETATM    2  C   UNL     1      12.267  -0.005  23.978  1.00  0.00     0.024 C 
HETATM    3  C   UNL     1      12.606  -1.577  22.512  1.00  0.00     0.024 C 
HETATM    4  C   UNL     1      11.763  -1.141  22.974  1.00  0.00    -0.028 C 
ENDROOT
BRANCH   1   5
HETATM    5  C   UNL     1       9.474  -2.079  23.642  1.00  0.00    -0.034 C 
HETATM    6  C   UNL     1       8.890  -2.936  24.201  1.00  0.00     0.026 C 
BRANCH   6   7
HETATM    7  N   UNL     1       8.113  -3.712  24.637  1.00  0.00    -0.243 N 
ATOM      8  HN  UNL     1       7.318  -3.955  24.046  1.00  0.00     0.189 HD
BRANCH   7   9
HETATM    9  S   UNL     1       8.196  -4.418  26.077  1.00  0.00     0.233 S 
HETATM   10  C   UNL     1       6.736  -4.911  26.334  1.00  0.00     0.186 C 
HETATM   11  O   UNL     1       9.043  -5.554  25.966  1.00  0.00    -0.205 OA
HETATM   12  O   UNL     1       8.556  -3.534  27.123  1.00  0.00    -0.205 OA
ENDBRANCH   7   9
ENDBRANCH   6   7
ENDBRANCH   1   5
BRANCH   1  13
HETATM   13  C   UNL     1       9.815  -0.506  22.222  1.00  0.00    -0.034 C 
BRANCH  13  14
HETATM   14  C   UNL     1       8.974   0.142  21.302  1.00  0.00     0.294 C 
HETATM   15  O   UNL     1       9.399   1.156  20.775  1.00  0.00    -0.258 OA
HETATM   16  N   UNL     1       7.827  -0.541  21.217  1.00  0.00    -0.318 N 
ATOM     17  HN  UNL     1       7.553  -1.316  21.821  1.00  0.00     0.169 HD
BRANCH  16  18
HETATM   18  C   UNL     1       7.130  -0.066  20.259  1.00  0.00     0.037 A 
HETATM   19  C   UNL     1       7.123   0.063  18.945  1.00  0.00     0.153 A 
HETATM   20  N   UNL     1       6.672   0.296  17.836  1.00  0.00    -0.400 N 
HETATM   21  C   UNL     1       5.651   0.771  18.314  1.00  0.00     0.129 A 
ATOM     22  HN  UNL     1       7.012   0.152  16.885  1.00  0.00     0.154 HD
HETATM   23  C   UNL     1       5.163   0.892  19.459  1.00  0.00     0.002 A 
HETATM   24  C   UNL     1       5.737   0.502  20.552  1.00  0.00     0.025 A 
ENDBRANCH  16  18
ENDBRANCH  13  14
ENDBRANCH   1  13
TORSDOF 6
