stable:False satoms:21 tatoms:24 sratio:0.875
  -OEChem-07092417303D

 24 23  0     0  0  0  0  0  0999 V2000
    8.3323   -3.5587   24.7442 C   0  0  0  0  0  0  0  0  0  0  0  0
    7.6230   -2.7719   24.9259 H   0  0  0  0  0  0  0  0  0  0  0  0
   10.5366   -3.2080   25.5938 O   0  0  0  0  0  0  0  0  0  0  0  0
    8.3453   -4.2659   25.5509 H   0  0  0  0  0  0  0  0  0  0  0  0
    8.1088   -4.0049   23.7902 H   0  0  0  0  0  0  0  0  0  0  0  0
    6.9840   -1.5860   22.7523 O   0  0  0  0  0  0  0  0  0  0  0  0
   10.2392   -0.8624   21.6308 C   0  0  0  0  0  0  0  0  0  0  0  0
   10.0720   -2.2494   23.4902 C   0  0  0  0  0  0  0  0  0  0  0  0
    9.8060   -2.9335   24.6405 C   0  0  0  0  0  0  0  0  0  0  0  0
   11.7046   -0.4983   23.1534 H   0  0  0  0  0  0  0  0  0  0  0  0
   12.3690   -1.0135   21.6076 H   0  0  0  0  0  0  0  0  0  0  0  0
   11.7590    0.6102   21.7914 H   0  0  0  0  0  0  0  0  0  0  0  0
   11.1754   -2.5913   23.3161 O   0  0  0  0  0  0  0  0  0  0  0  0
    9.3654   -1.3308   22.4647 C   0  0  0  0  0  0  0  0  0  0  0  0
    6.5934    0.8832   20.9425 C   0  0  0  0  0  0  0  0  0  0  0  0
   11.5890   -0.4194   22.0776 C   0  0  0  0  0  0  0  0  0  0  0  0
    7.6777    0.0871   21.4115 N   0  0  0  0  0  0  0  0  0  0  0  0
    6.7928    1.8955   20.3381 O   0  0  0  0  0  0  0  0  0  0  0  0
    7.8630   -0.9793   22.2237 C   0  0  0  0  0  0  0  0  0  0  0  0
    9.9817   -0.7528   20.5644 H   0  0  0  0  0  0  0  0  0  0  0  0
    4.5172   -0.2068   20.3460 F   0  0  0  0  0  0  0  0  0  0  0  0
    5.1962    0.6109   21.0798 C   0  0  0  0  0  0  0  0  0  0  0  0
    8.4836    0.5214   20.9812 H   0  0  0  0  0  0  0  0  0  0  0  0
    4.4690    1.3344   21.8798 F   0  0  0  0  0  0  0  0  0  0  0  0
 15 18  2  0  0  0  0
 21 22  1  0  0  0  0
  7 20  1  0  0  0  0
 15 22  1  0  0  0  0
 15 17  1  0  0  0  0
 17 23  1  0  0  0  0
 22 24  1  0  0  0  0
 17 19  1  0  0  0  0
 11 16  1  0  0  0  0
  7 16  1  0  0  0  0
  7 14  2  3  0  0  0
 12 16  1  0  0  0  0
 10 16  1  0  0  0  0
 14 19  1  0  0  0  0
  6 19  2  0  0  0  0
  8 14  1  0  0  0  0
  8 13  2  0  0  0  0
  8  9  1  0  0  0  0
  1  5  1  0  0  0  0
  1  9  1  0  0  0  0
  3  9  2  0  0  0  0
  1  2  1  0  0  0  0
  1  4  1  0  0  0  0
M  END
> <Shapegauss>
-120.409691

$$$$
