stable:False satoms:21 tatoms:24 sratio:0.875
  -OEChem-08052422323D

 25 24  0     0  0  0  0  0  0999 V2000
  -13.4291   -1.8694  -23.0413 C   0  0  0  0  0  0  0  0  0  0  0  0
  -13.0468   -2.8034  -23.4109 H   0  0  0  0  0  0  0  0  0  0  0  0
  -14.1227   -0.2873  -24.6905 O   0  0  0  0  0  0  0  0  0  0  0  0
  -14.4936   -1.9074  -22.9126 H   0  0  0  0  0  0  0  0  0  0  0  0
  -12.8996   -1.6184  -22.1381 H   0  0  0  0  0  0  0  0  0  0  0  0
  -10.5406   -3.0207  -22.9516 O   0  0  0  0  0  0  0  0  0  0  0  0
   -9.5303    0.0356  -24.3717 C   0  0  0  0  0  0  0  0  0  0  0  0
  -11.8226   -0.3024  -24.1713 C   0  0  0  0  0  0  0  0  0  0  0  0
  -13.1233   -0.7099  -24.1068 C   0  0  0  0  0  0  0  0  0  0  0  0
  -10.6864    0.7317  -26.0381 H   0  0  0  0  0  0  0  0  0  0  0  0
   -9.8068    1.9920  -25.1812 H   0  0  0  0  0  0  0  0  0  0  0  0
   -8.9466    0.8902  -26.2245 H   0  0  0  0  0  0  0  0  0  0  0  0
  -11.9893    0.8452  -24.3128 O   0  0  0  0  0  0  0  0  0  0  0  0
  -10.3910   -0.8766  -24.0468 C   0  0  0  0  0  0  0  0  0  0  0  0
   -7.6015   -3.5281  -23.7451 C   0  0  0  0  0  0  0  0  0  0  0  0
   -9.7624    0.9588  -25.5169 C   0  0  0  0  0  0  0  0  0  0  0  0
   -8.5499   -2.4707  -23.8534 N   0  0  0  0  0  0  0  0  0  0  0  0
   -6.5424   -3.4603  -24.2959 O   0  0  0  0  0  0  0  0  0  0  0  0
   -9.8455   -2.2467  -23.5331 C   0  0  0  0  0  0  0  0  0  0  0  0
   -8.5821    0.1234  -23.8160 H   0  0  0  0  0  0  0  0  0  0  0  0
   -7.5564   -4.8532  -21.7210 F   0  0  0  0  0  0  0  0  0  0  0  0
   -7.7356   -4.7383  -22.9949 C   0  0  0  0  0  0  0  0  0  0  0  0
   -8.0277   -1.7417  -24.3216 H   0  0  0  0  0  0  0  0  0  0  0  0
   -7.8866   -5.8726  -23.6136 F   0  0  0  0  0  0  0  0  0  0  0  0
   -8.8208   -4.5999  -22.8801 H   0  0  0  0  0  0  0  0  0  0  0  0
 15 18  2  0  0  0  0
 21 22  1  0  0  0  0
  7 20  1  0  0  0  0
 15 22  1  0  0  0  0
 15 17  1  0  0  0  0
 17 23  1  0  0  0  0
 22 24  1  0  0  0  0
 17 19  1  0  0  0  0
 11 16  1  0  0  0  0
  7 16  1  0  0  0  0
  7 14  2  3  0  0  0
 12 16  1  0  0  0  0
 10 16  1  0  0  0  0
 14 19  1  0  0  0  0
  6 19  2  0  0  0  0
  8 14  1  0  0  0  0
  8 13  2  0  0  0  0
  8  9  1  0  0  0  0
  1  5  1  0  0  0  0
  1  9  1  0  0  0  0
  3  9  2  0  0  0  0
  1  2  1  0  0  0  0
  1  4  1  0  0  0  0
 22 25  1  0  0  0  0
M  END
> <Chemgauss4>
-5.325448

$$$$
