stable:False satoms:21 tatoms:24 sratio:0.875
  -OEChem-08052422333D

 25 24  0     0  0  0  0  0  0999 V2000
   13.1457   -1.5266   22.8816 C   0  0  0  0  0  0  0  0  0  0  0  0
   12.7633   -2.4606   23.2512 H   0  0  0  0  0  0  0  0  0  0  0  0
   13.8392    0.0555   24.5308 O   0  0  0  0  0  0  0  0  0  0  0  0
   14.2101   -1.5646   22.7529 H   0  0  0  0  0  0  0  0  0  0  0  0
   12.6162   -1.2756   21.9784 H   0  0  0  0  0  0  0  0  0  0  0  0
   10.2571   -2.6778   22.7919 O   0  0  0  0  0  0  0  0  0  0  0  0
    9.2469    0.3784   24.2120 C   0  0  0  0  0  0  0  0  0  0  0  0
   11.5392    0.0404   24.0116 C   0  0  0  0  0  0  0  0  0  0  0  0
   12.8399   -0.3670   23.9471 C   0  0  0  0  0  0  0  0  0  0  0  0
   10.4030    1.0746   25.8784 H   0  0  0  0  0  0  0  0  0  0  0  0
    9.5233    2.3348   25.0215 H   0  0  0  0  0  0  0  0  0  0  0  0
    8.6632    1.2330   26.0648 H   0  0  0  0  0  0  0  0  0  0  0  0
   11.7059    1.1880   24.1531 O   0  0  0  0  0  0  0  0  0  0  0  0
   10.1076   -0.5337   23.8871 C   0  0  0  0  0  0  0  0  0  0  0  0
    7.3181   -3.1853   23.5854 C   0  0  0  0  0  0  0  0  0  0  0  0
    9.4790    1.3016   25.3573 C   0  0  0  0  0  0  0  0  0  0  0  0
    8.2665   -2.1279   23.6937 N   0  0  0  0  0  0  0  0  0  0  0  0
    6.2590   -3.1175   24.1362 O   0  0  0  0  0  0  0  0  0  0  0  0
    9.5621   -1.9039   23.3734 C   0  0  0  0  0  0  0  0  0  0  0  0
    8.2987    0.4662   23.6563 H   0  0  0  0  0  0  0  0  0  0  0  0
    7.2730   -4.5103   21.5613 F   0  0  0  0  0  0  0  0  0  0  0  0
    7.4522   -4.3955   22.8352 C   0  0  0  0  0  0  0  0  0  0  0  0
    7.7443   -1.3989   24.1619 H   0  0  0  0  0  0  0  0  0  0  0  0
    7.6032   -5.5298   23.4539 F   0  0  0  0  0  0  0  0  0  0  0  0
    8.5374   -4.2571   22.7204 H   0  0  0  0  0  0  0  0  0  0  0  0
 15 18  2  0  0  0  0
 21 22  1  0  0  0  0
  7 20  1  0  0  0  0
 15 22  1  0  0  0  0
 15 17  1  0  0  0  0
 17 23  1  0  0  0  0
 22 24  1  0  0  0  0
 17 19  1  0  0  0  0
 11 16  1  0  0  0  0
  7 16  1  0  0  0  0
  7 14  2  3  0  0  0
 12 16  1  0  0  0  0
 10 16  1  0  0  0  0
 14 19  1  0  0  0  0
  6 19  2  0  0  0  0
  8 14  1  0  0  0  0
  8 13  2  0  0  0  0
  8  9  1  0  0  0  0
  1  5  1  0  0  0  0
  1  9  1  0  0  0  0
  3  9  2  0  0  0  0
  1  2  1  0  0  0  0
  1  4  1  0  0  0  0
 22 25  1  0  0  0  0
M  END
> <Chemgauss4>
-5.117860

$$$$
