stable:False satoms:17 tatoms:24 sratio:0.7083333333333334
  -OEChem-07092417283D

 24 24  0     1  0  0  0  0  0999 V2000
    5.2981    2.6130   22.9901 H   0  0  0  0  0  0  0  0  0  0  0  0
   11.0823   -4.9045   20.5023 C   0  0  0  0  0  0  0  0  0  0  0  0
   10.0757   -2.6428   21.1446 O   0  0  0  0  0  0  0  0  0  0  0  0
    7.0579    2.5208   24.3669 H   0  0  0  0  0  0  0  0  0  0  0  0
    9.6157   -1.6531   21.9730 C   0  0  3  0  0  0  0  0  0  0  0  0
   11.1893   -1.5542   23.4857 H   0  0  0  0  0  0  0  0  0  0  0  0
    4.0779    1.3664   23.2069 H   0  0  0  0  0  0  0  0  0  0  0  0
    9.8711   -4.4167   22.8460 O   0  0  0  0  0  0  0  0  0  0  0  0
   10.4137   -5.7221   20.6392 H   0  0  0  0  0  0  0  0  0  0  0  0
   12.1345   -3.5848   22.5287 O   0  0  0  0  0  0  0  0  0  0  0  0
    9.7054    0.4741   24.4443 H   0  0  0  0  0  0  0  0  0  0  0  0
    7.2873    0.8895   23.3654 C   0  0  3  0  0  0  0  0  0  0  0  0
   10.8388   -4.2972   19.6502 H   0  0  0  0  0  0  0  0  0  0  0  0
    5.0179    1.8928   24.5955 H   0  0  0  0  0  0  0  0  0  0  0  0
   10.8422   -3.8678   21.9690 S   0  0  0  0  0  0  0  0  0  0  0  0
    8.4222   -0.9485   21.8163 C   0  0  0  0  0  0  0  0  0  0  0  0
    9.4942   -0.1259   23.5942 C   0  0  0  0  0  0  0  0  0  0  0  0
    7.7359    1.8933   24.0049 N   0  5  0  0  0  0  0  0  0  0  0  0
    7.7041   -1.1087   21.0432 H   0  0  0  0  0  0  0  0  0  0  0  0
   10.2761   -1.1737   23.1069 C   0  0  0  0  0  0  0  0  0  0  0  0
    5.0496    1.6961   23.5219 C   0  0  0  0  0  0  0  0  0  0  0  0
    8.3199   -0.0306   22.8726 C   0  0  0  0  0  0  0  0  0  0  0  0
    5.9650    0.6406   23.1970 O   0  0  0  0  0  0  0  0  0  0  0  0
   12.1092   -5.2459   20.4320 H   0  0  0  0  0  0  0  0  0  0  0  0
  2 13  1  0  0  0  0
  2 24  1  0  0  0  0
  2  9  1  0  0  0  0
  2 15  1  0  0  0  0
 16 19  1  0  0  0  0
  3 15  1  0  0  0  0
  3  5  1  0  0  0  0
  5 16  1  0  0  0  0
 16 22  2  0  0  0  0
 10 15  2  0  0  0  0
  8 15  2  0  0  0  0
  5 20  1  0  0  0  0
 12 22  1  0  0  0  0
 17 22  1  0  0  0  0
  1 21  1  0  0  0  0
  6 20  1  0  0  0  0
 17 20  2  0  0  0  0
 12 23  1  0  0  0  0
 21 23  1  0  0  0  0
  7 21  1  0  0  0  0
 12 18  1  0  0  0  0
 14 21  1  0  0  0  0
 11 17  1  0  0  0  0
  4 18  1  0  0  0  0
M  CHG  1  18  -1
M  END
> <Shapegauss>
-67.494232

$$$$
