stable:False satoms:17 tatoms:24 sratio:0.7083333333333334
  -OEChem-08052415033D

 28 28  0     1  0  0  0  0  0999 V2000
    6.5994   -6.2712   30.4683 H   0  0  0  0  0  0  0  0  0  0  0  0
    9.9958   -1.6461   22.5164 C   0  0  0  0  0  0  0  0  0  0  0  0
    9.2619   -3.3332   24.2930 O   0  0  0  0  0  0  0  0  0  0  0  0
    6.9504   -7.4748   27.6601 H   0  0  0  0  0  0  0  0  0  0  0  0
    8.4073   -4.1556   24.9790 C   0  0  3  0  0  0  0  0  0  0  0  0
    7.3504   -5.1716   23.3588 H   0  0  0  0  0  0  0  0  0  0  0  0
    6.0043   -4.6792   30.9169 H   0  0  0  0  0  0  0  0  0  0  0  0
    7.4571   -1.9578   23.3262 O   0  0  0  0  0  0  0  0  0  0  0  0
    9.6439   -0.6574   22.6974 H   0  0  0  0  0  0  0  0  0  0  0  0
    8.3871   -3.6104   21.8030 O   0  0  0  0  0  0  0  0  0  0  0  0
    6.1760   -6.5009   25.3808 H   0  0  0  0  0  0  0  0  0  0  0  0
    6.6325   -5.6540   27.8825 C   0  0  3  0  0  0  0  0  0  0  0  0
   10.7948   -1.9374   23.1729 H   0  0  0  0  0  0  0  0  0  0  0  0
    4.9338   -5.7831   30.0659 H   0  0  0  0  0  0  0  0  0  0  0  0
    8.5834   -2.7121   22.9067 S   0  0  0  0  0  0  0  0  0  0  0  0
    8.3008   -4.2449   26.3669 C   0  0  0  0  0  0  0  0  0  0  0  0
    6.9061   -5.7340   25.4592 C   0  0  0  0  0  0  0  0  0  0  0  0
    6.1908   -6.8453   27.8236 N   0  3  0  0  0  0  0  0  0  0  0  0
    8.8559   -3.6650   27.0702 H   0  0  0  0  0  0  0  0  0  0  0  0
    7.5091   -5.0553   24.3997 C   0  0  0  0  0  0  0  0  0  0  0  0
    5.9662   -5.4405   30.1612 C   0  0  0  0  0  0  0  0  0  0  0  0
    7.3121   -5.1949   26.6647 C   0  0  0  0  0  0  0  0  0  0  0  0
    6.4456   -4.8394   28.9503 O   0  0  0  0  0  0  0  0  0  0  0  0
   10.3020   -1.7699   21.4834 H   0  0  0  0  0  0  0  0  0  0  0  0
    7.6360   -3.3714   24.9664 H   0  0  0  0  0  0  0  0  0  0  0  0
    7.5865   -6.0093   28.2994 H   0  0  0  0  0  0  0  0  0  0  0  0
    5.7448   -7.0785   28.6877 H   0  0  0  0  0  0  0  0  0  0  0  0
    5.5299   -6.9193   27.0768 H   0  0  0  0  0  0  0  0  0  0  0  0
  2 13  1  0  0  0  0
  2 24  1  0  0  0  0
  2  9  1  0  0  0  0
  2 15  1  0  0  0  0
 16 19  1  0  0  0  0
  3 15  1  0  0  0  0
  3  5  1  0  0  0  0
  5 16  1  0  0  0  0
 16 22  2  0  0  0  0
 10 15  2  0  0  0  0
  8 15  2  0  0  0  0
  5 20  1  0  0  0  0
 12 22  1  0  0  0  0
 17 22  1  0  0  0  0
  1 21  1  0  0  0  0
  6 20  1  0  0  0  0
 17 20  2  0  0  0  0
 12 23  1  0  0  0  0
 21 23  1  0  0  0  0
  7 21  1  0  0  0  0
 12 18  1  0  0  0  0
 14 21  1  0  0  0  0
 11 17  1  0  0  0  0
  4 18  1  0  0  0  0
  5 25  1  0  0  0  0
 12 26  1  0  0  0  0
 18 27  1  0  0  0  0
 18 28  1  0  0  0  0
M  CHG  1  18   1
M  END
> <Chemgauss4>
-6.228020

$$$$
