stable:False satoms:17 tatoms:24 sratio:0.7083333333333334
  -OEChem-08052415033D

 28 28  0     1  0  0  0  0  0999 V2000
   -6.3373   -6.5651  -30.8016 H   0  0  0  0  0  0  0  0  0  0  0  0
   -9.7337   -1.9400  -22.8497 C   0  0  0  0  0  0  0  0  0  0  0  0
   -8.9997   -3.6271  -24.6263 O   0  0  0  0  0  0  0  0  0  0  0  0
   -6.6882   -7.7687  -27.9934 H   0  0  0  0  0  0  0  0  0  0  0  0
   -8.1451   -4.4495  -25.3124 C   0  0  3  0  0  0  0  0  0  0  0  0
   -7.0883   -5.4655  -23.6921 H   0  0  0  0  0  0  0  0  0  0  0  0
   -5.7421   -4.9731  -31.2503 H   0  0  0  0  0  0  0  0  0  0  0  0
   -7.1950   -2.2517  -23.6595 O   0  0  0  0  0  0  0  0  0  0  0  0
   -9.3817   -0.9513  -23.0307 H   0  0  0  0  0  0  0  0  0  0  0  0
   -8.1249   -3.9043  -22.1364 O   0  0  0  0  0  0  0  0  0  0  0  0
   -5.9138   -6.7948  -25.7142 H   0  0  0  0  0  0  0  0  0  0  0  0
   -6.3704   -5.9479  -28.2158 C   0  0  3  0  0  0  0  0  0  0  0  0
  -10.5326   -2.2313  -23.5062 H   0  0  0  0  0  0  0  0  0  0  0  0
   -4.6716   -6.0770  -30.3993 H   0  0  0  0  0  0  0  0  0  0  0  0
   -8.3213   -3.0060  -23.2400 S   0  0  0  0  0  0  0  0  0  0  0  0
   -8.0387   -4.5387  -26.7002 C   0  0  0  0  0  0  0  0  0  0  0  0
   -6.6440   -6.0279  -25.7925 C   0  0  0  0  0  0  0  0  0  0  0  0
   -5.9287   -7.1392  -28.1570 N   0  3  0  0  0  0  0  0  0  0  0  0
   -8.5937   -3.9589  -27.4036 H   0  0  0  0  0  0  0  0  0  0  0  0
   -7.2469   -5.3492  -24.7331 C   0  0  0  0  0  0  0  0  0  0  0  0
   -5.7040   -5.7344  -30.4946 C   0  0  0  0  0  0  0  0  0  0  0  0
   -7.0499   -5.4888  -26.9980 C   0  0  0  0  0  0  0  0  0  0  0  0
   -6.1834   -5.1333  -29.2836 O   0  0  0  0  0  0  0  0  0  0  0  0
  -10.0398   -2.0638  -21.8168 H   0  0  0  0  0  0  0  0  0  0  0  0
   -7.3739   -3.6653  -25.2997 H   0  0  0  0  0  0  0  0  0  0  0  0
   -7.3243   -6.3032  -28.6327 H   0  0  0  0  0  0  0  0  0  0  0  0
   -5.4826   -7.3724  -29.0211 H   0  0  0  0  0  0  0  0  0  0  0  0
   -5.2678   -7.2132  -27.4101 H   0  0  0  0  0  0  0  0  0  0  0  0
  2 13  1  0  0  0  0
  2 24  1  0  0  0  0
  2  9  1  0  0  0  0
  2 15  1  0  0  0  0
 16 19  1  0  0  0  0
  3 15  1  0  0  0  0
  3  5  1  0  0  0  0
  5 16  1  0  0  0  0
 16 22  2  0  0  0  0
 10 15  2  0  0  0  0
  8 15  2  0  0  0  0
  5 20  1  0  0  0  0
 12 22  1  0  0  0  0
 17 22  1  0  0  0  0
  1 21  1  0  0  0  0
  6 20  1  0  0  0  0
 17 20  2  0  0  0  0
 12 23  1  0  0  0  0
 21 23  1  0  0  0  0
  7 21  1  0  0  0  0
 12 18  1  0  0  0  0
 14 21  1  0  0  0  0
 11 17  1  0  0  0  0
  4 18  1  0  0  0  0
  5 25  1  0  0  0  0
 12 26  1  0  0  0  0
 18 27  1  0  0  0  0
 18 28  1  0  0  0  0
M  CHG  1  18   1
M  END
> <Chemgauss4>
-6.544326

$$$$
