REMARK  10 active torsions:
REMARK  status: ('A' for Active; 'I' for Inactive)
REMARK    1  A    between atoms: S_2  and  N_5 
REMARK    2  A    between atoms: C_7  and  C_8 
REMARK    3  A    between atoms: C_8  and  C_9 
REMARK    4  A    between atoms: C_9  and  C_15 
REMARK    5  A    between atoms: C_9  and  C_14 
REMARK    6  A    between atoms: C_11  and  C_12 
REMARK    7  A    between atoms: C_12  and  C_13 
REMARK    8  A    between atoms: C_13  and  C_14 
REMARK    9  A    between atoms: C_15  and  C_16 
REMARK       I    between atoms: C_16  and  N_18 
REMARK   10  A    between atoms: N_18  and  C_20 
ROOT
HETATM    1  C   UNL     1      10.340  -1.194  23.149  1.00  0.00     0.109 C 
ENDROOT
BRANCH   1   2
HETATM    2  C   UNL     1       9.430  -1.999  23.520  1.00  0.00     0.011 C 
BRANCH   2   3
HETATM    3  C   UNL     1       8.940  -2.907  24.152  1.00  0.00     0.097 C 
HETATM    4  N   UNL     1       8.126  -3.576  24.671  1.00  0.00    -0.296 N 
ATOM      5  HN  UNL     1       7.258  -3.720  24.155  1.00  0.00     0.177 HD
BRANCH   4   6
HETATM    6  S   UNL     1       8.234  -4.294  26.117  1.00  0.00     0.226 S 
HETATM    7  C   UNL     1       6.559  -4.853  26.537  1.00  0.00     0.186 C 
HETATM    8  O   UNL     1       9.017  -5.491  26.024  1.00  0.00    -0.206 OA
HETATM    9  O   UNL     1       8.623  -3.389  27.155  1.00  0.00    -0.206 OA
ENDBRANCH   4   6
ENDBRANCH   2   3
ENDBRANCH   1   2
BRANCH   1  10
HETATM   10  C   UNL     1       9.698  -0.601  22.329  1.00  0.00    -0.071 C 
BRANCH  10  11
HETATM   11  C   UNL     1       9.070   0.053  21.380  1.00  0.00     0.289 C 
HETATM   12  O   UNL     1       9.605   0.982  20.974  1.00  0.00    -0.259 OA
HETATM   13  N   UNL     1       7.902  -0.497  21.110  1.00  0.00    -0.315 N 
ATOM     14  HN  UNL     1       7.575  -1.280  21.675  1.00  0.00     0.170 HD
BRANCH  13  15
HETATM   15  C   UNL     1       7.180  -0.071  20.163  1.00  0.00     0.068 A 
HETATM   16  C   UNL     1       7.200   0.000  18.855  1.00  0.00     0.118 A 
HETATM   17  N   UNL     1       6.783   0.268  17.759  1.00  0.00    -0.373 N 
HETATM   18  C   UNL     1       5.612   0.900  18.248  1.00  0.00     0.089 A 
ATOM     19  HN  UNL     1       7.142   0.101  16.819  1.00  0.00     0.164 HD
HETATM   20  C   UNL     1       5.295   0.970  19.383  1.00  0.00     0.038 A 
HETATM   21  C   UNL     1       5.840   0.584  20.536  1.00  0.00     0.040 A 
HETATM   22 BR   UNL     1       5.299   0.726  22.069  1.00  0.00    -0.049 Br
ENDBRANCH  13  15
ENDBRANCH  10  11
ENDBRANCH   1  10
BRANCH   1  23
HETATM   23  C   UNL     1      11.810  -1.764  22.550  1.00  0.00    -0.006 C 
BRANCH  23  24
HETATM   24  C   UNL     1      12.765  -1.270  22.657  1.00  0.00    -0.002 C 
BRANCH  24  25
HETATM   25  C   UNL     1      13.128  -0.213  23.448  1.00  0.00    -0.001 C 
BRANCH  25  26
HETATM   26  C   UNL     1      12.065   0.275  24.221  1.00  0.00    -0.010 C 
HETATM   27  C   UNL     1      11.065   0.072  24.290  1.00  0.00     0.011 C 
ENDBRANCH  25  26
ENDBRANCH  24  25
ENDBRANCH  23  24
ENDBRANCH   1  23
TORSDOF 10
