stable:False satoms:7 tatoms:24 sratio:0.2916666666666667
  -OEChem-07092417453D

 24 24  0     1  0  0  0  0  0999 V2000
    6.5586   -4.8527   26.5373 C   0  0  0  0  0  0  0  0  0  0  0  0
    8.2341   -4.2938   26.1168 S   0  0  0  0  0  0  0  0  0  0  0  0
    9.0171   -5.4910   26.0245 O   0  0  0  0  0  0  0  0  0  0  0  0
    8.6229   -3.3893   27.1546 O   0  0  0  0  0  0  0  0  0  0  0  0
    8.1257   -3.5762   24.6709 N   0  0  0  0  0  0  0  0  0  0  0  0
    8.9399   -2.9072   24.1525 C   0  0  0  0  0  0  0  0  0  0  0  0
    9.4304   -1.9988   23.5195 C   0  0  0  0  0  0  0  0  0  0  0  0
   10.3398   -1.1941   23.1487 C   0  0  1  0  0  0  0  0  0  0  0  0
   11.0654    0.0724   24.2898 C   0  0  0  0  0  0  0  0  0  0  0  0
   12.0645    0.2748   24.2213 C   0  0  0  0  0  0  0  0  0  0  0  0
   13.1278   -0.2135   23.4481 C   0  0  0  0  0  0  0  0  0  0  0  0
   12.7655   -1.2701   22.6575 C   0  0  0  0  0  0  0  0  0  0  0  0
   11.8104   -1.7635   22.5503 C   0  0  0  0  0  0  0  0  0  0  0  0
    9.6982   -0.6009   22.3294 C   0  0  0  0  0  0  0  0  0  0  0  0
    9.0696    0.0534   21.3801 C   0  0  0  0  0  0  0  0  0  0  0  0
    9.6051    0.9820   20.9737 O   0  0  0  0  0  0  0  0  0  0  0  0
    7.9020   -0.4973   21.1096 N   0  0  0  0  0  0  0  0  0  0  0  0
    7.1798   -0.0714   20.1631 C   0  0  0  0  0  0  0  0  0  0  0  0
    7.1996    0.0002   18.8549 C   0  0  0  0  0  0  0  0  0  0  0  0
    6.7829    0.2681   17.7588 N   0  0  0  0  0  0  0  0  0  0  0  0
    5.6115    0.8996   18.2476 C   0  0  0  0  0  0  0  0  0  0  0  0
    5.2947    0.9699   19.3834 C   0  0  0  0  0  0  0  0  0  0  0  0
    5.8399    0.5838   20.5357 C   0  0  0  0  0  0  0  0  0  0  0  0
    5.2986    0.7257   22.0686 Br  0  0  0  0  0  0  0  0  0  0  0  0
 20 21  2  0  0  0  0
 19 20  1  0  0  0  0
 21 22  1  0  0  0  0
 18 19  2  0  0  0  0
 22 23  2  0  0  0  0
 18 23  1  0  0  0  0
 17 18  1  0  0  0  0
 23 24  1  0  0  0  0
 15 16  2  0  0  0  0
 15 17  1  0  0  0  0
 14 15  1  0  0  0  0
  8 14  1  0  0  0  0
 12 13  2  0  0  0  0
  8 13  1  0  0  0  0
 11 12  1  0  0  0  0
  7  8  1  0  0  0  0
 10 11  1  0  0  0  0
  6  7  3  0  0  0  0
  5  6  1  0  0  0  0
  9 10  2  0  0  0  0
  2  5  1  0  0  0  0
  2  3  2  0  0  0  0
  1  2  1  0  0  0  0
  2  4  2  0  0  0  0
M  END
> <Shapegauss>
-286.624023

$$$$
