MODEL 1
REMARK VINA RESULT:    -3.967      0.000      0.000
REMARK INTER + INTRA:          -5.580
REMARK INTER:                  -5.127
REMARK INTRA:                  -0.453
REMARK UNBOUND:                -0.453
REMARK  5 active torsions:
REMARK  status: ('A' for Active; 'I' for Inactive)
REMARK    1  A    between atoms: C_3  and  C_5 
REMARK    2  A    between atoms: C_3  and  C_4 
REMARK    3  A    between atoms: C_5  and  O_6 
REMARK    4  A    between atoms: C_8  and  O_9 
REMARK    5  A    between atoms: O_9  and  C_10 
ROOT
HETATM    1  C   UNL     1      11.097   1.066  24.385  1.00  0.00     0.152 A 
HETATM    2  C   UNL     1      10.186   1.890  23.593  1.00  0.00     0.167 A 
HETATM    3  C   UNL     1      11.305   2.378  23.778  1.00  0.00     0.084 A 
ENDROOT
BRANCH   1   4
HETATM    4  C   UNL     1      12.177  -0.075  24.257  1.00  0.00     0.185 C 
HETATM    5  O   UNL     1      13.283  -0.123  24.771  1.00  0.00    -0.290 OA
BRANCH   4   6
HETATM    6  C   UNL     1      12.154  -1.052  23.481  1.00  0.00     0.043 C 
HETATM    7  C   UNL     1      11.428  -1.620  22.632  1.00  0.00     0.015 C 
ENDBRANCH   4   6
ENDBRANCH   1   4
BRANCH   1   8
HETATM    8  O   UNL     1      10.408   0.687  25.540  1.00  0.00    -0.374 OA
HETATM    9  C   UNL     1       9.202  -0.001  25.332  1.00  0.00     0.203 C 
ENDBRANCH   1   8
BRANCH   2  10
HETATM   10  O   UNL     1       9.934   1.819  22.139  1.00  0.00    -0.383 OA
BRANCH  10  11
HETATM   11  C   UNL     1       8.690   1.322  21.687  1.00  0.00     0.164 C 
HETATM   12  C   UNL     1       8.631   0.051  20.838  1.00  0.00     0.033 C 
ENDBRANCH  10  11
ENDBRANCH   2  10
TORSDOF 5
ENDMDL
MODEL 2
REMARK VINA RESULT:    -3.842      1.552      3.201
REMARK INTER + INTRA:          -5.418
REMARK INTER:                  -5.047
REMARK INTRA:                  -0.371
REMARK UNBOUND:                -0.453
REMARK  5 active torsions:
REMARK  status: ('A' for Active; 'I' for Inactive)
REMARK    1  A    between atoms: C_3  and  C_5 
REMARK    2  A    between atoms: C_3  and  C_4 
REMARK    3  A    between atoms: C_5  and  O_6 
REMARK    4  A    between atoms: C_8  and  O_9 
REMARK    5  A    between atoms: O_9  and  C_10 
ROOT
HETATM    1  C   UNL     1      11.422   0.732  24.417  1.00  0.00     0.152 A 
HETATM    2  C   UNL     1      10.872  -0.586  24.727  1.00  0.00     0.167 A 
HETATM    3  C   UNL     1      10.431   0.340  25.416  1.00  0.00     0.084 A 
ENDROOT
BRANCH   1   4
HETATM    4  C   UNL     1      11.200   1.991  23.495  1.00  0.00     0.185 C 
HETATM    5  O   UNL     1      11.551   3.143  23.698  1.00  0.00    -0.290 OA
BRANCH   4   6
HETATM    6  C   UNL     1      10.486   2.062  22.473  1.00  0.00     0.043 C 
HETATM    7  C   UNL     1       9.317   1.856  22.071  1.00  0.00     0.015 C 
ENDBRANCH   4   6
ENDBRANCH   1   4
BRANCH   1   8
HETATM    8  O   UNL     1      12.813   0.603  24.403  1.00  0.00    -0.374 OA
HETATM    9  C   UNL     1      13.305  -0.635  23.960  1.00  0.00     0.203 C 
ENDBRANCH   1   8
BRANCH   2  10
HETATM   10  O   UNL     1       9.738  -1.271  24.072  1.00  0.00    -0.383 OA
BRANCH  10  11
HETATM   11  C   UNL     1       9.919  -1.795  22.772  1.00  0.00     0.164 C 
HETATM   12  C   UNL     1       8.759  -1.798  21.774  1.00  0.00     0.033 C 
ENDBRANCH  10  11
ENDBRANCH   2  10
TORSDOF 5
ENDMDL
MODEL 3
REMARK VINA RESULT:    -3.809     23.796     25.580
REMARK INTER + INTRA:          -5.376
REMARK INTER:                  -4.839
REMARK INTRA:                  -0.536
REMARK UNBOUND:                -0.453
REMARK  5 active torsions:
REMARK  status: ('A' for Active; 'I' for Inactive)
REMARK    1  A    between atoms: C_3  and  C_5 
REMARK    2  A    between atoms: C_3  and  C_4 
REMARK    3  A    between atoms: C_5  and  O_6 
REMARK    4  A    between atoms: C_8  and  O_9 
REMARK    5  A    between atoms: O_9  and  C_10 
ROOT
HETATM    1  C   UNL     1       9.500  14.949   2.627  1.00  0.00     0.152 A 
HETATM    2  C   UNL     1       9.121  16.080   1.784  1.00  0.00     0.167 A 
HETATM    3  C   UNL     1       9.266  15.008   1.186  1.00  0.00     0.084 A 
ENDROOT
BRANCH   1   4
HETATM    4  C   UNL     1       8.894  13.790   3.507  1.00  0.00     0.185 C 
HETATM    5  O   UNL     1       9.448  12.776   3.900  1.00  0.00    -0.290 OA
BRANCH   4   6
HETATM    6  C   UNL     1       7.696  13.628   3.820  1.00  0.00     0.043 C 
HETATM    7  C   UNL     1       6.602  14.236   3.878  1.00  0.00     0.015 C 
ENDBRANCH   4   6
ENDBRANCH   1   4
BRANCH   1   8
HETATM    8  O   UNL     1      10.590  15.360   3.398  1.00  0.00    -0.374 OA
HETATM    9  C   UNL     1      10.292  16.230   4.459  1.00  0.00     0.203 C 
ENDBRANCH   1   8
BRANCH   2  10
HETATM   10  O   UNL     1       7.762  16.592   1.513  1.00  0.00    -0.383 OA
BRANCH  10  11
HETATM   11  C   UNL     1       7.375  17.828   2.081  1.00  0.00     0.164 C 
HETATM   12  C   UNL     1       7.044  17.921   3.572  1.00  0.00     0.033 C 
ENDBRANCH  10  11
ENDBRANCH   2  10
TORSDOF 5
ENDMDL
MODEL 4
REMARK VINA RESULT:    -3.767      1.786      2.149
REMARK INTER + INTRA:          -5.321
REMARK INTER:                  -5.067
REMARK INTRA:                  -0.254
REMARK UNBOUND:                -0.453
REMARK  5 active torsions:
REMARK  status: ('A' for Active; 'I' for Inactive)
REMARK    1  A    between atoms: C_3  and  C_5 
REMARK    2  A    between atoms: C_3  and  C_4 
REMARK    3  A    between atoms: C_5  and  O_6 
REMARK    4  A    between atoms: C_8  and  O_9 
REMARK    5  A    between atoms: O_9  and  C_10 
ROOT
HETATM    1  C   UNL     1      10.062   0.509  22.964  1.00  0.00     0.152 A 
HETATM    2  C   UNL     1       9.225   1.256  22.028  1.00  0.00     0.167 A 
HETATM    3  C   UNL     1      10.420   1.569  22.024  1.00  0.00     0.084 A 
ENDROOT
BRANCH   1   4
HETATM    4  C   UNL     1      10.931  -0.800  23.090  1.00  0.00     0.185 C 
HETATM    5  O   UNL     1      10.618  -1.942  22.789  1.00  0.00    -0.290 OA
BRANCH   4   6
HETATM    6  C   UNL     1      12.030  -0.924  23.667  1.00  0.00     0.043 C 
HETATM    7  C   UNL     1      12.894  -0.266  24.293  1.00  0.00     0.015 C 
ENDBRANCH   4   6
ENDBRANCH   1   4
BRANCH   1   8
HETATM    8  O   UNL     1       9.430   0.560  24.209  1.00  0.00    -0.374 OA
HETATM    9  C   UNL     1       8.140   0.011  24.260  1.00  0.00     0.203 C 
ENDBRANCH   1   8
BRANCH   2  10
HETATM   10  O   UNL     1       8.833   0.869  20.657  1.00  0.00    -0.383 OA
BRANCH  10  11
HETATM   11  C   UNL     1       7.525   0.382  20.435  1.00  0.00     0.164 C 
HETATM   12  C   UNL     1       7.006   0.189  19.008  1.00  0.00     0.033 C 
ENDBRANCH  10  11
ENDBRANCH   2  10
TORSDOF 5
ENDMDL
MODEL 5
REMARK VINA RESULT:    -3.742      2.719      5.634
REMARK INTER + INTRA:          -5.288
REMARK INTER:                  -4.958
REMARK INTRA:                  -0.330
REMARK UNBOUND:                -0.453
REMARK  5 active torsions:
REMARK  status: ('A' for Active; 'I' for Inactive)
REMARK    1  A    between atoms: C_3  and  C_5 
REMARK    2  A    between atoms: C_3  and  C_4 
REMARK    3  A    between atoms: C_5  and  O_6 
REMARK    4  A    between atoms: C_8  and  O_9 
REMARK    5  A    between atoms: O_9  and  C_10 
ROOT
HETATM    1  C   UNL     1       7.341  -0.176  21.273  1.00  0.00     0.152 A 
HETATM    2  C   UNL     1       8.104  -0.946  22.252  1.00  0.00     0.167 A 
HETATM    3  C   UNL     1       7.092  -1.508  21.820  1.00  0.00     0.084 A 
ENDROOT
BRANCH   1   4
HETATM    4  C   UNL     1       7.224   0.108  19.727  1.00  0.00     0.185 C 
HETATM    5  O   UNL     1       8.109   0.072  18.887  1.00  0.00    -0.290 OA
BRANCH   4   6
HETATM    6  C   UNL     1       6.240   0.576  19.118  1.00  0.00     0.043 C 
HETATM    7  C   UNL     1       5.860   0.922  17.975  1.00  0.00     0.015 C 
ENDBRANCH   4   6
ENDBRANCH   1   4
BRANCH   1   8
HETATM    8  O   UNL     1       7.138   1.094  21.819  1.00  0.00    -0.374 OA
HETATM    9  C   UNL     1       8.283   1.898  21.934  1.00  0.00     0.203 C 
ENDBRANCH   1   8
BRANCH   2  10
HETATM   10  O   UNL     1       9.271  -1.819  22.007  1.00  0.00    -0.383 OA
BRANCH  10  11
HETATM   11  C   UNL     1      10.275  -1.908  22.998  1.00  0.00     0.164 C 
HETATM   12  C   UNL     1      10.762  -0.647  23.717  1.00  0.00     0.033 C 
ENDBRANCH  10  11
ENDBRANCH   2  10
TORSDOF 5
ENDMDL
MODEL 6
REMARK VINA RESULT:    -3.674     10.698     12.450
REMARK INTER + INTRA:          -5.201
REMARK INTER:                  -4.764
REMARK INTRA:                  -0.437
REMARK UNBOUND:                -0.453
REMARK  5 active torsions:
REMARK  status: ('A' for Active; 'I' for Inactive)
REMARK    1  A    between atoms: C_3  and  C_5 
REMARK    2  A    between atoms: C_3  and  C_4 
REMARK    3  A    between atoms: C_5  and  O_6 
REMARK    4  A    between atoms: C_8  and  O_9 
REMARK    5  A    between atoms: O_9  and  C_10 
ROOT
HETATM    1  C   UNL     1      21.611  -0.712  25.548  1.00  0.00     0.152 A 
HETATM    2  C   UNL     1      21.404  -2.144  25.343  1.00  0.00     0.167 A 
HETATM    3  C   UNL     1      20.624  -1.409  24.727  1.00  0.00     0.084 A 
ENDROOT
BRANCH   1   4
HETATM    4  C   UNL     1      22.412   0.526  24.990  1.00  0.00     0.185 C 
HETATM    5  O   UNL     1      22.177   1.712  25.160  1.00  0.00    -0.290 OA
BRANCH   4   6
HETATM    6  C   UNL     1      23.330   0.511  24.144  1.00  0.00     0.043 C 
HETATM    7  C   UNL     1      24.364  -0.120  23.822  1.00  0.00     0.015 C 
ENDBRANCH   4   6
ENDBRANCH   1   4
BRANCH   1   8
HETATM    8  O   UNL     1      21.674  -0.501  26.928  1.00  0.00    -0.374 OA
HETATM    9  C   UNL     1      22.894  -0.831  27.539  1.00  0.00     0.203 C 
ENDBRANCH   1   8
BRANCH   2  10
HETATM   10  O   UNL     1      22.086  -3.027  24.374  1.00  0.00    -0.383 OA
BRANCH  10  11
HETATM   11  C   UNL     1      23.306  -3.634  24.748  1.00  0.00     0.164 C 
HETATM   12  C   UNL     1      23.325  -4.736  25.810  1.00  0.00     0.033 C 
ENDBRANCH  10  11
ENDBRANCH   2  10
TORSDOF 5
ENDMDL
MODEL 7
REMARK VINA RESULT:    -3.627      1.940      4.394
REMARK INTER + INTRA:          -5.140
REMARK INTER:                  -4.601
REMARK INTRA:                  -0.539
REMARK UNBOUND:                -0.453
REMARK  5 active torsions:
REMARK  status: ('A' for Active; 'I' for Inactive)
REMARK    1  A    between atoms: C_3  and  C_5 
REMARK    2  A    between atoms: C_3  and  C_4 
REMARK    3  A    between atoms: C_5  and  O_6 
REMARK    4  A    between atoms: C_8  and  O_9 
REMARK    5  A    between atoms: O_9  and  C_10 
ROOT
HETATM    1  C   UNL     1       8.712  -0.624  22.357  1.00  0.00     0.152 A 
HETATM    2  C   UNL     1       9.351  -1.497  23.338  1.00  0.00     0.167 A 
HETATM    3  C   UNL     1       9.758  -1.629  22.179  1.00  0.00     0.084 A 
ENDROOT
BRANCH   1   4
HETATM    4  C   UNL     1       8.826   0.802  21.694  1.00  0.00     0.185 C 
HETATM    5  O   UNL     1       8.396   1.163  20.610  1.00  0.00    -0.290 OA
BRANCH   4   6
HETATM    6  C   UNL     1       9.515   1.765  22.089  1.00  0.00     0.043 C 
HETATM    7  C   UNL     1      10.114   2.199  23.100  1.00  0.00     0.015 C 
ENDBRANCH   4   6
ENDBRANCH   1   4
BRANCH   1   8
HETATM    8  O   UNL     1       7.332  -0.755  22.530  1.00  0.00    -0.374 OA
HETATM    9  C   UNL     1       6.816  -0.241  23.729  1.00  0.00     0.203 C 
ENDBRANCH   1   8
BRANCH   2  10
HETATM   10  O   UNL     1      10.503  -1.188  24.211  1.00  0.00    -0.383 OA
BRANCH  10  11
HETATM   11  C   UNL     1      11.779  -1.030  23.623  1.00  0.00     0.164 C 
HETATM   12  C   UNL     1      12.828  -0.136  24.288  1.00  0.00     0.033 C 
ENDBRANCH  10  11
ENDBRANCH   2  10
TORSDOF 5
ENDMDL
MODEL 8
REMARK VINA RESULT:    -3.626     24.110     25.850
REMARK INTER + INTRA:          -5.139
REMARK INTER:                  -4.693
REMARK INTRA:                  -0.446
REMARK UNBOUND:                -0.453
REMARK  5 active torsions:
REMARK  status: ('A' for Active; 'I' for Inactive)
REMARK    1  A    between atoms: C_3  and  C_5 
REMARK    2  A    between atoms: C_3  and  C_4 
REMARK    3  A    between atoms: C_5  and  O_6 
REMARK    4  A    between atoms: C_8  and  O_9 
REMARK    5  A    between atoms: O_9  and  C_10 
ROOT
HETATM    1  C   UNL     1      20.473 -20.488  14.163  1.00  0.00     0.152 A 
HETATM    2  C   UNL     1      20.025 -20.005  15.467  1.00  0.00     0.167 A 
HETATM    3  C   UNL     1      19.119 -20.297  14.679  1.00  0.00     0.084 A 
ENDROOT
BRANCH   1   4
HETATM    4  C   UNL     1      20.875 -21.802  13.390  1.00  0.00     0.185 C 
HETATM    5  O   UNL     1      20.647 -22.088  12.225  1.00  0.00    -0.290 OA
BRANCH   4   6
HETATM    6  C   UNL     1      21.354 -22.847  13.876  1.00  0.00     0.043 C 
HETATM    7  C   UNL     1      22.313 -23.643  13.750  1.00  0.00     0.015 C 
ENDBRANCH   4   6
ENDBRANCH   1   4
BRANCH   1   8
HETATM    8  O   UNL     1      21.412 -19.571  13.686  1.00  0.00    -0.374 OA
HETATM    9  C   UNL     1      22.649 -19.566  14.350  1.00  0.00     0.203 C 
ENDBRANCH   1   8
BRANCH   2  10
HETATM   10  O   UNL     1      19.842 -20.786  16.708  1.00  0.00    -0.383 OA
BRANCH  10  11
HETATM   11  C   UNL     1      20.985 -21.294  17.367  1.00  0.00     0.164 C 
HETATM   12  C   UNL     1      21.184 -22.805  17.510  1.00  0.00     0.033 C 
ENDBRANCH  10  11
ENDBRANCH   2  10
TORSDOF 5
ENDMDL
MODEL 9
REMARK VINA RESULT:    -3.589      1.202      3.948
REMARK INTER + INTRA:          -5.091
REMARK INTER:                  -4.736
REMARK INTRA:                  -0.355
REMARK UNBOUND:                -0.453
REMARK  5 active torsions:
REMARK  status: ('A' for Active; 'I' for Inactive)
REMARK    1  A    between atoms: C_3  and  C_5 
REMARK    2  A    between atoms: C_3  and  C_4 
REMARK    3  A    between atoms: C_5  and  O_6 
REMARK    4  A    between atoms: C_8  and  O_9 
REMARK    5  A    between atoms: O_9  and  C_10 
ROOT
HETATM    1  C   UNL     1      10.035   1.569  23.852  1.00  0.00     0.152 A 
HETATM    2  C   UNL     1      11.007   1.063  24.818  1.00  0.00     0.167 A 
HETATM    3  C   UNL     1      10.023   0.338  24.639  1.00  0.00     0.084 A 
ENDROOT
BRANCH   1   4
HETATM    4  C   UNL     1       9.683   1.561  22.315  1.00  0.00     0.185 C 
HETATM    5  O   UNL     1      10.446   1.436  21.370  1.00  0.00    -0.290 OA
BRANCH   4   6
HETATM    6  C   UNL     1       8.585   1.841  21.791  1.00  0.00     0.043 C 
HETATM    7  C   UNL     1       7.538   1.311  21.352  1.00  0.00     0.015 C 
ENDBRANCH   4   6
ENDBRANCH   1   4
BRANCH   1   8
HETATM    8  O   UNL     1       9.752   2.890  24.208  1.00  0.00    -0.374 OA
HETATM    9  C   UNL     1      10.746   3.831  23.899  1.00  0.00     0.203 C 
ENDBRANCH   1   8
BRANCH   2  10
HETATM   10  O   UNL     1      12.230   0.279  24.546  1.00  0.00    -0.383 OA
BRANCH  10  11
HETATM   11  C   UNL     1      12.132  -0.872  23.730  1.00  0.00     0.164 C 
HETATM   12  C   UNL     1      13.396  -1.612  23.288  1.00  0.00     0.033 C 
ENDBRANCH  10  11
ENDBRANCH   2  10
TORSDOF 5
ENDMDL
