stable:False satoms:7 tatoms:24 sratio:0.2916666666666667
  -OEChem-08062413383D

 45 45  0     1  0  0  0  0  0999 V2000
   -6.3822   -5.1410  -26.2052 C   0  0  0  0  0  0  0  0  0  0  0  0
   -8.1374   -4.5576  -25.9704 S   0  0  0  0  0  0  0  0  0  0  0  0
   -8.9689   -5.7369  -25.9369 O   0  0  0  0  0  0  0  0  0  0  0  0
   -8.3833   -3.7098  -27.0754 O   0  0  0  0  0  0  0  0  0  0  0  0
   -8.1045   -3.7801  -24.5676 N   0  0  0  0  0  0  0  0  0  0  0  0
   -8.8908   -3.0268  -24.0951 C   0  0  0  0  0  0  0  0  0  0  0  0
   -9.3769   -2.1415  -23.5412 C   0  0  0  0  0  0  0  0  0  0  0  0
  -10.3178   -1.2849  -23.2449 C   0  0  1  0  0  0  0  0  0  0  0  0
  -10.9429   -0.1343  -24.5112 C   0  0  0  0  0  0  0  0  0  0  0  0
  -11.9263    0.1175  -24.5318 C   0  0  0  0  0  0  0  0  0  0  0  0
  -13.1016   -0.3926  -23.7054 C   0  0  0  0  0  0  0  0  0  0  0  0
  -12.7952   -1.2158  -22.9754 C   0  0  0  0  0  0  0  0  0  0  0  0
  -11.8011   -1.7447  -22.6444 C   0  0  0  0  0  0  0  0  0  0  0  0
   -9.7142   -0.6540  -22.4096 C   0  0  0  0  0  0  0  0  0  0  0  0
   -9.0623   -0.0136  -21.4720 C   0  0  0  0  0  0  0  0  0  0  0  0
   -9.5775    0.9582  -21.1502 O   0  0  0  0  0  0  0  0  0  0  0  0
   -7.9481   -0.6610  -21.1203 N   0  0  0  0  0  0  0  0  0  0  0  0
   -7.3525   -0.1788  -20.1548 C   0  0  0  0  0  0  0  0  0  0  0  0
   -7.4725   -0.0187  -18.8587 C   0  0  0  0  0  0  0  0  0  0  0  0
   -7.1003    0.3956  -17.7572 N   0  0  0  0  0  0  0  0  0  0  0  0
   -5.9869    0.9042  -18.1577 C   0  0  0  0  0  0  0  0  0  0  0  0
   -5.4559    0.9539  -19.3255 C   0  0  0  0  0  0  0  0  0  0  0  0
   -5.8756    0.4946  -20.5037 C   0  0  0  0  0  0  0  0  0  0  0  0
   -5.4692    0.5193  -21.4790 C   0  0  0  0  0  0  0  0  0  0  0  0
   -6.3024   -5.6928  -27.1534 H   0  0  0  0  0  0  0  0  0  0  0  0
   -5.7074   -4.2727  -26.2285 H   0  0  0  0  0  0  0  0  0  0  0  0
   -6.1010   -5.8016  -25.3718 H   0  0  0  0  0  0  0  0  0  0  0  0
   -7.2529   -3.2568  -24.5984 H   0  0  0  0  0  0  0  0  0  0  0  0
  -10.5424   -0.6656  -24.1259 H   0  0  0  0  0  0  0  0  0  0  0  0
  -10.5911   -0.8810  -23.8148 H   0  0  0  0  0  0  0  0  0  0  0  0
  -10.2487    0.3447  -25.1858 H   0  0  0  0  0  0  0  0  0  0  0  0
  -12.1824    0.8724  -25.2604 H   0  0  0  0  0  0  0  0  0  0  0  0
  -13.8664   -0.7919  -24.3877 H   0  0  0  0  0  0  0  0  0  0  0  0
  -13.5228    0.4477  -23.1339 H   0  0  0  0  0  0  0  0  0  0  0  0
  -13.6494   -1.6145  -22.4484 H   0  0  0  0  0  0  0  0  0  0  0  0
  -11.8499   -2.5530  -21.9297 H   0  0  0  0  0  0  0  0  0  0  0  0
  -10.4670    0.1470  -22.4517 H   0  0  0  0  0  0  0  0  0  0  0  0
   -8.9117   -0.4412  -23.1313 H   0  0  0  0  0  0  0  0  0  0  0  0
   -7.6224   -1.4740  -21.6029 H   0  0  0  0  0  0  0  0  0  0  0  0
   -8.4004   -0.5227  -18.6323 H   0  0  0  0  0  0  0  0  0  0  0  0
   -5.4001    1.3679  -17.3786 H   0  0  0  0  0  0  0  0  0  0  0  0
   -4.5006    1.4566  -19.3587 H   0  0  0  0  0  0  0  0  0  0  0  0
   -4.8602   -0.3815  -21.6459 H   0  0  0  0  0  0  0  0  0  0  0  0
   -6.2856    0.5515  -22.2155 H   0  0  0  0  0  0  0  0  0  0  0  0
   -4.8389    1.4138  -21.5910 H   0  0  0  0  0  0  0  0  0  0  0  0
 20 21  2  0  0  0  0
 19 20  1  0  0  0  0
 21 22  1  0  0  0  0
 18 19  2  0  0  0  0
 22 23  2  0  0  0  0
 18 23  1  0  0  0  0
 17 18  1  0  0  0  0
 23 24  1  0  0  0  0
 15 16  2  0  0  0  0
 15 17  1  0  0  0  0
 14 15  1  0  0  0  0
  8 14  1  0  0  0  0
 12 13  2  0  0  0  0
  8 13  1  0  0  0  0
 11 12  1  0  0  0  0
  7  8  1  0  0  0  0
 10 11  1  0  0  0  0
  6  7  3  0  0  0  0
  5  6  1  0  0  0  0
  9 10  2  0  0  0  0
  2  5  1  0  0  0  0
  2  3  2  0  0  0  0
  1  2  1  0  0  0  0
  2  4  2  0  0  0  0
  1 25  1  0  0  0  0
  1 26  1  0  0  0  0
  1 27  1  0  0  0  0
  5 28  1  0  0  0  0
  8 29  1  0  0  0  0
  9 30  1  0  0  0  0
  9 31  1  0  0  0  0
 10 32  1  0  0  0  0
 11 33  1  0  0  0  0
 11 34  1  0  0  0  0
 12 35  1  0  0  0  0
 13 36  1  0  0  0  0
 14 37  1  0  0  0  0
 14 38  1  0  0  0  0
 17 39  1  0  0  0  0
 19 40  1  0  0  0  0
 21 41  1  0  0  0  0
 22 42  1  0  0  0  0
 24 43  1  0  0  0  0
 24 44  1  0  0  0  0
 24 45  1  0  0  0  0
M  END
> <Chemgauss4>
-13.185689

$$$$
