stable:False satoms:16 tatoms:24 sratio:0.6666666666666666
  -OEChem-07092417353D

 24 24  0     1  0  0  0  0  0999 V2000
    9.0977   -3.1687   26.4912 H   0  0  0  0  0  0  0  0  0  0  0  0
    7.3622   -3.4779   24.2619 H   0  0  0  0  0  0  0  0  0  0  0  0
    9.2865   -4.6933   25.6131 H   0  0  0  0  0  0  0  0  0  0  0  0
    7.7887   -4.1846   26.3294 H   0  0  0  0  0  0  0  0  0  0  0  0
    8.3273   -3.1232   24.5209 C   0  0  0  0  0  0  0  0  0  0  0  0
    8.6594   -3.8318   25.7712 C   0  0  0  0  0  0  0  0  0  0  0  0
    8.9241   -2.1288   23.7331 C   0  0  0  0  0  0  0  0  0  0  0  0
   10.1599   -1.4829   24.0427 C   0  0  0  0  0  0  0  0  0  0  0  0
   10.4071   -1.6600   25.0772 H   0  0  0  0  0  0  0  0  0  0  0  0
   11.1279   -0.6550   23.4521 C   0  0  0  0  0  0  0  0  0  0  0  0
   12.0251   -0.4246   23.9931 H   0  0  0  0  0  0  0  0  0  0  0  0
   10.6190   -0.8436   20.3183 H   0  0  0  0  0  0  0  0  0  0  0  0
   10.1546   -0.5277   21.2373 C   0  0  0  0  0  0  0  0  0  0  0  0
   11.0074   -0.1050   22.1878 C   0  0  0  0  0  0  0  0  0  0  0  0
    8.8475   -0.3992   21.3519 N   0  0  0  0  0  0  0  0  0  0  0  0
   11.6319    0.7132   21.8765 H   0  0  0  0  0  0  0  0  0  0  0  0
    8.3478   -1.7712   22.8549 H   0  0  0  0  0  0  0  0  0  0  0  0
    7.8377   -0.1102   20.6067 C   0  0  3  0  0  0  0  0  0  0  0  0
    7.9165    0.0300   18.8595 S   0  0  0  0  0  0  0  0  0  0  0  0
    6.0804    1.3365   18.0120 H   0  0  0  0  0  0  0  0  0  0  0  0
    6.4049    0.8549   18.9057 C   0  0  0  0  0  0  0  0  0  0  0  0
    5.9093    0.8494   20.1628 C   0  0  0  0  0  0  0  0  0  0  0  0
    6.6188    0.1647   21.0786 N   0  0  0  0  0  0  0  0  0  0  0  0
    5.0423    1.3489   20.5588 H   0  0  0  0  0  0  0  0  0  0  0  0
 20 21  1  0  0  0  0
 19 21  1  0  0  0  0
 18 19  1  0  0  0  0
 21 22  2  0  0  0  0
 22 24  1  0  0  0  0
 22 23  1  0  0  0  0
 12 13  1  0  0  0  0
 18 23  1  0  0  0  0
 15 18  1  0  0  0  0
 13 15  1  0  0  0  0
 13 14  2  3  0  0  0
 14 16  1  0  0  0  0
 10 14  1  0  0  0  0
  7 17  1  0  0  0  0
 10 11  1  0  0  0  0
  8 10  2  0  0  0  0
  7  8  1  0  0  0  0
  5  7  2  0  0  0  0
  8  9  1  0  0  0  0
  2  5  1  0  0  0  0
  5  6  1  0  0  0  0
  3  6  1  0  0  0  0
  4  6  1  0  0  0  0
  1  6  1  0  0  0  0
M  END
> <Shapegauss>
-153.319977

$$$$
