stable:False satoms:16 tatoms:24 sratio:0.6666666666666666
  -OEChem-08062402343D

 28 28  0     1  0  0  0  0  0999 V2000
    7.9435   -2.2256   20.9477 H   0  0  0  0  0  0  0  0  0  0  0  0
    8.5725    0.3991   20.0574 H   0  0  0  0  0  0  0  0  0  0  0  0
    9.0408   -2.1583   19.5612 H   0  0  0  0  0  0  0  0  0  0  0  0
    7.4520   -1.4576   19.5547 H   0  0  0  0  0  0  0  0  0  0  0  0
    8.9145   -0.3601   20.7139 C   0  0  0  0  0  0  0  0  0  0  0  0
    8.3435   -1.6061   20.1689 C   0  0  0  0  0  0  0  0  0  0  0  0
    9.6677   -0.0010   21.8406 C   0  0  0  0  0  0  0  0  0  0  0  0
   10.0813   -0.9100   22.8619 C   0  0  0  0  0  0  0  0  0  0  0  0
    9.5045   -1.8180   22.7881 H   0  0  0  0  0  0  0  0  0  0  0  0
   10.9576   -0.9847   23.9563 C   0  0  0  0  0  0  0  0  0  0  0  0
   11.0730   -1.9159   24.4762 H   0  0  0  0  0  0  0  0  0  0  0  0
   13.0106    1.4143   23.5747 H   0  0  0  0  0  0  0  0  0  0  0  0
   11.9652    1.2067   23.7299 C   0  0  0  0  0  0  0  0  0  0  0  0
   11.7066    0.0822   24.4213 C   0  0  0  0  0  0  0  0  0  0  0  0
   11.0260    2.0788   23.4208 N   0  0  0  0  0  0  0  0  0  0  0  0
   12.1596    0.0594   25.3962 H   0  0  0  0  0  0  0  0  0  0  0  0
    9.8816    1.0791   21.9778 H   0  0  0  0  0  0  0  0  0  0  0  0
   10.8812    3.3566   23.3516 C   0  0  3  0  0  0  0  0  0  0  0  0
   12.2029    4.5022   23.4901 S   0  0  0  0  0  0  0  0  0  0  0  0
   11.3958    6.6849   24.1072 H   0  0  0  0  0  0  0  0  0  0  0  0
   11.0375    5.7395   23.7700 C   0  0  0  0  0  0  0  0  0  0  0  0
    9.7887    5.2470   23.6153 C   0  0  0  0  0  0  0  0  0  0  0  0
    9.7005    3.9656   23.2138 N   0  3  0  0  0  0  0  0  0  0  0  0
    8.8394    5.7169   23.8049 H   0  0  0  0  0  0  0  0  0  0  0  0
   10.2942    1.8240   24.0529 H   0  0  0  0  0  0  0  0  0  0  0  0
   11.0084    3.3261   22.2594 H   0  0  0  0  0  0  0  0  0  0  0  0
    9.0175    3.4916   23.7695 H   0  0  0  0  0  0  0  0  0  0  0  0
    9.4252    3.9388   22.2528 H   0  0  0  0  0  0  0  0  0  0  0  0
 20 21  1  0  0  0  0
 19 21  1  0  0  0  0
 18 19  1  0  0  0  0
 21 22  2  0  0  0  0
 22 24  1  0  0  0  0
 22 23  1  0  0  0  0
 12 13  1  0  0  0  0
 18 23  1  0  0  0  0
 15 18  1  0  0  0  0
 13 15  1  0  0  0  0
 13 14  2  3  0  0  0
 14 16  1  0  0  0  0
 10 14  1  0  0  0  0
  7 17  1  0  0  0  0
 10 11  1  0  0  0  0
  8 10  2  0  0  0  0
  7  8  1  0  0  0  0
  5  7  2  0  0  0  0
  8  9  1  0  0  0  0
  2  5  1  0  0  0  0
  5  6  1  0  0  0  0
  3  6  1  0  0  0  0
  4  6  1  0  0  0  0
  1  6  1  0  0  0  0
 15 25  1  0  0  0  0
 18 26  1  0  0  0  0
 23 27  1  0  0  0  0
 23 28  1  0  0  0  0
M  CHG  1  23   1
M  END
> <Chemgauss4>
-5.632018

$$$$
