stable:False satoms:16 tatoms:24 sratio:0.6666666666666666
  -OEChem-08062402343D

 28 28  0     1  0  0  0  0  0999 V2000
   -7.8097   -1.7385  -20.7527 H   0  0  0  0  0  0  0  0  0  0  0  0
   -8.5250    0.9006  -19.9776 H   0  0  0  0  0  0  0  0  0  0  0  0
   -8.9664   -1.6482  -19.4166 H   0  0  0  0  0  0  0  0  0  0  0  0
   -7.3926   -0.9161  -19.3665 H   0  0  0  0  0  0  0  0  0  0  0  0
   -8.8244    0.1138  -20.6222 C   0  0  0  0  0  0  0  0  0  0  0  0
   -8.2542   -1.1023  -20.0125 C   0  0  0  0  0  0  0  0  0  0  0  0
   -9.5353    0.4209  -21.7910 C   0  0  0  0  0  0  0  0  0  0  0  0
   -9.8879   -0.5288  -22.7979 C   0  0  0  0  0  0  0  0  0  0  0  0
   -9.2980   -1.4223  -22.6697 H   0  0  0  0  0  0  0  0  0  0  0  0
  -10.7151   -0.6566  -23.9252 C   0  0  0  0  0  0  0  0  0  0  0  0
  -10.7908   -1.6063  -24.4182 H   0  0  0  0  0  0  0  0  0  0  0  0
  -12.8267    1.7120  -23.7105 H   0  0  0  0  0  0  0  0  0  0  0  0
  -11.7719    1.5205  -23.8145 C   0  0  0  0  0  0  0  0  0  0  0  0
  -11.4631    0.3795  -24.4566 C   0  0  0  0  0  0  0  0  0  0  0  0
  -10.8632    2.4207  -23.4953 N   0  0  0  0  0  0  0  0  0  0  0  0
  -11.8736    0.3160  -25.4485 H   0  0  0  0  0  0  0  0  0  0  0  0
   -9.7632    1.4915  -21.9730 H   0  0  0  0  0  0  0  0  0  0  0  0
  -10.7453    3.7027  -23.4627 C   0  0  3  0  0  0  0  0  0  0  0  0
  -12.0810    4.8166  -23.6949 S   0  0  0  0  0  0  0  0  0  0  0  0
  -11.2890    6.9938  -24.3497 H   0  0  0  0  0  0  0  0  0  0  0  0
  -10.9279    6.0672  -23.9664 C   0  0  0  0  0  0  0  0  0  0  0  0
   -9.6779    5.6050  -23.7430 C   0  0  0  0  0  0  0  0  0  0  0  0
   -9.5831    4.3394  -23.2956 N   0  3  0  0  0  0  0  0  0  0  0  0
   -8.7302    6.0874  -23.9079 H   0  0  0  0  0  0  0  0  0  0  0  0
  -10.1004    2.1602  -24.0872 H   0  0  0  0  0  0  0  0  0  0  0  0
  -10.9185    3.7052  -22.3764 H   0  0  0  0  0  0  0  0  0  0  0  0
   -8.8683    3.8613  -23.8060 H   0  0  0  0  0  0  0  0  0  0  0  0
   -9.3487    4.3493  -22.3236 H   0  0  0  0  0  0  0  0  0  0  0  0
 20 21  1  0  0  0  0
 19 21  1  0  0  0  0
 18 19  1  0  0  0  0
 21 22  2  0  0  0  0
 22 24  1  0  0  0  0
 22 23  1  0  0  0  0
 12 13  1  0  0  0  0
 18 23  1  0  0  0  0
 15 18  1  0  0  0  0
 13 15  1  0  0  0  0
 13 14  2  3  0  0  0
 14 16  1  0  0  0  0
 10 14  1  0  0  0  0
  7 17  1  0  0  0  0
 10 11  1  0  0  0  0
  8 10  2  0  0  0  0
  7  8  1  0  0  0  0
  5  7  2  0  0  0  0
  8  9  1  0  0  0  0
  2  5  1  0  0  0  0
  5  6  1  0  0  0  0
  3  6  1  0  0  0  0
  4  6  1  0  0  0  0
  1  6  1  0  0  0  0
 15 25  1  0  0  0  0
 18 26  1  0  0  0  0
 23 27  1  0  0  0  0
 23 28  1  0  0  0  0
M  CHG  1  23   1
M  END
> <Chemgauss4>
-6.048059

$$$$
