stable:False satoms:21 tatoms:24 sratio:0.875
  -OEChem-07092417323D

 24 25  0     1  0  0  0  0  0999 V2000
    8.9530   -0.4457   22.8486 C   0  0  0  0  0  0  0  0  0  0  0  0
    6.2854   -2.8512   23.6408 H   0  0  0  0  0  0  0  0  0  0  0  0
    7.6552   -3.3529   24.6276 H   0  0  0  0  0  0  0  0  0  0  0  0
    7.0141   -4.4146   23.4103 H   0  0  0  0  0  0  0  0  0  0  0  0
    9.4994    0.7497   22.4239 C   0  0  0  0  0  0  0  0  0  0  0  0
    7.2823   -0.8058   23.8793 H   0  0  0  0  0  0  0  0  0  0  0  0
    8.1762   -2.8230   22.6730 C   0  0  0  0  0  0  0  0  0  0  0  0
    9.9081   -1.5129   22.9693 C   0  0  0  0  0  0  0  0  0  0  0  0
   11.8786   -1.9811   23.6253 H   0  0  0  0  0  0  0  0  0  0  0  0
   11.5204    2.5218   22.1748 Cl  0  0  0  0  0  0  0  0  0  0  0  0
    9.4681   -2.7022   22.8478 C   0  0  0  0  0  0  0  0  0  0  0  0
   12.8314    0.1194   22.6885 H   0  0  0  0  0  0  0  0  0  0  0  0
    7.5960   -0.4597   22.9915 N   0  0  0  0  0  0  0  0  0  0  0  0
   11.2666   -1.2328   23.1646 C   0  0  0  0  0  0  0  0  0  0  0  0
   10.8708    0.9647   22.4512 C   0  0  0  0  0  0  0  0  0  0  0  0
   11.7653   -0.0425   22.7408 C   0  0  0  0  0  0  0  0  0  0  0  0
    7.4745   -2.3499   21.5252 C   0  0  0  0  0  0  0  0  0  0  0  0
    7.2261   -3.3825   23.6412 C   0  0  0  0  0  0  0  0  0  0  0  0
    7.3447   -2.9296   20.5075 O   0  0  0  0  0  0  0  0  0  0  0  0
    7.0863   -0.1473   20.7266 O   0  0  0  0  0  0  0  0  0  0  0  0
    6.9889    0.1944   19.8717 H   0  0  0  0  0  0  0  0  0  0  0  0
    5.7977   -0.9776   21.9814 H   0  0  0  0  0  0  0  0  0  0  0  0
    8.8218    1.5112   22.0471 H   0  0  0  0  0  0  0  0  0  0  0  0
    6.8730   -0.9398   21.8388 C   0  0  2  0  0  0  0  0  0  0  0  0
 20 21  1  0  0  0  0
 17 19  2  0  0  0  0
 20 24  1  0  0  0  0
 17 24  1  0  0  0  0
  7 17  1  0  0  0  0
 22 24  1  0  0  0  0
 13 24  1  0  0  0  0
  5 23  1  0  0  0  0
 10 15  1  0  0  0  0
  5 15  2  0  0  0  0
  1  5  1  0  0  0  0
 15 16  1  0  0  0  0
  7 11  2  0  0  0  0
  7 18  1  0  0  0  0
 12 16  1  0  0  0  0
 14 16  2  0  0  0  0
  8 11  1  0  0  0  0
  1  8  2  0  0  0  0
  1 13  1  0  0  0  0
  8 14  1  0  0  0  0
  6 13  1  0  0  0  0
  9 14  1  0  0  0  0
  4 18  1  0  0  0  0
  2 18  1  0  0  0  0
  3 18  1  0  0  0  0
M  END
> <Shapegauss>
-135.267395

$$$$
