MODEL 1
REMARK VINA RESULT:    -5.646      0.000      0.000
REMARK INTER + INTRA:          -5.811
REMARK INTER:                  -5.811
REMARK INTRA:                   0.000
REMARK UNBOUND:                 0.000
REMARK  1 active torsions:
REMARK  status: ('A' for Active; 'I' for Inactive)
REMARK    1  A    between atoms: O_15  and  C_17 
ROOT
HETATM    1  C   UNL     1      10.321  -0.420  22.455  1.00  0.00     0.042 C 
HETATM    2  C   UNL     1      11.369  -1.315  22.557  1.00  0.00     0.053 C 
HETATM    3  H   UNL     1       9.275   0.161  20.858  1.00  0.00     0.162 HD
HETATM    4  C   UNL     1       8.133   0.652  23.044  1.00  0.00    -0.011 C 
HETATM    5  C   UNL     1      10.270   0.542  23.521  1.00  0.00    -0.009 C 
HETATM    6 CL   UNL     1      13.847  -2.043  23.344  1.00  0.00    -0.084 Cl
HETATM    7  C   UNL     1       9.131   1.040  23.798  1.00  0.00     0.024 C 
HETATM    8  N   UNL     1       9.449  -0.645  21.429  1.00  0.00    -0.357 N 
HETATM    9  C   UNL     1      11.426   0.869  24.241  1.00  0.00     0.015 C 
HETATM   10  C   UNL     1      12.439  -1.076  23.410  1.00  0.00     0.036 C 
HETATM   11  C   UNL     1      12.439  -0.033  24.312  1.00  0.00     0.025 C 
HETATM   12  C   UNL     1       7.637  -0.684  22.995  1.00  0.00     0.203 C 
HETATM   13  C   UNL     1       7.414   1.485  22.074  1.00  0.00     0.052 C 
HETATM   14  O   UNL     1       6.847  -1.154  23.731  1.00  0.00    -0.288 OA
HETATM   15  C   UNL     1       8.290  -1.427  21.783  1.00  0.00     0.294 C 
ENDROOT
BRANCH  15  16
HETATM   16  O   UNL     1       8.633  -2.694  22.215  1.00  0.00    -0.369 OA
HETATM   17  H   UNL     1       9.049  -3.363  22.702  1.00  0.00     0.212 HD
ENDBRANCH  15  16
TORSDOF 1
ENDMDL
MODEL 2
REMARK VINA RESULT:    -5.646      3.170      4.615
REMARK INTER + INTRA:          -5.811
REMARK INTER:                  -5.811
REMARK INTRA:                   0.000
REMARK UNBOUND:                 0.000
REMARK  1 active torsions:
REMARK  status: ('A' for Active; 'I' for Inactive)
REMARK    1  A    between atoms: O_15  and  C_17 
ROOT
HETATM    1  C   UNL     1       9.145  -0.601  21.753  1.00  0.00     0.042 C 
HETATM    2  C   UNL     1       8.086  -0.364  20.898  1.00  0.00     0.053 C 
HETATM    3  H   UNL     1      11.104  -0.700  21.383  1.00  0.00     0.162 HD
HETATM    4  C   UNL     1      10.554  -0.349  23.811  1.00  0.00    -0.011 C 
HETATM    5  C   UNL     1       8.780  -1.306  22.951  1.00  0.00    -0.009 C 
HETATM    6 CL   UNL     1       5.675  -0.941  19.831  1.00  0.00    -0.084 Cl
HETATM    7  C   UNL     1       9.513  -1.126  23.977  1.00  0.00     0.024 C 
HETATM    8  N   UNL     1      10.338  -0.051  21.385  1.00  0.00    -0.357 N 
HETATM    9  C   UNL     1       7.637  -2.116  22.980  1.00  0.00     0.015 C 
HETATM   10  C   UNL     1       6.882  -1.042  21.036  1.00  0.00     0.036 C 
HETATM   11  C   UNL     1       6.620  -1.856  22.117  1.00  0.00     0.025 C 
HETATM   12  C   UNL     1      10.476   1.044  23.511  1.00  0.00     0.203 C 
HETATM   13  C   UNL     1      11.957  -0.776  23.825  1.00  0.00     0.052 C 
HETATM   14  O   UNL     1      10.350   1.913  24.296  1.00  0.00    -0.288 OA
HETATM   15  C   UNL     1      10.613   1.241  21.965  1.00  0.00     0.294 C 
ENDROOT
BRANCH  15  16
HETATM   16  O   UNL     1       9.677   2.186  21.588  1.00  0.00    -0.369 OA
HETATM   17  H   UNL     1       8.899   2.687  21.591  1.00  0.00     0.212 HD
ENDBRANCH  15  16
TORSDOF 1
ENDMDL
MODEL 3
REMARK VINA RESULT:    -5.527      3.042      4.155
REMARK INTER + INTRA:          -5.688
REMARK INTER:                  -5.688
REMARK INTRA:                   0.000
REMARK UNBOUND:                 0.000
REMARK  1 active torsions:
REMARK  status: ('A' for Active; 'I' for Inactive)
REMARK    1  A    between atoms: O_15  and  C_17 
ROOT
HETATM    1  C   UNL     1       9.722  -1.900  23.783  1.00  0.00     0.042 C 
HETATM    2  C   UNL     1       8.588  -2.591  23.400  1.00  0.00     0.053 C 
HETATM    3  H   UNL     1      11.640  -2.219  23.332  1.00  0.00     0.162 HD
HETATM    4  C   UNL     1      11.181   0.095  24.203  1.00  0.00    -0.011 C 
HETATM    5  C   UNL     1       9.565  -1.153  25.001  1.00  0.00    -0.009 C 
HETATM    6 CL   UNL     1       6.264  -3.871  23.895  1.00  0.00    -0.084 Cl
HETATM    7  C   UNL     1      10.313  -0.134  25.156  1.00  0.00     0.024 C 
HETATM    8  N   UNL     1      10.769  -1.951  22.911  1.00  0.00    -0.357 N 
HETATM    9  C   UNL     1       8.594  -1.520  25.942  1.00  0.00     0.015 C 
HETATM   10  C   UNL     1       7.540  -2.803  24.286  1.00  0.00     0.036 C 
HETATM   11  C   UNL     1       7.498  -2.206  25.527  1.00  0.00     0.025 C 
HETATM   12  C   UNL     1      10.831   0.443  22.865  1.00  0.00     0.203 C 
HETATM   13  C   UNL     1      12.637  -0.044  24.315  1.00  0.00     0.052 C 
HETATM   14  O   UNL     1      10.594   1.529  22.474  1.00  0.00    -0.288 OA
HETATM   15  C   UNL     1      10.836  -0.849  21.982  1.00  0.00     0.294 C 
ENDROOT
BRANCH  15  16
HETATM   16  O   UNL     1       9.721  -0.792  21.166  1.00  0.00    -0.369 OA
HETATM   17  H   UNL     1       8.837  -0.697  20.909  1.00  0.00     0.212 HD
ENDBRANCH  15  16
TORSDOF 1
ENDMDL
MODEL 4
REMARK VINA RESULT:    -5.445     26.061     27.676
REMARK INTER + INTRA:          -5.604
REMARK INTER:                  -5.604
REMARK INTRA:                   0.000
REMARK UNBOUND:                 0.000
REMARK  1 active torsions:
REMARK  status: ('A' for Active; 'I' for Inactive)
REMARK    1  A    between atoms: O_15  and  C_17 
ROOT
HETATM    1  C   UNL     1       1.966 -22.135   9.385  1.00  0.00     0.042 C 
HETATM    2  C   UNL     1       1.141 -21.029   9.468  1.00  0.00     0.053 C 
HETATM    3  H   UNL     1       2.439 -23.496  10.765  1.00  0.00     0.162 HD
HETATM    4  C   UNL     1       2.916 -24.241   8.412  1.00  0.00    -0.011 C 
HETATM    5  C   UNL     1       2.951 -22.050   8.342  1.00  0.00    -0.009 C 
HETATM    6 CL   UNL     1       0.588 -18.406   9.149  1.00  0.00    -0.084 Cl
HETATM    7  C   UNL     1       3.385 -23.148   7.863  1.00  0.00     0.024 C 
HETATM    8  N   UNL     1       1.661 -23.165  10.225  1.00  0.00    -0.357 N 
HETATM    9  C   UNL     1       3.368 -20.804   7.856  1.00  0.00     0.015 C 
HETATM   10  C   UNL     1       1.468 -19.837   8.834  1.00  0.00     0.036 C 
HETATM   11  C   UNL     1       2.532 -19.739   7.963  1.00  0.00     0.025 C 
HETATM   12  C   UNL     1       1.551 -24.648   8.348  1.00  0.00     0.203 C 
HETATM   13  C   UNL     1       3.677 -25.181   9.241  1.00  0.00     0.052 C 
HETATM   14  O   UNL     1       1.052 -25.255   7.470  1.00  0.00    -0.288 OA
HETATM   15  C   UNL     1       0.818 -24.185   9.650  1.00  0.00     0.294 C 
ENDROOT
BRANCH  15  16
HETATM   16  O   UNL     1      -0.414 -23.685   9.272  1.00  0.00    -0.369 OA
HETATM   17  H   UNL     1      -1.139 -23.476   8.735  1.00  0.00     0.212 HD
ENDBRANCH  15  16
TORSDOF 1
ENDMDL
MODEL 5
REMARK VINA RESULT:    -5.282      3.719      4.915
REMARK INTER + INTRA:          -5.436
REMARK INTER:                  -5.436
REMARK INTRA:                   0.000
REMARK UNBOUND:                 0.000
REMARK  1 active torsions:
REMARK  status: ('A' for Active; 'I' for Inactive)
REMARK    1  A    between atoms: O_15  and  C_17 
ROOT
HETATM    1  C   UNL     1       7.050  -2.690  22.898  1.00  0.00     0.042 C 
HETATM    2  C   UNL     1       7.260  -1.759  21.898  1.00  0.00     0.053 C 
HETATM    3  H   UNL     1       5.444  -3.017  24.038  1.00  0.00     0.162 HD
HETATM    4  C   UNL     1       7.060  -4.943  23.996  1.00  0.00    -0.011 C 
HETATM    5  C   UNL     1       8.258  -3.175  23.507  1.00  0.00    -0.009 C 
HETATM    6 CL   UNL     1       8.665   0.205  20.692  1.00  0.00    -0.084 Cl
HETATM    7  C   UNL     1       8.219  -4.335  24.030  1.00  0.00     0.024 C 
HETATM    8  N   UNL     1       5.755  -3.076  23.085  1.00  0.00    -0.357 N 
HETATM    9  C   UNL     1       9.430  -2.407  23.474  1.00  0.00     0.015 C 
HETATM   10  C   UNL     1       8.486  -1.123  21.753  1.00  0.00     0.036 C 
HETATM   11  C   UNL     1       9.596  -1.497  22.480  1.00  0.00     0.025 C 
HETATM   12  C   UNL     1       6.407  -5.362  22.799  1.00  0.00     0.203 C 
HETATM   13  C   UNL     1       6.203  -5.224  25.154  1.00  0.00     0.052 C 
HETATM   14  O   UNL     1       6.597  -6.375  22.229  1.00  0.00    -0.288 OA
HETATM   15  C   UNL     1       5.372  -4.270  22.373  1.00  0.00     0.294 C 
ENDROOT
BRANCH  15  16
HETATM   16  O   UNL     1       5.481  -4.113  21.004  1.00  0.00    -0.369 OA
HETATM   17  H   UNL     1       5.275  -3.852  20.140  1.00  0.00     0.212 HD
ENDBRANCH  15  16
TORSDOF 1
ENDMDL
MODEL 6
REMARK VINA RESULT:    -5.282      6.119      7.064
REMARK INTER + INTRA:          -5.436
REMARK INTER:                  -5.436
REMARK INTRA:                   0.000
REMARK UNBOUND:                 0.000
REMARK  1 active torsions:
REMARK  status: ('A' for Active; 'I' for Inactive)
REMARK    1  A    between atoms: O_15  and  C_17 
ROOT
HETATM    1  C   UNL     1       5.904  -5.918  24.772  1.00  0.00     0.042 C 
HETATM    2  C   UNL     1       5.348  -5.876  26.036  1.00  0.00     0.053 C 
HETATM    3  H   UNL     1       5.584  -7.187  23.265  1.00  0.00     0.162 HD
HETATM    4  C   UNL     1       6.673  -5.034  22.556  1.00  0.00    -0.011 C 
HETATM    5  C   UNL     1       7.181  -5.267  24.675  1.00  0.00    -0.009 C 
HETATM    6 CL   UNL     1       5.493  -5.743  28.728  1.00  0.00    -0.084 Cl
HETATM    7  C   UNL     1       7.516  -4.813  23.533  1.00  0.00     0.024 C 
HETATM    8  N   UNL     1       5.124  -6.474  23.800  1.00  0.00    -0.357 N 
HETATM    9  C   UNL     1       7.988  -5.108  25.810  1.00  0.00     0.015 C 
HETATM   10  C   UNL     1       6.112  -5.542  27.148  1.00  0.00     0.036 C 
HETATM   11  C   UNL     1       7.405  -5.080  27.036  1.00  0.00     0.025 C 
HETATM   12  C   UNL     1       5.359  -4.483  22.490  1.00  0.00     0.203 C 
HETATM   13  C   UNL     1       6.892  -5.933  21.418  1.00  0.00     0.052 C 
HETATM   14  O   UNL     1       5.078  -3.420  22.068  1.00  0.00    -0.288 OA
HETATM   15  C   UNL     1       4.338  -5.530  23.044  1.00  0.00     0.294 C 
ENDROOT
BRANCH  15  16
HETATM   16  O   UNL     1       3.442  -4.845  23.843  1.00  0.00    -0.369 OA
HETATM   17  H   UNL     1       2.759  -4.693  24.450  1.00  0.00     0.212 HD
ENDBRANCH  15  16
TORSDOF 1
ENDMDL
MODEL 7
REMARK VINA RESULT:    -5.237      6.731      7.766
REMARK INTER + INTRA:          -5.390
REMARK INTER:                  -5.390
REMARK INTRA:                   0.000
REMARK UNBOUND:                 0.000
REMARK  1 active torsions:
REMARK  status: ('A' for Active; 'I' for Inactive)
REMARK    1  A    between atoms: O_15  and  C_17 
ROOT
HETATM    1  C   UNL     1       5.628  -5.266  25.546  1.00  0.00     0.042 C 
HETATM    2  C   UNL     1       5.617  -5.691  24.231  1.00  0.00     0.053 C 
HETATM    3  H   UNL     1       4.189  -4.418  26.638  1.00  0.00     0.162 HD
HETATM    4  C   UNL     1       6.052  -5.397  28.013  1.00  0.00    -0.011 C 
HETATM    5  C   UNL     1       6.941  -4.976  26.054  1.00  0.00    -0.009 C 
HETATM    6 CL   UNL     1       6.619  -5.804  21.727  1.00  0.00    -0.084 Cl
HETATM    7  C   UNL     1       7.112  -5.081  27.312  1.00  0.00     0.024 C 
HETATM    8  N   UNL     1       4.422  -5.282  26.183  1.00  0.00    -0.357 N 
HETATM    9  C   UNL     1       7.984  -4.640  25.181  1.00  0.00     0.015 C 
HETATM   10  C   UNL     1       6.724  -5.518  23.409  1.00  0.00     0.036 C 
HETATM   11  C   UNL     1       7.933  -5.070  23.894  1.00  0.00     0.025 C 
HETATM   12  C   UNL     1       5.366  -6.643  27.912  1.00  0.00     0.203 C 
HETATM   13  C   UNL     1       5.347  -4.516  28.950  1.00  0.00     0.052 C 
HETATM   14  O   UNL     1       5.648  -7.634  28.483  1.00  0.00    -0.288 OA
HETATM   15  C   UNL     1       4.153  -6.481  26.938  1.00  0.00     0.294 C 
ENDROOT
BRANCH  15  16
HETATM   16  O   UNL     1       4.121  -7.603  26.132  1.00  0.00    -0.369 OA
HETATM   17  H   UNL     1       4.379  -8.407  25.751  1.00  0.00     0.212 HD
ENDBRANCH  15  16
TORSDOF 1
ENDMDL
MODEL 8
REMARK VINA RESULT:    -5.220     26.109     27.390
REMARK INTER + INTRA:          -5.373
REMARK INTER:                  -5.373
REMARK INTRA:                   0.000
REMARK UNBOUND:                 0.000
REMARK  1 active torsions:
REMARK  status: ('A' for Active; 'I' for Inactive)
REMARK    1  A    between atoms: O_15  and  C_17 
ROOT
HETATM    1  C   UNL     1       8.942  17.746   2.332  1.00  0.00     0.042 C 
HETATM    2  C   UNL     1       9.029  18.442   1.141  1.00  0.00     0.053 C 
HETATM    3  H   UNL     1       7.455  16.639   3.072  1.00  0.00     0.162 HD
HETATM    4  C   UNL     1       9.677  16.201   4.164  1.00  0.00    -0.011 C 
HETATM    5  C   UNL     1       9.821  18.234   3.358  1.00  0.00    -0.009 C 
HETATM    6 CL   UNL     1       9.526  20.652  -0.326  1.00  0.00    -0.084 Cl
HETATM    7  C   UNL     1      10.186  17.404   4.253  1.00  0.00     0.024 C 
HETATM    8  N   UNL     1       8.122  16.656   2.322  1.00  0.00    -0.357 N 
HETATM    9  C   UNL     1      10.282  19.557   3.331  1.00  0.00     0.015 C 
HETATM   10  C   UNL     1       9.647  19.684   1.077  1.00  0.00     0.036 C 
HETATM   11  C   UNL     1      10.345  20.211   2.142  1.00  0.00     0.025 C 
HETATM   12  C   UNL     1       9.938  15.297   3.092  1.00  0.00     0.203 C 
HETATM   13  C   UNL     1       8.705  15.608   5.089  1.00  0.00     0.052 C 
HETATM   14  O   UNL     1      10.860  14.569   3.012  1.00  0.00    -0.288 OA
HETATM   15  C   UNL     1       8.783  15.405   2.041  1.00  0.00     0.294 C 
ENDROOT
BRANCH  15  16
HETATM   16  O   UNL     1       9.367  15.398   0.788  1.00  0.00    -0.369 OA
HETATM   17  H   UNL     1       9.561  15.135  -0.078  1.00  0.00     0.212 HD
ENDBRANCH  15  16
TORSDOF 1
ENDMDL
MODEL 9
REMARK VINA RESULT:    -5.216      3.919      5.941
REMARK INTER + INTRA:          -5.368
REMARK INTER:                  -5.368
REMARK INTRA:                   0.000
REMARK UNBOUND:                 0.000
REMARK  1 active torsions:
REMARK  status: ('A' for Active; 'I' for Inactive)
REMARK    1  A    between atoms: O_15  and  C_17 
ROOT
HETATM    1  C   UNL     1       6.716   1.535  21.027  1.00  0.00     0.042 C 
HETATM    2  C   UNL     1       5.389   1.906  20.932  1.00  0.00     0.053 C 
HETATM    3  H   UNL     1       8.233   2.409  21.985  1.00  0.00     0.162 HD
HETATM    4  C   UNL     1       8.667   0.004  21.395  1.00  0.00    -0.011 C 
HETATM    5  C   UNL     1       7.164   0.689  19.954  1.00  0.00    -0.009 C 
HETATM    6 CL   UNL     1       3.131   2.447  19.554  1.00  0.00    -0.084 Cl
HETATM    7  C   UNL     1       8.143  -0.088  20.198  1.00  0.00     0.024 C 
HETATM    8  N   UNL     1       7.364   1.938  22.158  1.00  0.00    -0.357 N 
HETATM    9  C   UNL     1       6.508   0.703  18.716  1.00  0.00     0.015 C 
HETATM   10  C   UNL     1       4.682   1.753  19.746  1.00  0.00     0.036 C 
HETATM   11  C   UNL     1       5.205   1.081  18.662  1.00  0.00     0.025 C 
HETATM   12  C   UNL     1       7.982  -0.334  22.599  1.00  0.00     0.203 C 
HETATM   13  C   UNL     1       9.997   0.536  21.712  1.00  0.00     0.052 C 
HETATM   14  O   UNL     1       7.897  -1.412  23.066  1.00  0.00    -0.288 OA
HETATM   15  C   UNL     1       7.378   0.967  23.224  1.00  0.00     0.294 C 
ENDROOT
BRANCH  15  16
HETATM   16  O   UNL     1       6.103   0.658  23.660  1.00  0.00    -0.369 OA
HETATM   17  H   UNL     1       5.318   0.701  24.148  1.00  0.00     0.212 HD
ENDBRANCH  15  16
TORSDOF 1
ENDMDL
