MODEL 1
REMARK VINA RESULT:    -6.759      0.000      0.000
REMARK INTER + INTRA:          -6.759
REMARK INTER:                  -6.759
REMARK INTRA:                   0.000
REMARK UNBOUND:                 0.000
REMARK  0 active torsions:
REMARK  status: ('A' for Active; 'I' for Inactive)
ROOT
HETATM    1  N   UNL     1       9.534  -0.116  21.072  1.00  0.00    -0.351 N 
ATOM      2  HN  UNL     1       9.853  -0.457  20.165  1.00  0.00     0.166 HD
HETATM    3  H   UNL     1       5.790  -0.199  21.049  1.00  0.00     0.167 HD
HETATM    4  C   UNL     1      11.232  -1.442  23.293  1.00  0.00     0.017 C 
HETATM    5  C   UNL     1      11.620  -0.100  23.372  1.00  0.00     0.004 C 
HETATM    6  C   UNL     1      10.091  -1.872  22.919  1.00  0.00     0.088 C 
HETATM    7  C   UNL     1      10.858   0.863  22.906  1.00  0.00     0.032 C 
HETATM    8  N   UNL     1       6.545  -0.431  21.681  1.00  0.00    -0.348 N 
HETATM    9  N   UNL     1       5.763  -2.492  21.579  1.00  0.00    -0.349 N 
ATOM     10  HN  UNL     1       4.892  -2.025  21.326  1.00  0.00     0.167 HD
HETATM   11  C   UNL     1       6.609  -4.595  22.316  1.00  0.00     0.051 C 
HETATM   12  C   UNL     1       6.713  -1.831  21.931  1.00  0.00     0.132 C 
HETATM   13  C   UNL     1       7.221   0.528  22.082  1.00  0.00     0.121 C 
HETATM   14  C   UNL     1       8.554   0.197  21.864  1.00  0.00     0.075 A 
HETATM   15  C   UNL     1       7.987  -2.781  22.550  1.00  0.00     0.078 C 
HETATM   16  C   UNL     1       7.701  -3.982  22.954  1.00  0.00     0.058 C 
HETATM   17  C   UNL     1       5.838  -3.837  21.515  1.00  0.00     0.113 C 
HETATM   18  C   UNL     1       9.789   0.271  22.140  1.00  0.00     0.061 A 
HETATM   19  N   UNL     1       9.292  -2.673  22.666  1.00  0.00    -0.363 N 
ATOM     20  HN  UNL     1       9.739  -3.570  22.475  1.00  0.00     0.165 HD
HETATM   21 CL   UNL     1       6.503  -6.298  22.437  1.00  0.00    -0.083 Cl
ENDROOT
TORSDOF 0
ENDMDL
MODEL 2
REMARK VINA RESULT:    -6.572     25.317     27.011
REMARK INTER + INTRA:          -6.572
REMARK INTER:                  -6.572
REMARK INTRA:                   0.000
REMARK UNBOUND:                 0.000
REMARK  0 active torsions:
REMARK  status: ('A' for Active; 'I' for Inactive)
ROOT
HETATM    1  N   UNL     1       9.925  13.831   3.039  1.00  0.00    -0.351 N 
ATOM      2  HN  UNL     1      10.658  13.632   2.358  1.00  0.00     0.166 HD
HETATM    3  H   UNL     1      10.818  17.040   4.749  1.00  0.00     0.167 HD
HETATM    4  C   UNL     1       7.171  13.340   1.715  1.00  0.00     0.017 C 
HETATM    5  C   UNL     1       7.234  12.324   2.675  1.00  0.00     0.004 C 
HETATM    6  C   UNL     1       7.725  14.486   1.799  1.00  0.00     0.088 C 
HETATM    7  C   UNL     1       8.026  12.415   3.719  1.00  0.00     0.032 C 
HETATM    8  N   UNL     1       9.995  16.596   4.364  1.00  0.00    -0.348 N 
HETATM    9  N   UNL     1       9.924  18.316   2.985  1.00  0.00    -0.349 N 
ATOM     10  HN  UNL     1      10.452  18.782   3.723  1.00  0.00     0.167 HD
HETATM   11  C   UNL     1       8.658  18.778   1.018  1.00  0.00     0.051 C 
HETATM   12  C   UNL     1       9.476  17.209   3.179  1.00  0.00     0.132 C 
HETATM   13  C   UNL     1       9.617  15.572   4.952  1.00  0.00     0.121 C 
HETATM   14  C   UNL     1       9.452  14.590   3.981  1.00  0.00     0.075 A 
HETATM   15  C   UNL     1       8.420  16.696   1.943  1.00  0.00     0.078 C 
HETATM   16  C   UNL     1       7.896  17.610   1.182  1.00  0.00     0.058 C 
HETATM   17  C   UNL     1       9.736  18.944   1.806  1.00  0.00     0.113 C 
HETATM   18  C   UNL     1       8.910  13.538   3.528  1.00  0.00     0.061 A 
HETATM   19  N   UNL     1       8.019  15.549   1.441  1.00  0.00    -0.363 N 
ATOM     20  HN  UNL     1       7.942  15.614   0.426  1.00  0.00     0.165 HD
HETATM   21 CL   UNL     1       8.275  19.767  -0.324  1.00  0.00    -0.083 Cl
ENDROOT
TORSDOF 0
ENDMDL
MODEL 3
REMARK VINA RESULT:    -6.464      2.672      5.160
REMARK INTER + INTRA:          -6.464
REMARK INTER:                  -6.464
REMARK INTRA:                   0.000
REMARK UNBOUND:                 0.000
REMARK  0 active torsions:
REMARK  status: ('A' for Active; 'I' for Inactive)
ROOT
HETATM    1  N   UNL     1       7.858  -4.347  22.488  1.00  0.00    -0.351 N 
ATOM      2  HN  UNL     1       7.961  -4.959  21.678  1.00  0.00     0.166 HD
HETATM    3  H   UNL     1      10.309  -1.543  22.096  1.00  0.00     0.167 HD
HETATM    4  C   UNL     1       4.845  -3.886  23.018  1.00  0.00     0.017 C 
HETATM    5  C   UNL     1       5.240  -4.634  24.132  1.00  0.00     0.004 C 
HETATM    6  C   UNL     1       5.581  -3.082  22.354  1.00  0.00     0.088 C 
HETATM    7  C   UNL     1       6.496  -4.685  24.513  1.00  0.00     0.032 C 
HETATM    8  N   UNL     1       9.346  -1.668  22.382  1.00  0.00    -0.348 N 
HETATM    9  N   UNL     1       8.853  -0.370  20.666  1.00  0.00    -0.349 N 
ATOM     10  HN  UNL     1       9.809  -0.036  20.792  1.00  0.00     0.167 HD
HETATM   11  C   UNL     1       6.804   0.195  19.587  1.00  0.00     0.051 C 
HETATM   12  C   UNL     1       8.375  -1.131  21.477  1.00  0.00     0.132 C 
HETATM   13  C   UNL     1       9.179  -2.309  23.430  1.00  0.00     0.121 C 
HETATM   14  C   UNL     1       8.241  -3.297  23.148  1.00  0.00     0.075 A 
HETATM   15  C   UNL     1       6.704  -1.380  21.245  1.00  0.00     0.078 C 
HETATM   16  C   UNL     1       6.054  -0.494  20.553  1.00  0.00     0.058 C 
HETATM   17  C   UNL     1       8.141   0.043  19.597  1.00  0.00     0.113 C 
HETATM   18  C   UNL     1       7.313  -4.091  23.484  1.00  0.00     0.061 A 
HETATM   19  N   UNL     1       5.832  -2.328  21.511  1.00  0.00    -0.363 N 
ATOM     20  HN  UNL     1       5.175  -2.430  20.737  1.00  0.00     0.165 HD
HETATM   21 CL   UNL     1       5.927   0.979  18.344  1.00  0.00    -0.083 Cl
ENDROOT
TORSDOF 0
ENDMDL
MODEL 4
REMARK VINA RESULT:    -6.445      4.110      5.655
REMARK INTER + INTRA:          -6.445
REMARK INTER:                  -6.445
REMARK INTRA:                   0.000
REMARK UNBOUND:                 0.000
REMARK  0 active torsions:
REMARK  status: ('A' for Active; 'I' for Inactive)
ROOT
HETATM    1  N   UNL     1       9.002   3.763  23.087  1.00  0.00    -0.351 N 
ATOM      2  HN  UNL     1       8.895   3.640  22.081  1.00  0.00     0.166 HD
HETATM    3  H   UNL     1       7.743   0.647  24.740  1.00  0.00     0.167 HD
HETATM    4  C   UNL     1      11.797   4.960  23.660  1.00  0.00     0.017 C 
HETATM    5  C   UNL     1      10.938   6.002  24.025  1.00  0.00     0.004 C 
HETATM    6  C   UNL     1      11.532   3.713  23.720  1.00  0.00     0.088 C 
HETATM    7  C   UNL     1       9.681   5.779  24.332  1.00  0.00     0.032 C 
HETATM    8  N   UNL     1       8.523   1.286  24.831  1.00  0.00    -0.348 N 
HETATM    9  N   UNL     1       9.786  -0.463  24.370  1.00  0.00    -0.349 N 
ATOM     10  HN  UNL     1       8.987  -0.989  24.725  1.00  0.00     0.167 HD
HETATM   11  C   UNL     1      12.097  -0.710  23.841  1.00  0.00     0.051 C 
HETATM   12  C   UNL     1       9.795   0.743  24.461  1.00  0.00     0.132 C 
HETATM   13  C   UNL     1       8.230   2.436  25.192  1.00  0.00     0.121 C 
HETATM   14  C   UNL     1       8.838   3.304  24.291  1.00  0.00     0.075 A 
HETATM   15  C   UNL     1      11.302   1.427  24.051  1.00  0.00     0.078 C 
HETATM   16  C   UNL     1      12.344   0.651  24.084  1.00  0.00     0.058 C 
HETATM   17  C   UNL     1      10.818  -1.125  23.806  1.00  0.00     0.113 C 
HETATM   18  C   UNL     1       9.358   4.418  23.982  1.00  0.00     0.061 A 
HETATM   19  N   UNL     1      11.737   2.579  23.591  1.00  0.00    -0.363 N 
ATOM     20  HN  UNL     1      12.485   2.430  22.913  1.00  0.00     0.165 HD
HETATM   21 CL   UNL     1      13.440  -1.667  23.383  1.00  0.00    -0.083 Cl
ENDROOT
TORSDOF 0
ENDMDL
MODEL 5
REMARK VINA RESULT:    -6.302      2.328      4.879
REMARK INTER + INTRA:          -6.302
REMARK INTER:                  -6.302
REMARK INTRA:                   0.000
REMARK UNBOUND:                 0.000
REMARK  0 active torsions:
REMARK  status: ('A' for Active; 'I' for Inactive)
ROOT
HETATM    1  N   UNL     1       6.323  -1.441  22.643  1.00  0.00    -0.351 N 
ATOM      2  HN  UNL     1       6.044  -1.127  23.572  1.00  0.00     0.166 HD
HETATM    3  H   UNL     1       8.109   1.403  20.985  1.00  0.00     0.167 HD
HETATM    4  C   UNL     1       7.529  -4.282  22.869  1.00  0.00     0.017 C 
HETATM    5  C   UNL     1       6.349  -4.508  22.154  1.00  0.00     0.004 C 
HETATM    6  C   UNL     1       8.227  -3.213  22.849  1.00  0.00     0.088 C 
HETATM    7  C   UNL     1       5.755  -3.543  21.489  1.00  0.00     0.032 C 
HETATM    8  N   UNL     1       8.215   0.401  21.083  1.00  0.00    -0.348 N 
HETATM    9  N   UNL     1      10.123   0.877  22.084  1.00  0.00    -0.349 N 
ATOM     10  HN  UNL     1      10.056   1.742  21.547  1.00  0.00     0.167 HD
HETATM   11  C   UNL     1      11.676  -0.428  23.336  1.00  0.00     0.051 C 
HETATM   12  C   UNL     1       9.326  -0.012  21.885  1.00  0.00     0.132 C 
HETATM   13  C   UNL     1       7.336  -0.285  20.540  1.00  0.00     0.121 C 
HETATM   14  C   UNL     1       6.881  -1.184  21.499  1.00  0.00     0.075 A 
HETATM   15  C   UNL     1       9.741  -1.462  22.682  1.00  0.00     0.078 C 
HETATM   16  C   UNL     1      10.976  -1.612  23.054  1.00  0.00     0.058 C 
HETATM   17  C   UNL     1      11.099   0.742  23.005  1.00  0.00     0.113 C 
HETATM   18  C   UNL     1       6.372  -2.290  21.848  1.00  0.00     0.061 A 
HETATM   19  N   UNL     1       9.104  -2.516  23.143  1.00  0.00    -0.363 N 
ATOM     20  HN  UNL     1       9.507  -2.810  24.033  1.00  0.00     0.165 HD
HETATM   21 CL   UNL     1      13.093  -0.576  24.283  1.00  0.00    -0.083 Cl
ENDROOT
TORSDOF 0
ENDMDL
MODEL 6
REMARK VINA RESULT:    -6.291      4.331      5.916
REMARK INTER + INTRA:          -6.291
REMARK INTER:                  -6.291
REMARK INTRA:                   0.000
REMARK UNBOUND:                 0.000
REMARK  0 active torsions:
REMARK  status: ('A' for Active; 'I' for Inactive)
ROOT
HETATM    1  N   UNL     1       9.833  -0.725  23.590  1.00  0.00    -0.351 N 
ATOM      2  HN  UNL     1       9.320  -0.877  24.458  1.00  0.00     0.166 HD
HETATM    3  H   UNL     1       7.629   1.284  21.324  1.00  0.00     0.167 HD
HETATM    4  C   UNL     1      12.737   0.095  24.272  1.00  0.00     0.017 C 
HETATM    5  C   UNL     1      12.906  -1.163  23.684  1.00  0.00     0.004 C 
HETATM    6  C   UNL     1      11.807   0.928  24.010  1.00  0.00     0.088 C 
HETATM    7  C   UNL     1      11.996  -1.674  22.886  1.00  0.00     0.032 C 
HETATM    8  N   UNL     1       8.602   1.260  21.601  1.00  0.00    -0.348 N 
HETATM    9  N   UNL     1       8.249   3.295  22.380  1.00  0.00    -0.349 N 
ATOM     10  HN  UNL     1       7.493   3.300  21.695  1.00  0.00     0.167 HD
HETATM   11  C   UNL     1       9.531   4.756  23.760  1.00  0.00     0.051 C 
HETATM   12  C   UNL     1       9.029   2.369  22.399  1.00  0.00     0.132 C 
HETATM   13  C   UNL     1       9.233   0.252  21.250  1.00  0.00     0.121 C 
HETATM   14  C   UNL     1       9.869  -0.238  22.386  1.00  0.00     0.075 A 
HETATM   15  C   UNL     1      10.361   2.648  23.428  1.00  0.00     0.078 C 
HETATM   16  C   UNL     1      10.628   3.879  23.747  1.00  0.00     0.058 C 
HETATM   17  C   UNL     1       8.365   4.319  23.250  1.00  0.00     0.113 C 
HETATM   18  C   UNL     1      10.807  -0.862  22.966  1.00  0.00     0.061 A 
HETATM   19  N   UNL     1      11.208   1.915  24.116  1.00  0.00    -0.363 N 
ATOM     20  HN  UNL     1      11.398   2.348  25.019  1.00  0.00     0.165 HD
HETATM   21 CL   UNL     1       9.722   6.216  24.632  1.00  0.00    -0.083 Cl
ENDROOT
TORSDOF 0
ENDMDL
MODEL 7
REMARK VINA RESULT:    -6.169      2.667      3.659
REMARK INTER + INTRA:          -6.169
REMARK INTER:                  -6.169
REMARK INTRA:                   0.000
REMARK UNBOUND:                 0.000
REMARK  0 active torsions:
REMARK  status: ('A' for Active; 'I' for Inactive)
ROOT
HETATM    1  N   UNL     1       8.526  -0.244  24.250  1.00  0.00    -0.351 N 
ATOM      2  HN  UNL     1       7.944   0.499  24.637  1.00  0.00     0.166 HD
HETATM    3  H   UNL     1       6.233  -2.838  22.822  1.00  0.00     0.167 HD
HETATM    4  C   UNL     1      10.837   1.032  22.635  1.00  0.00     0.017 C 
HETATM    5  C   UNL     1      11.506   0.448  23.716  1.00  0.00     0.004 C 
HETATM    6  C   UNL     1       9.750   0.616  22.113  1.00  0.00     0.088 C 
HETATM    7  C   UNL     1      10.969  -0.532  24.407  1.00  0.00     0.032 C 
HETATM    8  N   UNL     1       7.095  -2.372  22.568  1.00  0.00    -0.348 N 
HETATM    9  N   UNL     1       5.969  -1.614  20.829  1.00  0.00    -0.349 N 
ATOM     10  HN  UNL     1       5.387  -2.436  20.994  1.00  0.00     0.167 HD
HETATM   11  C   UNL     1       6.440   0.041  19.178  1.00  0.00     0.051 C 
HETATM   12  C   UNL     1       6.990  -1.469  21.463  1.00  0.00     0.132 C 
HETATM   13  C   UNL     1       8.071  -2.623  23.292  1.00  0.00     0.121 C 
HETATM   14  C   UNL     1       8.617  -1.399  23.665  1.00  0.00     0.075 A 
HETATM   15  C   UNL     1       7.953  -0.187  20.882  1.00  0.00     0.078 C 
HETATM   16  C   UNL     1       7.745   0.219  19.665  1.00  0.00     0.058 C 
HETATM   17  C   UNL     1       5.590  -0.705  19.907  1.00  0.00     0.113 C 
HETATM   18  C   UNL     1       9.587  -0.664  24.017  1.00  0.00     0.061 A 
HETATM   19  N   UNL     1       8.855   0.632  21.376  1.00  0.00    -0.363 N 
ATOM     20  HN  UNL     1       8.729   1.569  20.993  1.00  0.00     0.165 HD
HETATM   21 CL   UNL     1       5.988   0.980  17.822  1.00  0.00    -0.083 Cl
ENDROOT
TORSDOF 0
ENDMDL
MODEL 8
REMARK VINA RESULT:    -6.097     25.597     27.365
REMARK INTER + INTRA:          -6.097
REMARK INTER:                  -6.097
REMARK INTRA:                   0.000
REMARK UNBOUND:                 0.000
REMARK  0 active torsions:
REMARK  status: ('A' for Active; 'I' for Inactive)
ROOT
HETATM    1  N   UNL     1      10.770  14.612   3.053  1.00  0.00    -0.351 N 
ATOM      2  HN  UNL     1      11.503  14.472   2.358  1.00  0.00     0.166 HD
HETATM    3  H   UNL     1      12.122  16.938   5.657  1.00  0.00     0.167 HD
HETATM    4  C   UNL     1       8.086  15.099   1.592  1.00  0.00     0.017 C 
HETATM    5  C   UNL     1       7.878  13.860   2.207  1.00  0.00     0.004 C 
HETATM    6  C   UNL     1       8.840  16.034   2.024  1.00  0.00     0.088 C 
HETATM    7  C   UNL     1       8.588  13.482   3.245  1.00  0.00     0.032 C 
HETATM    8  N   UNL     1      11.262  16.802   5.143  1.00  0.00    -0.348 N 
HETATM    9  N   UNL     1      11.630  18.823   4.337  1.00  0.00    -0.349 N 
ATOM     10  HN  UNL     1      12.177  18.938   5.190  1.00  0.00     0.167 HD
HETATM   11  C   UNL     1      10.633  20.081   2.574  1.00  0.00     0.051 C 
HETATM   12  C   UNL     1      10.965  17.824   4.185  1.00  0.00     0.132 C 
HETATM   13  C   UNL     1      10.651  15.753   5.392  1.00  0.00     0.121 C 
HETATM   14  C   UNL     1      10.379  15.148   4.169  1.00  0.00     0.075 A 
HETATM   15  C   UNL     1       9.930  17.917   2.832  1.00  0.00     0.078 C 
HETATM   16  C   UNL     1       9.651  19.098   2.368  1.00  0.00     0.058 C 
HETATM   17  C   UNL     1      11.658  19.789   3.395  1.00  0.00     0.113 C 
HETATM   18  C   UNL     1       9.682  14.406   3.414  1.00  0.00     0.061 A 
HETATM   19  N   UNL     1       9.358  17.071   2.005  1.00  0.00    -0.363 N 
ATOM     20  HN  UNL     1       9.375  17.440   1.054  1.00  0.00     0.165 HD
HETATM   21 CL   UNL     1      10.552  21.472   1.580  1.00  0.00    -0.083 Cl
ENDROOT
TORSDOF 0
ENDMDL
MODEL 9
REMARK VINA RESULT:    -6.049      2.424      2.734
REMARK INTER + INTRA:          -6.049
REMARK INTER:                  -6.049
REMARK INTRA:                   0.000
REMARK UNBOUND:                 0.000
REMARK  0 active torsions:
REMARK  status: ('A' for Active; 'I' for Inactive)
ROOT
HETATM    1  N   UNL     1       9.209   0.178  24.305  1.00  0.00    -0.351 N 
ATOM      2  HN  UNL     1       8.679   0.643  23.568  1.00  0.00     0.166 HD
HETATM    3  H   UNL     1       6.739  -1.221  26.749  1.00  0.00     0.167 HD
HETATM    4  C   UNL     1      11.445  -1.525  23.012  1.00  0.00     0.017 C 
HETATM    5  C   UNL     1      12.167  -0.525  23.673  1.00  0.00     0.004 C 
HETATM    6  C   UNL     1      10.311  -1.992  23.367  1.00  0.00     0.088 C 
HETATM    7  C   UNL     1      11.645   0.149  24.673  1.00  0.00     0.032 C 
HETATM    8  N   UNL     1       7.597  -1.509  26.296  1.00  0.00    -0.348 N 
HETATM    9  N   UNL     1       6.381  -3.124  25.411  1.00  0.00    -0.349 N 
ATOM     10  HN  UNL     1       5.785  -2.962  26.223  1.00  0.00     0.167 HD
HETATM   11  C   UNL     1       6.793  -4.715  23.684  1.00  0.00     0.051 C 
HETATM   12  C   UNL     1       7.447  -2.556  25.331  1.00  0.00     0.132 C 
HETATM   13  C   UNL     1       8.610  -0.870  26.614  1.00  0.00     0.121 C 
HETATM   14  C   UNL     1       9.221  -0.472  25.429  1.00  0.00     0.075 A 
HETATM   15  C   UNL     1       8.410  -3.135  24.048  1.00  0.00     0.078 C 
HETATM   16  C   UNL     1       8.133  -4.311  23.571  1.00  0.00     0.058 C 
HETATM   17  C   UNL     1       5.970  -3.969  24.443  1.00  0.00     0.113 C 
HETATM   18  C   UNL     1      10.237  -0.150  24.743  1.00  0.00     0.061 A 
HETATM   19  N   UNL     1       9.370  -2.663  23.284  1.00  0.00    -0.363 N 
ATOM     20  HN  UNL     1       9.249  -2.986  22.324  1.00  0.00     0.165 HD
HETATM   21 CL   UNL     1       6.281  -5.985  22.659  1.00  0.00    -0.083 Cl
ENDROOT
TORSDOF 0
ENDMDL
