stable:False satoms:9 tatoms:24 sratio:0.375
  -OEChem-07092417483D

 24 24  0     1  0  0  0  0  0999 V2000
    6.5944   -4.8604   26.4843 C   0  0  0  0  0  0  0  0  0  0  0  0
    8.2505   -4.2958   26.1253 S   0  0  0  0  0  0  0  0  0  0  0  0
    9.0782   -5.4597   26.0465 O   0  0  0  0  0  0  0  0  0  0  0  0
    8.6473   -3.4250   27.1871 O   0  0  0  0  0  0  0  0  0  0  0  0
    8.1041   -3.5863   24.6762 N   0  0  0  0  0  0  0  0  0  0  0  0
    8.9463   -2.9335   24.1616 C   0  0  0  0  0  0  0  0  0  0  0  0
    9.4030   -1.9879   23.4989 C   0  0  0  0  0  0  0  0  0  0  0  0
   10.3236   -1.2310   23.1700 C   0  0  1  0  0  0  0  0  0  0  0  0
   11.0653    0.0571   24.3491 C   0  0  0  0  0  0  0  0  0  0  0  0
   11.9888    0.3089   24.3070 C   0  0  0  0  0  0  0  0  0  0  0  0
   13.1774   -0.2120   23.4394 C   0  0  0  0  0  0  0  0  0  0  0  0
   12.7640   -1.2575   22.6500 C   0  0  0  0  0  0  0  0  0  0  0  0
   11.7436   -1.7461   22.5126 C   0  0  0  0  0  0  0  0  0  0  0  0
    9.7323   -0.5443   22.3272 C   0  0  0  0  0  0  0  0  0  0  0  0
    9.0680    0.0424   21.3785 C   0  0  0  0  0  0  0  0  0  0  0  0
    9.5683    0.9709   20.9765 O   0  0  0  0  0  0  0  0  0  0  0  0
    7.9345   -0.5664   21.0721 N   0  0  0  0  0  0  0  0  0  0  0  0
    7.2167   -0.1066   20.1428 C   0  0  0  0  0  0  0  0  0  0  0  0
    7.2679   -0.0145   18.8778 C   0  0  0  0  0  0  0  0  0  0  0  0
    6.7258    0.3532   17.7857 N   0  0  0  0  0  0  0  0  0  0  0  0
    5.6498    0.9054   18.2026 C   0  0  0  0  0  0  0  0  0  0  0  0
    5.2358    1.0035   19.4347 C   0  0  0  0  0  0  0  0  0  0  0  0
    5.7790    0.6001   20.5380 C   0  0  0  0  0  0  0  0  0  0  0  0
    5.3194    0.6953   21.9529 C   0  0  0  0  0  0  0  0  0  0  0  0
 20 21  2  0  0  0  0
 19 20  1  0  0  0  0
 21 22  1  0  0  0  0
 18 19  2  0  0  0  0
 22 23  2  0  0  0  0
 18 23  1  0  0  0  0
 17 18  1  0  0  0  0
 23 24  1  0  0  0  0
 15 16  2  0  0  0  0
 15 17  1  0  0  0  0
 14 15  1  0  0  0  0
  8 14  1  0  0  0  0
 12 13  2  0  0  0  0
  8 13  1  0  0  0  0
 11 12  1  0  0  0  0
  7  8  1  0  0  0  0
 10 11  1  0  0  0  0
  6  7  2  0  0  0  0
  5  6  1  0  0  0  0
  9 10  2  0  0  0  0
  2  5  1  0  0  0  0
  2  3  2  0  0  0  0
  1  2  1  0  0  0  0
  2  4  2  0  0  0  0
M  END
> <Shapegauss>
-286.382080

$$$$
