stable:False satoms:9 tatoms:24 sratio:0.375
  -OEChem-08062417113D

 47 47  0     1  0  0  0  0  0999 V2000
    6.1517   -5.1165   26.4179 C   0  0  0  0  0  0  0  0  0  0  0  0
    7.8319   -4.5517   26.1976 S   0  0  0  0  0  0  0  0  0  0  0  0
    8.6604   -5.7171   26.1606 O   0  0  0  0  0  0  0  0  0  0  0  0
    8.1481   -3.7023   27.3030 O   0  0  0  0  0  0  0  0  0  0  0  0
    7.7988   -3.8148   24.7552 N   0  0  0  0  0  0  0  0  0  0  0  0
    8.6796   -3.1558   24.3191 C   0  0  0  0  0  0  0  0  0  0  0  0
    9.1881   -2.1999   23.7113 C   0  0  0  0  0  0  0  0  0  0  0  0
   10.1331   -1.4405   23.4683 C   0  0  1  0  0  0  0  0  0  0  0  0
   10.7852   -0.1774   24.7248 C   0  0  0  0  0  0  0  0  0  0  0  0
   11.7098    0.0716   24.7584 C   0  0  0  0  0  0  0  0  0  0  0  0
   12.9602   -0.4377   23.9749 C   0  0  0  0  0  0  0  0  0  0  0  0
   12.6061   -1.4668   23.1365 C   0  0  0  0  0  0  0  0  0  0  0  0
   11.5981   -1.9488   22.9121 C   0  0  0  0  0  0  0  0  0  0  0  0
    9.6098   -0.7360   22.5957 C   0  0  0  0  0  0  0  0  0  0  0  0
    9.0217   -0.1292   21.6100 C   0  0  0  0  0  0  0  0  0  0  0  0
    9.5536    0.8047   21.2651 O   0  0  0  0  0  0  0  0  0  0  0  0
    7.9136   -0.7278   21.2062 N   0  0  0  0  0  0  0  0  0  0  0  0
    7.2704   -0.2481   20.2334 C   0  0  0  0  0  0  0  0  0  0  0  0
    7.4187   -0.1327   18.9780 C   0  0  0  0  0  0  0  0  0  0  0  0
    6.9629    0.2573   17.8547 N   0  0  0  0  0  0  0  0  0  0  0  0
    5.8594    0.8058   18.1982 C   0  0  0  0  0  0  0  0  0  0  0  0
    5.3523    0.8826   19.3965 C   0  0  0  0  0  0  0  0  0  0  0  0
    5.8083    0.4567   20.5304 C   0  0  0  0  0  0  0  0  0  0  0  0
    5.2417    0.5273   21.9075 C   0  0  0  0  0  0  0  0  0  0  0  0
    6.0633   -5.6387   27.3820 H   0  0  0  0  0  0  0  0  0  0  0  0
    5.4702   -4.2532   26.4047 H   0  0  0  0  0  0  0  0  0  0  0  0
    5.8867   -5.8054   25.6023 H   0  0  0  0  0  0  0  0  0  0  0  0
    6.9997   -3.2142   24.7784 H   0  0  0  0  0  0  0  0  0  0  0  0
    9.5513   -3.7103   24.6339 H   0  0  0  0  0  0  0  0  0  0  0  0
    8.3992   -1.8536   23.0600 H   0  0  0  0  0  0  0  0  0  0  0  0
   10.3636   -0.8314   24.3547 H   0  0  0  0  0  0  0  0  0  0  0  0
   10.4581   -0.9488   24.0434 H   0  0  0  0  0  0  0  0  0  0  0  0
   10.0701    0.3133   25.3684 H   0  0  0  0  0  0  0  0  0  0  0  0
   11.9280    0.8514   25.4730 H   0  0  0  0  0  0  0  0  0  0  0  0
   13.7166   -0.7946   24.6894 H   0  0  0  0  0  0  0  0  0  0  0  0
   13.3781    0.3882   23.3805 H   0  0  0  0  0  0  0  0  0  0  0  0
   13.4330   -1.8971   22.5912 H   0  0  0  0  0  0  0  0  0  0  0  0
   11.6038   -2.8208   22.2749 H   0  0  0  0  0  0  0  0  0  0  0  0
   10.5451   -0.1815   22.4289 H   0  0  0  0  0  0  0  0  0  0  0  0
    8.9963   -0.2051   23.3385 H   0  0  0  0  0  0  0  0  0  0  0  0
    7.5889   -1.5532   21.6680 H   0  0  0  0  0  0  0  0  0  0  0  0
    8.3822   -0.5697   18.7611 H   0  0  0  0  0  0  0  0  0  0  0  0
    5.2821    1.2568   17.4047 H   0  0  0  0  0  0  0  0  0  0  0  0
    4.3968    1.3828   19.4522 H   0  0  0  0  0  0  0  0  0  0  0  0
    4.6295   -0.3663   22.0989 H   0  0  0  0  0  0  0  0  0  0  0  0
    6.0616    0.5736   22.6393 H   0  0  0  0  0  0  0  0  0  0  0  0
    4.6159    1.4272   22.0006 H   0  0  0  0  0  0  0  0  0  0  0  0
 20 21  2  0  0  0  0
 19 20  1  0  0  0  0
 21 22  1  0  0  0  0
 18 19  2  0  0  0  0
 22 23  2  0  0  0  0
 18 23  1  0  0  0  0
 17 18  1  0  0  0  0
 23 24  1  0  0  0  0
 15 16  2  0  0  0  0
 15 17  1  0  0  0  0
 14 15  1  0  0  0  0
  8 14  1  0  0  0  0
 12 13  2  0  0  0  0
  8 13  1  0  0  0  0
 11 12  1  0  0  0  0
  7  8  1  0  0  0  0
 10 11  1  0  0  0  0
  6  7  2  0  0  0  0
  5  6  1  0  0  0  0
  9 10  2  0  0  0  0
  2  5  1  0  0  0  0
  2  3  2  0  0  0  0
  1  2  1  0  0  0  0
  2  4  2  0  0  0  0
  1 25  1  0  0  0  0
  1 26  1  0  0  0  0
  1 27  1  0  0  0  0
  5 28  1  0  0  0  0
  6 29  1  0  0  0  0
  7 30  1  0  0  0  0
  8 31  1  0  0  0  0
  9 32  1  0  0  0  0
  9 33  1  0  0  0  0
 10 34  1  0  0  0  0
 11 35  1  0  0  0  0
 11 36  1  0  0  0  0
 12 37  1  0  0  0  0
 13 38  1  0  0  0  0
 14 39  1  0  0  0  0
 14 40  1  0  0  0  0
 17 41  1  0  0  0  0
 19 42  1  0  0  0  0
 21 43  1  0  0  0  0
 22 44  1  0  0  0  0
 24 45  1  0  0  0  0
 24 46  1  0  0  0  0
 24 47  1  0  0  0  0
M  END
> <Chemgauss4>
-13.002000

$$$$
