stable:False satoms:9 tatoms:24 sratio:0.375
  -OEChem-08062417113D

 47 47  0     1  0  0  0  0  0999 V2000
   -6.1987   -4.9706  -26.1342 C   0  0  0  0  0  0  0  0  0  0  0  0
   -7.8788   -4.4058  -25.9140 S   0  0  0  0  0  0  0  0  0  0  0  0
   -8.7073   -5.5712  -25.8770 O   0  0  0  0  0  0  0  0  0  0  0  0
   -8.1951   -3.5564  -27.0193 O   0  0  0  0  0  0  0  0  0  0  0  0
   -7.8458   -3.6689  -24.4716 N   0  0  0  0  0  0  0  0  0  0  0  0
   -8.7266   -3.0099  -24.0354 C   0  0  0  0  0  0  0  0  0  0  0  0
   -9.2351   -2.0539  -23.4276 C   0  0  0  0  0  0  0  0  0  0  0  0
  -10.1800   -1.2946  -23.1846 C   0  0  1  0  0  0  0  0  0  0  0  0
  -10.8322   -0.0315  -24.4412 C   0  0  0  0  0  0  0  0  0  0  0  0
  -11.7568    0.2175  -24.4748 C   0  0  0  0  0  0  0  0  0  0  0  0
  -13.0072   -0.2918  -23.6912 C   0  0  0  0  0  0  0  0  0  0  0  0
  -12.6531   -1.3208  -22.8529 C   0  0  0  0  0  0  0  0  0  0  0  0
  -11.6450   -1.8029  -22.6285 C   0  0  0  0  0  0  0  0  0  0  0  0
   -9.6568   -0.5901  -22.3120 C   0  0  0  0  0  0  0  0  0  0  0  0
   -9.0687    0.0167  -21.3264 C   0  0  0  0  0  0  0  0  0  0  0  0
   -9.6006    0.9506  -20.9815 O   0  0  0  0  0  0  0  0  0  0  0  0
   -7.9606   -0.5819  -20.9226 N   0  0  0  0  0  0  0  0  0  0  0  0
   -7.3173   -0.1022  -19.9498 C   0  0  0  0  0  0  0  0  0  0  0  0
   -7.4657    0.0132  -18.6944 C   0  0  0  0  0  0  0  0  0  0  0  0
   -7.0099    0.4033  -17.5711 N   0  0  0  0  0  0  0  0  0  0  0  0
   -5.9064    0.9517  -17.9145 C   0  0  0  0  0  0  0  0  0  0  0  0
   -5.3993    1.0285  -19.1129 C   0  0  0  0  0  0  0  0  0  0  0  0
   -5.8553    0.6026  -20.2468 C   0  0  0  0  0  0  0  0  0  0  0  0
   -5.2887    0.6732  -21.6238 C   0  0  0  0  0  0  0  0  0  0  0  0
   -6.1103   -5.4928  -27.0984 H   0  0  0  0  0  0  0  0  0  0  0  0
   -5.5171   -4.1073  -26.1211 H   0  0  0  0  0  0  0  0  0  0  0  0
   -5.9337   -5.6595  -25.3186 H   0  0  0  0  0  0  0  0  0  0  0  0
   -7.0466   -3.0683  -24.4947 H   0  0  0  0  0  0  0  0  0  0  0  0
   -9.5983   -3.5644  -24.3503 H   0  0  0  0  0  0  0  0  0  0  0  0
   -8.4462   -1.7077  -22.7763 H   0  0  0  0  0  0  0  0  0  0  0  0
  -10.4105   -0.6854  -24.0711 H   0  0  0  0  0  0  0  0  0  0  0  0
  -10.5051   -0.8029  -23.7597 H   0  0  0  0  0  0  0  0  0  0  0  0
  -10.1171    0.4592  -25.0848 H   0  0  0  0  0  0  0  0  0  0  0  0
  -11.9750    0.9973  -25.1893 H   0  0  0  0  0  0  0  0  0  0  0  0
  -13.7636   -0.6487  -24.4057 H   0  0  0  0  0  0  0  0  0  0  0  0
  -13.4251    0.5341  -23.0968 H   0  0  0  0  0  0  0  0  0  0  0  0
  -13.4800   -1.7512  -22.3075 H   0  0  0  0  0  0  0  0  0  0  0  0
  -11.6508   -2.6749  -21.9913 H   0  0  0  0  0  0  0  0  0  0  0  0
  -10.5921   -0.0356  -22.1453 H   0  0  0  0  0  0  0  0  0  0  0  0
   -9.0433   -0.0592  -23.0548 H   0  0  0  0  0  0  0  0  0  0  0  0
   -7.6359   -1.4073  -21.3844 H   0  0  0  0  0  0  0  0  0  0  0  0
   -8.4292   -0.4238  -18.4775 H   0  0  0  0  0  0  0  0  0  0  0  0
   -5.3290    1.4027  -17.1210 H   0  0  0  0  0  0  0  0  0  0  0  0
   -4.4437    1.5287  -19.1686 H   0  0  0  0  0  0  0  0  0  0  0  0
   -4.6765   -0.2204  -21.8153 H   0  0  0  0  0  0  0  0  0  0  0  0
   -6.1086    0.7195  -22.3556 H   0  0  0  0  0  0  0  0  0  0  0  0
   -4.6629    1.5731  -21.7170 H   0  0  0  0  0  0  0  0  0  0  0  0
 20 21  2  0  0  0  0
 19 20  1  0  0  0  0
 21 22  1  0  0  0  0
 18 19  2  0  0  0  0
 22 23  2  0  0  0  0
 18 23  1  0  0  0  0
 17 18  1  0  0  0  0
 23 24  1  0  0  0  0
 15 16  2  0  0  0  0
 15 17  1  0  0  0  0
 14 15  1  0  0  0  0
  8 14  1  0  0  0  0
 12 13  2  0  0  0  0
  8 13  1  0  0  0  0
 11 12  1  0  0  0  0
  7  8  1  0  0  0  0
 10 11  1  0  0  0  0
  6  7  2  0  0  0  0
  5  6  1  0  0  0  0
  9 10  2  0  0  0  0
  2  5  1  0  0  0  0
  2  3  2  0  0  0  0
  1  2  1  0  0  0  0
  2  4  2  0  0  0  0
  1 25  1  0  0  0  0
  1 26  1  0  0  0  0
  1 27  1  0  0  0  0
  5 28  1  0  0  0  0
  6 29  1  0  0  0  0
  7 30  1  0  0  0  0
  8 31  1  0  0  0  0
  9 32  1  0  0  0  0
  9 33  1  0  0  0  0
 10 34  1  0  0  0  0
 11 35  1  0  0  0  0
 11 36  1  0  0  0  0
 12 37  1  0  0  0  0
 13 38  1  0  0  0  0
 14 39  1  0  0  0  0
 14 40  1  0  0  0  0
 17 41  1  0  0  0  0
 19 42  1  0  0  0  0
 21 43  1  0  0  0  0
 22 44  1  0  0  0  0
 24 45  1  0  0  0  0
 24 46  1  0  0  0  0
 24 47  1  0  0  0  0
M  END
> <Chemgauss4>
-12.931619

$$$$
