REMARK  7 active torsions:
REMARK  status: ('A' for Active; 'I' for Inactive)
REMARK    1  A    between atoms: S_2  and  N_5 
REMARK    2  A    between atoms: N_5  and  C_7 
REMARK    3  A    between atoms: C_7  and  C_8 
REMARK    4  A    between atoms: C_8  and  C_9 
REMARK    5  A    between atoms: C_9  and  C_15 
REMARK    6  A    between atoms: C_15  and  C_16 
REMARK       I    between atoms: C_16  and  N_18 
REMARK    7  A    between atoms: N_18  and  C_20 
ROOT
HETATM    1  C   UNL     1      10.370  -1.120  23.263  1.00  0.00     0.068 C 
HETATM    2  C   UNL     1      11.062  -0.044  24.262  1.00  0.00     0.000 C 
HETATM    3  C   UNL     1      12.136   0.309  24.258  1.00  0.00    -0.002 C 
HETATM    4  C   UNL     1      13.111  -0.151  23.469  1.00  0.00    -0.001 C 
HETATM    5  C   UNL     1      12.750  -1.198  22.666  1.00  0.00    -0.002 C 
HETATM    6  C   UNL     1      11.736  -1.698  22.558  1.00  0.00     0.000 C 
ENDROOT
BRANCH   1   7
HETATM    7  C   UNL     1       9.405  -1.989  23.544  1.00  0.00     0.135 C 
BRANCH   7   8
HETATM    8  C   UNL     1       8.912  -2.899  24.148  1.00  0.00    -0.058 C 
BRANCH   8   9
HETATM    9  N   UNL     1       8.121  -3.621  24.661  1.00  0.00    -0.254 N 
ATOM     10  HN  UNL     1       7.294  -3.832  24.103  1.00  0.00     0.188 HD
BRANCH   9  11
HETATM   11  S   UNL     1       8.171  -4.327  26.143  1.00  0.00     0.233 S 
HETATM   12  C   UNL     1       6.703  -4.790  26.454  1.00  0.00     0.186 C 
HETATM   13  O   UNL     1       9.046  -5.488  26.049  1.00  0.00    -0.206 OA
HETATM   14  O   UNL     1       8.631  -3.418  27.152  1.00  0.00    -0.206 OA
ENDBRANCH   9  11
ENDBRANCH   8   9
ENDBRANCH   7   8
ENDBRANCH   1   7
BRANCH   1  15
HETATM   15  C   UNL     1       9.696  -0.611  22.405  1.00  0.00    -0.064 C 
BRANCH  15  16
HETATM   16  C   UNL     1       9.027   0.011  21.394  1.00  0.00     0.290 C 
HETATM   17  O   UNL     1       9.531   0.955  20.950  1.00  0.00    -0.259 OA
HETATM   18  N   UNL     1       7.881  -0.597  21.114  1.00  0.00    -0.315 N 
ATOM     19  HN  UNL     1       7.579  -1.430  21.620  1.00  0.00     0.170 HD
BRANCH  18  20
HETATM   20  C   UNL     1       7.189  -0.098  20.198  1.00  0.00     0.060 A 
HETATM   21  C   UNL     1       7.184   0.020  18.911  1.00  0.00     0.117 A 
HETATM   22  N   UNL     1       6.748   0.358  17.787  1.00  0.00    -0.373 N 
HETATM   23  C   UNL     1       5.684   0.827  18.280  1.00  0.00     0.088 A 
ATOM     24  HN  UNL     1       7.112   0.283  16.837  1.00  0.00     0.164 HD
HETATM   25  C   UNL     1       5.233   0.978  19.447  1.00  0.00     0.030 A 
HETATM   26  C   UNL     1       5.787   0.601  20.597  1.00  0.00    -0.016 A 
HETATM   27  C   UNL     1       5.467   0.698  21.586  1.00  0.00     0.026 C 
ENDBRANCH  18  20
ENDBRANCH  15  16
ENDBRANCH   1  15
TORSDOF 7
