MODEL 1
REMARK VINA RESULT:    -7.272      0.000      0.000
REMARK INTER + INTRA:         -11.281
REMARK INTER:                 -10.247
REMARK INTRA:                  -1.034
REMARK UNBOUND:                -1.034
REMARK  7 active torsions:
REMARK  status: ('A' for Active; 'I' for Inactive)
REMARK    1  A    between atoms: S_2  and  N_5 
REMARK    2  A    between atoms: N_5  and  C_7 
REMARK    3  A    between atoms: C_7  and  C_8 
REMARK    4  A    between atoms: C_8  and  C_9 
REMARK    5  A    between atoms: C_9  and  C_15 
REMARK    6  A    between atoms: C_15  and  C_16 
REMARK       I    between atoms: C_16  and  N_18 
REMARK    7  A    between atoms: N_18  and  C_20 
ROOT
HETATM    1  C   UNL     1       9.537  -1.219  23.502  1.00  0.00     0.068 C 
HETATM    2  C   UNL     1       9.710  -0.027  24.590  1.00  0.00     0.000 C 
HETATM    3  C   UNL     1      10.658   0.526  24.862  1.00  0.00    -0.002 C 
HETATM    4  C   UNL     1      11.883   0.261  24.398  1.00  0.00    -0.001 C 
HETATM    5  C   UNL     1      11.961  -0.838  23.587  1.00  0.00    -0.002 C 
HETATM    6  C   UNL     1      11.128  -1.524  23.233  1.00  0.00     0.000 C 
ENDROOT
BRANCH   1   7
HETATM    7  C   UNL     1       8.709  -2.257  23.555  1.00  0.00     0.135 C 
BRANCH   7   8
HETATM    8  C   UNL     1       8.294  -3.327  23.212  1.00  0.00    -0.058 C 
BRANCH   8   9
HETATM    9  N   UNL     1       7.801  -4.199  22.574  1.00  0.00    -0.254 N 
ATOM     10  HN  UNL     1       8.447  -4.903  22.220  1.00  0.00     0.188 HD
BRANCH   9  11
HETATM   11  S   UNL     1       6.222  -4.430  22.183  1.00  0.00     0.233 S 
HETATM   12  C   UNL     1       6.168  -5.772  21.369  1.00  0.00     0.186 C 
HETATM   13  O   UNL     1       5.476  -4.575  23.426  1.00  0.00    -0.206 OA
HETATM   14  O   UNL     1       5.704  -3.349  21.396  1.00  0.00    -0.206 OA
ENDBRANCH   9  11
ENDBRANCH   8   9
ENDBRANCH   7   8
ENDBRANCH   1   7
BRANCH   1  15
HETATM   15  C   UNL     1       9.049  -0.851  22.464  1.00  0.00    -0.064 C 
BRANCH  15  16
HETATM   16  C   UNL     1       8.510  -0.330  21.326  1.00  0.00     0.290 C 
HETATM   17  O   UNL     1       9.228   0.279  20.651  1.00  0.00    -0.259 OA
HETATM   18  N   UNL     1       7.220  -0.619  21.215  1.00  0.00    -0.315 N 
ATOM     19  HN  UNL     1       6.731  -1.170  21.921  1.00  0.00     0.170 HD
BRANCH  18  20
HETATM   20  C   UNL     1       6.631  -0.181  20.201  1.00  0.00     0.060 A 
HETATM   21  C   UNL     1       6.329  -0.541  18.997  1.00  0.00     0.117 A 
HETATM   22  N   UNL     1       5.819  -0.439  17.858  1.00  0.00    -0.373 N 
HETATM   23  C   UNL     1       5.294   0.677  18.133  1.00  0.00     0.088 A 
ATOM     24  HN  UNL     1       5.824  -1.030  17.027  1.00  0.00     0.164 HD
HETATM   25  C   UNL     1       5.313   1.450  19.128  1.00  0.00     0.030 A 
HETATM   26  C   UNL     1       5.910   1.262  20.303  1.00  0.00    -0.016 A 
HETATM   27  C   UNL     1       5.962   1.860  21.158  1.00  0.00     0.026 C 
ENDBRANCH  18  20
ENDBRANCH  15  16
ENDBRANCH   1  15
TORSDOF 7
ENDMDL
MODEL 2
REMARK VINA RESULT:    -6.899      2.634      5.767
REMARK INTER + INTRA:         -10.755
REMARK INTER:                  -9.889
REMARK INTRA:                  -0.866
REMARK UNBOUND:                -1.034
REMARK  7 active torsions:
REMARK  status: ('A' for Active; 'I' for Inactive)
REMARK    1  A    between atoms: S_2  and  N_5 
REMARK    2  A    between atoms: N_5  and  C_7 
REMARK    3  A    between atoms: C_7  and  C_8 
REMARK    4  A    between atoms: C_8  and  C_9 
REMARK    5  A    between atoms: C_9  and  C_15 
REMARK    6  A    between atoms: C_15  and  C_16 
REMARK       I    between atoms: C_16  and  N_18 
REMARK    7  A    between atoms: N_18  and  C_20 
ROOT
HETATM    1  C   UNL     1      10.440  -1.030  23.092  1.00  0.00     0.068 C 
HETATM    2  C   UNL     1      11.978  -1.550  23.065  1.00  0.00     0.000 C 
HETATM    3  C   UNL     1      12.868  -1.097  23.595  1.00  0.00    -0.002 C 
HETATM    4  C   UNL     1      12.867   0.035  24.305  1.00  0.00    -0.001 C 
HETATM    5  C   UNL     1      11.679   0.714  24.297  1.00  0.00    -0.002 C 
HETATM    6  C   UNL     1      10.698   0.429  23.801  1.00  0.00     0.000 C 
ENDROOT
BRANCH   1   7
HETATM    7  C   UNL     1       9.542  -1.091  22.114  1.00  0.00     0.135 C 
BRANCH   7   8
HETATM    8  C   UNL     1       8.549  -0.752  21.536  1.00  0.00    -0.058 C 
BRANCH   8   9
HETATM    9  N   UNL     1       7.410  -0.592  21.240  1.00  0.00    -0.254 N 
ATOM     10  HN  UNL     1       6.730  -1.008  21.875  1.00  0.00     0.188 HD
BRANCH   9  11
HETATM   11  S   UNL     1       6.778   0.206  19.951  1.00  0.00     0.233 S 
HETATM   12  C   UNL     1       5.568  -0.663  19.453  1.00  0.00     0.186 C 
HETATM   13  O   UNL     1       6.296   1.497  20.425  1.00  0.00    -0.206 OA
HETATM   14  O   UNL     1       7.739   0.371  18.901  1.00  0.00    -0.206 OA
ENDBRANCH   9  11
ENDBRANCH   8   9
ENDBRANCH   7   8
ENDBRANCH   1   7
BRANCH   1  15
HETATM   15  C   UNL     1       9.730  -1.676  23.819  1.00  0.00    -0.064 C 
BRANCH  15  16
HETATM   16  C   UNL     1       8.999  -2.387  24.723  1.00  0.00     0.290 C 
HETATM   17  O   UNL     1       8.705  -1.830  25.695  1.00  0.00    -0.259 OA
HETATM   18  N   UNL     1       8.771  -3.626  24.307  1.00  0.00    -0.315 N 
ATOM     19  HN  UNL     1       9.118  -3.962  23.408  1.00  0.00     0.170 HD
BRANCH  18  20
HETATM   20  C   UNL     1       8.107  -4.362  25.071  1.00  0.00     0.060 A 
HETATM   21  C   UNL     1       8.245  -5.035  26.166  1.00  0.00     0.117 A 
HETATM   22  N   UNL     1       7.894  -5.761  27.124  1.00  0.00    -0.373 N 
HETATM   23  C   UNL     1       6.693  -5.790  26.733  1.00  0.00     0.088 A 
ATOM     24  HN  UNL     1       8.388  -6.172  27.916  1.00  0.00     0.164 HD
HETATM   25  C   UNL     1       6.069  -5.336  25.737  1.00  0.00     0.030 A 
HETATM   26  C   UNL     1       6.539  -4.582  24.746  1.00  0.00    -0.016 A 
HETATM   27  C   UNL     1       6.077  -4.180  23.901  1.00  0.00     0.026 C 
ENDBRANCH  18  20
ENDBRANCH  15  16
ENDBRANCH   1  15
TORSDOF 7
ENDMDL
MODEL 3
REMARK VINA RESULT:    -6.866      4.060      6.167
REMARK INTER + INTRA:         -10.710
REMARK INTER:                  -9.896
REMARK INTRA:                  -0.813
REMARK UNBOUND:                -1.034
REMARK  7 active torsions:
REMARK  status: ('A' for Active; 'I' for Inactive)
REMARK    1  A    between atoms: S_2  and  N_5 
REMARK    2  A    between atoms: N_5  and  C_7 
REMARK    3  A    between atoms: C_7  and  C_8 
REMARK    4  A    between atoms: C_8  and  C_9 
REMARK    5  A    between atoms: C_9  and  C_15 
REMARK    6  A    between atoms: C_15  and  C_16 
REMARK       I    between atoms: C_16  and  N_18 
REMARK    7  A    between atoms: N_18  and  C_20 
ROOT
HETATM    1  C   UNL     1       7.589  -4.721  23.848  1.00  0.00     0.068 C 
HETATM    2  C   UNL     1       7.497  -5.594  22.482  1.00  0.00     0.000 C 
HETATM    3  C   UNL     1       6.633  -5.646  21.755  1.00  0.00    -0.002 C 
HETATM    4  C   UNL     1       5.444  -5.055  21.903  1.00  0.00    -0.001 C 
HETATM    5  C   UNL     1       5.274  -4.405  23.094  1.00  0.00    -0.002 C 
HETATM    6  C   UNL     1       6.012  -4.274  23.948  1.00  0.00     0.000 C 
ENDROOT
BRANCH   1   7
HETATM    7  C   UNL     1       8.213  -5.038  24.977  1.00  0.00     0.135 C 
BRANCH   7   8
HETATM    8  C   UNL     1       8.276  -5.468  26.094  1.00  0.00    -0.058 C 
BRANCH   8   9
HETATM    9  N   UNL     1       8.034  -5.699  27.233  1.00  0.00    -0.254 N 
ATOM     10  HN  UNL     1       8.843  -5.892  27.822  1.00  0.00     0.188 HD
BRANCH   9  11
HETATM   11  S   UNL     1       6.579  -5.752  27.993  1.00  0.00     0.233 S 
HETATM   12  C   UNL     1       5.889  -4.370  27.709  1.00  0.00     0.186 C 
HETATM   13  O   UNL     1       5.803  -6.825  27.387  1.00  0.00    -0.206 OA
HETATM   14  O   UNL     1       6.722  -5.956  29.405  1.00  0.00    -0.206 OA
ENDBRANCH   9  11
ENDBRANCH   8   9
ENDBRANCH   7   8
ENDBRANCH   1   7
BRANCH   1  15
HETATM   15  C   UNL     1       8.252  -3.722  23.733  1.00  0.00    -0.064 C 
BRANCH  15  16
HETATM   16  C   UNL     1       9.013  -2.618  23.494  1.00  0.00     0.290 C 
HETATM   17  O   UNL     1       9.119  -2.298  22.386  1.00  0.00    -0.259 OA
HETATM   18  N   UNL     1       9.514  -2.114  24.615  1.00  0.00    -0.315 N 
ATOM     19  HN  UNL     1       9.324  -2.535  25.524  1.00  0.00     0.170 HD
BRANCH  18  20
HETATM   20  C   UNL     1      10.233  -1.095  24.501  1.00  0.00     0.060 A 
HETATM   21  C   UNL     1      11.426  -0.759  24.133  1.00  0.00     0.117 A 
HETATM   22  N   UNL     1      12.379   0.012  23.882  1.00  0.00    -0.373 N 
HETATM   23  C   UNL     1      11.689   1.038  24.140  1.00  0.00     0.088 A 
ATOM     24  HN  UNL     1      13.344  -0.132  23.583  1.00  0.00     0.164 HD
HETATM   25  C   UNL     1      10.517   1.242  24.557  1.00  0.00     0.030 A 
HETATM   26  C   UNL     1       9.571   0.344  24.820  1.00  0.00    -0.016 A 
HETATM   27  C   UNL     1       8.591   0.450  25.166  1.00  0.00     0.026 C 
ENDBRANCH  18  20
ENDBRANCH  15  16
ENDBRANCH   1  15
TORSDOF 7
ENDMDL
MODEL 4
REMARK VINA RESULT:    -6.679      1.586      1.812
REMARK INTER + INTRA:         -10.446
REMARK INTER:                  -9.752
REMARK INTRA:                  -0.694
REMARK UNBOUND:                -1.034
REMARK  7 active torsions:
REMARK  status: ('A' for Active; 'I' for Inactive)
REMARK    1  A    between atoms: S_2  and  N_5 
REMARK    2  A    between atoms: N_5  and  C_7 
REMARK    3  A    between atoms: C_7  and  C_8 
REMARK    4  A    between atoms: C_8  and  C_9 
REMARK    5  A    between atoms: C_9  and  C_15 
REMARK    6  A    between atoms: C_15  and  C_16 
REMARK       I    between atoms: C_16  and  N_18 
REMARK    7  A    between atoms: N_18  and  C_20 
ROOT
HETATM    1  C   UNL     1       9.803  -1.220  23.544  1.00  0.00     0.068 C 
HETATM    2  C   UNL     1      10.180  -0.095  24.652  1.00  0.00     0.000 C 
HETATM    3  C   UNL     1      11.189   0.379  24.838  1.00  0.00    -0.002 C 
HETATM    4  C   UNL     1      12.334   0.052  24.232  1.00  0.00    -0.001 C 
HETATM    5  C   UNL     1      12.243  -1.011  23.375  1.00  0.00    -0.002 C 
HETATM    6  C   UNL     1      11.329  -1.621  23.089  1.00  0.00     0.000 C 
ENDROOT
BRANCH   1   7
HETATM    7  C   UNL     1       8.912  -2.200  23.648  1.00  0.00     0.135 C 
BRANCH   7   8
HETATM    8  C   UNL     1       8.570  -3.345  23.738  1.00  0.00    -0.058 C 
BRANCH   8   9
HETATM    9  N   UNL     1       8.058  -4.347  24.116  1.00  0.00    -0.254 N 
ATOM     10  HN  UNL     1       8.146  -5.147  23.490  1.00  0.00     0.188 HD
BRANCH   9  11
HETATM   11  S   UNL     1       7.226  -4.626  25.504  1.00  0.00     0.233 S 
HETATM   12  C   UNL     1       8.296  -5.049  26.574  1.00  0.00     0.186 C 
HETATM   13  O   UNL     1       6.599  -3.373  25.902  1.00  0.00    -0.206 OA
HETATM   14  O   UNL     1       6.248  -5.661  25.342  1.00  0.00    -0.206 OA
ENDBRANCH   9  11
ENDBRANCH   8   9
ENDBRANCH   7   8
ENDBRANCH   1   7
BRANCH   1  15
HETATM   15  C   UNL     1       9.235  -0.771  22.582  1.00  0.00    -0.064 C 
BRANCH  15  16
HETATM   16  C   UNL     1       8.692  -0.251  21.445  1.00  0.00     0.290 C 
HETATM   17  O   UNL     1       9.399   0.384  20.783  1.00  0.00    -0.259 OA
HETATM   18  N   UNL     1       7.409  -0.571  21.321  1.00  0.00    -0.315 N 
ATOM     19  HN  UNL     1       6.930  -1.143  22.016  1.00  0.00     0.170 HD
BRANCH  18  20
HETATM   20  C   UNL     1       6.818  -0.136  20.307  1.00  0.00     0.060 A 
HETATM   21  C   UNL     1       6.560  -0.476  19.087  1.00  0.00     0.117 A 
HETATM   22  N   UNL     1       6.067  -0.369  17.941  1.00  0.00    -0.373 N 
HETATM   23  C   UNL     1       5.477   0.708  18.236  1.00  0.00     0.088 A 
ATOM     24  HN  UNL     1       6.121  -0.934  17.094  1.00  0.00     0.164 HD
HETATM   25  C   UNL     1       5.433   1.451  19.253  1.00  0.00     0.030 A 
HETATM   26  C   UNL     1       6.016   1.262  20.434  1.00  0.00    -0.016 A 
HETATM   27  C   UNL     1       6.019   1.836  21.306  1.00  0.00     0.026 C 
ENDBRANCH  18  20
ENDBRANCH  15  16
ENDBRANCH   1  15
TORSDOF 7
ENDMDL
MODEL 5
REMARK VINA RESULT:    -6.381      1.756      5.459
REMARK INTER + INTRA:         -10.026
REMARK INTER:                  -9.328
REMARK INTRA:                  -0.698
REMARK UNBOUND:                -1.034
REMARK  7 active torsions:
REMARK  status: ('A' for Active; 'I' for Inactive)
REMARK    1  A    between atoms: S_2  and  N_5 
REMARK    2  A    between atoms: N_5  and  C_7 
REMARK    3  A    between atoms: C_7  and  C_8 
REMARK    4  A    between atoms: C_8  and  C_9 
REMARK    5  A    between atoms: C_9  and  C_15 
REMARK    6  A    between atoms: C_15  and  C_16 
REMARK       I    between atoms: C_16  and  N_18 
REMARK    7  A    between atoms: N_18  and  C_20 
ROOT
HETATM    1  C   UNL     1       6.911  -0.516  21.258  1.00  0.00     0.068 C 
HETATM    2  C   UNL     1       6.615  -0.767  19.682  1.00  0.00     0.000 C 
HETATM    3  C   UNL     1       6.313  -0.001  18.906  1.00  0.00    -0.002 C 
HETATM    4  C   UNL     1       6.048   1.288  19.137  1.00  0.00    -0.001 C 
HETATM    5  C   UNL     1       6.079   1.650  20.456  1.00  0.00    -0.002 C 
HETATM    6  C   UNL     1       6.330   1.017  21.364  1.00  0.00     0.000 C 
ENDROOT
BRANCH   1   7
HETATM    7  C   UNL     1       6.670  -1.339  22.273  1.00  0.00     0.135 C 
BRANCH   7   8
HETATM    8  C   UNL     1       6.465  -2.409  22.771  1.00  0.00    -0.058 C 
BRANCH   8   9
HETATM    9  N   UNL     1       6.368  -3.581  22.938  1.00  0.00    -0.254 N 
ATOM     10  HN  UNL     1       6.624  -3.914  23.867  1.00  0.00     0.188 HD
BRANCH   9  11
HETATM   11  S   UNL     1       5.879  -4.740  21.882  1.00  0.00     0.233 S 
HETATM   12  C   UNL     1       7.036  -5.801  21.835  1.00  0.00     0.186 C 
HETATM   13  O   UNL     1       4.672  -5.350  22.425  1.00  0.00    -0.206 OA
HETATM   14  O   UNL     1       5.641  -4.205  20.574  1.00  0.00    -0.206 OA
ENDBRANCH   9  11
ENDBRANCH   8   9
ENDBRANCH   7   8
ENDBRANCH   1   7
BRANCH   1  15
HETATM   15  C   UNL     1       8.084  -0.488  21.526  1.00  0.00    -0.064 C 
BRANCH  15  16
HETATM   16  C   UNL     1       9.403  -0.346  21.838  1.00  0.00     0.290 C 
HETATM   17  O   UNL     1      10.016   0.367  21.162  1.00  0.00    -0.259 OA
HETATM   18  N   UNL     1       9.745  -1.089  22.883  1.00  0.00    -0.315 N 
ATOM     19  HN  UNL     1       9.066  -1.679  23.366  1.00  0.00     0.170 HD
BRANCH  18  20
HETATM   20  C   UNL     1      10.941  -1.030  23.248  1.00  0.00     0.060 A 
HETATM   21  C   UNL     1      12.090  -1.549  22.966  1.00  0.00     0.117 A 
HETATM   22  N   UNL     1      13.327  -1.724  23.051  1.00  0.00    -0.373 N 
HETATM   23  C   UNL     1      13.451  -0.813  23.917  1.00  0.00     0.088 A 
ATOM     24  HN  UNL     1      13.983  -2.358  22.596  1.00  0.00     0.164 HD
HETATM   25  C   UNL     1      12.656  -0.052  24.532  1.00  0.00     0.030 A 
HETATM   26  C   UNL     1      11.337   0.047  24.387  1.00  0.00    -0.016 A 
HETATM   27  C   UNL     1      10.630   0.650  24.863  1.00  0.00     0.026 C 
ENDBRANCH  18  20
ENDBRANCH  15  16
ENDBRANCH   1  15
TORSDOF 7
ENDMDL
MODEL 6
REMARK VINA RESULT:    -6.360      2.885      5.837
REMARK INTER + INTRA:          -9.996
REMARK INTER:                  -9.124
REMARK INTRA:                  -0.872
REMARK UNBOUND:                -1.034
REMARK  7 active torsions:
REMARK  status: ('A' for Active; 'I' for Inactive)
REMARK    1  A    between atoms: S_2  and  N_5 
REMARK    2  A    between atoms: N_5  and  C_7 
REMARK    3  A    between atoms: C_7  and  C_8 
REMARK    4  A    between atoms: C_8  and  C_9 
REMARK    5  A    between atoms: C_9  and  C_15 
REMARK    6  A    between atoms: C_15  and  C_16 
REMARK       I    between atoms: C_16  and  N_18 
REMARK    7  A    between atoms: N_18  and  C_20 
ROOT
HETATM    1  C   UNL     1       9.157   0.729  22.077  1.00  0.00     0.068 C 
HETATM    2  C   UNL     1      10.566   1.534  22.098  1.00  0.00     0.000 C 
HETATM    3  C   UNL     1      10.837   2.435  22.726  1.00  0.00    -0.002 C 
HETATM    4  C   UNL     1      10.014   3.098  23.543  1.00  0.00    -0.001 C 
HETATM    5  C   UNL     1       8.718   2.662  23.526  1.00  0.00    -0.002 C 
HETATM    6  C   UNL     1       8.262   1.801  22.942  1.00  0.00     0.000 C 
ENDROOT
BRANCH   1   7
HETATM    7  C   UNL     1       8.575   0.132  21.042  1.00  0.00     0.135 C 
BRANCH   7   8
HETATM    8  C   UNL     1       7.898   0.099  20.054  1.00  0.00    -0.058 C 
BRANCH   8   9
HETATM    9  N   UNL     1       7.543   0.154  18.923  1.00  0.00    -0.254 N 
ATOM     10  HN  UNL     1       8.277   0.029  18.226  1.00  0.00     0.188 HD
BRANCH   9  11
HETATM   11  S   UNL     1       6.036   0.405  18.320  1.00  0.00     0.233 S 
HETATM   12  C   UNL     1       5.122   0.728  19.556  1.00  0.00     0.186 C 
HETATM   13  O   UNL     1       6.100   1.562  17.438  1.00  0.00    -0.206 OA
HETATM   14  O   UNL     1       5.542  -0.746  17.623  1.00  0.00    -0.206 OA
ENDBRANCH   9  11
ENDBRANCH   8   9
ENDBRANCH   7   8
ENDBRANCH   1   7
BRANCH   1  15
HETATM   15  C   UNL     1       9.189  -0.307  22.689  1.00  0.00    -0.064 C 
BRANCH  15  16
HETATM   16  C   UNL     1       9.329  -1.496  23.340  1.00  0.00     0.290 C 
HETATM   17  O   UNL     1      10.355  -2.023  23.232  1.00  0.00    -0.259 OA
HETATM   18  N   UNL     1       8.219  -1.839  23.982  1.00  0.00    -0.315 N 
ATOM     19  HN  UNL     1       7.386  -1.251  23.964  1.00  0.00     0.170 HD
BRANCH  18  20
HETATM   20  C   UNL     1       8.246  -2.921  24.611  1.00  0.00     0.060 A 
HETATM   21  C   UNL     1       8.532  -3.379  25.785  1.00  0.00     0.117 A 
HETATM   22  N   UNL     1       8.653  -4.237  26.689  1.00  0.00    -0.373 N 
HETATM   23  C   UNL     1       8.177  -5.152  25.960  1.00  0.00     0.088 A 
ATOM     24  HN  UNL     1       9.002  -4.209  27.647  1.00  0.00     0.164 HD
HETATM   25  C   UNL     1       7.788  -5.227  24.763  1.00  0.00     0.030 A 
HETATM   26  C   UNL     1       7.716  -4.252  23.860  1.00  0.00    -0.016 A 
HETATM   27  C   UNL     1       7.406  -4.251  22.863  1.00  0.00     0.026 C 
ENDBRANCH  18  20
ENDBRANCH  15  16
ENDBRANCH   1  15
TORSDOF 7
ENDMDL
MODEL 7
REMARK VINA RESULT:    -6.165     14.804     16.060
REMARK INTER + INTRA:          -9.721
REMARK INTER:                  -8.819
REMARK INTRA:                  -0.902
REMARK UNBOUND:                -1.034
REMARK  7 active torsions:
REMARK  status: ('A' for Active; 'I' for Inactive)
REMARK    1  A    between atoms: S_2  and  N_5 
REMARK    2  A    between atoms: N_5  and  C_7 
REMARK    3  A    between atoms: C_7  and  C_8 
REMARK    4  A    between atoms: C_8  and  C_9 
REMARK    5  A    between atoms: C_9  and  C_15 
REMARK    6  A    between atoms: C_15  and  C_16 
REMARK       I    between atoms: C_16  and  N_18 
REMARK    7  A    between atoms: N_18  and  C_20 
ROOT
HETATM    1  C   UNL     1      23.292  -1.569  23.762  1.00  0.00     0.068 C 
HETATM    2  C   UNL     1      21.954  -1.214  24.610  1.00  0.00     0.000 C 
HETATM    3  C   UNL     1      21.670  -0.218  25.065  1.00  0.00    -0.002 C 
HETATM    4  C   UNL     1      22.425   0.884  25.076  1.00  0.00    -0.001 C 
HETATM    5  C   UNL     1      23.677   0.724  24.550  1.00  0.00    -0.002 C 
HETATM    6  C   UNL     1      24.141  -0.200  24.080  1.00  0.00     0.000 C 
ENDROOT
BRANCH   1   7
HETATM    7  C   UNL     1      23.959  -2.717  23.737  1.00  0.00     0.135 C 
BRANCH   7   8
HETATM    8  C   UNL     1      24.055  -3.912  23.728  1.00  0.00    -0.058 C 
BRANCH   8   9
HETATM    9  N   UNL     1      24.127  -5.045  24.076  1.00  0.00    -0.254 N 
ATOM     10  HN  UNL     1      24.246  -5.727  23.327  1.00  0.00     0.188 HD
BRANCH   9  11
HETATM   11  S   UNL     1      24.063  -5.668  25.594  1.00  0.00     0.233 S 
HETATM   12  C   UNL     1      25.400  -5.241  26.297  1.00  0.00     0.186 C 
HETATM   13  O   UNL     1      22.929  -5.055  26.274  1.00  0.00    -0.206 OA
HETATM   14  O   UNL     1      23.941  -7.097  25.580  1.00  0.00    -0.206 OA
ENDBRANCH   9  11
ENDBRANCH   8   9
ENDBRANCH   7   8
ENDBRANCH   1   7
BRANCH   1  15
HETATM   15  C   UNL     1      23.104  -1.623  22.574  1.00  0.00    -0.064 C 
BRANCH  15  16
HETATM   16  C   UNL     1      22.791  -1.641  21.248  1.00  0.00     0.290 C 
HETATM   17  O   UNL     1      21.681  -1.848  20.987  1.00  0.00    -0.259 OA
HETATM   18  N   UNL     1      23.856  -1.427  20.487  1.00  0.00    -0.315 N 
ATOM     19  HN  UNL     1      24.780  -1.269  20.890  1.00  0.00     0.170 HD
BRANCH  18  20
HETATM   20  C   UNL     1      23.672  -1.428  19.249  1.00  0.00     0.060 A 
HETATM   21  C   UNL     1      23.204  -0.666  18.315  1.00  0.00     0.117 A 
HETATM   22  N   UNL     1      22.906  -0.325  17.148  1.00  0.00    -0.373 N 
HETATM   23  C   UNL     1      23.406  -1.375  16.655  1.00  0.00     0.088 A 
ATOM     24  HN  UNL     1      22.439   0.489  16.748  1.00  0.00     0.164 HD
HETATM   25  C   UNL     1      23.940  -2.414  17.127  1.00  0.00     0.030 A 
HETATM   26  C   UNL     1      24.198  -2.700  18.401  1.00  0.00    -0.016 A 
HETATM   27  C   UNL     1      24.632  -3.536  18.851  1.00  0.00     0.026 C 
ENDBRANCH  18  20
ENDBRANCH  15  16
ENDBRANCH   1  15
TORSDOF 7
ENDMDL
MODEL 8
REMARK VINA RESULT:    -6.090     22.430     25.706
REMARK INTER + INTRA:          -9.616
REMARK INTER:                  -8.425
REMARK INTRA:                  -1.191
REMARK UNBOUND:                -1.034
REMARK  7 active torsions:
REMARK  status: ('A' for Active; 'I' for Inactive)
REMARK    1  A    between atoms: S_2  and  N_5 
REMARK    2  A    between atoms: N_5  and  C_7 
REMARK    3  A    between atoms: C_7  and  C_8 
REMARK    4  A    between atoms: C_8  and  C_9 
REMARK    5  A    between atoms: C_9  and  C_15 
REMARK    6  A    between atoms: C_15  and  C_16 
REMARK       I    between atoms: C_16  and  N_18 
REMARK    7  A    between atoms: N_18  and  C_20 
ROOT
HETATM    1  C   UNL     1       8.899  17.978   2.205  1.00  0.00     0.068 C 
HETATM    2  C   UNL     1       7.458  18.724   2.190  1.00  0.00     0.000 C 
HETATM    3  C   UNL     1       6.968  19.261   1.324  1.00  0.00    -0.002 C 
HETATM    4  C   UNL     1       7.515  19.476   0.124  1.00  0.00    -0.001 C 
HETATM    5  C   UNL     1       8.813  19.062   0.004  1.00  0.00    -0.002 C 
HETATM    6  C   UNL     1       9.468  18.536   0.769  1.00  0.00     0.000 C 
ENDROOT
BRANCH   1   7
HETATM    7  C   UNL     1       9.758  17.886   3.215  1.00  0.00     0.135 C 
BRANCH   7   8
HETATM    8  C   UNL     1      10.084  17.609   4.335  1.00  0.00    -0.058 C 
BRANCH   8   9
HETATM    9  N   UNL     1      10.049  17.345   5.492  1.00  0.00    -0.254 N 
ATOM     10  HN  UNL     1      10.112  18.141   6.125  1.00  0.00     0.188 HD
BRANCH   9  11
HETATM   11  S   UNL     1       9.914  15.876   6.215  1.00  0.00     0.233 S 
HETATM   12  C   UNL     1      10.380  16.079   7.701  1.00  0.00     0.186 C 
HETATM   13  O   UNL     1       8.508  15.498   6.185  1.00  0.00    -0.206 OA
HETATM   14  O   UNL     1      10.726  14.886   5.569  1.00  0.00    -0.206 OA
ENDBRANCH   9  11
ENDBRANCH   8   9
ENDBRANCH   7   8
ENDBRANCH   1   7
BRANCH   1  15
HETATM   15  C   UNL     1       8.818  16.779   2.132  1.00  0.00    -0.064 C 
BRANCH  15  16
HETATM   16  C   UNL     1       8.647  15.427   2.128  1.00  0.00     0.290 C 
HETATM   17  O   UNL     1       9.104  14.855   1.230  1.00  0.00    -0.259 OA
HETATM   18  N   UNL     1       7.955  15.015   3.183  1.00  0.00    -0.315 N 
ATOM     19  HN  UNL     1       7.613  15.669   3.888  1.00  0.00     0.170 HD
BRANCH  18  20
HETATM   20  C   UNL     1       7.741  13.785   3.269  1.00  0.00     0.060 A 
HETATM   21  C   UNL     1       8.384  12.676   3.440  1.00  0.00     0.117 A 
HETATM   22  N   UNL     1       8.532  11.442   3.588  1.00  0.00    -0.373 N 
HETATM   23  C   UNL     1       7.286  11.236   3.579  1.00  0.00     0.088 A 
ATOM     24  HN  UNL     1       9.347  10.835   3.682  1.00  0.00     0.164 HD
HETATM   25  C   UNL     1       6.265  11.955   3.416  1.00  0.00     0.030 A 
HETATM   26  C   UNL     1       6.208  13.274   3.240  1.00  0.00    -0.016 A 
HETATM   27  C   UNL     1       5.401  13.921   3.099  1.00  0.00     0.026 C 
ENDBRANCH  18  20
ENDBRANCH  15  16
ENDBRANCH   1  15
TORSDOF 7
ENDMDL
MODEL 9
REMARK VINA RESULT:    -6.041      3.708      6.440
REMARK INTER + INTRA:          -9.547
REMARK INTER:                  -8.642
REMARK INTRA:                  -0.905
REMARK UNBOUND:                -1.034
REMARK  7 active torsions:
REMARK  status: ('A' for Active; 'I' for Inactive)
REMARK    1  A    between atoms: S_2  and  N_5 
REMARK    2  A    between atoms: N_5  and  C_7 
REMARK    3  A    between atoms: C_7  and  C_8 
REMARK    4  A    between atoms: C_8  and  C_9 
REMARK    5  A    between atoms: C_9  and  C_15 
REMARK    6  A    between atoms: C_15  and  C_16 
REMARK       I    between atoms: C_16  and  N_18 
REMARK    7  A    between atoms: N_18  and  C_20 
ROOT
HETATM    1  C   UNL     1      10.229  -0.763  23.647  1.00  0.00     0.068 C 
HETATM    2  C   UNL     1      11.395  -1.571  22.858  1.00  0.00     0.000 C 
HETATM    3  C   UNL     1      12.508  -1.540  23.051  1.00  0.00    -0.002 C 
HETATM    4  C   UNL     1      13.130  -0.754  23.935  1.00  0.00    -0.001 C 
HETATM    5  C   UNL     1      12.314   0.133  24.583  1.00  0.00    -0.002 C 
HETATM    6  C   UNL     1      11.189   0.264  24.496  1.00  0.00     0.000 C 
ENDROOT
BRANCH   1   7
HETATM    7  C   UNL     1       9.094  -0.281  23.153  1.00  0.00     0.135 C 
BRANCH   7   8
HETATM    8  C   UNL     1       8.162   0.471  23.122  1.00  0.00    -0.058 C 
BRANCH   8   9
HETATM    9  N   UNL     1       7.392   1.332  23.398  1.00  0.00    -0.254 N 
ATOM     10  HN  UNL     1       6.410   1.057  23.404  1.00  0.00     0.188 HD
BRANCH   9  11
HETATM   11  S   UNL     1       7.686   2.904  23.772  1.00  0.00     0.233 S 
HETATM   12  C   UNL     1       6.310   3.506  24.233  1.00  0.00     0.186 C 
HETATM   13  O   UNL     1       8.631   2.925  24.880  1.00  0.00    -0.206 OA
HETATM   14  O   UNL     1       8.196   3.634  22.648  1.00  0.00    -0.206 OA
ENDBRANCH   9  11
ENDBRANCH   8   9
ENDBRANCH   7   8
ENDBRANCH   1   7
BRANCH   1  15
HETATM   15  C   UNL     1       9.626  -1.444  24.436  1.00  0.00    -0.064 C 
BRANCH  15  16
HETATM   16  C   UNL     1       8.945  -2.297  25.252  1.00  0.00     0.290 C 
HETATM   17  O   UNL     1       8.760  -1.932  26.336  1.00  0.00    -0.259 OA
HETATM   18  N   UNL     1       8.629  -3.427  24.631  1.00  0.00    -0.315 N 
ATOM     19  HN  UNL     1       8.883  -3.592  23.656  1.00  0.00     0.170 HD
BRANCH  18  20
HETATM   20  C   UNL     1       8.003  -4.280  25.300  1.00  0.00     0.060 A 
HETATM   21  C   UNL     1       8.180  -5.085  26.295  1.00  0.00     0.117 A 
HETATM   22  N   UNL     1       7.869  -5.943  27.152  1.00  0.00    -0.373 N 
HETATM   23  C   UNL     1       6.663  -5.961  26.776  1.00  0.00     0.088 A 
ATOM     24  HN  UNL     1       8.389  -6.437  27.877  1.00  0.00     0.164 HD
HETATM   25  C   UNL     1       6.008  -5.402  25.856  1.00  0.00     0.030 A 
HETATM   26  C   UNL     1       6.437  -4.509  24.967  1.00  0.00    -0.016 A 
HETATM   27  C   UNL     1       5.948  -4.016  24.188  1.00  0.00     0.026 C 
ENDBRANCH  18  20
ENDBRANCH  15  16
ENDBRANCH   1  15
TORSDOF 7
ENDMDL
