stable:False satoms:5 tatoms:24 sratio:0.20833333333333334
  -OEChem-07092417473D

 24 25  0     1  0  0  0  0  0999 V2000
    6.7031   -4.7895   26.4536 C   0  0  0  0  0  0  0  0  0  0  0  0
    8.1714   -4.3272   26.1431 S   0  0  0  0  0  0  0  0  0  0  0  0
    9.0459   -5.4880   26.0486 O   0  0  0  0  0  0  0  0  0  0  0  0
    8.6312   -3.4181   27.1519 O   0  0  0  0  0  0  0  0  0  0  0  0
    8.1215   -3.6207   24.6613 N   0  0  0  0  0  0  0  0  0  0  0  0
    8.9120   -2.8986   24.1479 C   0  0  0  0  0  0  0  0  0  0  0  0
    9.4048   -1.9889   23.5440 C   0  0  0  0  0  0  0  0  0  0  0  0
   10.3705   -1.1204   23.2632 C   0  0  1  0  0  0  0  0  0  0  0  0
   11.0618   -0.0436   24.2620 C   0  0  0  0  0  0  0  0  0  0  0  0
   12.1357    0.3090   24.2581 C   0  0  0  0  0  0  0  0  0  0  0  0
   13.1115   -0.1506   23.4687 C   0  0  0  0  0  0  0  0  0  0  0  0
   12.7498   -1.1978   22.6663 C   0  0  0  0  0  0  0  0  0  0  0  0
   11.7365   -1.6984   22.5584 C   0  0  0  0  0  0  0  0  0  0  0  0
    9.6959   -0.6108   22.4055 C   0  0  0  0  0  0  0  0  0  0  0  0
    9.0271    0.0111   21.3936 C   0  0  0  0  0  0  0  0  0  0  0  0
    9.5309    0.9549   20.9501 O   0  0  0  0  0  0  0  0  0  0  0  0
    7.8806   -0.5972   21.1141 N   0  0  0  0  0  0  0  0  0  0  0  0
    7.1891   -0.0984   20.1985 C   0  0  0  0  0  0  0  0  0  0  0  0
    7.1839    0.0204   18.9112 C   0  0  0  0  0  0  0  0  0  0  0  0
    6.7485    0.3583   17.7874 N   0  0  0  0  0  0  0  0  0  0  0  0
    5.6843    0.8274   18.2801 C   0  0  0  0  0  0  0  0  0  0  0  0
    5.2333    0.9780   19.4465 C   0  0  0  0  0  0  0  0  0  0  0  0
    5.7873    0.6007   20.5966 C   0  0  0  0  0  0  0  0  0  0  0  0
    5.4673    0.6982   21.5860 C   0  0  0  0  0  0  0  0  0  0  0  0
 20 21  2  0  0  0  0
 19 20  1  0  0  0  0
 21 22  1  0  0  0  0
 18 19  2  0  0  0  0
 22 23  2  0  0  0  0
 18 23  1  0  0  0  0
 17 18  1  0  0  0  0
 23 24  1  0  0  0  0
 15 16  2  0  0  0  0
 15 17  1  0  0  0  0
 14 15  1  0  0  0  0
  8 14  1  0  0  0  0
 12 13  1  0  0  0  0
  8 13  1  0  0  0  0
 11 12  2  0  0  0  0
  7  8  1  0  0  0  0
  8  9  1  0  0  0  0
 10 11  1  0  0  0  0
  6  7  2  0  0  0  0
  5  6  1  0  0  0  0
  9 10  2  0  0  0  0
  2  5  1  0  0  0  0
  2  3  2  0  0  0  0
  1  2  1  0  0  0  0
  2  4  2  0  0  0  0
M  END
> <Shapegauss>
-288.799683

$$$$
