MODEL 1
REMARK VINA RESULT:    -5.246      0.000      0.000
REMARK INTER + INTRA:          -7.507
REMARK INTER:                  -7.239
REMARK INTRA:                  -0.268
REMARK UNBOUND:                -0.268
REMARK  8 active torsions:
REMARK  status: ('A' for Active; 'I' for Inactive)
REMARK    1  A    between atoms: O_1  and  C_6 
REMARK    2  A    between atoms: N_3  and  C_10 
REMARK    3  A    between atoms: N_3  and  C_11 
REMARK    4  A    between atoms: C_6  and  O_7 
REMARK    5  A    between atoms: C_9  and  N_19 
REMARK    6  A    between atoms: C_10  and  C_21 
REMARK    7  A    between atoms: C_14  and  N_18 
REMARK    8  A    between atoms: C_14  and  N_15 
ROOT
HETATM    1  C   UNL     1       9.159  14.983   1.815  1.00  0.00     0.136 C 
HETATM    2  C   UNL     1       9.805  14.494   3.001  1.00  0.00     0.045 C 
ENDROOT
BRANCH   2   3
HETATM    3  N   UNL     1       9.715  13.223   3.233  1.00  0.00    -0.348 N 
ATOM      4  HN  UNL     1      10.474  12.556   3.095  1.00  0.00     0.166 HD
BRANCH   3   5
HETATM    5  C   UNL     1       8.467  12.893   3.686  1.00  0.00     0.127 A 
HETATM    6  S   UNL     1       6.972  13.247   4.078  1.00  0.00    -0.035 SA
HETATM    7  C   UNL     1       7.868  11.763   3.731  1.00  0.00     0.270 A 
BRANCH   7   8
HETATM    8  O   UNL     1       7.237  11.033   2.816  1.00  0.00    -0.351 OA
ATOM      9  HO  UNL     1       7.147  11.516   2.004  1.00  0.00     0.214 HD
ENDBRANCH   7   8
BRANCH   7  10
HETATM   10  O   UNL     1       8.593  10.907   4.534  1.00  0.00    -0.351 OA
ATOM     11  HO  UNL     1       9.497  11.197   4.531  1.00  0.00     0.214 HD
ENDBRANCH   7  10
ENDBRANCH   3   5
ENDBRANCH   2   3
BRANCH   2  12
HETATM   12  C   UNL     1      10.429  15.182   4.124  1.00  0.00    -0.000 C 
HETATM   13  C   UNL     1      10.337  15.648   5.595  1.00  0.00     0.038 C 
ENDBRANCH   2  12
BRANCH   1  14
HETATM   14  N   UNL     1       9.428  15.844   0.819  1.00  0.00    -0.313 N 
HETATM   15  N   UNL     1       9.315  17.039   1.265  1.00  0.00    -0.319 N 
HETATM   16  H   UNL     1       9.378  17.237   2.266  1.00  0.00     0.182 HD
ATOM     17  HN  UNL     1       9.681  15.588  -0.136  1.00  0.00     0.185 HD
BRANCH  15  18
HETATM   18  C   UNL     1       9.155  18.067   0.290  1.00  0.00     0.253 C 
BRANCH  18  19
HETATM   19  N   UNL     1       9.657  19.460   0.377  1.00  0.00    -0.414 N 
HETATM   20  H   UNL     1       9.502  20.026  -0.427  1.00  0.00     0.151 HD
HETATM   21  H   UNL     1      10.560  19.538   0.805  1.00  0.00     0.151 HD
ENDBRANCH  18  19
ENDBRANCH  15  18
ENDBRANCH   1  14
TORSDOF 8
ENDMDL
MODEL 2
REMARK VINA RESULT:    -5.226      3.163      5.137
REMARK INTER + INTRA:          -7.480
REMARK INTER:                  -7.188
REMARK INTRA:                  -0.292
REMARK UNBOUND:                -0.268
REMARK  8 active torsions:
REMARK  status: ('A' for Active; 'I' for Inactive)
REMARK    1  A    between atoms: O_1  and  C_6 
REMARK    2  A    between atoms: N_3  and  C_10 
REMARK    3  A    between atoms: N_3  and  C_11 
REMARK    4  A    between atoms: C_6  and  O_7 
REMARK    5  A    between atoms: C_9  and  N_19 
REMARK    6  A    between atoms: C_10  and  C_21 
REMARK    7  A    between atoms: C_14  and  N_18 
REMARK    8  A    between atoms: C_14  and  N_15 
ROOT
HETATM    1  C   UNL     1       8.134  13.870   2.053  1.00  0.00     0.136 C 
HETATM    2  C   UNL     1       8.973  15.015   1.833  1.00  0.00     0.045 C 
ENDROOT
BRANCH   2   3
HETATM    3  N   UNL     1      10.161  14.976   2.350  1.00  0.00    -0.348 N 
ATOM      4  HN  UNL     1      11.005  14.723   1.837  1.00  0.00     0.166 HD
BRANCH   3   5
HETATM    5  C   UNL     1      10.132  15.319   3.674  1.00  0.00     0.127 A 
HETATM    6  S   UNL     1       9.376  15.709   5.012  1.00  0.00    -0.035 SA
HETATM    7  C   UNL     1      11.001  15.149   4.598  1.00  0.00     0.270 A 
BRANCH   7   8
HETATM    8  O   UNL     1      11.342  14.100   5.340  1.00  0.00    -0.351 OA
ATOM      9  HO  UNL     1      12.171  14.252   5.777  1.00  0.00     0.214 HD
ENDBRANCH   7   8
BRANCH   7  10
HETATM   10  O   UNL     1      12.155  15.822   4.253  1.00  0.00    -0.351 OA
ATOM     11  HO  UNL     1      12.842  15.179   4.126  1.00  0.00     0.214 HD
ENDBRANCH   7  10
ENDBRANCH   3   5
ENDBRANCH   2   3
BRANCH   2  12
HETATM   12  C   UNL     1       8.699  16.329   1.264  1.00  0.00    -0.000 C 
HETATM   13  C   UNL     1       7.872  17.633   1.308  1.00  0.00     0.038 C 
ENDBRANCH   2  12
BRANCH   1  14
HETATM   14  N   UNL     1       7.281  13.112   1.344  1.00  0.00    -0.313 N 
HETATM   15  N   UNL     1       7.155  11.979   1.927  1.00  0.00    -0.319 N 
HETATM   16  H   UNL     1       7.381  11.867   2.918  1.00  0.00     0.182 HD
ATOM     17  HN  UNL     1       6.811  13.392   0.483  1.00  0.00     0.185 HD
BRANCH  15  18
HETATM   18  C   UNL     1       6.635  10.912   1.135  1.00  0.00     0.253 C 
BRANCH  18  19
HETATM   19  N   UNL     1       5.367  10.176   1.359  1.00  0.00    -0.414 N 
HETATM   20  H   UNL     1       5.307   9.671   2.214  1.00  0.00     0.151 HD
HETATM   21  H   UNL     1       5.023   9.707   0.543  1.00  0.00     0.151 HD
ENDBRANCH  18  19
ENDBRANCH  15  18
ENDBRANCH   1  14
TORSDOF 8
ENDMDL
MODEL 3
REMARK VINA RESULT:    -5.025     24.162     26.327
REMARK INTER + INTRA:          -7.202
REMARK INTER:                  -6.832
REMARK INTRA:                  -0.370
REMARK UNBOUND:                -0.268
REMARK  8 active torsions:
REMARK  status: ('A' for Active; 'I' for Inactive)
REMARK    1  A    between atoms: O_1  and  C_6 
REMARK    2  A    between atoms: N_3  and  C_10 
REMARK    3  A    between atoms: N_3  and  C_11 
REMARK    4  A    between atoms: C_6  and  O_7 
REMARK    5  A    between atoms: C_9  and  N_19 
REMARK    6  A    between atoms: C_10  and  C_21 
REMARK    7  A    between atoms: C_14  and  N_18 
REMARK    8  A    between atoms: C_14  and  N_15 
ROOT
HETATM    1  C   UNL     1       6.567  -2.273  21.863  1.00  0.00     0.136 C 
HETATM    2  C   UNL     1       7.670  -2.965  22.469  1.00  0.00     0.045 C 
ENDROOT
BRANCH   2   3
HETATM    3  N   UNL     1       7.766  -4.234  22.228  1.00  0.00    -0.348 N 
ATOM      4  HN  UNL     1       8.406  -4.646  21.548  1.00  0.00     0.166 HD
BRANCH   3   5
HETATM    5  C   UNL     1       6.896  -4.950  23.004  1.00  0.00     0.127 A 
HETATM    6  S   UNL     1       6.067  -5.191  24.333  1.00  0.00    -0.035 SA
HETATM    7  C   UNL     1       6.019  -5.825  22.683  1.00  0.00     0.270 A 
BRANCH   7   8
HETATM    8  O   UNL     1       4.792  -5.737  22.179  1.00  0.00    -0.351 OA
ATOM      9  HO  UNL     1       4.738  -5.032  21.545  1.00  0.00     0.214 HD
ENDBRANCH   7   8
BRANCH   7  10
HETATM   10  O   UNL     1       6.654  -6.890  22.079  1.00  0.00    -0.351 OA
ATOM     11  HO  UNL     1       6.600  -7.635  22.666  1.00  0.00     0.214 HD
ENDBRANCH   7  10
ENDBRANCH   3   5
ENDBRANCH   2   3
BRANCH   2  12
HETATM   12  C   UNL     1       8.649  -2.552  23.467  1.00  0.00    -0.000 C 
HETATM   13  C   UNL     1       8.938  -2.102  24.916  1.00  0.00     0.038 C 
ENDBRANCH   2  12
BRANCH   1  14
HETATM   14  N   UNL     1       6.350  -1.107  21.233  1.00  0.00    -0.313 N 
HETATM   15  N   UNL     1       5.590  -1.317  20.225  1.00  0.00    -0.319 N 
HETATM   16  H   UNL     1       4.996  -2.149  20.176  1.00  0.00     0.182 HD
ATOM     17  HN  UNL     1       6.728  -0.201  21.512  1.00  0.00     0.185 HD
BRANCH  15  18
HETATM   18  C   UNL     1       5.581  -0.310  19.215  1.00  0.00     0.253 C 
BRANCH  18  19
HETATM   19  N   UNL     1       5.629  -0.524  17.747  1.00  0.00    -0.414 N 
HETATM   20  H   UNL     1       6.131  -1.328  17.445  1.00  0.00     0.151 HD
HETATM   21  H   UNL     1       5.780   0.316  17.222  1.00  0.00     0.151 HD
ENDBRANCH  18  19
ENDBRANCH  15  18
ENDBRANCH   1  14
TORSDOF 8
ENDMDL
MODEL 4
REMARK VINA RESULT:    -4.949      3.176      4.429
REMARK INTER + INTRA:          -7.098
REMARK INTER:                  -6.752
REMARK INTRA:                  -0.346
REMARK UNBOUND:                -0.268
REMARK  8 active torsions:
REMARK  status: ('A' for Active; 'I' for Inactive)
REMARK    1  A    between atoms: O_1  and  C_6 
REMARK    2  A    between atoms: N_3  and  C_10 
REMARK    3  A    between atoms: N_3  and  C_11 
REMARK    4  A    between atoms: C_6  and  O_7 
REMARK    5  A    between atoms: C_9  and  N_19 
REMARK    6  A    between atoms: C_10  and  C_21 
REMARK    7  A    between atoms: C_14  and  N_18 
REMARK    8  A    between atoms: C_14  and  N_15 
ROOT
HETATM    1  C   UNL     1       7.846  11.862   3.308  1.00  0.00     0.136 C 
HETATM    2  C   UNL     1       6.862  11.382   4.238  1.00  0.00     0.045 C 
ENDROOT
BRANCH   2   3
HETATM    3  N   UNL     1       6.425  10.176   4.053  1.00  0.00    -0.348 N 
ATOM      4  HN  UNL     1       6.807   9.348   4.509  1.00  0.00     0.166 HD
BRANCH   3   5
HETATM    5  C   UNL     1       5.383  10.162   3.167  1.00  0.00     0.127 A 
HETATM    6  S   UNL     1       4.090  10.794   2.503  1.00  0.00    -0.035 SA
HETATM    7  C   UNL     1       5.222   9.503   2.082  1.00  0.00     0.270 A 
BRANCH   7   8
HETATM    8  O   UNL     1       5.683   9.665   0.845  1.00  0.00    -0.351 OA
ATOM      9  HO  UNL     1       5.158   9.176   0.223  1.00  0.00     0.214 HD
ENDBRANCH   7   8
BRANCH   7  10
HETATM   10  O   UNL     1       5.242   8.155   2.372  1.00  0.00    -0.351 OA
ATOM     11  HO  UNL     1       4.835   8.031   3.221  1.00  0.00     0.214 HD
ENDBRANCH   7  10
ENDBRANCH   3   5
ENDBRANCH   2   3
BRANCH   2  12
HETATM   12  C   UNL     1       6.108  12.051   5.290  1.00  0.00    -0.000 C 
HETATM   13  C   UNL     1       5.964  13.266   6.234  1.00  0.00     0.038 C 
ENDBRANCH   2  12
BRANCH   1  14
HETATM   14  N   UNL     1       8.993  12.559   3.346  1.00  0.00    -0.313 N 
HETATM   15  N   UNL     1       8.729  13.799   3.170  1.00  0.00    -0.319 N 
HETATM   16  H   UNL     1       7.793  14.170   3.348  1.00  0.00     0.182 HD
ATOM     17  HN  UNL     1       9.923  12.165   3.491  1.00  0.00     0.185 HD
BRANCH  15  18
HETATM   18  C   UNL     1       9.817  14.630   2.771  1.00  0.00     0.253 C 
BRANCH  18  19
HETATM   19  N   UNL     1      11.190  14.628   3.333  1.00  0.00    -0.414 N 
HETATM   20  H   UNL     1      11.697  13.777   3.229  1.00  0.00     0.151 HD
HETATM   21  H   UNL     1      11.262  15.079   4.226  1.00  0.00     0.151 HD
ENDBRANCH  18  19
ENDBRANCH  15  18
ENDBRANCH   1  14
TORSDOF 8
ENDMDL
MODEL 5
REMARK VINA RESULT:    -4.944     22.110     23.508
REMARK INTER + INTRA:          -7.091
REMARK INTER:                  -6.818
REMARK INTRA:                  -0.273
REMARK UNBOUND:                -0.268
REMARK  8 active torsions:
REMARK  status: ('A' for Active; 'I' for Inactive)
REMARK    1  A    between atoms: O_1  and  C_6 
REMARK    2  A    between atoms: N_3  and  C_10 
REMARK    3  A    between atoms: N_3  and  C_11 
REMARK    4  A    between atoms: C_6  and  O_7 
REMARK    5  A    between atoms: C_9  and  N_19 
REMARK    6  A    between atoms: C_10  and  C_21 
REMARK    7  A    between atoms: C_14  and  N_18 
REMARK    8  A    between atoms: C_14  and  N_15 
ROOT
HETATM    1  C   UNL     1       8.508  -0.108  20.609  1.00  0.00     0.136 C 
HETATM    2  C   UNL     1       7.218   0.307  21.083  1.00  0.00     0.045 C 
ENDROOT
BRANCH   2   3
HETATM    3  N   UNL     1       6.194  -0.360  20.651  1.00  0.00    -0.348 N 
ATOM      4  HN  UNL     1       5.903  -1.269  21.013  1.00  0.00     0.166 HD
BRANCH   3   5
HETATM    5  C   UNL     1       5.557   0.314  19.647  1.00  0.00     0.127 A 
HETATM    6  S   UNL     1       4.657   1.497  19.094  1.00  0.00    -0.035 SA
HETATM    7  C   UNL     1       5.755   0.308  18.382  1.00  0.00     0.270 A 
BRANCH   7   8
HETATM    8  O   UNL     1       6.652   0.902  17.601  1.00  0.00    -0.351 OA
ATOM      9  HO  UNL     1       7.232   1.453  18.113  1.00  0.00     0.214 HD
ENDBRANCH   7   8
BRANCH   7  10
HETATM   10  O   UNL     1       5.556  -0.971  17.907  1.00  0.00    -0.351 OA
ATOM     11  HO  UNL     1       4.649  -1.046  17.637  1.00  0.00     0.214 HD
ENDBRANCH   7  10
ENDBRANCH   3   5
ENDBRANCH   2   3
BRANCH   2  12
HETATM   12  C   UNL     1       6.790   1.468  21.854  1.00  0.00    -0.000 C 
HETATM   13  C   UNL     1       5.970   2.030  23.037  1.00  0.00     0.038 C 
ENDBRANCH   2  12
BRANCH   1  14
HETATM   14  N   UNL     1       9.739  -0.300  21.112  1.00  0.00    -0.313 N 
HETATM   15  N   UNL     1       9.765  -1.425  21.721  1.00  0.00    -0.319 N 
HETATM   16  H   UNL     1       9.079  -2.154  21.513  1.00  0.00     0.182 HD
ATOM     17  HN  UNL     1      10.524   0.346  21.024  1.00  0.00     0.185 HD
BRANCH  15  18
HETATM   18  C   UNL     1      10.826  -1.618  22.654  1.00  0.00     0.253 C 
BRANCH  18  19
HETATM   19  N   UNL     1      10.916  -1.057  24.025  1.00  0.00    -0.414 N 
HETATM   20  H   UNL     1      11.812  -0.716  24.293  1.00  0.00     0.151 HD
HETATM   21  H   UNL     1      10.423  -1.593  24.714  1.00  0.00     0.151 HD
ENDBRANCH  18  19
ENDBRANCH  15  18
ENDBRANCH   1  14
TORSDOF 8
ENDMDL
MODEL 6
REMARK VINA RESULT:    -4.798      3.564      5.044
REMARK INTER + INTRA:          -6.890
REMARK INTER:                  -6.481
REMARK INTRA:                  -0.408
REMARK UNBOUND:                -0.268
REMARK  8 active torsions:
REMARK  status: ('A' for Active; 'I' for Inactive)
REMARK    1  A    between atoms: O_1  and  C_6 
REMARK    2  A    between atoms: N_3  and  C_10 
REMARK    3  A    between atoms: N_3  and  C_11 
REMARK    4  A    between atoms: C_6  and  O_7 
REMARK    5  A    between atoms: C_9  and  N_19 
REMARK    6  A    between atoms: C_10  and  C_21 
REMARK    7  A    between atoms: C_14  and  N_18 
REMARK    8  A    between atoms: C_14  and  N_15 
ROOT
HETATM    1  C   UNL     1       7.244  11.366   3.123  1.00  0.00     0.136 C 
HETATM    2  C   UNL     1       6.640  11.033   4.383  1.00  0.00     0.045 C 
ENDROOT
BRANCH   2   3
HETATM    3  N   UNL     1       6.804   9.819   4.806  1.00  0.00    -0.348 N 
ATOM      4  HN  UNL     1       7.632   9.488   5.302  1.00  0.00     0.166 HD
BRANCH   3   5
HETATM    5  C   UNL     1       5.721   9.041   4.501  1.00  0.00     0.127 A 
HETATM    6  S   UNL     1       4.584   8.533   3.520  1.00  0.00    -0.035 SA
HETATM    7  C   UNL     1       5.300   7.955   5.029  1.00  0.00     0.270 A 
BRANCH   7   8
HETATM    8  O   UNL     1       5.678   6.685   4.917  1.00  0.00    -0.351 OA
ATOM      9  HO  UNL     1       5.135   6.123   5.456  1.00  0.00     0.214 HD
ENDBRANCH   7   8
BRANCH   7  10
HETATM   10  O   UNL     1       4.994   8.193   6.353  1.00  0.00    -0.351 OA
ATOM     11  HO  UNL     1       5.311   7.458   6.864  1.00  0.00     0.214 HD
ENDBRANCH   7  10
ENDBRANCH   3   5
ENDBRANCH   2   3
BRANCH   2  12
HETATM   12  C   UNL     1       5.710  11.758   5.240  1.00  0.00    -0.000 C 
HETATM   13  C   UNL     1       5.497  12.692   6.453  1.00  0.00     0.038 C 
ENDBRANCH   2  12
BRANCH   1  14
HETATM   14  N   UNL     1       7.937  12.386   2.592  1.00  0.00    -0.313 N 
HETATM   15  N   UNL     1       8.839  12.750   3.424  1.00  0.00    -0.319 N 
HETATM   16  H   UNL     1       9.164  12.118   4.159  1.00  0.00     0.182 HD
ATOM     17  HN  UNL     1       7.772  12.803   1.675  1.00  0.00     0.185 HD
BRANCH  15  18
HETATM   18  C   UNL     1       9.393  14.050   3.232  1.00  0.00     0.253 C 
BRANCH  18  19
HETATM   19  N   UNL     1      10.825  14.385   3.035  1.00  0.00    -0.414 N 
HETATM   20  H   UNL     1      11.013  15.318   2.742  1.00  0.00     0.151 HD
HETATM   21  H   UNL     1      11.350  13.664   2.578  1.00  0.00     0.151 HD
ENDBRANCH  18  19
ENDBRANCH  15  18
ENDBRANCH   1  14
TORSDOF 8
ENDMDL
MODEL 7
REMARK VINA RESULT:    -4.782     21.427     23.045
REMARK INTER + INTRA:          -6.868
REMARK INTER:                  -6.560
REMARK INTRA:                  -0.308
REMARK UNBOUND:                -0.268
REMARK  8 active torsions:
REMARK  status: ('A' for Active; 'I' for Inactive)
REMARK    1  A    between atoms: O_1  and  C_6 
REMARK    2  A    between atoms: N_3  and  C_10 
REMARK    3  A    between atoms: N_3  and  C_11 
REMARK    4  A    between atoms: C_6  and  O_7 
REMARK    5  A    between atoms: C_9  and  N_19 
REMARK    6  A    between atoms: C_10  and  C_21 
REMARK    7  A    between atoms: C_14  and  N_18 
REMARK    8  A    between atoms: C_14  and  N_15 
ROOT
HETATM    1  C   UNL     1       8.245   1.153  21.548  1.00  0.00     0.136 C 
HETATM    2  C   UNL     1       7.588   0.032  20.935  1.00  0.00     0.045 C 
ENDROOT
BRANCH   2   3
HETATM    3  N   UNL     1       7.502   0.041  19.642  1.00  0.00    -0.348 N 
ATOM      4  HN  UNL     1       8.230  -0.300  19.014  1.00  0.00     0.166 HD
BRANCH   3   5
HETATM    5  C   UNL     1       6.309   0.567  19.232  1.00  0.00     0.127 A 
HETATM    6  S   UNL     1       5.035   1.490  19.429  1.00  0.00    -0.035 SA
HETATM    7  C   UNL     1       5.804   0.676  18.062  1.00  0.00     0.270 A 
BRANCH   7   8
HETATM    8  O   UNL     1       6.009   1.526  17.060  1.00  0.00    -0.351 OA
ATOM      9  HO  UNL     1       5.185   1.811  16.685  1.00  0.00     0.214 HD
ENDBRANCH   7   8
BRANCH   7  10
HETATM   10  O   UNL     1       5.648  -0.586  17.525  1.00  0.00    -0.351 OA
ATOM     11  HO  UNL     1       6.301  -0.698  16.845  1.00  0.00     0.214 HD
ENDBRANCH   7  10
ENDBRANCH   3   5
ENDBRANCH   2   3
BRANCH   2  12
HETATM   12  C   UNL     1       6.827  -1.077  21.497  1.00  0.00    -0.000 C 
HETATM   13  C   UNL     1       6.833  -2.477  22.151  1.00  0.00     0.038 C 
ENDBRANCH   2  12
BRANCH   1  14
HETATM   14  N   UNL     1       9.131   1.369  22.534  1.00  0.00    -0.313 N 
HETATM   15  N   UNL     1       9.645   2.531  22.380  1.00  0.00    -0.319 N 
HETATM   16  H   UNL     1       9.171   3.249  21.828  1.00  0.00     0.182 HD
ATOM     17  HN  UNL     1       9.357   0.715  23.284  1.00  0.00     0.185 HD
BRANCH  15  18
HETATM   18  C   UNL     1      10.875   2.777  23.060  1.00  0.00     0.253 C 
BRANCH  18  19
HETATM   19  N   UNL     1      11.591   1.845  23.965  1.00  0.00    -0.414 N 
HETATM   20  H   UNL     1      11.919   1.004  23.546  1.00  0.00     0.151 HD
HETATM   21  H   UNL     1      11.165   1.752  24.868  1.00  0.00     0.151 HD
ENDBRANCH  18  19
ENDBRANCH  15  18
ENDBRANCH   1  14
TORSDOF 8
ENDMDL
MODEL 8
REMARK VINA RESULT:    -4.710     24.364     26.847
REMARK INTER + INTRA:          -6.769
REMARK INTER:                  -6.445
REMARK INTRA:                  -0.324
REMARK UNBOUND:                -0.268
REMARK  8 active torsions:
REMARK  status: ('A' for Active; 'I' for Inactive)
REMARK    1  A    between atoms: O_1  and  C_6 
REMARK    2  A    between atoms: N_3  and  C_10 
REMARK    3  A    between atoms: N_3  and  C_11 
REMARK    4  A    between atoms: C_6  and  O_7 
REMARK    5  A    between atoms: C_9  and  N_19 
REMARK    6  A    between atoms: C_10  and  C_21 
REMARK    7  A    between atoms: C_14  and  N_18 
REMARK    8  A    between atoms: C_14  and  N_15 
ROOT
HETATM    1  C   UNL     1       8.704  -3.062  23.652  1.00  0.00     0.136 C 
HETATM    2  C   UNL     1       9.584  -2.102  23.046  1.00  0.00     0.045 C 
ENDROOT
BRANCH   2   3
HETATM    3  N   UNL     1       9.403  -1.857  21.787  1.00  0.00    -0.348 N 
ATOM      4  HN  UNL     1       9.921  -2.306  21.031  1.00  0.00     0.166 HD
BRANCH   3   5
HETATM    5  C   UNL     1       8.426  -0.917  21.604  1.00  0.00     0.127 A 
HETATM    6  S   UNL     1       7.089  -0.176  22.024  1.00  0.00    -0.035 SA
HETATM    7  C   UNL     1       8.426   0.163  20.918  1.00  0.00     0.270 A 
BRANCH   7   8
HETATM    8  O   UNL     1       8.924   1.377  21.138  1.00  0.00    -0.351 OA
ATOM      9  HO  UNL     1       9.798   1.453  20.774  1.00  0.00     0.214 HD
ENDBRANCH   7   8
BRANCH   7  10
HETATM   10  O   UNL     1       8.637  -0.151  19.592  1.00  0.00    -0.351 OA
ATOM     11  HO  UNL     1       9.573  -0.232  19.454  1.00  0.00     0.214 HD
ENDBRANCH   7  10
ENDBRANCH   3   5
ENDBRANCH   2   3
BRANCH   2  12
HETATM   12  C   UNL     1      10.787  -1.439  23.534  1.00  0.00    -0.000 C 
HETATM   13  C   UNL     1      12.312  -1.223  23.406  1.00  0.00     0.038 C 
ENDBRANCH   2  12
BRANCH   1  14
HETATM   14  N   UNL     1       8.015  -3.195  24.797  1.00  0.00    -0.313 N 
HETATM   15  N   UNL     1       8.533  -4.143  25.483  1.00  0.00    -0.319 N 
HETATM   16  H   UNL     1       9.496  -4.447  25.320  1.00  0.00     0.182 HD
ATOM     17  HN  UNL     1       7.210  -2.633  25.074  1.00  0.00     0.185 HD
BRANCH  15  18
HETATM   18  C   UNL     1       7.717  -4.704  26.509  1.00  0.00     0.253 C 
BRANCH  18  19
HETATM   19  N   UNL     1       7.998  -5.929  27.298  1.00  0.00    -0.414 N 
HETATM   20  H   UNL     1       8.209  -6.744  26.767  1.00  0.00     0.151 HD
HETATM   21  H   UNL     1       7.383  -6.056  28.079  1.00  0.00     0.151 HD
ENDBRANCH  18  19
ENDBRANCH  15  18
ENDBRANCH   1  14
TORSDOF 8
ENDMDL
MODEL 9
REMARK VINA RESULT:    -4.642     23.140     24.023
REMARK INTER + INTRA:          -6.674
REMARK INTER:                  -6.403
REMARK INTRA:                  -0.271
REMARK UNBOUND:                -0.268
REMARK  8 active torsions:
REMARK  status: ('A' for Active; 'I' for Inactive)
REMARK    1  A    between atoms: O_1  and  C_6 
REMARK    2  A    between atoms: N_3  and  C_10 
REMARK    3  A    between atoms: N_3  and  C_11 
REMARK    4  A    between atoms: C_6  and  O_7 
REMARK    5  A    between atoms: C_9  and  N_19 
REMARK    6  A    between atoms: C_10  and  C_21 
REMARK    7  A    between atoms: C_14  and  N_18 
REMARK    8  A    between atoms: C_14  and  N_15 
ROOT
HETATM    1  C   UNL     1       8.641  -0.071  20.622  1.00  0.00     0.136 C 
HETATM    2  C   UNL     1       9.196   0.818  21.603  1.00  0.00     0.045 C 
ENDROOT
BRANCH   2   3
HETATM    3  N   UNL     1      10.473   0.734  21.811  1.00  0.00    -0.348 N 
ATOM      4  HN  UNL     1      11.180   1.230  21.268  1.00  0.00     0.166 HD
BRANCH   3   5
HETATM    5  C   UNL     1      10.746  -0.107  22.854  1.00  0.00     0.127 A 
HETATM    6  S   UNL     1      10.801  -0.466  24.397  1.00  0.00    -0.035 SA
HETATM    7  C   UNL     1      10.875  -1.380  22.886  1.00  0.00     0.270 A 
BRANCH   7   8
HETATM    8  O   UNL     1       9.999  -2.381  22.897  1.00  0.00    -0.351 OA
ATOM      9  HO  UNL     1       9.415  -2.326  22.150  1.00  0.00     0.214 HD
ENDBRANCH   7   8
BRANCH   7  10
HETATM   10  O   UNL     1      11.926  -1.742  22.071  1.00  0.00    -0.351 OA
ATOM     11  HO  UNL     1      12.734  -1.500  22.508  1.00  0.00     0.214 HD
ENDBRANCH   7  10
ENDBRANCH   3   5
ENDBRANCH   2   3
BRANCH   2  12
HETATM   12  C   UNL     1       8.574   1.719  22.565  1.00  0.00    -0.000 C 
HETATM   13  C   UNL     1       8.485   3.139  23.169  1.00  0.00     0.038 C 
ENDBRANCH   2  12
BRANCH   1  14
HETATM   14  N   UNL     1       7.751  -0.013  19.618  1.00  0.00    -0.313 N 
HETATM   15  N   UNL     1       6.579  -0.218  20.092  1.00  0.00    -0.319 N 
HETATM   16  H   UNL     1       6.379  -0.074  21.084  1.00  0.00     0.182 HD
ATOM     17  HN  UNL     1       7.972   0.166  18.638  1.00  0.00     0.185 HD
BRANCH  15  18
HETATM   18  C   UNL     1       5.574  -0.601  19.156  1.00  0.00     0.253 C 
BRANCH  18  19
HETATM   19  N   UNL     1       5.605  -0.400  17.686  1.00  0.00    -0.414 N 
HETATM   20  H   UNL     1       6.508  -0.270  17.288  1.00  0.00     0.151 HD
HETATM   21  H   UNL     1       4.880   0.203  17.345  1.00  0.00     0.151 HD
ENDBRANCH  18  19
ENDBRANCH  15  18
ENDBRANCH   1  14
TORSDOF 8
ENDMDL
