REMARK  8 active torsions:
REMARK  status: ('A' for Active; 'I' for Inactive)
REMARK    1  A    between atoms: O_1  and  C_6 
REMARK    2  A    between atoms: N_3  and  C_10 
REMARK    3  A    between atoms: N_3  and  C_11 
REMARK    4  A    between atoms: C_6  and  O_7 
REMARK    5  A    between atoms: C_9  and  N_19 
REMARK    6  A    between atoms: C_10  and  C_21 
REMARK    7  A    between atoms: C_14  and  N_18 
REMARK    8  A    between atoms: C_14  and  N_15 
ROOT
HETATM    1  C   UNL     1       7.742  -0.122  23.144  1.00  0.00     0.136 C 
HETATM    2  C   UNL     1       8.920  -0.398  23.918  1.00  0.00     0.045 C 
ENDROOT
BRANCH   2   3
HETATM    3  N   UNL     1       8.756  -0.561  25.193  1.00  0.00    -0.348 N 
ATOM      4  HN  UNL     1       8.672   0.201  25.866  1.00  0.00     0.166 HD
BRANCH   3   5
HETATM    5  C   UNL     1       8.711  -1.889  25.517  1.00  0.00     0.127 A 
HETATM    6  S   UNL     1       9.109  -3.134  26.414  1.00  0.00    -0.035 SA
HETATM    7  C   UNL     1       7.856  -2.792  25.215  1.00  0.00     0.270 A 
BRANCH   7   8
HETATM    8  O   UNL     1       6.652  -3.097  25.690  1.00  0.00    -0.351 OA
ATOM      9  HO  UNL     1       5.979  -2.913  25.046  1.00  0.00     0.214 HD
ENDBRANCH   7   8
BRANCH   7  10
HETATM   10  O   UNL     1       7.821  -2.931  23.843  1.00  0.00    -0.351 OA
ATOM     11  HO  UNL     1       8.681  -2.713  23.504  1.00  0.00     0.214 HD
ENDBRANCH   7  10
ENDBRANCH   3   5
ENDBRANCH   2   3
BRANCH   2  12
HETATM   12  C   UNL     1      10.337  -0.373  23.578  1.00  0.00    -0.000 C 
HETATM   13  C   UNL     1      11.475  -0.860  22.653  1.00  0.00     0.038 C 
ENDBRANCH   2  12
BRANCH   1  14
HETATM   14  N   UNL     1       7.213  -0.501  21.969  1.00  0.00    -0.313 N 
HETATM   15  N   UNL     1       8.089  -1.171  21.319  1.00  0.00    -0.319 N 
HETATM   16  H   UNL     1       8.875  -1.616  21.798  1.00  0.00     0.182 HD
ATOM     17  HN  UNL     1       6.268  -0.290  21.647  1.00  0.00     0.185 HD
BRANCH  15  18
HETATM   18  C   UNL     1       7.875  -1.302  19.915  1.00  0.00     0.253 C 
BRANCH  18  19
HETATM   19  N   UNL     1       7.248  -0.303  19.015  1.00  0.00    -0.414 N 
HETATM   20  H   UNL     1       6.429   0.140  19.367  1.00  0.00     0.151 HD
HETATM   21  H   UNL     1       7.219  -0.587  18.054  1.00  0.00     0.151 HD
ENDBRANCH  18  19
ENDBRANCH  15  18
ENDBRANCH   1  14
TORSDOF 8
