stable:False satoms:11 tatoms:24 sratio:0.4583333333333333
  -OEChem-07092417423D

 24 25  0     0  0  0  0  0  0999 V2000
    6.5137   -5.0035   26.4340 Cl  0  0  0  0  0  0  0  0  0  0  0  0
    8.1942   -4.3570   26.1193 S   0  0  0  0  0  0  0  0  0  0  0  0
    9.1039   -5.4663   26.0293 O   0  0  0  0  0  0  0  0  0  0  0  0
    8.4768   -3.4185   27.1771 O   0  0  0  0  0  0  0  0  0  0  0  0
    8.0728   -3.6124   24.7137 N   0  0  0  0  0  0  0  0  0  0  0  0
    8.8430   -2.7891   24.2546 C   0  0  0  0  0  0  0  0  0  0  0  0
    9.4057   -1.9219   23.7573 C   0  0  0  0  0  0  0  0  0  0  0  0
   10.2312   -0.9496   23.2779 C   0  0  0  0  0  0  0  0  0  0  0  0
   11.5064   -0.4505   23.7715 C   0  0  0  0  0  0  0  0  0  0  0  0
   11.7426    0.2525   24.4996 H   0  0  0  0  0  0  0  0  0  0  0  0
   13.5369   -0.6155   23.2609 H   0  0  0  0  0  0  0  0  0  0  0  0
   12.5912   -1.0207   23.0436 C   0  0  0  0  0  0  0  0  0  0  0  0
   12.3442   -1.8058   22.3673 H   0  0  0  0  0  0  0  0  0  0  0  0
    9.7572   -0.3902   22.2989 C   0  0  0  0  0  0  0  0  0  0  0  0
    8.9987    0.1698   21.3333 C   0  0  0  0  0  0  0  0  0  0  0  0
    9.4032    1.1474   20.7121 O   0  0  0  0  0  0  0  0  0  0  0  0
    7.8099   -0.4517   21.2495 N   0  0  0  0  0  0  0  0  0  0  0  0
    7.1362   -0.0112   20.2666 C   0  0  0  0  0  0  0  0  0  0  0  0
    7.1898    0.0839   18.9428 C   0  0  0  0  0  0  0  0  0  0  0  0
    6.7338    0.3262   17.8669 N   0  0  0  0  0  0  0  0  0  0  0  0
    5.6811    0.8060   18.3315 C   0  0  0  0  0  0  0  0  0  0  0  0
    5.2201    0.9591   19.4580 C   0  0  0  0  0  0  0  0  0  0  0  0
    5.7374    0.5866   20.5819 C   0  0  0  0  0  0  0  0  0  0  0  0
    5.3541    0.6423   21.5491 H   0  0  0  0  0  0  0  0  0  0  0  0
 20 21  2  0  0  0  0
 19 20  1  0  0  0  0
 19 21  1  0  0  0  0
 21 22  1  0  0  0  0
 18 19  2  0  0  0  0
 22 23  2  0  0  0  0
 18 23  1  0  0  0  0
 17 18  1  0  0  0  0
 23 24  1  0  0  0  0
 15 16  2  0  0  0  0
 15 17  1  0  0  0  0
 14 15  1  0  0  0  0
  8 14  2  3  0  0  0
 12 13  1  0  0  0  0
 11 12  1  0  0  0  0
  9 12  2  0  0  0  0
  7  8  1  0  0  0  0
  8  9  1  0  0  0  0
  6  7  3  0  0  0  0
  9 10  1  0  0  0  0
  5  6  1  0  0  0  0
  2  5  1  0  0  0  0
  2  3  2  0  0  0  0
  1  2  1  0  0  0  0
  2  4  2  0  0  0  0
M  END
> <Shapegauss>
-246.221298

$$$$
