stable:False satoms:11 tatoms:24 sratio:0.4583333333333333
  -OEChem-08062411363D

 28 29  0     0  0  0  0  0  0999 V2000
    6.3664   -5.3915   26.1603 Cl  0  0  0  0  0  0  0  0  0  0  0  0
    8.0844   -4.9320   25.7382 S   0  0  0  0  0  0  0  0  0  0  0  0
    8.8202   -6.1300   25.4392 O   0  0  0  0  0  0  0  0  0  0  0  0
    8.5889   -4.1662   26.8512 O   0  0  0  0  0  0  0  0  0  0  0  0
    7.9399   -4.0200   24.4374 N   0  0  0  0  0  0  0  0  0  0  0  0
    8.7715   -3.2538   23.9867 C   0  0  0  0  0  0  0  0  0  0  0  0
    9.4010   -2.4134   23.5246 C   0  0  0  0  0  0  0  0  0  0  0  0
   10.3059   -1.5051   23.0633 C   0  0  0  0  0  0  0  0  0  0  0  0
   11.6773   -1.2330   23.4683 C   0  0  0  0  0  0  0  0  0  0  0  0
   12.0735   -0.6550   24.2359 H   0  0  0  0  0  0  0  0  0  0  0  0
   13.6107   -1.5947   22.7321 H   0  0  0  0  0  0  0  0  0  0  0  0
   12.6023   -1.8483   22.5753 C   0  0  0  0  0  0  0  0  0  0  0  0
   12.1889   -2.5118   21.8517 H   0  0  0  0  0  0  0  0  0  0  0  0
    9.8268   -0.7802   22.2026 C   0  0  0  0  0  0  0  0  0  0  0  0
    9.0683   -0.0200   21.3851 C   0  0  0  0  0  0  0  0  0  0  0  0
    9.5458    0.9636   20.8286 O   0  0  0  0  0  0  0  0  0  0  0  0
    7.8024   -0.4712   21.3637 N   0  0  0  0  0  0  0  0  0  0  0  0
    7.1095    0.1624   20.5079 C   0  0  0  0  0  0  0  0  0  0  0  0
    7.0553    0.4029   19.2027 C   0  0  0  0  0  0  0  0  0  0  0  0
    6.5413    0.8244   18.2116 N   0  0  0  0  0  0  0  0  0  0  0  0
    5.6115    1.3771   18.8315 C   0  0  0  0  0  0  0  0  0  0  0  0
    5.2804    1.4559   20.0101 C   0  0  0  0  0  0  0  0  0  0  0  0
    5.8412    0.8928   21.0289 C   0  0  0  0  0  0  0  0  0  0  0  0
    5.5587    0.8842   22.0317 H   0  0  0  0  0  0  0  0  0  0  0  0
    7.1327   -3.4546   24.6068 H   0  0  0  0  0  0  0  0  0  0  0  0
   10.7524   -0.6203   21.6696 H   0  0  0  0  0  0  0  0  0  0  0  0
    7.4528   -1.2071   21.9437 H   0  0  0  0  0  0  0  0  0  0  0  0
    4.4169    2.0692   20.2214 H   0  0  0  0  0  0  0  0  0  0  0  0
 20 21  2  0  0  0  0
 19 20  1  0  0  0  0
 19 21  1  0  0  0  0
 21 22  1  0  0  0  0
 18 19  2  0  0  0  0
 22 23  2  0  0  0  0
 18 23  1  0  0  0  0
 17 18  1  0  0  0  0
 23 24  1  0  0  0  0
 15 16  2  0  0  0  0
 15 17  1  0  0  0  0
 14 15  1  0  0  0  0
  8 14  2  3  0  0  0
 12 13  1  0  0  0  0
 11 12  1  0  0  0  0
  9 12  2  0  0  0  0
  7  8  1  0  0  0  0
  8  9  1  0  0  0  0
  6  7  3  0  0  0  0
  9 10  1  0  0  0  0
  5  6  1  0  0  0  0
  2  5  1  0  0  0  0
  2  3  2  0  0  0  0
  1  2  1  0  0  0  0
  2  4  2  0  0  0  0
  5 25  1  0  0  0  0
 14 26  1  0  0  0  0
 17 27  1  0  0  0  0
 22 28  1  0  0  0  0
M  END
> <Chemgauss4>
-7.716027

$$$$
