REMARK  5 active torsions:
REMARK  status: ('A' for Active; 'I' for Inactive)
REMARK    1  A    between atoms: S_2  and  N_5 
REMARK    2  A    between atoms: N_5  and  C_7 
REMARK    3  A    between atoms: C_7  and  C_8 
REMARK    4  A    between atoms: C_15  and  C_16 
REMARK       I    between atoms: C_16  and  N_18 
REMARK    5  A    between atoms: N_18  and  C_20 
ROOT
HETATM    1  C   UNL     1       9.442  -1.992  23.472  1.00  0.00     0.040 A 
HETATM    2  C   UNL     1      10.385  -1.189  23.160  1.00  0.00     0.066 A 
HETATM    3  C   UNL     1      11.066   0.004  24.305  1.00  0.00    -0.003 C 
HETATM    4  C   UNL     1      12.041   0.280  24.254  1.00  0.00    -0.002 C 
HETATM    5  C   UNL     1      13.124  -0.199  23.462  1.00  0.00    -0.001 C 
HETATM    6  C   UNL     1      12.802  -1.234  22.726  1.00  0.00    -0.002 C 
HETATM    7  C   UNL     1      11.844  -1.755  22.588  1.00  0.00    -0.003 C 
HETATM    8  C   UNL     1       9.652  -0.631  22.379  1.00  0.00     0.049 A 
ENDROOT
BRANCH   8   9
HETATM    9  C   UNL     1       9.022   0.035  21.400  1.00  0.00     0.255 C 
HETATM   10  O   UNL     1       9.577   0.950  20.997  1.00  0.00    -0.268 OA
HETATM   11  N   UNL     1       7.858  -0.554  21.126  1.00  0.00    -0.321 N 
ATOM     12  HN  UNL     1       7.540  -1.368  21.652  1.00  0.00     0.169 HD
BRANCH  11  13
HETATM   13  C   UNL     1       7.178  -0.078  20.211  1.00  0.00     0.060 C 
HETATM   14  C   UNL     1       7.192   0.063  18.881  1.00  0.00     0.117 C 
HETATM   15  N   UNL     1       6.785   0.306  17.806  1.00  0.00    -0.373 N 
HETATM   16  C   UNL     1       5.687   0.859  18.250  1.00  0.00     0.088 C 
ATOM     17  HN  UNL     1       7.154   0.144  16.869  1.00  0.00     0.164 HD
HETATM   18  C   UNL     1       5.276   0.992  19.427  1.00  0.00     0.030 C 
HETATM   19  C   UNL     1       5.797   0.592  20.565  1.00  0.00    -0.016 C 
HETATM   20  C   UNL     1       5.320   0.685  21.883  1.00  0.00     0.026 C 
ENDBRANCH  11  13
ENDBRANCH   8   9
BRANCH   1  21
HETATM   21  C   UNL     1       8.932  -2.901  24.093  1.00  0.00    -0.022 C 
BRANCH  21  22
HETATM   22  N   UNL     1       8.121  -3.530  24.669  1.00  0.00    -0.249 N 
ATOM     23  HN  UNL     1       7.216  -3.614  24.207  1.00  0.00     0.188 HD
BRANCH  22  24
HETATM   24  S   UNL     1       8.250  -4.271  26.081  1.00  0.00     0.233 S 
HETATM   25  C   UNL     1       6.556  -4.847  26.436  1.00  0.00     0.186 C 
HETATM   26  O   UNL     1       9.032  -5.473  25.983  1.00  0.00    -0.205 OA
HETATM   27  O   UNL     1       8.644  -3.401  27.142  1.00  0.00    -0.205 OA
ENDBRANCH  22  24
ENDBRANCH  21  22
ENDBRANCH   1  21
TORSDOF 5
