MODEL 1
REMARK VINA RESULT:    -7.824      0.000      0.000
REMARK INTER + INTRA:         -10.837
REMARK INTER:                 -10.110
REMARK INTRA:                  -0.727
REMARK UNBOUND:                -0.727
REMARK  5 active torsions:
REMARK  status: ('A' for Active; 'I' for Inactive)
REMARK    1  A    between atoms: S_2  and  N_5 
REMARK    2  A    between atoms: N_5  and  C_7 
REMARK    3  A    between atoms: C_7  and  C_8 
REMARK    4  A    between atoms: C_15  and  C_16 
REMARK       I    between atoms: C_16  and  N_18 
REMARK    5  A    between atoms: N_18  and  C_20 
ROOT
HETATM    1  C   UNL     1       8.953  -2.428  23.299  1.00  0.00     0.040 A 
HETATM    2  C   UNL     1       9.723  -1.409  23.284  1.00  0.00     0.066 A 
HETATM    3  C   UNL     1       9.799  -0.228  24.625  1.00  0.00    -0.003 C 
HETATM    4  C   UNL     1      10.662   0.259  24.844  1.00  0.00    -0.002 C 
HETATM    5  C   UNL     1      11.987   0.119  24.340  1.00  0.00    -0.001 C 
HETATM    6  C   UNL     1      12.111  -0.875  23.495  1.00  0.00    -0.002 C 
HETATM    7  C   UNL     1      11.369  -1.575  23.086  1.00  0.00    -0.003 C 
HETATM    8  C   UNL     1       9.089  -0.943  22.368  1.00  0.00     0.049 A 
ENDROOT
BRANCH   8   9
HETATM    9  C   UNL     1       8.575  -0.329  21.292  1.00  0.00     0.255 C 
HETATM   10  O   UNL     1       9.307   0.327  20.708  1.00  0.00    -0.268 OA
HETATM   11  N   UNL     1       7.286  -0.643  21.163  1.00  0.00    -0.321 N 
ATOM     12  HN  UNL     1       6.816  -1.240  21.843  1.00  0.00     0.169 HD
BRANCH  11  13
HETATM   13  C   UNL     1       6.681  -0.185  20.188  1.00  0.00     0.060 C 
HETATM   14  C   UNL     1       6.355  -0.507  18.932  1.00  0.00     0.117 C 
HETATM   15  N   UNL     1       5.811  -0.431  17.893  1.00  0.00    -0.373 N 
HETATM   16  C   UNL     1       5.316   0.753  18.138  1.00  0.00     0.088 C 
ATOM     17  HN  UNL     1       5.748  -1.061  17.093  1.00  0.00     0.164 HD
HETATM   18  C   UNL     1       5.404   1.461  19.169  1.00  0.00     0.030 C 
HETATM   19  C   UNL     1       5.984   1.221  20.323  1.00  0.00    -0.016 C 
HETATM   20  C   UNL     1       6.041   1.981  21.504  1.00  0.00     0.026 C 
ENDBRANCH  11  13
ENDBRANCH   8   9
BRANCH   1  21
HETATM   21  C   UNL     1       8.541  -3.489  23.719  1.00  0.00    -0.022 C 
BRANCH  21  22
HETATM   22  N   UNL     1       8.115  -4.586  23.728  1.00  0.00    -0.249 N 
ATOM     23  HN  UNL     1       8.533  -5.217  24.411  1.00  0.00     0.188 HD
BRANCH  22  24
HETATM   24  S   UNL     1       6.968  -5.218  22.810  1.00  0.00     0.233 S 
HETATM   25  C   UNL     1       5.664  -5.694  23.995  1.00  0.00     0.186 C 
HETATM   26  O   UNL     1       6.353  -4.229  21.968  1.00  0.00    -0.205 OA
HETATM   27  O   UNL     1       7.381  -6.399  22.122  1.00  0.00    -0.205 OA
ENDBRANCH  22  24
ENDBRANCH  21  22
ENDBRANCH   1  21
TORSDOF 5
ENDMDL
MODEL 2
REMARK VINA RESULT:    -7.767      2.512      6.041
REMARK INTER + INTRA:         -10.764
REMARK INTER:                  -9.832
REMARK INTRA:                  -0.932
REMARK UNBOUND:                -0.727
REMARK  5 active torsions:
REMARK  status: ('A' for Active; 'I' for Inactive)
REMARK    1  A    between atoms: S_2  and  N_5 
REMARK    2  A    between atoms: N_5  and  C_7 
REMARK    3  A    between atoms: C_7  and  C_8 
REMARK    4  A    between atoms: C_15  and  C_16 
REMARK       I    between atoms: C_16  and  N_18 
REMARK    5  A    between atoms: N_18  and  C_20 
ROOT
HETATM    1  C   UNL     1       9.276  -0.095  23.030  1.00  0.00     0.040 A 
HETATM    2  C   UNL     1      10.304  -0.573  23.617  1.00  0.00     0.066 A 
HETATM    3  C   UNL     1      11.547  -1.540  22.770  1.00  0.00    -0.003 C 
HETATM    4  C   UNL     1      12.519  -1.512  23.061  1.00  0.00    -0.002 C 
HETATM    5  C   UNL     1      13.201  -0.711  24.022  1.00  0.00    -0.001 C 
HETATM    6  C   UNL     1      12.434   0.201  24.566  1.00  0.00    -0.002 C 
HETATM    7  C   UNL     1      11.364   0.417  24.439  1.00  0.00    -0.003 C 
HETATM    8  C   UNL     1       9.595  -1.302  24.268  1.00  0.00     0.049 A 
ENDROOT
BRANCH   8   9
HETATM    9  C   UNL     1       8.964  -2.098  25.144  1.00  0.00     0.255 C 
HETATM   10  O   UNL     1       8.755  -1.630  26.166  1.00  0.00    -0.268 OA
HETATM   11  N   UNL     1       8.727  -3.287  24.589  1.00  0.00    -0.321 N 
ATOM     12  HN  UNL     1       9.043  -3.501  23.643  1.00  0.00     0.169 HD
BRANCH  11  13
HETATM   13  C   UNL     1       8.111  -4.119  25.262  1.00  0.00     0.060 C 
HETATM   14  C   UNL     1       8.314  -5.011  26.238  1.00  0.00     0.117 C 
HETATM   15  N   UNL     1       8.047  -5.784  27.081  1.00  0.00    -0.373 N 
HETATM   16  C   UNL     1       6.781  -5.833  26.759  1.00  0.00     0.088 C 
ATOM     17  HN  UNL     1       8.601  -6.248  27.801  1.00  0.00     0.164 HD
HETATM   18  C   UNL     1       6.154  -5.201  25.876  1.00  0.00     0.030 C 
HETATM   19  C   UNL     1       6.561  -4.279  25.033  1.00  0.00    -0.016 C 
HETATM   20  C   UNL     1       5.858  -3.524  24.079  1.00  0.00     0.026 C 
ENDBRANCH  11  13
ENDBRANCH   8   9
BRANCH   1  21
HETATM   21  C   UNL     1       8.693   0.604  22.227  1.00  0.00    -0.022 C 
BRANCH  21  22
HETATM   22  N   UNL     1       8.291   1.008  21.198  1.00  0.00    -0.249 N 
ATOM     23  HN  UNL     1       8.707   1.880  20.872  1.00  0.00     0.188 HD
BRANCH  22  24
HETATM   24  S   UNL     1       7.179   0.371  20.241  1.00  0.00     0.233 S 
HETATM   25  C   UNL     1       5.776   1.531  20.358  1.00  0.00     0.186 C 
HETATM   26  O   UNL     1       7.575   0.415  18.860  1.00  0.00    -0.205 OA
HETATM   27  O   UNL     1       6.722  -0.909  20.678  1.00  0.00    -0.205 OA
ENDBRANCH  22  24
ENDBRANCH  21  22
ENDBRANCH   1  21
TORSDOF 5
ENDMDL
MODEL 3
REMARK VINA RESULT:    -7.714      2.659      6.374
REMARK INTER + INTRA:         -10.695
REMARK INTER:                 -10.063
REMARK INTRA:                  -0.633
REMARK UNBOUND:                -0.727
REMARK  5 active torsions:
REMARK  status: ('A' for Active; 'I' for Inactive)
REMARK    1  A    between atoms: S_2  and  N_5 
REMARK    2  A    between atoms: N_5  and  C_7 
REMARK    3  A    between atoms: C_7  and  C_8 
REMARK    4  A    between atoms: C_15  and  C_16 
REMARK       I    between atoms: C_16  and  N_18 
REMARK    5  A    between atoms: N_18  and  C_20 
ROOT
HETATM    1  C   UNL     1       6.672  -2.329  21.688  1.00  0.00     0.040 A 
HETATM    2  C   UNL     1       6.789  -3.361  22.432  1.00  0.00     0.066 A 
HETATM    3  C   UNL     1       5.580  -3.811  23.670  1.00  0.00    -0.003 C 
HETATM    4  C   UNL     1       5.409  -4.783  23.904  1.00  0.00    -0.002 C 
HETATM    5  C   UNL     1       5.887  -5.997  23.332  1.00  0.00    -0.001 C 
HETATM    6  C   UNL     1       6.621  -5.806  22.264  1.00  0.00    -0.002 C 
HETATM    7  C   UNL     1       6.959  -4.882  21.773  1.00  0.00    -0.003 C 
HETATM    8  C   UNL     1       7.754  -2.868  22.965  1.00  0.00     0.049 A 
ENDROOT
BRANCH   8   9
HETATM    9  C   UNL     1       8.891  -2.527  23.589  1.00  0.00     0.255 C 
HETATM   10  O   UNL     1       9.027  -2.972  24.634  1.00  0.00    -0.268 OA
HETATM   11  N   UNL     1       9.613  -1.722  22.810  1.00  0.00    -0.321 N 
ATOM     12  HN  UNL     1       9.270  -1.420  21.898  1.00  0.00     0.169 HD
BRANCH  11  13
HETATM   13  C   UNL     1      10.715  -1.355  23.232  1.00  0.00     0.060 C 
HETATM   14  C   UNL     1      12.010  -1.680  23.154  1.00  0.00     0.117 C 
HETATM   15  N   UNL     1      13.172  -1.566  23.282  1.00  0.00    -0.373 N 
HETATM   16  C   UNL     1      13.074  -0.521  24.061  1.00  0.00     0.088 C 
ATOM     17  HN  UNL     1      13.967  -2.091  22.917  1.00  0.00     0.164 HD
HETATM   18  C   UNL     1      12.054   0.101  24.442  1.00  0.00     0.030 C 
HETATM   19  C   UNL     1      10.785  -0.080  24.154  1.00  0.00    -0.016 C 
HETATM   20  C   UNL     1       9.640   0.643  24.529  1.00  0.00     0.026 C 
ENDBRANCH  11  13
ENDBRANCH   8   9
BRANCH   1  21
HETATM   21  C   UNL     1       6.144  -1.637  20.843  1.00  0.00    -0.022 C 
BRANCH  21  22
HETATM   22  N   UNL     1       5.716  -0.683  20.302  1.00  0.00    -0.249 N 
ATOM     23  HN  UNL     1       4.931  -0.226  20.766  1.00  0.00     0.188 HD
BRANCH  22  24
HETATM   24  S   UNL     1       6.202  -0.009  18.935  1.00  0.00     0.233 S 
HETATM   25  C   UNL     1       5.240   1.539  18.838  1.00  0.00     0.186 C 
HETATM   26  O   UNL     1       7.573   0.417  19.008  1.00  0.00    -0.205 OA
HETATM   27  O   UNL     1       5.891  -0.786  17.779  1.00  0.00    -0.205 OA
ENDBRANCH  22  24
ENDBRANCH  21  22
ENDBRANCH   1  21
TORSDOF 5
ENDMDL
MODEL 4
REMARK VINA RESULT:    -7.451      4.029      6.160
REMARK INTER + INTRA:         -10.356
REMARK INTER:                  -9.587
REMARK INTRA:                  -0.769
REMARK UNBOUND:                -0.727
REMARK  5 active torsions:
REMARK  status: ('A' for Active; 'I' for Inactive)
REMARK    1  A    between atoms: S_2  and  N_5 
REMARK    2  A    between atoms: N_5  and  C_7 
REMARK    3  A    between atoms: C_7  and  C_8 
REMARK    4  A    between atoms: C_15  and  C_16 
REMARK       I    between atoms: C_16  and  N_18 
REMARK    5  A    between atoms: N_18  and  C_20 
ROOT
HETATM    1  C   UNL     1       7.689  -4.734  25.460  1.00  0.00     0.040 A 
HETATM    2  C   UNL     1       7.185  -4.620  24.292  1.00  0.00     0.066 A 
HETATM    3  C   UNL     1       7.679  -5.649  22.915  1.00  0.00    -0.003 C 
HETATM    4  C   UNL     1       7.020  -5.897  22.185  1.00  0.00    -0.002 C 
HETATM    5  C   UNL     1       5.619  -5.676  22.054  1.00  0.00    -0.001 C 
HETATM    6  C   UNL     1       5.088  -5.114  23.113  1.00  0.00    -0.002 C 
HETATM    7  C   UNL     1       5.543  -4.754  24.046  1.00  0.00    -0.003 C 
HETATM    8  C   UNL     1       7.684  -3.526  24.182  1.00  0.00     0.049 A 
ENDROOT
BRANCH   8   9
HETATM    9  C   UNL     1       8.068  -2.266  23.928  1.00  0.00     0.255 C 
HETATM   10  O   UNL     1       7.396  -1.688  23.205  1.00  0.00    -0.268 OA
HETATM   11  N   UNL     1       9.182  -1.985  24.604  1.00  0.00    -0.321 N 
ATOM     12  HN  UNL     1       9.641  -2.689  25.183  1.00  0.00     0.169 HD
BRANCH  11  13
HETATM   13  C   UNL     1       9.637  -0.841  24.506  1.00  0.00     0.060 C 
HETATM   14  C   UNL     1       9.418   0.399  24.956  1.00  0.00     0.117 C 
HETATM   15  N   UNL     1       9.626   1.537  25.162  1.00  0.00    -0.373 N 
HETATM   16  C   UNL     1      10.661   1.583  24.365  1.00  0.00     0.088 C 
ATOM     17  HN  UNL     1       9.167   2.233  25.749  1.00  0.00     0.164 HD
HETATM   18  C   UNL     1      11.199   0.670  23.696  1.00  0.00     0.030 C 
HETATM   19  C   UNL     1      10.916  -0.611  23.615  1.00  0.00    -0.016 C 
HETATM   20  C   UNL     1      11.544  -1.654  22.914  1.00  0.00     0.026 C 
ENDBRANCH  11  13
ENDBRANCH   8   9
BRANCH   1  21
HETATM   21  C   UNL     1       7.936  -5.307  26.500  1.00  0.00    -0.022 C 
BRANCH  21  22
HETATM   22  N   UNL     1       7.824  -6.040  27.414  1.00  0.00    -0.249 N 
ATOM     23  HN  UNL     1       8.607  -6.673  27.572  1.00  0.00     0.188 HD
BRANCH  22  24
HETATM   24  S   UNL     1       6.604  -6.175  28.441  1.00  0.00     0.233 S 
HETATM   25  C   UNL     1       5.167  -6.538  27.377  1.00  0.00     0.186 C 
HETATM   26  O   UNL     1       6.740  -7.334  29.280  1.00  0.00    -0.205 OA
HETATM   27  O   UNL     1       6.326  -4.967  29.149  1.00  0.00    -0.205 OA
ENDBRANCH  22  24
ENDBRANCH  21  22
ENDBRANCH   1  21
TORSDOF 5
ENDMDL
MODEL 5
REMARK VINA RESULT:    -6.956      2.011      2.117
REMARK INTER + INTRA:          -9.716
REMARK INTER:                  -8.933
REMARK INTRA:                  -0.782
REMARK UNBOUND:                -0.727
REMARK  5 active torsions:
REMARK  status: ('A' for Active; 'I' for Inactive)
REMARK    1  A    between atoms: S_2  and  N_5 
REMARK    2  A    between atoms: N_5  and  C_7 
REMARK    3  A    between atoms: C_7  and  C_8 
REMARK    4  A    between atoms: C_15  and  C_16 
REMARK       I    between atoms: C_16  and  N_18 
REMARK    5  A    between atoms: N_18  and  C_20 
ROOT
HETATM    1  C   UNL     1       8.428  -1.789  24.802  1.00  0.00     0.040 A 
HETATM    2  C   UNL     1       9.156  -0.984  24.128  1.00  0.00     0.066 A 
HETATM    3  C   UNL     1       9.503   0.688  24.656  1.00  0.00    -0.003 C 
HETATM    4  C   UNL     1      10.383   1.137  24.426  1.00  0.00    -0.002 C 
HETATM    5  C   UNL     1      11.567   0.645  23.804  1.00  0.00    -0.001 C 
HETATM    6  C   UNL     1      11.520  -0.642  23.560  1.00  0.00    -0.002 C 
HETATM    7  C   UNL     1      10.720  -1.380  23.713  1.00  0.00    -0.003 C 
HETATM    8  C   UNL     1       8.326  -0.970  23.250  1.00  0.00     0.049 A 
ENDROOT
BRANCH   8   9
HETATM    9  C   UNL     1       7.575  -0.915  22.140  1.00  0.00     0.255 C 
HETATM   10  O   UNL     1       6.837  -1.778  22.007  1.00  0.00    -0.268 OA
HETATM   11  N   UNL     1       7.885   0.173  21.436  1.00  0.00    -0.321 N 
ATOM     12  HN  UNL     1       8.624   0.808  21.739  1.00  0.00     0.169 HD
BRANCH  11  13
HETATM   13  C   UNL     1       7.243   0.386  20.401  1.00  0.00     0.060 C 
HETATM   14  C   UNL     1       7.155  -0.039  19.136  1.00  0.00     0.117 C 
HETATM   15  N   UNL     1       6.709  -0.164  18.057  1.00  0.00    -0.373 N 
HETATM   16  C   UNL     1       5.817   0.778  18.220  1.00  0.00     0.088 C 
ATOM     17  HN  UNL     1       6.935  -0.783  17.278  1.00  0.00     0.164 HD
HETATM   18  C   UNL     1       5.569   1.480  19.228  1.00  0.00     0.030 C 
HETATM   19  C   UNL     1       6.096   1.465  20.432  1.00  0.00    -0.016 C 
HETATM   20  C   UNL     1       5.788   2.206  21.585  1.00  0.00     0.026 C 
ENDBRANCH  11  13
ENDBRANCH   8   9
BRANCH   1  21
HETATM   21  C   UNL     1       8.140  -2.465  25.768  1.00  0.00    -0.022 C 
BRANCH  21  22
HETATM   22  N   UNL     1       7.596  -3.268  26.434  1.00  0.00    -0.249 N 
ATOM     23  HN  UNL     1       6.991  -2.898  27.167  1.00  0.00     0.188 HD
BRANCH  22  24
HETATM   24  S   UNL     1       7.678  -4.863  26.343  1.00  0.00     0.233 S 
HETATM   25  C   UNL     1       6.039  -5.357  25.713  1.00  0.00     0.186 C 
HETATM   26  O   UNL     1       8.603  -5.292  25.330  1.00  0.00    -0.205 OA
HETATM   27  O   UNL     1       7.864  -5.493  27.610  1.00  0.00    -0.205 OA
ENDBRANCH  22  24
ENDBRANCH  21  22
ENDBRANCH   1  21
TORSDOF 5
ENDMDL
MODEL 6
REMARK VINA RESULT:    -6.905     14.421     15.898
REMARK INTER + INTRA:          -9.650
REMARK INTER:                  -8.790
REMARK INTRA:                  -0.860
REMARK UNBOUND:                -0.727
REMARK  5 active torsions:
REMARK  status: ('A' for Active; 'I' for Inactive)
REMARK    1  A    between atoms: S_2  and  N_5 
REMARK    2  A    between atoms: N_5  and  C_7 
REMARK    3  A    between atoms: C_7  and  C_8 
REMARK    4  A    between atoms: C_15  and  C_16 
REMARK       I    between atoms: C_16  and  N_18 
REMARK    5  A    between atoms: N_18  and  C_20 
ROOT
HETATM    1  C   UNL     1      23.600  -3.062  23.822  1.00  0.00     0.040 A 
HETATM    2  C   UNL     1      23.103  -1.885  23.831  1.00  0.00     0.066 A 
HETATM    3  C   UNL     1      21.355  -1.567  24.032  1.00  0.00    -0.003 C 
HETATM    4  C   UNL     1      21.026  -0.727  24.495  1.00  0.00    -0.002 C 
HETATM    5  C   UNL     1      21.717   0.310  25.186  1.00  0.00    -0.001 C 
HETATM    6  C   UNL     1      23.003   0.082  25.299  1.00  0.00    -0.002 C 
HETATM    7  C   UNL     1      23.629  -0.737  24.919  1.00  0.00    -0.003 C 
HETATM    8  C   UNL     1      23.412  -1.745  22.672  1.00  0.00     0.049 A 
ENDROOT
BRANCH   8   9
HETATM    9  C   UNL     1      23.769  -1.376  21.433  1.00  0.00     0.255 C 
HETATM   10  O   UNL     1      24.692  -0.703  21.372  1.00  0.00    -0.268 OA
HETATM   11  N   UNL     1      22.929  -1.902  20.542  1.00  0.00    -0.321 N 
ATOM     12  HN  UNL     1      22.130  -2.464  20.836  1.00  0.00     0.169 HD
BRANCH  11  13
HETATM   13  C   UNL     1      23.154  -1.686  19.347  1.00  0.00     0.060 C 
HETATM   14  C   UNL     1      22.905  -0.775  18.399  1.00  0.00     0.117 C 
HETATM   15  N   UNL     1      22.996  -0.226  17.364  1.00  0.00    -0.373 N 
HETATM   16  C   UNL     1      23.706  -1.179  16.820  1.00  0.00     0.088 C 
ATOM     17  HN  UNL     1      22.647   0.668  17.018  1.00  0.00     0.164 HD
HETATM   18  C   UNL     1      24.135  -2.245  17.322  1.00  0.00     0.030 C 
HETATM   19  C   UNL     1      24.035  -2.716  18.545  1.00  0.00    -0.016 C 
HETATM   20  C   UNL     1      24.558  -3.879  19.133  1.00  0.00     0.026 C 
ENDBRANCH  11  13
ENDBRANCH   8   9
BRANCH   1  21
HETATM   21  C   UNL     1      23.869  -4.145  24.297  1.00  0.00    -0.022 C 
BRANCH  21  22
HETATM   22  N   UNL     1      23.931  -5.314  24.425  1.00  0.00    -0.249 N 
ATOM     23  HN  UNL     1      23.679  -5.862  23.603  1.00  0.00     0.188 HD
BRANCH  22  24
HETATM   24  S   UNL     1      24.358  -6.155  25.716  1.00  0.00     0.233 S 
HETATM   25  C   UNL     1      26.180  -6.062  25.725  1.00  0.00     0.186 C 
HETATM   26  O   UNL     1      23.953  -5.507  26.933  1.00  0.00    -0.205 OA
HETATM   27  O   UNL     1      23.994  -7.533  25.639  1.00  0.00    -0.205 OA
ENDBRANCH  22  24
ENDBRANCH  21  22
ENDBRANCH   1  21
TORSDOF 5
ENDMDL
MODEL 7
REMARK VINA RESULT:    -6.757      2.395      3.041
REMARK INTER + INTRA:          -9.459
REMARK INTER:                  -8.899
REMARK INTRA:                  -0.560
REMARK UNBOUND:                -0.727
REMARK  5 active torsions:
REMARK  status: ('A' for Active; 'I' for Inactive)
REMARK    1  A    between atoms: S_2  and  N_5 
REMARK    2  A    between atoms: N_5  and  C_7 
REMARK    3  A    between atoms: C_7  and  C_8 
REMARK    4  A    between atoms: C_15  and  C_16 
REMARK       I    between atoms: C_16  and  N_18 
REMARK    5  A    between atoms: N_18  and  C_20 
ROOT
HETATM    1  C   UNL     1       6.542  -3.921  23.999  1.00  0.00     0.040 A 
HETATM    2  C   UNL     1       7.187  -2.822  23.907  1.00  0.00     0.066 A 
HETATM    3  C   UNL     1       6.956  -1.460  25.042  1.00  0.00    -0.003 C 
HETATM    4  C   UNL     1       7.723  -0.837  25.275  1.00  0.00    -0.002 C 
HETATM    5  C   UNL     1       9.109  -0.874  24.948  1.00  0.00    -0.001 C 
HETATM    6  C   UNL     1       9.452  -1.954  24.291  1.00  0.00    -0.002 C 
HETATM    7  C   UNL     1       8.853  -2.798  23.920  1.00  0.00    -0.003 C 
HETATM    8  C   UNL     1       6.628  -2.581  22.863  1.00  0.00     0.049 A 
ENDROOT
BRANCH   8   9
HETATM    9  C   UNL     1       6.191  -2.202  21.654  1.00  0.00     0.255 C 
HETATM   10  O   UNL     1       5.558  -2.976  21.099  1.00  0.00    -0.268 OA
HETATM   11  N   UNL     1       6.616  -0.968  21.383  1.00  0.00    -0.321 N 
ATOM     12  HN  UNL     1       7.217  -0.461  22.033  1.00  0.00     0.169 HD
BRANCH  11  13
HETATM   13  C   UNL     1       6.256  -0.460  20.316  1.00  0.00     0.060 C 
HETATM   14  C   UNL     1       5.957  -0.805  19.059  1.00  0.00     0.117 C 
HETATM   15  N   UNL     1       5.549  -0.687  17.963  1.00  0.00    -0.373 N 
HETATM   16  C   UNL     1       5.404   0.608  18.062  1.00  0.00     0.088 C 
ATOM     17  HN  UNL     1       5.373  -1.352  17.211  1.00  0.00     0.164 HD
HETATM   18  C   UNL     1       5.608   1.365  19.041  1.00  0.00     0.030 C 
HETATM   19  C   UNL     1       5.992   1.092  20.267  1.00  0.00    -0.016 C 
HETATM   20  C   UNL     1       6.170   1.922  21.387  1.00  0.00     0.026 C 
ENDBRANCH  11  13
ENDBRANCH   8   9
BRANCH   1  21
HETATM   21  C   UNL     1       6.202  -4.954  24.535  1.00  0.00    -0.022 C 
BRANCH  21  22
HETATM   22  N   UNL     1       6.031  -5.762  25.374  1.00  0.00    -0.249 N 
ATOM     23  HN  UNL     1       5.485  -6.578  25.098  1.00  0.00     0.188 HD
BRANCH  22  24
HETATM   24  S   UNL     1       6.540  -5.750  26.890  1.00  0.00     0.233 S 
HETATM   25  C   UNL     1       5.822  -4.225  27.588  1.00  0.00     0.186 C 
HETATM   26  O   UNL     1       5.954  -6.815  27.658  1.00  0.00    -0.205 OA
HETATM   27  O   UNL     1       7.960  -5.655  27.009  1.00  0.00    -0.205 OA
ENDBRANCH  22  24
ENDBRANCH  21  22
ENDBRANCH   1  21
TORSDOF 5
ENDMDL
MODEL 8
REMARK VINA RESULT:    -6.684      3.247      6.776
REMARK INTER + INTRA:          -9.364
REMARK INTER:                  -8.633
REMARK INTRA:                  -0.731
REMARK UNBOUND:                -0.727
REMARK  5 active torsions:
REMARK  status: ('A' for Active; 'I' for Inactive)
REMARK    1  A    between atoms: S_2  and  N_5 
REMARK    2  A    between atoms: N_5  and  C_7 
REMARK    3  A    between atoms: C_7  and  C_8 
REMARK    4  A    between atoms: C_15  and  C_16 
REMARK       I    between atoms: C_16  and  N_18 
REMARK    5  A    between atoms: N_18  and  C_20 
ROOT
HETATM    1  C   UNL     1       8.239   0.975  21.461  1.00  0.00     0.040 A 
HETATM    2  C   UNL     1       7.256   0.612  20.731  1.00  0.00     0.066 A 
HETATM    3  C   UNL     1       5.724   1.529  20.636  1.00  0.00    -0.003 C 
HETATM    4  C   UNL     1       5.175   1.543  19.782  1.00  0.00    -0.002 C 
HETATM    5  C   UNL     1       5.434   1.032  18.478  1.00  0.00    -0.001 C 
HETATM    6  C   UNL     1       6.634   0.520  18.357  1.00  0.00    -0.002 C 
HETATM    7  C   UNL     1       7.440   0.382  19.091  1.00  0.00    -0.003 C 
HETATM    8  C   UNL     1       7.103  -0.366  21.423  1.00  0.00     0.049 A 
ENDROOT
BRANCH   8   9
HETATM    9  C   UNL     1       6.853  -1.546  22.010  1.00  0.00     0.255 C 
HETATM   10  O   UNL     1       6.149  -2.238  21.433  1.00  0.00    -0.268 OA
HETATM   11  N   UNL     1       7.510  -1.626  23.167  1.00  0.00    -0.321 N 
ATOM     12  HN  UNL     1       8.073  -0.848  23.511  1.00  0.00     0.169 HD
BRANCH  11  13
HETATM   13  C   UNL     1       7.414  -2.679  23.807  1.00  0.00     0.060 C 
HETATM   14  C   UNL     1       7.990  -3.881  23.908  1.00  0.00     0.117 C 
HETATM   15  N   UNL     1       8.239  -4.936  24.361  1.00  0.00    -0.373 N 
HETATM   16  C   UNL     1       7.265  -4.891  25.232  1.00  0.00     0.088 C 
ATOM     17  HN  UNL     1       8.954  -5.633  24.151  1.00  0.00     0.164 HD
HETATM   18  C   UNL     1       6.439  -3.977  25.463  1.00  0.00     0.030 C 
HETATM   19  C   UNL     1       6.316  -2.781  24.932  1.00  0.00    -0.016 C 
HETATM   20  C   UNL     1       5.431  -1.729  25.220  1.00  0.00     0.026 C 
ENDBRANCH  11  13
ENDBRANCH   8   9
BRANCH   1  21
HETATM   21  C   UNL     1       9.131   1.718  21.814  1.00  0.00    -0.022 C 
BRANCH  21  22
HETATM   22  N   UNL     1      10.203   2.089  22.129  1.00  0.00    -0.249 N 
ATOM     23  HN  UNL     1      10.825   2.346  21.363  1.00  0.00     0.188 HD
BRANCH  22  24
HETATM   24  S   UNL     1      10.813   2.246  23.599  1.00  0.00     0.233 S 
HETATM   25  C   UNL     1      11.552   3.913  23.598  1.00  0.00     0.186 C 
HETATM   26  O   UNL     1       9.784   2.302  24.601  1.00  0.00    -0.205 OA
HETATM   27  O   UNL     1      11.854   1.310  23.881  1.00  0.00    -0.205 OA
ENDBRANCH  22  24
ENDBRANCH  21  22
ENDBRANCH   1  21
TORSDOF 5
ENDMDL
MODEL 9
REMARK VINA RESULT:    -6.681      4.147      8.137
REMARK INTER + INTRA:          -9.360
REMARK INTER:                  -8.615
REMARK INTRA:                  -0.745
REMARK UNBOUND:                -0.727
REMARK  5 active torsions:
REMARK  status: ('A' for Active; 'I' for Inactive)
REMARK    1  A    between atoms: S_2  and  N_5 
REMARK    2  A    between atoms: N_5  and  C_7 
REMARK    3  A    between atoms: C_7  and  C_8 
REMARK    4  A    between atoms: C_15  and  C_16 
REMARK       I    between atoms: C_16  and  N_18 
REMARK    5  A    between atoms: N_18  and  C_20 
ROOT
HETATM    1  C   UNL     1       8.269  -3.690  24.066  1.00  0.00     0.040 A 
HETATM    2  C   UNL     1       7.328  -4.489  23.737  1.00  0.00     0.066 A 
HETATM    3  C   UNL     1       5.764  -3.929  23.073  1.00  0.00    -0.003 C 
HETATM    4  C   UNL     1       5.246  -4.494  22.408  1.00  0.00    -0.002 C 
HETATM    5  C   UNL     1       5.572  -5.706  21.735  1.00  0.00    -0.001 C 
HETATM    6  C   UNL     1       6.795  -6.112  21.972  1.00  0.00    -0.002 C 
HETATM    7  C   UNL     1       7.579  -5.705  22.625  1.00  0.00    -0.003 C 
HETATM    8  C   UNL     1       7.189  -4.804  24.894  1.00  0.00     0.049 A 
ENDROOT
BRANCH   8   9
HETATM    9  C   UNL     1       6.967  -5.347  26.100  1.00  0.00     0.255 C 
HETATM   10  O   UNL     1       7.899  -5.718  26.648  1.00  0.00    -0.268 OA
HETATM   11  N   UNL     1       5.663  -5.321  26.376  1.00  0.00    -0.321 N 
ATOM     12  HN  UNL     1       4.986  -4.960  25.704  1.00  0.00     0.169 HD
BRANCH  11  13
HETATM   13  C   UNL     1       5.303  -5.750  27.478  1.00  0.00     0.060 C 
HETATM   14  C   UNL     1       5.187  -6.901  28.149  1.00  0.00     0.117 C 
HETATM   15  N   UNL     1       5.024  -7.617  29.066  1.00  0.00    -0.373 N 
HETATM   16  C   UNL     1       4.619  -6.657  29.856  1.00  0.00     0.088 C 
ATOM     17  HN  UNL     1       5.151  -8.620  29.197  1.00  0.00     0.164 HD
HETATM   18  C   UNL     1       4.521  -5.427  29.637  1.00  0.00     0.030 C 
HETATM   19  C   UNL     1       4.823  -4.721  28.570  1.00  0.00    -0.016 C 
HETATM   20  C   UNL     1       4.772  -3.338  28.332  1.00  0.00     0.026 C 
ENDBRANCH  11  13
ENDBRANCH   8   9
BRANCH   1  21
HETATM   21  C   UNL     1       9.118  -2.848  23.862  1.00  0.00    -0.022 C 
BRANCH  21  22
HETATM   22  N   UNL     1       9.789  -1.893  24.015  1.00  0.00    -0.249 N 
ATOM     23  HN  UNL     1       9.787  -1.497  24.955  1.00  0.00     0.188 HD
BRANCH  22  24
HETATM   24  S   UNL     1      10.704  -1.135  22.945  1.00  0.00     0.233 S 
HETATM   25  C   UNL     1      11.300   0.341  23.837  1.00  0.00     0.186 C 
HETATM   26  O   UNL     1      11.893  -1.881  22.636  1.00  0.00    -0.205 OA
HETATM   27  O   UNL     1       9.981  -0.686  21.799  1.00  0.00    -0.205 OA
ENDBRANCH  22  24
ENDBRANCH  21  22
ENDBRANCH   1  21
TORSDOF 5
ENDMDL
