stable:False satoms:5 tatoms:24 sratio:0.20833333333333334
  -OEChem-07092417473D

 24 26  0     1  0  0  0  0  0999 V2000
    6.5564   -4.8474   26.4355 C   0  0  0  0  0  0  0  0  0  0  0  0
    8.2503   -4.2710   26.0808 S   0  0  0  0  0  0  0  0  0  0  0  0
    9.0323   -5.4728   25.9833 O   0  0  0  0  0  0  0  0  0  0  0  0
    8.6444   -3.4008   27.1423 O   0  0  0  0  0  0  0  0  0  0  0  0
    8.1211   -3.5304   24.6692 N   0  0  0  0  0  0  0  0  0  0  0  0
    8.9322   -2.9008   24.0927 C   0  0  0  0  0  0  0  0  0  0  0  0
    9.4416   -1.9915   23.4720 C   0  0  0  0  0  0  0  0  0  0  0  0
   10.3848   -1.1893   23.1605 C   0  0  1  0  0  0  0  0  0  0  0  0
   11.0665    0.0037   24.3047 C   0  0  0  0  0  0  0  0  0  0  0  0
   12.0407    0.2798   24.2536 C   0  0  0  0  0  0  0  0  0  0  0  0
   13.1236   -0.1987   23.4621 C   0  0  0  0  0  0  0  0  0  0  0  0
   12.8018   -1.2345   22.7262 C   0  0  0  0  0  0  0  0  0  0  0  0
   11.8435   -1.7552   22.5882 C   0  0  0  0  0  0  0  0  0  0  0  0
    9.6519   -0.6312   22.3790 C   0  0  1  0  0  0  0  0  0  0  0  0
    9.0216    0.0349   21.3997 C   0  0  0  0  0  0  0  0  0  0  0  0
    9.5771    0.9503   20.9966 O   0  0  0  0  0  0  0  0  0  0  0  0
    7.8582   -0.5538   21.1264 N   0  0  0  0  0  0  0  0  0  0  0  0
    7.1777   -0.0781   20.2110 C   0  0  0  0  0  0  0  0  0  0  0  0
    7.1925    0.0628   18.8807 C   0  0  0  0  0  0  0  0  0  0  0  0
    6.7853    0.3057   17.8064 N   0  0  0  0  0  0  0  0  0  0  0  0
    5.6871    0.8587   18.2505 C   0  0  0  0  0  0  0  0  0  0  0  0
    5.2764    0.9924   19.4275 C   0  0  0  0  0  0  0  0  0  0  0  0
    5.7971    0.5920   20.5651 C   0  0  0  0  0  0  0  0  0  0  0  0
    5.3200    0.6850   21.8828 C   0  0  0  0  0  0  0  0  0  0  0  0
 20 21  2  0  0  0  0
 19 20  1  0  0  0  0
 21 22  1  0  0  0  0
 18 19  2  0  0  0  0
 22 23  2  0  0  0  0
 18 23  1  0  0  0  0
 17 18  1  0  0  0  0
 23 24  1  0  0  0  0
 15 16  2  0  0  0  0
 15 17  1  0  0  0  0
 14 15  1  0  0  0  0
  8 14  1  0  0  0  0
  7 14  1  0  0  0  0
 12 13  1  0  0  0  0
  8 13  1  0  0  0  0
 11 12  2  0  0  0  0
  7  8  1  0  0  0  0
  8  9  1  0  0  0  0
 10 11  1  0  0  0  0
  6  7  2  3  0  0  0
  5  6  1  0  0  0  0
  9 10  2  0  0  0  0
  2  5  1  0  0  0  0
  2  3  2  0  0  0  0
  1  2  1  0  0  0  0
  2  4  2  0  0  0  0
M  END
> <Shapegauss>
-287.741272

$$$$
