MODEL 1
REMARK VINA RESULT:    -7.936      0.000      0.000
REMARK INTER + INTRA:         -10.655
REMARK INTER:                  -9.792
REMARK INTRA:                  -0.863
REMARK UNBOUND:                -0.863
REMARK  4 active torsions:
REMARK  status: ('A' for Active; 'I' for Inactive)
REMARK    1  A    between atoms: S_2  and  N_5 
REMARK    2  A    between atoms: N_5  and  C_7 
REMARK    3  A    between atoms: C_15  and  C_16 
REMARK       I    between atoms: C_16  and  N_18 
REMARK    4  A    between atoms: N_18  and  C_20 
ROOT
HETATM    1  C   UNL     1       8.750   0.884  22.203  1.00  0.00     0.109 C 
HETATM    2  C   UNL     1       9.228   0.071  23.002  1.00  0.00    -0.008 A 
HETATM    3  C   UNL     1      10.247  -0.507  23.524  1.00  0.00     0.058 A 
HETATM    4  C   UNL     1      11.455  -1.472  22.722  1.00  0.00    -0.003 C 
HETATM    5  C   UNL     1      12.440  -1.505  23.016  1.00  0.00    -0.002 C 
HETATM    6  C   UNL     1      13.213  -0.701  24.026  1.00  0.00    -0.001 C 
HETATM    7  C   UNL     1      12.349   0.239  24.593  1.00  0.00    -0.002 C 
HETATM    8  C   UNL     1      11.328   0.483  24.513  1.00  0.00    -0.003 C 
HETATM    9  C   UNL     1       9.606  -1.146  24.272  1.00  0.00     0.040 A 
ENDROOT
BRANCH   9  10
HETATM   10  C   UNL     1       8.883  -1.935  25.137  1.00  0.00     0.254 C 
HETATM   11  O   UNL     1       8.521  -1.462  26.101  1.00  0.00    -0.268 OA
HETATM   12  N   UNL     1       8.762  -3.142  24.663  1.00  0.00    -0.321 N 
ATOM     13  HN  UNL     1       9.178  -3.395  23.767  1.00  0.00     0.169 HD
BRANCH  12  14
HETATM   14  C   UNL     1       8.110  -4.000  25.349  1.00  0.00     0.056 A 
HETATM   15  C   UNL     1       8.341  -4.836  26.253  1.00  0.00     0.117 A 
HETATM   16  N   UNL     1       7.973  -5.764  27.092  1.00  0.00    -0.373 N 
HETATM   17  C   UNL     1       6.739  -5.733  26.770  1.00  0.00     0.088 A 
ATOM     18  HN  UNL     1       8.493  -6.322  27.770  1.00  0.00     0.164 HD
HETATM   19  C   UNL     1       6.068  -5.065  25.908  1.00  0.00     0.026 A 
HETATM   20  C   UNL     1       6.504  -4.164  25.122  1.00  0.00    -0.033 A 
HETATM   21  C   UNL     1       5.776  -3.305  24.052  1.00  0.00     0.050 C 
ENDBRANCH  12  14
ENDBRANCH   9  10
BRANCH   1  22
HETATM   22  N   UNL     1       7.892   1.258  21.418  1.00  0.00    -0.295 N 
ATOM     23  HN  UNL     1       7.599   2.234  21.470  1.00  0.00     0.177 HD
BRANCH  22  24
HETATM   24  S   UNL     1       7.195   0.334  20.312  1.00  0.00     0.226 S 
HETATM   25  C   UNL     1       5.732   1.224  19.857  1.00  0.00     0.186 C 
HETATM   26  O   UNL     1       7.978   0.160  19.107  1.00  0.00    -0.206 OA
HETATM   27  O   UNL     1       6.756  -0.925  20.836  1.00  0.00    -0.206 OA
ENDBRANCH  22  24
ENDBRANCH   1  22
TORSDOF 4
ENDMDL
MODEL 2
REMARK VINA RESULT:    -7.434      3.433      7.331
REMARK INTER + INTRA:         -10.035
REMARK INTER:                  -9.523
REMARK INTRA:                  -0.513
REMARK UNBOUND:                -0.863
REMARK  4 active torsions:
REMARK  status: ('A' for Active; 'I' for Inactive)
REMARK    1  A    between atoms: S_2  and  N_5 
REMARK    2  A    between atoms: N_5  and  C_7 
REMARK    3  A    between atoms: C_15  and  C_16 
REMARK       I    between atoms: C_16  and  N_18 
REMARK    4  A    between atoms: N_18  and  C_20 
ROOT
HETATM    1  C   UNL     1       7.305  -5.263  26.206  1.00  0.00     0.109 C 
HETATM    2  C   UNL     1       7.503  -4.747  25.100  1.00  0.00    -0.008 A 
HETATM    3  C   UNL     1       7.298  -4.716  23.834  1.00  0.00     0.058 A 
HETATM    4  C   UNL     1       7.645  -5.959  22.665  1.00  0.00    -0.003 C 
HETATM    5  C   UNL     1       7.076  -6.121  21.825  1.00  0.00    -0.002 C 
HETATM    6  C   UNL     1       5.757  -5.549  21.382  1.00  0.00    -0.001 C 
HETATM    7  C   UNL     1       5.307  -4.667  22.367  1.00  0.00    -0.002 C 
HETATM    8  C   UNL     1       5.670  -4.297  23.284  1.00  0.00    -0.003 C 
HETATM    9  C   UNL     1       7.960  -3.763  23.666  1.00  0.00     0.040 A 
ENDROOT
BRANCH   9  10
HETATM   10  C   UNL     1       8.758  -2.666  23.428  1.00  0.00     0.254 C 
HETATM   11  O   UNL     1       8.808  -2.274  22.367  1.00  0.00    -0.268 OA
HETATM   12  N   UNL     1       9.344  -2.281  24.525  1.00  0.00    -0.321 N 
ATOM     13  HN  UNL     1       9.189  -2.777  25.403  1.00  0.00     0.169 HD
BRANCH  12  14
HETATM   14  C   UNL     1      10.119  -1.267  24.475  1.00  0.00     0.056 A 
HETATM   15  C   UNL     1      11.284  -1.006  24.094  1.00  0.00     0.117 A 
HETATM   16  N   UNL     1      12.284  -0.191  23.905  1.00  0.00    -0.373 N 
HETATM   17  C   UNL     1      11.681   0.842  24.349  1.00  0.00     0.088 A 
ATOM     18  HN  UNL     1      13.223  -0.331  23.533  1.00  0.00     0.164 HD
HETATM   19  C   UNL     1      10.518   1.040  24.845  1.00  0.00     0.026 A 
HETATM   20  C   UNL     1       9.586   0.184  24.993  1.00  0.00    -0.033 A 
HETATM   21  C   UNL     1       8.154   0.326  25.578  1.00  0.00     0.050 C 
ENDBRANCH  12  14
ENDBRANCH   9  10
BRANCH   1  22
HETATM   22  N   UNL     1       7.658  -5.600  27.326  1.00  0.00    -0.295 N 
ATOM     23  HN  UNL     1       8.657  -5.581  27.530  1.00  0.00     0.177 HD
BRANCH  22  24
HETATM   24  S   UNL     1       6.672  -6.072  28.495  1.00  0.00     0.226 S 
HETATM   25  C   UNL     1       5.175  -6.512  27.656  1.00  0.00     0.186 C 
HETATM   26  O   UNL     1       7.121  -7.249  29.209  1.00  0.00    -0.206 OA
HETATM   27  O   UNL     1       6.334  -5.012  29.398  1.00  0.00    -0.206 OA
ENDBRANCH  22  24
ENDBRANCH   1  22
TORSDOF 4
ENDMDL
MODEL 3
REMARK VINA RESULT:    -7.260      1.810      2.129
REMARK INTER + INTRA:          -9.821
REMARK INTER:                  -9.043
REMARK INTRA:                  -0.777
REMARK UNBOUND:                -0.863
REMARK  4 active torsions:
REMARK  status: ('A' for Active; 'I' for Inactive)
REMARK    1  A    between atoms: S_2  and  N_5 
REMARK    2  A    between atoms: N_5  and  C_7 
REMARK    3  A    between atoms: C_15  and  C_16 
REMARK       I    between atoms: C_16  and  N_18 
REMARK    4  A    between atoms: N_18  and  C_20 
ROOT
HETATM    1  C   UNL     1       6.774  -0.874  21.208  1.00  0.00     0.109 C 
HETATM    2  C   UNL     1       7.456  -1.446  22.066  1.00  0.00    -0.008 A 
HETATM    3  C   UNL     1       8.517  -1.508  22.784  1.00  0.00     0.058 A 
HETATM    4  C   UNL     1      10.169  -1.614  22.242  1.00  0.00    -0.003 C 
HETATM    5  C   UNL     1      10.959  -1.193  22.748  1.00  0.00    -0.002 C 
HETATM    6  C   UNL     1      11.012  -0.269  23.934  1.00  0.00    -0.001 C 
HETATM    7  C   UNL     1       9.703   0.022  24.324  1.00  0.00    -0.002 C 
HETATM    8  C   UNL     1       8.735  -0.267  24.024  1.00  0.00    -0.003 C 
HETATM    9  C   UNL     1       8.180  -2.482  23.345  1.00  0.00     0.040 A 
ENDROOT
BRANCH   9  10
HETATM   10  C   UNL     1       7.832  -3.643  23.998  1.00  0.00     0.254 C 
HETATM   11  O   UNL     1       7.983  -4.621  23.447  1.00  0.00    -0.268 OA
HETATM   12  N   UNL     1       7.354  -3.376  25.180  1.00  0.00    -0.321 N 
ATOM     13  HN  UNL     1       7.276  -2.413  25.507  1.00  0.00     0.169 HD
BRANCH  12  14
HETATM   14  C   UNL     1       6.987  -4.351  25.919  1.00  0.00     0.056 A 
HETATM   15  C   UNL     1       7.489  -5.093  26.794  1.00  0.00     0.117 A 
HETATM   16  N   UNL     1       7.427  -6.067  27.660  1.00  0.00    -0.373 N 
HETATM   17  C   UNL     1       6.196  -6.332  27.454  1.00  0.00     0.088 A 
ATOM     18  HN  UNL     1       8.122  -6.475  28.285  1.00  0.00     0.164 HD
HETATM   19  C   UNL     1       5.312  -5.856  26.660  1.00  0.00     0.026 A 
HETATM   20  C   UNL     1       5.451  -4.891  25.840  1.00  0.00    -0.033 A 
HETATM   21  C   UNL     1       4.447  -4.246  24.845  1.00  0.00     0.050 C 
ENDBRANCH  12  14
ENDBRANCH   9  10
BRANCH   1  22
HETATM   22  N   UNL     1       6.001  -0.867  20.263  1.00  0.00    -0.295 N 
ATOM     23  HN  UNL     1       5.195  -1.490  20.310  1.00  0.00     0.177 HD
BRANCH  22  24
HETATM   24  S   UNL     1       6.155   0.046  18.957  1.00  0.00     0.226 S 
HETATM   25  C   UNL     1       5.058   1.408  19.242  1.00  0.00     0.186 C 
HETATM   26  O   UNL     1       7.481   0.601  18.776  1.00  0.00    -0.206 OA
HETATM   27  O   UNL     1       5.694  -0.603  17.767  1.00  0.00    -0.206 OA
ENDBRANCH  22  24
ENDBRANCH   1  22
TORSDOF 4
ENDMDL
MODEL 4
REMARK VINA RESULT:    -7.011     13.884     16.351
REMARK INTER + INTRA:          -9.513
REMARK INTER:                  -8.737
REMARK INTRA:                  -0.776
REMARK UNBOUND:                -0.863
REMARK  4 active torsions:
REMARK  status: ('A' for Active; 'I' for Inactive)
REMARK    1  A    between atoms: S_2  and  N_5 
REMARK    2  A    between atoms: N_5  and  C_7 
REMARK    3  A    between atoms: C_15  and  C_16 
REMARK       I    between atoms: C_16  and  N_18 
REMARK    4  A    between atoms: N_18  and  C_20 
ROOT
HETATM    1  C   UNL     1      23.625  -4.106  24.478  1.00  0.00     0.109 C 
HETATM    2  C   UNL     1      23.436  -3.044  23.873  1.00  0.00    -0.008 A 
HETATM    3  C   UNL     1      22.969  -1.850  23.841  1.00  0.00     0.058 A 
HETATM    4  C   UNL     1      21.315  -1.345  24.051  1.00  0.00    -0.003 C 
HETATM    5  C   UNL     1      21.047  -0.454  24.488  1.00  0.00    -0.002 C 
HETATM    6  C   UNL     1      21.853   0.593  25.208  1.00  0.00    -0.001 C 
HETATM    7  C   UNL     1      23.184   0.171  25.251  1.00  0.00    -0.002 C 
HETATM    8  C   UNL     1      23.737  -0.647  24.885  1.00  0.00    -0.003 C 
HETATM    9  C   UNL     1      23.354  -1.640  22.753  1.00  0.00     0.040 A 
ENDROOT
BRANCH   9  10
HETATM   10  C   UNL     1      23.761  -1.371  21.466  1.00  0.00     0.254 C 
HETATM   11  O   UNL     1      24.740  -0.819  21.329  1.00  0.00    -0.268 OA
HETATM   12  N   UNL     1      22.886  -1.813  20.608  1.00  0.00    -0.321 N 
ATOM     13  HN  UNL     1      22.036  -2.281  20.923  1.00  0.00     0.169 HD
BRANCH  12  14
HETATM   14  C   UNL     1      23.119  -1.646  19.363  1.00  0.00     0.056 A 
HETATM   15  C   UNL     1      22.879  -0.790  18.480  1.00  0.00     0.117 A 
HETATM   16  N   UNL     1      22.952  -0.335  17.260  1.00  0.00    -0.373 N 
HETATM   17  C   UNL     1      23.643  -1.309  16.811  1.00  0.00     0.088 A 
ATOM     18  HN  UNL     1      22.583   0.507  16.819  1.00  0.00     0.164 HD
HETATM   19  C   UNL     1      24.094  -2.387  17.334  1.00  0.00     0.026 A 
HETATM   20  C   UNL     1      23.984  -2.760  18.546  1.00  0.00    -0.033 A 
HETATM   21  C   UNL     1      24.492  -4.038  19.270  1.00  0.00     0.050 C 
ENDBRANCH  12  14
ENDBRANCH   9  10
BRANCH   1  22
HETATM   22  N   UNL     1      23.723  -5.322  24.531  1.00  0.00    -0.295 N 
ATOM     23  HN  UNL     1      23.373  -5.859  23.737  1.00  0.00     0.177 HD
BRANCH  22  24
HETATM   24  S   UNL     1      24.361  -6.139  25.752  1.00  0.00     0.226 S 
HETATM   25  C   UNL     1      26.110  -5.993  25.510  1.00  0.00     0.186 C 
HETATM   26  O   UNL     1      24.065  -5.582  27.055  1.00  0.00    -0.206 OA
HETATM   27  O   UNL     1      24.061  -7.538  25.702  1.00  0.00    -0.206 OA
ENDBRANCH  22  24
ENDBRANCH   1  22
TORSDOF 4
ENDMDL
MODEL 5
REMARK VINA RESULT:    -6.524     24.680     27.606
REMARK INTER + INTRA:          -8.912
REMARK INTER:                  -8.204
REMARK INTRA:                  -0.708
REMARK UNBOUND:                -0.863
REMARK  4 active torsions:
REMARK  status: ('A' for Active; 'I' for Inactive)
REMARK    1  A    between atoms: S_2  and  N_5 
REMARK    2  A    between atoms: N_5  and  C_7 
REMARK    3  A    between atoms: C_15  and  C_16 
REMARK       I    between atoms: C_16  and  N_18 
REMARK    4  A    between atoms: N_18  and  C_20 
ROOT
HETATM    1  C   UNL     1       7.880  14.144   2.283  1.00  0.00     0.109 C 
HETATM    2  C   UNL     1       8.444  15.219   2.519  1.00  0.00    -0.008 A 
HETATM    3  C   UNL     1       8.624  16.461   2.258  1.00  0.00     0.058 A 
HETATM    4  C   UNL     1       9.182  17.169   0.767  1.00  0.00    -0.003 C 
HETATM    5  C   UNL     1       8.872  18.088   0.427  1.00  0.00    -0.002 C 
HETATM    6  C   UNL     1       7.803  19.030   0.912  1.00  0.00    -0.001 C 
HETATM    7  C   UNL     1       7.169  18.446   2.011  1.00  0.00    -0.002 C 
HETATM    8  C   UNL     1       7.279  17.564   2.576  1.00  0.00    -0.003 C 
HETATM    9  C   UNL     1       9.395  16.618   3.129  1.00  0.00     0.040 A 
ENDROOT
BRANCH   9  10
HETATM   10  C   UNL     1      10.327  16.829   4.119  1.00  0.00     0.254 C 
HETATM   11  O   UNL     1      11.185  16.094   4.198  1.00  0.00    -0.268 OA
HETATM   12  N   UNL     1      10.016  17.880   4.823  1.00  0.00    -0.321 N 
ATOM     13  HN  UNL     1       9.178  18.421   4.612  1.00  0.00     0.169 HD
BRANCH  12  14
HETATM   14  C   UNL     1      10.788  18.216   5.784  1.00  0.00     0.056 A 
HETATM   15  C   UNL     1      10.897  17.987   7.011  1.00  0.00     0.117 A 
HETATM   16  N   UNL     1      11.485  18.130   8.167  1.00  0.00    -0.373 N 
HETATM   17  C   UNL     1      12.410  18.894   7.736  1.00  0.00     0.088 A 
ATOM     18  HN  UNL     1      11.275  17.759   9.094  1.00  0.00     0.164 HD
HETATM   19  C   UNL     1      12.680  19.395   6.589  1.00  0.00     0.026 A 
HETATM   20  C   UNL     1      12.055  19.201   5.497  1.00  0.00    -0.033 A 
HETATM   21  C   UNL     1      12.302  19.756   4.067  1.00  0.00     0.050 C 
ENDBRANCH  12  14
ENDBRANCH   9  10
BRANCH   1  22
HETATM   22  N   UNL     1       7.854  12.926   2.208  1.00  0.00    -0.295 N 
ATOM     23  HN  UNL     1       8.055  12.505   1.301  1.00  0.00     0.177 HD
BRANCH  22  24
HETATM   24  S   UNL     1       7.526  11.939   3.425  1.00  0.00     0.226 S 
HETATM   25  C   UNL     1       6.426  12.867   4.458  1.00  0.00     0.186 C 
HETATM   26  O   UNL     1       6.827  10.731   3.037  1.00  0.00    -0.206 OA
HETATM   27  O   UNL     1       8.677  11.641   4.225  1.00  0.00    -0.206 OA
ENDBRANCH  22  24
ENDBRANCH   1  22
TORSDOF 4
ENDMDL
MODEL 6
REMARK VINA RESULT:    -6.466      4.071      6.622
REMARK INTER + INTRA:          -8.840
REMARK INTER:                  -8.133
REMARK INTRA:                  -0.707
REMARK UNBOUND:                -0.863
REMARK  4 active torsions:
REMARK  status: ('A' for Active; 'I' for Inactive)
REMARK    1  A    between atoms: S_2  and  N_5 
REMARK    2  A    between atoms: N_5  and  C_7 
REMARK    3  A    between atoms: C_15  and  C_16 
REMARK       I    between atoms: C_16  and  N_18 
REMARK    4  A    between atoms: N_18  and  C_20 
ROOT
HETATM    1  C   UNL     1       8.589   4.179  25.339  1.00  0.00     0.109 C 
HETATM    2  C   UNL     1       8.606   3.143  24.665  1.00  0.00    -0.008 A 
HETATM    3  C   UNL     1       8.774   1.874  24.578  1.00  0.00     0.058 A 
HETATM    4  C   UNL     1      10.209   0.959  24.947  1.00  0.00    -0.003 C 
HETATM    5  C   UNL     1      10.189   0.004  25.327  1.00  0.00    -0.002 C 
HETATM    6  C   UNL     1       9.059  -0.850  25.835  1.00  0.00    -0.001 C 
HETATM    7  C   UNL     1       7.877  -0.112  25.748  1.00  0.00    -0.002 C 
HETATM    8  C   UNL     1       7.595   0.839  25.394  1.00  0.00    -0.003 C 
HETATM    9  C   UNL     1       8.514   1.835  23.434  1.00  0.00     0.040 A 
ENDROOT
BRANCH   9  10
HETATM   10  C   UNL     1       8.249   1.756  22.086  1.00  0.00     0.254 C 
HETATM   11  O   UNL     1       8.972   2.265  21.378  1.00  0.00    -0.268 OA
HETATM   12  N   UNL     1       7.149   1.091  21.874  1.00  0.00    -0.321 N 
ATOM     13  HN  UNL     1       6.609   0.713  22.653  1.00  0.00     0.169 HD
BRANCH  12  14
HETATM   14  C   UNL     1       6.764   0.925  20.668  1.00  0.00     0.056 A 
HETATM   15  C   UNL     1       7.130   0.282  19.657  1.00  0.00     0.117 A 
HETATM   16  N   UNL     1       7.001  -0.091  18.414  1.00  0.00    -0.373 N 
HETATM   17  C   UNL     1       5.931   0.571  18.202  1.00  0.00     0.088 A 
ATOM     18  HN  UNL     1       7.562  -0.699  17.818  1.00  0.00     0.164 HD
HETATM   19  C   UNL     1       5.224   1.360  18.920  1.00  0.00     0.026 A 
HETATM   20  C   UNL     1       5.415   1.672  20.140  1.00  0.00    -0.033 A 
HETATM   21  C   UNL     1       4.621   2.611  21.089  1.00  0.00     0.050 C 
ENDBRANCH  12  14
ENDBRANCH   9  10
BRANCH   1  22
HETATM   22  N   UNL     1       8.778   5.375  25.496  1.00  0.00    -0.295 N 
ATOM     23  HN  UNL     1       8.717   5.741  26.447  1.00  0.00     0.177 HD
BRANCH  22  24
HETATM   24  S   UNL     1       9.112   6.413  24.324  1.00  0.00     0.226 S 
HETATM   25  C   UNL     1       7.694   6.348  23.264  1.00  0.00     0.186 C 
HETATM   26  O   UNL     1       9.247   7.785  24.769  1.00  0.00    -0.206 OA
HETATM   27  O   UNL     1      10.232   6.010  23.527  1.00  0.00    -0.206 OA
ENDBRANCH  22  24
ENDBRANCH   1  22
TORSDOF 4
ENDMDL
MODEL 7
REMARK VINA RESULT:    -6.439      3.633      7.504
REMARK INTER + INTRA:          -8.807
REMARK INTER:                  -8.204
REMARK INTRA:                  -0.604
REMARK UNBOUND:                -0.863
REMARK  4 active torsions:
REMARK  status: ('A' for Active; 'I' for Inactive)
REMARK    1  A    between atoms: S_2  and  N_5 
REMARK    2  A    between atoms: N_5  and  C_7 
REMARK    3  A    between atoms: C_15  and  C_16 
REMARK       I    between atoms: C_16  and  N_18 
REMARK    4  A    between atoms: N_18  and  C_20 
ROOT
HETATM    1  C   UNL     1       5.782  -6.114  26.293  1.00  0.00     0.109 C 
HETATM    2  C   UNL     1       6.299  -5.274  25.548  1.00  0.00    -0.008 A 
HETATM    3  C   UNL     1       6.535  -4.828  24.369  1.00  0.00     0.058 A 
HETATM    4  C   UNL     1       7.367  -5.635  23.068  1.00  0.00    -0.003 C 
HETATM    5  C   UNL     1       7.133  -5.499  22.076  1.00  0.00    -0.002 C 
HETATM    6  C   UNL     1       5.999  -4.774  21.403  1.00  0.00    -0.001 C 
HETATM    7  C   UNL     1       5.166  -4.246  22.392  1.00  0.00    -0.002 C 
HETATM    8  C   UNL     1       5.162  -4.205  23.445  1.00  0.00    -0.003 C 
HETATM    9  C   UNL     1       7.130  -3.892  24.752  1.00  0.00     0.040 A 
ENDROOT
BRANCH   9  10
HETATM   10  C   UNL     1       7.861  -2.802  25.165  1.00  0.00     0.254 C 
HETATM   11  O   UNL     1       8.179  -2.764  26.251  1.00  0.00    -0.268 OA
HETATM   12  N   UNL     1       8.042  -1.972  24.177  1.00  0.00    -0.321 N 
ATOM     13  HN  UNL     1       7.660  -2.170  23.252  1.00  0.00     0.169 HD
BRANCH  12  14
HETATM   14  C   UNL     1       8.711  -0.906  24.396  1.00  0.00     0.056 A 
HETATM   15  C   UNL     1       8.573   0.160  25.039  1.00  0.00     0.117 A 
HETATM   16  N   UNL     1       8.990   1.327  25.448  1.00  0.00    -0.373 N 
HETATM   17  C   UNL     1      10.120   1.263  24.858  1.00  0.00     0.088 A 
ATOM     18  HN  UNL     1       8.562   2.042  26.035  1.00  0.00     0.164 HD
HETATM   19  C   UNL     1      10.671   0.393  24.097  1.00  0.00     0.026 A 
HETATM   20  C   UNL     1      10.195  -0.735  23.745  1.00  0.00    -0.033 A 
HETATM   21  C   UNL     1      10.781  -1.848  22.834  1.00  0.00     0.050 C 
ENDBRANCH  12  14
ENDBRANCH   9  10
BRANCH   1  22
HETATM   22  N   UNL     1       5.761  -6.807  27.299  1.00  0.00    -0.295 N 
ATOM     23  HN  UNL     1       6.370  -7.625  27.320  1.00  0.00     0.177 HD
BRANCH  22  24
HETATM   24  S   UNL     1       4.852  -6.528  28.586  1.00  0.00     0.226 S 
HETATM   25  C   UNL     1       5.487  -5.014  29.252  1.00  0.00     0.186 C 
HETATM   26  O   UNL     1       3.452  -6.306  28.286  1.00  0.00    -0.206 OA
HETATM   27  O   UNL     1       5.014  -7.519  29.608  1.00  0.00    -0.206 OA
ENDBRANCH  22  24
ENDBRANCH   1  22
TORSDOF 4
ENDMDL
MODEL 8
REMARK VINA RESULT:    -6.349     25.145     29.031
REMARK INTER + INTRA:          -8.696
REMARK INTER:                  -7.878
REMARK INTRA:                  -0.818
REMARK UNBOUND:                -0.863
REMARK  4 active torsions:
REMARK  status: ('A' for Active; 'I' for Inactive)
REMARK    1  A    between atoms: S_2  and  N_5 
REMARK    2  A    between atoms: N_5  and  C_7 
REMARK    3  A    between atoms: C_15  and  C_16 
REMARK       I    between atoms: C_16  and  N_18 
REMARK    4  A    between atoms: N_18  and  C_20 
ROOT
HETATM    1  C   UNL     1      10.032  16.096   6.128  1.00  0.00     0.109 C 
HETATM    2  C   UNL     1       9.631  16.491   5.027  1.00  0.00    -0.008 A 
HETATM    3  C   UNL     1       9.077  16.256   3.895  1.00  0.00     0.058 A 
HETATM    4  C   UNL     1       9.612  15.160   2.651  1.00  0.00    -0.003 C 
HETATM    5  C   UNL     1       8.970  14.646   2.034  1.00  0.00    -0.002 C 
HETATM    6  C   UNL     1       7.473  14.495   2.048  1.00  0.00    -0.001 C 
HETATM    7  C   UNL     1       6.970  15.201   3.143  1.00  0.00    -0.002 C 
HETATM    8  C   UNL     1       7.364  15.815   3.903  1.00  0.00    -0.003 C 
HETATM    9  C   UNL     1       9.130  17.374   3.542  1.00  0.00     0.040 A 
ENDROOT
BRANCH   9  10
HETATM   10  C   UNL     1       9.207  18.669   3.084  1.00  0.00     0.254 C 
HETATM   11  O   UNL     1       8.470  19.419   3.503  1.00  0.00    -0.268 OA
HETATM   12  N   UNL     1      10.152  18.784   2.195  1.00  0.00    -0.321 N 
ATOM     13  HN  UNL     1      10.715  17.978   1.924  1.00  0.00     0.169 HD
BRANCH  12  14
HETATM   14  C   UNL     1      10.356  19.931   1.672  1.00  0.00     0.056 A 
HETATM   15  C   UNL     1      11.078  20.933   1.884  1.00  0.00     0.117 A 
HETATM   16  N   UNL     1      11.508  22.131   1.598  1.00  0.00    -0.373 N 
HETATM   17  C   UNL     1      10.783  22.272   0.557  1.00  0.00     0.088 A 
ATOM     18  HN  UNL     1      12.187  22.743   2.050  1.00  0.00     0.164 HD
HETATM   19  C   UNL     1       9.907  21.535  -0.015  1.00  0.00     0.026 A 
HETATM   20  C   UNL     1       9.544  20.363   0.326  1.00  0.00    -0.033 A 
HETATM   21  C   UNL     1       8.499  19.397  -0.298  1.00  0.00     0.050 C 
ENDBRANCH  12  14
ENDBRANCH   9  10
BRANCH   1  22
HETATM   22  N   UNL     1      10.811  16.109   7.068  1.00  0.00    -0.295 N 
ATOM     23  HN  UNL     1      11.501  15.360   7.118  1.00  0.00     0.177 HD
BRANCH  22  24
HETATM   24  S   UNL     1      10.831  17.212   8.228  1.00  0.00     0.226 S 
HETATM   25  C   UNL     1      11.458  18.668   7.438  1.00  0.00     0.186 C 
HETATM   26  O   UNL     1       9.522  17.544   8.753  1.00  0.00    -0.206 OA
HETATM   27  O   UNL     1      11.750  16.895   9.281  1.00  0.00    -0.206 OA
ENDBRANCH  22  24
ENDBRANCH   1  22
TORSDOF 4
ENDMDL
MODEL 9
REMARK VINA RESULT:    -6.228     21.871     24.688
REMARK INTER + INTRA:          -8.547
REMARK INTER:                  -7.785
REMARK INTRA:                  -0.762
REMARK UNBOUND:                -0.863
REMARK  4 active torsions:
REMARK  status: ('A' for Active; 'I' for Inactive)
REMARK    1  A    between atoms: S_2  and  N_5 
REMARK    2  A    between atoms: N_5  and  C_7 
REMARK    3  A    between atoms: C_15  and  C_16 
REMARK       I    between atoms: C_16  and  N_18 
REMARK    4  A    between atoms: N_18  and  C_20 
ROOT
HETATM    1  C   UNL     1       7.034  13.524   2.019  1.00  0.00     0.109 C 
HETATM    2  C   UNL     1       6.146  12.776   2.443  1.00  0.00    -0.008 A 
HETATM    3  C   UNL     1       4.983  12.611   2.959  1.00  0.00     0.058 A 
HETATM    4  C   UNL     1       4.399  13.206   4.488  1.00  0.00    -0.003 C 
HETATM    5  C   UNL     1       3.422  13.480   4.652  1.00  0.00    -0.002 C 
HETATM    6  C   UNL     1       2.254  13.639   3.718  1.00  0.00    -0.001 C 
HETATM    7  C   UNL     1       2.688  13.358   2.420  1.00  0.00    -0.002 C 
HETATM    8  C   UNL     1       3.584  13.041   1.967  1.00  0.00    -0.003 C 
HETATM    9  C   UNL     1       5.052  11.440   2.945  1.00  0.00     0.040 A 
ENDROOT
BRANCH   9  10
HETATM   10  C   UNL     1       5.113  10.065   2.975  1.00  0.00     0.254 C 
HETATM   11  O   UNL     1       5.575   9.540   2.084  1.00  0.00    -0.268 OA
HETATM   12  N   UNL     1       4.584   9.608   4.074  1.00  0.00    -0.321 N 
ATOM     13  HN  UNL     1       4.194  10.244   4.769  1.00  0.00     0.169 HD
BRANCH  12  14
HETATM   14  C   UNL     1       4.567   8.344   4.258  1.00  0.00     0.056 A 
HETATM   15  C   UNL     1       5.323   7.464   4.730  1.00  0.00     0.117 A 
HETATM   16  N   UNL     1       5.607   6.232   5.049  1.00  0.00    -0.373 N 
HETATM   17  C   UNL     1       4.492   5.749   4.659  1.00  0.00     0.088 A 
ATOM     18  HN  UNL     1       6.433   5.802   5.464  1.00  0.00     0.164 HD
HETATM   19  C   UNL     1       3.452   6.257   4.112  1.00  0.00     0.026 A 
HETATM   20  C   UNL     1       3.248   7.484   3.835  1.00  0.00    -0.033 A 
HETATM   21  C   UNL     1       2.032   8.192   3.178  1.00  0.00     0.050 C 
ENDBRANCH  12  14
ENDBRANCH   9  10
BRANCH   1  22
HETATM   22  N   UNL     1       8.204  13.831   1.845  1.00  0.00    -0.295 N 
ATOM     23  HN  UNL     1       8.554  13.828   0.887  1.00  0.00     0.177 HD
BRANCH  22  24
HETATM   24  S   UNL     1       9.228  14.236   3.007  1.00  0.00     0.226 S 
HETATM   25  C   UNL     1       8.304  15.338   4.041  1.00  0.00     0.186 C 
HETATM   26  O   UNL     1       9.650  13.127   3.837  1.00  0.00    -0.206 OA
HETATM   27  O   UNL     1      10.351  14.982   2.523  1.00  0.00    -0.206 OA
ENDBRANCH  22  24
ENDBRANCH   1  22
TORSDOF 4
ENDMDL
