stable:False satoms:10 tatoms:24 sratio:0.4166666666666667
  -OEChem-07092417483D

 24 26  0     1  0  0  0  0  0999 V2000
    6.5734   -4.8464   26.4652 C   0  0  0  0  0  0  0  0  0  0  0  0
    8.2173   -4.2971   26.0968 S   0  0  0  0  0  0  0  0  0  0  0  0
    9.0617   -5.4729   26.0737 O   0  0  0  0  0  0  0  0  0  0  0  0
    8.5918   -3.4060   27.1545 O   0  0  0  0  0  0  0  0  0  0  0  0
    8.0809   -3.5611   24.6822 N   0  0  0  0  0  0  0  0  0  0  0  0
    8.9717   -2.9327   24.1310 C   0  0  0  0  0  0  0  0  0  0  0  0
    9.4002   -1.9704   23.4851 C   0  0  0  0  0  0  0  0  0  0  0  0
   10.3315   -1.1261   23.2316 C   0  0  1  0  0  0  0  0  0  0  0  0
   11.0449    0.0348   24.3165 C   0  0  0  0  0  0  0  0  0  0  0  0
   12.0299    0.3254   24.2681 C   0  0  0  0  0  0  0  0  0  0  0  0
   13.1882   -0.1901   23.4571 C   0  0  0  0  0  0  0  0  0  0  0  0
   12.7398   -1.2631   22.6832 C   0  0  0  0  0  0  0  0  0  0  0  0
   11.8217   -1.7503   22.5122 C   0  0  0  0  0  0  0  0  0  0  0  0
    9.7377   -0.6036   22.3652 C   0  0  2  0  0  0  0  0  0  0  0  0
    9.0565    0.0535   21.3655 C   0  0  0  0  0  0  0  0  0  0  0  0
    9.4921    1.0265   20.9850 O   0  0  0  0  0  0  0  0  0  0  0  0
    7.9740   -0.5977   21.0474 N   0  0  0  0  0  0  0  0  0  0  0  0
    7.2279   -0.1197   20.1274 C   0  0  0  0  0  0  0  0  0  0  0  0
    7.2405   -0.0235   18.8781 C   0  0  0  0  0  0  0  0  0  0  0  0
    6.7194    0.3458   17.7405 N   0  0  0  0  0  0  0  0  0  0  0  0
    5.6587    0.8396   18.2511 C   0  0  0  0  0  0  0  0  0  0  0  0
    5.2367    0.9746   19.4521 C   0  0  0  0  0  0  0  0  0  0  0  0
    5.8078    0.5778   20.5194 C   0  0  0  0  0  0  0  0  0  0  0  0
    5.3800    0.6926   22.0078 C   0  0  0  0  0  0  0  0  0  0  0  0
 20 21  2  0  0  0  0
 19 20  1  0  0  0  0
 21 22  1  0  0  0  0
 18 19  2  0  0  0  0
 22 23  2  0  0  0  0
 18 23  1  0  0  0  0
 17 18  1  0  0  0  0
 23 24  1  0  0  0  0
 15 16  2  0  0  0  0
 15 17  1  0  0  0  0
 14 15  1  0  0  0  0
  8 14  1  0  0  0  0
  7 14  1  0  0  0  0
 12 13  1  0  0  0  0
  8 13  1  0  0  0  0
 11 12  2  0  0  0  0
  7  8  1  0  0  0  0
  8  9  1  0  0  0  0
 10 11  1  0  0  0  0
  6  7  2  3  0  0  0
  5  6  1  0  0  0  0
  9 10  2  0  0  0  0
  2  5  1  0  0  0  0
  2  3  2  0  0  0  0
  1  2  1  0  0  0  0
  2  4  2  0  0  0  0
M  END
> <Shapegauss>
-286.320251

$$$$
