REMARK  4 active torsions:
REMARK  status: ('A' for Active; 'I' for Inactive)
REMARK    1  A    between atoms: S_2  and  N_5 
REMARK    2  A    between atoms: N_5  and  C_7 
REMARK    3  A    between atoms: C_15  and  C_16 
REMARK       I    between atoms: C_16  and  N_18 
REMARK    4  A    between atoms: N_18  and  C_20 
ROOT
HETATM    1  C   UNL     1       8.972  -2.933  24.131  1.00  0.00     0.109 C 
HETATM    2  C   UNL     1       9.400  -1.970  23.485  1.00  0.00    -0.008 A 
HETATM    3  C   UNL     1      10.332  -1.126  23.232  1.00  0.00     0.058 A 
HETATM    4  C   UNL     1      11.045   0.035  24.317  1.00  0.00    -0.003 C 
HETATM    5  C   UNL     1      12.030   0.325  24.268  1.00  0.00    -0.002 C 
HETATM    6  C   UNL     1      13.188  -0.190  23.457  1.00  0.00    -0.001 C 
HETATM    7  C   UNL     1      12.740  -1.263  22.683  1.00  0.00    -0.002 C 
HETATM    8  C   UNL     1      11.822  -1.750  22.512  1.00  0.00    -0.003 C 
HETATM    9  C   UNL     1       9.738  -0.604  22.365  1.00  0.00     0.040 A 
ENDROOT
BRANCH   9  10
HETATM   10  C   UNL     1       9.056   0.053  21.366  1.00  0.00     0.254 C 
HETATM   11  O   UNL     1       9.492   1.026  20.985  1.00  0.00    -0.268 OA
HETATM   12  N   UNL     1       7.974  -0.598  21.047  1.00  0.00    -0.321 N 
ATOM     13  HN  UNL     1       7.729  -1.468  21.520  1.00  0.00     0.169 HD
BRANCH  12  14
HETATM   14  C   UNL     1       7.228  -0.120  20.127  1.00  0.00     0.056 A 
HETATM   15  C   UNL     1       7.240  -0.024  18.878  1.00  0.00     0.117 A 
HETATM   16  N   UNL     1       6.719   0.346  17.741  1.00  0.00    -0.373 N 
HETATM   17  C   UNL     1       5.659   0.840  18.251  1.00  0.00     0.088 A 
ATOM     18  HN  UNL     1       7.046   0.268  16.778  1.00  0.00     0.164 HD
HETATM   19  C   UNL     1       5.237   0.975  19.452  1.00  0.00     0.026 A 
HETATM   20  C   UNL     1       5.808   0.578  20.519  1.00  0.00    -0.033 A 
HETATM   21  C   UNL     1       5.380   0.693  22.008  1.00  0.00     0.050 C 
ENDBRANCH  12  14
ENDBRANCH   9  10
BRANCH   1  22
HETATM   22  N   UNL     1       8.081  -3.561  24.682  1.00  0.00    -0.295 N 
ATOM     23  HN  UNL     1       7.182  -3.621  24.204  1.00  0.00     0.177 HD
BRANCH  22  24
HETATM   24  S   UNL     1       8.217  -4.297  26.097  1.00  0.00     0.226 S 
HETATM   25  C   UNL     1       6.573  -4.846  26.465  1.00  0.00     0.186 C 
HETATM   26  O   UNL     1       9.062  -5.473  26.074  1.00  0.00    -0.206 OA
HETATM   27  O   UNL     1       8.592  -3.406  27.154  1.00  0.00    -0.206 OA
ENDBRANCH  22  24
ENDBRANCH   1  22
TORSDOF 4
