stable:False satoms:12 tatoms:24 sratio:0.5
  -OEChem-07092417403D

 24 25  0     1  0  0  0  0  0999 V2000
    6.4374   -4.9108   26.5532 Cl  0  0  0  0  0  0  0  0  0  0  0  0
    8.1602   -4.2819   26.1817 S   0  0  0  0  0  0  0  0  0  0  0  0
    8.9913   -5.4110   26.0941 O   0  0  0  0  0  0  0  0  0  0  0  0
    8.4374   -3.3954   27.2062 O   0  0  0  0  0  0  0  0  0  0  0  0
    7.9206   -3.5574   24.7640 N   0  0  0  0  0  0  0  0  0  0  0  0
    8.7338   -2.8302   24.3767 C   0  0  0  0  0  0  0  0  0  0  0  0
    9.3095   -1.9570   23.8982 C   0  0  0  0  0  0  0  0  0  0  0  0
   10.0030   -0.9868   23.5344 C   0  0  0  0  0  0  0  0  0  0  0  0
   10.9489   -0.3156   24.2887 C   0  0  0  0  0  0  0  0  0  0  0  0
   11.9927   -0.1693   23.9636 C   0  0  0  0  0  0  0  0  0  0  0  0
   13.6620   -0.3633   22.9726 H   0  0  0  0  0  0  0  0  0  0  0  0
   12.7560   -0.7463   23.0080 C   0  0  0  0  0  0  0  0  0  0  0  0
   12.2454   -1.5179   22.4804 H   0  0  0  0  0  0  0  0  0  0  0  0
    9.7592   -0.4223   22.3728 C   0  0  0  0  0  0  0  0  0  0  0  0
    9.0454    0.1020   21.3902 C   0  0  0  0  0  0  0  0  0  0  0  0
    9.4267    1.0572   20.8333 O   0  0  0  0  0  0  0  0  0  0  0  0
    7.8069   -0.5368   21.1999 N   0  0  0  0  0  0  0  0  0  0  0  0
    7.0567   -0.0424   20.3158 C   0  0  0  0  0  0  0  0  0  0  0  0
    7.4227   -0.1845   18.6617 S   0  3  1  0  0  0  0  0  0  0  0  0
    6.5409    0.3248   17.3317 N   0  0  0  0  0  0  0  0  0  0  0  0
    6.2189    0.5231   18.2979 C   0  0  0  0  0  0  0  0  0  0  0  0
    5.4927    0.9028   19.4591 C   0  0  0  0  0  0  0  0  0  0  0  0
    5.8195    0.6288   20.5587 C   0  0  0  0  0  0  0  0  0  0  0  0
    5.3962    0.8002   21.5538 H   0  0  0  0  0  0  0  0  0  0  0  0
 20 21  1  0  0  0  0
 19 20  1  0  0  0  0
 19 21  1  0  0  0  0
 21 22  2  0  0  0  0
 18 19  1  0  0  0  0
 22 23  1  0  0  0  0
 18 23  2  0  0  0  0
 17 18  1  0  0  0  0
 23 24  1  0  0  0  0
 15 16  2  0  0  0  0
 15 17  1  0  0  0  0
 14 15  1  0  0  0  0
  8 14  2  3  0  0  0
 12 13  1  0  0  0  0
 11 12  1  0  0  0  0
 10 12  2  0  0  0  0
  7  8  1  0  0  0  0
  8  9  1  0  0  0  0
  6  7  3  0  0  0  0
  9 10  1  0  0  0  0
  5  6  1  0  0  0  0
  2  5  1  0  0  0  0
  2  3  2  0  0  0  0
  1  2  1  0  0  0  0
  2  4  2  0  0  0  0
M  CHG  1  19   1
M  END
> <Shapegauss>
-260.563171

$$$$
