stable:False satoms:12 tatoms:24 sratio:0.5
  -OEChem-08062409583D

 32 33  0     1  0  0  0  0  0999 V2000
    6.1641   -4.9924   26.3841 Cl  0  0  0  0  0  0  0  0  0  0  0  0
    7.8664   -4.8256   25.6252 S   0  0  0  0  0  0  0  0  0  0  0  0
    8.2622   -6.1159   25.2357 O   0  0  0  0  0  0  0  0  0  0  0  0
    8.6295   -4.2213   26.6074 O   0  0  0  0  0  0  0  0  0  0  0  0
    7.5509   -3.8546   24.3804 N   0  0  0  0  0  0  0  0  0  0  0  0
    8.4405   -3.3358   23.8518 C   0  0  0  0  0  0  0  0  0  0  0  0
    9.1359   -2.5977   23.3089 C   0  0  0  0  0  0  0  0  0  0  0  0
    9.9960   -1.8186   22.8532 C   0  0  0  0  0  0  0  0  0  0  0  0
   11.2484   -1.5653   23.3838 C   0  0  0  0  0  0  0  0  0  0  0  0
   12.1841   -1.6713   22.8095 C   0  0  0  0  0  0  0  0  0  0  0  0
   13.4410   -2.1738   21.4045 H   0  0  0  0  0  0  0  0  0  0  0  0
   12.4934   -2.2865   21.6456 C   0  0  0  0  0  0  0  0  0  0  0  0
   11.6628   -2.7924   21.2114 H   0  0  0  0  0  0  0  0  0  0  0  0
    9.6846   -1.0372   21.8433 C   0  0  0  0  0  0  0  0  0  0  0  0
    8.9672   -0.1887   21.1255 C   0  0  0  0  0  0  0  0  0  0  0  0
    9.4909    0.6938   20.5644 O   0  0  0  0  0  0  0  0  0  0  0  0
    7.5821   -0.4153   21.2165 N   0  0  0  0  0  0  0  0  0  0  0  0
    6.8440    0.4000   20.6006 C   0  0  0  0  0  0  0  0  0  0  0  0
    6.7643    0.4159   18.9025 S   0  3  1  0  0  0  0  0  0  0  0  0
    5.8088    1.3508   17.8932 N   0  0  0  0  0  0  0  0  0  0  0  0
    5.7913    1.4812   18.9224 C   0  0  0  0  0  0  0  0  0  0  0  0
    5.5012    1.8676   20.2590 C   0  0  0  0  0  0  0  0  0  0  0  0
    5.9658    1.3474   21.2101 C   0  0  0  0  0  0  0  0  0  0  0  0
    5.8529    1.4765   22.2914 H   0  0  0  0  0  0  0  0  0  0  0  0
    6.9427   -3.1339   24.7133 H   0  0  0  0  0  0  0  0  0  0  0  0
   11.2236   -0.5212   23.7289 H   0  0  0  0  0  0  0  0  0  0  0  0
   11.3495   -2.2355   24.2502 H   0  0  0  0  0  0  0  0  0  0  0  0
   13.0284   -1.1823   23.2727 H   0  0  0  0  0  0  0  0  0  0  0  0
   10.5467   -1.1694   21.2063 H   0  0  0  0  0  0  0  0  0  0  0  0
    7.2045   -1.1793   21.7397 H   0  0  0  0  0  0  0  0  0  0  0  0
    5.0246    0.9443   17.4243 H   0  0  0  0  0  0  0  0  0  0  0  0
    4.8143    2.6866   20.4129 H   0  0  0  0  0  0  0  0  0  0  0  0
 20 21  1  0  0  0  0
 19 20  1  0  0  0  0
 19 21  1  0  0  0  0
 21 22  2  0  0  0  0
 18 19  1  0  0  0  0
 22 23  1  0  0  0  0
 18 23  2  0  0  0  0
 17 18  1  0  0  0  0
 23 24  1  0  0  0  0
 15 16  2  0  0  0  0
 15 17  1  0  0  0  0
 14 15  1  0  0  0  0
  8 14  2  3  0  0  0
 12 13  1  0  0  0  0
 11 12  1  0  0  0  0
 10 12  2  0  0  0  0
  7  8  1  0  0  0  0
  8  9  1  0  0  0  0
  6  7  3  0  0  0  0
  9 10  1  0  0  0  0
  5  6  1  0  0  0  0
  2  5  1  0  0  0  0
  2  3  2  0  0  0  0
  1  2  1  0  0  0  0
  2  4  2  0  0  0  0
  5 25  1  0  0  0  0
  9 26  1  0  0  0  0
  9 27  1  0  0  0  0
 10 28  1  0  0  0  0
 14 29  1  0  0  0  0
 17 30  1  0  0  0  0
 20 31  1  0  0  0  0
 22 32  1  0  0  0  0
M  CHG  1  19   1
M  END
> <Chemgauss4>
-7.216546

$$$$
