stable:False satoms:12 tatoms:24 sratio:0.5
  -OEChem-08062409573D

 32 33  0     1  0  0  0  0  0999 V2000
   -5.3561   -6.4253  -23.3814 Cl  0  0  0  0  0  0  0  0  0  0  0  0
   -4.8440   -4.8155  -22.5766 S   0  0  0  0  0  0  0  0  0  0  0  0
   -3.6657   -4.4006  -23.2190 O   0  0  0  0  0  0  0  0  0  0  0  0
   -4.7347   -5.1163  -21.2313 O   0  0  0  0  0  0  0  0  0  0  0  0
   -6.1145   -3.8872  -22.9173 N   0  0  0  0  0  0  0  0  0  0  0  0
   -6.2399   -2.8954  -22.3336 C   0  0  0  0  0  0  0  0  0  0  0  0
   -6.6476   -1.9816  -21.7665 C   0  0  0  0  0  0  0  0  0  0  0  0
   -6.9874   -1.0400  -21.0232 C   0  0  0  0  0  0  0  0  0  0  0  0
   -6.4543   -0.7281  -19.7852 C   0  0  0  0  0  0  0  0  0  0  0  0
   -6.0459    0.2648  -19.5324 C   0  0  0  0  0  0  0  0  0  0  0  0
   -5.3507    2.0779  -19.7221 H   0  0  0  0  0  0  0  0  0  0  0  0
   -5.6634    1.3272  -20.2766 C   0  0  0  0  0  0  0  0  0  0  0  0
   -5.7546    1.1535  -21.3235 H   0  0  0  0  0  0  0  0  0  0  0  0
   -8.0401   -0.3194  -21.3394 C   0  0  0  0  0  0  0  0  0  0  0  0
   -9.2771   -0.0622  -21.7312 C   0  0  0  0  0  0  0  0  0  0  0  0
   -9.8944    0.7824  -21.2083 O   0  0  0  0  0  0  0  0  0  0  0  0
   -9.7462   -0.9531  -22.7134 N   0  0  0  0  0  0  0  0  0  0  0  0
  -10.9408   -0.7940  -23.0828 C   0  0  0  0  0  0  0  0  0  0  0  0
  -11.4073    0.5428  -24.0239 S   0  3  1  0  0  0  0  0  0  0  0  0
  -12.9047    0.9090  -24.6792 N   0  0  0  0  0  0  0  0  0  0  0  0
  -12.7714    0.0751  -24.0764 C   0  0  0  0  0  0  0  0  0  0  0  0
  -12.9110   -1.1396  -23.3518 C   0  0  0  0  0  0  0  0  0  0  0  0
  -12.0158   -1.6986  -22.8254 C   0  0  0  0  0  0  0  0  0  0  0  0
  -11.9155   -2.6298  -22.2582 H   0  0  0  0  0  0  0  0  0  0  0  0
   -6.9347   -4.4347  -22.7513 H   0  0  0  0  0  0  0  0  0  0  0  0
   -7.2553   -0.9187  -19.0558 H   0  0  0  0  0  0  0  0  0  0  0  0
   -5.6330   -1.4416  -19.6227 H   0  0  0  0  0  0  0  0  0  0  0  0
   -5.9268    0.4210  -18.4704 H   0  0  0  0  0  0  0  0  0  0  0  0
   -7.6613    0.6797  -21.1822 H   0  0  0  0  0  0  0  0  0  0  0  0
   -9.1654   -1.6713  -23.0965 H   0  0  0  0  0  0  0  0  0  0  0  0
  -13.0646    0.8000  -25.6603 H   0  0  0  0  0  0  0  0  0  0  0  0
  -13.8958   -1.5769  -23.2789 H   0  0  0  0  0  0  0  0  0  0  0  0
 20 21  1  0  0  0  0
 19 20  1  0  0  0  0
 19 21  1  0  0  0  0
 21 22  2  0  0  0  0
 18 19  1  0  0  0  0
 22 23  1  0  0  0  0
 18 23  2  0  0  0  0
 17 18  1  0  0  0  0
 23 24  1  0  0  0  0
 15 16  2  0  0  0  0
 15 17  1  0  0  0  0
 14 15  1  0  0  0  0
  8 14  2  3  0  0  0
 12 13  1  0  0  0  0
 11 12  1  0  0  0  0
 10 12  2  0  0  0  0
  7  8  1  0  0  0  0
  8  9  1  0  0  0  0
  6  7  3  0  0  0  0
  9 10  1  0  0  0  0
  5  6  1  0  0  0  0
  2  5  1  0  0  0  0
  2  3  2  0  0  0  0
  1  2  1  0  0  0  0
  2  4  2  0  0  0  0
  5 25  1  0  0  0  0
  9 26  1  0  0  0  0
  9 27  1  0  0  0  0
 10 28  1  0  0  0  0
 14 29  1  0  0  0  0
 17 30  1  0  0  0  0
 20 31  1  0  0  0  0
 22 32  1  0  0  0  0
M  CHG  1  19   1
M  END
> <Chemgauss4>
-6.909204

$$$$
