REMARK  9 active torsions:
REMARK  status: ('A' for Active; 'I' for Inactive)
REMARK    1  A    between atoms: S_2  and  N_5 
REMARK    2  A    between atoms: C_7  and  C_8 
REMARK    3  A    between atoms: C_9  and  C_15 
REMARK    4  A    between atoms: C_9  and  C_10 
REMARK    5  A    between atoms: C_10  and  C_11 
REMARK    6  A    between atoms: C_11  and  C_12 
REMARK    7  A    between atoms: C_12  and  C_13 
REMARK    8  A    between atoms: C_15  and  C_16 
REMARK       I    between atoms: C_16  and  N_18 
REMARK    9  A    between atoms: N_18  and  C_20 
ROOT
HETATM    1  C   UNL     1       9.358  -1.998  23.618  1.00  0.00     0.038 C 
HETATM    2  C   UNL     1      10.092  -0.959  23.415  1.00  0.00     0.016 C 
ENDROOT
BRANCH   2   3
HETATM    3  C   UNL     1       9.748  -0.583  22.378  1.00  0.00    -0.044 C 
BRANCH   3   4
HETATM    4  C   UNL     1       9.066   0.024  21.380  1.00  0.00     0.294 C 
HETATM    5  O   UNL     1       9.494   1.004  20.968  1.00  0.00    -0.258 OA
HETATM    6  N   UNL     1       7.939  -0.609  21.066  1.00  0.00    -0.314 N 
ATOM      7  HN  UNL     1       7.672  -1.474  21.537  1.00  0.00     0.170 HD
BRANCH   6   8
HETATM    8  C   UNL     1       7.202  -0.100  20.157  1.00  0.00     0.072 A 
HETATM    9  C   UNL     1       7.190   0.009  18.848  1.00  0.00     0.119 A 
HETATM   10  N   UNL     1       6.777   0.311  17.744  1.00  0.00    -0.373 N 
HETATM   11  C   UNL     1       5.712   0.922  18.260  1.00  0.00     0.089 A 
ATOM     12  HN  UNL     1       7.115   0.156  16.794  1.00  0.00     0.164 HD
HETATM   13  C   UNL     1       5.317   1.020  19.431  1.00  0.00     0.043 A 
HETATM   14  C   UNL     1       5.860   0.587  20.547  1.00  0.00     0.063 A 
HETATM   15 CL   UNL     1       5.360   0.682  22.067  1.00  0.00    -0.082 Cl
ENDBRANCH   6   8
ENDBRANCH   3   4
ENDBRANCH   2   3
BRANCH   2  16
HETATM   16  C   UNL     1      11.011  -0.033  24.261  1.00  0.00     0.020 C 
BRANCH  16  17
HETATM   17  C   UNL     1      12.054   0.238  24.208  1.00  0.00     0.001 C 
BRANCH  17  18
HETATM   18  C   UNL     1      13.031  -0.241  23.406  1.00  0.00    -0.001 C 
BRANCH  18  19
HETATM   19  C   UNL     1      12.709  -1.222  22.656  1.00  0.00    -0.010 C 
HETATM   20  C   UNL     1      12.113  -1.881  22.301  1.00  0.00     0.011 C 
ENDBRANCH  18  19
ENDBRANCH  17  18
ENDBRANCH  16  17
ENDBRANCH   2  16
BRANCH   1  21
HETATM   21  C   UNL     1       8.900  -2.874  24.172  1.00  0.00     0.101 C 
HETATM   22  N   UNL     1       8.062  -3.533  24.678  1.00  0.00    -0.295 N 
ATOM     23  HN  UNL     1       7.178  -3.627  24.178  1.00  0.00     0.177 HD
BRANCH  22  24
HETATM   24  S   UNL     1       8.197  -4.312  26.119  1.00  0.00     0.226 S 
HETATM   25  C   UNL     1       6.692  -4.809  26.447  1.00  0.00     0.186 C 
HETATM   26  O   UNL     1       9.054  -5.477  26.008  1.00  0.00    -0.206 OA
HETATM   27  O   UNL     1       8.646  -3.457  27.163  1.00  0.00    -0.206 OA
ENDBRANCH  22  24
ENDBRANCH   1  21
TORSDOF 9
