stable:False satoms:6 tatoms:24 sratio:0.25
  -OEChem-08062416393D

 45 46  0     1  0  0  0  0  0999 V2000
   -5.8808   -4.9165  -26.1651 C   0  0  0  0  0  0  0  0  0  0  0  0
   -7.4868   -4.5466  -25.9736 S   0  0  0  0  0  0  0  0  0  0  0  0
   -8.2294   -5.7867  -25.9571 O   0  0  0  0  0  0  0  0  0  0  0  0
   -7.8874   -3.7036  -27.0448 O   0  0  0  0  0  0  0  0  0  0  0  0
   -7.5652   -3.7911  -24.5520 N   0  0  0  0  0  0  0  0  0  0  0  0
   -8.5329   -3.1613  -24.0555 C   0  0  0  0  0  0  0  0  0  0  0  0
   -9.0772   -2.2549  -23.4796 C   0  0  0  0  0  0  0  0  0  0  0  0
  -10.0542   -1.4435  -23.3268 C   0  0  1  0  0  0  0  0  0  0  0  0
  -10.8344   -0.4170  -24.4534 C   0  0  0  0  0  0  0  0  0  0  0  0
  -11.7965   -0.2289  -24.5328 C   0  0  0  0  0  0  0  0  0  0  0  0
  -12.9706   -0.8444  -23.6789 C   0  0  0  0  0  0  0  0  0  0  0  0
  -12.4987   -1.7590  -22.8955 C   0  0  0  0  0  0  0  0  0  0  0  0
  -11.5283   -2.1985  -22.6479 C   0  0  0  0  0  0  0  0  0  0  0  0
   -9.5961   -0.8308  -22.3909 C   0  0  0  0  0  0  0  0  0  0  0  0
   -9.0320   -0.1644  -21.4142 C   0  0  0  0  0  0  0  0  0  0  0  0
   -9.5844    0.7297  -21.0384 O   0  0  0  0  0  0  0  0  0  0  0  0
   -7.8575   -0.6651  -21.0523 N   0  0  0  0  0  0  0  0  0  0  0  0
   -7.2407   -0.1069  -20.1126 C   0  0  0  0  0  0  0  0  0  0  0  0
   -7.4087    0.0117  -18.8248 C   0  0  0  0  0  0  0  0  0  0  0  0
   -7.0369    0.4052  -17.7338 N   0  0  0  0  0  0  0  0  0  0  0  0
   -5.9327    1.0816  -18.0875 C   0  0  0  0  0  0  0  0  0  0  0  0
   -5.4331    1.1926  -19.2920 C   0  0  0  0  0  0  0  0  0  0  0  0
   -5.9011    0.6892  -20.4394 C   0  0  0  0  0  0  0  0  0  0  0  0
   -5.4476    0.7774  -21.6172 C   0  0  0  0  0  0  0  0  0  0  0  0
   -5.7362   -5.4403  -27.1216 H   0  0  0  0  0  0  0  0  0  0  0  0
   -5.2883   -3.9898  -26.1615 H   0  0  0  0  0  0  0  0  0  0  0  0
   -5.5529   -5.5646  -25.3391 H   0  0  0  0  0  0  0  0  0  0  0  0
   -6.8196   -3.1253  -24.5797 H   0  0  0  0  0  0  0  0  0  0  0  0
   -9.3622   -3.8181  -24.2729 H   0  0  0  0  0  0  0  0  0  0  0  0
   -8.3900   -1.9935  -22.6885 H   0  0  0  0  0  0  0  0  0  0  0  0
  -10.1924    0.0847  -25.1623 H   0  0  0  0  0  0  0  0  0  0  0  0
  -12.0822    0.4821  -25.2939 H   0  0  0  0  0  0  0  0  0  0  0  0
  -14.0074   -0.5483  -23.7388 H   0  0  0  0  0  0  0  0  0  0  0  0
  -13.2888   -2.2208  -22.3220 H   0  0  0  0  0  0  0  0  0  0  0  0
  -11.4307   -2.1752  -21.5525 H   0  0  0  0  0  0  0  0  0  0  0  0
  -11.5468   -3.2430  -22.9923 H   0  0  0  0  0  0  0  0  0  0  0  0
   -9.9079   -1.6237  -21.6951 H   0  0  0  0  0  0  0  0  0  0  0  0
  -10.3938   -0.0774  -22.4695 H   0  0  0  0  0  0  0  0  0  0  0  0
   -7.4748   -1.4645  -21.5154 H   0  0  0  0  0  0  0  0  0  0  0  0
   -8.3448   -0.4892  -18.6270 H   0  0  0  0  0  0  0  0  0  0  0  0
   -5.4010    1.5872  -17.2950 H   0  0  0  0  0  0  0  0  0  0  0  0
   -4.5218    1.7670  -19.3699 H   0  0  0  0  0  0  0  0  0  0  0  0
   -4.7623   -0.0610  -21.8105 H   0  0  0  0  0  0  0  0  0  0  0  0
   -6.2809    0.7426  -22.3344 H   0  0  0  0  0  0  0  0  0  0  0  0
   -4.9054    1.7277  -21.7309 H   0  0  0  0  0  0  0  0  0  0  0  0
 20 21  2  0  0  0  0
 19 20  1  0  0  0  0
 21 22  1  0  0  0  0
 18 19  2  0  0  0  0
 22 23  2  0  0  0  0
 18 23  1  0  0  0  0
 17 18  1  0  0  0  0
 23 24  1  0  0  0  0
 15 16  2  0  0  0  0
 15 17  1  0  0  0  0
 14 15  1  0  0  0  0
  8 14  1  0  0  0  0
 12 13  1  0  0  0  0
  8 13  1  0  0  0  0
 11 12  2  0  0  0  0
  7  8  1  0  0  0  0
  8  9  1  0  0  0  0
 10 11  1  0  0  0  0
  6  7  2  3  0  0  0
  5  6  1  0  0  0  0
  9 10  2  0  0  0  0
  2  5  1  0  0  0  0
  2  3  2  0  0  0  0
  1  2  1  0  0  0  0
  2  4  2  0  0  0  0
  1 25  1  0  0  0  0
  1 26  1  0  0  0  0
  1 27  1  0  0  0  0
  5 28  1  0  0  0  0
  6 29  1  0  0  0  0
  7 30  1  0  0  0  0
  9 31  1  0  0  0  0
 10 32  1  0  0  0  0
 11 33  1  0  0  0  0
 12 34  1  0  0  0  0
 13 35  1  0  0  0  0
 13 36  1  0  0  0  0
 14 37  1  0  0  0  0
 14 38  1  0  0  0  0
 17 39  1  0  0  0  0
 19 40  1  0  0  0  0
 21 41  1  0  0  0  0
 22 42  1  0  0  0  0
 24 43  1  0  0  0  0
 24 44  1  0  0  0  0
 24 45  1  0  0  0  0
M  END
> <Chemgauss4>
-12.616328

$$$$
