stable:False satoms:6 tatoms:24 sratio:0.25
  -OEChem-08062416393D

 45 46  0     1  0  0  0  0  0999 V2000
    6.6825   -5.4573   25.9432 C   0  0  0  0  0  0  0  0  0  0  0  0
    8.2104   -4.8267   25.7995 S   0  0  0  0  0  0  0  0  0  0  0  0
    9.1404   -5.9301   25.7166 O   0  0  0  0  0  0  0  0  0  0  0  0
    8.4667   -4.0015   26.9273 O   0  0  0  0  0  0  0  0  0  0  0  0
    8.1749   -3.9785   24.4294 N   0  0  0  0  0  0  0  0  0  0  0  0
    9.0329   -3.1731   23.9880 C   0  0  0  0  0  0  0  0  0  0  0  0
    9.4293   -2.1569   23.4783 C   0  0  0  0  0  0  0  0  0  0  0  0
   10.2659   -1.1931   23.3914 C   0  0  1  0  0  0  0  0  0  0  0  0
   10.8676   -0.1307   24.5917 C   0  0  0  0  0  0  0  0  0  0  0  0
   11.7873    0.2015   24.6974 C   0  0  0  0  0  0  0  0  0  0  0  0
   13.0484   -0.1644   23.8244 C   0  0  0  0  0  0  0  0  0  0  0  0
   12.7316   -1.0899   22.9782 C   0  0  0  0  0  0  0  0  0  0  0  0
   11.8445   -1.6604   22.6889 C   0  0  0  0  0  0  0  0  0  0  0  0
    9.7211   -0.6017   22.4890 C   0  0  0  0  0  0  0  0  0  0  0  0
    9.0632    0.0285   21.5475 C   0  0  0  0  0  0  0  0  0  0  0  0
    9.4685    1.0210   21.2368 O   0  0  0  0  0  0  0  0  0  0  0  0
    7.9849   -0.6272   21.1373 N   0  0  0  0  0  0  0  0  0  0  0  0
    7.2920   -0.1143   20.2251 C   0  0  0  0  0  0  0  0  0  0  0  0
    7.4454    0.1118   18.9500 C   0  0  0  0  0  0  0  0  0  0  0  0
    7.0213    0.5109   17.8803 N   0  0  0  0  0  0  0  0  0  0  0  0
    5.8221    0.9801   18.2589 C   0  0  0  0  0  0  0  0  0  0  0  0
    5.3052    0.9331   19.4603 C   0  0  0  0  0  0  0  0  0  0  0  0
    5.8414    0.4373   20.5809 C   0  0  0  0  0  0  0  0  0  0  0  0
    5.3738    0.3769   21.7549 C   0  0  0  0  0  0  0  0  0  0  0  0
    6.6181   -6.0577   26.8626 H   0  0  0  0  0  0  0  0  0  0  0  0
    5.9504   -4.6376   25.9886 H   0  0  0  0  0  0  0  0  0  0  0  0
    6.4658   -6.0947   25.0732 H   0  0  0  0  0  0  0  0  0  0  0  0
    7.3330   -3.4421   24.4875 H   0  0  0  0  0  0  0  0  0  0  0  0
    9.9549   -3.7031   24.1763 H   0  0  0  0  0  0  0  0  0  0  0  0
    8.7133   -1.9571   22.6948 H   0  0  0  0  0  0  0  0  0  0  0  0
   10.1507    0.2165   25.3210 H   0  0  0  0  0  0  0  0  0  0  0  0
   11.9527    0.8984   25.5057 H   0  0  0  0  0  0  0  0  0  0  0  0
   14.0248    0.2874   23.9184 H   0  0  0  0  0  0  0  0  0  0  0  0
   13.5878   -1.3832   22.3889 H   0  0  0  0  0  0  0  0  0  0  0  0
   11.7499   -1.5825   21.5958 H   0  0  0  0  0  0  0  0  0  0  0  0
   12.0269   -2.7088   22.9674 H   0  0  0  0  0  0  0  0  0  0  0  0
   10.1582   -1.2890   21.7496 H   0  0  0  0  0  0  0  0  0  0  0  0
   10.3886    0.2617   22.6266 H   0  0  0  0  0  0  0  0  0  0  0  0
    7.7316   -1.5052   21.5434 H   0  0  0  0  0  0  0  0  0  0  0  0
    8.4502   -0.2210   18.7353 H   0  0  0  0  0  0  0  0  0  0  0  0
    5.2208    1.4452   17.4918 H   0  0  0  0  0  0  0  0  0  0  0  0
    4.3139    1.3500   19.5603 H   0  0  0  0  0  0  0  0  0  0  0  0
    4.8293   -0.5700   21.8849 H   0  0  0  0  0  0  0  0  0  0  0  0
    6.1984    0.4282   22.4810 H   0  0  0  0  0  0  0  0  0  0  0  0
    4.6870    1.2203   21.9197 H   0  0  0  0  0  0  0  0  0  0  0  0
 20 21  2  0  0  0  0
 19 20  1  0  0  0  0
 21 22  1  0  0  0  0
 18 19  2  0  0  0  0
 22 23  2  0  0  0  0
 18 23  1  0  0  0  0
 17 18  1  0  0  0  0
 23 24  1  0  0  0  0
 15 16  2  0  0  0  0
 15 17  1  0  0  0  0
 14 15  1  0  0  0  0
  8 14  1  0  0  0  0
 12 13  1  0  0  0  0
  8 13  1  0  0  0  0
 11 12  2  0  0  0  0
  7  8  1  0  0  0  0
  8  9  1  0  0  0  0
 10 11  1  0  0  0  0
  6  7  2  3  0  0  0
  5  6  1  0  0  0  0
  9 10  2  0  0  0  0
  2  5  1  0  0  0  0
  2  3  2  0  0  0  0
  1  2  1  0  0  0  0
  2  4  2  0  0  0  0
  1 25  1  0  0  0  0
  1 26  1  0  0  0  0
  1 27  1  0  0  0  0
  5 28  1  0  0  0  0
  6 29  1  0  0  0  0
  7 30  1  0  0  0  0
  9 31  1  0  0  0  0
 10 32  1  0  0  0  0
 11 33  1  0  0  0  0
 12 34  1  0  0  0  0
 13 35  1  0  0  0  0
 13 36  1  0  0  0  0
 14 37  1  0  0  0  0
 14 38  1  0  0  0  0
 17 39  1  0  0  0  0
 19 40  1  0  0  0  0
 21 41  1  0  0  0  0
 22 42  1  0  0  0  0
 24 43  1  0  0  0  0
 24 44  1  0  0  0  0
 24 45  1  0  0  0  0
M  END
> <Chemgauss4>
-13.017792

$$$$
