stable:False satoms:20 tatoms:24 sratio:0.8333333333333334
  -OEChem-08062401103D

 29 29  0     1  0  0  0  0  0999 V2000
    6.8989    0.9548   29.0883 H   0  0  0  0  0  0  0  0  0  0  0  0
    7.3148   -0.7352   29.0573 H   0  0  0  0  0  0  0  0  0  0  0  0
    5.7584   -0.1598   27.3973 Cl  0  0  0  0  0  0  0  0  0  0  0  0
    7.1511    0.1213   28.4158 C   0  0  0  0  0  0  0  0  0  0  0  0
    8.2875    0.4482   27.6304 N   0  0  0  0  0  0  0  0  0  0  0  0
    8.2197   -1.1299   25.9067 N   0  3  0  0  0  0  0  0  0  0  0  0
    8.3947   -0.3706   26.6653 C   0  0  0  0  0  0  0  0  0  0  0  0
    9.6445   -1.7285   24.2254 N   0  0  0  0  0  0  0  0  0  0  0  0
    8.5122   -2.1688   24.9695 C   0  0  0  0  0  0  0  0  0  0  0  0
    8.6734   -3.1285   25.4609 H   0  0  0  0  0  0  0  0  0  0  0  0
    7.7099   -2.3374   24.2399 H   0  0  0  0  0  0  0  0  0  0  0  0
    9.6355   -1.9692   22.8941 C   0  0  0  0  0  0  0  0  0  0  0  0
    8.7231   -2.2198   22.2081 O   0  0  0  0  0  0  0  0  0  0  0  0
   11.1618   -1.6877   25.4956 H   0  0  0  0  0  0  0  0  0  0  0  0
   11.8697   -1.0450   23.9227 C   0  0  3  0  0  0  0  0  0  0  0  0
   11.4783   -1.8433   22.4695 S   0  0  0  0  0  0  0  0  0  0  0  0
   10.8663   -1.1410   24.7122 N   0  0  0  0  0  0  0  0  0  0  0  0
   13.1077   -0.3461   24.1685 C   0  0  0  0  0  0  0  0  0  0  0  0
   13.5848   -0.1238   25.3993 C   0  0  0  0  0  0  0  0  0  0  0  0
   13.7080    0.0137   23.3401 H   0  0  0  0  0  0  0  0  0  0  0  0
   14.9076    0.1123   25.5935 N   0  3  0  0  0  0  0  0  0  0  0  0
   15.0153    0.9989   26.0434 H   0  0  0  0  0  0  0  0  0  0  0  0
   15.3797    0.1235   24.7121 H   0  0  0  0  0  0  0  0  0  0  0  0
   12.9665   -0.1823   26.2837 H   0  0  0  0  0  0  0  0  0  0  0  0
    8.9105    1.2095   27.8100 H   0  0  0  0  0  0  0  0  0  0  0  0
    9.4189   -0.1471   26.4055 H   0  0  0  0  0  0  0  0  0  0  0  0
   12.2976   -1.9729   24.3301 H   0  0  0  0  0  0  0  0  0  0  0  0
    7.2291   -1.0526   25.7933 H   0  0  0  0  0  0  0  0  0  0  0  0
   15.2958   -0.6064   26.1705 H   0  0  0  0  0  0  0  0  0  0  0  0
 21 22  1  0  0  0  0
 18 20  1  0  0  0  0
 21 23  1  0  0  0  0
 19 21  1  0  0  0  0
 18 19  2  0  0  0  0
 15 18  1  0  0  0  0
 19 24  1  0  0  0  0
 15 16  1  0  0  0  0
 12 16  1  0  0  0  0
 15 17  1  0  0  0  0
 14 17  1  0  0  0  0
  8 17  1  0  0  0  0
 12 13  2  0  0  0  0
  8 12  1  0  0  0  0
  8  9  1  0  0  0  0
  6  9  1  0  0  0  0
  9 11  1  0  0  0  0
  9 10  1  0  0  0  0
  6  7  2  0  0  0  0
  5  7  1  0  0  0  0
  4  5  1  0  0  0  0
  1  4  1  0  0  0  0
  3  4  1  0  0  0  0
  2  4  1  0  0  0  0
  5 25  1  0  0  0  0
  7 26  1  0  0  0  0
 15 27  1  0  0  0  0
  6 28  1  0  0  0  0
 21 29  1  0  0  0  0
M  CHG  2   6   1  21   1
M  END
> <Chemgauss4>
-6.120646

$$$$
