stable:False satoms:20 tatoms:24 sratio:0.8333333333333334
  -OEChem-08062401103D

 29 29  0     1  0  0  0  0  0999 V2000
   -6.7829   -0.2485  -28.9695 H   0  0  0  0  0  0  0  0  0  0  0  0
   -7.3384   -1.8772  -28.7067 H   0  0  0  0  0  0  0  0  0  0  0  0
   -5.6834   -1.2311  -27.1728 Cl  0  0  0  0  0  0  0  0  0  0  0  0
   -7.0813   -0.9627  -28.1875 C   0  0  0  0  0  0  0  0  0  0  0  0
   -8.1587   -0.4382  -27.4264 N   0  0  0  0  0  0  0  0  0  0  0  0
   -8.1654   -1.7800  -25.5118 N   0  3  0  0  0  0  0  0  0  0  0  0
   -8.3016   -1.1128  -26.3596 C   0  0  0  0  0  0  0  0  0  0  0  0
   -9.5776   -2.0285  -23.7343 N   0  0  0  0  0  0  0  0  0  0  0  0
   -8.5123   -2.6591  -24.4394 C   0  0  0  0  0  0  0  0  0  0  0  0
   -8.7705   -3.6564  -24.7962 H   0  0  0  0  0  0  0  0  0  0  0  0
   -7.7027   -2.8020  -23.7124 H   0  0  0  0  0  0  0  0  0  0  0  0
   -9.5435   -2.0948  -22.3834 C   0  0  0  0  0  0  0  0  0  0  0  0
   -8.6326   -2.3338  -21.6913 O   0  0  0  0  0  0  0  0  0  0  0  0
  -11.1284   -2.0190  -24.9639 H   0  0  0  0  0  0  0  0  0  0  0  0
  -11.7257   -1.1185  -23.4738 C   0  0  3  0  0  0  0  0  0  0  0  0
  -11.3537   -1.7535  -21.9373 S   0  0  0  0  0  0  0  0  0  0  0  0
  -10.7613   -1.4037  -24.2663 N   0  0  0  0  0  0  0  0  0  0  0  0
  -12.9080   -0.3511  -23.7813 C   0  0  0  0  0  0  0  0  0  0  0  0
  -13.4064   -0.2487  -25.0196 C   0  0  0  0  0  0  0  0  0  0  0  0
  -13.4473    0.1642  -22.9941 H   0  0  0  0  0  0  0  0  0  0  0  0
  -14.7104    0.0757  -25.2131 N   0  3  0  0  0  0  0  0  0  0  0  0
  -14.7583    0.9026  -25.7733 H   0  0  0  0  0  0  0  0  0  0  0  0
  -15.1496    0.2423  -24.3303 H   0  0  0  0  0  0  0  0  0  0  0  0
  -12.8256   -0.4753  -25.9023 H   0  0  0  0  0  0  0  0  0  0  0  0
   -8.7212    0.3452  -27.6906 H   0  0  0  0  0  0  0  0  0  0  0  0
   -9.2939   -0.7683  -26.1083 H   0  0  0  0  0  0  0  0  0  0  0  0
  -12.2438   -2.0500  -23.7455 H   0  0  0  0  0  0  0  0  0  0  0  0
   -7.1686   -1.7761  -25.4320 H   0  0  0  0  0  0  0  0  0  0  0  0
  -15.1772   -0.6746  -25.6813 H   0  0  0  0  0  0  0  0  0  0  0  0
 21 22  1  0  0  0  0
 18 20  1  0  0  0  0
 21 23  1  0  0  0  0
 19 21  1  0  0  0  0
 18 19  2  0  0  0  0
 15 18  1  0  0  0  0
 19 24  1  0  0  0  0
 15 16  1  0  0  0  0
 12 16  1  0  0  0  0
 15 17  1  0  0  0  0
 14 17  1  0  0  0  0
  8 17  1  0  0  0  0
 12 13  2  0  0  0  0
  8 12  1  0  0  0  0
  8  9  1  0  0  0  0
  6  9  1  0  0  0  0
  9 11  1  0  0  0  0
  9 10  1  0  0  0  0
  6  7  2  0  0  0  0
  5  7  1  0  0  0  0
  4  5  1  0  0  0  0
  1  4  1  0  0  0  0
  3  4  1  0  0  0  0
  2  4  1  0  0  0  0
  5 25  1  0  0  0  0
  7 26  1  0  0  0  0
 15 27  1  0  0  0  0
  6 28  1  0  0  0  0
 21 29  1  0  0  0  0
M  CHG  2   6   1  21   1
M  END
> <Chemgauss4>
-6.092651

$$$$
