stable:False satoms:22 tatoms:24 sratio:0.9166666666666666
  -OEChem-07092417283D

 24 24  0     0  0  0  0  0  0999 V2000
    9.6632   -1.8071   21.5634 C   0  0  0  0  0  0  0  0  0  0  0  0
   10.8081   -2.4796   21.4670 N   0  0  0  0  0  0  0  0  0  0  0  0
    7.3020    1.8705   21.5603 H   0  0  0  0  0  0  0  0  0  0  0  0
   10.6541   -1.9339   25.0252 C   0  0  0  0  0  0  0  0  0  0  0  0
    9.2853   -1.8883   22.9296 C   0  0  0  0  0  0  0  0  0  0  0  0
   11.2671   -2.8108   20.6258 H   0  0  0  0  0  0  0  0  0  0  0  0
   12.3382   -3.2401   23.0108 O   0  0  0  0  0  0  0  0  0  0  0  0
    8.0798   -1.8022   23.5046 O   0  0  0  0  0  0  0  0  0  0  0  0
    5.5551   -0.0937   23.0787 H   0  0  0  0  0  0  0  0  0  0  0  0
    6.6077   -0.8789   21.4324 N   0  0  0  0  0  0  0  0  0  0  0  0
    9.9251   -2.3852   25.6836 H   0  0  0  0  0  0  0  0  0  0  0  0
   11.6425   -2.3487   25.2247 H   0  0  0  0  0  0  0  0  0  0  0  0
    6.4737    0.0139   22.4953 C   0  0  0  0  0  0  0  0  0  0  0  0
    7.3124    0.1165   23.1767 H   0  0  0  0  0  0  0  0  0  0  0  0
   10.6571   -0.8571   25.2031 H   0  0  0  0  0  0  0  0  0  0  0  0
    6.5820    1.0667   21.3866 C   0  0  0  0  0  0  0  0  0  0  0  0
    8.1583   -1.6242   24.4587 H   0  0  0  0  0  0  0  0  0  0  0  0
    5.8094   -1.4247   21.1323 H   0  0  0  0  0  0  0  0  0  0  0  0
   11.3184   -2.7250   22.7356 C   0  0  0  0  0  0  0  0  0  0  0  0
   10.3736   -2.2151   23.6319 N   0  0  0  0  0  0  0  0  0  0  0  0
    5.6120    1.4717   21.0720 H   0  0  0  0  0  0  0  0  0  0  0  0
    7.1197    0.0080   20.5666 C   0  0  0  0  0  0  0  0  0  0  0  0
    9.2325   -1.2402   20.7608 H   0  0  0  0  0  0  0  0  0  0  0  0
    7.8068   -0.0827   19.5710 O   0  0  0  0  0  0  0  0  0  0  0  0
 22 24  2  0  0  0  0
 16 22  1  0  0  0  0
 10 22  1  0  0  0  0
  2  6  1  0  0  0  0
  1 23  1  0  0  0  0
 16 21  1  0  0  0  0
 10 18  1  0  0  0  0
  3 16  1  0  0  0  0
 13 16  1  0  0  0  0
 10 13  1  0  0  0  0
  1  2  1  0  0  0  0
  2 19  1  0  0  0  0
  1  5  2  0  0  0  0
  9 13  1  0  0  0  0
 13 14  1  0  0  0  0
  7 19  2  0  0  0  0
 19 20  1  0  0  0  0
  5  8  1  0  0  0  0
  5 20  1  0  0  0  0
  8 17  1  0  0  0  0
  4 20  1  0  0  0  0
  4 15  1  0  0  0  0
  4 12  1  0  0  0  0
  4 11  1  0  0  0  0
M  END
> <Shapegauss>
-94.518661

$$$$
