REMARK  1 active torsions:
REMARK  status: ('A' for Active; 'I' for Inactive)
REMARK    1  A    between atoms: C_4  and  O_7 
ROOT
HETATM    1  N   UNL     2       6.608  -0.879  21.432  1.00  0.00    -0.263 NA
HETATM    2  C   UNL     2       6.474   0.014  22.495  1.00  0.00     0.104 C 
HETATM    3  C   UNL     2       6.582   1.067  21.387  1.00  0.00     0.111 C 
HETATM    4  H   UNL     2       5.809  -1.425  21.132  1.00  0.00     0.130 HD
HETATM    5  C   UNL     2       7.120   0.008  20.567  1.00  0.00     0.198 C 
HETATM    6  O   UNL     2       7.807  -0.083  19.571  1.00  0.00    -0.280 OA
ENDROOT
TORSDOF 1
