stable:False satoms:21 tatoms:24 sratio:0.875
  -OEChem-07092417313D

 24 22  0     0  0  0  0  0  0999 V2000
    8.5786   -0.9244   25.2250 H   0  0  0  0  0  0  0  0  0  0  0  0
    8.0953    1.2888   24.6003 H   0  0  0  0  0  0  0  0  0  0  0  0
    9.7252   -2.9649   22.3453 C   0  0  0  0  0  0  0  0  0  0  0  0
    7.4874   -2.5288   22.1728 H   0  0  0  0  0  0  0  0  0  0  0  0
    9.0457   -3.5847   23.4415 N   0  0  0  0  0  0  0  0  0  0  0  0
    8.1870   -4.0361   23.3389 H   0  0  0  0  0  0  0  0  0  0  0  0
   10.6857   -1.2583   23.9153 H   0  0  0  0  0  0  0  0  0  0  0  0
   10.0182   -0.4912   23.7182 C   0  5  0  0  0  0  0  0  0  0  0  0
    7.9777   -1.2439   23.6642 H   0  0  0  0  0  0  0  0  0  0  0  0
   10.7357   -2.7017   22.6491 H   0  0  0  0  0  0  0  0  0  0  0  0
    9.2254   -1.6946   21.8012 N   0  0  0  0  0  0  0  0  0  0  0  0
    8.6914   -0.5874   24.1340 C   0  0  0  0  0  0  0  0  0  0  0  0
   10.4069    0.3360   23.1675 H   0  0  0  0  0  0  0  0  0  0  0  0
    9.7478   -3.6394   21.4936 H   0  0  0  0  0  0  0  0  0  0  0  0
    7.9944   -1.9558   21.4774 N   0  0  0  0  0  0  0  0  0  0  0  0
    8.7898    1.5895   23.0494 H   0  0  0  0  0  0  0  0  0  0  0  0
    8.3743    0.1962   20.5565 C   0  5  0  0  0  0  0  0  0  0  0  0
    7.8840   -0.6686   19.7834 C   0  0  0  0  0  0  0  0  0  0  0  0
    8.9834   -2.9014   24.1620 H   0  0  0  0  0  0  0  0  0  0  0  0
    7.8462   -0.4950   18.7266 H   0  0  0  0  0  0  0  0  0  0  0  0
    7.3214    0.6902   23.0350 H   0  0  0  0  0  0  0  0  0  0  0  0
    8.2569    1.1556   20.8323 H   0  0  0  0  0  0  0  0  0  0  0  0
    8.1899    0.8720   23.6292 C   0  0  0  0  0  0  0  0  0  0  0  0
    7.3357   -1.7423   20.3780 N   0  0  0  0  0  0  0  0  0  0  0  0
 18 20  1  0  0  0  0
 18 24  1  0  0  0  0
 17 18  2  3  0  0  0
 15 24  1  0  0  0  0
 17 22  1  0  0  0  0
 11 15  1  0  0  0  0
  4 15  1  0  0  0  0
  3 14  1  0  0  0  0
  3 11  1  0  0  0  0
  3 10  1  0  0  0  0
  3  5  1  0  0  0  0
 21 23  1  0  0  0  0
 16 23  1  0  0  0  0
  8 13  1  0  0  0  0
  5  6  1  0  0  0  0
  5 19  1  0  0  0  0
 12 23  1  0  0  0  0
  2 23  1  0  0  0  0
  9 12  1  0  0  0  0
  7  8  1  0  0  0  0
  8 12  1  0  0  0  0
  1 12  1  0  0  0  0
M  CHG  2   8  -1  17  -1
M  END
> <Shapegauss>
-81.779449

$$$$
