stable:False satoms:20 tatoms:24 sratio:0.8333333333333334
  -OEChem-07092417333D

 24 22  0     1  0  0  0  0  0999 V2000
    7.3915   -3.2819   25.4938 N   0  0  0  0  0  0  0  0  0  0  0  0
    7.4307   -0.1809   25.6798 H   0  0  0  0  0  0  0  0  0  0  0  0
    7.9433   -2.4798   24.8896 C   0  0  0  0  0  0  0  0  0  0  0  0
    6.4496   -0.5999   24.2965 H   0  0  0  0  0  0  0  0  0  0  0  0
    9.9276   -3.3915   22.2907 H   0  0  0  0  0  0  0  0  0  0  0  0
    8.3847   -1.3191   24.2574 C   0  0  3  0  0  0  0  0  0  0  0  0
   10.4684   -2.5102   21.9601 C   0  0  0  0  0  0  0  0  0  0  0  0
   11.4049   -2.3980   22.4846 H   0  0  0  0  0  0  0  0  0  0  0  0
    9.6233   -1.3371   22.2700 C   0  0  1  0  0  0  0  0  0  0  0  0
    7.4409   -0.2755   24.5768 C   0  0  0  0  0  0  0  0  0  0  0  0
   11.6339   -0.1162   22.6579 O   0  5  0  0  0  0  0  0  0  0  0  0
   11.5374   -0.1790   21.7007 H   0  0  0  0  0  0  0  0  0  0  0  0
    8.4029   -1.0120   21.6092 C   0  0  2  0  0  0  0  0  0  0  0  0
    9.5416   -1.0563   23.5989 O   0  0  0  0  0  0  0  0  0  0  0  0
   10.6842   -2.6106   20.8963 H   0  0  0  0  0  0  0  0  0  0  0  0
    9.0573   -0.9978   20.4268 C   0  5  0  0  0  0  0  0  0  0  0  0
    7.6065    0.3465   21.6260 N   0  0  0  0  0  0  0  0  0  0  0  0
    6.6124   -2.3344   21.9187 H   0  0  0  0  0  0  0  0  0  0  0  0
    9.5445   -0.1434   20.0138 H   0  0  0  0  0  0  0  0  0  0  0  0
    7.6517    0.6693   24.0592 H   0  0  0  0  0  0  0  0  0  0  0  0
    8.6751   -1.6710   19.6619 H   0  0  0  0  0  0  0  0  0  0  0  0
    6.6776    0.3418   20.8909 O   0  0  0  0  0  0  0  0  0  0  0  0
    7.4037   -1.9918   21.8171 O   0  0  0  0  0  0  0  0  0  0  0  0
    8.0905    1.2384   22.2200 O   0  0  0  0  0  0  0  0  0  0  0  0
 16 21  1  0  0  0  0
 16 19  1  0  0  0  0
 13 16  1  0  0  0  0
 17 22  2  0  0  0  0
  7 15  1  0  0  0  0
 13 17  1  0  0  0  0
 13 23  1  0  0  0  0
  9 13  1  0  0  0  0
 17 24  2  0  0  0  0
 11 12  1  0  0  0  0
 18 23  1  0  0  0  0
  7  9  1  0  0  0  0
  5  7  1  0  0  0  0
  7  8  1  0  0  0  0
  9 14  1  0  0  0  0
  6 14  1  0  0  0  0
 10 20  1  0  0  0  0
  6 10  1  0  0  0  0
  3  6  1  0  0  0  0
  4 10  1  0  0  0  0
  2 10  1  0  0  0  0
  1  3  3  0  0  0  0
M  CHG  2  11  -1  16  -1
M  END
> <Shapegauss>
-108.384140

$$$$
