stable:False satoms:20 tatoms:24 sratio:0.8333333333333334
  -OEChem-08052419093D

 24 25  0     0  0  0  0  0  0999 V2000
    6.1006   -3.1013   25.4895 H   0  0  0  0  0  0  0  0  0  0  0  0
    4.5877   -2.8808   24.5169 H   0  0  0  0  0  0  0  0  0  0  0  0
    5.7226   -1.4574   22.9704 H   0  0  0  0  0  0  0  0  0  0  0  0
   10.4665   -1.6720   23.1647 C   0  0  0  0  0  0  0  0  0  0  0  0
   10.6567    1.0382   25.4349 H   0  0  0  0  0  0  0  0  0  0  0  0
    5.6293   -2.6703   24.6435 C   0  0  0  0  0  0  0  0  0  0  0  0
    8.1926   -0.7423   24.6286 C   0  0  0  0  0  0  0  0  0  0  0  0
   11.7517   -1.8988   22.6818 C   0  0  0  0  0  0  0  0  0  0  0  0
    7.7853   -2.9902   21.9964 H   0  0  0  0  0  0  0  0  0  0  0  0
    9.6399   -2.4722   22.5066 N   0  0  0  0  0  0  0  0  0  0  0  0
   11.7657   -2.6053   21.8501 H   0  0  0  0  0  0  0  0  0  0  0  0
    9.1737   -0.0232   24.2399 N   0  0  0  0  0  0  0  0  0  0  0  0
    8.3750   -2.3993   22.6886 C   0  0  0  0  0  0  0  0  0  0  0  0
    7.6627   -1.7007   23.7236 C   0  0  0  0  0  0  0  0  0  0  0  0
   12.9675   -1.4220   23.1575 C   0  0  0  0  0  0  0  0  0  0  0  0
   13.8173   -1.8841   22.6640 H   0  0  0  0  0  0  0  0  0  0  0  0
   12.5573    0.2475   24.9779 C   0  0  0  0  0  0  0  0  0  0  0  0
   13.3653   -0.5210   24.1556 C   0  0  0  0  0  0  0  0  0  0  0  0
    6.2848   -1.9077   23.7610 C   0  0  0  0  0  0  0  0  0  0  0  0
    7.7919   -0.4794   25.5961 H   0  0  0  0  0  0  0  0  0  0  0  0
   14.4296   -0.4060   24.3382 H   0  0  0  0  0  0  0  0  0  0  0  0
   11.2047    0.2540   24.9213 C   0  0  0  0  0  0  0  0  0  0  0  0
   13.0513    0.9043   25.6780 H   0  0  0  0  0  0  0  0  0  0  0  0
   10.3070   -0.5430   24.1756 C   0  0  0  0  0  0  0  0  0  0  0  0
 18 21  1  0  0  0  0
 17 23  1  0  0  0  0
 17 18  2  0  0  0  0
 15 18  1  0  0  0  0
 17 22  1  0  0  0  0
 15 16  1  0  0  0  0
  5 22  1  0  0  0  0
  8 15  2  0  0  0  0
 22 24  2  0  0  0  0
  8 11  1  0  0  0  0
  4  8  1  0  0  0  0
 12 24  1  0  0  0  0
  4 24  1  0  0  0  0
  7 12  2  0  0  0  0
  4 10  2  0  0  0  0
  7 20  1  0  0  0  0
  7 14  1  0  0  0  0
 10 13  1  0  0  0  0
 13 14  2  0  0  0  0
  9 13  1  0  0  0  0
 14 19  1  0  0  0  0
  3 19  1  0  0  0  0
  6 19  2  0  0  0  0
  1  6  1  0  0  0  0
  2  6  1  0  0  0  0
M  END
> <Chemgauss4>
-7.658976

$$$$
