stable:False satoms:20 tatoms:24 sratio:0.8333333333333334
  -OEChem-08052419093D

 24 25  0     0  0  0  0  0  0999 V2000
   -5.9699   -3.1748  -25.3272 H   0  0  0  0  0  0  0  0  0  0  0  0
   -4.4570   -2.9543  -24.3545 H   0  0  0  0  0  0  0  0  0  0  0  0
   -5.5918   -1.5309  -22.8080 H   0  0  0  0  0  0  0  0  0  0  0  0
  -10.3358   -1.7455  -23.0024 C   0  0  0  0  0  0  0  0  0  0  0  0
  -10.5260    0.9647  -25.2726 H   0  0  0  0  0  0  0  0  0  0  0  0
   -5.4985   -2.7438  -24.4812 C   0  0  0  0  0  0  0  0  0  0  0  0
   -8.0619   -0.8158  -24.4663 C   0  0  0  0  0  0  0  0  0  0  0  0
  -11.6210   -1.9723  -22.5195 C   0  0  0  0  0  0  0  0  0  0  0  0
   -7.6545   -3.0637  -21.8341 H   0  0  0  0  0  0  0  0  0  0  0  0
   -9.5092   -2.5457  -22.3443 N   0  0  0  0  0  0  0  0  0  0  0  0
  -11.6350   -2.6788  -21.6878 H   0  0  0  0  0  0  0  0  0  0  0  0
   -9.0429   -0.0967  -24.0775 N   0  0  0  0  0  0  0  0  0  0  0  0
   -8.2443   -2.4728  -22.5263 C   0  0  0  0  0  0  0  0  0  0  0  0
   -7.5320   -1.7742  -23.5613 C   0  0  0  0  0  0  0  0  0  0  0  0
  -12.8368   -1.4955  -22.9952 C   0  0  0  0  0  0  0  0  0  0  0  0
  -13.6866   -1.9576  -22.5016 H   0  0  0  0  0  0  0  0  0  0  0  0
  -12.4265    0.1740  -24.8156 C   0  0  0  0  0  0  0  0  0  0  0  0
  -13.2345   -0.5945  -23.9933 C   0  0  0  0  0  0  0  0  0  0  0  0
   -6.1541   -1.9812  -23.5987 C   0  0  0  0  0  0  0  0  0  0  0  0
   -7.6611   -0.5529  -25.4338 H   0  0  0  0  0  0  0  0  0  0  0  0
  -14.2988   -0.4795  -24.1759 H   0  0  0  0  0  0  0  0  0  0  0  0
  -11.0740    0.1805  -24.7589 C   0  0  0  0  0  0  0  0  0  0  0  0
  -12.9205    0.8308  -25.5157 H   0  0  0  0  0  0  0  0  0  0  0  0
  -10.1763   -0.6165  -24.0133 C   0  0  0  0  0  0  0  0  0  0  0  0
 18 21  1  0  0  0  0
 17 23  1  0  0  0  0
 17 18  2  0  0  0  0
 15 18  1  0  0  0  0
 17 22  1  0  0  0  0
 15 16  1  0  0  0  0
  5 22  1  0  0  0  0
  8 15  2  0  0  0  0
 22 24  2  0  0  0  0
  8 11  1  0  0  0  0
  4  8  1  0  0  0  0
 12 24  1  0  0  0  0
  4 24  1  0  0  0  0
  7 12  2  0  0  0  0
  4 10  2  0  0  0  0
  7 20  1  0  0  0  0
  7 14  1  0  0  0  0
 10 13  1  0  0  0  0
 13 14  2  0  0  0  0
  9 13  1  0  0  0  0
 14 19  1  0  0  0  0
  3 19  1  0  0  0  0
  6 19  2  0  0  0  0
  1  6  1  0  0  0  0
  2  6  1  0  0  0  0
M  END
> <Chemgauss4>
-7.571671

$$$$
