MODEL 1
REMARK VINA RESULT:    -6.420      0.000      0.000
REMARK INTER + INTRA:         -11.156
REMARK INTER:                 -10.173
REMARK INTRA:                  -0.983
REMARK UNBOUND:                -0.983
REMARK  10 active torsions:
REMARK  status: ('A' for Active; 'I' for Inactive)
REMARK    1  A    between atoms: S_2  and  N_5 
REMARK    2  A    between atoms: N_5  and  C_7 
REMARK    3  A    between atoms: C_8  and  C_9 
REMARK    4  A    between atoms: C_9  and  C_15 
REMARK    5  A    between atoms: C_9  and  C_10 
REMARK    6  A    between atoms: C_10  and  C_11 
REMARK    7  A    between atoms: C_11  and  C_12 
REMARK    8  A    between atoms: C_12  and  C_13 
REMARK    9  A    between atoms: C_15  and  C_16 
REMARK       I    between atoms: C_16  and  N_18 
REMARK   10  A    between atoms: N_18  and  C_20 
ROOT
HETATM    1  C   UNL     1       9.080  -1.511  23.414  1.00  0.00     0.108 C 
ENDROOT
BRANCH   1   2
HETATM    2  C   UNL     1       8.321  -2.520  23.275  1.00  0.00     0.011 C 
HETATM    3  C   UNL     1       7.980  -3.528  22.646  1.00  0.00     0.097 C 
BRANCH   3   4
HETATM    4  N   UNL     1       7.583  -4.685  22.554  1.00  0.00    -0.296 N 
ATOM      5  HN  UNL     1       8.234  -5.426  22.812  1.00  0.00     0.177 HD
BRANCH   4   6
HETATM    6  S   UNL     1       6.127  -5.123  22.060  1.00  0.00     0.226 S 
HETATM    7  C   UNL     1       5.416  -5.943  23.404  1.00  0.00     0.186 C 
HETATM    8  O   UNL     1       5.307  -3.967  21.769  1.00  0.00    -0.206 OA
HETATM    9  O   UNL     1       6.139  -6.045  20.950  1.00  0.00    -0.206 OA
ENDBRANCH   4   6
ENDBRANCH   3   4
ENDBRANCH   1   2
BRANCH   1  10
HETATM   10  C   UNL     1       8.751  -0.986  22.339  1.00  0.00    -0.071 C 
BRANCH  10  11
HETATM   11  C   UNL     1       8.285  -0.424  21.236  1.00  0.00     0.289 C 
HETATM   12  O   UNL     1       9.043   0.128  20.614  1.00  0.00    -0.259 OA
HETATM   13  N   UNL     1       6.982  -0.599  21.083  1.00  0.00    -0.315 N 
ATOM     14  HN  UNL     1       6.442  -1.127  21.769  1.00  0.00     0.170 HD
BRANCH  13  15
HETATM   15  C   UNL     1       6.424  -0.098  20.072  1.00  0.00     0.057 A 
HETATM   16  C   UNL     1       6.177  -0.507  18.842  1.00  0.00     0.117 A 
HETATM   17  N   UNL     1       5.697  -0.322  17.761  1.00  0.00    -0.373 N 
HETATM   18  C   UNL     1       5.222   0.895  17.903  1.00  0.00     0.088 A 
ATOM     19  HN  UNL     1       5.665  -0.940  16.950  1.00  0.00     0.164 HD
HETATM   20  C   UNL     1       5.265   1.606  18.967  1.00  0.00     0.026 A 
HETATM   21  C   UNL     1       5.798   1.342  20.130  1.00  0.00    -0.033 A 
HETATM   22  C   UNL     1       5.854   2.187  21.437  1.00  0.00     0.050 C 
ENDBRANCH  13  15
ENDBRANCH  10  11
ENDBRANCH   1  10
BRANCH   1  23
HETATM   23  C   UNL     1       9.308  -0.519  24.574  1.00  0.00    -0.010 C 
BRANCH  23  24
HETATM   24  C   UNL     1      10.014   0.411  24.627  1.00  0.00    -0.025 C 
BRANCH  24  25
HETATM   25  C   UNL     1      11.307   0.461  25.231  1.00  0.00     0.053 C 
BRANCH  25  26
HETATM   26  C   UNL     1      12.336   0.293  24.261  1.00  0.00    -0.033 C 
HETATM   27  C   UNL     1      13.057  -0.435  24.122  1.00  0.00     0.007 C 
ENDBRANCH  25  26
ENDBRANCH  24  25
ENDBRANCH  23  24
ENDBRANCH   1  23
TORSDOF 10
ENDMDL
MODEL 2
REMARK VINA RESULT:    -6.313     14.328     16.298
REMARK INTER + INTRA:         -10.987
REMARK INTER:                  -9.419
REMARK INTRA:                  -1.568
REMARK UNBOUND:                -0.983
REMARK  10 active torsions:
REMARK  status: ('A' for Active; 'I' for Inactive)
REMARK    1  A    between atoms: S_2  and  N_5 
REMARK    2  A    between atoms: N_5  and  C_7 
REMARK    3  A    between atoms: C_8  and  C_9 
REMARK    4  A    between atoms: C_9  and  C_15 
REMARK    5  A    between atoms: C_9  and  C_10 
REMARK    6  A    between atoms: C_10  and  C_11 
REMARK    7  A    between atoms: C_11  and  C_12 
REMARK    8  A    between atoms: C_12  and  C_13 
REMARK    9  A    between atoms: C_15  and  C_16 
REMARK       I    between atoms: C_16  and  N_18 
REMARK   10  A    between atoms: N_18  and  C_20 
ROOT
HETATM    1  C   UNL     1      24.296  -1.782  23.563  1.00  0.00     0.108 C 
ENDROOT
BRANCH   1   2
HETATM    2  C   UNL     1      24.004  -2.979  23.875  1.00  0.00     0.011 C 
HETATM    3  C   UNL     1      24.205  -4.195  23.774  1.00  0.00     0.097 C 
BRANCH   3   4
HETATM    4  N   UNL     1      24.282  -5.337  24.213  1.00  0.00    -0.296 N 
ATOM      5  HN  UNL     1      24.492  -6.082  23.548  1.00  0.00     0.177 HD
BRANCH   4   6
HETATM    6  S   UNL     1      24.079  -5.753  25.743  1.00  0.00     0.226 S 
HETATM    7  C   UNL     1      25.474  -5.154  26.567  1.00  0.00     0.186 C 
HETATM    8  O   UNL     1      22.921  -5.097  26.310  1.00  0.00    -0.206 OA
HETATM    9  O   UNL     1      24.028  -7.178  25.960  1.00  0.00    -0.206 OA
ENDBRANCH   4   6
ENDBRANCH   3   4
ENDBRANCH   1   2
BRANCH   1  10
HETATM   10  C   UNL     1      23.765  -1.837  22.443  1.00  0.00    -0.071 C 
BRANCH  10  11
HETATM   11  C   UNL     1      23.277  -1.804  21.214  1.00  0.00     0.289 C 
HETATM   12  O   UNL     1      22.161  -1.918  21.131  1.00  0.00    -0.259 OA
HETATM   13  N   UNL     1      24.217  -1.669  20.292  1.00  0.00    -0.315 N 
ATOM     14  HN  UNL     1      25.200  -1.594  20.556  1.00  0.00     0.170 HD
BRANCH  13  15
HETATM   15  C   UNL     1      23.871  -1.636  19.082  1.00  0.00     0.057 A 
HETATM   16  C   UNL     1      23.333  -0.731  18.288  1.00  0.00     0.117 A 
HETATM   17  N   UNL     1      22.946  -0.394  17.206  1.00  0.00    -0.373 N 
HETATM   18  C   UNL     1      23.149  -1.492  16.515  1.00  0.00     0.088 A 
ATOM     19  HN  UNL     1      22.562   0.502  16.904  1.00  0.00     0.164 HD
HETATM   20  C   UNL     1      23.671  -2.577  16.950  1.00  0.00     0.026 A 
HETATM   21  C   UNL     1      24.088  -2.883  18.151  1.00  0.00    -0.033 A 
HETATM   22  C   UNL     1      24.733  -4.190  18.699  1.00  0.00     0.050 C 
ENDBRANCH  13  15
ENDBRANCH  10  11
ENDBRANCH   1  10
BRANCH   1  23
HETATM   23  C   UNL     1      24.126  -0.434  24.294  1.00  0.00    -0.010 C 
BRANCH  23  24
HETATM   24  C   UNL     1      23.196   0.271  24.344  1.00  0.00    -0.025 C 
BRANCH  24  25
HETATM   25  C   UNL     1      22.076   0.136  25.221  1.00  0.00     0.053 C 
BRANCH  25  26
HETATM   26  C   UNL     1      20.976  -0.481  24.561  1.00  0.00    -0.033 C 
HETATM   27  C   UNL     1      20.622  -1.453  24.545  1.00  0.00     0.007 C 
ENDBRANCH  25  26
ENDBRANCH  24  25
ENDBRANCH  23  24
ENDBRANCH   1  23
TORSDOF 10
ENDMDL
MODEL 3
REMARK VINA RESULT:    -6.313      2.721      5.142
REMARK INTER + INTRA:         -10.987
REMARK INTER:                  -9.789
REMARK INTRA:                  -1.198
REMARK UNBOUND:                -0.983
REMARK  10 active torsions:
REMARK  status: ('A' for Active; 'I' for Inactive)
REMARK    1  A    between atoms: S_2  and  N_5 
REMARK    2  A    between atoms: N_5  and  C_7 
REMARK    3  A    between atoms: C_8  and  C_9 
REMARK    4  A    between atoms: C_9  and  C_15 
REMARK    5  A    between atoms: C_9  and  C_10 
REMARK    6  A    between atoms: C_10  and  C_11 
REMARK    7  A    between atoms: C_11  and  C_12 
REMARK    8  A    between atoms: C_12  and  C_13 
REMARK    9  A    between atoms: C_15  and  C_16 
REMARK       I    between atoms: C_16  and  N_18 
REMARK   10  A    between atoms: N_18  and  C_20 
ROOT
HETATM    1  C   UNL     1       8.019  -2.092  24.213  1.00  0.00     0.108 C 
ENDROOT
BRANCH   1   2
HETATM    2  C   UNL     1       8.577  -1.027  24.623  1.00  0.00     0.011 C 
HETATM    3  C   UNL     1       9.567  -0.437  25.070  1.00  0.00     0.097 C 
BRANCH   3   4
HETATM    4  N   UNL     1      10.329   0.519  25.162  1.00  0.00    -0.296 N 
ATOM      5  HN  UNL     1      10.282   1.077  26.014  1.00  0.00     0.177 HD
BRANCH   4   6
HETATM    6  S   UNL     1      11.392   0.961  24.052  1.00  0.00     0.226 S 
HETATM    7  C   UNL     1      11.252   2.678  23.944  1.00  0.00     0.186 C 
HETATM    8  O   UNL     1      12.742   0.658  24.476  1.00  0.00    -0.206 OA
HETATM    9  O   UNL     1      11.126   0.422  22.740  1.00  0.00    -0.206 OA
ENDBRANCH   4   6
ENDBRANCH   3   4
ENDBRANCH   1   2
BRANCH   1  10
HETATM   10  C   UNL     1       7.903  -1.703  23.040  1.00  0.00    -0.071 C 
BRANCH  10  11
HETATM   11  C   UNL     1       7.722  -1.189  21.835  1.00  0.00     0.289 C 
HETATM   12  O   UNL     1       8.658  -0.999  21.242  1.00  0.00    -0.259 OA
HETATM   13  N   UNL     1       6.446  -0.965  21.560  1.00  0.00    -0.315 N 
ATOM     14  HN  UNL     1       5.719  -1.191  22.238  1.00  0.00     0.170 HD
BRANCH  13  15
HETATM   15  C   UNL     1       6.152  -0.466  20.443  1.00  0.00     0.057 A 
HETATM   16  C   UNL     1       5.885  -0.949  19.245  1.00  0.00     0.117 A 
HETATM   17  N   UNL     1       5.571  -0.781  18.101  1.00  0.00    -0.373 N 
HETATM   18  C   UNL     1       5.491   0.530  18.054  1.00  0.00     0.088 A 
ATOM     19  HN  UNL     1       5.410  -1.467  17.364  1.00  0.00     0.164 HD
HETATM   20  C   UNL     1       5.671   1.336  19.032  1.00  0.00     0.026 A 
HETATM   21  C   UNL     1       6.005   1.089  20.271  1.00  0.00    -0.033 A 
HETATM   22  C   UNL     1       6.220   2.052  21.476  1.00  0.00     0.050 C 
ENDBRANCH  13  15
ENDBRANCH  10  11
ENDBRANCH   1  10
BRANCH   1  23
HETATM   23  C   UNL     1       8.368  -3.588  24.367  1.00  0.00    -0.010 C 
BRANCH  23  24
HETATM   24  C   UNL     1       7.676  -4.525  24.266  1.00  0.00    -0.025 C 
BRANCH  24  25
HETATM   25  C   UNL     1       6.500  -4.628  23.463  1.00  0.00     0.053 C 
BRANCH  25  26
HETATM   26  C   UNL     1       6.807  -5.107  22.158  1.00  0.00    -0.033 C 
HETATM   27  C   UNL     1       6.992  -6.053  21.784  1.00  0.00     0.007 C 
ENDBRANCH  25  26
ENDBRANCH  24  25
ENDBRANCH  23  24
ENDBRANCH   1  23
TORSDOF 10
ENDMDL
MODEL 4
REMARK VINA RESULT:    -6.126      3.058      6.937
REMARK INTER + INTRA:         -10.690
REMARK INTER:                  -8.941
REMARK INTRA:                  -1.749
REMARK UNBOUND:                -0.983
REMARK  10 active torsions:
REMARK  status: ('A' for Active; 'I' for Inactive)
REMARK    1  A    between atoms: S_2  and  N_5 
REMARK    2  A    between atoms: N_5  and  C_7 
REMARK    3  A    between atoms: C_8  and  C_9 
REMARK    4  A    between atoms: C_9  and  C_15 
REMARK    5  A    between atoms: C_9  and  C_10 
REMARK    6  A    between atoms: C_10  and  C_11 
REMARK    7  A    between atoms: C_11  and  C_12 
REMARK    8  A    between atoms: C_12  and  C_13 
REMARK    9  A    between atoms: C_15  and  C_16 
REMARK       I    between atoms: C_16  and  N_18 
REMARK   10  A    between atoms: N_18  and  C_20 
ROOT
HETATM    1  C   UNL     1       7.968   0.710  21.412  1.00  0.00     0.108 C 
ENDROOT
BRANCH   1   2
HETATM    2  C   UNL     1       9.212   0.802  21.652  1.00  0.00     0.011 C 
HETATM    3  C   UNL     1      10.140   1.153  22.390  1.00  0.00     0.097 C 
BRANCH   3   4
HETATM    4  N   UNL     1      11.240   1.015  22.915  1.00  0.00    -0.296 N 
ATOM      5  HN  UNL     1      11.987   1.639  22.609  1.00  0.00     0.177 HD
BRANCH   4   6
HETATM    6  S   UNL     1      11.596  -0.063  24.040  1.00  0.00     0.226 S 
HETATM    7  C   UNL     1      10.434   0.182  25.293  1.00  0.00     0.186 C 
HETATM    8  O   UNL     1      11.423  -1.410  23.540  1.00  0.00    -0.206 OA
HETATM    9  O   UNL     1      12.904   0.110  24.623  1.00  0.00    -0.206 OA
ENDBRANCH   4   6
ENDBRANCH   3   4
ENDBRANCH   1   2
BRANCH   1  10
HETATM   10  C   UNL     1       7.741  -0.074  22.347  1.00  0.00    -0.071 C 
BRANCH  10  11
HETATM   11  C   UNL     1       7.508  -1.003  23.260  1.00  0.00     0.289 C 
HETATM   12  O   UNL     1       6.633  -0.808  23.939  1.00  0.00    -0.259 OA
HETATM   13  N   UNL     1       8.385  -1.993  23.219  1.00  0.00    -0.315 N 
ATOM     14  HN  UNL     1       9.138  -1.996  22.530  1.00  0.00     0.170 HD
BRANCH  13  15
HETATM   15  C   UNL     1       8.270  -2.931  24.050  1.00  0.00     0.057 A 
HETATM   16  C   UNL     1       8.572  -3.094  25.324  1.00  0.00     0.117 A 
HETATM   17  N   UNL     1       8.571  -3.764  26.316  1.00  0.00    -0.373 N 
HETATM   18  C   UNL     1       8.022  -4.871  25.870  1.00  0.00     0.088 A 
ATOM     19  HN  UNL     1       8.906  -3.538  27.253  1.00  0.00     0.164 HD
HETATM   20  C   UNL     1       7.588  -5.077  24.683  1.00  0.00     0.026 A 
HETATM   21  C   UNL     1       7.607  -4.294  23.636  1.00  0.00    -0.033 A 
HETATM   22  C   UNL     1       7.078  -4.521  22.189  1.00  0.00     0.050 C 
ENDBRANCH  13  15
ENDBRANCH  10  11
ENDBRANCH   1  10
BRANCH   1  23
HETATM   23  C   UNL     1       6.864   1.760  21.167  1.00  0.00    -0.010 C 
BRANCH  23  24
HETATM   24  C   UNL     1       5.752   1.606  20.843  1.00  0.00    -0.025 C 
BRANCH  24  25
HETATM   25  C   UNL     1       5.232   1.719  19.517  1.00  0.00     0.053 C 
BRANCH  25  26
HETATM   26  C   UNL     1       5.223   0.457  18.858  1.00  0.00    -0.033 C 
HETATM   27  C   UNL     1       5.762   0.078  18.060  1.00  0.00     0.007 C 
ENDBRANCH  25  26
ENDBRANCH  24  25
ENDBRANCH  23  24
ENDBRANCH   1  23
TORSDOF 10
ENDMDL
MODEL 5
REMARK VINA RESULT:    -6.070      3.402      7.315
REMARK INTER + INTRA:         -10.602
REMARK INTER:                  -9.405
REMARK INTRA:                  -1.196
REMARK UNBOUND:                -0.983
REMARK  10 active torsions:
REMARK  status: ('A' for Active; 'I' for Inactive)
REMARK    1  A    between atoms: S_2  and  N_5 
REMARK    2  A    between atoms: N_5  and  C_7 
REMARK    3  A    between atoms: C_8  and  C_9 
REMARK    4  A    between atoms: C_9  and  C_15 
REMARK    5  A    between atoms: C_9  and  C_10 
REMARK    6  A    between atoms: C_10  and  C_11 
REMARK    7  A    between atoms: C_11  and  C_12 
REMARK    8  A    between atoms: C_12  and  C_13 
REMARK    9  A    between atoms: C_15  and  C_16 
REMARK       I    between atoms: C_16  and  N_18 
REMARK   10  A    between atoms: N_18  and  C_20 
ROOT
HETATM    1  C   UNL     1       8.179  -1.492  21.825  1.00  0.00     0.108 C 
ENDROOT
BRANCH   1   2
HETATM    2  C   UNL     1       9.419  -1.517  22.103  1.00  0.00     0.011 C 
HETATM    3  C   UNL     1      10.468  -0.926  22.383  1.00  0.00     0.097 C 
BRANCH   3   4
HETATM    4  N   UNL     1      11.533  -0.798  22.979  1.00  0.00    -0.296 N 
ATOM      5  HN  UNL     1      12.342  -1.292  22.604  1.00  0.00     0.177 HD
BRANCH   4   6
HETATM    6  S   UNL     1      11.752   0.082  24.295  1.00  0.00     0.226 S 
HETATM    7  C   UNL     1      11.561   1.721  23.787  1.00  0.00     0.186 C 
HETATM    8  O   UNL     1      10.728  -0.193  25.280  1.00  0.00    -0.206 OA
HETATM    9  O   UNL     1      13.070  -0.042  24.868  1.00  0.00    -0.206 OA
ENDBRANCH   4   6
ENDBRANCH   3   4
ENDBRANCH   1   2
BRANCH   1  10
HETATM   10  C   UNL     1       7.874  -2.379  22.638  1.00  0.00    -0.071 C 
BRANCH  10  11
HETATM   11  C   UNL     1       7.637  -3.394  23.452  1.00  0.00     0.289 C 
HETATM   12  O   UNL     1       7.463  -4.387  22.954  1.00  0.00    -0.259 OA
HETATM   13  N   UNL     1       7.622  -3.035  24.726  1.00  0.00    -0.315 N 
ATOM     14  HN  UNL     1       7.790  -2.066  24.998  1.00  0.00     0.170 HD
BRANCH  13  15
HETATM   15  C   UNL     1       7.395  -3.917  25.595  1.00  0.00     0.057 A 
HETATM   16  C   UNL     1       8.126  -4.809  26.235  1.00  0.00     0.117 A 
HETATM   17  N   UNL     1       8.227  -5.680  27.051  1.00  0.00    -0.373 N 
HETATM   18  C   UNL     1       6.984  -5.782  27.463  1.00  0.00     0.088 A 
ATOM     19  HN  UNL     1       9.053  -6.201  27.346  1.00  0.00     0.164 HD
HETATM   20  C   UNL     1       5.995  -5.067  27.075  1.00  0.00     0.026 A 
HETATM   21  C   UNL     1       5.950  -4.116  26.180  1.00  0.00    -0.033 A 
HETATM   22  C   UNL     1       4.763  -3.230  25.699  1.00  0.00     0.050 C 
ENDBRANCH  13  15
ENDBRANCH  10  11
ENDBRANCH   1  10
BRANCH   1  23
HETATM   23  C   UNL     1       7.152  -0.348  21.700  1.00  0.00    -0.010 C 
BRANCH  23  24
HETATM   24  C   UNL     1       6.902   0.328  20.780  1.00  0.00    -0.025 C 
BRANCH  24  25
HETATM   25  C   UNL     1       7.477   0.231  19.476  1.00  0.00     0.053 C 
BRANCH  25  26
HETATM   26  C   UNL     1       6.526   0.558  18.468  1.00  0.00    -0.033 C 
HETATM   27  C   UNL     1       5.700   0.060  18.094  1.00  0.00     0.007 C 
ENDBRANCH  25  26
ENDBRANCH  24  25
ENDBRANCH  23  24
ENDBRANCH   1  23
TORSDOF 10
ENDMDL
MODEL 6
REMARK VINA RESULT:    -6.012      2.068      2.241
REMARK INTER + INTRA:         -10.510
REMARK INTER:                  -9.286
REMARK INTRA:                  -1.224
REMARK UNBOUND:                -0.983
REMARK  10 active torsions:
REMARK  status: ('A' for Active; 'I' for Inactive)
REMARK    1  A    between atoms: S_2  and  N_5 
REMARK    2  A    between atoms: N_5  and  C_7 
REMARK    3  A    between atoms: C_8  and  C_9 
REMARK    4  A    between atoms: C_9  and  C_15 
REMARK    5  A    between atoms: C_9  and  C_10 
REMARK    6  A    between atoms: C_10  and  C_11 
REMARK    7  A    between atoms: C_11  and  C_12 
REMARK    8  A    between atoms: C_12  and  C_13 
REMARK    9  A    between atoms: C_15  and  C_16 
REMARK       I    between atoms: C_16  and  N_18 
REMARK   10  A    between atoms: N_18  and  C_20 
ROOT
HETATM    1  C   UNL     1       9.848  -1.552  23.375  1.00  0.00     0.108 C 
ENDROOT
BRANCH   1   2
HETATM    2  C   UNL     1       9.054  -2.544  23.369  1.00  0.00     0.011 C 
HETATM    3  C   UNL     1       8.435  -3.428  23.973  1.00  0.00     0.097 C 
BRANCH   3   4
HETATM    4  N   UNL     1       7.461  -4.142  24.180  1.00  0.00    -0.296 N 
ATOM      5  HN  UNL     1       6.813  -4.288  23.405  1.00  0.00     0.177 HD
BRANCH   4   6
HETATM    6  S   UNL     1       7.124  -4.865  25.566  1.00  0.00     0.226 S 
HETATM    7  C   UNL     1       6.590  -3.605  26.619  1.00  0.00     0.186 C 
HETATM    8  O   UNL     1       6.031  -5.799  25.411  1.00  0.00    -0.206 OA
HETATM    9  O   UNL     1       8.263  -5.495  26.188  1.00  0.00    -0.206 OA
ENDBRANCH   4   6
ENDBRANCH   3   4
ENDBRANCH   1   2
BRANCH   1  10
HETATM   10  C   UNL     1       9.256  -0.942  22.470  1.00  0.00    -0.071 C 
BRANCH  10  11
HETATM   11  C   UNL     1       8.635  -0.395  21.439  1.00  0.00     0.289 C 
HETATM   12  O   UNL     1       9.277   0.233  20.761  1.00  0.00    -0.259 OA
HETATM   13  N   UNL     1       7.341  -0.673  21.413  1.00  0.00    -0.315 N 
ATOM     14  HN  UNL     1       6.919  -1.260  22.133  1.00  0.00     0.170 HD
BRANCH  13  15
HETATM   15  C   UNL     1       6.643  -0.197  20.480  1.00  0.00     0.057 A 
HETATM   16  C   UNL     1       6.192  -0.649  19.326  1.00  0.00     0.117 A 
HETATM   17  N   UNL     1       5.551  -0.494  18.326  1.00  0.00    -0.373 N 
HETATM   18  C   UNL     1       5.138   0.744  18.484  1.00  0.00     0.088 A 
ATOM     19  HN  UNL     1       5.374  -1.144  17.561  1.00  0.00     0.164 HD
HETATM   20  C   UNL     1       5.368   1.497  19.493  1.00  0.00     0.026 A 
HETATM   21  C   UNL     1       6.073   1.264  20.569  1.00  0.00    -0.033 A 
HETATM   22  C   UNL     1       6.358   2.161  21.810  1.00  0.00     0.050 C 
ENDBRANCH  13  15
ENDBRANCH  10  11
ENDBRANCH   1  10
BRANCH   1  23
HETATM   23  C   UNL     1      10.403  -0.657  24.502  1.00  0.00    -0.010 C 
BRANCH  23  24
HETATM   24  C   UNL     1      10.474   0.509  24.558  1.00  0.00    -0.025 C 
BRANCH  24  25
HETATM   25  C   UNL     1      11.518   1.322  24.021  1.00  0.00     0.053 C 
BRANCH  25  26
HETATM   26  C   UNL     1      10.996   2.503  23.423  1.00  0.00    -0.033 C 
HETATM   27  C   UNL     1      10.039   2.790  23.154  1.00  0.00     0.007 C 
ENDBRANCH  25  26
ENDBRANCH  24  25
ENDBRANCH  23  24
ENDBRANCH   1  23
TORSDOF 10
ENDMDL
MODEL 7
REMARK VINA RESULT:    -5.763     22.340     25.638
REMARK INTER + INTRA:         -10.116
REMARK INTER:                  -8.570
REMARK INTRA:                  -1.546
REMARK UNBOUND:                -0.983
REMARK  10 active torsions:
REMARK  status: ('A' for Active; 'I' for Inactive)
REMARK    1  A    between atoms: S_2  and  N_5 
REMARK    2  A    between atoms: N_5  and  C_7 
REMARK    3  A    between atoms: C_8  and  C_9 
REMARK    4  A    between atoms: C_9  and  C_15 
REMARK    5  A    between atoms: C_9  and  C_10 
REMARK    6  A    between atoms: C_10  and  C_11 
REMARK    7  A    between atoms: C_11  and  C_12 
REMARK    8  A    between atoms: C_12  and  C_13 
REMARK    9  A    between atoms: C_15  and  C_16 
REMARK       I    between atoms: C_16  and  N_18 
REMARK   10  A    between atoms: N_18  and  C_20 
ROOT
HETATM    1  C   UNL     1       2.844 -20.992   8.929  1.00  0.00     0.108 C 
ENDROOT
BRANCH   1   2
HETATM    2  C   UNL     1       2.666 -19.759   9.177  1.00  0.00     0.011 C 
HETATM    3  C   UNL     1       2.512 -18.596   8.785  1.00  0.00     0.097 C 
BRANCH   3   4
HETATM    4  N   UNL     1       2.015 -17.476   8.832  1.00  0.00    -0.296 N 
ATOM      5  HN  UNL     1       2.622 -16.684   8.623  1.00  0.00     0.177 HD
BRANCH   4   6
HETATM    6  S   UNL     1       0.491 -17.159   9.196  1.00  0.00     0.226 S 
HETATM    7  C   UNL     1      -0.433 -17.782   7.877  1.00  0.00     0.186 C 
HETATM    8  O   UNL     1       0.083 -17.869  10.389  1.00  0.00    -0.206 OA
HETATM    9  O   UNL     1       0.196 -15.751   9.303  1.00  0.00    -0.206 OA
ENDBRANCH   4   6
ENDBRANCH   3   4
ENDBRANCH   1   2
BRANCH   1  10
HETATM   10  C   UNL     1       1.690 -21.327   9.241  1.00  0.00    -0.071 C 
BRANCH  10  11
HETATM   11  C   UNL     1       0.452 -21.737   9.462  1.00  0.00     0.289 C 
HETATM   12  O   UNL     1      -0.359 -21.013   9.172  1.00  0.00    -0.259 OA
HETATM   13  N   UNL     1       0.401 -22.936  10.020  1.00  0.00    -0.315 N 
ATOM     14  HN  UNL     1       1.257 -23.451  10.229  1.00  0.00     0.170 HD
BRANCH  13  15
HETATM   15  C   UNL     1      -0.727 -23.426  10.287  1.00  0.00     0.057 A 
HETATM   16  C   UNL     1      -1.581 -23.315  11.286  1.00  0.00     0.117 A 
HETATM   17  N   UNL     1      -2.635 -23.583  11.789  1.00  0.00    -0.373 N 
HETATM   18  C   UNL     1      -3.137 -24.405  10.895  1.00  0.00     0.088 A 
ATOM     19  HN  UNL     1      -3.034 -23.261  12.671  1.00  0.00     0.164 HD
HETATM   20  C   UNL     1      -2.596 -24.740   9.784  1.00  0.00     0.026 A 
HETATM   21  C   UNL     1      -1.437 -24.402   9.281  1.00  0.00    -0.033 A 
HETATM   22  C   UNL     1      -0.764 -24.790   7.932  1.00  0.00     0.050 C 
ENDBRANCH  13  15
ENDBRANCH  10  11
ENDBRANCH   1  10
BRANCH   1  23
HETATM   23  C   UNL     1       3.432 -21.748   7.719  1.00  0.00    -0.010 C 
BRANCH  23  24
HETATM   24  C   UNL     1       3.791 -22.857   7.640  1.00  0.00    -0.025 C 
BRANCH  24  25
HETATM   25  C   UNL     1       3.025 -24.020   7.955  1.00  0.00     0.053 C 
BRANCH  25  26
HETATM   26  C   UNL     1       3.578 -24.717   9.066  1.00  0.00    -0.033 C 
HETATM   27  C   UNL     1       3.219 -24.924  10.014  1.00  0.00     0.007 C 
ENDBRANCH  25  26
ENDBRANCH  24  25
ENDBRANCH  23  24
ENDBRANCH   1  23
TORSDOF 10
ENDMDL
MODEL 8
REMARK VINA RESULT:    -5.757      2.780      6.279
REMARK INTER + INTRA:         -10.105
REMARK INTER:                  -9.014
REMARK INTRA:                  -1.091
REMARK UNBOUND:                -0.983
REMARK  10 active torsions:
REMARK  status: ('A' for Active; 'I' for Inactive)
REMARK    1  A    between atoms: S_2  and  N_5 
REMARK    2  A    between atoms: N_5  and  C_7 
REMARK    3  A    between atoms: C_8  and  C_9 
REMARK    4  A    between atoms: C_9  and  C_15 
REMARK    5  A    between atoms: C_9  and  C_10 
REMARK    6  A    between atoms: C_10  and  C_11 
REMARK    7  A    between atoms: C_11  and  C_12 
REMARK    8  A    between atoms: C_12  and  C_13 
REMARK    9  A    between atoms: C_15  and  C_16 
REMARK       I    between atoms: C_16  and  N_18 
REMARK   10  A    between atoms: N_18  and  C_20 
ROOT
HETATM    1  C   UNL     1       7.930  -1.613  23.144  1.00  0.00     0.108 C 
ENDROOT
BRANCH   1   2
HETATM    2  C   UNL     1       7.198  -1.196  22.193  1.00  0.00     0.011 C 
HETATM    3  C   UNL     1       6.684  -1.364  21.082  1.00  0.00     0.097 C 
BRANCH   3   4
HETATM    4  N   UNL     1       5.773  -1.271  20.266  1.00  0.00    -0.296 N 
ATOM      5  HN  UNL     1       4.936  -1.830  20.432  1.00  0.00     0.177 HD
BRANCH   4   6
HETATM    6  S   UNL     1       5.792  -0.345  18.963  1.00  0.00     0.226 S 
HETATM    7  C   UNL     1       7.345   0.409  18.961  1.00  0.00     0.186 C 
HETATM    8  O   UNL     1       5.690  -1.141  17.759  1.00  0.00    -0.206 OA
HETATM    9  O   UNL     1       4.802   0.705  18.978  1.00  0.00    -0.206 OA
ENDBRANCH   4   6
ENDBRANCH   3   4
ENDBRANCH   1   2
BRANCH   1  10
HETATM   10  C   UNL     1       7.046  -2.318  23.655  1.00  0.00    -0.071 C 
BRANCH  10  11
HETATM   11  C   UNL     1       6.193  -3.129  24.257  1.00  0.00     0.289 C 
HETATM   12  O   UNL     1       5.317  -2.631  24.757  1.00  0.00    -0.259 OA
HETATM   13  N   UNL     1       6.554  -4.401  24.180  1.00  0.00    -0.315 N 
ATOM     14  HN  UNL     1       7.405  -4.673  23.689  1.00  0.00     0.170 HD
BRANCH  13  15
HETATM   15  C   UNL     1       5.822  -5.266  24.728  1.00  0.00     0.057 A 
HETATM   16  C   UNL     1       4.790  -5.993  24.347  1.00  0.00     0.117 A 
HETATM   17  N   UNL     1       3.970  -6.837  24.575  1.00  0.00    -0.373 N 
HETATM   18  C   UNL     1       4.257  -7.134  25.822  1.00  0.00     0.088 A 
ATOM     19  HN  UNL     1       3.246  -7.220  23.967  1.00  0.00     0.164 HD
HETATM   20  C   UNL     1       5.209  -6.638  26.520  1.00  0.00     0.026 A 
HETATM   21  C   UNL     1       6.085  -5.720  26.209  1.00  0.00    -0.033 A 
HETATM   22  C   UNL     1       7.254  -5.109  27.038  1.00  0.00     0.050 C 
ENDBRANCH  13  15
ENDBRANCH  10  11
ENDBRANCH   1  10
BRANCH   1  23
HETATM   23  C   UNL     1       9.348  -2.220  23.190  1.00  0.00    -0.010 C 
BRANCH  23  24
HETATM   24  C   UNL     1      10.357  -1.780  22.797  1.00  0.00    -0.025 C 
BRANCH  24  25
HETATM   25  C   UNL     1      10.908  -0.503  23.120  1.00  0.00     0.053 C 
BRANCH  25  26
HETATM   26  C   UNL     1      12.050  -0.632  23.961  1.00  0.00    -0.033 C 
HETATM   27  C   UNL     1      12.615   0.057  24.487  1.00  0.00     0.007 C 
ENDBRANCH  25  26
ENDBRANCH  24  25
ENDBRANCH  23  24
ENDBRANCH   1  23
TORSDOF 10
ENDMDL
MODEL 9
REMARK VINA RESULT:    -5.689      3.027      4.816
REMARK INTER + INTRA:          -9.998
REMARK INTER:                  -8.120
REMARK INTRA:                  -1.878
REMARK UNBOUND:                -0.983
REMARK  10 active torsions:
REMARK  status: ('A' for Active; 'I' for Inactive)
REMARK    1  A    between atoms: S_2  and  N_5 
REMARK    2  A    between atoms: N_5  and  C_7 
REMARK    3  A    between atoms: C_8  and  C_9 
REMARK    4  A    between atoms: C_9  and  C_15 
REMARK    5  A    between atoms: C_9  and  C_10 
REMARK    6  A    between atoms: C_10  and  C_11 
REMARK    7  A    between atoms: C_11  and  C_12 
REMARK    8  A    between atoms: C_12  and  C_13 
REMARK    9  A    between atoms: C_15  and  C_16 
REMARK       I    between atoms: C_16  and  N_18 
REMARK   10  A    between atoms: N_18  and  C_20 
ROOT
HETATM    1  C   UNL     1       5.020  -4.385  23.941  1.00  0.00     0.108 C 
ENDROOT
BRANCH   1   2
HETATM    2  C   UNL     1       4.473  -3.380  24.495  1.00  0.00     0.011 C 
HETATM    3  C   UNL     1       4.435  -2.544  25.404  1.00  0.00     0.097 C 
BRANCH   3   4
HETATM    4  N   UNL     1       4.249  -1.420  25.857  1.00  0.00    -0.296 N 
ATOM      5  HN  UNL     1       3.461  -1.294  26.492  1.00  0.00     0.177 HD
BRANCH   4   6
HETATM    6  S   UNL     1       5.143  -0.135  25.531  1.00  0.00     0.226 S 
HETATM    7  C   UNL     1       6.035   0.179  26.976  1.00  0.00     0.186 C 
HETATM    8  O   UNL     1       6.097  -0.419  24.481  1.00  0.00    -0.206 OA
HETATM    9  O   UNL     1       4.377   1.050  25.231  1.00  0.00    -0.206 OA
ENDBRANCH   4   6
ENDBRANCH   3   4
ENDBRANCH   1   2
BRANCH   1  10
HETATM   10  C   UNL     1       5.241  -3.803  22.868  1.00  0.00    -0.071 C 
BRANCH  10  11
HETATM   11  C   UNL     1       5.594  -3.170  21.761  1.00  0.00     0.289 C 
HETATM   12  O   UNL     1       5.544  -3.778  20.816  1.00  0.00    -0.259 OA
HETATM   13  N   UNL     1       5.973  -1.922  21.983  1.00  0.00    -0.315 N 
ATOM     14  HN  UNL     1       5.968  -1.534  22.926  1.00  0.00     0.170 HD
BRANCH  13  15
HETATM   15  C   UNL     1       6.342  -1.223  21.002  1.00  0.00     0.057 A 
HETATM   16  C   UNL     1       5.775  -0.803  19.888  1.00  0.00     0.117 A 
HETATM   17  N   UNL     1       5.820  -0.172  18.871  1.00  0.00    -0.373 N 
HETATM   18  C   UNL     1       7.053   0.280  18.912  1.00  0.00     0.088 A 
ATOM     19  HN  UNL     1       5.098  -0.025  18.166  1.00  0.00     0.164 HD
HETATM   20  C   UNL     1       7.901   0.087  19.851  1.00  0.00     0.026 A 
HETATM   21  C   UNL     1       7.788  -0.609  20.952  1.00  0.00    -0.033 A 
HETATM   22  C   UNL     1       8.801  -0.849  22.110  1.00  0.00     0.050 C 
ENDBRANCH  13  15
ENDBRANCH  10  11
ENDBRANCH   1  10
BRANCH   1  23
HETATM   23  C   UNL     1       6.131  -5.357  24.390  1.00  0.00    -0.010 C 
BRANCH  23  24
HETATM   24  C   UNL     1       7.165  -5.125  24.882  1.00  0.00    -0.025 C 
BRANCH  24  25
HETATM   25  C   UNL     1       8.218  -4.345  24.314  1.00  0.00     0.053 C 
BRANCH  25  26
HETATM   26  C   UNL     1       8.477  -3.183  25.095  1.00  0.00    -0.033 C 
HETATM   27  C   UNL     1       8.194  -2.901  26.049  1.00  0.00     0.007 C 
ENDBRANCH  25  26
ENDBRANCH  24  25
ENDBRANCH  23  24
ENDBRANCH   1  23
TORSDOF 10
ENDMDL
