REMARK  10 active torsions:
REMARK  status: ('A' for Active; 'I' for Inactive)
REMARK    1  A    between atoms: S_2  and  N_5 
REMARK    2  A    between atoms: N_5  and  C_7 
REMARK    3  A    between atoms: C_8  and  C_9 
REMARK    4  A    between atoms: C_9  and  C_15 
REMARK    5  A    between atoms: C_9  and  C_10 
REMARK    6  A    between atoms: C_10  and  C_11 
REMARK    7  A    between atoms: C_11  and  C_12 
REMARK    8  A    between atoms: C_12  and  C_13 
REMARK    9  A    between atoms: C_15  and  C_16 
REMARK       I    between atoms: C_16  and  N_18 
REMARK   10  A    between atoms: N_18  and  C_20 
ROOT
HETATM    1  C   UNL     1      10.288  -1.064  23.331  1.00  0.00     0.108 C 
ENDROOT
BRANCH   1   2
HETATM    2  C   UNL     1       9.402  -1.954  23.525  1.00  0.00     0.011 C 
HETATM    3  C   UNL     1       8.980  -2.929  24.157  1.00  0.00     0.097 C 
BRANCH   3   4
HETATM    4  N   UNL     1       8.099  -3.603  24.680  1.00  0.00    -0.296 N 
ATOM      5  HN  UNL     1       7.229  -3.722  24.161  1.00  0.00     0.177 HD
BRANCH   4   6
HETATM    6  S   UNL     1       8.205  -4.310  26.110  1.00  0.00     0.226 S 
HETATM    7  C   UNL     1       6.614  -4.886  26.454  1.00  0.00     0.186 C 
HETATM    8  O   UNL     1       9.084  -5.458  26.057  1.00  0.00    -0.206 OA
HETATM    9  O   UNL     1       8.581  -3.416  27.178  1.00  0.00    -0.206 OA
ENDBRANCH   4   6
ENDBRANCH   3   4
ENDBRANCH   1   2
BRANCH   1  10
HETATM   10  C   UNL     1       9.721  -0.568  22.345  1.00  0.00    -0.071 C 
BRANCH  10  11
HETATM   11  C   UNL     1       9.055   0.033  21.373  1.00  0.00     0.289 C 
HETATM   12  O   UNL     1       9.524   0.973  20.971  1.00  0.00    -0.259 OA
HETATM   13  N   UNL     1       7.924  -0.584  21.069  1.00  0.00    -0.315 N 
ATOM     14  HN  UNL     1       7.646  -1.435  21.558  1.00  0.00     0.170 HD
BRANCH  13  15
HETATM   15  C   UNL     1       7.199  -0.096  20.163  1.00  0.00     0.057 A 
HETATM   16  C   UNL     1       7.280  -0.003  18.850  1.00  0.00     0.117 A 
HETATM   17  N   UNL     1       6.811   0.329  17.799  1.00  0.00    -0.373 N 
HETATM   18  C   UNL     1       5.689   0.889  18.192  1.00  0.00     0.088 A 
ATOM     19  HN  UNL     1       7.181   0.210  16.856  1.00  0.00     0.164 HD
HETATM   20  C   UNL     1       5.265   0.973  19.397  1.00  0.00     0.026 A 
HETATM   21  C   UNL     1       5.823   0.578  20.511  1.00  0.00    -0.033 A 
HETATM   22  C   UNL     1       5.322   0.662  21.983  1.00  0.00     0.050 C 
ENDBRANCH  13  15
ENDBRANCH  10  11
ENDBRANCH   1  10
BRANCH   1  23
HETATM   23  C   UNL     1      10.975  -0.044  24.263  1.00  0.00    -0.010 C 
BRANCH  23  24
HETATM   24  C   UNL     1      12.084   0.325  24.270  1.00  0.00    -0.025 C 
BRANCH  24  25
HETATM   25  C   UNL     1      13.141  -0.151  23.436  1.00  0.00     0.053 C 
BRANCH  25  26
HETATM   26  C   UNL     1      12.716  -1.256  22.645  1.00  0.00    -0.033 C 
HETATM   27  C   UNL     1      11.804  -1.732  22.537  1.00  0.00     0.007 C 
ENDBRANCH  25  26
ENDBRANCH  24  25
ENDBRANCH  23  24
ENDBRANCH   1  23
TORSDOF 10
