MODEL 1
REMARK VINA RESULT:    -5.520      0.000      0.000
REMARK INTER + INTRA:          -5.889
REMARK INTER:                  -5.842
REMARK INTRA:                  -0.046
REMARK UNBOUND:                -0.046
REMARK  1 active torsions:
REMARK  status: ('A' for Active; 'I' for Inactive)
REMARK    1  A    between atoms: C_10  and  C_14 
ROOT
HETATM    1  C   UNL     1       9.911  -0.370  22.055  1.00  0.00     0.059 C 
HETATM    2  C   UNL     1       8.278   1.972  21.883  1.00  0.00     0.101 C 
HETATM    3  C   UNL     1      10.899  -1.298  22.371  1.00  0.00     0.032 C 
HETATM    4  N   UNL     1       9.033  -0.967  21.263  1.00  0.00    -0.363 N 
ATOM      5  HN  UNL     1       9.128  -1.963  21.065  1.00  0.00     0.165 HD
HETATM    6  N   UNL     1       9.555   1.953  21.908  1.00  0.00    -0.363 N 
ATOM      7  HN  UNL     1      10.096   2.660  21.409  1.00  0.00     0.165 HD
HETATM    8  C   UNL     1       8.065  -0.308  20.743  1.00  0.00     0.101 C 
HETATM    9  C   UNL     1       7.609   1.013  21.075  1.00  0.00    -0.006 C 
HETATM   10  C   UNL     1      11.940  -1.198  23.286  1.00  0.00     0.002 C 
HETATM   11  C   UNL     1      12.026   1.129  24.206  1.00  0.00     0.002 C 
HETATM   12  C   UNL     1      12.447  -0.188  24.115  1.00  0.00     0.000 C 
HETATM   13  C   UNL     1      11.029   1.660  23.459  1.00  0.00     0.032 C 
HETATM   14  C   UNL     1      10.127   1.052  22.557  1.00  0.00     0.059 C 
ENDROOT
BRANCH   9  15
HETATM   15  C   UNL     1       6.440   1.432  20.440  1.00  0.00     0.004 C 
HETATM   16  C   UNL     1       5.872   0.847  19.379  1.00  0.00     0.012 C 
ENDBRANCH   9  15
TORSDOF 1
ENDMDL
MODEL 2
REMARK VINA RESULT:    -5.428      0.538      2.267
REMARK INTER + INTRA:          -5.792
REMARK INTER:                  -5.748
REMARK INTRA:                  -0.044
REMARK UNBOUND:                -0.046
REMARK  1 active torsions:
REMARK  status: ('A' for Active; 'I' for Inactive)
REMARK    1  A    between atoms: C_10  and  C_14 
ROOT
HETATM    1  C   UNL     1      10.060   0.982  22.828  1.00  0.00     0.059 C 
HETATM    2  C   UNL     1       8.559  -0.486  20.887  1.00  0.00     0.101 C 
HETATM    3  C   UNL     1      11.000   1.393  23.768  1.00  0.00     0.032 C 
HETATM    4  N   UNL     1       9.223   1.989  22.625  1.00  0.00    -0.363 N 
ATOM      5  HN  UNL     1       9.399   2.888  23.073  1.00  0.00     0.165 HD
HETATM    6  N   UNL     1       9.071  -0.968  21.953  1.00  0.00    -0.363 N 
ATOM      7  HN  UNL     1       8.621  -1.740  22.445  1.00  0.00     0.165 HD
HETATM    8  C   UNL     1       8.197   1.846  21.872  1.00  0.00     0.101 C 
HETATM    9  C   UNL     1       7.900   0.770  20.967  1.00  0.00    -0.006 C 
HETATM   10  C   UNL     1      12.162   0.756  24.188  1.00  0.00     0.002 C 
HETATM   11  C   UNL     1      12.268  -1.536  23.186  1.00  0.00     0.002 C 
HETATM   12  C   UNL     1      12.761  -0.488  23.948  1.00  0.00     0.000 C 
HETATM   13  C   UNL     1      11.074  -1.515  22.550  1.00  0.00     0.032 C 
HETATM   14  C   UNL     1      10.135  -0.472  22.381  1.00  0.00     0.059 C 
ENDROOT
BRANCH   9  15
HETATM   15  C   UNL     1       6.772   0.942  20.165  1.00  0.00     0.004 C 
HETATM   16  C   UNL     1       6.630   0.507  18.908  1.00  0.00     0.012 C 
ENDBRANCH   9  15
TORSDOF 1
ENDMDL
MODEL 3
REMARK VINA RESULT:    -5.374     20.491     22.945
REMARK INTER + INTRA:          -5.735
REMARK INTER:                  -5.702
REMARK INTRA:                  -0.033
REMARK UNBOUND:                -0.046
REMARK  1 active torsions:
REMARK  status: ('A' for Active; 'I' for Inactive)
REMARK    1  A    between atoms: C_10  and  C_14 
ROOT
HETATM    1  C   UNL     1       6.273  11.322   2.054  1.00  0.00     0.059 C 
HETATM    2  C   UNL     1       8.033  13.252   3.219  1.00  0.00     0.101 C 
HETATM    3  C   UNL     1       5.441  10.231   1.822  1.00  0.00     0.032 C 
HETATM    4  N   UNL     1       6.265  12.076   0.965  1.00  0.00    -0.363 N 
ATOM      5  HN  UNL     1       5.645  11.837   0.191  1.00  0.00     0.165 HD
HETATM    6  N   UNL     1       8.102  11.987   3.380  1.00  0.00    -0.363 N 
ATOM      7  HN  UNL     1       9.003  11.527   3.515  1.00  0.00     0.165 HD
HETATM    8  C   UNL     1       7.026  13.102   0.872  1.00  0.00     0.101 C 
HETATM    9  C   UNL     1       7.777  13.749   1.912  1.00  0.00    -0.006 C 
HETATM   10  C   UNL     1       5.005   9.252   2.708  1.00  0.00     0.002 C 
HETATM   11  C   UNL     1       6.181   9.525   4.901  1.00  0.00     0.002 C 
HETATM   12  C   UNL     1       5.274   8.923   4.044  1.00  0.00     0.000 C 
HETATM   13  C   UNL     1       6.990  10.552   4.551  1.00  0.00     0.032 C 
HETATM   14  C   UNL     1       7.043  11.325   3.368  1.00  0.00     0.059 C 
ENDROOT
BRANCH   9  15
HETATM   15  C   UNL     1       8.416  14.936   1.555  1.00  0.00     0.004 C 
HETATM   16  C   UNL     1       8.038  16.168   1.914  1.00  0.00     0.012 C 
ENDBRANCH   9  15
TORSDOF 1
ENDMDL
MODEL 4
REMARK VINA RESULT:    -5.330      1.137      5.285
REMARK INTER + INTRA:          -5.688
REMARK INTER:                  -5.631
REMARK INTRA:                  -0.057
REMARK UNBOUND:                -0.046
REMARK  1 active torsions:
REMARK  status: ('A' for Active; 'I' for Inactive)
REMARK    1  A    between atoms: C_10  and  C_14 
ROOT
HETATM    1  C   UNL     1       8.957   1.611  22.619  1.00  0.00     0.059 C 
HETATM    2  C   UNL     1      10.960  -0.429  22.617  1.00  0.00     0.101 C 
HETATM    3  C   UNL     1       7.838   2.395  22.353  1.00  0.00     0.032 C 
HETATM    4  N   UNL     1       9.600   2.158  23.640  1.00  0.00    -0.363 N 
ATOM      5  HN  UNL     1       9.195   2.962  24.119  1.00  0.00     0.165 HD
HETATM    6  N   UNL     1      10.414   0.081  21.581  1.00  0.00    -0.363 N 
ATOM      7  HN  UNL     1      10.937   0.175  20.710  1.00  0.00     0.165 HD
HETATM    8  C   UNL     1      10.725   1.689  24.032  1.00  0.00     0.101 C 
HETATM    9  C   UNL     1      11.344   0.443  23.672  1.00  0.00    -0.006 C 
HETATM   10  C   UNL     1       6.778   2.151  21.488  1.00  0.00     0.002 C 
HETATM   11  C   UNL     1       7.254   0.097  20.139  1.00  0.00     0.002 C 
HETATM   12  C   UNL     1       6.470   1.167  20.538  1.00  0.00     0.000 C 
HETATM   13  C   UNL     1       8.496  -0.154  20.616  1.00  0.00     0.032 C 
HETATM   14  C   UNL     1       9.227   0.461  21.658  1.00  0.00     0.059 C 
ENDROOT
BRANCH   9  15
HETATM   15  C   UNL     1      12.513   0.121  24.360  1.00  0.00     0.004 C 
HETATM   16  C   UNL     1      13.413  -0.798  23.991  1.00  0.00     0.012 C 
ENDBRANCH   9  15
TORSDOF 1
ENDMDL
MODEL 5
REMARK VINA RESULT:    -5.196      2.847      4.113
REMARK INTER + INTRA:          -5.547
REMARK INTER:                  -5.491
REMARK INTRA:                  -0.055
REMARK UNBOUND:                -0.046
REMARK  1 active torsions:
REMARK  status: ('A' for Active; 'I' for Inactive)
REMARK    1  A    between atoms: C_10  and  C_14 
ROOT
HETATM    1  C   UNL     1       9.634  -1.007  24.185  1.00  0.00     0.059 C 
HETATM    2  C   UNL     1       8.289  -2.570  22.205  1.00  0.00     0.101 C 
HETATM    3  C   UNL     1      10.344  -0.020  24.863  1.00  0.00     0.032 C 
HETATM    4  N   UNL     1       9.251  -1.912  25.074  1.00  0.00    -0.363 N 
ATOM      5  HN  UNL     1       9.431  -1.753  26.065  1.00  0.00     0.165 HD
HETATM    6  N   UNL     1       9.393  -1.949  22.041  1.00  0.00    -0.363 N 
ATOM      7  HN  UNL     1      10.108  -2.314  21.412  1.00  0.00     0.165 HD
HETATM    8  C   UNL     1       8.658  -2.984  24.702  1.00  0.00     0.101 C 
HETATM    9  C   UNL     1       8.096  -3.290  23.415  1.00  0.00    -0.006 C 
HETATM   10  C   UNL     1      10.810   1.205  24.400  1.00  0.00     0.002 C 
HETATM   11  C   UNL     1      10.437   1.362  21.930  1.00  0.00     0.002 C 
HETATM   12  C   UNL     1      10.850   1.853  23.158  1.00  0.00     0.000 C 
HETATM   13  C   UNL     1       9.929   0.122  21.740  1.00  0.00     0.032 C 
HETATM   14  C   UNL     1       9.578  -0.885  22.668  1.00  0.00     0.059 C 
ENDROOT
BRANCH   9  15
HETATM   15  C   UNL     1       7.383  -4.485  23.329  1.00  0.00     0.004 C 
HETATM   16  C   UNL     1       7.172  -5.194  22.214  1.00  0.00     0.012 C 
ENDBRANCH   9  15
TORSDOF 1
ENDMDL
MODEL 6
REMARK VINA RESULT:    -5.165      1.461      5.254
REMARK INTER + INTRA:          -5.514
REMARK INTER:                  -5.463
REMARK INTRA:                  -0.051
REMARK UNBOUND:                -0.046
REMARK  1 active torsions:
REMARK  status: ('A' for Active; 'I' for Inactive)
REMARK    1  A    between atoms: C_10  and  C_14 
ROOT
HETATM    1  C   UNL     1       7.740   0.514  20.424  1.00  0.00     0.059 C 
HETATM    2  C   UNL     1       8.633   2.169  22.578  1.00  0.00     0.101 C 
HETATM    3  C   UNL     1       7.007  -0.075  19.398  1.00  0.00     0.032 C 
HETATM    4  N   UNL     1       8.924  -0.079  20.469  1.00  0.00    -0.363 N 
ATOM      5  HN  UNL     1       9.168  -0.771  19.761  1.00  0.00     0.165 HD
HETATM    6  N   UNL     1       7.451   1.705  22.435  1.00  0.00    -0.363 N 
ATOM      7  HN  UNL     1       6.880   1.472  23.248  1.00  0.00     0.165 HD
HETATM    8  C   UNL     1       9.766   0.208  21.390  1.00  0.00     0.101 C 
HETATM    9  C   UNL     1       9.730   1.304  22.319  1.00  0.00    -0.006 C 
HETATM   10  C   UNL     1       5.781   0.302  18.863  1.00  0.00     0.002 C 
HETATM   11  C   UNL     1       4.809   2.162  20.227  1.00  0.00     0.002 C 
HETATM   12  C   UNL     1       4.814   1.269  19.167  1.00  0.00     0.000 C 
HETATM   13  C   UNL     1       5.772   2.218  21.176  1.00  0.00     0.032 C 
HETATM   14  C   UNL     1       7.010   1.543  21.278  1.00  0.00     0.059 C 
ENDROOT
BRANCH   9  15
HETATM   15  C   UNL     1      10.855   1.454  23.128  1.00  0.00     0.004 C 
HETATM   16  C   UNL     1      10.904   1.245  24.449  1.00  0.00     0.012 C 
ENDBRANCH   9  15
TORSDOF 1
ENDMDL
MODEL 7
REMARK VINA RESULT:    -5.134     24.316     26.247
REMARK INTER + INTRA:          -5.481
REMARK INTER:                  -5.429
REMARK INTRA:                  -0.052
REMARK UNBOUND:                -0.046
REMARK  1 active torsions:
REMARK  status: ('A' for Active; 'I' for Inactive)
REMARK    1  A    between atoms: C_10  and  C_14 
ROOT
HETATM    1  C   UNL     1       2.582 -20.447   8.174  1.00  0.00     0.059 C 
HETATM    2  C   UNL     1       0.047 -19.492   9.089  1.00  0.00     0.101 C 
HETATM    3  C   UNL     1       3.642 -21.237   7.739  1.00  0.00     0.032 C 
HETATM    4  N   UNL     1       2.977 -19.183   8.136  1.00  0.00    -0.363 N 
ATOM      5  HN  UNL     1       3.893 -18.953   7.750  1.00  0.00     0.165 HD
HETATM    6  N   UNL     1       0.630 -20.556   9.487  1.00  0.00    -0.363 N 
ATOM      7  HN  UNL     1       0.514 -20.888  10.445  1.00  0.00     0.165 HD
HETATM    8  C   UNL     1       2.223 -18.248   8.578  1.00  0.00     0.101 C 
HETATM    9  C   UNL     1       0.830 -18.318   8.927  1.00  0.00    -0.006 C 
HETATM   10  C   UNL     1       3.668 -22.598   7.456  1.00  0.00     0.002 C 
HETATM   11  C   UNL     1       1.486 -23.632   8.117  1.00  0.00     0.002 C 
HETATM   12  C   UNL     1       2.762 -23.660   7.577  1.00  0.00     0.000 C 
HETATM   13  C   UNL     1       0.911 -22.527   8.647  1.00  0.00     0.032 C 
HETATM   14  C   UNL     1       1.347 -21.182   8.678  1.00  0.00     0.059 C 
ENDROOT
BRANCH   9  15
HETATM   15  C   UNL     1       0.222 -17.106   9.253  1.00  0.00     0.004 C 
HETATM   16  C   UNL     1      -0.329 -16.797  10.432  1.00  0.00     0.012 C 
ENDBRANCH   9  15
TORSDOF 1
ENDMDL
MODEL 8
REMARK VINA RESULT:    -5.130      1.439      2.066
REMARK INTER + INTRA:          -5.476
REMARK INTER:                  -5.421
REMARK INTRA:                  -0.055
REMARK UNBOUND:                -0.046
REMARK  1 active torsions:
REMARK  status: ('A' for Active; 'I' for Inactive)
REMARK    1  A    between atoms: C_10  and  C_14 
ROOT
HETATM    1  C   UNL     1       9.643   0.514  22.328  1.00  0.00     0.059 C 
HETATM    2  C   UNL     1       9.030   3.165  23.208  1.00  0.00     0.101 C 
HETATM    3  C   UNL     1      10.224  -0.736  22.135  1.00  0.00     0.032 C 
HETATM    4  N   UNL     1       8.529   0.558  21.614  1.00  0.00    -0.363 N 
ATOM      5  HN  UNL     1       8.213  -0.277  21.121  1.00  0.00     0.165 HD
HETATM    6  N   UNL     1      10.197   2.719  22.941  1.00  0.00    -0.363 N 
ATOM      7  HN  UNL     1      10.916   3.335  22.560  1.00  0.00     0.165 HD
HETATM    8  C   UNL     1       7.843   1.636  21.535  1.00  0.00     0.101 C 
HETATM    9  C   UNL     1       7.966   2.829  22.328  1.00  0.00    -0.006 C 
HETATM   10  C   UNL     1      11.309  -1.313  22.784  1.00  0.00     0.002 C 
HETATM   11  C   UNL     1      12.376   0.376  24.293  1.00  0.00     0.002 C 
HETATM   12  C   UNL     1      12.246  -0.886  23.735  1.00  0.00     0.000 C 
HETATM   13  C   UNL     1      11.592   1.432  23.973  1.00  0.00     0.032 C 
HETATM   14  C   UNL     1      10.439   1.513  23.158  1.00  0.00     0.059 C 
ENDROOT
BRANCH   9  15
HETATM   15  C   UNL     1       6.992   3.804  22.117  1.00  0.00     0.004 C 
HETATM   16  C   UNL     1       7.177   5.127  22.194  1.00  0.00     0.012 C 
ENDBRANCH   9  15
TORSDOF 1
ENDMDL
MODEL 9
REMARK VINA RESULT:    -5.031      4.702      6.402
REMARK INTER + INTRA:          -5.371
REMARK INTER:                  -5.337
REMARK INTRA:                  -0.034
REMARK UNBOUND:                -0.046
REMARK  1 active torsions:
REMARK  status: ('A' for Active; 'I' for Inactive)
REMARK    1  A    between atoms: C_10  and  C_14 
ROOT
HETATM    1  C   UNL     1       7.773  -3.839  23.203  1.00  0.00     0.059 C 
HETATM    2  C   UNL     1       8.640  -2.351  25.485  1.00  0.00     0.101 C 
HETATM    3  C   UNL     1       7.133  -4.726  22.341  1.00  0.00     0.032 C 
HETATM    4  N   UNL     1       8.575  -3.076  22.475  1.00  0.00    -0.363 N 
ATOM      5  HN  UNL     1       8.567  -3.161  21.459  1.00  0.00     0.165 HD
HETATM    6  N   UNL     1       8.403  -3.606  25.460  1.00  0.00    -0.363 N 
ATOM      7  HN  UNL     1       8.928  -4.248  26.053  1.00  0.00     0.165 HD
HETATM    8  C   UNL     1       9.359  -2.231  23.033  1.00  0.00     0.101 C 
HETATM    9  C   UNL     1       9.356  -1.781  24.398  1.00  0.00    -0.006 C 
HETATM   10  C   UNL     1       6.094  -5.611  22.602  1.00  0.00     0.002 C 
HETATM   11  C   UNL     1       5.618  -5.642  25.060  1.00  0.00     0.002 C 
HETATM   12  C   UNL     1       5.394  -6.020  23.745  1.00  0.00     0.000 C 
HETATM   13  C   UNL     1       6.604  -4.801  25.450  1.00  0.00     0.032 C 
HETATM   14  C   UNL     1       7.514  -4.030  24.692  1.00  0.00     0.059 C 
ENDROOT
BRANCH   9  15
HETATM   15  C   UNL     1      10.242  -0.747  24.700  1.00  0.00     0.004 C 
HETATM   16  C   UNL     1       9.902   0.484  25.101  1.00  0.00     0.012 C 
ENDBRANCH   9  15
TORSDOF 1
ENDMDL
