REMARK  1 active torsions:
REMARK  status: ('A' for Active; 'I' for Inactive)
REMARK    1  A    between atoms: C_10  and  C_14 
ROOT
HETATM    1  C   UNL     1       9.659  -0.569  22.285  1.00  0.00     0.059 C 
HETATM    2  C   UNL     1       7.668  -2.427  23.157  1.00  0.00     0.101 C 
HETATM    3  C   UNL     1      10.377   0.407  21.600  1.00  0.00     0.032 C 
HETATM    4  N   UNL     1      10.369  -0.924  23.346  1.00  0.00    -0.363 N 
ATOM      5  HN  UNL     1      11.234  -0.429  23.562  1.00  0.00     0.165 HD
HETATM    6  N   UNL     1       8.000  -2.205  21.944  1.00  0.00    -0.363 N 
ATOM      7  HN  UNL     1       7.961  -2.950  21.248  1.00  0.00     0.165 HD
HETATM    8  C   UNL     1       9.981  -1.881  24.103  1.00  0.00     0.101 C 
HETATM    9  C   UNL     1       8.701  -2.534  24.127  1.00  0.00    -0.006 C 
HETATM   10  C   UNL     1       9.986   1.195  20.524  1.00  0.00     0.002 C 
HETATM   11  C   UNL     1       7.749   0.433  19.698  1.00  0.00     0.002 C 
HETATM   12  C   UNL     1       8.860   1.261  19.692  1.00  0.00     0.000 C 
HETATM   13  C   UNL     1       7.592  -0.620  20.534  1.00  0.00     0.032 C 
HETATM   14  C   UNL     1       8.374  -1.056  21.628  1.00  0.00     0.059 C 
ENDROOT
BRANCH   9  15
HETATM   15  C   UNL     1       8.507  -3.457  25.154  1.00  0.00     0.004 C 
HETATM   16  C   UNL     1       7.767  -3.264  26.252  1.00  0.00     0.012 C 
ENDBRANCH   9  15
TORSDOF 1
