stable:False satoms:20 tatoms:24 sratio:0.8333333333333334
  -OEChem-07092417323D

 24 25  0     0  0  0  0  0  0999 V2000
    7.1488   -2.4137   26.3838 H   0  0  0  0  0  0  0  0  0  0  0  0
    7.7826   -3.9741   27.0524 H   0  0  0  0  0  0  0  0  0  0  0  0
    9.0542   -4.3719   25.0699 H   0  0  0  0  0  0  0  0  0  0  0  0
    9.6591   -0.5685   22.2848 C   0  0  0  0  0  0  0  0  0  0  0  0
    6.8112   -1.3463   20.3304 H   0  0  0  0  0  0  0  0  0  0  0  0
    7.7674   -3.2643   26.2517 C   0  0  0  0  0  0  0  0  0  0  0  0
    7.6684   -2.4270   23.1570 C   0  0  0  0  0  0  0  0  0  0  0  0
   10.3774    0.4071   21.6002 C   0  0  0  0  0  0  0  0  0  0  0  0
   10.7052   -2.1859   24.8502 H   0  0  0  0  0  0  0  0  0  0  0  0
   10.3693   -0.9239   23.3459 N   0  0  0  0  0  0  0  0  0  0  0  0
   11.3580    0.5901   22.0429 H   0  0  0  0  0  0  0  0  0  0  0  0
    8.0001   -2.2048   21.9440 N   0  0  0  0  0  0  0  0  0  0  0  0
    9.9813   -1.8805   24.1027 C   0  0  0  0  0  0  0  0  0  0  0  0
    8.7013   -2.5345   24.1265 C   0  0  0  0  0  0  0  0  0  0  0  0
    9.9865    1.1951   20.5241 C   0  0  0  0  0  0  0  0  0  0  0  0
   10.7098    1.9714   20.2926 H   0  0  0  0  0  0  0  0  0  0  0  0
    7.7490    0.4333   19.6981 C   0  0  0  0  0  0  0  0  0  0  0  0
    8.8597    1.2614   19.6921 C   0  0  0  0  0  0  0  0  0  0  0  0
    8.5074   -3.4565   25.1537 C   0  0  0  0  0  0  0  0  0  0  0  0
    6.6159   -2.6099   23.3140 H   0  0  0  0  0  0  0  0  0  0  0  0
    8.8200    2.0598   18.9571 H   0  0  0  0  0  0  0  0  0  0  0  0
    7.5921   -0.6198   20.5342 C   0  0  0  0  0  0  0  0  0  0  0  0
    6.9853    0.6296   18.9606 H   0  0  0  0  0  0  0  0  0  0  0  0
    8.3738   -1.0563   21.6276 C   0  0  0  0  0  0  0  0  0  0  0  0
 18 21  1  0  0  0  0
 17 23  1  0  0  0  0
 17 18  2  0  0  0  0
 15 18  1  0  0  0  0
 17 22  1  0  0  0  0
 15 16  1  0  0  0  0
  5 22  1  0  0  0  0
  8 15  2  0  0  0  0
 22 24  2  0  0  0  0
  8 11  1  0  0  0  0
  4  8  1  0  0  0  0
 12 24  1  0  0  0  0
  4 24  1  0  0  0  0
  7 12  2  0  0  0  0
  4 10  2  0  0  0  0
  7 20  1  0  0  0  0
  7 14  1  0  0  0  0
 10 13  1  0  0  0  0
 13 14  2  0  0  0  0
  9 13  1  0  0  0  0
 14 19  1  0  0  0  0
  3 19  1  0  0  0  0
  6 19  2  0  0  0  0
  1  6  1  0  0  0  0
  2  6  1  0  0  0  0
M  END
> <Shapegauss>
-126.271805

$$$$
