stable:False satoms:10 tatoms:24 sratio:0.4166666666666667
  -OEChem-08062411393D

 32 33  0     1  0  0  0  0  0999 V2000
   -6.3971   -5.3010  -26.2944 Cl  0  0  0  0  0  0  0  0  0  0  0  0
   -8.1523   -4.7045  -26.0384 S   0  0  0  0  0  0  0  0  0  0  0  0
   -8.9629   -5.8726  -25.8877 O   0  0  0  0  0  0  0  0  0  0  0  0
   -8.4598   -3.8580  -27.1527 O   0  0  0  0  0  0  0  0  0  0  0  0
   -8.0950   -3.9062  -24.6499 N   0  0  0  0  0  0  0  0  0  0  0  0
   -8.7635   -3.0480  -24.1288 C   0  0  0  0  0  0  0  0  0  0  0  0
   -9.2338   -2.0800  -23.4763 C   0  0  0  0  0  0  0  0  0  0  0  0
  -10.8724   -1.0958  -23.3131 C   0  0  0  0  0  0  0  0  0  0  0  0
  -11.3843   -0.4272  -24.3815 C   0  0  0  0  0  0  0  0  0  0  0  0
  -12.3000   -0.0723  -24.6838 C   0  0  0  0  0  0  0  0  0  0  0  0
  -13.1678   -0.2137  -24.0566 H   0  0  0  0  0  0  0  0  0  0  0  0
  -12.9963   -1.5588  -22.5644 C   0  0  0  0  0  0  0  0  0  0  0  0
  -12.1515   -1.4623  -22.8186 C   0  0  0  0  0  0  0  0  0  0  0  0
   -9.6330   -1.1328  -22.8137 C   0  0  0  0  0  0  0  0  0  0  0  0
   -9.0742   -0.1913  -21.6580 C   0  0  0  0  0  0  0  0  0  0  0  0
   -9.6743    0.7404  -21.2500 O   0  0  0  0  0  0  0  0  0  0  0  0
   -7.9079   -0.6633  -21.3310 N   0  0  0  0  0  0  0  0  0  0  0  0
   -7.1856   -0.1360  -20.3847 C   0  0  0  0  0  0  0  0  0  0  0  0
   -7.3134    0.0584  -19.0437 C   0  0  0  0  0  0  0  0  0  0  0  0
   -7.0943    0.3627  -17.9375 N   0  0  0  0  0  0  0  0  0  0  0  0
   -6.0071    0.7188  -18.4806 C   0  0  1  0  0  0  0  0  0  0  0  0
   -5.2513    0.8514  -19.4276 N   0  3  0  0  0  0  0  0  0  0  0  0
   -5.8524    0.4684  -20.4902 C   0  0  0  0  0  0  0  0  0  0  0  0
   -5.4173    0.5686  -21.4868 H   0  0  0  0  0  0  0  0  0  0  0  0
   -7.1841   -3.4940  -24.6702 H   0  0  0  0  0  0  0  0  0  0  0  0
  -10.6188   -0.2098  -25.1117 H   0  0  0  0  0  0  0  0  0  0  0  0
  -12.3947    0.4421  -25.6287 H   0  0  0  0  0  0  0  0  0  0  0  0
  -14.0053   -1.6741  -22.2608 H   0  0  0  0  0  0  0  0  0  0  0  0
   -7.5533   -1.4584  -21.8231 H   0  0  0  0  0  0  0  0  0  0  0  0
   -6.4268    1.7174  -18.6722 H   0  0  0  0  0  0  0  0  0  0  0  0
   -4.9896    1.8124  -19.5171 H   0  0  0  0  0  0  0  0  0  0  0  0
   -4.4328    0.2949  -19.2852 H   0  0  0  0  0  0  0  0  0  0  0  0
 20 21  1  0  0  0  0
 19 20  2  0  0  0  0
 19 21  1  0  0  0  0
 21 22  1  0  0  0  0
 18 19  1  0  0  0  0
 22 23  1  0  0  0  0
 18 23  2  0  0  0  0
 17 18  1  0  0  0  0
 23 24  1  0  0  0  0
 15 16  2  0  0  0  0
 15 17  1  0  0  0  0
 14 15  1  0  0  0  0
 12 13  3  0  0  0  0
  8 13  1  0  0  0  0
  8 14  2  3  0  0  0
  7 14  1  0  0  0  0
  8  9  1  0  0  0  0
  6  7  3  0  0  0  0
 10 11  1  0  0  0  0
  9 10  2  0  0  0  0
  5  6  1  0  0  0  0
  2  5  1  0  0  0  0
  2  3  2  0  0  0  0
  1  2  1  0  0  0  0
  2  4  2  0  0  0  0
  5 25  1  0  0  0  0
  9 26  1  0  0  0  0
 10 27  1  0  0  0  0
 12 28  1  0  0  0  0
 17 29  1  0  0  0  0
 21 30  1  0  0  0  0
 22 31  1  0  0  0  0
 22 32  1  0  0  0  0
M  CHG  1  22   1
M  END
> <Chemgauss4>
-10.637214

$$$$
