stable:False satoms:10 tatoms:24 sratio:0.4166666666666667
  -OEChem-08062411393D

 32 33  0     1  0  0  0  0  0999 V2000
    6.3421   -5.2731   25.9233 Cl  0  0  0  0  0  0  0  0  0  0  0  0
    8.0973   -4.6765   25.6673 S   0  0  0  0  0  0  0  0  0  0  0  0
    8.9080   -5.8446   25.5166 O   0  0  0  0  0  0  0  0  0  0  0  0
    8.4049   -3.8300   26.7817 O   0  0  0  0  0  0  0  0  0  0  0  0
    8.0401   -3.8783   24.2788 N   0  0  0  0  0  0  0  0  0  0  0  0
    8.7086   -3.0200   23.7577 C   0  0  0  0  0  0  0  0  0  0  0  0
    9.1789   -2.0520   23.1052 C   0  0  0  0  0  0  0  0  0  0  0  0
   10.8175   -1.0679   22.9420 C   0  0  0  0  0  0  0  0  0  0  0  0
   11.3294   -0.3992   24.0104 C   0  0  0  0  0  0  0  0  0  0  0  0
   12.2451   -0.0443   24.3127 C   0  0  0  0  0  0  0  0  0  0  0  0
   13.1129   -0.1858   23.6855 H   0  0  0  0  0  0  0  0  0  0  0  0
   12.9414   -1.5309   22.1933 C   0  0  0  0  0  0  0  0  0  0  0  0
   12.0966   -1.4344   22.4475 C   0  0  0  0  0  0  0  0  0  0  0  0
    9.5781   -1.1048   22.4426 C   0  0  0  0  0  0  0  0  0  0  0  0
    9.0193   -0.1634   21.2869 C   0  0  0  0  0  0  0  0  0  0  0  0
    9.6194    0.7684   20.8789 O   0  0  0  0  0  0  0  0  0  0  0  0
    7.8530   -0.6353   20.9599 N   0  0  0  0  0  0  0  0  0  0  0  0
    7.1307   -0.1080   20.0137 C   0  0  0  0  0  0  0  0  0  0  0  0
    7.2584    0.0863   18.6726 C   0  0  0  0  0  0  0  0  0  0  0  0
    7.0394    0.3907   17.5664 N   0  0  0  0  0  0  0  0  0  0  0  0
    5.9522    0.7468   18.1095 C   0  0  1  0  0  0  0  0  0  0  0  0
    5.1964    0.8794   19.0566 N   0  3  0  0  0  0  0  0  0  0  0  0
    5.7975    0.4964   20.1191 C   0  0  0  0  0  0  0  0  0  0  0  0
    5.3624    0.5965   21.1157 H   0  0  0  0  0  0  0  0  0  0  0  0
    7.1292   -3.4661   24.2991 H   0  0  0  0  0  0  0  0  0  0  0  0
   10.5639   -0.1819   24.7407 H   0  0  0  0  0  0  0  0  0  0  0  0
   12.3398    0.4701   25.2576 H   0  0  0  0  0  0  0  0  0  0  0  0
   13.9504   -1.6461   21.8897 H   0  0  0  0  0  0  0  0  0  0  0  0
    7.4984   -1.4304   21.4520 H   0  0  0  0  0  0  0  0  0  0  0  0
    6.3719    1.7453   18.3012 H   0  0  0  0  0  0  0  0  0  0  0  0
    4.9347    1.8403   19.1460 H   0  0  0  0  0  0  0  0  0  0  0  0
    4.3779    0.3228   18.9141 H   0  0  0  0  0  0  0  0  0  0  0  0
 20 21  1  0  0  0  0
 19 20  2  0  0  0  0
 19 21  1  0  0  0  0
 21 22  1  0  0  0  0
 18 19  1  0  0  0  0
 22 23  1  0  0  0  0
 18 23  2  0  0  0  0
 17 18  1  0  0  0  0
 23 24  1  0  0  0  0
 15 16  2  0  0  0  0
 15 17  1  0  0  0  0
 14 15  1  0  0  0  0
 12 13  3  0  0  0  0
  8 13  1  0  0  0  0
  8 14  2  3  0  0  0
  7 14  1  0  0  0  0
  8  9  1  0  0  0  0
  6  7  3  0  0  0  0
 10 11  1  0  0  0  0
  9 10  2  0  0  0  0
  5  6  1  0  0  0  0
  2  5  1  0  0  0  0
  2  3  2  0  0  0  0
  1  2  1  0  0  0  0
  2  4  2  0  0  0  0
  5 25  1  0  0  0  0
  9 26  1  0  0  0  0
 10 27  1  0  0  0  0
 12 28  1  0  0  0  0
 17 29  1  0  0  0  0
 21 30  1  0  0  0  0
 22 31  1  0  0  0  0
 22 32  1  0  0  0  0
M  CHG  1  22   1
M  END
> <Chemgauss4>
-10.629569

$$$$
