
 OpenBabel07202414153D

 60 64  0  0  1  0  0  0  0  0999 V2000
    5.2580   -1.3244   -4.0312 C   0  0  0  0  0  0  0  0  0  0  0  0
    5.6887   -0.4320   -5.5028 S   0  0  0  0  0  0  0  0  0  0  0  0
    7.0204   -0.8385   -5.9078 O   0  0  0  0  0  0  0  0  0  0  0  0
    4.5742   -0.5196   -6.4271 O   0  0  0  0  0  0  0  0  0  0  0  0
    5.7869    1.2540   -4.9435 C   0  0  0  0  0  0  0  0  0  0  0  0
    4.6382    2.0367   -4.9608 C   0  0  0  0  0  0  0  0  0  0  0  0
    4.6988    3.3673   -4.5336 C   0  0  0  0  0  0  0  0  0  0  0  0
    5.8999    3.9502   -4.0738 C   0  0  0  0  0  0  0  0  0  0  0  0
    6.0253    5.3023   -3.6489 C   0  0  0  0  0  0  0  0  0  0  0  0
    4.9571    6.2470   -3.6114 N   0  0  0  0  0  0  0  0  0  0  0  0
    3.8139    6.0663   -2.8502 C   0  0  0  0  0  0  0  0  0  0  0  0
    3.5920    5.0628   -2.1698 O   0  0  0  0  0  0  0  0  0  0  0  0
    2.7630    7.1811   -2.9257 C   0  0  3  0  0  0  0  0  0  0  0  0
    1.8256    6.9116   -4.1111 C   0  0  0  0  0  0  0  0  0  0  0  0
    2.4452    7.4097   -5.3898 N   0  0  0  0  0  0  0  0  0  0  0  0
    1.6471    6.7935   -6.7773 S   0  0  0  0  0  0  0  0  0  0  0  0
    1.7229    5.3506   -6.6952 O   0  0  0  0  0  0  0  0  0  0  0  0
    0.3746    7.4773   -6.8291 O   0  0  0  0  0  0  0  0  0  0  0  0
    2.7062    7.3503   -8.1283 C   0  0  0  0  0  0  0  0  0  0  0  0
    2.0880    6.8577   -9.4172 C   0  0  0  0  0  0  0  0  0  0  0  0
    0.7628    7.3586   -9.7234 C   0  0  0  0  0  0  0  0  0  0  0  0
   -0.2669    7.7914  -10.0220 N   0  0  0  0  0  0  0  0  0  0  0  0
    2.9948    6.7692  -10.6402 C   0  0  0  0  0  0  0  0  0  0  0  0
    2.5117    5.5150   -9.9774 C   0  0  0  0  0  0  0  0  0  0  0  0
    2.5193    8.8951   -5.3551 C   0  0  0  0  0  0  0  0  0  0  0  0
    3.0900    9.4395   -4.0638 C   0  0  0  0  0  0  0  0  0  0  0  0
    3.3671   10.8160   -3.9949 C   0  0  0  0  0  0  0  0  0  0  0  0
    3.8094   11.3894   -2.8065 C   0  0  0  0  0  0  0  0  0  0  0  0
    4.0011   10.5848   -1.6871 C   0  0  0  0  0  0  0  0  0  0  0  0
    4.5120   11.3045   -0.2105 Cl  0  0  0  0  0  0  0  0  0  0  0  0
    3.7398    9.2114   -1.7399 C   0  0  0  0  0  0  0  0  0  0  0  0
    3.2527    8.6270   -2.9210 C   0  0  0  0  0  0  0  0  0  0  0  0
    7.3023    5.7647   -3.3303 C   0  0  0  0  0  0  0  0  0  0  0  0
    8.4298    5.0190   -3.3678 N   0  0  0  0  0  0  0  0  0  0  0  0
    8.2849    3.7317   -3.7551 C   0  0  0  0  0  0  0  0  0  0  0  0
    7.0698    3.1436   -4.1156 C   0  0  0  0  0  0  0  0  0  0  0  0
    7.0090    1.7990   -4.5451 C   0  0  0  0  0  0  0  0  0  0  0  0
    5.1489   -2.3796   -4.2919 H   0  0  0  0  0  0  0  0  0  0  0  0
    4.3120   -0.9401   -3.6448 H   0  0  0  0  0  0  0  0  0  0  0  0
    6.0559   -1.2037   -3.2964 H   0  0  0  0  0  0  0  0  0  0  0  0
    3.6890    1.6347   -5.3135 H   0  0  0  0  0  0  0  0  0  0  0  0
    3.7830    3.9537   -4.5828 H   0  0  0  0  0  0  0  0  0  0  0  0
    5.2171    7.2148   -3.7464 H   0  0  0  0  0  0  0  0  0  0  0  0
    2.1549    7.0702   -2.0148 H   0  0  0  0  0  0  0  0  0  0  0  0
    0.8747    7.4415   -3.9524 H   0  0  0  0  0  0  0  0  0  0  0  0
    1.5980    5.8428   -4.1754 H   0  0  0  0  0  0  0  0  0  0  0  0
    3.7015    6.9273   -7.9575 H   0  0  0  0  0  0  0  0  0  0  0  0
    2.7543    8.4399   -8.1253 H   0  0  0  0  0  0  0  0  0  0  0  0
    4.0408    7.0331  -10.5460 H   0  0  0  0  0  0  0  0  0  0  0  0
    2.5798    7.0123  -11.6162 H   0  0  0  0  0  0  0  0  0  0  0  0
    3.2437    4.9213   -9.4384 H   0  0  0  0  0  0  0  0  0  0  0  0
    1.7652    4.9127  -10.4875 H   0  0  0  0  0  0  0  0  0  0  0  0
    1.5246    9.3334   -5.4959 H   0  0  0  0  0  0  0  0  0  0  0  0
    3.1796    9.2280   -6.1619 H   0  0  0  0  0  0  0  0  0  0  0  0
    3.1984   11.4574   -4.8598 H   0  0  0  0  0  0  0  0  0  0  0  0
    3.9785   12.4627   -2.7555 H   0  0  0  0  0  0  0  0  0  0  0  0
    3.8604    8.6137   -0.8381 H   0  0  0  0  0  0  0  0  0  0  0  0
    7.4607    6.7828   -2.9900 H   0  0  0  0  0  0  0  0  0  0  0  0
    9.2164    3.1718   -3.7889 H   0  0  0  0  0  0  0  0  0  0  0  0
    7.9128    1.1932   -4.5846 H   0  0  0  0  0  0  0  0  0  0  0  0
  1  2  1  0  0  0  0
  1 38  1  0  0  0  0
  1 39  1  0  0  0  0
  1 40  1  0  0  0  0
  2  3  2  0  0  0  0
  2  4  2  0  0  0  0
  2  5  1  0  0  0  0
  5  6  1  0  0  0  0
  5 37  2  0  0  0  0
  6  7  2  0  0  0  0
  6 41  1  0  0  0  0
  7  8  1  0  0  0  0
  7 42  1  0  0  0  0
  8  9  1  0  0  0  0
  8 36  2  0  0  0  0
  9 10  1  0  0  0  0
  9 33  2  0  0  0  0
 10 11  1  0  0  0  0
 10 43  1  0  0  0  0
 11 12  2  0  0  0  0
 11 13  1  0  0  0  0
 13 14  1  0  0  0  0
 13 32  1  0  0  0  0
 13 44  1  0  0  0  0
 14 15  1  0  0  0  0
 14 45  1  0  0  0  0
 14 46  1  0  0  0  0
 15 16  1  0  0  0  0
 15 25  1  0  0  0  0
 16 17  2  0  0  0  0
 16 18  2  0  0  0  0
 16 19  1  0  0  0  0
 19 20  1  0  0  0  0
 19 47  1  0  0  0  0
 19 48  1  0  0  0  0
 20 21  1  0  0  0  0
 20 23  1  0  0  0  0
 20 24  1  0  0  0  0
 21 22  3  0  0  0  0
 23 24  1  0  0  0  0
 23 49  1  0  0  0  0
 23 50  1  0  0  0  0
 24 51  1  0  0  0  0
 24 52  1  0  0  0  0
 25 26  1  0  0  0  0
 25 53  1  0  0  0  0
 25 54  1  0  0  0  0
 26 27  1  0  0  0  0
 26 32  2  0  0  0  0
 27 28  2  0  0  0  0
 27 55  1  0  0  0  0
 28 29  1  0  0  0  0
 28 56  1  0  0  0  0
 29 30  1  0  0  0  0
 29 31  2  0  0  0  0
 31 32  1  0  0  0  0
 31 57  1  0  0  0  0
 33 34  1  0  0  0  0
 33 58  1  0  0  0  0
 34 35  2  0  0  0  0
 35 36  1  0  0  0  0
 35 59  1  0  0  0  0
 36 37  1  0  0  0  0
 37 60  1  0  0  0  0
M  END
$$$$
