REMARK  6 active torsions:
REMARK  status: ('A' for Active; 'I' for Inactive)
REMARK    1  A    between atoms: N_3  and  N_4 
REMARK    2  A    between atoms: N_4  and  N_6 
REMARK    3  A    between atoms: N_8  and  C_9 
REMARK    4  A    between atoms: C_9  and  N_13 
REMARK    5  A    between atoms: N_13  and  C_14 
REMARK    6  A    between atoms: N_13  and  C_15 
ROOT
HETATM    1  C   UNL     1       6.530   0.183  19.394  1.00  0.00     0.081 C 
HETATM    2  O   UNL     1       6.107  -0.157  21.759  1.00  0.00    -0.307 OA
HETATM    3  C   UNL     1       6.744   0.327  20.900  1.00  0.00     0.226 C 
ENDROOT
TORSDOF 6
