stable:False satoms:19 tatoms:24 sratio:0.7916666666666666
  -OEChem-07092417343D

 24 22  0     1  0  0  0  0  0999 V2000
    7.0794   -4.6273   26.4628 H   0  0  0  0  0  0  0  0  0  0  0  0
    8.7600   -4.9695   26.4774 H   0  0  0  0  0  0  0  0  0  0  0  0
    8.0040   -4.4456   26.1414 N   0  0  0  0  0  0  0  0  0  0  0  0
    8.3400   -3.1906   25.8189 N   0  0  0  0  0  0  0  0  0  0  0  0
    9.0622   -3.0409   24.8397 N   0  0  0  0  0  0  0  0  0  0  0  0
    9.2944   -2.2275   23.9334 N   0  3  0  0  0  0  0  0  0  0  0  0
   10.2502   -1.2132   23.6593 C   0  0  1  0  0  0  0  0  0  0  0  0
    8.5197   -1.9282   23.4034 H   0  0  0  0  0  0  0  0  0  0  0  0
   10.1805   -0.4283   24.4201 H   0  0  0  0  0  0  0  0  0  0  0  0
   11.5650    0.8854   22.9013 F   0  0  0  0  0  0  0  0  0  0  0  0
   11.6103   -1.5405   23.6967 F   0  0  0  0  0  0  0  0  0  0  0  0
   11.8481   -0.4055   21.4771 H   0  0  0  0  0  0  0  0  0  0  0  0
   10.0150   -0.7068   22.3331 N   0  0  0  0  0  0  0  0  0  0  0  0
    9.0267   -1.0254   21.6098 C   0  0  0  0  0  0  0  0  0  0  0  0
   10.9862    0.1709   21.8648 C   0  0  0  0  0  0  0  0  0  0  0  0
   10.4510    1.0931   21.0179 F   0  0  0  0  0  0  0  0  0  0  0  0
    8.3007   -1.5548   20.9450 O   0  0  0  0  0  0  0  0  0  0  0  0
    7.4919    1.0740   21.0985 H   0  0  0  0  0  0  0  0  0  0  0  0
    7.3080    0.6874   18.8456 H   0  0  0  0  0  0  0  0  0  0  0  0
    6.5431   -0.8537   19.0772 H   0  0  0  0  0  0  0  0  0  0  0  0
    6.5302    0.1827   19.3937 C   0  0  0  0  0  0  0  0  0  0  0  0
    5.5659    0.6040   19.2209 H   0  0  0  0  0  0  0  0  0  0  0  0
    6.1075   -0.1565   21.7590 O   0  0  0  0  0  0  0  0  0  0  0  0
    6.7440    0.3266   20.8997 C   0  0  0  0  0  0  0  0  0  0  0  0
 19 21  1  0  0  0  0
 20 21  1  0  0  0  0
 21 22  1  0  0  0  0
 21 24  1  0  0  0  0
 18 24  1  0  0  0  0
 23 24  2  0  0  0  0
 14 17  2  0  0  0  0
 15 16  1  0  0  0  0
 12 15  1  0  0  0  0
 13 14  1  0  0  0  0
 13 15  1  0  0  0  0
 10 15  1  0  0  0  0
  7 13  1  0  0  0  0
  6  8  1  0  0  0  0
  7 11  1  0  0  0  0
  6  7  1  0  0  0  0
  7  9  1  0  0  0  0
  5  6  2  3  0  0  0
  4  5  1  0  0  0  0
  3  4  1  0  0  0  0
  1  3  1  0  0  0  0
  2  3  1  0  0  0  0
M  CHG  1   6   1
M  END
> <Shapegauss>
-137.927643

$$$$
