stable:False satoms:3 tatoms:24 sratio:0.125
  -OEChem-08062413393D

 43 45  0     1  0  0  0  0  0999 V2000
    6.4610   -5.0922   26.2310 C   0  0  0  0  0  0  0  0  0  0  0  0
    8.1217   -4.4874   26.0107 S   0  0  0  0  0  0  0  0  0  0  0  0
    8.9776   -5.6543   25.9681 O   0  0  0  0  0  0  0  0  0  0  0  0
    8.4048   -3.6375   27.1237 O   0  0  0  0  0  0  0  0  0  0  0  0
    8.0851   -3.7301   24.5948 N   0  0  0  0  0  0  0  0  0  0  0  0
    8.8815   -2.9795   24.1422 C   0  0  0  0  0  0  0  0  0  0  0  0
    9.4125   -2.0319   23.6154 C   0  0  0  0  0  0  0  0  0  0  0  0
   10.3886   -1.1470   23.4571 C   0  0  1  0  0  0  0  0  0  0  0  0
   10.9914   -0.1124   24.5805 C   0  0  0  0  0  0  0  0  0  0  0  0
   12.0160    0.2427   24.6429 C   0  0  0  0  0  0  0  0  0  0  0  0
   13.0912   -0.1916   23.8851 C   0  0  0  0  0  0  0  0  0  0  0  0
   12.7880   -1.1718   23.0595 C   0  0  0  0  0  0  0  0  0  0  0  0
   11.8578   -1.6659   22.8374 C   0  0  0  0  0  0  0  0  0  0  0  0
    9.7277   -0.6631   22.5835 C   0  0  3  0  0  0  0  0  0  0  0  0
    9.1840    0.0643   21.5799 C   0  0  0  0  0  0  0  0  0  0  0  0
    9.7309    1.0204   21.2527 O   0  0  0  0  0  0  0  0  0  0  0  0
    8.0499   -0.5159   21.1673 N   0  0  0  0  0  0  0  0  0  0  0  0
    7.4164   -0.0080   20.2312 C   0  0  0  0  0  0  0  0  0  0  0  0
    7.5094    0.1593   18.9150 C   0  0  0  0  0  0  0  0  0  0  0  0
    7.1139    0.5082   17.8363 N   0  0  0  0  0  0  0  0  0  0  0  0
    6.0224    0.9744   18.2289 C   0  0  0  0  0  0  0  0  0  0  0  0
    5.5195    1.0152   19.3504 C   0  0  0  0  0  0  0  0  0  0  0  0
    5.9770    0.6078   20.5281 C   0  0  0  0  0  0  0  0  0  0  0  0
    5.5679    0.6252   21.5211 C   0  0  0  0  0  0  0  0  0  0  0  0
    6.3904   -5.6314   27.1871 H   0  0  0  0  0  0  0  0  0  0  0  0
    5.7598   -4.2446   26.2355 H   0  0  0  0  0  0  0  0  0  0  0  0
    6.2067   -5.7739   25.4060 H   0  0  0  0  0  0  0  0  0  0  0  0
    7.2303   -3.2113   24.6091 H   0  0  0  0  0  0  0  0  0  0  0  0
    9.7703   -3.5572   24.3489 H   0  0  0  0  0  0  0  0  0  0  0  0
   10.3029    0.2499   25.3296 H   0  0  0  0  0  0  0  0  0  0  0  0
   12.2174    1.0144   25.3711 H   0  0  0  0  0  0  0  0  0  0  0  0
   14.0814    0.2322   23.9637 H   0  0  0  0  0  0  0  0  0  0  0  0
   13.6306   -1.5510   22.5004 H   0  0  0  0  0  0  0  0  0  0  0  0
   11.7530   -1.6409   21.7427 H   0  0  0  0  0  0  0  0  0  0  0  0
   11.9785   -2.7073   23.1704 H   0  0  0  0  0  0  0  0  0  0  0  0
   10.2084   -1.3249   21.8480 H   0  0  0  0  0  0  0  0  0  0  0  0
    7.7180   -1.3492   21.6094 H   0  0  0  0  0  0  0  0  0  0  0  0
    8.4862   -0.2439   18.6919 H   0  0  0  0  0  0  0  0  0  0  0  0
    5.4183    1.4168   17.4505 H   0  0  0  0  0  0  0  0  0  0  0  0
    4.5355    1.4592   19.3827 H   0  0  0  0  0  0  0  0  0  0  0  0
    5.0000   -0.2996   21.7006 H   0  0  0  0  0  0  0  0  0  0  0  0
    6.3855    0.7012   22.2531 H   0  0  0  0  0  0  0  0  0  0  0  0
    4.8993    1.4922   21.6269 H   0  0  0  0  0  0  0  0  0  0  0  0
 20 21  2  0  0  0  0
 19 20  1  0  0  0  0
 21 22  1  0  0  0  0
 18 19  2  0  0  0  0
 22 23  2  0  0  0  0
 18 23  1  0  0  0  0
 17 18  1  0  0  0  0
 23 24  1  0  0  0  0
 15 16  2  0  0  0  0
 15 17  1  0  0  0  0
 14 15  1  0  0  0  0
  8 14  1  0  0  0  0
  7 14  1  0  0  0  0
 12 13  1  0  0  0  0
  8 13  1  0  0  0  0
 11 12  2  0  0  0  0
  7  8  1  0  0  0  0
  8  9  1  0  0  0  0
 10 11  1  0  0  0  0
  6  7  2  3  0  0  0
  5  6  1  0  0  0  0
  9 10  2  0  0  0  0
  2  5  1  0  0  0  0
  2  3  2  0  0  0  0
  1  2  1  0  0  0  0
  2  4  2  0  0  0  0
  1 25  1  0  0  0  0
  1 26  1  0  0  0  0
  1 27  1  0  0  0  0
  5 28  1  0  0  0  0
  6 29  1  0  0  0  0
  9 30  1  0  0  0  0
 10 31  1  0  0  0  0
 11 32  1  0  0  0  0
 12 33  1  0  0  0  0
 13 34  1  0  0  0  0
 13 35  1  0  0  0  0
 14 36  1  0  0  0  0
 17 37  1  0  0  0  0
 19 38  1  0  0  0  0
 21 39  1  0  0  0  0
 22 40  1  0  0  0  0
 24 41  1  0  0  0  0
 24 42  1  0  0  0  0
 24 43  1  0  0  0  0
M  END
> <Chemgauss4>
-13.602388

$$$$
