stable:False satoms:8 tatoms:24 sratio:0.3333333333333333
  -OEChem-07092417503D

 24 26  0     1  0  0  0  0  0999 V2000
    6.5782   -4.8551   26.4653 C   0  0  0  0  0  0  0  0  0  0  0  0
    8.2064   -4.3099   26.0931 S   0  0  0  0  0  0  0  0  0  0  0  0
    9.0552   -5.4853   26.0502 O   0  0  0  0  0  0  0  0  0  0  0  0
    8.6066   -3.3995   27.1202 O   0  0  0  0  0  0  0  0  0  0  0  0
    8.1147   -3.5828   24.6538 N   0  0  0  0  0  0  0  0  0  0  0  0
    8.9611   -2.9408   24.1367 C   0  0  0  0  0  0  0  0  0  0  0  0
    9.3800   -1.9317   23.4662 C   0  0  0  0  0  0  0  0  0  0  0  0
   10.3240   -1.1290   23.2509 C   0  0  1  0  0  0  0  0  0  0  0  0
   11.0459    0.0350   24.3060 C   0  0  0  0  0  0  0  0  0  0  0  0
   12.1118    0.2845   24.2331 C   0  0  0  0  0  0  0  0  0  0  0  0
   13.1535   -0.1509   23.5425 C   0  0  0  0  0  0  0  0  0  0  0  0
   12.7200   -1.3272   22.6457 C   0  0  0  0  0  0  0  0  0  0  0  0
   11.8306   -1.7376   22.5297 C   0  0  0  0  0  0  0  0  0  0  0  0
    9.7205   -0.6137   22.4098 C   0  0  3  0  0  0  0  0  0  0  0  0
    9.0661    0.0515   21.3730 C   0  0  0  0  0  0  0  0  0  0  0  0
    9.5360    1.0160   20.9538 O   0  0  0  0  0  0  0  0  0  0  0  0
    7.9671   -0.5655   21.0684 N   0  0  0  0  0  0  0  0  0  0  0  0
    7.2124   -0.1215   20.1630 C   0  0  0  0  0  0  0  0  0  0  0  0
    7.2016    0.0047   18.8635 C   0  0  0  0  0  0  0  0  0  0  0  0
    6.8066    0.3468   17.7890 N   0  0  0  0  0  0  0  0  0  0  0  0
    5.5983    0.9123   18.2423 C   0  0  0  0  0  0  0  0  0  0  0  0
    5.2514    0.9677   19.4124 C   0  0  0  0  0  0  0  0  0  0  0  0
    5.8066    0.5612   20.5419 C   0  0  0  0  0  0  0  0  0  0  0  0
    5.3296    0.6807   21.9862 C   0  0  0  0  0  0  0  0  0  0  0  0
 20 21  2  0  0  0  0
 19 20  1  0  0  0  0
 21 22  1  0  0  0  0
 18 19  2  0  0  0  0
 22 23  2  0  0  0  0
 18 23  1  0  0  0  0
 17 18  1  0  0  0  0
 23 24  1  0  0  0  0
 15 16  2  0  0  0  0
 15 17  1  0  0  0  0
 14 15  1  0  0  0  0
  8 14  1  0  0  0  0
  7 14  1  0  0  0  0
 12 13  1  0  0  0  0
  8 13  1  0  0  0  0
 11 12  2  0  0  0  0
  7  8  1  0  0  0  0
  8  9  1  0  0  0  0
  6  7  2  3  0  0  0
 10 11  1  0  0  0  0
  5  6  1  0  0  0  0
  9 10  2  0  0  0  0
  2  5  1  0  0  0  0
  2  3  2  0  0  0  0
  1  2  1  0  0  0  0
  2  4  2  0  0  0  0
M  END
> <Shapegauss>
-285.938843

$$$$
