stable:False satoms:8 tatoms:24 sratio:0.3333333333333333
  -OEChem-08062416573D

 43 45  0     1  0  0  0  0  0999 V2000
   -6.0666   -4.4685  -26.5407 C   0  0  0  0  0  0  0  0  0  0  0  0
   -7.7588   -4.0948  -26.2514 S   0  0  0  0  0  0  0  0  0  0  0  0
   -8.4866   -5.3493  -26.2707 O   0  0  0  0  0  0  0  0  0  0  0  0
   -8.1928   -3.2097  -27.2868 O   0  0  0  0  0  0  0  0  0  0  0  0
   -7.8173   -3.3892  -24.7997 N   0  0  0  0  0  0  0  0  0  0  0  0
   -8.7502   -2.8442  -24.3215 C   0  0  0  0  0  0  0  0  0  0  0  0
   -9.3033   -1.8944  -23.6617 C   0  0  0  0  0  0  0  0  0  0  0  0
  -10.3332   -1.1936  -23.4880 C   0  0  1  0  0  0  0  0  0  0  0  0
  -11.1108   -0.0876  -24.5657 C   0  0  0  0  0  0  0  0  0  0  0  0
  -12.1987    0.0533  -24.5482 C   0  0  0  0  0  0  0  0  0  0  0  0
  -13.2268   -0.4962  -23.9217 C   0  0  0  0  0  0  0  0  0  0  0  0
  -12.7261   -1.6402  -23.0181 C   0  0  0  0  0  0  0  0  0  0  0  0
  -11.8075   -1.9622  -22.8588 C   0  0  0  0  0  0  0  0  0  0  0  0
   -9.8301   -0.6367  -22.6083 C   0  0  3  0  0  0  0  0  0  0  0  0
   -9.3019    0.0708  -21.5284 C   0  0  0  0  0  0  0  0  0  0  0  0
   -9.8878    0.9759  -21.1229 O   0  0  0  0  0  0  0  0  0  0  0  0
   -8.1644   -0.4395  -21.1720 N   0  0  0  0  0  0  0  0  0  0  0  0
   -7.5074    0.0603  -20.2207 C   0  0  0  0  0  0  0  0  0  0  0  0
   -7.5787    0.1627  -18.9211 C   0  0  0  0  0  0  0  0  0  0  0  0
   -7.2779    0.5223  -17.8220 N   0  0  0  0  0  0  0  0  0  0  0  0
   -6.1099    1.2134  -18.2007 C   0  0  0  0  0  0  0  0  0  0  0  0
   -5.7083    1.3248  -19.3492 C   0  0  0  0  0  0  0  0  0  0  0  0
   -6.1589    0.8863  -20.5127 C   0  0  0  0  0  0  0  0  0  0  0  0
   -5.6199    1.0795  -21.9269 C   0  0  0  0  0  0  0  0  0  0  0  0
   -5.9604   -4.9546  -27.5217 H   0  0  0  0  0  0  0  0  0  0  0  0
   -5.4784   -3.5391  -26.5266 H   0  0  0  0  0  0  0  0  0  0  0  0
   -5.7012   -5.1457  -25.7546 H   0  0  0  0  0  0  0  0  0  0  0  0
   -7.0935   -2.6994  -24.8163 H   0  0  0  0  0  0  0  0  0  0  0  0
   -9.5775   -3.4903  -24.5753 H   0  0  0  0  0  0  0  0  0  0  0  0
  -10.5146    0.4748  -25.2691 H   0  0  0  0  0  0  0  0  0  0  0  0
  -12.5111    0.8444  -25.2138 H   0  0  0  0  0  0  0  0  0  0  0  0
  -14.2572   -0.1905  -24.0273 H   0  0  0  0  0  0  0  0  0  0  0  0
  -13.4974   -2.1688  -22.4778 H   0  0  0  0  0  0  0  0  0  0  0  0
  -11.6871   -1.9760  -21.7655 H   0  0  0  0  0  0  0  0  0  0  0  0
  -11.7875   -2.9928  -23.2429 H   0  0  0  0  0  0  0  0  0  0  0  0
   -9.4339    0.1179  -23.3037 H   0  0  0  0  0  0  0  0  0  0  0  0
   -7.8056   -1.2371  -21.6568 H   0  0  0  0  0  0  0  0  0  0  0  0
   -8.4356   -0.4597  -18.7095 H   0  0  0  0  0  0  0  0  0  0  0  0
   -5.5274    1.6784  -17.4191 H   0  0  0  0  0  0  0  0  0  0  0  0
   -4.7978    1.8999  -19.4311 H   0  0  0  0  0  0  0  0  0  0  0  0
   -4.9281    0.2600  -22.1714 H   0  0  0  0  0  0  0  0  0  0  0  0
   -6.4564    1.0784  -22.6413 H   0  0  0  0  0  0  0  0  0  0  0  0
   -5.0868    2.0397  -21.9880 H   0  0  0  0  0  0  0  0  0  0  0  0
 20 21  2  0  0  0  0
 19 20  1  0  0  0  0
 21 22  1  0  0  0  0
 18 19  2  0  0  0  0
 22 23  2  0  0  0  0
 18 23  1  0  0  0  0
 17 18  1  0  0  0  0
 23 24  1  0  0  0  0
 15 16  2  0  0  0  0
 15 17  1  0  0  0  0
 14 15  1  0  0  0  0
  8 14  1  0  0  0  0
  7 14  1  0  0  0  0
 12 13  1  0  0  0  0
  8 13  1  0  0  0  0
 11 12  2  0  0  0  0
  7  8  1  0  0  0  0
  8  9  1  0  0  0  0
  6  7  2  3  0  0  0
 10 11  1  0  0  0  0
  5  6  1  0  0  0  0
  9 10  2  0  0  0  0
  2  5  1  0  0  0  0
  2  3  2  0  0  0  0
  1  2  1  0  0  0  0
  2  4  2  0  0  0  0
  1 25  1  0  0  0  0
  1 26  1  0  0  0  0
  1 27  1  0  0  0  0
  5 28  1  0  0  0  0
  6 29  1  0  0  0  0
  9 30  1  0  0  0  0
 10 31  1  0  0  0  0
 11 32  1  0  0  0  0
 12 33  1  0  0  0  0
 13 34  1  0  0  0  0
 13 35  1  0  0  0  0
 14 36  1  0  0  0  0
 17 37  1  0  0  0  0
 19 38  1  0  0  0  0
 21 39  1  0  0  0  0
 22 40  1  0  0  0  0
 24 41  1  0  0  0  0
 24 42  1  0  0  0  0
 24 43  1  0  0  0  0
M  END
> <Chemgauss4>
-13.090151

$$$$
