stable:False satoms:8 tatoms:24 sratio:0.3333333333333333
  -OEChem-08062416573D

 43 45  0     1  0  0  0  0  0999 V2000
    6.1663   -4.5410   26.6162 C   0  0  0  0  0  0  0  0  0  0  0  0
    7.8585   -4.1673   26.3269 S   0  0  0  0  0  0  0  0  0  0  0  0
    8.5863   -5.4218   26.3462 O   0  0  0  0  0  0  0  0  0  0  0  0
    8.2925   -3.2822   27.3623 O   0  0  0  0  0  0  0  0  0  0  0  0
    7.9171   -3.4616   24.8752 N   0  0  0  0  0  0  0  0  0  0  0  0
    8.8499   -2.9166   24.3970 C   0  0  0  0  0  0  0  0  0  0  0  0
    9.4030   -1.9668   23.7372 C   0  0  0  0  0  0  0  0  0  0  0  0
   10.4329   -1.2661   23.5635 C   0  0  1  0  0  0  0  0  0  0  0  0
   11.2105   -0.1601   24.6412 C   0  0  0  0  0  0  0  0  0  0  0  0
   12.2984   -0.0191   24.6237 C   0  0  0  0  0  0  0  0  0  0  0  0
   13.3265   -0.5687   23.9972 C   0  0  0  0  0  0  0  0  0  0  0  0
   12.8258   -1.7126   23.0936 C   0  0  0  0  0  0  0  0  0  0  0  0
   11.9072   -2.0347   22.9343 C   0  0  0  0  0  0  0  0  0  0  0  0
    9.9298   -0.7091   22.6838 C   0  0  3  0  0  0  0  0  0  0  0  0
    9.4016   -0.0016   21.6039 C   0  0  0  0  0  0  0  0  0  0  0  0
    9.9875    0.9034   21.1984 O   0  0  0  0  0  0  0  0  0  0  0  0
    8.2642   -0.5120   21.2475 N   0  0  0  0  0  0  0  0  0  0  0  0
    7.6071   -0.0121   20.2962 C   0  0  0  0  0  0  0  0  0  0  0  0
    7.6784    0.0903   18.9966 C   0  0  0  0  0  0  0  0  0  0  0  0
    7.3776    0.4498   17.8975 N   0  0  0  0  0  0  0  0  0  0  0  0
    6.2096    1.1410   18.2762 C   0  0  0  0  0  0  0  0  0  0  0  0
    5.8081    1.2524   19.4247 C   0  0  0  0  0  0  0  0  0  0  0  0
    6.2586    0.8138   20.5882 C   0  0  0  0  0  0  0  0  0  0  0  0
    5.7196    1.0070   22.0024 C   0  0  0  0  0  0  0  0  0  0  0  0
    6.0602   -5.0271   27.5972 H   0  0  0  0  0  0  0  0  0  0  0  0
    5.5781   -3.6115   26.6021 H   0  0  0  0  0  0  0  0  0  0  0  0
    5.8009   -5.2181   25.8301 H   0  0  0  0  0  0  0  0  0  0  0  0
    7.1932   -2.7719   24.8918 H   0  0  0  0  0  0  0  0  0  0  0  0
    9.6772   -3.5628   24.6508 H   0  0  0  0  0  0  0  0  0  0  0  0
   10.6143    0.4023   25.3446 H   0  0  0  0  0  0  0  0  0  0  0  0
   12.6108    0.7720   25.2893 H   0  0  0  0  0  0  0  0  0  0  0  0
   14.3570   -0.2629   24.1028 H   0  0  0  0  0  0  0  0  0  0  0  0
   13.5972   -2.2412   22.5533 H   0  0  0  0  0  0  0  0  0  0  0  0
   11.7869   -2.0484   21.8410 H   0  0  0  0  0  0  0  0  0  0  0  0
   11.8872   -3.0653   23.3184 H   0  0  0  0  0  0  0  0  0  0  0  0
    9.5336    0.0455   23.3792 H   0  0  0  0  0  0  0  0  0  0  0  0
    7.9053   -1.3096   21.7323 H   0  0  0  0  0  0  0  0  0  0  0  0
    8.5353   -0.5321   18.7850 H   0  0  0  0  0  0  0  0  0  0  0  0
    5.6271    1.6059   17.4946 H   0  0  0  0  0  0  0  0  0  0  0  0
    4.8976    1.8274   19.5066 H   0  0  0  0  0  0  0  0  0  0  0  0
    5.0278    0.1875   22.2469 H   0  0  0  0  0  0  0  0  0  0  0  0
    6.5561    1.0060   22.7168 H   0  0  0  0  0  0  0  0  0  0  0  0
    5.1865    1.9673   22.0635 H   0  0  0  0  0  0  0  0  0  0  0  0
 20 21  2  0  0  0  0
 19 20  1  0  0  0  0
 21 22  1  0  0  0  0
 18 19  2  0  0  0  0
 22 23  2  0  0  0  0
 18 23  1  0  0  0  0
 17 18  1  0  0  0  0
 23 24  1  0  0  0  0
 15 16  2  0  0  0  0
 15 17  1  0  0  0  0
 14 15  1  0  0  0  0
  8 14  1  0  0  0  0
  7 14  1  0  0  0  0
 12 13  1  0  0  0  0
  8 13  1  0  0  0  0
 11 12  2  0  0  0  0
  7  8  1  0  0  0  0
  8  9  1  0  0  0  0
  6  7  2  3  0  0  0
 10 11  1  0  0  0  0
  5  6  1  0  0  0  0
  9 10  2  0  0  0  0
  2  5  1  0  0  0  0
  2  3  2  0  0  0  0
  1  2  1  0  0  0  0
  2  4  2  0  0  0  0
  1 25  1  0  0  0  0
  1 26  1  0  0  0  0
  1 27  1  0  0  0  0
  5 28  1  0  0  0  0
  6 29  1  0  0  0  0
  9 30  1  0  0  0  0
 10 31  1  0  0  0  0
 11 32  1  0  0  0  0
 12 33  1  0  0  0  0
 13 34  1  0  0  0  0
 13 35  1  0  0  0  0
 14 36  1  0  0  0  0
 17 37  1  0  0  0  0
 19 38  1  0  0  0  0
 21 39  1  0  0  0  0
 22 40  1  0  0  0  0
 24 41  1  0  0  0  0
 24 42  1  0  0  0  0
 24 43  1  0  0  0  0
M  END
> <Chemgauss4>
-12.852747

$$$$
