stable:False satoms:7 tatoms:24 sratio:0.2916666666666667
  -OEChem-08062417593D

 47 47  0     1  0  0  0  0  0999 V2000
    5.9001   -5.1946   26.0390 C   0  0  0  0  0  0  0  0  0  0  0  0
    7.5023   -4.6510   25.9313 S   0  0  0  0  0  0  0  0  0  0  0  0
    8.3569   -5.8074   25.8971 O   0  0  0  0  0  0  0  0  0  0  0  0
    7.7759   -3.8400   27.0749 O   0  0  0  0  0  0  0  0  0  0  0  0
    7.5806   -3.8296   24.5427 N   0  0  0  0  0  0  0  0  0  0  0  0
    8.4748   -3.1870   24.1445 C   0  0  0  0  0  0  0  0  0  0  0  0
    9.0255   -2.1806   23.6032 C   0  0  0  0  0  0  0  0  0  0  0  0
    9.9447   -1.3317   23.5289 C   0  0  2  0  0  0  0  0  0  0  0  0
   10.5508   -0.3275   24.7144 C   0  0  0  0  0  0  0  0  0  0  0  0
   11.6306   -0.0409   24.7823 C   0  0  0  0  0  0  0  0  0  0  0  0
   12.7388   -0.4080   24.1624 C   0  0  0  0  0  0  0  0  0  0  0  0
   12.4315   -1.5570   23.1799 C   0  0  0  0  0  0  0  0  0  0  0  0
   11.5342   -1.9781   22.9310 C   0  0  0  0  0  0  0  0  0  0  0  0
    9.5186   -0.7276   22.5967 C   0  0  0  0  0  0  0  0  0  0  0  0
    8.9455   -0.0038   21.5947 C   0  0  0  0  0  0  0  0  0  0  0  0
    9.4544    0.9735   21.3044 O   0  0  0  0  0  0  0  0  0  0  0  0
    7.8641   -0.6071   21.1507 N   0  0  0  0  0  0  0  0  0  0  0  0
    7.2263   -0.1057   20.1722 C   0  0  0  0  0  0  0  0  0  0  0  0
    7.4024    0.0423   18.8885 C   0  0  0  0  0  0  0  0  0  0  0  0
    7.0790    0.4450   17.7794 N   0  0  0  0  0  0  0  0  0  0  0  0
    5.9265    1.0406   18.1039 C   0  0  0  0  0  0  0  0  0  0  0  0
    5.3878    1.0664   19.2935 C   0  0  0  0  0  0  0  0  0  0  0  0
    5.8256    0.5724   20.4355 C   0  0  0  0  0  0  0  0  0  0  0  0
    5.1696    0.5909   21.8592 C   0  0  0  0  0  0  0  0  0  0  0  0
    5.7687   -5.7681   26.9684 H   0  0  0  0  0  0  0  0  0  0  0  0
    5.2193   -4.3306   26.0421 H   0  0  0  0  0  0  0  0  0  0  0  0
    5.6725   -5.8377   25.1762 H   0  0  0  0  0  0  0  0  0  0  0  0
    6.8065   -3.1974   24.5758 H   0  0  0  0  0  0  0  0  0  0  0  0
    9.3234   -3.8167   24.3678 H   0  0  0  0  0  0  0  0  0  0  0  0
    8.3631   -1.9236   22.7898 H   0  0  0  0  0  0  0  0  0  0  0  0
   10.8433   -1.8697   23.1926 H   0  0  0  0  0  0  0  0  0  0  0  0
    9.8679    0.0657   25.4529 H   0  0  0  0  0  0  0  0  0  0  0  0
   11.8096    0.7150   25.5325 H   0  0  0  0  0  0  0  0  0  0  0  0
   13.4763   -0.7490   24.9039 H   0  0  0  0  0  0  0  0  0  0  0  0
   13.1471    0.4487   23.6062 H   0  0  0  0  0  0  0  0  0  0  0  0
   13.2918   -1.9788   22.6815 H   0  0  0  0  0  0  0  0  0  0  0  0
   11.4969   -2.7858   22.2150 H   0  0  0  0  0  0  0  0  0  0  0  0
   10.6233   -1.6153   23.3838 H   0  0  0  0  0  0  0  0  0  0  0  0
    9.5343   -1.6317   21.9703 H   0  0  0  0  0  0  0  0  0  0  0  0
   10.4684   -0.1848   22.4810 H   0  0  0  0  0  0  0  0  0  0  0  0
    7.5466   -1.4530   21.5793 H   0  0  0  0  0  0  0  0  0  0  0  0
    8.3390   -0.4636   18.7061 H   0  0  0  0  0  0  0  0  0  0  0  0
    5.3936    1.5453   17.3116 H   0  0  0  0  0  0  0  0  0  0  0  0
    4.4348    1.5713   19.3512 H   0  0  0  0  0  0  0  0  0  0  0  0
    4.5418   -0.3035   21.9858 H   0  0  0  0  0  0  0  0  0  0  0  0
    5.9581    0.5968   22.6261 H   0  0  0  0  0  0  0  0  0  0  0  0
    4.5485    1.4926   21.9649 H   0  0  0  0  0  0  0  0  0  0  0  0
 20 21  2  0  0  0  0
 19 20  1  0  0  0  0
 21 22  1  0  0  0  0
 18 19  2  0  0  0  0
 22 23  2  0  0  0  0
 18 23  1  0  0  0  0
 17 18  1  0  0  0  0
 23 24  1  0  0  0  0
 15 16  2  0  0  0  0
 15 17  1  0  0  0  0
 14 15  1  0  0  0  0
  8 14  1  0  0  0  0
 12 13  2  0  0  0  0
 11 12  1  0  0  0  0
  7  8  1  0  0  0  0
  8  9  1  0  0  0  0
  6  7  2  3  0  0  0
 10 11  1  0  0  0  0
  5  6  1  0  0  0  0
  9 10  2  0  0  0  0
  2  5  1  0  0  0  0
  2  3  2  0  0  0  0
  1  2  1  0  0  0  0
  2  4  2  0  0  0  0
  1 25  1  0  0  0  0
  1 26  1  0  0  0  0
  1 27  1  0  0  0  0
  5 28  1  0  0  0  0
  6 29  1  0  0  0  0
  7 30  1  0  0  0  0
  8 31  1  0  0  0  0
  9 32  1  0  0  0  0
 10 33  1  0  0  0  0
 11 34  1  0  0  0  0
 11 35  1  0  0  0  0
 12 36  1  0  0  0  0
 13 37  1  0  0  0  0
 13 38  1  0  0  0  0
 14 39  1  0  0  0  0
 14 40  1  0  0  0  0
 17 41  1  0  0  0  0
 19 42  1  0  0  0  0
 21 43  1  0  0  0  0
 22 44  1  0  0  0  0
 24 45  1  0  0  0  0
 24 46  1  0  0  0  0
 24 47  1  0  0  0  0
M  END
> <Chemgauss4>
-12.876760

$$$$
