stable:False satoms:7 tatoms:24 sratio:0.2916666666666667
  -OEChem-08062417583D

 47 47  0     1  0  0  0  0  0999 V2000
   -5.9754   -5.1338  -25.7793 C   0  0  0  0  0  0  0  0  0  0  0  0
   -7.5775   -4.5902  -25.6716 S   0  0  0  0  0  0  0  0  0  0  0  0
   -8.4322   -5.7466  -25.6373 O   0  0  0  0  0  0  0  0  0  0  0  0
   -7.8512   -3.7792  -26.8152 O   0  0  0  0  0  0  0  0  0  0  0  0
   -7.6558   -3.7688  -24.2829 N   0  0  0  0  0  0  0  0  0  0  0  0
   -8.5501   -3.1262  -23.8848 C   0  0  0  0  0  0  0  0  0  0  0  0
   -9.1007   -2.1198  -23.3434 C   0  0  0  0  0  0  0  0  0  0  0  0
  -10.0199   -1.2709  -23.2691 C   0  0  2  0  0  0  0  0  0  0  0  0
  -10.6261   -0.2666  -24.4547 C   0  0  0  0  0  0  0  0  0  0  0  0
  -11.7059    0.0199  -24.5225 C   0  0  0  0  0  0  0  0  0  0  0  0
  -12.8140   -0.3472  -23.9026 C   0  0  0  0  0  0  0  0  0  0  0  0
  -12.5067   -1.4962  -22.9202 C   0  0  0  0  0  0  0  0  0  0  0  0
  -11.6095   -1.9172  -22.6712 C   0  0  0  0  0  0  0  0  0  0  0  0
   -9.5939   -0.6668  -22.3369 C   0  0  0  0  0  0  0  0  0  0  0  0
   -9.0207    0.0570  -21.3349 C   0  0  0  0  0  0  0  0  0  0  0  0
   -9.5297    1.0343  -21.0447 O   0  0  0  0  0  0  0  0  0  0  0  0
   -7.9394   -0.5463  -20.8909 N   0  0  0  0  0  0  0  0  0  0  0  0
   -7.3016   -0.0449  -19.9124 C   0  0  0  0  0  0  0  0  0  0  0  0
   -7.4776    0.1031  -18.6288 C   0  0  0  0  0  0  0  0  0  0  0  0
   -7.1543    0.5058  -17.5196 N   0  0  0  0  0  0  0  0  0  0  0  0
   -6.0017    1.1014  -17.8441 C   0  0  0  0  0  0  0  0  0  0  0  0
   -5.4630    1.1273  -19.0337 C   0  0  0  0  0  0  0  0  0  0  0  0
   -5.9009    0.6332  -20.1757 C   0  0  0  0  0  0  0  0  0  0  0  0
   -5.2448    0.6517  -21.5994 C   0  0  0  0  0  0  0  0  0  0  0  0
   -5.8439   -5.7073  -26.7087 H   0  0  0  0  0  0  0  0  0  0  0  0
   -5.2946   -4.2698  -25.7823 H   0  0  0  0  0  0  0  0  0  0  0  0
   -5.7477   -5.7769  -24.9164 H   0  0  0  0  0  0  0  0  0  0  0  0
   -6.8818   -3.1366  -24.3160 H   0  0  0  0  0  0  0  0  0  0  0  0
   -9.3986   -3.7559  -24.1081 H   0  0  0  0  0  0  0  0  0  0  0  0
   -8.4383   -1.8628  -22.5300 H   0  0  0  0  0  0  0  0  0  0  0  0
  -10.9185   -1.8089  -22.9328 H   0  0  0  0  0  0  0  0  0  0  0  0
   -9.9431    0.1265  -25.1932 H   0  0  0  0  0  0  0  0  0  0  0  0
  -11.8849    0.7759  -25.2727 H   0  0  0  0  0  0  0  0  0  0  0  0
  -13.5515   -0.6881  -24.6441 H   0  0  0  0  0  0  0  0  0  0  0  0
  -13.2223    0.5095  -23.3464 H   0  0  0  0  0  0  0  0  0  0  0  0
  -13.3671   -1.9179  -22.4218 H   0  0  0  0  0  0  0  0  0  0  0  0
  -11.5722   -2.7250  -21.9552 H   0  0  0  0  0  0  0  0  0  0  0  0
  -10.6986   -1.5545  -23.1240 H   0  0  0  0  0  0  0  0  0  0  0  0
   -9.6096   -1.5708  -21.7105 H   0  0  0  0  0  0  0  0  0  0  0  0
  -10.5437   -0.1240  -22.2212 H   0  0  0  0  0  0  0  0  0  0  0  0
   -7.6219   -1.3922  -21.3195 H   0  0  0  0  0  0  0  0  0  0  0  0
   -8.4142   -0.4028  -18.4463 H   0  0  0  0  0  0  0  0  0  0  0  0
   -5.4688    1.6061  -17.0518 H   0  0  0  0  0  0  0  0  0  0  0  0
   -4.5101    1.6321  -19.0914 H   0  0  0  0  0  0  0  0  0  0  0  0
   -4.6170   -0.2427  -21.7260 H   0  0  0  0  0  0  0  0  0  0  0  0
   -6.0334    0.6576  -22.3663 H   0  0  0  0  0  0  0  0  0  0  0  0
   -4.6238    1.5534  -21.7051 H   0  0  0  0  0  0  0  0  0  0  0  0
 20 21  2  0  0  0  0
 19 20  1  0  0  0  0
 21 22  1  0  0  0  0
 18 19  2  0  0  0  0
 22 23  2  0  0  0  0
 18 23  1  0  0  0  0
 17 18  1  0  0  0  0
 23 24  1  0  0  0  0
 15 16  2  0  0  0  0
 15 17  1  0  0  0  0
 14 15  1  0  0  0  0
  8 14  1  0  0  0  0
 12 13  2  0  0  0  0
 11 12  1  0  0  0  0
  7  8  1  0  0  0  0
  8  9  1  0  0  0  0
  6  7  2  3  0  0  0
 10 11  1  0  0  0  0
  5  6  1  0  0  0  0
  9 10  2  0  0  0  0
  2  5  1  0  0  0  0
  2  3  2  0  0  0  0
  1  2  1  0  0  0  0
  2  4  2  0  0  0  0
  1 25  1  0  0  0  0
  1 26  1  0  0  0  0
  1 27  1  0  0  0  0
  5 28  1  0  0  0  0
  6 29  1  0  0  0  0
  7 30  1  0  0  0  0
  8 31  1  0  0  0  0
  9 32  1  0  0  0  0
 10 33  1  0  0  0  0
 11 34  1  0  0  0  0
 11 35  1  0  0  0  0
 12 36  1  0  0  0  0
 13 37  1  0  0  0  0
 13 38  1  0  0  0  0
 14 39  1  0  0  0  0
 14 40  1  0  0  0  0
 17 41  1  0  0  0  0
 19 42  1  0  0  0  0
 21 43  1  0  0  0  0
 22 44  1  0  0  0  0
 24 45  1  0  0  0  0
 24 46  1  0  0  0  0
 24 47  1  0  0  0  0
M  END
> <Chemgauss4>
-13.002991

$$$$
