stable:False satoms:19 tatoms:24 sratio:0.7916666666666666
  -OEChem-07092417313D

 24 23  0     1  0  0  0  0  0999 V2000
    7.2552   -3.2590   24.5791 C   0  0  0  0  0  0  0  0  0  0  0  0
    6.3519   -3.6873   24.5836 H   0  0  0  0  0  0  0  0  0  0  0  0
   10.8157   -2.3468   24.5888 C   0  0  0  0  0  0  0  0  0  0  0  0
   10.6003   -2.4823   25.6268 H   0  0  0  0  0  0  0  0  0  0  0  0
    9.3640   -2.1756   24.0014 C   0  0  3  0  0  0  0  0  0  0  0  0
    8.2406   -2.6991   24.2586 C   0  0  0  0  0  0  0  0  0  0  0  0
    7.2163    0.6226   22.5357 O   0  0  0  0  0  0  0  0  0  0  0  0
   11.2068   -3.0935   23.9291 H   0  0  0  0  0  0  0  0  0  0  0  0
   10.0210    0.6368   22.3526 C   0  0  0  0  0  0  0  0  0  0  0  0
    8.5464   -1.0252   21.9899 N   0  0  0  0  0  0  0  0  0  0  0  0
   12.1996   -1.2028   24.4893 Cl  0  0  0  0  0  0  0  0  0  0  0  0
   10.6419   -1.3131   21.6447 H   0  0  0  0  0  0  0  0  0  0  0  0
    9.7634   -0.7092   21.5381 C   0  0  0  0  0  0  0  0  0  0  0  0
    8.8386   -1.5174   22.9747 C   0  0  0  0  0  0  0  0  0  0  0  0
   10.1111    1.4047   21.6068 H   0  0  0  0  0  0  0  0  0  0  0  0
    9.1922    0.8919   22.9872 H   0  0  0  0  0  0  0  0  0  0  0  0
    7.4077   -0.2727   21.7854 C   0  0  0  0  0  0  0  0  0  0  0  0
   10.9007    0.4927   22.9297 H   0  0  0  0  0  0  0  0  0  0  0  0
    9.6065   -0.6542   20.4098 H   0  0  0  0  0  0  0  0  0  0  0  0
    6.9461   -0.5078   19.6375 H   0  0  0  0  0  0  0  0  0  0  0  0
    6.4461   -0.5426   20.6033 C   0  0  0  0  0  0  0  0  0  0  0  0
    5.7241   -1.7461   20.7372 O   0  0  0  0  0  0  0  0  0  0  0  0
    5.7089    0.2548   20.6216 H   0  0  0  0  0  0  0  0  0  0  0  0
    6.4790   -2.3588   20.8859 H   0  0  0  0  0  0  0  0  0  0  0  0
 20 21  1  0  0  0  0
 13 19  1  0  0  0  0
 21 23  1  0  0  0  0
 21 22  1  0  0  0  0
 17 21  1  0  0  0  0
 22 24  1  0  0  0  0
 12 13  1  0  0  0  0
 10 13  1  0  0  0  0
  9 13  1  0  0  0  0
  9 15  1  0  0  0  0
 10 17  1  0  0  0  0
  7 17  2  0  0  0  0
 10 14  1  0  0  0  0
  9 18  1  0  0  0  0
  9 16  1  0  0  0  0
  5 14  1  0  0  0  0
  3  8  1  0  0  0  0
  5  6  1  0  0  0  0
  3  5  1  0  0  0  0
  1  6  3  0  0  0  0
  3 11  1  0  0  0  0
  1  2  1  0  0  0  0
  3  4  1  0  0  0  0
M  END
> <Shapegauss>
-111.716560

$$$$
