REMARK  6 active torsions:
REMARK  status: ('A' for Active; 'I' for Inactive)
REMARK    1  A    between atoms: C_2  and  C_3 
REMARK    2  A    between atoms: C_3  and  C_10 
REMARK    3  A    between atoms: N_7  and  C_9 
REMARK       I    between atoms: N_7  and  C_11 
REMARK    4  A    between atoms: N_7  and  C_10 
REMARK    5  A    between atoms: C_11  and  C_12 
REMARK    6  A    between atoms: C_12  and  O_13 
ROOT
HETATM    1  C   UNL     1       7.255  -3.259  24.579  1.00  0.00     0.013 C 
HETATM    2  C   UNL     1       9.364  -2.176  24.001  1.00  0.00     0.166 C 
HETATM    3  C   UNL     1       8.241  -2.699  24.259  1.00  0.00    -0.098 C 
ENDROOT
BRANCH   2   4
HETATM    4  C   UNL     1      10.816  -2.347  24.589  1.00  0.00     0.145 C 
HETATM    5 CL   UNL     1      12.200  -1.203  24.489  1.00  0.00    -0.128 Cl
ENDBRANCH   2   4
BRANCH   2   6
HETATM    6  C   UNL     1       8.839  -1.517  22.975  1.00  0.00    -0.047 C 
BRANCH   6   7
HETATM    7  N   UNL     1       8.546  -1.025  21.990  1.00  0.00    -0.285 N 
HETATM    8  C   UNL     1       7.408  -0.273  21.785  1.00  0.00     0.254 C 
HETATM    9  O   UNL     1       7.216   0.623  22.536  1.00  0.00    -0.270 OA
BRANCH   7  10
HETATM   10  C   UNL     1       9.763  -0.709  21.538  1.00  0.00     0.137 C 
HETATM   11  C   UNL     1      10.021   0.637  22.353  1.00  0.00     0.028 C 
ENDBRANCH   7  10
BRANCH   8  12
HETATM   12  C   UNL     1       6.446  -0.543  20.603  1.00  0.00     0.267 C 
BRANCH  12  13
HETATM   13  O   UNL     1       5.724  -1.746  20.737  1.00  0.00    -0.392 OA
HETATM   14  H   UNL     1       6.479  -2.359  20.886  1.00  0.00     0.210 HD
ENDBRANCH  12  13
ENDBRANCH   8  12
ENDBRANCH   6   7
ENDBRANCH   2   6
TORSDOF 6
