MODEL 1
REMARK VINA RESULT:    -4.324      0.000      0.000
REMARK INTER + INTRA:          -6.172
REMARK INTER:                  -5.714
REMARK INTRA:                  -0.457
REMARK UNBOUND:                -0.457
REMARK  6 active torsions:
REMARK  status: ('A' for Active; 'I' for Inactive)
REMARK    1  A    between atoms: C_2  and  C_3 
REMARK    2  A    between atoms: C_3  and  C_10 
REMARK    3  A    between atoms: N_7  and  C_9 
REMARK       I    between atoms: N_7  and  C_11 
REMARK    4  A    between atoms: N_7  and  C_10 
REMARK    5  A    between atoms: C_11  and  C_12 
REMARK    6  A    between atoms: C_12  and  O_13 
ROOT
HETATM    1  C   UNL     1       7.055   3.522  22.204  1.00  0.00     0.013 C 
HETATM    2  C   UNL     1       8.782   1.818  21.940  1.00  0.00     0.166 C 
HETATM    3  C   UNL     1       7.848   2.666  22.040  1.00  0.00    -0.098 C 
ENDROOT
BRANCH   2   4
HETATM    4  C   UNL     1      10.279   1.771  22.428  1.00  0.00     0.145 C 
HETATM    5 CL   UNL     1      11.194   3.023  23.339  1.00  0.00    -0.128 Cl
ENDBRANCH   2   4
BRANCH   2   6
HETATM    6  C   UNL     1       7.957   0.955  21.360  1.00  0.00    -0.047 C 
BRANCH   6   7
HETATM    7  N   UNL     1       7.408   0.089  20.862  1.00  0.00    -0.285 N 
HETATM    8  C   UNL     1       6.997   0.060  19.546  1.00  0.00     0.254 C 
HETATM    9  O   UNL     1       7.818   0.293  18.724  1.00  0.00    -0.270 OA
BRANCH   7  10
HETATM   10  C   UNL     1       7.988  -0.929  21.505  1.00  0.00     0.137 C 
HETATM   11  C   UNL     1       6.850  -1.268  22.570  1.00  0.00     0.028 C 
ENDBRANCH   7  10
BRANCH   8  12
HETATM   12  C   UNL     1       5.549  -0.309  19.145  1.00  0.00     0.267 C 
BRANCH  12  13
HETATM   13  O   UNL     1       5.289  -0.130  17.771  1.00  0.00    -0.392 OA
HETATM   14  H   UNL     1       6.109  -0.536  17.409  1.00  0.00     0.210 HD
ENDBRANCH  12  13
ENDBRANCH   8  12
ENDBRANCH   6   7
ENDBRANCH   2   6
TORSDOF 6
ENDMDL
MODEL 2
REMARK VINA RESULT:    -4.051      4.799      6.577
REMARK INTER + INTRA:          -5.811
REMARK INTER:                  -5.394
REMARK INTRA:                  -0.416
REMARK UNBOUND:                -0.457
REMARK  6 active torsions:
REMARK  status: ('A' for Active; 'I' for Inactive)
REMARK    1  A    between atoms: C_2  and  C_3 
REMARK    2  A    between atoms: C_3  and  C_10 
REMARK    3  A    between atoms: N_7  and  C_9 
REMARK       I    between atoms: N_7  and  C_11 
REMARK    4  A    between atoms: N_7  and  C_10 
REMARK    5  A    between atoms: C_11  and  C_12 
REMARK    6  A    between atoms: C_12  and  O_13 
ROOT
HETATM    1  C   UNL     1       8.578  -3.486  25.900  1.00  0.00     0.013 C 
HETATM    2  C   UNL     1       8.439  -3.296  23.471  1.00  0.00     0.166 C 
HETATM    3  C   UNL     1       8.561  -3.354  24.729  1.00  0.00    -0.098 C 
ENDROOT
BRANCH   2   4
HETATM    4  C   UNL     1       7.520  -4.029  22.422  1.00  0.00     0.145 C 
HETATM    5 CL   UNL     1       7.258  -5.796  22.214  1.00  0.00    -0.128 Cl
ENDBRANCH   2   4
BRANCH   2   6
HETATM    6  C   UNL     1       9.314  -2.299  23.416  1.00  0.00    -0.047 C 
BRANCH   6   7
HETATM    7  N   UNL     1       9.908  -1.333  23.308  1.00  0.00    -0.285 N 
HETATM    8  C   UNL     1      11.272  -1.215  23.474  1.00  0.00     0.254 C 
HETATM    9  O   UNL     1      11.953  -1.954  22.849  1.00  0.00    -0.270 OA
BRANCH   7  10
HETATM   10  C   UNL     1       9.204  -0.759  22.327  1.00  0.00     0.137 C 
HETATM   11  C   UNL     1       8.426   0.357  23.160  1.00  0.00     0.028 C 
ENDBRANCH   7  10
BRANCH   8  12
HETATM   12  C   UNL     1      11.898  -0.137  24.392  1.00  0.00     0.267 C 
BRANCH  12  13
HETATM   13  O   UNL     1      13.307  -0.145  24.379  1.00  0.00    -0.392 OA
HETATM   14  H   UNL     1      13.466   0.745  24.765  1.00  0.00     0.210 HD
ENDBRANCH  12  13
ENDBRANCH   8  12
ENDBRANCH   6   7
ENDBRANCH   2   6
TORSDOF 6
ENDMDL
MODEL 3
REMARK VINA RESULT:    -3.921      3.187      4.131
REMARK INTER + INTRA:          -5.640
REMARK INTER:                  -5.193
REMARK INTRA:                  -0.447
REMARK UNBOUND:                -0.457
REMARK  6 active torsions:
REMARK  status: ('A' for Active; 'I' for Inactive)
REMARK    1  A    between atoms: C_2  and  C_3 
REMARK    2  A    between atoms: C_3  and  C_10 
REMARK    3  A    between atoms: N_7  and  C_9 
REMARK       I    between atoms: N_7  and  C_11 
REMARK    4  A    between atoms: N_7  and  C_10 
REMARK    5  A    between atoms: C_11  and  C_12 
REMARK    6  A    between atoms: C_12  and  O_13 
ROOT
HETATM    1  C   UNL     1       7.569   2.601  25.545  1.00  0.00     0.013 C 
HETATM    2  C   UNL     1       9.402   3.642  24.316  1.00  0.00     0.166 C 
HETATM    3  C   UNL     1       8.468   3.046  24.927  1.00  0.00    -0.098 C 
ENDROOT
BRANCH   2   4
HETATM    4  C   UNL     1       9.841   5.149  24.183  1.00  0.00     0.145 C 
HETATM    5 CL   UNL     1       9.144   6.422  23.121  1.00  0.00    -0.128 Cl
ENDBRANCH   2   4
BRANCH   2   6
HETATM    6  C   UNL     1       9.913   2.478  23.931  1.00  0.00    -0.047 C 
BRANCH   6   7
HETATM    7  N   UNL     1      10.346   1.560  23.415  1.00  0.00    -0.285 N 
HETATM    8  C   UNL     1      10.254   1.289  22.065  1.00  0.00     0.254 C 
HETATM    9  O   UNL     1      10.612   2.140  21.323  1.00  0.00    -0.270 OA
BRANCH   7  10
HETATM   10  C   UNL     1      11.448   1.398  24.153  1.00  0.00     0.137 C 
HETATM   11  C   UNL     1      10.935   0.290  25.179  1.00  0.00     0.028 C 
ENDBRANCH   7  10
BRANCH   8  12
HETATM   12  C   UNL     1       9.755  -0.076  21.533  1.00  0.00     0.267 C 
BRANCH  12  13
HETATM   13  O   UNL     1       9.022   0.029  20.333  1.00  0.00    -0.392 OA
HETATM   14  H   UNL     1       8.121   0.126  20.716  1.00  0.00     0.210 HD
ENDBRANCH  12  13
ENDBRANCH   8  12
ENDBRANCH   6   7
ENDBRANCH   2   6
TORSDOF 6
ENDMDL
MODEL 4
REMARK VINA RESULT:    -3.885      2.590      3.093
REMARK INTER + INTRA:          -5.592
REMARK INTER:                  -5.285
REMARK INTRA:                  -0.307
REMARK UNBOUND:                -0.457
REMARK  6 active torsions:
REMARK  status: ('A' for Active; 'I' for Inactive)
REMARK    1  A    between atoms: C_2  and  C_3 
REMARK    2  A    between atoms: C_3  and  C_10 
REMARK    3  A    between atoms: N_7  and  C_9 
REMARK       I    between atoms: N_7  and  C_11 
REMARK    4  A    between atoms: N_7  and  C_10 
REMARK    5  A    between atoms: C_11  and  C_12 
REMARK    6  A    between atoms: C_12  and  O_13 
ROOT
HETATM    1  C   UNL     1       9.781   2.688  24.125  1.00  0.00     0.013 C 
HETATM    2  C   UNL     1      11.142   0.713  23.677  1.00  0.00     0.166 C 
HETATM    3  C   UNL     1      10.395   1.716  23.865  1.00  0.00    -0.098 C 
ENDROOT
BRANCH   2   4
HETATM    4  C   UNL     1      12.554   0.277  24.224  1.00  0.00     0.145 C 
HETATM    5 CL   UNL     1      13.510  -1.186  23.800  1.00  0.00    -0.128 Cl
ENDBRANCH   2   4
BRANCH   2   6
HETATM    6  C   UNL     1      10.209   0.139  22.926  1.00  0.00    -0.047 C 
BRANCH   6   7
HETATM    7  N   UNL     1       9.294  -0.344  22.450  1.00  0.00    -0.285 N 
HETATM    8  C   UNL     1       8.386   0.303  21.638  1.00  0.00     0.254 C 
HETATM    9  O   UNL     1       8.823   0.893  20.709  1.00  0.00    -0.270 OA
BRANCH   7  10
HETATM   10  C   UNL     1       9.791  -1.563  22.221  1.00  0.00     0.137 C 
HETATM   11  C   UNL     1       9.238  -2.333  23.504  1.00  0.00     0.028 C 
ENDBRANCH   7  10
BRANCH   8  12
HETATM   12  C   UNL     1       6.860   0.227  21.888  1.00  0.00     0.267 C 
BRANCH  12  13
HETATM   13  O   UNL     1       6.164  -0.466  20.877  1.00  0.00    -0.392 OA
HETATM   14  H   UNL     1       6.511   0.021  20.095  1.00  0.00     0.210 HD
ENDBRANCH  12  13
ENDBRANCH   8  12
ENDBRANCH   6   7
ENDBRANCH   2   6
TORSDOF 6
ENDMDL
MODEL 5
REMARK VINA RESULT:    -3.883     24.343     25.044
REMARK INTER + INTRA:          -5.589
REMARK INTER:                  -5.125
REMARK INTRA:                  -0.464
REMARK UNBOUND:                -0.457
REMARK  6 active torsions:
REMARK  status: ('A' for Active; 'I' for Inactive)
REMARK    1  A    between atoms: C_2  and  C_3 
REMARK    2  A    between atoms: C_3  and  C_10 
REMARK    3  A    between atoms: N_7  and  C_9 
REMARK       I    between atoms: N_7  and  C_11 
REMARK    4  A    between atoms: N_7  and  C_10 
REMARK    5  A    between atoms: C_11  and  C_12 
REMARK    6  A    between atoms: C_12  and  O_13 
ROOT
HETATM    1  C   UNL     1       8.392  18.486   0.033  1.00  0.00     0.013 C 
HETATM    2  C   UNL     1       9.828  18.875   1.967  1.00  0.00     0.166 C 
HETATM    3  C   UNL     1       9.064  18.619   0.992  1.00  0.00    -0.098 C 
ENDROOT
BRANCH   2   4
HETATM    4  C   UNL     1      10.894  19.997   2.262  1.00  0.00     0.145 C 
HETATM    5 CL   UNL     1      11.104  21.579   1.433  1.00  0.00    -0.128 Cl
ENDBRANCH   2   4
BRANCH   2   6
HETATM    6  C   UNL     1       9.289  17.886   2.670  1.00  0.00    -0.047 C 
BRANCH   6   7
HETATM    7  N   UNL     1       8.965  16.921   3.182  1.00  0.00    -0.285 N 
HETATM    8  C   UNL     1       9.661  15.730   3.147  1.00  0.00     0.254 C 
HETATM    9  O   UNL     1      10.801  15.768   3.466  1.00  0.00    -0.270 OA
BRANCH   7  10
HETATM   10  C   UNL     1       8.389  17.438   4.271  1.00  0.00     0.137 C 
HETATM   11  C   UNL     1       6.859  17.399   3.821  1.00  0.00     0.028 C 
ENDBRANCH   7  10
BRANCH   8  12
HETATM   12  C   UNL     1       8.984  14.393   2.763  1.00  0.00     0.267 C 
BRANCH  12  13
HETATM   13  O   UNL     1       9.736  13.261   3.137  1.00  0.00    -0.392 OA
HETATM   14  H   UNL     1       9.251  13.023   3.959  1.00  0.00     0.210 HD
ENDBRANCH  12  13
ENDBRANCH   8  12
ENDBRANCH   6   7
ENDBRANCH   2   6
TORSDOF 6
ENDMDL
MODEL 6
REMARK VINA RESULT:    -3.804      2.087      3.208
REMARK INTER + INTRA:          -5.484
REMARK INTER:                  -4.946
REMARK INTRA:                  -0.539
REMARK UNBOUND:                -0.457
REMARK  6 active torsions:
REMARK  status: ('A' for Active; 'I' for Inactive)
REMARK    1  A    between atoms: C_2  and  C_3 
REMARK    2  A    between atoms: C_3  and  C_10 
REMARK    3  A    between atoms: N_7  and  C_9 
REMARK       I    between atoms: N_7  and  C_11 
REMARK    4  A    between atoms: N_7  and  C_10 
REMARK    5  A    between atoms: C_11  and  C_12 
REMARK    6  A    between atoms: C_12  and  O_13 
ROOT
HETATM    1  C   UNL     1       6.019   3.027  21.799  1.00  0.00     0.013 C 
HETATM    2  C   UNL     1       8.245   3.385  22.732  1.00  0.00     0.166 C 
HETATM    3  C   UNL     1       7.114   3.149  22.216  1.00  0.00    -0.098 C 
ENDROOT
BRANCH   2   4
HETATM    4  C   UNL     1       8.813   4.528  23.657  1.00  0.00     0.145 C 
HETATM    5 CL   UNL     1      10.532   4.921  24.014  1.00  0.00    -0.128 Cl
ENDBRANCH   2   4
BRANCH   2   6
HETATM    6  C   UNL     1       8.715   2.234  22.268  1.00  0.00    -0.047 C 
BRANCH   6   7
HETATM    7  N   UNL     1       9.244   1.254  22.028  1.00  0.00    -0.285 N 
HETATM    8  C   UNL     1       8.729   0.245  21.241  1.00  0.00     0.254 C 
HETATM    9  O   UNL     1       8.347   0.550  20.162  1.00  0.00    -0.270 OA
BRANCH   7  10
HETATM   10  C   UNL     1      10.503   1.697  21.976  1.00  0.00     0.137 C 
HETATM   11  C   UNL     1      11.049   1.147  23.369  1.00  0.00     0.028 C 
ENDBRANCH   7  10
BRANCH   8  12
HETATM   12  C   UNL     1       8.695  -1.229  21.712  1.00  0.00     0.267 C 
BRANCH  12  13
HETATM   13  O   UNL     1       9.957  -1.854  21.677  1.00  0.00    -0.392 OA
HETATM   14  H   UNL     1       9.946  -2.266  22.570  1.00  0.00     0.210 HD
ENDBRANCH  12  13
ENDBRANCH   8  12
ENDBRANCH   6   7
ENDBRANCH   2   6
TORSDOF 6
ENDMDL
MODEL 7
REMARK VINA RESULT:    -3.721     20.579     21.464
REMARK INTER + INTRA:          -5.375
REMARK INTER:                  -4.987
REMARK INTRA:                  -0.388
REMARK UNBOUND:                -0.457
REMARK  6 active torsions:
REMARK  status: ('A' for Active; 'I' for Inactive)
REMARK    1  A    between atoms: C_2  and  C_3 
REMARK    2  A    between atoms: C_3  and  C_10 
REMARK    3  A    between atoms: N_7  and  C_9 
REMARK       I    between atoms: N_7  and  C_11 
REMARK    4  A    between atoms: N_7  and  C_10 
REMARK    5  A    between atoms: C_11  and  C_12 
REMARK    6  A    between atoms: C_12  and  O_13 
ROOT
HETATM    1  C   UNL     1       4.935  14.424   5.128  1.00  0.00     0.013 C 
HETATM    2  C   UNL     1       5.643  12.177   4.493  1.00  0.00     0.166 C 
HETATM    3  C   UNL     1       5.331  13.365   4.797  1.00  0.00    -0.098 C 
ENDROOT
BRANCH   2   4
HETATM    4  C   UNL     1       4.990  10.768   4.757  1.00  0.00     0.145 C 
HETATM    5 CL   UNL     1       5.776   9.275   5.381  1.00  0.00    -0.128 Cl
ENDBRANCH   2   4
BRANCH   2   6
HETATM    6  C   UNL     1       6.673  12.615   3.778  1.00  0.00    -0.047 C 
BRANCH   6   7
HETATM    7  N   UNL     1       7.500  12.848   3.030  1.00  0.00    -0.285 N 
HETATM    8  C   UNL     1       8.762  13.300   3.357  1.00  0.00     0.254 C 
HETATM    9  O   UNL     1       9.368  12.665   4.154  1.00  0.00    -0.270 OA
BRANCH   7  10
HETATM   10  C   UNL     1       7.237  11.908   2.118  1.00  0.00     0.137 C 
HETATM   11  C   UNL     1       6.692  12.820   0.929  1.00  0.00     0.028 C 
ENDBRANCH   7  10
BRANCH   8  12
HETATM   12  C   UNL     1       9.390  14.544   2.684  1.00  0.00     0.267 C 
BRANCH  12  13
HETATM   13  O   UNL     1      10.799  14.540   2.713  1.00  0.00    -0.392 OA
HETATM   14  H   UNL     1      10.931  14.148   3.606  1.00  0.00     0.210 HD
ENDBRANCH  12  13
ENDBRANCH   8  12
ENDBRANCH   6   7
ENDBRANCH   2   6
TORSDOF 6
ENDMDL
MODEL 8
REMARK VINA RESULT:    -3.668     24.568     25.401
REMARK INTER + INTRA:          -5.304
REMARK INTER:                  -4.784
REMARK INTRA:                  -0.520
REMARK UNBOUND:                -0.457
REMARK  6 active torsions:
REMARK  status: ('A' for Active; 'I' for Inactive)
REMARK    1  A    between atoms: C_2  and  C_3 
REMARK    2  A    between atoms: C_3  and  C_10 
REMARK    3  A    between atoms: N_7  and  C_9 
REMARK       I    between atoms: N_7  and  C_11 
REMARK    4  A    between atoms: N_7  and  C_10 
REMARK    5  A    between atoms: C_11  and  C_12 
REMARK    6  A    between atoms: C_12  and  O_13 
ROOT
HETATM    1  C   UNL     1       7.818  18.329   0.310  1.00  0.00     0.013 C 
HETATM    2  C   UNL     1       8.860  16.730   1.830  1.00  0.00     0.166 C 
HETATM    3  C   UNL     1       8.331  17.605   1.085  1.00  0.00    -0.098 C 
ENDROOT
BRANCH   2   4
HETATM    4  C   UNL     1       9.020  15.165   1.744  1.00  0.00     0.145 C 
HETATM    5 CL   UNL     1       9.425  14.012   3.063  1.00  0.00    -0.128 Cl
ENDBRANCH   2   4
BRANCH   2   6
HETATM    6  C   UNL     1       9.313  17.676   2.645  1.00  0.00    -0.047 C 
BRANCH   6   7
HETATM    7  N   UNL     1       9.839  18.349   3.399  1.00  0.00    -0.285 N 
HETATM    8  C   UNL     1      10.069  19.699   3.234  1.00  0.00     0.254 C 
HETATM    9  O   UNL     1       9.132  20.373   2.964  1.00  0.00    -0.270 OA
BRANCH   7  10
HETATM   10  C   UNL     1       9.413  17.779   4.529  1.00  0.00     0.137 C 
HETATM   11  C   UNL     1      10.734  16.996   4.961  1.00  0.00     0.028 C 
ENDBRANCH   7  10
BRANCH   8  12
HETATM   12  C   UNL     1      11.469  20.325   3.439  1.00  0.00     0.267 C 
BRANCH  12  13
HETATM   13  O   UNL     1      12.516  19.522   2.943  1.00  0.00    -0.392 OA
HETATM   14  H   UNL     1      12.304  19.574   1.984  1.00  0.00     0.210 HD
ENDBRANCH  12  13
ENDBRANCH   8  12
ENDBRANCH   6   7
ENDBRANCH   2   6
TORSDOF 6
ENDMDL
MODEL 9
REMARK VINA RESULT:    -3.604      2.379      2.614
REMARK INTER + INTRA:          -5.220
REMARK INTER:                  -4.699
REMARK INTRA:                  -0.521
REMARK UNBOUND:                -0.457
REMARK  6 active torsions:
REMARK  status: ('A' for Active; 'I' for Inactive)
REMARK    1  A    between atoms: C_2  and  C_3 
REMARK    2  A    between atoms: C_3  and  C_10 
REMARK    3  A    between atoms: N_7  and  C_9 
REMARK       I    between atoms: N_7  and  C_11 
REMARK    4  A    between atoms: N_7  and  C_10 
REMARK    5  A    between atoms: C_11  and  C_12 
REMARK    6  A    between atoms: C_12  and  O_13 
ROOT
HETATM    1  C   UNL     1      10.492   1.849  22.094  1.00  0.00     0.013 C 
HETATM    2  C   UNL     1       9.480  -0.033  23.273  1.00  0.00     0.166 C 
HETATM    3  C   UNL     1       9.969   0.927  22.610  1.00  0.00    -0.098 C 
ENDROOT
BRANCH   2   4
HETATM    4  C   UNL     1       9.762  -0.640  24.699  1.00  0.00     0.145 C 
HETATM    5 CL   UNL     1       8.978  -2.056  25.482  1.00  0.00    -0.128 Cl
ENDBRANCH   2   4
BRANCH   2   6
HETATM    6  C   UNL     1       8.573  -0.244  22.326  1.00  0.00    -0.047 C 
BRANCH   6   7
HETATM    7  N   UNL     1       7.699  -0.534  21.656  1.00  0.00    -0.285 N 
HETATM    8  C   UNL     1       7.422   0.023  20.425  1.00  0.00     0.254 C 
HETATM    9  O   UNL     1       8.303   0.036  19.633  1.00  0.00    -0.270 OA
BRANCH   7  10
HETATM   10  C   UNL     1       7.638  -1.840  21.935  1.00  0.00     0.137 C 
HETATM   11  C   UNL     1       6.419  -1.848  22.962  1.00  0.00     0.028 C 
ENDBRANCH   7  10
BRANCH   8  12
HETATM   12  C   UNL     1       6.018   0.564  20.064  1.00  0.00     0.267 C 
BRANCH  12  13
HETATM   13  O   UNL     1       5.062  -0.454  19.870  1.00  0.00    -0.392 OA
HETATM   14  H   UNL     1       4.740  -0.191  18.978  1.00  0.00     0.210 HD
ENDBRANCH  12  13
ENDBRANCH   8  12
ENDBRANCH   6   7
ENDBRANCH   2   6
TORSDOF 6
ENDMDL
