stable:False satoms:9 tatoms:24 sratio:0.375
  -OEChem-07092417443D

 24 24  0     1  0  0  0  0  0999 V2000
    6.5386   -4.9091   26.4823 C   0  0  0  0  0  0  0  0  0  0  0  0
    8.2398   -4.3007   26.1138 S   0  0  0  0  0  0  0  0  0  0  0  0
    9.1020   -5.4645   26.0441 O   0  0  0  0  0  0  0  0  0  0  0  0
    8.6236   -3.4417   27.1745 O   0  0  0  0  0  0  0  0  0  0  0  0
    8.0827   -3.5457   24.7260 N   0  0  0  0  0  0  0  0  0  0  0  0
    8.9387   -2.8910   24.1425 C   0  0  0  0  0  0  0  0  0  0  0  0
    9.4143   -2.0260   23.5176 C   0  0  0  0  0  0  0  0  0  0  0  0
   10.3384   -1.2161   23.1690 C   0  0  1  0  0  0  0  0  0  0  0  0
   11.1061    0.0149   24.2863 C   0  0  0  0  0  0  0  0  0  0  0  0
   12.0539    0.2898   24.2566 C   0  0  0  0  0  0  0  0  0  0  0  0
   13.2129   -0.2112   23.4242 C   0  0  0  0  0  0  0  0  0  0  0  0
   12.7634   -1.2805   22.6700 C   0  0  0  0  0  0  0  0  0  0  0  0
   11.7626   -1.7187   22.5528 C   0  0  0  0  0  0  0  0  0  0  0  0
    9.7028   -0.5919   22.3514 C   0  0  0  0  0  0  0  0  0  0  0  0
    9.0433    0.0384   21.3829 C   0  0  0  0  0  0  0  0  0  0  0  0
    9.5289    1.0190   21.0399 O   0  0  0  0  0  0  0  0  0  0  0  0
    7.9117   -0.5747   21.0489 N   0  0  0  0  0  0  0  0  0  0  0  0
    7.1922   -0.0565   20.1504 C   0  0  0  0  0  0  0  0  0  0  0  0
    7.2601    0.0724   18.8314 C   0  0  0  0  0  0  0  0  0  0  0  0
    6.8156    0.3592   17.7439 N   0  0  0  0  0  0  0  0  0  0  0  0
    5.6403    0.8944   18.2425 C   0  0  0  0  0  0  0  0  0  0  0  0
    5.2852    0.9759   19.3580 C   0  0  0  0  0  0  0  0  0  0  0  0
    5.8142    0.5812   20.5051 C   0  0  0  0  0  0  0  0  0  0  0  0
    5.2126    0.6930   22.0828 Br  0  0  0  0  0  0  0  0  0  0  0  0
 20 21  2  0  0  0  0
 19 20  1  0  0  0  0
 21 22  1  0  0  0  0
 18 19  2  0  0  0  0
 22 23  2  0  0  0  0
 18 23  1  0  0  0  0
 17 18  1  0  0  0  0
 23 24  1  0  0  0  0
 15 16  2  0  0  0  0
 15 17  1  0  0  0  0
 14 15  1  0  0  0  0
  8 14  1  0  0  0  0
 12 13  2  0  0  0  0
  8 13  1  0  0  0  0
 11 12  1  0  0  0  0
  7  8  1  0  0  0  0
 10 11  1  0  0  0  0
  6  7  3  0  0  0  0
  5  6  1  0  0  0  0
  9 10  2  0  0  0  0
  2  5  1  0  0  0  0
  2  3  2  0  0  0  0
  1  2  1  0  0  0  0
  2  4  2  0  0  0  0
M  END
> <Shapegauss>
-285.841980

$$$$
