stable:False satoms:9 tatoms:24 sratio:0.375
  -OEChem-08062414583D

 42 42  0     1  0  0  0  0  0999 V2000
   -6.2399   -5.2710  -26.2885 C   0  0  0  0  0  0  0  0  0  0  0  0
   -7.9477   -4.6133  -26.0626 S   0  0  0  0  0  0  0  0  0  0  0  0
   -8.8386   -5.7557  -25.9998 O   0  0  0  0  0  0  0  0  0  0  0  0
   -8.2408   -3.7962  -27.1837 O   0  0  0  0  0  0  0  0  0  0  0  0
   -7.8661   -3.7990  -24.7021 N   0  0  0  0  0  0  0  0  0  0  0  0
   -8.7440   -3.1018  -24.2071 C   0  0  0  0  0  0  0  0  0  0  0  0
   -9.2405   -2.2001  -23.6545 C   0  0  0  0  0  0  0  0  0  0  0  0
  -10.1672   -1.3572  -23.4051 C   0  0  1  0  0  0  0  0  0  0  0  0
  -10.8311   -0.1637  -24.6249 C   0  0  0  0  0  0  0  0  0  0  0  0
  -11.7723    0.1307  -24.6712 C   0  0  0  0  0  0  0  0  0  0  0  0
  -12.9950   -0.3091  -23.8975 C   0  0  0  0  0  0  0  0  0  0  0  0
  -12.6208   -1.3515  -23.0682 C   0  0  0  0  0  0  0  0  0  0  0  0
  -11.6402   -1.8033  -22.8646 C   0  0  0  0  0  0  0  0  0  0  0  0
   -9.5734   -0.7089  -22.5749 C   0  0  0  0  0  0  0  0  0  0  0  0
   -8.9657   -0.0481  -21.5930 C   0  0  0  0  0  0  0  0  0  0  0  0
   -9.4507    0.9564  -21.3271 O   0  0  0  0  0  0  0  0  0  0  0  0
   -7.8728   -0.6673  -21.1568 N   0  0  0  0  0  0  0  0  0  0  0  0
   -7.2031   -0.1228  -20.2356 C   0  0  0  0  0  0  0  0  0  0  0  0
   -7.3555    0.0674  -18.9312 C   0  0  0  0  0  0  0  0  0  0  0  0
   -6.9779    0.3947  -17.8299 N   0  0  0  0  0  0  0  0  0  0  0  0
   -5.7603    0.8836  -18.2714 C   0  0  0  0  0  0  0  0  0  0  0  0
   -5.3302    0.9072  -19.3630 C   0  0  0  0  0  0  0  0  0  0  0  0
   -5.7906    0.4710  -20.5245 C   0  0  0  0  0  0  0  0  0  0  0  0
   -5.0832    0.4990  -22.0615 Br  0  0  0  0  0  0  0  0  0  0  0  0
   -6.1925   -5.8582  -27.2174 H   0  0  0  0  0  0  0  0  0  0  0  0
   -5.5294   -4.4333  -26.3477 H   0  0  0  0  0  0  0  0  0  0  0  0
   -5.9788   -5.9136  -25.4348 H   0  0  0  0  0  0  0  0  0  0  0  0
   -7.0834   -3.1869  -24.8146 H   0  0  0  0  0  0  0  0  0  0  0  0
  -10.3623   -0.7513  -24.3022 H   0  0  0  0  0  0  0  0  0  0  0  0
  -10.5395   -0.9318  -23.9239 H   0  0  0  0  0  0  0  0  0  0  0  0
  -10.0931    0.2823  -25.2751 H   0  0  0  0  0  0  0  0  0  0  0  0
  -11.9620    0.9021  -25.4029 H   0  0  0  0  0  0  0  0  0  0  0  0
  -13.7764   -0.6475  -24.5939 H   0  0  0  0  0  0  0  0  0  0  0  0
  -13.3778    0.5284  -23.2957 H   0  0  0  0  0  0  0  0  0  0  0  0
  -13.4382   -1.8011  -22.5241 H   0  0  0  0  0  0  0  0  0  0  0  0
  -11.6534   -2.6654  -22.2141 H   0  0  0  0  0  0  0  0  0  0  0  0
   -9.9466    0.2309  -23.0079 H   0  0  0  0  0  0  0  0  0  0  0  0
   -8.6065   -0.9650  -23.0326 H   0  0  0  0  0  0  0  0  0  0  0  0
   -7.5886   -1.5424  -21.5486 H   0  0  0  0  0  0  0  0  0  0  0  0
   -8.3771   -0.2372  -18.7581 H   0  0  0  0  0  0  0  0  0  0  0  0
   -5.1196    1.2995  -17.5079 H   0  0  0  0  0  0  0  0  0  0  0  0
   -4.3622    1.3810  -19.4341 H   0  0  0  0  0  0  0  0  0  0  0  0
 20 21  2  0  0  0  0
 19 20  1  0  0  0  0
 21 22  1  0  0  0  0
 18 19  2  0  0  0  0
 22 23  2  0  0  0  0
 18 23  1  0  0  0  0
 17 18  1  0  0  0  0
 23 24  1  0  0  0  0
 15 16  2  0  0  0  0
 15 17  1  0  0  0  0
 14 15  1  0  0  0  0
  8 14  1  0  0  0  0
 12 13  2  0  0  0  0
  8 13  1  0  0  0  0
 11 12  1  0  0  0  0
  7  8  1  0  0  0  0
 10 11  1  0  0  0  0
  6  7  3  0  0  0  0
  5  6  1  0  0  0  0
  9 10  2  0  0  0  0
  2  5  1  0  0  0  0
  2  3  2  0  0  0  0
  1  2  1  0  0  0  0
  2  4  2  0  0  0  0
  1 25  1  0  0  0  0
  1 26  1  0  0  0  0
  1 27  1  0  0  0  0
  5 28  1  0  0  0  0
  8 29  1  0  0  0  0
  9 30  1  0  0  0  0
  9 31  1  0  0  0  0
 10 32  1  0  0  0  0
 11 33  1  0  0  0  0
 11 34  1  0  0  0  0
 12 35  1  0  0  0  0
 13 36  1  0  0  0  0
 14 37  1  0  0  0  0
 14 38  1  0  0  0  0
 17 39  1  0  0  0  0
 19 40  1  0  0  0  0
 21 41  1  0  0  0  0
 22 42  1  0  0  0  0
M  END
> <Chemgauss4>
-13.289371

$$$$
