
 OpenBabel07202414113D

 78 83  0  0  1  0  0  0  0  0999 V2000
    6.1079    2.1162    0.4300 C   0  0  0  0  0  0  0  0  0  0  0  0
    4.9758    1.7899    1.0882 C   0  0  0  0  0  0  0  0  0  0  0  0
    3.6659    1.7473    0.3183 C   0  0  0  0  0  0  0  0  0  0  0  0
    2.6034    2.6712    0.7472 N   0  0  0  0  0  0  0  0  0  0  0  0
    1.3460    2.2817    1.2674 C   0  0  0  0  0  0  0  0  0  0  0  0
    0.4519    3.1261    1.4051 O   0  0  0  0  0  0  0  0  0  0  0  0
    1.0835    0.8092    1.7286 C   0  0  2  0  0  0  0  0  0  0  0  0
    0.4272   -0.1031    0.6961 C   0  0  0  0  0  0  0  0  0  0  0  0
   -0.9117    0.3911    0.3870 N   0  0  0  0  0  0  0  0  0  0  0  0
   -1.4908   -0.3447   -0.7555 C   0  0  0  0  0  0  0  0  0  0  0  0
   -0.6135   -0.1948   -2.0085 C   0  0  0  0  0  0  0  0  0  0  0  0
   -0.2550   -1.1619   -2.6750 O   0  0  0  0  0  0  0  0  0  0  0  0
   -0.2580    1.1054   -2.2990 N   0  0  0  0  0  0  0  0  0  0  0  0
    0.4859    1.4550   -3.4801 C   0  0  0  0  0  0  0  0  0  0  0  0
   -1.7865    0.2796    1.5787 C   0  0  0  0  0  0  0  0  0  0  0  0
   -1.1228    0.5940    2.9156 C   0  0  0  0  0  0  0  0  0  0  0  0
   -1.9004    0.6109    4.0846 C   0  0  0  0  0  0  0  0  0  0  0  0
   -1.3006    0.7076    5.3418 C   0  0  0  0  0  0  0  0  0  0  0  0
    0.0846    0.7771    5.4391 C   0  0  0  0  0  0  0  0  0  0  0  0
    0.8355    0.7835    6.9891 Cl  0  0  0  0  0  0  0  0  0  0  0  0
    0.8698    0.8208    4.2863 C   0  0  0  0  0  0  0  0  0  0  0  0
    0.2727    0.7471    3.0158 C   0  0  0  0  0  0  0  0  0  0  0  0
    2.8931    4.1043    0.7823 C   0  0  0  0  0  0  0  0  0  0  0  0
    3.1862    4.6259    2.0492 C   0  0  0  0  0  0  0  0  0  0  0  0
    3.3038    5.9359    2.3529 N   0  0  0  0  0  0  0  0  0  0  0  0
    3.1077    6.7994    1.3382 C   0  0  0  0  0  0  0  0  0  0  0  0
    2.8417    6.4354    0.0250 C   0  0  0  0  0  0  0  0  0  0  0  0
    2.6808    7.4583   -0.9433 C   0  0  0  0  0  0  0  0  0  0  0  0
    2.4383    7.1289   -2.2705 C   0  0  0  0  0  0  0  0  0  0  0  0
    2.3371    5.8023   -2.6340 C   0  0  0  0  0  0  0  0  0  0  0  0
    2.4874    4.7719   -1.6700 C   0  0  0  0  0  0  0  0  0  0  0  0
    2.7432    5.0539   -0.2976 C   0  0  0  0  0  0  0  0  0  0  0  0
    5.2559    1.2723    2.4893 C   0  0  0  0  0  0  0  0  0  0  0  0
    6.3734    1.3837    2.9891 O   0  0  0  0  0  0  0  0  0  0  0  0
    4.2454    0.5589    3.0816 N   0  0  0  0  0  0  0  0  0  0  0  0
    4.4360   -0.3281    4.1591 C   0  0  0  0  0  0  0  0  0  0  0  0
    5.1373    0.0655    5.2912 C   0  0  0  0  0  0  0  0  0  0  0  0
    5.3352   -0.8325    6.3380 C   0  0  0  0  0  0  0  0  0  0  0  0
    4.8714   -2.1517    6.2416 C   0  0  0  0  0  0  0  0  0  0  0  0
    5.1767   -3.0910    7.2663 N   0  0  0  0  0  0  0  0  0  0  0  0
    5.8502   -2.8535    8.4476 C   0  0  0  0  0  0  0  0  0  0  0  0
    6.0088   -4.0607    9.0804 C   0  0  0  0  0  0  0  0  0  0  0  0
    5.3791   -4.9810    8.2321 C   0  0  0  0  0  0  0  0  0  0  0  0
    4.8511   -4.4065    7.1494 N   0  0  0  0  0  0  0  0  0  0  0  0
    4.1343   -2.5416    5.1143 C   0  0  0  0  0  0  0  0  0  0  0  0
    3.8848   -1.6163    4.0913 C   0  0  0  0  0  0  0  0  0  0  0  0
    6.1123    2.3886   -0.6191 H   0  0  0  0  0  0  0  0  0  0  0  0
    7.0862    2.0761    0.9075 H   0  0  0  0  0  0  0  0  0  0  0  0
    3.2893    0.7213    0.2952 H   0  0  0  0  0  0  0  0  0  0  0  0
    3.8512    1.9883   -0.7385 H   0  0  0  0  0  0  0  0  0  0  0  0
    1.9993    0.2905    1.9142 H   0  0  0  0  0  0  0  0  0  0  0  0
    0.3732   -1.1342    1.0860 H   0  0  0  0  0  0  0  0  0  0  0  0
    1.0781   -0.1494   -0.1826 H   0  0  0  0  0  0  0  0  0  0  0  0
   -2.4776    0.0616   -1.0007 H   0  0  0  0  0  0  0  0  0  0  0  0
   -1.5957   -1.4138   -0.5335 H   0  0  0  0  0  0  0  0  0  0  0  0
   -0.5747    1.8299   -1.6586 H   0  0  0  0  0  0  0  0  0  0  0  0
    1.0316    0.5953   -3.8775 H   0  0  0  0  0  0  0  0  0  0  0  0
    1.1903    2.2484   -3.2276 H   0  0  0  0  0  0  0  0  0  0  0  0
   -0.2176    1.8208   -4.2315 H   0  0  0  0  0  0  0  0  0  0  0  0
   -2.1608   -0.7497    1.6684 H   0  0  0  0  0  0  0  0  0  0  0  0
   -2.6429    0.9492    1.4449 H   0  0  0  0  0  0  0  0  0  0  0  0
   -2.9830    0.5236    4.0233 H   0  0  0  0  0  0  0  0  0  0  0  0
   -1.9148    0.7059    6.2393 H   0  0  0  0  0  0  0  0  0  0  0  0
    1.9450    0.8934    4.4036 H   0  0  0  0  0  0  0  0  0  0  0  0
    3.3332    3.9631    2.8969 H   0  0  0  0  0  0  0  0  0  0  0  0
    3.1255    7.8462    1.6419 H   0  0  0  0  0  0  0  0  0  0  0  0
    2.7494    8.5060   -0.6618 H   0  0  0  0  0  0  0  0  0  0  0  0
    2.3136    7.9356   -3.0049 H   0  0  0  0  0  0  0  0  0  0  0  0
    2.1473    5.5594   -3.6781 H   0  0  0  0  0  0  0  0  0  0  0  0
    2.4119    3.7514   -2.0125 H   0  0  0  0  0  0  0  0  0  0  0  0
    3.4842    0.3348    2.4978 H   0  0  0  0  0  0  0  0  0  0  0  0
    5.5200    1.0789    5.3791 H   0  0  0  0  0  0  0  0  0  0  0  0
    5.8784   -0.4685    7.2023 H   0  0  0  0  0  0  0  0  0  0  0  0
    6.1708   -1.8666    8.7398 H   0  0  0  0  0  0  0  0  0  0  0  0
    6.5125   -4.2404   10.0196 H   0  0  0  0  0  0  0  0  0  0  0  0
    5.2838   -6.0508    8.3624 H   0  0  0  0  0  0  0  0  0  0  0  0
    3.7593   -3.5603    5.0149 H   0  0  0  0  0  0  0  0  0  0  0  0
    3.3168   -1.9465    3.2246 H   0  0  0  0  0  0  0  0  0  0  0  0
  1  2  2  0  0  0  0
  1 47  1  0  0  0  0
  1 48  1  0  0  0  0
  2  3  1  0  0  0  0
  2 33  1  0  0  0  0
  3  4  1  0  0  0  0
  3 49  1  0  0  0  0
  3 50  1  0  0  0  0
  4  5  1  0  0  0  0
  4 23  1  0  0  0  0
  5  6  2  0  0  0  0
  5  7  1  0  0  0  0
  7  8  1  0  0  0  0
  7 22  1  0  0  0  0
  7 51  1  1  0  0  0
  8  9  1  0  0  0  0
  8 52  1  0  0  0  0
  8 53  1  0  0  0  0
  9 10  1  0  0  0  0
  9 15  1  0  0  0  0
 10 11  1  0  0  0  0
 10 54  1  0  0  0  0
 10 55  1  0  0  0  0
 11 12  2  0  0  0  0
 11 13  1  0  0  0  0
 13 14  1  0  0  0  0
 13 56  1  0  0  0  0
 14 57  1  0  0  0  0
 14 58  1  0  0  0  0
 14 59  1  0  0  0  0
 15 16  1  0  0  0  0
 15 60  1  0  0  0  0
 15 61  1  0  0  0  0
 16 17  1  0  0  0  0
 16 22  2  0  0  0  0
 17 18  2  0  0  0  0
 17 62  1  0  0  0  0
 18 19  1  0  0  0  0
 18 63  1  0  0  0  0
 19 20  1  0  0  0  0
 19 21  2  0  0  0  0
 21 22  1  0  0  0  0
 21 64  1  0  0  0  0
 23 24  1  0  0  0  0
 23 32  2  0  0  0  0
 24 25  2  0  0  0  0
 24 65  1  0  0  0  0
 25 26  1  0  0  0  0
 26 27  2  0  0  0  0
 26 66  1  0  0  0  0
 27 28  1  0  0  0  0
 27 32  1  0  0  0  0
 28 29  2  0  0  0  0
 28 67  1  0  0  0  0
 29 30  1  0  0  0  0
 29 68  1  0  0  0  0
 30 31  2  0  0  0  0
 30 69  1  0  0  0  0
 31 32  1  0  0  0  0
 31 70  1  0  0  0  0
 33 34  2  0  0  0  0
 33 35  1  0  0  0  0
 35 36  1  0  0  0  0
 35 71  1  0  0  0  0
 36 37  1  0  0  0  0
 36 46  2  0  0  0  0
 37 38  2  0  0  0  0
 37 72  1  0  0  0  0
 38 39  1  0  0  0  0
 38 73  1  0  0  0  0
 39 40  1  0  0  0  0
 39 45  2  0  0  0  0
 40 41  1  0  0  0  0
 40 44  1  0  0  0  0
 41 42  2  0  0  0  0
 41 74  1  0  0  0  0
 42 43  1  0  0  0  0
 42 75  1  0  0  0  0
 43 44  2  0  0  0  0
 43 76  1  0  0  0  0
 45 46  1  0  0  0  0
 45 77  1  0  0  0  0
 46 78  1  0  0  0  0
M  END
$$$$
