stable:False satoms:14 tatoms:24 sratio:0.5833333333333334
  -OEChem-07092417443D

 24 23  0     1  0  0  0  0  0999 V2000
    6.4760   -4.9263   26.5764 C   0  0  0  0  0  0  0  0  0  0  0  0
    8.1946   -4.3490   26.2095 S   0  0  0  0  0  0  0  0  0  0  0  0
    8.9832   -5.5304   26.0368 O   0  0  0  0  0  0  0  0  0  0  0  0
    8.6531   -3.4932   27.2609 O   0  0  0  0  0  0  0  0  0  0  0  0
    7.9604   -3.5063   24.8439 N   0  0  0  0  0  0  0  0  0  0  0  0
    8.8263   -2.8858   24.2885 C   0  0  0  0  0  0  0  0  0  0  0  0
    9.4032   -2.1633   23.6569 C   0  0  0  0  0  0  0  0  0  0  0  0
   10.2857   -1.4300   22.9828 C   0  0  0  0  0  0  0  0  0  0  0  0
   11.4932    0.0601   24.4463 H   0  0  0  0  0  0  0  0  0  0  0  0
   12.3873   -0.0648   23.9689 C   0  5  0  0  0  0  0  0  0  0  0  0
   13.2520    0.4094   24.1246 H   0  0  0  0  0  0  0  0  0  0  0  0
   12.6577   -1.1369   22.8544 C   0  0  0  0  0  0  0  0  0  0  0  0
   11.5795   -1.8001   22.7709 C   0  0  0  0  0  0  0  0  0  0  0  0
    9.8122   -0.4605   22.3136 C   0  0  0  0  0  0  0  0  0  0  0  0
    9.1009    0.1209   21.3338 C   0  0  0  0  0  0  0  0  0  0  0  0
    9.5297    1.0991   20.8111 O   0  0  0  0  0  0  0  0  0  0  0  0
    7.9383   -0.5794   20.9888 N   0  0  0  0  0  0  0  0  0  0  0  0
    7.1097   -0.0506   20.1155 C   0  0  3  0  0  0  0  0  0  0  0  0
    7.1236    0.0198   18.6713 C   0  0  0  0  0  0  0  0  0  0  0  0
    7.1296    0.0612   17.5067 N   0  0  0  0  0  0  0  0  0  0  0  0
    5.0284    1.1648   18.3360 H   0  0  0  0  0  0  0  0  0  0  0  0
    5.3338    0.9031   19.3161 C   0  5  0  0  0  0  0  0  0  0  0  0
    5.8483    0.5601   20.4251 C   0  0  0  0  0  0  0  0  0  0  0  0
    5.4772    0.6881   21.4580 H   0  0  0  0  0  0  0  0  0  0  0  0
 19 20  3  0  0  0  0
 21 22  1  0  0  0  0
 18 19  1  0  0  0  0
 22 23  2  0  0  0  0
 18 23  1  0  0  0  0
 17 18  1  0  0  0  0
 23 24  1  0  0  0  0
 15 16  2  0  0  0  0
 15 17  1  0  0  0  0
 14 15  1  0  0  0  0
  8 14  2  3  0  0  0
 12 13  1  0  0  0  0
  8 13  1  0  0  0  0
 10 12  1  0  0  0  0
  7  8  1  0  0  0  0
  6  7  3  0  0  0  0
 10 11  1  0  0  0  0
  9 10  1  0  0  0  0
  5  6  1  0  0  0  0
  2  5  1  0  0  0  0
  2  3  2  0  0  0  0
  1  2  1  0  0  0  0
  2  4  2  0  0  0  0
M  CHG  2  10  -1  22  -1
M  END
> <Shapegauss>
-236.036133

$$$$
