stable:False satoms:14 tatoms:24 sratio:0.5833333333333334
  -OEChem-08062409503D

 37 36  0     1  0  0  0  0  0999 V2000
   -6.3219   -4.9818  -26.5601 C   0  0  0  0  0  0  0  0  0  0  0  0
   -8.0508   -4.3907  -26.2716 S   0  0  0  0  0  0  0  0  0  0  0  0
   -8.8576   -5.5657  -26.1457 O   0  0  0  0  0  0  0  0  0  0  0  0
   -8.4505   -3.5231  -27.3372 O   0  0  0  0  0  0  0  0  0  0  0  0
   -7.8746   -3.5600  -24.8900 N   0  0  0  0  0  0  0  0  0  0  0  0
   -8.7604   -2.9352  -24.3720 C   0  0  0  0  0  0  0  0  0  0  0  0
   -9.3602   -2.2117  -23.7633 C   0  0  0  0  0  0  0  0  0  0  0  0
  -10.2672   -1.4748  -23.1267 C   0  0  0  0  0  0  0  0  0  0  0  0
  -11.4698    0.5424  -23.8568 H   0  0  0  0  0  0  0  0  0  0  0  0
  -12.3065   -0.0827  -24.2020 C   0  0  0  0  0  0  0  0  0  0  0  0
  -13.1896    0.5499  -24.3753 H   0  0  0  0  0  0  0  0  0  0  0  0
  -12.6399   -1.1600  -23.1098 C   0  0  0  0  0  0  0  0  0  0  0  0
  -11.5731   -1.8341  -22.9798 C   0  0  0  0  0  0  0  0  0  0  0  0
   -9.8175   -0.5147  -22.4284 C   0  0  0  0  0  0  0  0  0  0  0  0
   -9.1486    0.0530  -21.4113 C   0  0  0  0  0  0  0  0  0  0  0  0
   -9.5930    1.0315  -20.9023 O   0  0  0  0  0  0  0  0  0  0  0  0
   -8.0104   -0.6608  -21.0163 N   0  0  0  0  0  0  0  0  0  0  0  0
   -7.2198   -0.1462  -20.1004 C   0  0  3  0  0  0  0  0  0  0  0  0
   -7.3023   -0.0859  -18.6580 C   0  0  0  0  0  0  0  0  0  0  0  0
   -7.3637   -0.0527  -17.4948 N   0  0  0  0  0  0  0  0  0  0  0  0
   -4.5179    1.2795  -19.1409 H   0  0  0  0  0  0  0  0  0  0  0  0
   -5.4756    0.7849  -19.2097 C   0  0  0  0  0  0  0  0  0  0  0  0
   -5.9394    0.4547  -20.3446 C   0  0  0  0  0  0  0  0  0  0  0  0
   -5.5181    0.5864  -21.3576 H   0  0  0  0  0  0  0  0  0  0  0  0
   -6.2863   -5.5748  -27.4859 H   0  0  0  0  0  0  0  0  0  0  0  0
   -5.6494   -4.1163  -26.6531 H   0  0  0  0  0  0  0  0  0  0  0  0
   -6.0016   -5.6056  -25.7127 H   0  0  0  0  0  0  0  0  0  0  0  0
   -7.1398   -2.9029  -25.0586 H   0  0  0  0  0  0  0  0  0  0  0  0
  -12.0262   -0.5855  -25.1393 H   0  0  0  0  0  0  0  0  0  0  0  0
  -13.4669   -1.8048  -23.4420 H   0  0  0  0  0  0  0  0  0  0  0  0
  -12.9106   -0.6768  -22.1595 H   0  0  0  0  0  0  0  0  0  0  0  0
  -11.6270   -2.2173  -21.9501 H   0  0  0  0  0  0  0  0  0  0  0  0
  -11.6989   -2.6664  -23.6879 H   0  0  0  0  0  0  0  0  0  0  0  0
  -10.1886    0.3470  -22.9634 H   0  0  0  0  0  0  0  0  0  0  0  0
   -7.8019   -1.5493  -21.4251 H   0  0  0  0  0  0  0  0  0  0  0  0
   -7.7173    0.8309  -20.1892 H   0  0  0  0  0  0  0  0  0  0  0  0
   -6.0386    0.5712  -18.3133 H   0  0  0  0  0  0  0  0  0  0  0  0
 19 20  3  0  0  0  0
 21 22  1  0  0  0  0
 18 19  1  0  0  0  0
 22 23  2  0  0  0  0
 18 23  1  0  0  0  0
 17 18  1  0  0  0  0
 23 24  1  0  0  0  0
 15 16  2  0  0  0  0
 15 17  1  0  0  0  0
 14 15  1  0  0  0  0
  8 14  2  3  0  0  0
 12 13  1  0  0  0  0
  8 13  1  0  0  0  0
 10 12  1  0  0  0  0
  7  8  1  0  0  0  0
  6  7  3  0  0  0  0
 10 11  1  0  0  0  0
  9 10  1  0  0  0  0
  5  6  1  0  0  0  0
  2  5  1  0  0  0  0
  2  3  2  0  0  0  0
  1  2  1  0  0  0  0
  2  4  2  0  0  0  0
  1 25  1  0  0  0  0
  1 26  1  0  0  0  0
  1 27  1  0  0  0  0
  5 28  1  0  0  0  0
 10 29  1  0  0  0  0
 12 30  1  0  0  0  0
 12 31  1  0  0  0  0
 13 32  1  0  0  0  0
 13 33  1  0  0  0  0
 14 34  1  0  0  0  0
 17 35  1  0  0  0  0
 18 36  1  0  0  0  0
 22 37  1  0  0  0  0
M  END
> <Chemgauss4>
-8.960828

$$$$
