stable:False satoms:14 tatoms:24 sratio:0.5833333333333334
  -OEChem-08062409513D

 37 36  0     1  0  0  0  0  0999 V2000
    6.4053   -4.9818   26.7938 C   0  0  0  0  0  0  0  0  0  0  0  0
    8.1341   -4.3907   26.5052 S   0  0  0  0  0  0  0  0  0  0  0  0
    8.9409   -5.5657   26.3794 O   0  0  0  0  0  0  0  0  0  0  0  0
    8.5338   -3.5231   27.5709 O   0  0  0  0  0  0  0  0  0  0  0  0
    7.9579   -3.5600   25.1237 N   0  0  0  0  0  0  0  0  0  0  0  0
    8.8437   -2.9352   24.6057 C   0  0  0  0  0  0  0  0  0  0  0  0
    9.4435   -2.2117   23.9970 C   0  0  0  0  0  0  0  0  0  0  0  0
   10.3506   -1.4748   23.3604 C   0  0  0  0  0  0  0  0  0  0  0  0
   11.5532    0.5424   24.0905 H   0  0  0  0  0  0  0  0  0  0  0  0
   12.3899   -0.0827   24.4357 C   0  0  0  0  0  0  0  0  0  0  0  0
   13.2729    0.5499   24.6090 H   0  0  0  0  0  0  0  0  0  0  0  0
   12.7232   -1.1600   23.3435 C   0  0  0  0  0  0  0  0  0  0  0  0
   11.6564   -1.8341   23.2135 C   0  0  0  0  0  0  0  0  0  0  0  0
    9.9008   -0.5147   22.6620 C   0  0  0  0  0  0  0  0  0  0  0  0
    9.2320    0.0530   21.6449 C   0  0  0  0  0  0  0  0  0  0  0  0
    9.6763    1.0315   21.1360 O   0  0  0  0  0  0  0  0  0  0  0  0
    8.0937   -0.6608   21.2500 N   0  0  0  0  0  0  0  0  0  0  0  0
    7.3031   -0.1462   20.3340 C   0  0  3  0  0  0  0  0  0  0  0  0
    7.3856   -0.0859   18.8917 C   0  0  0  0  0  0  0  0  0  0  0  0
    7.4470   -0.0527   17.7284 N   0  0  0  0  0  0  0  0  0  0  0  0
    4.6013    1.2795   19.3746 H   0  0  0  0  0  0  0  0  0  0  0  0
    5.5589    0.7849   19.4434 C   0  0  0  0  0  0  0  0  0  0  0  0
    6.0228    0.4547   20.5783 C   0  0  0  0  0  0  0  0  0  0  0  0
    5.6014    0.5864   21.5913 H   0  0  0  0  0  0  0  0  0  0  0  0
    6.3697   -5.5748   27.7195 H   0  0  0  0  0  0  0  0  0  0  0  0
    5.7327   -4.1163   26.8868 H   0  0  0  0  0  0  0  0  0  0  0  0
    6.0849   -5.6056   25.9463 H   0  0  0  0  0  0  0  0  0  0  0  0
    7.2231   -2.9029   25.2923 H   0  0  0  0  0  0  0  0  0  0  0  0
   12.1095   -0.5855   25.3730 H   0  0  0  0  0  0  0  0  0  0  0  0
   13.5503   -1.8048   23.6756 H   0  0  0  0  0  0  0  0  0  0  0  0
   12.9939   -0.6768   22.3931 H   0  0  0  0  0  0  0  0  0  0  0  0
   11.7103   -2.2173   22.1838 H   0  0  0  0  0  0  0  0  0  0  0  0
   11.7823   -2.6664   23.9215 H   0  0  0  0  0  0  0  0  0  0  0  0
   10.2719    0.3470   23.1971 H   0  0  0  0  0  0  0  0  0  0  0  0
    7.8852   -1.5493   21.6587 H   0  0  0  0  0  0  0  0  0  0  0  0
    7.8006    0.8309   20.4229 H   0  0  0  0  0  0  0  0  0  0  0  0
    6.1220    0.5712   18.5469 H   0  0  0  0  0  0  0  0  0  0  0  0
 19 20  3  0  0  0  0
 21 22  1  0  0  0  0
 18 19  1  0  0  0  0
 22 23  2  0  0  0  0
 18 23  1  0  0  0  0
 17 18  1  0  0  0  0
 23 24  1  0  0  0  0
 15 16  2  0  0  0  0
 15 17  1  0  0  0  0
 14 15  1  0  0  0  0
  8 14  2  3  0  0  0
 12 13  1  0  0  0  0
  8 13  1  0  0  0  0
 10 12  1  0  0  0  0
  7  8  1  0  0  0  0
  6  7  3  0  0  0  0
 10 11  1  0  0  0  0
  9 10  1  0  0  0  0
  5  6  1  0  0  0  0
  2  5  1  0  0  0  0
  2  3  2  0  0  0  0
  1  2  1  0  0  0  0
  2  4  2  0  0  0  0
  1 25  1  0  0  0  0
  1 26  1  0  0  0  0
  1 27  1  0  0  0  0
  5 28  1  0  0  0  0
 10 29  1  0  0  0  0
 12 30  1  0  0  0  0
 12 31  1  0  0  0  0
 13 32  1  0  0  0  0
 13 33  1  0  0  0  0
 14 34  1  0  0  0  0
 17 35  1  0  0  0  0
 18 36  1  0  0  0  0
 22 37  1  0  0  0  0
M  END
> <Chemgauss4>
-8.951410

$$$$
