stable:False satoms:14 tatoms:24 sratio:0.5833333333333334
  -OEChem-07092417283D

 24 25  0     0  0  0  0  0  0999 V2000
    8.5602   -1.6864   23.9406 H   0  0  0  0  0  0  0  0  0  0  0  0
    8.1454   -0.6289   24.1149 N   0  0  0  0  0  0  0  0  0  0  0  0
    8.3972    1.6702   23.8835 C   0  0  0  0  0  0  0  0  0  0  0  0
    6.9909   -1.3612   25.6516 H   0  0  0  0  0  0  0  0  0  0  0  0
    7.6578    2.6292   25.6347 H   0  0  0  0  0  0  0  0  0  0  0  0
    9.2357    0.3896   22.1817 N   0  0  0  0  0  0  0  0  0  0  0  0
   10.2653   -2.8429   18.2960 H   0  0  0  0  0  0  0  0  0  0  0  0
    9.3464   -4.0422   19.7891 C   0  0  0  0  0  0  0  0  0  0  0  0
    9.3345   -1.7262   21.3038 C   0  0  0  0  0  0  0  0  0  0  0  0
    8.7830   -2.9547   21.8626 C   0  0  0  0  0  0  0  0  0  0  0  0
    8.1069    1.6846   25.3210 C   0  0  0  0  0  0  0  0  0  0  0  0
    8.2201   -3.2429   23.4809 S   0  0  0  0  0  0  0  0  0  0  0  0
    9.6412   -1.6745   19.9503 C   0  0  0  0  0  0  0  0  0  0  0  0
    8.6082    0.4736   23.3370 C   0  0  0  0  0  0  0  0  0  0  0  0
    9.0554    1.5349   25.8619 H   0  0  0  0  0  0  0  0  0  0  0  0
    9.7834   -2.8529   19.2456 C   0  0  0  0  0  0  0  0  0  0  0  0
    8.4944    2.5533   23.3009 H   0  0  0  0  0  0  0  0  0  0  0  0
    9.8390   -0.7059   19.5260 H   0  0  0  0  0  0  0  0  0  0  0  0
    8.8149   -4.0725   21.0647 C   0  0  0  0  0  0  0  0  0  0  0  0
    7.1670    0.6765   25.7113 O   0  0  0  0  0  0  0  0  0  0  0  0
    7.4172   -0.4927   25.1972 C   0  3  0  0  0  0  0  0  0  0  0  0
    9.4258   -4.9473   19.2348 H   0  0  0  0  0  0  0  0  0  0  0  0
    9.8342   -0.6752   21.9154 N   0  0  0  0  0  0  0  0  0  0  0  0
    8.4600   -4.9957   21.4911 H   0  0  0  0  0  0  0  0  0  0  0  0
  7 16  1  0  0  0  0
  8 22  1  0  0  0  0
  8 16  2  0  0  0  0
 13 16  1  0  0  0  0
 13 18  1  0  0  0  0
  8 19  1  0  0  0  0
  9 13  2  0  0  0  0
 19 24  1  0  0  0  0
 10 19  2  0  0  0  0
  9 10  1  0  0  0  0
  9 23  1  0  0  0  0
 10 12  1  0  0  0  0
  6 23  2  3  0  0  0
  6 14  1  0  0  0  0
  3 17  1  0  0  0  0
  3 14  2  0  0  0  0
  2 14  1  0  0  0  0
  3 11  1  0  0  0  0
  1  2  1  0  0  0  0
  2 21  1  0  0  0  0
  4 21  1  0  0  0  0
 20 21  1  0  0  0  0
  5 11  1  0  0  0  0
 11 20  1  0  0  0  0
 11 15  1  0  0  0  0
M  CHG  1  21   1
M  END
> <Shapegauss>
-86.341476

$$$$
