stable:False satoms:14 tatoms:24 sratio:0.5833333333333334
  -OEChem-08052414173D

 24 25  0     0  0  0  0  0  0999 V2000
    8.4296   -2.5358   25.4694 H   0  0  0  0  0  0  0  0  0  0  0  0
    7.6890   -2.8045   24.8536 N   0  3  0  0  0  0  0  0  0  0  0  0
    7.6290   -4.8216   23.7002 C   0  0  0  0  0  0  0  0  0  0  0  0
    5.8776   -5.8924   24.2652 H   0  0  0  0  0  0  0  0  0  0  0  0
    9.3564   -3.4141   23.1769 N   0  0  0  0  0  0  0  0  0  0  0  0
   13.4374   -0.2709   22.9065 H   0  0  0  0  0  0  0  0  0  0  0  0
   12.2050    0.5470   24.4310 C   0  0  0  0  0  0  0  0  0  0  0  0
   10.4502   -1.4893   23.7736 C   0  0  0  0  0  0  0  0  0  0  0  0
   10.1008   -0.5525   24.8347 C   0  0  0  0  0  0  0  0  0  0  0  0
    6.2421   -4.8671   24.1749 C   0  0  0  0  0  0  0  0  0  0  0  0
    8.6010   -0.4192   25.7016 S   0  5  0  0  0  0  0  0  0  0  0  0
   11.7448   -1.4930   23.2710 C   0  0  0  0  0  0  0  0  0  0  0  0
    8.2790   -3.6741   23.8890 C   0  0  0  0  0  0  0  0  0  0  0  0
    5.6159   -4.3204   23.4512 H   0  0  0  0  0  0  0  0  0  0  0  0
   12.5569   -0.3987   23.4916 C   0  0  0  0  0  0  0  0  0  0  0  0
    8.0931   -5.6249   23.1825 H   0  0  0  0  0  0  0  0  0  0  0  0
   12.0315   -2.3252   22.6525 H   0  0  0  0  0  0  0  0  0  0  0  0
   11.0107    0.4369   25.1181 C   0  0  0  0  0  0  0  0  0  0  0  0
    6.0788   -4.2966   25.4787 O   0  0  0  0  0  0  0  0  0  0  0  0
    6.6893   -3.1567   25.6262 C   0  0  0  0  0  2  0  0  0  0  0  0
   12.8450    1.3748   24.6256 H   0  0  0  0  0  0  0  0  0  0  0  0
    9.6705   -2.2164   23.0043 N   0  0  0  0  0  0  0  0  0  0  0  0
   10.7349    1.1650   25.8623 H   0  0  0  0  0  0  0  0  0  0  0  0
    7.3725   -2.0045   24.3438 H   0  0  0  0  0  0  0  0  0  0  0  0
  6 15  1  0  0  0  0
  7 21  1  0  0  0  0
  7 15  2  0  0  0  0
 12 15  1  0  0  0  0
 12 17  1  0  0  0  0
  7 18  1  0  0  0  0
  8 12  2  0  0  0  0
 18 23  1  0  0  0  0
  9 18  2  0  0  0  0
  8  9  1  0  0  0  0
  8 22  1  0  0  0  0
  9 11  1  0  0  0  0
  5 22  2  3  0  0  0
  5 13  1  0  0  0  0
  3 16  1  0  0  0  0
  3 13  2  0  0  0  0
  2 13  1  0  0  0  0
  3 10  1  0  0  0  0
  1  2  1  0  0  0  0
  2 20  1  0  0  0  0
 19 20  1  0  0  0  0
  4 10  1  0  0  0  0
 10 19  1  0  0  0  0
 10 14  1  0  0  0  0
  2 24  1  0  0  0  0
M  CHG  2   2   1  11  -1
M  END
> <Chemgauss4>
-6.410152

$$$$
