stable:False satoms:14 tatoms:24 sratio:0.5833333333333334
  -OEChem-08052414173D

 24 25  0     0  0  0  0  0  0999 V2000
   -8.4296   -2.5358  -25.6361 H   0  0  0  0  0  0  0  0  0  0  0  0
   -7.6890   -2.8045  -25.0203 N   0  3  0  0  0  0  0  0  0  0  0  0
   -7.6290   -4.8216  -23.8669 C   0  0  0  0  0  0  0  0  0  0  0  0
   -5.8776   -5.8924  -24.4319 H   0  0  0  0  0  0  0  0  0  0  0  0
   -9.3564   -3.4141  -23.3436 N   0  0  0  0  0  0  0  0  0  0  0  0
  -13.4374   -0.2709  -23.0731 H   0  0  0  0  0  0  0  0  0  0  0  0
  -12.2050    0.5470  -24.5977 C   0  0  0  0  0  0  0  0  0  0  0  0
  -10.4502   -1.4893  -23.9402 C   0  0  0  0  0  0  0  0  0  0  0  0
  -10.1008   -0.5525  -25.0013 C   0  0  0  0  0  0  0  0  0  0  0  0
   -6.2421   -4.8671  -24.3416 C   0  0  0  0  0  0  0  0  0  0  0  0
   -8.6010   -0.4192  -25.8683 S   0  5  0  0  0  0  0  0  0  0  0  0
  -11.7448   -1.4930  -23.4377 C   0  0  0  0  0  0  0  0  0  0  0  0
   -8.2790   -3.6741  -24.0557 C   0  0  0  0  0  0  0  0  0  0  0  0
   -5.6159   -4.3204  -23.6179 H   0  0  0  0  0  0  0  0  0  0  0  0
  -12.5569   -0.3987  -23.6582 C   0  0  0  0  0  0  0  0  0  0  0  0
   -8.0931   -5.6249  -23.3491 H   0  0  0  0  0  0  0  0  0  0  0  0
  -12.0315   -2.3252  -22.8192 H   0  0  0  0  0  0  0  0  0  0  0  0
  -11.0107    0.4369  -25.2848 C   0  0  0  0  0  0  0  0  0  0  0  0
   -6.0788   -4.2966  -25.6454 O   0  0  0  0  0  0  0  0  0  0  0  0
   -6.6893   -3.1567  -25.7928 C   0  0  0  0  0  2  0  0  0  0  0  0
  -12.8450    1.3748  -24.7923 H   0  0  0  0  0  0  0  0  0  0  0  0
   -9.6705   -2.2164  -23.1710 N   0  0  0  0  0  0  0  0  0  0  0  0
  -10.7349    1.1650  -26.0290 H   0  0  0  0  0  0  0  0  0  0  0  0
   -7.3725   -2.0045  -24.5105 H   0  0  0  0  0  0  0  0  0  0  0  0
  6 15  1  0  0  0  0
  7 21  1  0  0  0  0
  7 15  2  0  0  0  0
 12 15  1  0  0  0  0
 12 17  1  0  0  0  0
  7 18  1  0  0  0  0
  8 12  2  0  0  0  0
 18 23  1  0  0  0  0
  9 18  2  0  0  0  0
  8  9  1  0  0  0  0
  8 22  1  0  0  0  0
  9 11  1  0  0  0  0
  5 22  2  3  0  0  0
  5 13  1  0  0  0  0
  3 16  1  0  0  0  0
  3 13  2  0  0  0  0
  2 13  1  0  0  0  0
  3 10  1  0  0  0  0
  1  2  1  0  0  0  0
  2 20  1  0  0  0  0
 19 20  1  0  0  0  0
  4 10  1  0  0  0  0
 10 19  1  0  0  0  0
 10 14  1  0  0  0  0
  2 24  1  0  0  0  0
M  CHG  2   2   1  11  -1
M  END
> <Chemgauss4>
-6.394908

$$$$
