
 OpenBabel07202414153D

 35 37  0  0  0  0  0  0  0  0999 V2000
    1.2438    0.1729    0.0753 C   0  0  0  0  0  0  0  0  0  0  0  0
    2.6824   -0.2017    0.0489 C   0  0  0  0  0  0  0  0  0  0  0  0
    3.3041   -1.4730    0.1292 C   0  0  0  0  0  0  0  0  0  0  0  0
    4.6742   -1.2187    0.0050 C   0  0  0  0  0  0  0  0  0  0  0  0
    4.7974    0.1717   -0.0768 N   0  0  0  0  0  0  0  0  0  0  0  0
    3.5804    0.7802   -0.0093 N   0  0  0  0  0  0  0  0  0  0  0  0
    5.9530    0.9795   -0.2625 C   0  0  0  0  0  0  0  0  0  0  0  0
    6.8962    0.4284   -0.8332 O   0  0  0  0  0  0  0  0  0  0  0  0
    6.0268    2.3653    0.2187 C   0  0  0  0  0  0  0  0  0  0  0  0
    5.1204    3.1326    0.9332 C   0  0  0  0  0  0  0  0  0  0  0  0
    5.5909    4.4534    1.1949 C   0  0  0  0  0  0  0  0  0  0  0  0
    6.8681    4.6431    0.7250 C   0  0  0  0  0  0  0  0  0  0  0  0
    7.4874    3.2441   -0.0309 S   0  0  0  0  0  0  0  0  0  0  0  0
    5.7659   -2.1681   -0.0336 C   0  0  0  0  0  0  0  0  0  0  0  0
    7.0133   -2.2074    0.5905 C   0  0  0  0  0  0  0  0  0  0  0  0
    7.7695   -3.3482    0.3200 N   0  0  0  0  0  0  0  0  0  0  0  0
    7.1562   -4.1720   -0.5052 N   0  0  0  0  0  0  0  0  0  0  0  0
    5.6794   -3.5986   -1.0086 S   0  0  0  0  0  0  0  0  0  0  0  0
    7.6541   -1.2143    1.4904 C   0  0  0  0  0  0  0  0  0  0  0  0
    2.6825   -2.7703    0.3274 C   0  0  0  0  0  0  0  0  0  0  0  0
    3.1702   -3.6455    1.0321 O   0  0  0  0  0  0  0  0  0  0  0  0
    1.5282   -2.9172   -0.3835 O   0  0  0  0  0  0  0  0  0  0  0  0
    0.9719   -4.2315   -0.3154 C   0  0  0  0  0  0  0  0  0  0  0  0
    0.5788   -0.6923    0.0875 H   0  0  0  0  0  0  0  0  0  0  0  0
    0.9968    0.7699   -0.8098 H   0  0  0  0  0  0  0  0  0  0  0  0
    1.0246    0.7764    0.9625 H   0  0  0  0  0  0  0  0  0  0  0  0
    4.1425    2.7902    1.2494 H   0  0  0  0  0  0  0  0  0  0  0  0
    5.0190    5.2196    1.7038 H   0  0  0  0  0  0  0  0  0  0  0  0
    7.4735    5.5367    0.7917 H   0  0  0  0  0  0  0  0  0  0  0  0
    6.9477   -0.4680    1.8598 H   0  0  0  0  0  0  0  0  0  0  0  0
    8.4599   -0.6988    0.9541 H   0  0  0  0  0  0  0  0  0  0  0  0
    8.0972   -1.7106    2.3577 H   0  0  0  0  0  0  0  0  0  0  0  0
   -0.0119   -4.2094   -0.7922 H   0  0  0  0  0  0  0  0  0  0  0  0
    0.8432   -4.5580    0.7218 H   0  0  0  0  0  0  0  0  0  0  0  0
    1.6084   -4.9321   -0.8650 H   0  0  0  0  0  0  0  0  0  0  0  0
  1  2  1  0  0  0  0
  1 24  1  0  0  0  0
  1 25  1  0  0  0  0
  1 26  1  0  0  0  0
  2  3  1  0  0  0  0
  2  6  2  0  0  0  0
  3  4  2  0  0  0  0
  3 20  1  0  0  0  0
  4  5  1  0  0  0  0
  4 14  1  0  0  0  0
  5  6  1  0  0  0  0
  5  7  1  0  0  0  0
  7  8  2  0  0  0  0
  7  9  1  0  0  0  0
  9 10  2  0  0  0  0
  9 13  1  0  0  0  0
 10 11  1  0  0  0  0
 10 27  1  0  0  0  0
 11 12  2  0  0  0  0
 11 28  1  0  0  0  0
 12 13  1  0  0  0  0
 12 29  1  0  0  0  0
 14 15  2  0  0  0  0
 14 18  1  0  0  0  0
 15 16  1  0  0  0  0
 15 19  1  0  0  0  0
 16 17  2  0  0  0  0
 17 18  1  0  0  0  0
 19 30  1  0  0  0  0
 19 31  1  0  0  0  0
 19 32  1  0  0  0  0
 20 21  2  0  0  0  0
 20 22  1  0  0  0  0
 22 23  1  0  0  0  0
 23 33  1  0  0  0  0
 23 34  1  0  0  0  0
 23 35  1  0  0  0  0
M  END
$$$$
