REMARK  6 active torsions:
REMARK  status: ('A' for Active; 'I' for Inactive)
REMARK    1  A    between atoms: N_2  and  C_4 
REMARK    2  A    between atoms: C_4  and  N_5 
REMARK    3  A    between atoms: N_5  and  C_9 
REMARK    4  A    between atoms: C_7  and  C_10 
REMARK    5  A    between atoms: C_7  and  C_9 
REMARK    6  A    between atoms: N_12  and  C_14 
ROOT
HETATM    1  C   UNL     1      10.574  -0.772  22.995  1.00  0.00    -0.031 C 
HETATM    2  C   UNL     1      11.959  -0.454  23.529  1.00  0.00     0.051 C 
ENDROOT
BRANCH   1   3
HETATM    3  C   UNL     1       9.638  -0.135  22.095  1.00  0.00     0.097 C 
HETATM    4  N   UNL     1       8.342  -0.274  21.792  1.00  0.00    -0.360 N 
ATOM      5  HN  UNL     1       7.812  -0.862  22.436  1.00  0.00     0.166 HD
BRANCH   4   6
HETATM    6  C   UNL     1       7.656   0.216  20.817  1.00  0.00     0.073 C 
HETATM    7  S   UNL     1       8.631   0.800  19.583  1.00  0.00    -0.084 SA
HETATM    8  C   UNL     1       7.197   0.507  18.515  1.00  0.00     0.052 C 
HETATM    9  C   UNL     1       6.025   0.592  19.196  1.00  0.00     0.010 C 
HETATM   10  C   UNL     1       6.273   0.449  20.602  1.00  0.00     0.037 C 
ENDBRANCH   4   6
ENDBRANCH   1   3
BRANCH   1  11
HETATM   11  C   UNL     1       9.974  -1.759  23.392  1.00  0.00     0.097 C 
BRANCH  11  12
HETATM   12  N   UNL     1       9.019  -2.201  23.665  1.00  0.00    -0.362 N 
ATOM     13  HN  UNL     1       8.195  -1.793  23.225  1.00  0.00     0.166 HD
BRANCH  12  14
HETATM   14  C   UNL     1       8.830  -3.048  24.369  1.00  0.00     0.175 C 
BRANCH  14  15
HETATM   15  N   UNL     1       8.236  -3.911  24.907  1.00  0.00    -0.390 N 
HETATM   16  C   UNL     1       8.113  -4.527  26.175  1.00  0.00     0.147 C 
ATOM     17  HN  UNL     1       7.605  -4.360  24.243  1.00  0.00     0.159 HD
ENDBRANCH  14  15
ENDBRANCH  12  14
ENDBRANCH  11  12
ENDBRANCH   1  11
TORSDOF 6
