stable:False satoms:8 tatoms:24 sratio:0.3333333333333333
  -OEChem-07092417453D

 24 26  0     1  0  0  0  0  0999 V2000
    6.5159   -4.8775   26.4115 C   0  0  0  0  0  0  0  0  0  0  0  0
    8.2361   -4.2824   26.1157 S   0  0  0  0  0  0  0  0  0  0  0  0
    9.1091   -5.4288   26.0621 O   0  0  0  0  0  0  0  0  0  0  0  0
    8.5829   -3.3935   27.1718 O   0  0  0  0  0  0  0  0  0  0  0  0
    8.1353   -3.5451   24.6558 N   0  0  0  0  0  0  0  0  0  0  0  0
    8.9302   -2.9041   24.1350 C   0  0  0  0  0  0  0  0  0  0  0  0
    9.4378   -1.9602   23.4749 C   0  0  0  0  0  0  0  0  0  0  0  0
   10.3735   -1.0737   23.2740 C   0  0  1  0  0  0  0  0  0  0  0  0
   11.0278   -0.0219   24.2060 C   0  0  0  0  0  0  0  0  0  0  0  0
   12.1385    0.2857   24.1717 C   0  0  0  0  0  0  0  0  0  0  0  0
   13.0699   -0.1336   23.5204 C   0  0  0  0  0  0  0  0  0  0  0  0
   12.7055   -1.2612   22.6767 C   0  0  0  0  0  0  0  0  0  0  0  0
   11.7715   -1.6812   22.5515 C   0  0  0  0  0  0  0  0  0  0  0  0
    9.6506   -0.6932   22.3921 C   0  0  3  0  0  0  0  0  0  0  0  0
    9.0408    0.0145   21.3700 C   0  0  0  0  0  0  0  0  0  0  0  0
    9.5963    0.9430   20.9197 O   0  0  0  0  0  0  0  0  0  0  0  0
    7.9109   -0.5674   21.1354 N   0  0  0  0  0  0  0  0  0  0  0  0
    7.1824   -0.0786   20.2160 C   0  0  0  0  0  0  0  0  0  0  0  0
    7.2448   -0.0079   18.9082 C   0  0  0  0  0  0  0  0  0  0  0  0
    6.8194    0.3325   17.7931 N   0  0  0  0  0  0  0  0  0  0  0  0
    5.7047    0.8432   18.2677 C   0  0  0  0  0  0  0  0  0  0  0  0
    5.2675    0.9493   19.3805 C   0  0  0  0  0  0  0  0  0  0  0  0
    5.8215    0.5662   20.5631 C   0  0  0  0  0  0  0  0  0  0  0  0
    5.3111    0.6856   21.9240 C   0  0  0  0  0  0  0  0  0  0  0  0
 20 21  2  0  0  0  0
 19 20  1  0  0  0  0
 21 22  1  0  0  0  0
 18 19  2  0  0  0  0
 22 23  2  0  0  0  0
 18 23  1  0  0  0  0
 17 18  1  0  0  0  0
 23 24  1  0  0  0  0
 15 16  2  0  0  0  0
 15 17  1  0  0  0  0
 14 15  1  0  0  0  0
  8 14  1  0  0  0  0
  7 14  1  0  0  0  0
 12 13  1  0  0  0  0
  8 13  1  0  0  0  0
 11 12  2  0  0  0  0
  7  8  1  0  0  0  0
  8  9  1  0  0  0  0
  6  7  2  0  0  0  0
 10 11  1  0  0  0  0
  5  6  1  0  0  0  0
  9 10  2  0  0  0  0
  2  5  1  0  0  0  0
  2  3  2  0  0  0  0
  1  2  1  0  0  0  0
  2  4  2  0  0  0  0
M  END
> <Shapegauss>
-286.815643

$$$$
