stable:False satoms:8 tatoms:24 sratio:0.3333333333333333
  -OEChem-08062413513D

 43 45  0     1  0  0  0  0  0999 V2000
    6.1960   -5.1585   26.2714 C   0  0  0  0  0  0  0  0  0  0  0  0
    7.9350   -4.5628   26.1237 S   0  0  0  0  0  0  0  0  0  0  0  0
    8.8077   -5.7106   26.1144 O   0  0  0  0  0  0  0  0  0  0  0  0
    8.1994   -3.6973   27.2222 O   0  0  0  0  0  0  0  0  0  0  0  0
    7.9499   -3.7948   24.6763 N   0  0  0  0  0  0  0  0  0  0  0  0
    8.7842   -3.1456   24.2329 C   0  0  0  0  0  0  0  0  0  0  0  0
    9.3434   -2.1897   23.6347 C   0  0  0  0  0  0  0  0  0  0  0  0
   10.2933   -1.3022   23.5264 C   0  0  1  0  0  0  0  0  0  0  0  0
   10.8742   -0.2722   24.5287 C   0  0  0  0  0  0  0  0  0  0  0  0
   11.9847    0.0325   24.5879 C   0  0  0  0  0  0  0  0  0  0  0  0
   12.9636   -0.3760   24.0028 C   0  0  0  0  0  0  0  0  0  0  0  0
   12.6646   -1.4846   23.1095 C   0  0  0  0  0  0  0  0  0  0  0  0
   11.7426   -1.8989   22.9028 C   0  0  0  0  0  0  0  0  0  0  0  0
    9.6422   -0.9010   22.5988 C   0  0  3  0  0  0  0  0  0  0  0  0
    9.1154   -0.1701   21.5473 C   0  0  0  0  0  0  0  0  0  0  0  0
    9.7059    0.7659   21.1616 O   0  0  0  0  0  0  0  0  0  0  0  0
    8.0065   -0.7433   21.2128 N   0  0  0  0  0  0  0  0  0  0  0  0
    7.3529   -0.2331   20.2498 C   0  0  0  0  0  0  0  0  0  0  0  0
    7.5176   -0.1352   18.9526 C   0  0  0  0  0  0  0  0  0  0  0  0
    7.1814    0.2298   17.8151 N   0  0  0  0  0  0  0  0  0  0  0  0
    6.0337    0.7341   18.2117 C   0  0  0  0  0  0  0  0  0  0  0  0
    5.5109    0.8182   19.2889 C   0  0  0  0  0  0  0  0  0  0  0  0
    5.9700    0.4087   20.5029 C   0  0  0  0  0  0  0  0  0  0  0  0
    5.3548    0.5012   21.8219 C   0  0  0  0  0  0  0  0  0  0  0  0
    6.0719   -5.6971   27.2224 H   0  0  0  0  0  0  0  0  0  0  0  0
    5.5105   -4.2986   26.2450 H   0  0  0  0  0  0  0  0  0  0  0  0
    5.9680   -5.8350   25.4345 H   0  0  0  0  0  0  0  0  0  0  0  0
    7.1480   -3.1978   24.6975 H   0  0  0  0  0  0  0  0  0  0  0  0
    9.6485   -3.7341   24.5029 H   0  0  0  0  0  0  0  0  0  0  0  0
   10.1893    0.1937   25.2217 H   0  0  0  0  0  0  0  0  0  0  0  0
   12.1890    0.8253   25.2923 H   0  0  0  0  0  0  0  0  0  0  0  0
   13.9526    0.0385   24.1306 H   0  0  0  0  0  0  0  0  0  0  0  0
   13.5090   -1.9269   22.6019 H   0  0  0  0  0  0  0  0  0  0  0  0
   11.6360   -1.8643   21.8085 H   0  0  0  0  0  0  0  0  0  0  0  0
   11.8030   -2.9466   23.2324 H   0  0  0  0  0  0  0  0  0  0  0  0
   10.1793   -1.5609   21.9017 H   0  0  0  0  0  0  0  0  0  0  0  0
    7.6758   -1.5560   21.6927 H   0  0  0  0  0  0  0  0  0  0  0  0
    8.4506   -0.6516   18.7816 H   0  0  0  0  0  0  0  0  0  0  0  0
    5.4454    1.1557   17.4102 H   0  0  0  0  0  0  0  0  0  0  0  0
    4.5373    1.2856   19.2957 H   0  0  0  0  0  0  0  0  0  0  0  0
    4.7493   -0.3980   22.0085 H   0  0  0  0  0  0  0  0  0  0  0  0
    6.1403    0.5796   22.5880 H   0  0  0  0  0  0  0  0  0  0  0  0
    4.7110    1.3920   21.8643 H   0  0  0  0  0  0  0  0  0  0  0  0
 20 21  2  0  0  0  0
 19 20  1  0  0  0  0
 21 22  1  0  0  0  0
 18 19  2  0  0  0  0
 22 23  2  0  0  0  0
 18 23  1  0  0  0  0
 17 18  1  0  0  0  0
 23 24  1  0  0  0  0
 15 16  2  0  0  0  0
 15 17  1  0  0  0  0
 14 15  1  0  0  0  0
  8 14  1  0  0  0  0
  7 14  1  0  0  0  0
 12 13  1  0  0  0  0
  8 13  1  0  0  0  0
 11 12  2  0  0  0  0
  7  8  1  0  0  0  0
  8  9  1  0  0  0  0
  6  7  2  0  0  0  0
 10 11  1  0  0  0  0
  5  6  1  0  0  0  0
  9 10  2  0  0  0  0
  2  5  1  0  0  0  0
  2  3  2  0  0  0  0
  1  2  1  0  0  0  0
  2  4  2  0  0  0  0
  1 25  1  0  0  0  0
  1 26  1  0  0  0  0
  1 27  1  0  0  0  0
  5 28  1  0  0  0  0
  6 29  1  0  0  0  0
  9 30  1  0  0  0  0
 10 31  1  0  0  0  0
 11 32  1  0  0  0  0
 12 33  1  0  0  0  0
 13 34  1  0  0  0  0
 13 35  1  0  0  0  0
 14 36  1  0  0  0  0
 17 37  1  0  0  0  0
 19 38  1  0  0  0  0
 21 39  1  0  0  0  0
 22 40  1  0  0  0  0
 24 41  1  0  0  0  0
 24 42  1  0  0  0  0
 24 43  1  0  0  0  0
M  END
> <Chemgauss4>
-13.401542

$$$$
