stable:False satoms:8 tatoms:24 sratio:0.3333333333333333
  -OEChem-08062413513D

 43 45  0     1  0  0  0  0  0999 V2000
   -5.9754   -5.0936  -26.2833 C   0  0  0  0  0  0  0  0  0  0  0  0
   -7.7144   -4.4979  -26.1356 S   0  0  0  0  0  0  0  0  0  0  0  0
   -8.5871   -5.6457  -26.1263 O   0  0  0  0  0  0  0  0  0  0  0  0
   -7.9788   -3.6324  -27.2342 O   0  0  0  0  0  0  0  0  0  0  0  0
   -7.7293   -3.7299  -24.6882 N   0  0  0  0  0  0  0  0  0  0  0  0
   -8.5636   -3.0807  -24.2449 C   0  0  0  0  0  0  0  0  0  0  0  0
   -9.1227   -2.1248  -23.6466 C   0  0  0  0  0  0  0  0  0  0  0  0
  -10.0727   -1.2373  -23.5383 C   0  0  1  0  0  0  0  0  0  0  0  0
  -10.6536   -0.2073  -24.5407 C   0  0  0  0  0  0  0  0  0  0  0  0
  -11.7641    0.0974  -24.5999 C   0  0  0  0  0  0  0  0  0  0  0  0
  -12.7429   -0.3111  -24.0147 C   0  0  0  0  0  0  0  0  0  0  0  0
  -12.4440   -1.4197  -23.1215 C   0  0  0  0  0  0  0  0  0  0  0  0
  -11.5220   -1.8340  -22.9147 C   0  0  0  0  0  0  0  0  0  0  0  0
   -9.4216   -0.8361  -22.6108 C   0  0  3  0  0  0  0  0  0  0  0  0
   -8.8948   -0.1052  -21.5593 C   0  0  0  0  0  0  0  0  0  0  0  0
   -9.4853    0.8308  -21.1735 O   0  0  0  0  0  0  0  0  0  0  0  0
   -7.7858   -0.6784  -21.2248 N   0  0  0  0  0  0  0  0  0  0  0  0
   -7.1323   -0.1682  -20.2617 C   0  0  0  0  0  0  0  0  0  0  0  0
   -7.2970   -0.0703  -18.9646 C   0  0  0  0  0  0  0  0  0  0  0  0
   -6.9608    0.2947  -17.8271 N   0  0  0  0  0  0  0  0  0  0  0  0
   -5.8131    0.7989  -18.2237 C   0  0  0  0  0  0  0  0  0  0  0  0
   -5.2903    0.8831  -19.3008 C   0  0  0  0  0  0  0  0  0  0  0  0
   -5.7494    0.4736  -20.5148 C   0  0  0  0  0  0  0  0  0  0  0  0
   -5.1342    0.5661  -21.8338 C   0  0  0  0  0  0  0  0  0  0  0  0
   -5.8513   -5.6322  -27.2343 H   0  0  0  0  0  0  0  0  0  0  0  0
   -5.2899   -4.2337  -26.2569 H   0  0  0  0  0  0  0  0  0  0  0  0
   -5.7473   -5.7701  -25.4464 H   0  0  0  0  0  0  0  0  0  0  0  0
   -6.9274   -3.1329  -24.7095 H   0  0  0  0  0  0  0  0  0  0  0  0
   -9.4279   -3.6692  -24.5148 H   0  0  0  0  0  0  0  0  0  0  0  0
   -9.9687    0.2586  -25.2337 H   0  0  0  0  0  0  0  0  0  0  0  0
  -11.9684    0.8902  -25.3042 H   0  0  0  0  0  0  0  0  0  0  0  0
  -13.7320    0.1034  -24.1426 H   0  0  0  0  0  0  0  0  0  0  0  0
  -13.2884   -1.8620  -22.6138 H   0  0  0  0  0  0  0  0  0  0  0  0
  -11.4154   -1.7994  -21.8205 H   0  0  0  0  0  0  0  0  0  0  0  0
  -11.5824   -2.8817  -23.2443 H   0  0  0  0  0  0  0  0  0  0  0  0
   -9.9587   -1.4960  -21.9136 H   0  0  0  0  0  0  0  0  0  0  0  0
   -7.4552   -1.4911  -21.7046 H   0  0  0  0  0  0  0  0  0  0  0  0
   -8.2300   -0.5867  -18.7935 H   0  0  0  0  0  0  0  0  0  0  0  0
   -5.2248    1.2206  -17.4221 H   0  0  0  0  0  0  0  0  0  0  0  0
   -4.3167    1.3505  -19.3077 H   0  0  0  0  0  0  0  0  0  0  0  0
   -4.5287   -0.3331  -22.0204 H   0  0  0  0  0  0  0  0  0  0  0  0
   -5.9197    0.6445  -22.5999 H   0  0  0  0  0  0  0  0  0  0  0  0
   -4.4903    1.4569  -21.8763 H   0  0  0  0  0  0  0  0  0  0  0  0
 20 21  2  0  0  0  0
 19 20  1  0  0  0  0
 21 22  1  0  0  0  0
 18 19  2  0  0  0  0
 22 23  2  0  0  0  0
 18 23  1  0  0  0  0
 17 18  1  0  0  0  0
 23 24  1  0  0  0  0
 15 16  2  0  0  0  0
 15 17  1  0  0  0  0
 14 15  1  0  0  0  0
  8 14  1  0  0  0  0
  7 14  1  0  0  0  0
 12 13  1  0  0  0  0
  8 13  1  0  0  0  0
 11 12  2  0  0  0  0
  7  8  1  0  0  0  0
  8  9  1  0  0  0  0
  6  7  2  0  0  0  0
 10 11  1  0  0  0  0
  5  6  1  0  0  0  0
  9 10  2  0  0  0  0
  2  5  1  0  0  0  0
  2  3  2  0  0  0  0
  1  2  1  0  0  0  0
  2  4  2  0  0  0  0
  1 25  1  0  0  0  0
  1 26  1  0  0  0  0
  1 27  1  0  0  0  0
  5 28  1  0  0  0  0
  6 29  1  0  0  0  0
  9 30  1  0  0  0  0
 10 31  1  0  0  0  0
 11 32  1  0  0  0  0
 12 33  1  0  0  0  0
 13 34  1  0  0  0  0
 13 35  1  0  0  0  0
 14 36  1  0  0  0  0
 17 37  1  0  0  0  0
 19 38  1  0  0  0  0
 21 39  1  0  0  0  0
 22 40  1  0  0  0  0
 24 41  1  0  0  0  0
 24 42  1  0  0  0  0
 24 43  1  0  0  0  0
M  END
> <Chemgauss4>
-13.169426

$$$$
