stable:False satoms:16 tatoms:24 sratio:0.6666666666666666
  -OEChem-07092417423D

 24 25  0     1  0  0  0  0  0999 V2000
    6.4474   -4.9105   26.4427 Cl  0  0  0  0  0  0  0  0  0  0  0  0
    8.2347   -4.3025   26.1548 S   0  0  0  0  0  0  0  0  0  0  0  0
    9.0429   -5.4676   25.9874 O   0  0  0  0  0  0  0  0  0  0  0  0
    8.6126   -3.5066   27.2635 O   0  0  0  0  0  0  0  0  0  0  0  0
    8.1122   -3.5009   24.7812 N   0  0  0  0  0  0  0  0  0  0  0  0
    9.0526   -2.9243   24.2938 C   0  0  0  0  0  0  0  0  0  0  0  0
    9.7320   -2.2705   23.7389 C   0  0  0  0  0  0  0  0  0  0  0  0
   10.5100   -1.0960   23.1642 C   0  0  1  0  0  0  0  0  0  0  0  0
   11.3277   -0.2948   23.9335 C   0  0  0  0  0  0  0  0  0  0  0  0
   13.0404    0.4282   24.3272 H   0  0  0  0  0  0  0  0  0  0  0  0
   12.6357   -0.2102   23.7069 C   0  0  0  0  0  0  0  0  0  0  0  0
   13.0757   -0.8063   22.9044 H   0  0  0  0  0  0  0  0  0  0  0  0
   11.1509   -1.9627   22.8019 C   0  0  0  0  0  0  0  0  0  0  0  0
    9.6852   -0.3689   22.3258 C   0  0  0  0  0  0  0  0  0  0  0  0
    8.9857    0.2005   21.3846 C   0  0  0  0  0  0  0  0  0  0  0  0
    9.4321    1.1616   20.8286 O   0  0  0  0  0  0  0  0  0  0  0  0
    7.7719   -0.4316   21.1166 N   0  0  0  0  0  0  0  0  0  0  0  0
    6.9966   -0.0380   20.1094 C   0  0  0  0  0  0  0  0  0  0  0  0
    7.2775   -0.1195   18.7795 N   0  0  0  0  0  0  0  0  0  0  0  0
    6.5530    0.2930   17.8857 N   0  0  0  0  0  0  0  0  0  0  0  0
    5.5121    0.9134   18.1250 N   0  0  0  0  0  0  0  0  0  0  0  0
    5.3400    0.8641   19.3161 C   0  0  0  0  0  0  0  0  0  0  0  0
    5.7431    0.5049   20.4544 C   0  0  0  0  0  0  0  0  0  0  0  0
    5.3119    0.5549   21.4704 H   0  0  0  0  0  0  0  0  0  0  0  0
 20 21  2  0  0  0  0
 19 20  1  0  0  0  0
 21 22  1  0  0  0  0
 18 19  2  0  0  0  0
 22 23  2  0  0  0  0
 18 23  1  0  0  0  0
 17 18  1  0  0  0  0
 23 24  1  0  0  0  0
 15 16  2  0  0  0  0
 15 17  1  0  0  0  0
 14 15  1  0  0  0  0
  8 14  1  0  0  0  0
  8 13  1  0  0  0  0
  7 13  1  0  0  0  0
 11 12  1  0  0  0  0
  7  8  1  0  0  0  0
  8  9  1  0  0  0  0
  9 11  2  0  0  0  0
 10 11  1  0  0  0  0
  6  7  2  3  0  0  0
  5  6  1  0  0  0  0
  2  5  1  0  0  0  0
  2  3  2  0  0  0  0
  1  2  1  0  0  0  0
  2  4  2  0  0  0  0
M  END
> <Shapegauss>
-254.565155

$$$$
