stable:False satoms:16 tatoms:24 sratio:0.6666666666666666
  -OEChem-08062412043D

 33 34  0     1  0  0  0  0  0999 V2000
    6.0517   -4.9437   25.8592 Cl  0  0  0  0  0  0  0  0  0  0  0  0
    7.8662   -4.3502   25.8119 S   0  0  0  0  0  0  0  0  0  0  0  0
    8.6763   -5.5170   25.6665 O   0  0  0  0  0  0  0  0  0  0  0  0
    8.1239   -3.6276   27.0022 O   0  0  0  0  0  0  0  0  0  0  0  0
    7.9087   -3.4671   24.4843 N   0  0  0  0  0  0  0  0  0  0  0  0
    8.9042   -2.8788   24.1418 C   0  0  0  0  0  0  0  0  0  0  0  0
    9.6488   -2.2050   23.7076 C   0  0  0  0  0  0  0  0  0  0  0  0
   10.4990   -1.0121   23.2964 C   0  0  1  0  0  0  0  0  0  0  0  0
   11.2322   -0.2717   24.2000 C   0  0  0  0  0  0  0  0  0  0  0  0
   12.8964    0.3977   24.8273 H   0  0  0  0  0  0  0  0  0  0  0  0
   12.5582   -0.1961   24.1279 C   0  0  0  0  0  0  0  0  0  0  0  0
   13.0804   -0.7512   23.3455 H   0  0  0  0  0  0  0  0  0  0  0  0
   11.1680   -1.8667   22.9569 C   0  0  0  0  0  0  0  0  0  0  0  0
    9.7821   -0.2229   22.4159 C   0  0  0  0  0  0  0  0  0  0  0  0
    9.1999    0.4128   21.4381 C   0  0  0  0  0  0  0  0  0  0  0  0
    9.7163    1.3973   20.9951 O   0  0  0  0  0  0  0  0  0  0  0  0
    8.0180   -0.1817   20.9972 N   0  0  0  0  0  0  0  0  0  0  0  0
    7.3661    0.2837   19.9347 C   0  0  0  0  0  0  0  0  0  0  0  0
    7.7953    0.2761   18.6424 N   0  0  0  0  0  0  0  0  0  0  0  0
    7.1812    0.7528   17.6993 N   0  0  0  0  0  0  0  0  0  0  0  0
    6.1263    1.3756   17.8568 N   0  0  0  0  0  0  0  0  0  0  0  0
    5.8196    1.2591   19.0157 C   0  0  0  0  0  0  0  0  0  0  0  0
    6.0871    0.8266   20.1684 C   0  0  0  0  0  0  0  0  0  0  0  0
    5.5439    0.8239   21.1305 H   0  0  0  0  0  0  0  0  0  0  0  0
    7.1945   -2.7744   24.5854 H   0  0  0  0  0  0  0  0  0  0  0  0
    9.6030   -3.4965   24.6863 H   0  0  0  0  0  0  0  0  0  0  0  0
   10.7166    0.2602   24.9860 H   0  0  0  0  0  0  0  0  0  0  0  0
   11.3069   -2.0633   21.8835 H   0  0  0  0  0  0  0  0  0  0  0  0
   12.1053   -2.0776   23.4926 H   0  0  0  0  0  0  0  0  0  0  0  0
   10.1648    0.7079   22.8600 H   0  0  0  0  0  0  0  0  0  0  0  0
    8.8219   -0.4848   22.8842 H   0  0  0  0  0  0  0  0  0  0  0  0
    7.6535   -0.9726   21.4888 H   0  0  0  0  0  0  0  0  0  0  0  0
    4.8683    1.7613   19.1120 H   0  0  0  0  0  0  0  0  0  0  0  0
 20 21  2  0  0  0  0
 19 20  1  0  0  0  0
 21 22  1  0  0  0  0
 18 19  2  0  0  0  0
 22 23  2  0  0  0  0
 18 23  1  0  0  0  0
 17 18  1  0  0  0  0
 23 24  1  0  0  0  0
 15 16  2  0  0  0  0
 15 17  1  0  0  0  0
 14 15  1  0  0  0  0
  8 14  1  0  0  0  0
  8 13  1  0  0  0  0
  7 13  1  0  0  0  0
 11 12  1  0  0  0  0
  7  8  1  0  0  0  0
  8  9  1  0  0  0  0
  9 11  2  0  0  0  0
 10 11  1  0  0  0  0
  6  7  2  3  0  0  0
  5  6  1  0  0  0  0
  2  5  1  0  0  0  0
  2  3  2  0  0  0  0
  1  2  1  0  0  0  0
  2  4  2  0  0  0  0
  5 25  1  0  0  0  0
  6 26  1  0  0  0  0
  9 27  1  0  0  0  0
 13 28  1  0  0  0  0
 13 29  1  0  0  0  0
 14 30  1  0  0  0  0
 14 31  1  0  0  0  0
 17 32  1  0  0  0  0
 22 33  1  0  0  0  0
M  END
> <Chemgauss4>
-10.718644

$$$$
