stable:False satoms:16 tatoms:24 sratio:0.6666666666666666
  -OEChem-08062412043D

 33 34  0     1  0  0  0  0  0999 V2000
   -6.1891   -4.8955  -25.7856 Cl  0  0  0  0  0  0  0  0  0  0  0  0
   -8.0036   -4.3021  -25.7383 S   0  0  0  0  0  0  0  0  0  0  0  0
   -8.8137   -5.4688  -25.5929 O   0  0  0  0  0  0  0  0  0  0  0  0
   -8.2613   -3.5795  -26.9287 O   0  0  0  0  0  0  0  0  0  0  0  0
   -8.0461   -3.4189  -24.4107 N   0  0  0  0  0  0  0  0  0  0  0  0
   -9.0416   -2.8306  -24.0682 C   0  0  0  0  0  0  0  0  0  0  0  0
   -9.7862   -2.1569  -23.6340 C   0  0  0  0  0  0  0  0  0  0  0  0
  -10.6364   -0.9639  -23.2228 C   0  0  1  0  0  0  0  0  0  0  0  0
  -11.3696   -0.2235  -24.1265 C   0  0  0  0  0  0  0  0  0  0  0  0
  -13.0338    0.4459  -24.7537 H   0  0  0  0  0  0  0  0  0  0  0  0
  -12.6956   -0.1479  -24.0543 C   0  0  0  0  0  0  0  0  0  0  0  0
  -13.2178   -0.7030  -23.2719 H   0  0  0  0  0  0  0  0  0  0  0  0
  -11.3054   -1.8185  -22.8833 C   0  0  0  0  0  0  0  0  0  0  0  0
   -9.9196   -0.1747  -22.3423 C   0  0  0  0  0  0  0  0  0  0  0  0
   -9.3373    0.4610  -21.3645 C   0  0  0  0  0  0  0  0  0  0  0  0
   -9.8537    1.4455  -20.9215 O   0  0  0  0  0  0  0  0  0  0  0  0
   -8.1554   -0.1335  -20.9236 N   0  0  0  0  0  0  0  0  0  0  0  0
   -7.5035    0.3319  -19.8611 C   0  0  0  0  0  0  0  0  0  0  0  0
   -7.9328    0.3242  -18.5689 N   0  0  0  0  0  0  0  0  0  0  0  0
   -7.3187    0.8010  -17.6257 N   0  0  0  0  0  0  0  0  0  0  0  0
   -6.2637    1.4238  -17.7833 N   0  0  0  0  0  0  0  0  0  0  0  0
   -5.9570    1.3073  -18.9422 C   0  0  0  0  0  0  0  0  0  0  0  0
   -6.2246    0.8748  -20.0948 C   0  0  0  0  0  0  0  0  0  0  0  0
   -5.6813    0.8721  -21.0569 H   0  0  0  0  0  0  0  0  0  0  0  0
   -7.3319   -2.7262  -24.5118 H   0  0  0  0  0  0  0  0  0  0  0  0
   -9.7404   -3.4483  -24.6128 H   0  0  0  0  0  0  0  0  0  0  0  0
  -10.8540    0.3083  -24.9125 H   0  0  0  0  0  0  0  0  0  0  0  0
  -11.4443   -2.0151  -21.8100 H   0  0  0  0  0  0  0  0  0  0  0  0
  -12.2427   -2.0294  -23.4191 H   0  0  0  0  0  0  0  0  0  0  0  0
  -10.3022    0.7561  -22.7864 H   0  0  0  0  0  0  0  0  0  0  0  0
   -8.9593   -0.4367  -22.8106 H   0  0  0  0  0  0  0  0  0  0  0  0
   -7.7909   -0.9244  -21.4152 H   0  0  0  0  0  0  0  0  0  0  0  0
   -5.0057    1.8095  -19.0385 H   0  0  0  0  0  0  0  0  0  0  0  0
 20 21  2  0  0  0  0
 19 20  1  0  0  0  0
 21 22  1  0  0  0  0
 18 19  2  0  0  0  0
 22 23  2  0  0  0  0
 18 23  1  0  0  0  0
 17 18  1  0  0  0  0
 23 24  1  0  0  0  0
 15 16  2  0  0  0  0
 15 17  1  0  0  0  0
 14 15  1  0  0  0  0
  8 14  1  0  0  0  0
  8 13  1  0  0  0  0
  7 13  1  0  0  0  0
 11 12  1  0  0  0  0
  7  8  1  0  0  0  0
  8  9  1  0  0  0  0
  9 11  2  0  0  0  0
 10 11  1  0  0  0  0
  6  7  2  3  0  0  0
  5  6  1  0  0  0  0
  2  5  1  0  0  0  0
  2  3  2  0  0  0  0
  1  2  1  0  0  0  0
  2  4  2  0  0  0  0
  5 25  1  0  0  0  0
  6 26  1  0  0  0  0
  9 27  1  0  0  0  0
 13 28  1  0  0  0  0
 13 29  1  0  0  0  0
 14 30  1  0  0  0  0
 14 31  1  0  0  0  0
 17 32  1  0  0  0  0
 22 33  1  0  0  0  0
M  END
> <Chemgauss4>
-10.641669

$$$$
