stable:False satoms:12 tatoms:24 sratio:0.5
  -OEChem-07092417443D

 24 25  0     1  0  0  0  0  0999 V2000
    6.4264   -4.7641   26.4299 Cl  0  0  0  0  0  0  0  0  0  0  0  0
    8.2479   -4.2623   26.0679 S   0  0  0  0  0  0  0  0  0  0  0  0
    8.9402   -5.4920   25.9014 O   0  0  0  0  0  0  0  0  0  0  0  0
    8.6422   -3.4331   27.1478 O   0  0  0  0  0  0  0  0  0  0  0  0
    8.1328   -3.5173   24.6419 N   0  0  0  0  0  0  0  0  0  0  0  0
    8.8568   -2.8228   24.1004 C   0  0  0  0  0  0  0  0  0  0  0  0
    9.4296   -1.9774   23.5394 C   0  0  0  0  0  0  0  0  0  0  0  0
   10.5051   -1.1403   23.2077 C   0  0  1  0  0  0  0  0  0  0  0  0
   11.1549   -0.1963   24.2646 C   0  0  0  0  0  0  0  0  0  0  0  0
   12.2272    0.1052   24.2975 C   0  0  0  0  0  0  0  0  0  0  0  0
   13.0332   -0.4370   23.5513 C   0  0  0  0  0  0  0  0  0  0  0  0
   12.9361   -1.3451   22.7622 N   0  0  0  0  0  0  0  0  0  0  0  0
   11.8079   -1.5980   22.6599 C   0  0  0  0  0  0  0  0  0  0  0  0
    9.6478   -0.7313   22.4272 C   0  0  3  0  0  0  0  0  0  0  0  0
    9.0839   -0.0235   21.3864 C   0  0  0  0  0  0  0  0  0  0  0  0
    9.7185    0.8822   20.9587 O   0  0  0  0  0  0  0  0  0  0  0  0
    7.9086   -0.4583   20.9644 N   0  0  0  0  0  0  0  0  0  0  0  0
    6.8202    0.2237   19.0061 C   0  0  0  0  0  0  0  0  0  0  0  0
    7.4827   -0.1323   19.6634 C   0  0  0  0  0  0  0  0  0  0  0  0
    7.1209    0.1959   17.6227 Cl  0  0  0  0  0  0  0  0  0  0  0  0
    5.0374    1.2795   18.6953 H   0  0  0  0  0  0  0  0  0  0  0  0
    5.5810    0.8645   19.4899 C   0  0  0  0  0  0  0  0  0  0  0  0
    5.4610    0.7805   20.7703 C   0  5  0  0  0  0  0  0  0  0  0  0
    5.3817    0.7097   21.7403 H   0  0  0  0  0  0  0  0  0  0  0  0
 18 20  1  0  0  0  0
 21 22  1  0  0  0  0
 18 22  1  0  0  0  0
 18 19  2  0  0  0  0
 22 23  2  3  0  0  0
 17 19  1  0  0  0  0
 23 24  1  0  0  0  0
 15 16  2  0  0  0  0
 15 17  1  0  0  0  0
 14 15  1  0  0  0  0
  8 14  1  0  0  0  0
  7 14  1  0  0  0  0
 12 13  1  0  0  0  0
  8 13  1  0  0  0  0
 11 12  2  0  0  0  0
  7  8  1  0  0  0  0
  8  9  1  0  0  0  0
  6  7  2  3  0  0  0
 10 11  1  0  0  0  0
  5  6  1  0  0  0  0
  9 10  2  0  0  0  0
  2  5  1  0  0  0  0
  2  3  2  0  0  0  0
  1  2  1  0  0  0  0
  2  4  2  0  0  0  0
M  CHG  1  23  -1
M  END
> <Shapegauss>
-263.551666

$$$$
