stable:False satoms:12 tatoms:24 sratio:0.5
  -OEChem-08062408543D

 35 36  0     1  0  0  0  0  0999 V2000
   -6.4649   -5.0011  -26.1532 Cl  0  0  0  0  0  0  0  0  0  0  0  0
   -8.3114   -4.5069  -25.9362 S   0  0  0  0  0  0  0  0  0  0  0  0
   -9.0051   -5.7383  -25.7888 O   0  0  0  0  0  0  0  0  0  0  0  0
   -8.6326   -3.7084  -27.0624 O   0  0  0  0  0  0  0  0  0  0  0  0
   -8.3050   -3.7258  -24.5250 N   0  0  0  0  0  0  0  0  0  0  0  0
   -9.0712   -3.0246  -24.0549 C   0  0  0  0  0  0  0  0  0  0  0  0
   -9.6891   -2.1707  -23.5583 C   0  0  0  0  0  0  0  0  0  0  0  0
  -10.7918   -1.3354  -23.3263 C   0  0  1  0  0  0  0  0  0  0  0  0
  -11.3703   -0.4238  -24.4509 C   0  0  0  0  0  0  0  0  0  0  0  0
  -12.4396   -0.1329  -24.5686 C   0  0  0  0  0  0  0  0  0  0  0  0
  -13.2934   -0.6637  -23.8689 C   0  0  0  0  0  0  0  0  0  0  0  0
  -13.2471   -1.5510  -23.0520 N   0  0  0  0  0  0  0  0  0  0  0  0
  -12.1274   -1.7911  -22.8623 C   0  0  0  0  0  0  0  0  0  0  0  0
   -9.9961   -0.8994  -22.4967 C   0  0  3  0  0  0  0  0  0  0  0  0
   -9.5140   -0.1610  -21.4363 C   0  0  0  0  0  0  0  0  0  0  0  0
  -10.1843    0.7493  -21.0786 O   0  0  0  0  0  0  0  0  0  0  0  0
   -8.3691   -0.5746  -20.9198 N   0  0  0  0  0  0  0  0  0  0  0  0
   -7.4300    0.1656  -18.9061 C   0  0  0  0  0  0  0  0  0  0  0  0
   -8.0407   -0.2125  -19.6002 C   0  0  0  0  0  0  0  0  0  0  0  0
   -7.8296    0.1694  -17.5477 Cl  0  0  0  0  0  0  0  0  0  0  0  0
   -5.6819    1.2448  -18.4946 H   0  0  0  0  0  0  0  0  0  0  0  0
   -6.1637    0.8054  -19.3155 C   0  0  0  0  0  0  0  0  0  0  0  0
   -5.9509    0.6907  -20.5814 C   0  0  0  0  0  0  0  0  0  0  0  0
   -6.6646    0.1718  -21.2041 H   0  0  0  0  0  0  0  0  0  0  0  0
   -7.4684   -3.1789  -24.5578 H   0  0  0  0  0  0  0  0  0  0  0  0
   -9.8994   -3.7130  -24.1360 H   0  0  0  0  0  0  0  0  0  0  0  0
  -10.6728   -0.0401  -25.1807 H   0  0  0  0  0  0  0  0  0  0  0  0
  -12.7217    0.6136  -25.2963 H   0  0  0  0  0  0  0  0  0  0  0  0
  -14.2839   -0.2572  -24.0110 H   0  0  0  0  0  0  0  0  0  0  0  0
  -12.0485   -1.6434  -21.7751 H   0  0  0  0  0  0  0  0  0  0  0  0
  -12.0880   -2.8665  -23.0901 H   0  0  0  0  0  0  0  0  0  0  0  0
   -9.5968   -0.1719  -23.2187 H   0  0  0  0  0  0  0  0  0  0  0  0
   -7.7442   -1.1378  -21.4604 H   0  0  0  0  0  0  0  0  0  0  0  0
   -8.9179   -0.4941  -19.0366 H   0  0  0  0  0  0  0  0  0  0  0  0
   -5.0589    1.1136  -21.0195 H   0  0  0  0  0  0  0  0  0  0  0  0
 18 20  1  0  0  0  0
 21 22  1  0  0  0  0
 18 22  1  0  0  0  0
 18 19  2  0  0  0  0
 22 23  2  3  0  0  0
 17 19  1  0  0  0  0
 23 24  1  0  0  0  0
 15 16  2  0  0  0  0
 15 17  1  0  0  0  0
 14 15  1  0  0  0  0
  8 14  1  0  0  0  0
  7 14  1  0  0  0  0
 12 13  1  0  0  0  0
  8 13  1  0  0  0  0
 11 12  2  0  0  0  0
  7  8  1  0  0  0  0
  8  9  1  0  0  0  0
  6  7  2  3  0  0  0
 10 11  1  0  0  0  0
  5  6  1  0  0  0  0
  9 10  2  0  0  0  0
  2  5  1  0  0  0  0
  2  3  2  0  0  0  0
  1  2  1  0  0  0  0
  2  4  2  0  0  0  0
  5 25  1  0  0  0  0
  6 26  1  0  0  0  0
  9 27  1  0  0  0  0
 10 28  1  0  0  0  0
 11 29  1  0  0  0  0
 13 30  1  0  0  0  0
 13 31  1  0  0  0  0
 14 32  1  0  0  0  0
 17 33  1  0  0  0  0
 19 34  1  0  0  0  0
 23 35  1  0  0  0  0
M  END
> <Chemgauss4>
-8.649706

$$$$
