stable:False satoms:12 tatoms:24 sratio:0.5
  -OEChem-08062408553D

 35 36  0     1  0  0  0  0  0999 V2000
    6.4300   -5.3887   25.9026 Cl  0  0  0  0  0  0  0  0  0  0  0  0
    8.2636   -4.8245   25.7601 S   0  0  0  0  0  0  0  0  0  0  0  0
    9.0017   -6.0235   25.5683 O   0  0  0  0  0  0  0  0  0  0  0  0
    8.5298   -4.0757   26.9338 O   0  0  0  0  0  0  0  0  0  0  0  0
    8.2659   -3.9716   24.3911 N   0  0  0  0  0  0  0  0  0  0  0  0
    9.0195   -3.2225   23.9779 C   0  0  0  0  0  0  0  0  0  0  0  0
    9.6204   -2.3245   23.5422 C   0  0  0  0  0  0  0  0  0  0  0  0
   10.6998   -1.4430   23.3825 C   0  0  1  0  0  0  0  0  0  0  0  0
   11.2193   -0.5730   24.5672 C   0  0  0  0  0  0  0  0  0  0  0  0
   12.2750   -0.2542   24.7279 C   0  0  0  0  0  0  0  0  0  0  0  0
   13.1633   -0.7200   24.0247 C   0  0  0  0  0  0  0  0  0  0  0  0
   13.1670   -1.5647   23.1626 N   0  0  0  0  0  0  0  0  0  0  0  0
   12.0611   -1.8306   22.9313 C   0  0  0  0  0  0  0  0  0  0  0  0
    9.9106   -0.9904   22.5555 C   0  0  3  0  0  0  0  0  0  0  0  0
    9.4304   -0.2137   21.5220 C   0  0  0  0  0  0  0  0  0  0  0  0
   10.0784    0.7351   21.2292 O   0  0  0  0  0  0  0  0  0  0  0  0
    8.3132   -0.6366   20.9549 N   0  0  0  0  0  0  0  0  0  0  0  0
    7.3998    0.1767   18.9576 C   0  0  0  0  0  0  0  0  0  0  0  0
    8.0055   -0.2172   19.6473 C   0  0  0  0  0  0  0  0  0  0  0  0
    7.8326    0.2641   17.6123 Cl  0  0  0  0  0  0  0  0  0  0  0  0
    5.6272    1.2188   18.5558 H   0  0  0  0  0  0  0  0  0  0  0  0
    6.1030    0.7530   19.3656 C   0  0  0  0  0  0  0  0  0  0  0  0
    5.8630    0.5658   20.6179 C   0  0  0  0  0  0  0  0  0  0  0  0
    6.5780    0.0385   21.2319 H   0  0  0  0  0  0  0  0  0  0  0  0
    7.4108   -3.4545   24.4297 H   0  0  0  0  0  0  0  0  0  0  0  0
    9.8681   -3.8871   24.0455 H   0  0  0  0  0  0  0  0  0  0  0  0
   10.4915   -0.2505   25.2970 H   0  0  0  0  0  0  0  0  0  0  0  0
   12.5138    0.4621   25.5000 H   0  0  0  0  0  0  0  0  0  0  0  0
   14.1357   -0.2897   24.2136 H   0  0  0  0  0  0  0  0  0  0  0  0
   12.0041   -1.6292   21.8514 H   0  0  0  0  0  0  0  0  0  0  0  0
   12.0522   -2.9171   23.1026 H   0  0  0  0  0  0  0  0  0  0  0  0
    9.4694   -0.3147   23.3030 H   0  0  0  0  0  0  0  0  0  0  0  0
    7.6944   -1.2471   21.4493 H   0  0  0  0  0  0  0  0  0  0  0  0
    8.9054   -0.4406   19.0935 H   0  0  0  0  0  0  0  0  0  0  0  0
    4.9467    0.9363   21.0533 H   0  0  0  0  0  0  0  0  0  0  0  0
 18 20  1  0  0  0  0
 21 22  1  0  0  0  0
 18 22  1  0  0  0  0
 18 19  2  0  0  0  0
 22 23  2  3  0  0  0
 17 19  1  0  0  0  0
 23 24  1  0  0  0  0
 15 16  2  0  0  0  0
 15 17  1  0  0  0  0
 14 15  1  0  0  0  0
  8 14  1  0  0  0  0
  7 14  1  0  0  0  0
 12 13  1  0  0  0  0
  8 13  1  0  0  0  0
 11 12  2  0  0  0  0
  7  8  1  0  0  0  0
  8  9  1  0  0  0  0
  6  7  2  3  0  0  0
 10 11  1  0  0  0  0
  5  6  1  0  0  0  0
  9 10  2  0  0  0  0
  2  5  1  0  0  0  0
  2  3  2  0  0  0  0
  1  2  1  0  0  0  0
  2  4  2  0  0  0  0
  5 25  1  0  0  0  0
  6 26  1  0  0  0  0
  9 27  1  0  0  0  0
 10 28  1  0  0  0  0
 11 29  1  0  0  0  0
 13 30  1  0  0  0  0
 13 31  1  0  0  0  0
 14 32  1  0  0  0  0
 17 33  1  0  0  0  0
 19 34  1  0  0  0  0
 23 35  1  0  0  0  0
M  END
> <Chemgauss4>
-8.625725

$$$$
