stable:False satoms:5 tatoms:24 sratio:0.20833333333333334
  -OEChem-07092417463D

 24 26  0     1  0  0  0  0  0999 V2000
    6.4767   -4.9246   26.4816 C   0  0  0  0  0  0  0  0  0  0  0  0
    8.2912   -4.3029   26.0748 S   0  0  0  0  0  0  0  0  0  0  0  0
    9.1003   -5.4653   25.9640 O   0  0  0  0  0  0  0  0  0  0  0  0
    8.6389   -3.4333   27.1369 O   0  0  0  0  0  0  0  0  0  0  0  0
    8.1026   -3.5410   24.6568 N   0  0  0  0  0  0  0  0  0  0  0  0
    8.9138   -2.8924   24.1333 C   0  0  0  0  0  0  0  0  0  0  0  0
    9.4273   -1.9396   23.5091 C   0  0  0  0  0  0  0  0  0  0  0  0
   10.3986   -1.1266   23.2590 C   0  0  1  0  0  0  0  0  0  0  0  0
   10.9506   -0.0840   24.5134 C   0  0  0  0  0  0  0  0  0  0  0  0
   12.2126    0.2987   24.2637 C   0  0  0  0  0  0  0  0  0  0  0  0
   12.9675   -0.0665   23.6284 C   0  0  0  0  0  0  0  0  0  0  0  0
   12.7459   -1.2062   22.6776 C   0  0  0  0  0  0  0  0  0  0  0  0
   11.7737   -1.5968   22.6122 C   0  0  0  0  0  0  0  0  0  0  0  0
    9.6782   -0.6665   22.3976 C   0  0  3  0  0  0  0  0  0  0  0  0
    9.0494   -0.0095   21.3652 C   0  0  0  0  0  0  0  0  0  0  0  0
    9.5814    0.9090   20.9013 O   0  0  0  0  0  0  0  0  0  0  0  0
    7.8620   -0.5427   21.1116 N   0  0  0  0  0  0  0  0  0  0  0  0
    7.1665   -0.0853   20.1873 C   0  0  0  0  0  0  0  0  0  0  0  0
    7.2464    0.0042   18.8611 C   0  0  0  0  0  0  0  0  0  0  0  0
    6.7753    0.3219   17.8011 N   0  0  0  0  0  0  0  0  0  0  0  0
    5.7020    0.8208   18.2603 C   0  0  0  0  0  0  0  0  0  0  0  0
    5.2439    0.9827   19.3854 C   0  0  0  0  0  0  0  0  0  0  0  0
    5.8078    0.5864   20.5536 C   0  0  0  0  0  0  0  0  0  0  0  0
    5.4716    0.6695   21.5614 C   0  0  0  0  0  0  0  0  0  0  0  0
 20 21  2  0  0  0  0
 19 20  1  0  0  0  0
 21 22  1  0  0  0  0
 18 19  2  0  0  0  0
 22 23  2  0  0  0  0
 18 23  1  0  0  0  0
 17 18  1  0  0  0  0
 23 24  1  0  0  0  0
 15 16  2  0  0  0  0
 15 17  1  0  0  0  0
 14 15  1  0  0  0  0
  8 14  1  0  0  0  0
  7 14  1  0  0  0  0
 12 13  1  0  0  0  0
  8 13  1  0  0  0  0
 11 12  2  0  0  0  0
  7  8  1  0  0  0  0
  8  9  1  0  0  0  0
  6  7  2  3  0  0  0
 10 11  1  0  0  0  0
  5  6  1  0  0  0  0
  9 10  2  0  0  0  0
  2  5  1  0  0  0  0
  2  3  2  0  0  0  0
  1  2  1  0  0  0  0
  2  4  2  0  0  0  0
M  END
> <Shapegauss>
-289.816162

$$$$
