stable:False satoms:5 tatoms:24 sratio:0.20833333333333334
  -OEChem-08062414323D

 43 45  0     1  0  0  0  0  0999 V2000
    6.1866   -5.3564   26.2426 C   0  0  0  0  0  0  0  0  0  0  0  0
    8.0114   -4.6858   25.9878 S   0  0  0  0  0  0  0  0  0  0  0  0
    8.8496   -5.8279   25.8822 O   0  0  0  0  0  0  0  0  0  0  0  0
    8.2690   -3.8585   27.1078 O   0  0  0  0  0  0  0  0  0  0  0  0
    7.9033   -3.8648   24.5946 N   0  0  0  0  0  0  0  0  0  0  0  0
    8.7346   -3.1795   24.1562 C   0  0  0  0  0  0  0  0  0  0  0  0
    9.2695   -2.1911   23.6103 C   0  0  0  0  0  0  0  0  0  0  0  0
   10.2387   -1.3510   23.4625 C   0  0  1  0  0  0  0  0  0  0  0  0
   10.6837   -0.3560   24.7956 C   0  0  0  0  0  0  0  0  0  0  0  0
   11.9516    0.0593   24.6494 C   0  0  0  0  0  0  0  0  0  0  0  0
   12.7548   -0.2641   24.0518 C   0  0  0  0  0  0  0  0  0  0  0  0
   12.6210   -1.3639   23.0396 C   0  0  0  0  0  0  0  0  0  0  0  0
   11.6635   -1.7680   22.8912 C   0  0  0  0  0  0  0  0  0  0  0  0
    9.5688   -0.8655   22.5747 C   0  0  3  0  0  0  0  0  0  0  0  0
    8.9977   -0.1741   21.5313 C   0  0  0  0  0  0  0  0  0  0  0  0
    9.5410    0.7732   21.1450 O   0  0  0  0  0  0  0  0  0  0  0  0
    7.8412   -0.7160   21.1745 N   0  0  0  0  0  0  0  0  0  0  0  0
    7.2004   -0.2300   20.2256 C   0  0  0  0  0  0  0  0  0  0  0  0
    7.3676   -0.0800   18.9130 C   0  0  0  0  0  0  0  0  0  0  0  0
    6.9626    0.2764   17.8381 N   0  0  0  0  0  0  0  0  0  0  0  0
    5.8509    0.7357   18.2443 C   0  0  0  0  0  0  0  0  0  0  0  0
    5.3149    0.8393   19.3415 C   0  0  0  0  0  0  0  0  0  0  0  0
    5.8067    0.4011   20.5271 C   0  0  0  0  0  0  0  0  0  0  0  0
    5.4018    0.4333   21.5123 C   0  0  0  0  0  0  0  0  0  0  0  0
    6.1365   -5.9397   27.1739 H   0  0  0  0  0  0  0  0  0  0  0  0
    5.4894   -4.5077   26.3037 H   0  0  0  0  0  0  0  0  0  0  0  0
    5.9099   -5.9978   25.3930 H   0  0  0  0  0  0  0  0  0  0  0  0
    7.0992   -3.2784   24.6928 H   0  0  0  0  0  0  0  0  0  0  0  0
    9.6048   -3.7927   24.3384 H   0  0  0  0  0  0  0  0  0  0  0  0
   10.0393   -0.1039   25.6248 H   0  0  0  0  0  0  0  0  0  0  0  0
   12.1993    0.9025   25.2770 H   0  0  0  0  0  0  0  0  0  0  0  0
   13.7152    0.2152   24.1717 H   0  0  0  0  0  0  0  0  0  0  0  0
   13.4752   -1.7252   22.4862 H   0  0  0  0  0  0  0  0  0  0  0  0
   11.5291   -1.7239   21.8004 H   0  0  0  0  0  0  0  0  0  0  0  0
   11.7726   -2.8166   23.2051 H   0  0  0  0  0  0  0  0  0  0  0  0
    9.0903   -0.1866   23.2959 H   0  0  0  0  0  0  0  0  0  0  0  0
    7.4860   -1.5113   21.6657 H   0  0  0  0  0  0  0  0  0  0  0  0
    8.3545   -0.4724   18.7168 H   0  0  0  0  0  0  0  0  0  0  0  0
    5.2398    1.1222   17.4420 H   0  0  0  0  0  0  0  0  0  0  0  0
    4.3528    1.3294   19.3669 H   0  0  0  0  0  0  0  0  0  0  0  0
    4.8123   -0.4769   21.6970 H   0  0  0  0  0  0  0  0  0  0  0  0
    6.2212    0.4940   22.2436 H   0  0  0  0  0  0  0  0  0  0  0  0
    4.7538    1.3165   21.6136 H   0  0  0  0  0  0  0  0  0  0  0  0
 20 21  2  0  0  0  0
 19 20  1  0  0  0  0
 21 22  1  0  0  0  0
 18 19  2  0  0  0  0
 22 23  2  0  0  0  0
 18 23  1  0  0  0  0
 17 18  1  0  0  0  0
 23 24  1  0  0  0  0
 15 16  2  0  0  0  0
 15 17  1  0  0  0  0
 14 15  1  0  0  0  0
  8 14  1  0  0  0  0
  7 14  1  0  0  0  0
 12 13  1  0  0  0  0
  8 13  1  0  0  0  0
 11 12  2  0  0  0  0
  7  8  1  0  0  0  0
  8  9  1  0  0  0  0
  6  7  2  3  0  0  0
 10 11  1  0  0  0  0
  5  6  1  0  0  0  0
  9 10  2  0  0  0  0
  2  5  1  0  0  0  0
  2  3  2  0  0  0  0
  1  2  1  0  0  0  0
  2  4  2  0  0  0  0
  1 25  1  0  0  0  0
  1 26  1  0  0  0  0
  1 27  1  0  0  0  0
  5 28  1  0  0  0  0
  6 29  1  0  0  0  0
  9 30  1  0  0  0  0
 10 31  1  0  0  0  0
 11 32  1  0  0  0  0
 12 33  1  0  0  0  0
 13 34  1  0  0  0  0
 13 35  1  0  0  0  0
 14 36  1  0  0  0  0
 17 37  1  0  0  0  0
 19 38  1  0  0  0  0
 21 39  1  0  0  0  0
 22 40  1  0  0  0  0
 24 41  1  0  0  0  0
 24 42  1  0  0  0  0
 24 43  1  0  0  0  0
M  END
> <Chemgauss4>
-13.674834

$$$$
