stable:False satoms:5 tatoms:24 sratio:0.20833333333333334
  -OEChem-08062414323D

 43 45  0     1  0  0  0  0  0999 V2000
   -6.2885   -5.2384  -26.3301 C   0  0  0  0  0  0  0  0  0  0  0  0
   -8.1133   -4.5679  -26.0753 S   0  0  0  0  0  0  0  0  0  0  0  0
   -8.9514   -5.7100  -25.9696 O   0  0  0  0  0  0  0  0  0  0  0  0
   -8.3709   -3.7406  -27.1953 O   0  0  0  0  0  0  0  0  0  0  0  0
   -8.0052   -3.7469  -24.6820 N   0  0  0  0  0  0  0  0  0  0  0  0
   -8.8365   -3.0616  -24.2437 C   0  0  0  0  0  0  0  0  0  0  0  0
   -9.3714   -2.0732  -23.6978 C   0  0  0  0  0  0  0  0  0  0  0  0
  -10.3406   -1.2331  -23.5499 C   0  0  1  0  0  0  0  0  0  0  0  0
  -10.7856   -0.2381  -24.8831 C   0  0  0  0  0  0  0  0  0  0  0  0
  -12.0535    0.1772  -24.7368 C   0  0  0  0  0  0  0  0  0  0  0  0
  -12.8567   -0.1462  -24.1392 C   0  0  0  0  0  0  0  0  0  0  0  0
  -12.7229   -1.2460  -23.1271 C   0  0  0  0  0  0  0  0  0  0  0  0
  -11.7654   -1.6501  -22.9787 C   0  0  0  0  0  0  0  0  0  0  0  0
   -9.6707   -0.7476  -22.6622 C   0  0  3  0  0  0  0  0  0  0  0  0
   -9.0996   -0.0562  -21.6187 C   0  0  0  0  0  0  0  0  0  0  0  0
   -9.6429    0.8911  -21.2324 O   0  0  0  0  0  0  0  0  0  0  0  0
   -7.9431   -0.5981  -21.2619 N   0  0  0  0  0  0  0  0  0  0  0  0
   -7.3023   -0.1120  -20.3130 C   0  0  0  0  0  0  0  0  0  0  0  0
   -7.4695    0.0379  -19.0005 C   0  0  0  0  0  0  0  0  0  0  0  0
   -7.0645    0.3943  -17.9256 N   0  0  0  0  0  0  0  0  0  0  0  0
   -5.9528    0.8536  -18.3317 C   0  0  0  0  0  0  0  0  0  0  0  0
   -5.4167    0.9572  -19.4289 C   0  0  0  0  0  0  0  0  0  0  0  0
   -5.9086    0.5190  -20.6146 C   0  0  0  0  0  0  0  0  0  0  0  0
   -5.5037    0.5513  -21.5998 C   0  0  0  0  0  0  0  0  0  0  0  0
   -6.2384   -5.8217  -27.2613 H   0  0  0  0  0  0  0  0  0  0  0  0
   -5.5913   -4.3898  -26.3912 H   0  0  0  0  0  0  0  0  0  0  0  0
   -6.0117   -5.8799  -25.4804 H   0  0  0  0  0  0  0  0  0  0  0  0
   -7.2011   -3.1605  -24.7803 H   0  0  0  0  0  0  0  0  0  0  0  0
   -9.7067   -3.6747  -24.4258 H   0  0  0  0  0  0  0  0  0  0  0  0
  -10.1412    0.0140  -25.7123 H   0  0  0  0  0  0  0  0  0  0  0  0
  -12.3012    1.0205  -25.3644 H   0  0  0  0  0  0  0  0  0  0  0  0
  -13.8171    0.3331  -24.2591 H   0  0  0  0  0  0  0  0  0  0  0  0
  -13.5771   -1.6072  -22.5736 H   0  0  0  0  0  0  0  0  0  0  0  0
  -11.6310   -1.6060  -21.8878 H   0  0  0  0  0  0  0  0  0  0  0  0
  -11.8744   -2.6987  -23.2925 H   0  0  0  0  0  0  0  0  0  0  0  0
   -9.1922   -0.0687  -23.3834 H   0  0  0  0  0  0  0  0  0  0  0  0
   -7.5879   -1.3934  -21.7532 H   0  0  0  0  0  0  0  0  0  0  0  0
   -8.4564   -0.3544  -18.8042 H   0  0  0  0  0  0  0  0  0  0  0  0
   -5.3417    1.2401  -17.5295 H   0  0  0  0  0  0  0  0  0  0  0  0
   -4.4547    1.4473  -19.4543 H   0  0  0  0  0  0  0  0  0  0  0  0
   -4.9142   -0.3589  -21.7844 H   0  0  0  0  0  0  0  0  0  0  0  0
   -6.3231    0.6119  -22.3311 H   0  0  0  0  0  0  0  0  0  0  0  0
   -4.8557    1.4344  -21.7010 H   0  0  0  0  0  0  0  0  0  0  0  0
 20 21  2  0  0  0  0
 19 20  1  0  0  0  0
 21 22  1  0  0  0  0
 18 19  2  0  0  0  0
 22 23  2  0  0  0  0
 18 23  1  0  0  0  0
 17 18  1  0  0  0  0
 23 24  1  0  0  0  0
 15 16  2  0  0  0  0
 15 17  1  0  0  0  0
 14 15  1  0  0  0  0
  8 14  1  0  0  0  0
  7 14  1  0  0  0  0
 12 13  1  0  0  0  0
  8 13  1  0  0  0  0
 11 12  2  0  0  0  0
  7  8  1  0  0  0  0
  8  9  1  0  0  0  0
  6  7  2  3  0  0  0
 10 11  1  0  0  0  0
  5  6  1  0  0  0  0
  9 10  2  0  0  0  0
  2  5  1  0  0  0  0
  2  3  2  0  0  0  0
  1  2  1  0  0  0  0
  2  4  2  0  0  0  0
  1 25  1  0  0  0  0
  1 26  1  0  0  0  0
  1 27  1  0  0  0  0
  5 28  1  0  0  0  0
  6 29  1  0  0  0  0
  9 30  1  0  0  0  0
 10 31  1  0  0  0  0
 11 32  1  0  0  0  0
 12 33  1  0  0  0  0
 13 34  1  0  0  0  0
 13 35  1  0  0  0  0
 14 36  1  0  0  0  0
 17 37  1  0  0  0  0
 19 38  1  0  0  0  0
 21 39  1  0  0  0  0
 22 40  1  0  0  0  0
 24 41  1  0  0  0  0
 24 42  1  0  0  0  0
 24 43  1  0  0  0  0
M  END
> <Chemgauss4>
-13.563282

$$$$
