stable:False satoms:10 tatoms:24 sratio:0.4166666666666667
  -OEChem-08062404403D

 32 31  0     0  0  0  0  0  0999 V2000
    4.9483   -4.8490   24.2185 H   0  0  0  0  0  0  0  0  0  0  0  0
    4.9239   -4.2632   23.2906 C   0  0  0  0  0  0  0  0  0  0  0  0
    3.9172   -3.8361   23.1854 H   0  0  0  0  0  0  0  0  0  0  0  0
    5.1189   -4.9165   22.4217 H   0  0  0  0  0  0  0  0  0  0  0  0
    5.9701   -3.2835   23.4047 N   0  0  0  0  0  0  0  0  0  0  0  0
    6.3936   -2.3510   22.8339 C   0  0  0  0  0  0  0  0  0  0  0  0
    7.0625   -1.5316   22.4542 N   0  3  0  0  0  0  0  0  0  0  0  0
    7.2498   -0.7766   21.4017 C   0  0  0  0  0  0  0  0  0  0  0  0
    6.6419   -0.6115   20.2520 C   0  0  0  0  0  0  0  0  0  0  0  0
    6.0756   -0.0764   18.4360 C   0  0  0  0  0  0  0  0  0  0  0  0
    5.8992    0.0433   17.4216 O   0  0  0  0  0  0  0  0  0  0  0  0
    5.4222    0.9955   19.9646 H   0  0  0  0  0  0  0  0  0  0  0  0
    5.9995    0.1520   19.6291 C   0  0  0  0  0  0  0  0  0  0  0  0
    8.1241    0.1519   21.2800 N   0  3  0  0  0  0  0  0  0  0  0  0
    9.1765   -0.1701   21.7547 N   0  0  0  0  0  0  0  0  0  0  0  0
   10.1357    1.7936   21.6296 O   0  0  0  0  0  0  0  0  0  0  0  0
    9.7909    0.0434   22.7661 N   0  0  0  0  0  0  0  0  0  0  0  0
   11.3475    1.5416   23.6866 C   0  0  0  0  0  0  0  0  0  0  0  0
   10.4241    1.2347   22.6998 C   0  0  0  0  0  0  0  0  0  0  0  0
   11.6037    2.5596   23.9353 H   0  0  0  0  0  0  0  0  0  0  0  0
   12.8391    0.8272   24.9451 H   0  0  0  0  0  0  0  0  0  0  0  0
   12.0210    0.5561   24.3269 C   0  0  0  0  0  0  0  0  0  0  0  0
   11.6523   -0.6725   24.1211 C   0  0  0  0  0  2  0  0  0  0  0  0
   11.3188   -1.5601   23.8789 H   0  0  0  0  0  0  0  0  0  0  0  0
    6.5057   -3.4500   24.2326 H   0  0  0  0  0  0  0  0  0  0  0  0
    5.5074   -2.1002   22.2698 H   0  0  0  0  0  0  0  0  0  0  0  0
    6.7823   -1.5036   19.6596 H   0  0  0  0  0  0  0  0  0  0  0  0
    7.1730   -0.0342   18.3741 H   0  0  0  0  0  0  0  0  0  0  0  0
    5.7516   -1.1261   18.4925 H   0  0  0  0  0  0  0  0  0  0  0  0
    6.3711   -0.6236   16.9367 H   0  0  0  0  0  0  0  0  0  0  0  0
    7.7402   -1.3034   23.1532 H   0  0  0  0  0  0  0  0  0  0  0  0
    7.9502    1.0347   20.8437 H   0  0  0  0  0  0  0  0  0  0  0  0
 18 20  1  0  0  0  0
 21 22  1  0  0  0  0
 18 22  2  0  0  0  0
 18 19  1  0  0  0  0
 22 23  1  0  0  0  0
 16 19  2  0  0  0  0
 17 19  1  0  0  0  0
 23 24  1  0  0  0  0
 15 17  2  3  0  0  0
 14 15  1  0  0  0  0
  8 14  2  3  0  0  0
 12 13  1  0  0  0  0
  7  8  1  0  0  0  0
  8  9  1  0  0  0  0
  9 13  2  0  0  0  0
 10 13  1  0  0  0  0
  6  7  2  0  0  0  0
 10 11  1  0  0  0  0
  5  6  1  0  0  0  0
  2  5  1  0  0  0  0
  2  3  1  0  0  0  0
  1  2  1  0  0  0  0
  2  4  1  0  0  0  0
  5 25  1  0  0  0  0
  6 26  1  0  0  0  0
  9 27  1  0  0  0  0
 10 28  1  0  0  0  0
 10 29  1  0  0  0  0
 11 30  1  0  0  0  0
  7 31  1  0  0  0  0
 14 32  1  0  0  0  0
M  CHG  2   7   1  14   1
M  END
> <Chemgauss4>
-5.690020

$$$$
