stable:False satoms:10 tatoms:24 sratio:0.4166666666666667
  -OEChem-08062404403D

 32 31  0     0  0  0  0  0  0999 V2000
   -6.8579   -5.0121  -26.1451 H   0  0  0  0  0  0  0  0  0  0  0  0
   -7.8333   -4.6024  -25.8525 C   0  0  0  0  0  0  0  0  0  0  0  0
   -8.5303   -5.4423  -25.7273 H   0  0  0  0  0  0  0  0  0  0  0  0
   -8.2227   -3.9404  -26.6461 H   0  0  0  0  0  0  0  0  0  0  0  0
   -7.6075   -3.8410  -24.6538 N   0  0  0  0  0  0  0  0  0  0  0  0
   -8.2089   -3.2577  -23.8336 C   0  0  0  0  0  0  0  0  0  0  0  0
   -8.5022   -2.5537  -23.0082 N   0  3  0  0  0  0  0  0  0  0  0  0
   -9.5421   -1.9119  -22.5395 C   0  0  0  0  0  0  0  0  0  0  0  0
  -10.8168   -1.8555  -22.8404 C   0  0  0  0  0  0  0  0  0  0  0  0
  -12.7469   -1.4504  -22.9639 C   0  0  0  0  0  0  0  0  0  0  0  0
  -13.6979   -1.0907  -23.1660 O   0  0  0  0  0  0  0  0  0  0  0  0
  -12.1764   -2.8745  -21.7153 H   0  0  0  0  0  0  0  0  0  0  0  0
  -11.8885   -2.1443  -22.4510 C   0  0  0  0  0  0  0  0  0  0  0  0
   -9.5692   -1.1729  -21.4934 N   0  3  0  0  0  0  0  0  0  0  0  0
   -8.5868   -0.4913  -21.4109 N   0  0  0  0  0  0  0  0  0  0  0  0
   -8.9434    0.2430  -19.3798 O   0  0  0  0  0  0  0  0  0  0  0  0
   -7.5556   -0.5002  -20.7924 N   0  0  0  0  0  0  0  0  0  0  0  0
   -6.6212    0.2449  -18.7708 C   0  0  0  0  0  0  0  0  0  0  0  0
   -7.7407   -0.0158  -19.5451 C   0  0  0  0  0  0  0  0  0  0  0  0
   -6.6604    0.2588  -17.6928 H   0  0  0  0  0  0  0  0  0  0  0  0
   -4.6597    0.9306  -18.7381 H   0  0  0  0  0  0  0  0  0  0  0  0
   -5.4427    0.5683  -19.3550 C   0  0  0  0  0  0  0  0  0  0  0  0
   -5.3456    0.4524  -20.6453 C   0  0  0  0  0  2  0  0  0  0  0  0
   -5.3826    0.3592  -21.6188 H   0  0  0  0  0  0  0  0  0  0  0  0
   -6.6280   -3.7943  -24.4578 H   0  0  0  0  0  0  0  0  0  0  0  0
   -9.1631   -3.7459  -23.9659 H   0  0  0  0  0  0  0  0  0  0  0  0
  -10.9212   -1.3636  -23.7962 H   0  0  0  0  0  0  0  0  0  0  0  0
  -12.3105   -0.4832  -22.6740 H   0  0  0  0  0  0  0  0  0  0  0  0
  -12.4785   -1.6761  -24.0065 H   0  0  0  0  0  0  0  0  0  0  0  0
  -13.6424   -0.3876  -23.8024 H   0  0  0  0  0  0  0  0  0  0  0  0
   -7.7022   -2.3496  -22.4439 H   0  0  0  0  0  0  0  0  0  0  0  0
  -10.3165   -1.1656  -20.8290 H   0  0  0  0  0  0  0  0  0  0  0  0
 18 20  1  0  0  0  0
 21 22  1  0  0  0  0
 18 22  2  0  0  0  0
 18 19  1  0  0  0  0
 22 23  1  0  0  0  0
 16 19  2  0  0  0  0
 17 19  1  0  0  0  0
 23 24  1  0  0  0  0
 15 17  2  3  0  0  0
 14 15  1  0  0  0  0
  8 14  2  3  0  0  0
 12 13  1  0  0  0  0
  7  8  1  0  0  0  0
  8  9  1  0  0  0  0
  9 13  2  0  0  0  0
 10 13  1  0  0  0  0
  6  7  2  0  0  0  0
 10 11  1  0  0  0  0
  5  6  1  0  0  0  0
  2  5  1  0  0  0  0
  2  3  1  0  0  0  0
  1  2  1  0  0  0  0
  2  4  1  0  0  0  0
  5 25  1  0  0  0  0
  6 26  1  0  0  0  0
  9 27  1  0  0  0  0
 10 28  1  0  0  0  0
 10 29  1  0  0  0  0
 11 30  1  0  0  0  0
  7 31  1  0  0  0  0
 14 32  1  0  0  0  0
M  CHG  2   7   1  14   1
M  END
> <Chemgauss4>
-5.720944

$$$$
