stable:False satoms:19 tatoms:24 sratio:0.7916666666666666
  -OEChem-07092417373D

 24 25  0     1  0  0  0  0  0999 V2000
    7.2827   -4.4441   26.3187 H   0  0  0  0  0  0  0  0  0  0  0  0
    8.4139   -4.3620   26.2038 C   0  0  0  0  0  0  0  0  0  0  0  0
    8.9136   -5.4583   26.1995 O   0  0  0  0  0  0  0  0  0  0  0  0
    8.8303   -3.7811   27.0794 H   0  0  0  0  0  0  0  0  0  0  0  0
    8.6551   -3.6212   24.9739 N   0  3  0  0  0  0  0  0  0  0  0  0
    9.4071   -2.8872   24.6540 C   0  0  0  0  0  0  0  0  0  0  0  0
    9.3276   -1.4818   23.1138 N   0  0  0  0  0  0  0  0  0  0  0  0
   10.0646   -1.6485   24.0122 C   0  0  0  0  0  0  0  0  0  0  0  0
   11.2084   -0.6543   24.1766 C   0  0  0  0  0  0  0  0  0  0  0  0
   11.4242   -0.0162   25.0011 H   0  0  0  0  0  0  0  0  0  0  0  0
   13.0360   -0.3502   22.9771 H   0  0  0  0  0  0  0  0  0  0  0  0
   11.9917   -0.6422   23.0432 C   0  3  0  0  0  0  0  0  0  0  0  0
   11.2660   -1.0239   22.0155 O   0  0  0  0  0  0  0  0  0  0  0  0
    9.9181   -0.8000   22.1798 C   0  0  3  0  0  0  0  0  0  0  0  0
    9.1096    0.0375   21.2763 C   0  0  0  0  0  0  0  0  0  0  0  0
    9.5374    1.0907   20.8345 O   0  0  0  0  0  0  0  0  0  0  0  0
    7.9039   -0.5173   21.0952 N   0  0  0  0  0  0  0  0  0  0  0  0
    7.1233   -0.0316   20.1129 C   0  0  0  0  0  0  0  0  0  0  0  0
    7.4749   -0.1010   18.8274 N   0  0  0  0  0  0  0  0  0  0  0  0
    6.6814    0.3706   17.8814 N   0  0  0  0  0  0  0  0  0  0  0  0
    5.5826    0.9355   18.1435 N   0  0  0  0  0  0  0  0  0  0  0  0
    5.1593    1.0462   19.3911 N   0  0  0  0  0  0  0  0  0  0  0  0
    5.8306    0.5172   20.3817 C   0  0  0  0  0  0  0  0  0  0  0  0
    5.4419    0.5332   21.4044 H   0  0  0  0  0  0  0  0  0  0  0  0
 20 21  2  0  0  0  0
 19 20  1  0  0  0  0
 21 22  1  0  0  0  0
 18 19  2  0  0  0  0
 22 23  2  0  0  0  0
 18 23  1  0  0  0  0
 17 18  1  0  0  0  0
 23 24  1  0  0  0  0
 15 16  2  0  0  0  0
 15 17  1  0  0  0  0
 14 15  1  0  0  0  0
 13 14  1  0  0  0  0
 12 13  1  0  0  0  0
  7 14  1  0  0  0  0
 11 12  1  0  0  0  0
  9 12  1  0  0  0  0
  7  8  1  0  0  0  0
  8  9  2  0  0  0  0
  6  8  1  0  0  0  0
  9 10  1  0  0  0  0
  5  6  1  0  0  0  0
  2  5  1  0  0  0  0
  2  3  1  0  0  0  0
  1  2  1  0  0  0  0
  2  4  1  0  0  0  0
M  CHG  2   5   1  12   1
M  END
> <Shapegauss>
-227.461868

$$$$
