stable:False satoms:13 tatoms:24 sratio:0.5416666666666666
  -OEChem-07092417393D

 24 23  0     1  0  0  0  0  0999 V2000
    6.5292   -4.9000   26.2818 Cl  0  0  0  0  0  0  0  0  0  0  0  0
    8.3071   -4.2841   26.0151 S   0  0  0  0  0  0  0  0  0  0  0  0
    9.1614   -5.4377   25.9591 O   0  0  0  0  0  0  0  0  0  0  0  0
    8.5841   -3.3081   26.9832 O   0  0  0  0  0  0  0  0  0  0  0  0
    8.1956   -3.6044   24.5618 N   0  0  0  0  0  0  0  0  0  0  0  0
    9.2198   -3.0547   24.1400 C   0  0  0  0  0  0  0  0  0  0  0  0
    9.7921   -2.1760   23.7719 N   0  0  0  0  0  0  0  0  0  0  0  0
   10.5908   -0.8035   22.2870 N   0  3  0  0  0  0  0  0  0  0  0  0
   11.4699   -0.5137   24.2420 C   0  0  0  0  0  0  0  0  0  0  0  0
   13.1008    0.4814   24.7271 H   0  0  0  0  0  0  0  0  0  0  0  0
   12.6495   -0.1525   24.0207 C   0  0  0  0  0  0  0  0  0  0  0  0
   13.1201   -0.5196   23.1247 H   0  0  0  0  0  0  0  0  0  0  0  0
   10.6869   -1.2250   23.4252 C   0  0  0  0  0  0  0  0  0  0  0  0
    9.4893   -0.6548   21.9115 N   0  0  0  0  0  0  0  0  0  0  0  0
    8.9984    0.0998   20.9202 C   0  0  0  0  0  0  0  0  0  0  0  0
    9.5917    1.0451   20.5428 O   0  0  0  0  0  0  0  0  0  0  0  0
    7.4871   -1.3383   20.8127 H   0  0  0  0  0  0  0  0  0  0  0  0
    6.5372    0.2816   19.9092 C   0  0  0  0  0  0  0  0  0  0  0  0
    7.6636   -0.3537   20.4239 C   0  5  2  0  0  0  0  0  0  0  0  0
    6.4704    0.3935   17.6734 H   0  0  0  0  0  0  0  0  0  0  0  0
    5.9524    0.6037   18.5454 C   0  5  0  0  0  0  0  0  0  0  0  0
    4.9909    0.9846   18.5420 H   0  0  0  0  0  0  0  0  0  0  0  0
    5.7477    0.5486   20.8352 C   0  5  0  0  0  0  0  0  0  0  0  0
    5.2482    0.5977   21.6410 H   0  0  0  0  0  0  0  0  0  0  0  0
 20 21  1  0  0  0  0
 21 22  1  0  0  0  0
 18 21  1  0  0  0  0
 18 19  1  0  0  0  0
 18 23  2  0  0  0  0
 17 19  1  0  0  0  0
 15 19  1  0  0  0  0
 15 16  2  0  0  0  0
 23 24  1  0  0  0  0
 14 15  1  0  0  0  0
  8 14  2  0  0  0  0
  8 13  2  0  0  0  0
 11 12  1  0  0  0  0
  7 13  1  0  0  0  0
  9 13  1  0  0  0  0
  6  7  2  0  0  0  0
  9 11  2  0  0  0  0
 10 11  1  0  0  0  0
  5  6  1  0  0  0  0
  2  5  1  0  0  0  0
  2  3  2  0  0  0  0
  1  2  1  0  0  0  0
  2  4  2  0  0  0  0
M  CHG  4   8   1  19  -1  21  -1  23  -1
M  END
> <Shapegauss>
-211.232010

$$$$
