REMARK  7 active torsions:
REMARK  status: ('A' for Active; 'I' for Inactive)
REMARK    1  A    between atoms: S_2  and  N_5 
REMARK    2  A    between atoms: C_7  and  N_8 
REMARK    3  A    between atoms: N_8  and  C_13 
REMARK    4  A    between atoms: N_9  and  C_13 
REMARK    5  A    between atoms: C_11  and  C_13 
REMARK       I    between atoms: N_14  and  C_16 
REMARK    6  A    between atoms: C_16  and  C_19 
REMARK    7  A    between atoms: C_18  and  C_19 
ROOT
HETATM    1  C   UNL     1      10.687  -1.225  23.425  1.00  0.00     0.193 C 
ENDROOT
BRANCH   1   2
HETATM    2  N   UNL     1       9.792  -2.176  23.772  1.00  0.00    -0.381 NA
BRANCH   2   3
HETATM    3  C   UNL     1       9.220  -3.055  24.140  1.00  0.00     0.288 C 
HETATM    4  N   UNL     1       8.196  -3.604  24.562  1.00  0.00    -0.256 N 
ATOM      5  HN  UNL     1       7.332  -3.624  24.021  1.00  0.00     0.181 HD
BRANCH   4   6
HETATM    6  S   UNL     1       8.307  -4.284  26.015  1.00  0.00     0.322 S 
HETATM    7 CL   UNL     1       6.529  -4.900  26.282  1.00  0.00     0.041 Cl
HETATM    8  O   UNL     1       9.161  -5.438  25.959  1.00  0.00    -0.188 OA
HETATM    9  O   UNL     1       8.584  -3.308  26.983  1.00  0.00    -0.188 OA
ENDBRANCH   4   6
ENDBRANCH   2   3
ENDBRANCH   1   2
BRANCH   1  10
HETATM   10  N   UNL     1      10.591  -0.803  22.287  1.00  0.00    -0.271 N 
HETATM   11  N   UNL     1       9.489  -0.655  21.912  1.00  0.00    -0.264 N 
HETATM   12  C   UNL     1       8.998   0.100  20.920  1.00  0.00     0.261 C 
ATOM     13  HN  UNL     1       8.789  -1.190  22.426  1.00  0.00     0.190 HD
HETATM   14  O   UNL     1       9.592   1.045  20.543  1.00  0.00    -0.267 OA
ATOM     15  HN  UNL     1      11.403  -0.595  21.706  1.00  0.00     0.189 HD
BRANCH  12  16
HETATM   16  C   UNL     1       7.664  -0.354  20.424  1.00  0.00     0.093 C 
BRANCH  16  17
HETATM   17  C   UNL     1       6.537   0.282  19.909  1.00  0.00    -0.009 C 
HETATM   18  C   UNL     1       5.952   0.604  18.545  1.00  0.00     0.031 C 
HETATM   19  C   UNL     1       5.748   0.549  20.835  1.00  0.00    -0.036 C 
ENDBRANCH  16  17
ENDBRANCH  12  16
ENDBRANCH   1  10
BRANCH   1  20
HETATM   20  C   UNL     1      11.470  -0.514  24.242  1.00  0.00     0.055 C 
HETATM   21  C   UNL     1      12.649  -0.152  24.021  1.00  0.00     0.016 C 
ENDBRANCH   1  20
TORSDOF 7
