MODEL 1
REMARK VINA RESULT:    -4.650      0.000      0.000
REMARK INTER + INTRA:          -5.564
REMARK INTER:                  -5.329
REMARK INTRA:                  -0.235
REMARK UNBOUND:                -0.235
REMARK  4 active torsions:
REMARK  status: ('A' for Active; 'I' for Inactive)
REMARK    1  A    between atoms: C_2  and  C_7 
REMARK    2  A    between atoms: C_2  and  N_3 
REMARK    3  A    between atoms: C_4  and  C_8 
REMARK    4  A    between atoms: C_8  and  N_11 
ROOT
HETATM    1  S   UNL     1       8.199  17.056   2.099  1.00  0.00     0.045 SA
HETATM    2  N   UNL     1       7.621  15.710   2.720  1.00  0.00    -0.280 N 
HETATM    3  C   UNL     1       8.830  15.463   2.187  1.00  0.00     0.252 A 
HETATM    4  O   UNL     1       9.637  15.270   1.253  1.00  0.00    -0.267 OA
ENDROOT
BRANCH   3   5
HETATM    5  C   UNL     1       9.692  14.253   3.198  1.00  0.00     0.364 C 
BRANCH   5   6
HETATM    6  N   UNL     1      10.963  14.712   3.492  1.00  0.00     0.014 N 
HETATM    7  N   UNL     1      11.756  15.934   4.221  1.00  0.00    -0.125 NA
HETATM    8  H   UNL     1      11.113  16.672   3.993  1.00  0.00     0.155 HD
HETATM    9  C   UNL     1      11.124  14.939   4.844  1.00  0.00     0.373 A 
HETATM   10  H   UNL     1      11.690  14.555   2.835  1.00  0.00     0.304 HD
ENDBRANCH   5   6
ENDBRANCH   3   5
BRANCH   2  11
HETATM   11  C   UNL     1       6.644  14.586   2.994  1.00  0.00     0.140 C 
BRANCH  11  12
HETATM   12  C   UNL     1       6.493  13.118   2.349  1.00  0.00     0.016 C 
HETATM   13  C   UNL     1       6.704  12.892   0.861  1.00  0.00     0.006 C 
ENDBRANCH  11  12
ENDBRANCH   2  11
TORSDOF 4
ENDMDL
MODEL 2
REMARK VINA RESULT:    -4.507      2.517      3.628
REMARK INTER + INTRA:          -5.400
REMARK INTER:                  -5.077
REMARK INTRA:                  -0.323
REMARK UNBOUND:                -0.235
REMARK  4 active torsions:
REMARK  status: ('A' for Active; 'I' for Inactive)
REMARK    1  A    between atoms: C_2  and  C_7 
REMARK    2  A    between atoms: C_2  and  N_3 
REMARK    3  A    between atoms: C_4  and  C_8 
REMARK    4  A    between atoms: C_8  and  N_11 
ROOT
HETATM    1  S   UNL     1      10.326  15.914   4.943  1.00  0.00     0.045 SA
HETATM    2  N   UNL     1       9.055  16.134   4.012  1.00  0.00    -0.280 N 
HETATM    3  C   UNL     1       9.810  15.149   3.496  1.00  0.00     0.252 A 
HETATM    4  O   UNL     1      10.794  14.677   2.887  1.00  0.00    -0.267 OA
ENDROOT
BRANCH   3   5
HETATM    5  C   UNL     1       8.744  13.900   2.767  1.00  0.00     0.364 C 
BRANCH   5   6
HETATM    6  N   UNL     1       9.024  12.666   3.323  1.00  0.00     0.014 N 
HETATM    7  N   UNL     1       8.478  11.592   4.419  1.00  0.00    -0.125 NA
HETATM    8  H   UNL     1       8.106  12.248   5.083  1.00  0.00     0.155 HD
HETATM    9  C   UNL     1       7.955  11.800   3.211  1.00  0.00     0.373 A 
HETATM   10  H   UNL     1       9.974  12.408   3.457  1.00  0.00     0.304 HD
ENDBRANCH   5   6
ENDBRANCH   3   5
BRANCH   2  11
HETATM   11  C   UNL     1       8.037  16.865   3.161  1.00  0.00     0.140 C 
BRANCH  11  12
HETATM   12  C   UNL     1       7.978  17.159   1.578  1.00  0.00     0.016 C 
HETATM   13  C   UNL     1       8.988  18.082   0.916  1.00  0.00     0.006 C 
ENDBRANCH  11  12
ENDBRANCH   2  11
TORSDOF 4
ENDMDL
MODEL 3
REMARK VINA RESULT:    -4.368     25.175     26.008
REMARK INTER + INTRA:          -5.241
REMARK INTER:                  -4.811
REMARK INTRA:                  -0.430
REMARK UNBOUND:                -0.235
REMARK  4 active torsions:
REMARK  status: ('A' for Active; 'I' for Inactive)
REMARK    1  A    between atoms: C_2  and  C_7 
REMARK    2  A    between atoms: C_2  and  N_3 
REMARK    3  A    between atoms: C_4  and  C_8 
REMARK    4  A    between atoms: C_8  and  N_11 
ROOT
HETATM    1  S   UNL     1      12.188  -1.420  22.960  1.00  0.00     0.045 SA
HETATM    2  N   UNL     1      10.868  -1.171  23.812  1.00  0.00    -0.280 N 
HETATM    3  C   UNL     1      11.755  -0.199  24.085  1.00  0.00     0.252 A 
HETATM    4  O   UNL     1      12.782   0.282  24.611  1.00  0.00    -0.267 OA
ENDROOT
BRANCH   3   5
HETATM    5  C   UNL     1      10.882   1.350  24.343  1.00  0.00     0.364 C 
BRANCH   5   6
HETATM    6  N   UNL     1      10.964   2.127  23.203  1.00  0.00     0.014 N 
HETATM    7  N   UNL     1      10.559   2.147  21.625  1.00  0.00    -0.125 NA
HETATM    8  H   UNL     1      10.666   1.165  21.442  1.00  0.00     0.155 HD
HETATM    9  C   UNL     1       9.722   2.345  22.643  1.00  0.00     0.373 A 
HETATM   10  H   UNL     1      11.775   2.683  23.062  1.00  0.00     0.304 HD
ENDBRANCH   5   6
ENDBRANCH   3   5
BRANCH   2  11
HETATM   11  C   UNL     1       9.717  -1.464  24.752  1.00  0.00     0.140 C 
BRANCH  11  12
HETATM   12  C   UNL     1       8.236  -2.038  24.485  1.00  0.00     0.016 C 
HETATM   13  C   UNL     1       8.029  -3.412  23.869  1.00  0.00     0.006 C 
ENDBRANCH  11  12
ENDBRANCH   2  11
TORSDOF 4
ENDMDL
MODEL 4
REMARK VINA RESULT:    -4.358     31.226     32.684
REMARK INTER + INTRA:          -5.230
REMARK INTER:                  -4.859
REMARK INTRA:                  -0.371
REMARK UNBOUND:                -0.235
REMARK  4 active torsions:
REMARK  status: ('A' for Active; 'I' for Inactive)
REMARK    1  A    between atoms: C_2  and  C_7 
REMARK    2  A    between atoms: C_2  and  N_3 
REMARK    3  A    between atoms: C_4  and  C_8 
REMARK    4  A    between atoms: C_8  and  N_11 
ROOT
HETATM    1  S   UNL     1      24.919  -2.462  24.331  1.00  0.00     0.045 SA
HETATM    2  N   UNL     1      23.450  -2.701  24.892  1.00  0.00    -0.280 N 
HETATM    3  C   UNL     1      23.865  -3.815  24.263  1.00  0.00     0.252 A 
HETATM    4  O   UNL     1      24.135  -4.518  23.266  1.00  0.00    -0.267 OA
ENDROOT
BRANCH   3   5
HETATM    5  C   UNL     1      23.233  -5.258  25.126  1.00  0.00     0.364 C 
BRANCH   5   6
HETATM    6  N   UNL     1      24.262  -5.884  25.805  1.00  0.00     0.014 N 
HETATM    7  N   UNL     1      24.592  -7.180  26.735  1.00  0.00    -0.125 NA
HETATM    8  H   UNL     1      23.712  -7.234  27.216  1.00  0.00     0.155 HD
HETATM    9  C   UNL     1      24.406  -7.199  25.415  1.00  0.00     0.373 A 
HETATM   10  H   UNL     1      24.957  -5.323  26.239  1.00  0.00     0.304 HD
ENDBRANCH   5   6
ENDBRANCH   3   5
BRANCH   2  11
HETATM   11  C   UNL     1      21.978  -2.453  25.148  1.00  0.00     0.140 C 
BRANCH  11  12
HETATM   12  C   UNL     1      21.064  -1.140  24.958  1.00  0.00     0.016 C 
HETATM   13  C   UNL     1      21.690   0.242  24.870  1.00  0.00     0.006 C 
ENDBRANCH  11  12
ENDBRANCH   2  11
TORSDOF 4
ENDMDL
MODEL 5
REMARK VINA RESULT:    -4.229     24.295     25.352
REMARK INTER + INTRA:          -5.083
REMARK INTER:                  -4.764
REMARK INTRA:                  -0.319
REMARK UNBOUND:                -0.235
REMARK  4 active torsions:
REMARK  status: ('A' for Active; 'I' for Inactive)
REMARK    1  A    between atoms: C_2  and  C_7 
REMARK    2  A    between atoms: C_2  and  N_3 
REMARK    3  A    between atoms: C_4  and  C_8 
REMARK    4  A    between atoms: C_8  and  N_11 
ROOT
HETATM    1  S   UNL     1      11.226   3.099  23.677  1.00  0.00     0.045 SA
HETATM    2  N   UNL     1      11.394   1.528  23.861  1.00  0.00    -0.280 N 
HETATM    3  C   UNL     1      10.109   1.860  24.077  1.00  0.00     0.252 A 
HETATM    4  O   UNL     1       9.158   2.336  24.734  1.00  0.00    -0.267 OA
ENDROOT
BRANCH   3   5
HETATM    5  C   UNL     1       9.043   0.554  23.456  1.00  0.00     0.364 C 
BRANCH   5   6
HETATM    6  N   UNL     1       8.827   0.734  22.102  1.00  0.00     0.014 N 
HETATM    7  N   UNL     1       9.160   0.083  20.646  1.00  0.00    -0.125 NA
HETATM    8  H   UNL     1      10.078  -0.265  20.856  1.00  0.00     0.155 HD
HETATM    9  C   UNL     1       8.270  -0.386  21.520  1.00  0.00     0.373 A 
HETATM   10  H   UNL     1       8.789   1.660  21.744  1.00  0.00     0.304 HD
ENDBRANCH   5   6
ENDBRANCH   3   5
BRANCH   2  11
HETATM   11  C   UNL     1      11.958   0.217  24.368  1.00  0.00     0.140 C 
BRANCH  11  12
HETATM   12  C   UNL     1      13.367  -0.517  24.103  1.00  0.00     0.016 C 
HETATM   13  C   UNL     1      13.446  -1.774  23.253  1.00  0.00     0.006 C 
ENDBRANCH  11  12
ENDBRANCH   2  11
TORSDOF 4
ENDMDL
MODEL 6
REMARK VINA RESULT:    -4.170     33.676     34.439
REMARK INTER + INTRA:          -5.014
REMARK INTER:                  -4.655
REMARK INTRA:                  -0.359
REMARK UNBOUND:                -0.235
REMARK  4 active torsions:
REMARK  status: ('A' for Active; 'I' for Inactive)
REMARK    1  A    between atoms: C_2  and  C_7 
REMARK    2  A    between atoms: C_2  and  N_3 
REMARK    3  A    between atoms: C_4  and  C_8 
REMARK    4  A    between atoms: C_8  and  N_11 
ROOT
HETATM    1  S   UNL     1       0.103 -17.503   6.599  1.00  0.00     0.045 SA
HETATM    2  N   UNL     1       0.144 -16.973   8.098  1.00  0.00    -0.280 N 
HETATM    3  C   UNL     1       0.496 -18.270   8.083  1.00  0.00     0.252 A 
HETATM    4  O   UNL     1       0.285 -19.499   7.998  1.00  0.00    -0.267 OA
ENDROOT
BRANCH   3   5
HETATM    5  C   UNL     1       1.762 -18.559   9.324  1.00  0.00     0.364 C 
BRANCH   5   6
HETATM    6  N   UNL     1       3.010 -18.541   8.730  1.00  0.00     0.014 N 
HETATM    7  N   UNL     1       4.602 -18.495   9.075  1.00  0.00    -0.125 NA
HETATM    8  H   UNL     1       4.549 -17.923   9.899  1.00  0.00     0.155 HD
HETATM    9  C   UNL     1       3.813 -19.563   9.194  1.00  0.00     0.373 A 
HETATM   10  H   UNL     1       3.123 -18.052   7.873  1.00  0.00     0.304 HD
ENDBRANCH   5   6
ENDBRANCH   3   5
BRANCH   2  11
HETATM   11  C   UNL     1      -0.328 -16.307   9.374  1.00  0.00     0.140 C 
BRANCH  11  12
HETATM   12  C   UNL     1      -1.014 -16.904  10.703  1.00  0.00     0.016 C 
HETATM   13  C   UNL     1      -2.493 -16.691  10.983  1.00  0.00     0.006 C 
ENDBRANCH  11  12
ENDBRANCH   2  11
TORSDOF 4
ENDMDL
MODEL 7
REMARK VINA RESULT:    -4.094     23.264     24.137
REMARK INTER + INTRA:          -4.927
REMARK INTER:                  -4.504
REMARK INTRA:                  -0.423
REMARK UNBOUND:                -0.235
REMARK  4 active torsions:
REMARK  status: ('A' for Active; 'I' for Inactive)
REMARK    1  A    between atoms: C_2  and  C_7 
REMARK    2  A    between atoms: C_2  and  N_3 
REMARK    3  A    between atoms: C_4  and  C_8 
REMARK    4  A    between atoms: C_8  and  N_11 
ROOT
HETATM    1  S   UNL     1       8.008  -1.078  21.900  1.00  0.00     0.045 SA
HETATM    2  N   UNL     1       7.774   0.325  22.610  1.00  0.00    -0.280 N 
HETATM    3  C   UNL     1       7.665   0.485  21.280  1.00  0.00     0.252 A 
HETATM    4  O   UNL     1       8.100   0.587  20.113  1.00  0.00    -0.267 OA
ENDROOT
BRANCH   3   5
HETATM    5  C   UNL     1       6.393   1.703  20.927  1.00  0.00     0.364 C 
BRANCH   5   6
HETATM    6  N   UNL     1       5.285   1.078  20.387  1.00  0.00     0.014 N 
HETATM    7  N   UNL     1       3.731   1.340  19.971  1.00  0.00    -0.125 NA
HETATM    8  H   UNL     1       3.501   1.992  20.699  1.00  0.00     0.155 HD
HETATM    9  C   UNL     1       4.798   1.757  19.289  1.00  0.00     0.373 A 
HETATM   10  H   UNL     1       5.127   0.120  20.600  1.00  0.00     0.304 HD
ENDBRANCH   5   6
ENDBRANCH   3   5
BRANCH   2  11
HETATM   11  C   UNL     1       8.031   1.509  23.520  1.00  0.00     0.140 C 
BRANCH  11  12
HETATM   12  C   UNL     1       9.091   1.733  24.712  1.00  0.00     0.016 C 
HETATM   13  C   UNL     1      10.403   0.967  24.746  1.00  0.00     0.006 C 
ENDBRANCH  11  12
ENDBRANCH   2  11
TORSDOF 4
ENDMDL
MODEL 8
REMARK VINA RESULT:    -4.092     35.637     36.492
REMARK INTER + INTRA:          -4.925
REMARK INTER:                  -4.512
REMARK INTRA:                  -0.413
REMARK UNBOUND:                -0.235
REMARK  4 active torsions:
REMARK  status: ('A' for Active; 'I' for Inactive)
REMARK    1  A    between atoms: C_2  and  C_7 
REMARK    2  A    between atoms: C_2  and  N_3 
REMARK    3  A    between atoms: C_4  and  C_8 
REMARK    4  A    between atoms: C_8  and  N_11 
ROOT
HETATM    1  S   UNL     1      -0.278 -21.644   9.416  1.00  0.00     0.045 SA
HETATM    2  N   UNL     1       1.197 -21.140   9.098  1.00  0.00    -0.280 N 
HETATM    3  C   UNL     1       0.317 -20.214   8.677  1.00  0.00     0.252 A 
HETATM    4  O   UNL     1      -0.546 -19.740   7.907  1.00  0.00    -0.267 OA
ENDROOT
BRANCH   3   5
HETATM    5  C   UNL     1       1.004 -18.575   8.938  1.00  0.00     0.364 C 
BRANCH   5   6
HETATM    6  N   UNL     1       0.434 -18.003  10.060  1.00  0.00     0.014 N 
HETATM    7  N   UNL     1       0.682 -16.857  11.191  1.00  0.00    -0.125 NA
HETATM    8  H   UNL     1       1.681 -16.940  11.255  1.00  0.00     0.155 HD
HETATM    9  C   UNL     1       0.311 -16.635   9.930  1.00  0.00     0.373 A 
HETATM   10  H   UNL     1      -0.087 -18.581  10.677  1.00  0.00     0.304 HD
ENDBRANCH   5   6
ENDBRANCH   3   5
BRANCH   2  11
HETATM   11  C   UNL     1       2.615 -21.166   8.568  1.00  0.00     0.140 C 
BRANCH  11  12
HETATM   12  C   UNL     1       3.446 -22.304   7.787  1.00  0.00     0.016 C 
HETATM   13  C   UNL     1       3.354 -23.763   8.202  1.00  0.00     0.006 C 
ENDBRANCH  11  12
ENDBRANCH   2  11
TORSDOF 4
ENDMDL
MODEL 9
REMARK VINA RESULT:    -4.071     23.361     23.945
REMARK INTER + INTRA:          -4.901
REMARK INTER:                  -4.469
REMARK INTRA:                  -0.432
REMARK UNBOUND:                -0.235
REMARK  4 active torsions:
REMARK  status: ('A' for Active; 'I' for Inactive)
REMARK    1  A    between atoms: C_2  and  C_7 
REMARK    2  A    between atoms: C_2  and  N_3 
REMARK    3  A    between atoms: C_4  and  C_8 
REMARK    4  A    between atoms: C_8  and  N_11 
ROOT
HETATM    1  S   UNL     1       8.219   2.189  22.329  1.00  0.00     0.045 SA
HETATM    2  N   UNL     1       8.161   0.910  21.385  1.00  0.00    -0.280 N 
HETATM    3  C   UNL     1       9.447   1.204  21.646  1.00  0.00     0.252 A 
HETATM    4  O   UNL     1      10.505   1.859  21.527  1.00  0.00    -0.267 OA
ENDROOT
BRANCH   3   5
HETATM    5  C   UNL     1      10.390  -0.318  21.788  1.00  0.00     0.364 C 
BRANCH   5   6
HETATM    6  N   UNL     1      10.487  -0.684  23.117  1.00  0.00     0.014 N 
HETATM    7  N   UNL     1       9.610  -1.258  24.364  1.00  0.00    -0.125 NA
HETATM    8  H   UNL     1       8.741  -0.806  24.142  1.00  0.00     0.155 HD
HETATM    9  C   UNL     1      10.044  -1.974  23.327  1.00  0.00     0.373 A 
HETATM   10  H   UNL     1      11.100  -0.173  23.709  1.00  0.00     0.304 HD
ENDBRANCH   5   6
ENDBRANCH   3   5
BRANCH   2  11
HETATM   11  C   UNL     1       7.783   0.043  20.202  1.00  0.00     0.140 C 
BRANCH  11  12
HETATM   12  C   UNL     1       7.127   0.405  18.776  1.00  0.00     0.016 C 
HETATM   13  C   UNL     1       5.846  -0.268  18.311  1.00  0.00     0.006 C 
ENDBRANCH  11  12
ENDBRANCH   2  11
TORSDOF 4
ENDMDL
