stable:False satoms:21 tatoms:24 sratio:0.875
  -OEChem-07092417323D

 24 25  0     1  0  0  0  0  0999 V2000
    6.4719   -2.1820   24.3062 S   0  0  0  0  0  0  0  0  0  0  0  0
    8.0291    0.0286   23.7482 H   0  0  0  0  0  0  0  0  0  0  0  0
    9.6581   -2.9347   24.3613 H   0  0  0  0  0  0  0  0  0  0  0  0
    9.3307   -2.6805   23.3586 C   0  0  0  0  0  0  0  0  0  0  0  0
    7.9144   -2.2216   23.6361 N   0  0  1  0  0  0  0  0  0  0  0  0
    6.9805   -2.2316   22.6678 C   0  0  2  0  0  0  0  0  0  0  0  0
    7.8772    1.4441   22.0240 N   0  0  0  0  0  0  0  0  0  0  0  0
    9.1464   -3.5249   22.7224 H   0  0  0  0  0  0  0  0  0  0  0  0
   11.6009   -0.8203   24.0315 H   0  0  0  0  0  0  0  0  0  0  0  0
   11.3631   -2.6870   22.7043 H   0  0  0  0  0  0  0  0  0  0  0  0
   11.8854   -0.2586   22.4011 H   0  0  0  0  0  0  0  0  0  0  0  0
   10.3237   -1.8955   21.5406 H   0  0  0  0  0  0  0  0  0  0  0  0
   11.1301   -0.6534   23.0776 C   0  0  0  0  0  0  0  0  0  0  0  0
   10.5542   -1.9709   22.5869 C   0  0  0  0  0  0  0  0  0  0  0  0
   10.3477    0.0869   23.2052 H   0  0  0  0  0  0  0  0  0  0  0  0
    7.5715   -1.2865   21.2599 C   0  0  0  0  0  0  0  0  0  0  0  0
    9.1205    0.0510   21.4384 H   0  0  0  0  0  0  0  0  0  0  0  0
    7.1885    1.6041   21.3100 H   0  0  0  0  0  0  0  0  0  0  0  0
    8.1926   -1.9824   20.7157 H   0  0  0  0  0  0  0  0  0  0  0  0
    8.1776   -0.1237   21.7000 N   0  3  2  0  0  0  0  0  0  0  0  0
    6.0911   -2.7488   21.9590 O   0  0  0  0  0  0  0  0  0  0  0  0
    6.4475    0.3689   23.0513 H   0  0  0  0  0  0  0  0  0  0  0  0
    6.6562   -1.0835   20.6995 H   0  0  0  0  0  0  0  0  0  0  0  0
    7.5251    0.4120   22.7910 C   0  0  0  0  0  0  0  0  0  0  0  0
 16 23  1  0  0  0  0
 16 19  1  0  0  0  0
 16 20  1  0  0  0  0
  6 16  1  0  0  0  0
  7 18  1  0  0  0  0
 17 20  1  0  0  0  0
 12 14  1  0  0  0  0
  7 20  1  0  0  0  0
 20 24  1  0  0  0  0
  6 21  1  0  0  0  0
  7 24  1  0  0  0  0
 11 13  1  0  0  0  0
 10 14  1  0  0  0  0
 13 14  1  0  0  0  0
  4 14  1  0  0  0  0
  5  6  1  0  0  0  0
  1  6  1  0  0  0  0
  4  8  1  0  0  0  0
 22 24  1  0  0  0  0
  2 24  1  0  0  0  0
 13 15  1  0  0  0  0
  9 13  1  0  0  0  0
  4  5  1  0  0  0  0
  3  4  1  0  0  0  0
  1  5  1  0  0  0  0
M  CHG  1  20   1
M  END
> <Shapegauss>
-96.068176

$$$$
