stable:False satoms:6 tatoms:24 sratio:0.25
  -OEChem-08062417193D

 47 47  0     1  0  0  0  0  0999 V2000
    6.7104   -5.4353   25.9613 C   0  0  0  0  0  0  0  0  0  0  0  0
    8.1919   -4.8179   25.7504 S   0  0  0  0  0  0  0  0  0  0  0  0
    9.1774   -5.8891   25.6030 O   0  0  0  0  0  0  0  0  0  0  0  0
    8.5285   -4.0134   26.9101 O   0  0  0  0  0  0  0  0  0  0  0  0
    8.1524   -3.9119   24.3984 N   0  0  0  0  0  0  0  0  0  0  0  0
    8.9910   -3.1614   24.0151 C   0  0  0  0  0  0  0  0  0  0  0  0
    9.3875   -2.1237   23.5137 C   0  0  0  0  0  0  0  0  0  0  0  0
   10.2049   -1.1636   23.4240 C   0  0  2  0  0  0  0  0  0  0  0  0
   10.8227   -0.2009   24.5387 C   0  0  0  0  0  0  0  0  0  0  0  0
   11.9234    0.1726   24.5633 C   0  0  0  0  0  0  0  0  0  0  0  0
   12.9921   -0.0334   23.9289 C   0  0  0  0  0  0  0  0  0  0  0  0
   12.6799   -1.2535   22.8539 C   0  0  0  0  0  0  0  0  0  0  0  0
   11.8793   -1.6694   22.6439 C   0  0  0  0  0  0  0  0  0  0  0  0
    9.7136   -0.5719   22.4447 C   0  0  0  0  0  0  0  0  0  0  0  0
    9.0496    0.0817   21.5450 C   0  0  0  0  0  0  0  0  0  0  0  0
    9.4831    1.0993   21.2590 O   0  0  0  0  0  0  0  0  0  0  0  0
    7.9723   -0.5712   21.1371 N   0  0  0  0  0  0  0  0  0  0  0  0
    7.2426   -0.0468   20.2501 C   0  0  0  0  0  0  0  0  0  0  0  0
    7.3778    0.1735   18.9691 C   0  0  0  0  0  0  0  0  0  0  0  0
    6.9112    0.5797   17.9046 N   0  0  0  0  0  0  0  0  0  0  0  0
    5.7342    1.0564   18.3535 C   0  0  0  0  0  0  0  0  0  0  0  0
    5.2726    1.0135   19.4580 C   0  0  0  0  0  0  0  0  0  0  0  0
    5.8105    0.4965   20.5979 C   0  0  0  0  0  0  0  0  0  0  0  0
    5.1774    0.4019   22.0365 C   0  0  0  0  0  0  0  0  0  0  0  0
    6.6973   -6.0564   26.8691 H   0  0  0  0  0  0  0  0  0  0  0  0
    5.9837   -4.6164   26.0669 H   0  0  0  0  0  0  0  0  0  0  0  0
    6.4433   -6.0527   25.0910 H   0  0  0  0  0  0  0  0  0  0  0  0
    7.3277   -3.3533   24.4867 H   0  0  0  0  0  0  0  0  0  0  0  0
    9.9069   -3.6920   24.2296 H   0  0  0  0  0  0  0  0  0  0  0  0
    8.6601   -1.9156   22.7431 H   0  0  0  0  0  0  0  0  0  0  0  0
   11.1167   -1.6309   23.0237 H   0  0  0  0  0  0  0  0  0  0  0  0
   10.1671    0.1287   25.3311 H   0  0  0  0  0  0  0  0  0  0  0  0
   12.0707    0.8987   25.3492 H   0  0  0  0  0  0  0  0  0  0  0  0
   13.7921   -0.3340   24.6215 H   0  0  0  0  0  0  0  0  0  0  0  0
   13.2954    0.8771   23.3914 H   0  0  0  0  0  0  0  0  0  0  0  0
   13.5412   -1.6204   22.3154 H   0  0  0  0  0  0  0  0  0  0  0  0
   11.8578   -2.4590   21.9074 H   0  0  0  0  0  0  0  0  0  0  0  0
   10.9672   -1.3646   23.1355 H   0  0  0  0  0  0  0  0  0  0  0  0
    9.8112   -1.4572   21.7992 H   0  0  0  0  0  0  0  0  0  0  0  0
   10.6000    0.0684   22.3254 H   0  0  0  0  0  0  0  0  0  0  0  0
    7.7408   -1.4635   21.5246 H   0  0  0  0  0  0  0  0  0  0  0  0
    8.3766   -0.1606   18.7297 H   0  0  0  0  0  0  0  0  0  0  0  0
    5.1197    1.5466   17.6129 H   0  0  0  0  0  0  0  0  0  0  0  0
    4.2892    1.4468   19.5656 H   0  0  0  0  0  0  0  0  0  0  0  0
    4.6273   -0.5457   22.1340 H   0  0  0  0  0  0  0  0  0  0  0  0
    5.9761    0.4414   22.7918 H   0  0  0  0  0  0  0  0  0  0  0  0
    4.4865    1.2442   22.1890 H   0  0  0  0  0  0  0  0  0  0  0  0
 20 21  2  0  0  0  0
 19 20  1  0  0  0  0
 21 22  1  0  0  0  0
 18 19  2  0  0  0  0
 22 23  2  0  0  0  0
 18 23  1  0  0  0  0
 17 18  1  0  0  0  0
 23 24  1  0  0  0  0
 15 16  2  0  0  0  0
 15 17  1  0  0  0  0
 14 15  1  0  0  0  0
  8 14  1  0  0  0  0
 12 13  2  0  0  0  0
 11 12  1  0  0  0  0
  7  8  1  0  0  0  0
  8  9  1  0  0  0  0
  6  7  2  3  0  0  0
 10 11  1  0  0  0  0
  5  6  1  0  0  0  0
  9 10  2  0  0  0  0
  2  5  1  0  0  0  0
  2  3  2  0  0  0  0
  1  2  1  0  0  0  0
  2  4  2  0  0  0  0
  1 25  1  0  0  0  0
  1 26  1  0  0  0  0
  1 27  1  0  0  0  0
  5 28  1  0  0  0  0
  6 29  1  0  0  0  0
  7 30  1  0  0  0  0
  8 31  1  0  0  0  0
  9 32  1  0  0  0  0
 10 33  1  0  0  0  0
 11 34  1  0  0  0  0
 11 35  1  0  0  0  0
 12 36  1  0  0  0  0
 13 37  1  0  0  0  0
 13 38  1  0  0  0  0
 14 39  1  0  0  0  0
 14 40  1  0  0  0  0
 17 41  1  0  0  0  0
 19 42  1  0  0  0  0
 21 43  1  0  0  0  0
 22 44  1  0  0  0  0
 24 45  1  0  0  0  0
 24 46  1  0  0  0  0
 24 47  1  0  0  0  0
M  END
> <Chemgauss4>
-12.939665

$$$$
