stable:False satoms:6 tatoms:24 sratio:0.25
  -OEChem-08062417193D

 47 47  0     1  0  0  0  0  0999 V2000
   -6.0585   -4.9030  -26.2700 C   0  0  0  0  0  0  0  0  0  0  0  0
   -7.6096   -4.5385  -25.9843 S   0  0  0  0  0  0  0  0  0  0  0  0
   -8.4135   -5.7571  -25.8892 O   0  0  0  0  0  0  0  0  0  0  0  0
   -8.1033   -3.7229  -27.0782 O   0  0  0  0  0  0  0  0  0  0  0  0
   -7.6659   -3.7265  -24.5744 N   0  0  0  0  0  0  0  0  0  0  0  0
   -8.5969   -3.1420  -24.1219 C   0  0  0  0  0  0  0  0  0  0  0  0
   -9.1317   -2.2131  -23.5416 C   0  0  0  0  0  0  0  0  0  0  0  0
  -10.0835   -1.3996  -23.3679 C   0  0  2  0  0  0  0  0  0  0  0  0
  -10.8779   -0.4747  -24.3998 C   0  0  0  0  0  0  0  0  0  0  0  0
  -12.0231   -0.2761  -24.3743 C   0  0  0  0  0  0  0  0  0  0  0  0
  -13.0263   -0.6864  -23.7321 C   0  0  0  0  0  0  0  0  0  0  0  0
  -12.4955   -1.9099  -22.7508 C   0  0  0  0  0  0  0  0  0  0  0  0
  -11.6341   -2.2089  -22.5877 C   0  0  0  0  0  0  0  0  0  0  0  0
   -9.6574   -0.8032  -22.3614 C   0  0  0  0  0  0  0  0  0  0  0  0
   -9.0729   -0.1138  -21.4337 C   0  0  0  0  0  0  0  0  0  0  0  0
   -9.6481    0.8034  -21.0688 O   0  0  0  0  0  0  0  0  0  0  0  0
   -7.8954   -0.6161  -21.0956 N   0  0  0  0  0  0  0  0  0  0  0  0
   -7.2265   -0.0430  -20.1910 C   0  0  0  0  0  0  0  0  0  0  0  0
   -7.3523    0.0703  -18.8952 C   0  0  0  0  0  0  0  0  0  0  0  0
   -6.9193    0.4745  -17.8159 N   0  0  0  0  0  0  0  0  0  0  0  0
   -5.8447    1.1565  -18.2568 C   0  0  0  0  0  0  0  0  0  0  0  0
   -5.4182    1.2574  -19.3716 C   0  0  0  0  0  0  0  0  0  0  0  0
   -5.9070    0.7377  -20.5322 C   0  0  0  0  0  0  0  0  0  0  0  0
   -5.3140    0.8358  -21.9875 C   0  0  0  0  0  0  0  0  0  0  0  0
   -5.9796   -5.4546  -27.2184 H   0  0  0  0  0  0  0  0  0  0  0  0
   -5.4700   -3.9760  -26.3350 H   0  0  0  0  0  0  0  0  0  0  0  0
   -5.6715   -5.5262  -25.4503 H   0  0  0  0  0  0  0  0  0  0  0  0
   -6.9401   -3.0419  -24.6423 H   0  0  0  0  0  0  0  0  0  0  0  0
   -9.4269   -3.7935  -24.3521 H   0  0  0  0  0  0  0  0  0  0  0  0
   -8.4202   -1.9446  -22.7747 H   0  0  0  0  0  0  0  0  0  0  0  0
  -10.8993   -2.0279  -22.9807 H   0  0  0  0  0  0  0  0  0  0  0  0
  -10.3068    0.0033  -25.1819 H   0  0  0  0  0  0  0  0  0  0  0  0
  -12.3057    0.4674  -25.1049 H   0  0  0  0  0  0  0  0  0  0  0  0
  -13.7927   -1.0623  -24.4259 H   0  0  0  0  0  0  0  0  0  0  0  0
  -13.4483    0.1292  -23.1266 H   0  0  0  0  0  0  0  0  0  0  0  0
  -13.2722   -2.4403  -22.2199 H   0  0  0  0  0  0  0  0  0  0  0  0
  -11.4676   -3.0315  -21.9079 H   0  0  0  0  0  0  0  0  0  0  0  0
  -10.7962   -1.7349  -23.0772 H   0  0  0  0  0  0  0  0  0  0  0  0
   -9.5968   -1.7327  -21.7763 H   0  0  0  0  0  0  0  0  0  0  0  0
  -10.6274   -0.3175  -22.1787 H   0  0  0  0  0  0  0  0  0  0  0  0
   -7.5422   -1.4347  -21.5486 H   0  0  0  0  0  0  0  0  0  0  0  0
   -8.2795   -0.4298  -18.6573 H   0  0  0  0  0  0  0  0  0  0  0  0
   -5.2892    1.6875  -17.4980 H   0  0  0  0  0  0  0  0  0  0  0  0
   -4.5171    1.8443  -19.4708 H   0  0  0  0  0  0  0  0  0  0  0  0
   -4.6282   -0.0064  -22.1621 H   0  0  0  0  0  0  0  0  0  0  0  0
   -6.1334    0.7993  -22.7205 H   0  0  0  0  0  0  0  0  0  0  0  0
   -4.7660    1.7833  -22.0970 H   0  0  0  0  0  0  0  0  0  0  0  0
 20 21  2  0  0  0  0
 19 20  1  0  0  0  0
 21 22  1  0  0  0  0
 18 19  2  0  0  0  0
 22 23  2  0  0  0  0
 18 23  1  0  0  0  0
 17 18  1  0  0  0  0
 23 24  1  0  0  0  0
 15 16  2  0  0  0  0
 15 17  1  0  0  0  0
 14 15  1  0  0  0  0
  8 14  1  0  0  0  0
 12 13  2  0  0  0  0
 11 12  1  0  0  0  0
  7  8  1  0  0  0  0
  8  9  1  0  0  0  0
  6  7  2  3  0  0  0
 10 11  1  0  0  0  0
  5  6  1  0  0  0  0
  9 10  2  0  0  0  0
  2  5  1  0  0  0  0
  2  3  2  0  0  0  0
  1  2  1  0  0  0  0
  2  4  2  0  0  0  0
  1 25  1  0  0  0  0
  1 26  1  0  0  0  0
  1 27  1  0  0  0  0
  5 28  1  0  0  0  0
  6 29  1  0  0  0  0
  7 30  1  0  0  0  0
  8 31  1  0  0  0  0
  9 32  1  0  0  0  0
 10 33  1  0  0  0  0
 11 34  1  0  0  0  0
 11 35  1  0  0  0  0
 12 36  1  0  0  0  0
 13 37  1  0  0  0  0
 13 38  1  0  0  0  0
 14 39  1  0  0  0  0
 14 40  1  0  0  0  0
 17 41  1  0  0  0  0
 19 42  1  0  0  0  0
 21 43  1  0  0  0  0
 22 44  1  0  0  0  0
 24 45  1  0  0  0  0
 24 46  1  0  0  0  0
 24 47  1  0  0  0  0
M  END
> <Chemgauss4>
-12.632304

$$$$
