REMARK  6 active torsions:
REMARK  status: ('A' for Active; 'I' for Inactive)
REMARK    1  A    between atoms: S_2  and  N_5 
REMARK    2  A    between atoms: C_7  and  C_8 
REMARK    3  A    between atoms: C_8  and  C_9 
REMARK    4  A    between atoms: C_9  and  C_15 
REMARK    5  A    between atoms: C_15  and  C_16 
REMARK       I    between atoms: C_16  and  N_18 
REMARK    6  A    between atoms: N_18  and  C_20 
ROOT
HETATM    1  C   UNL     1      10.312  -1.112  23.299  1.00  0.00     0.075 C 
HETATM    2  C   UNL     1      11.036   0.005  24.290  1.00  0.00    -0.000 C 
HETATM    3  C   UNL     1      12.018   0.298  24.272  1.00  0.00    -0.025 C 
HETATM    4  C   UNL     1      13.196  -0.208  23.406  1.00  0.00     0.054 C 
HETATM    5  C   UNL     1      12.720  -1.273  22.650  1.00  0.00    -0.025 C 
HETATM    6  C   UNL     1      11.791  -1.738  22.502  1.00  0.00    -0.000 C 
ENDROOT
BRANCH   1   7
HETATM    7  C   UNL     1       9.430  -2.031  23.508  1.00  0.00     0.021 C 
BRANCH   7   8
HETATM    8  C   UNL     1       8.998  -2.946  24.132  1.00  0.00     0.098 C 
HETATM    9  N   UNL     1       8.116  -3.572  24.696  1.00  0.00    -0.296 N 
ATOM     10  HN  UNL     1       7.225  -3.627  24.202  1.00  0.00     0.177 HD
BRANCH   9  11
HETATM   11  S   UNL     1       8.176  -4.314  26.104  1.00  0.00     0.226 S 
HETATM   12  C   UNL     1       6.604  -4.844  26.427  1.00  0.00     0.186 C 
HETATM   13  O   UNL     1       9.064  -5.468  26.033  1.00  0.00    -0.206 OA
HETATM   14  O   UNL     1       8.567  -3.429  27.185  1.00  0.00    -0.206 OA
ENDBRANCH   9  11
ENDBRANCH   7   8
ENDBRANCH   1   7
BRANCH   1  15
HETATM   15  C   UNL     1       9.754  -0.578  22.352  1.00  0.00    -0.061 C 
BRANCH  15  16
HETATM   16  C   UNL     1       9.069   0.045  21.395  1.00  0.00     0.290 C 
HETATM   17  O   UNL     1       9.534   1.012  20.993  1.00  0.00    -0.259 OA
HETATM   18  N   UNL     1       7.921  -0.584  21.089  1.00  0.00    -0.315 N 
ATOM     19  HN  UNL     1       7.639  -1.421  21.599  1.00  0.00     0.170 HD
BRANCH  18  20
HETATM   20  C   UNL     1       7.196  -0.127  20.163  1.00  0.00     0.057 A 
HETATM   21  C   UNL     1       7.209  -0.012  18.847  1.00  0.00     0.117 A 
HETATM   22  N   UNL     1       6.783   0.290  17.791  1.00  0.00    -0.373 N 
HETATM   23  C   UNL     1       5.631   0.929  18.221  1.00  0.00     0.088 A 
ATOM     24  HN  UNL     1       7.148   0.131  16.852  1.00  0.00     0.164 HD
HETATM   25  C   UNL     1       5.261   1.017  19.375  1.00  0.00     0.026 A 
HETATM   26  C   UNL     1       5.837   0.591  20.555  1.00  0.00    -0.033 A 
HETATM   27  C   UNL     1       5.362   0.756  22.012  1.00  0.00     0.050 C 
ENDBRANCH  18  20
ENDBRANCH  15  16
ENDBRANCH   1  15
TORSDOF 6
