stable:False satoms:7 tatoms:24 sratio:0.2916666666666667
  -OEChem-07092417483D

 24 25  0     1  0  0  0  0  0999 V2000
    6.6045   -4.8436   26.4270 C   0  0  0  0  0  0  0  0  0  0  0  0
    8.1760   -4.3140   26.1035 S   0  0  0  0  0  0  0  0  0  0  0  0
    9.0638   -5.4676   26.0328 O   0  0  0  0  0  0  0  0  0  0  0  0
    8.5667   -3.4288   27.1850 O   0  0  0  0  0  0  0  0  0  0  0  0
    8.1162   -3.5719   24.6959 N   0  0  0  0  0  0  0  0  0  0  0  0
    8.9978   -2.9456   24.1317 C   0  0  0  0  0  0  0  0  0  0  0  0
    9.4304   -2.0314   23.5080 C   0  0  0  0  0  0  0  0  0  0  0  0
   10.3122   -1.1124   23.2987 C   0  0  1  0  0  0  0  0  0  0  0  0
   11.0359    0.0051   24.2899 C   0  0  0  0  0  0  0  0  0  0  0  0
   12.0180    0.2981   24.2718 C   0  0  0  0  0  0  0  0  0  0  0  0
   13.1960   -0.2079   23.4064 C   0  0  0  0  0  0  0  0  0  0  0  0
   12.7202   -1.2733   22.6496 C   0  0  0  0  0  0  0  0  0  0  0  0
   11.7906   -1.7379   22.5020 C   0  0  0  0  0  0  0  0  0  0  0  0
    9.7539   -0.5777   22.3517 C   0  0  0  0  0  0  0  0  0  0  0  0
    9.0691    0.0455   21.3953 C   0  0  0  0  0  0  0  0  0  0  0  0
    9.5336    1.0117   20.9932 O   0  0  0  0  0  0  0  0  0  0  0  0
    7.9208   -0.5839   21.0893 N   0  0  0  0  0  0  0  0  0  0  0  0
    7.1958   -0.1265   20.1633 C   0  0  0  0  0  0  0  0  0  0  0  0
    7.2087   -0.0121   18.8472 C   0  0  0  0  0  0  0  0  0  0  0  0
    6.7828    0.2904   17.7911 N   0  0  0  0  0  0  0  0  0  0  0  0
    5.6315    0.9295   18.2213 C   0  0  0  0  0  0  0  0  0  0  0  0
    5.2610    1.0173   19.3751 C   0  0  0  0  0  0  0  0  0  0  0  0
    5.8369    0.5908   20.5548 C   0  0  0  0  0  0  0  0  0  0  0  0
    5.3616    0.7562   22.0121 C   0  0  0  0  0  0  0  0  0  0  0  0
 20 21  2  0  0  0  0
 19 20  1  0  0  0  0
 21 22  1  0  0  0  0
 18 19  2  0  0  0  0
 22 23  2  0  0  0  0
 18 23  1  0  0  0  0
 17 18  1  0  0  0  0
 23 24  1  0  0  0  0
 15 16  2  0  0  0  0
 15 17  1  0  0  0  0
 14 15  1  0  0  0  0
  8 14  1  0  0  0  0
 12 13  1  0  0  0  0
  8 13  1  0  0  0  0
 11 12  2  0  0  0  0
  7  8  1  0  0  0  0
  8  9  1  0  0  0  0
 10 11  1  0  0  0  0
  6  7  2  3  0  0  0
  5  6  1  0  0  0  0
  9 10  2  0  0  0  0
  2  5  1  0  0  0  0
  2  3  2  0  0  0  0
  1  2  1  0  0  0  0
  2  4  2  0  0  0  0
M  END
> <Shapegauss>
-286.044647

$$$$
