stable:False satoms:8 tatoms:24 sratio:0.3333333333333333
  -OEChem-08062414503D

 45 46  0     1  0  0  0  0  0999 V2000
   -6.5750   -4.6994  -26.6323 C   0  0  0  0  0  0  0  0  0  0  0  0
   -8.0316   -4.3226  -26.3827 S   0  0  0  0  0  0  0  0  0  0  0  0
   -8.9026   -5.4853  -26.3924 O   0  0  0  0  0  0  0  0  0  0  0  0
   -8.5033   -3.4125  -27.4155 O   0  0  0  0  0  0  0  0  0  0  0  0
   -8.0998   -3.6219  -24.9183 N   0  0  0  0  0  0  0  0  0  0  0  0
   -8.9699   -2.9731  -24.3786 C   0  0  0  0  0  0  0  0  0  0  0  0
   -9.5508   -2.1436  -23.7834 C   0  0  0  0  0  0  0  0  0  0  0  0
  -10.5853   -1.3786  -23.5134 C   0  0  1  0  0  0  0  0  0  0  0  0
  -11.3357   -0.3739  -24.5384 C   0  0  0  0  0  0  0  0  0  0  0  0
  -12.3987   -0.0788  -24.5800 C   0  0  0  0  0  0  0  0  0  0  0  0
  -13.4429   -0.6190  -23.8000 C   0  0  0  0  0  0  0  0  0  0  0  0
  -13.0196   -1.6592  -23.0242 C   0  0  0  0  0  0  0  0  0  0  0  0
  -11.9787   -2.0862  -22.8912 C   0  0  0  0  0  0  0  0  0  0  0  0
  -10.0047   -0.7662  -22.5742 C   0  0  0  0  0  0  0  0  0  0  0  0
   -9.3917   -0.1461  -21.6105 C   0  0  0  0  0  0  0  0  0  0  0  0
   -9.9902    0.7470  -21.1723 O   0  0  0  0  0  0  0  0  0  0  0  0
   -8.1924   -0.6749  -21.3396 N   0  0  0  0  0  0  0  0  0  0  0  0
   -7.5794   -0.1868  -20.3871 C   0  0  0  0  0  0  0  0  0  0  0  0
   -7.6400   -0.1130  -19.0811 C   0  0  0  0  0  0  0  0  0  0  0  0
   -7.2574    0.1864  -17.9640 N   0  0  0  0  0  0  0  0  0  0  0  0
   -6.1558    0.8037  -18.3539 C   0  0  0  0  0  0  0  0  0  0  0  0
   -5.7367    0.9820  -19.5007 C   0  0  0  0  0  0  0  0  0  0  0  0
   -6.2074    0.6229  -20.7080 C   0  0  0  0  0  0  0  0  0  0  0  0
   -5.8645    0.7680  -21.6764 C   0  0  0  0  0  0  0  0  0  0  0  0
   -6.4836   -5.1792  -27.6179 H   0  0  0  0  0  0  0  0  0  0  0  0
   -5.9524   -3.7930  -26.6066 H   0  0  0  0  0  0  0  0  0  0  0  0
   -6.2382   -5.3979  -25.8521 H   0  0  0  0  0  0  0  0  0  0  0  0
   -7.3086   -3.0104  -24.9108 H   0  0  0  0  0  0  0  0  0  0  0  0
   -9.8077   -3.6144  -24.6092 H   0  0  0  0  0  0  0  0  0  0  0  0
   -8.8296   -1.8370  -23.0402 H   0  0  0  0  0  0  0  0  0  0  0  0
  -10.7035    0.0729  -25.2915 H   0  0  0  0  0  0  0  0  0  0  0  0
  -12.6643    0.6961  -25.2839 H   0  0  0  0  0  0  0  0  0  0  0  0
  -14.4586   -0.2523  -23.8150 H   0  0  0  0  0  0  0  0  0  0  0  0
  -13.7931   -2.1486  -22.4509 H   0  0  0  0  0  0  0  0  0  0  0  0
  -11.8200   -2.1523  -21.8048 H   0  0  0  0  0  0  0  0  0  0  0  0
  -12.0152   -3.0991  -23.3187 H   0  0  0  0  0  0  0  0  0  0  0  0
  -10.8216   -1.0346  -21.8881 H   0  0  0  0  0  0  0  0  0  0  0  0
  -10.2316    0.1965  -23.0555 H   0  0  0  0  0  0  0  0  0  0  0  0
   -7.8135   -1.4256  -21.8807 H   0  0  0  0  0  0  0  0  0  0  0  0
   -8.5779   -0.6061  -18.8722 H   0  0  0  0  0  0  0  0  0  0  0  0
   -5.5401    1.2059  -17.5630 H   0  0  0  0  0  0  0  0  0  0  0  0
   -4.8100    1.5350  -19.5430 H   0  0  0  0  0  0  0  0  0  0  0  0
   -5.2081   -0.0671  -21.9625 H   0  0  0  0  0  0  0  0  0  0  0  0
   -6.7208    0.8138  -22.3654 H   0  0  0  0  0  0  0  0  0  0  0  0
   -5.3012    1.7114  -21.7283 H   0  0  0  0  0  0  0  0  0  0  0  0
 20 21  2  0  0  0  0
 19 20  1  0  0  0  0
 21 22  1  0  0  0  0
 18 19  2  0  0  0  0
 22 23  2  0  0  0  0
 18 23  1  0  0  0  0
 17 18  1  0  0  0  0
 23 24  1  0  0  0  0
 15 16  2  0  0  0  0
 15 17  1  0  0  0  0
 14 15  1  0  0  0  0
  8 14  1  0  0  0  0
 12 13  1  0  0  0  0
  8 13  1  0  0  0  0
 11 12  2  0  0  0  0
  7  8  1  0  0  0  0
  8  9  1  0  0  0  0
 10 11  1  0  0  0  0
  6  7  2  3  0  0  0
  5  6  1  0  0  0  0
  9 10  2  0  0  0  0
  2  5  1  0  0  0  0
  2  3  2  0  0  0  0
  1  2  1  0  0  0  0
  2  4  2  0  0  0  0
  1 25  1  0  0  0  0
  1 26  1  0  0  0  0
  1 27  1  0  0  0  0
  5 28  1  0  0  0  0
  6 29  1  0  0  0  0
  7 30  1  0  0  0  0
  9 31  1  0  0  0  0
 10 32  1  0  0  0  0
 11 33  1  0  0  0  0
 12 34  1  0  0  0  0
 13 35  1  0  0  0  0
 13 36  1  0  0  0  0
 14 37  1  0  0  0  0
 14 38  1  0  0  0  0
 17 39  1  0  0  0  0
 19 40  1  0  0  0  0
 21 41  1  0  0  0  0
 22 42  1  0  0  0  0
 24 43  1  0  0  0  0
 24 44  1  0  0  0  0
 24 45  1  0  0  0  0
M  END
> <Chemgauss4>
-12.950126

$$$$
