stable:False satoms:8 tatoms:24 sratio:0.3333333333333333
  -OEChem-08062414503D

 45 46  0     1  0  0  0  0  0999 V2000
    6.2338   -4.5255   26.6203 C   0  0  0  0  0  0  0  0  0  0  0  0
    7.6903   -4.1487   26.3707 S   0  0  0  0  0  0  0  0  0  0  0  0
    8.5613   -5.3114   26.3805 O   0  0  0  0  0  0  0  0  0  0  0  0
    8.1620   -3.2386   27.4035 O   0  0  0  0  0  0  0  0  0  0  0  0
    7.7585   -3.4480   24.9064 N   0  0  0  0  0  0  0  0  0  0  0  0
    8.6286   -2.7992   24.3667 C   0  0  0  0  0  0  0  0  0  0  0  0
    9.2095   -1.9697   23.7715 C   0  0  0  0  0  0  0  0  0  0  0  0
   10.2441   -1.2047   23.5014 C   0  0  1  0  0  0  0  0  0  0  0  0
   10.9944   -0.2000   24.5265 C   0  0  0  0  0  0  0  0  0  0  0  0
   12.0575    0.0951   24.5681 C   0  0  0  0  0  0  0  0  0  0  0  0
   13.1016   -0.4451   23.7880 C   0  0  0  0  0  0  0  0  0  0  0  0
   12.6784   -1.4853   23.0122 C   0  0  0  0  0  0  0  0  0  0  0  0
   11.6374   -1.9123   22.8793 C   0  0  0  0  0  0  0  0  0  0  0  0
    9.6635   -0.5923   22.5622 C   0  0  0  0  0  0  0  0  0  0  0  0
    9.0505    0.0277   21.5986 C   0  0  0  0  0  0  0  0  0  0  0  0
    9.6489    0.9208   21.1604 O   0  0  0  0  0  0  0  0  0  0  0  0
    7.8511   -0.5010   21.3277 N   0  0  0  0  0  0  0  0  0  0  0  0
    7.2381   -0.0129   20.3752 C   0  0  0  0  0  0  0  0  0  0  0  0
    7.2987    0.0609   19.0692 C   0  0  0  0  0  0  0  0  0  0  0  0
    6.9162    0.3603   17.9520 N   0  0  0  0  0  0  0  0  0  0  0  0
    5.8145    0.9776   18.3420 C   0  0  0  0  0  0  0  0  0  0  0  0
    5.3954    1.1559   19.4887 C   0  0  0  0  0  0  0  0  0  0  0  0
    5.8662    0.7968   20.6960 C   0  0  0  0  0  0  0  0  0  0  0  0
    5.5233    0.9419   21.6645 C   0  0  0  0  0  0  0  0  0  0  0  0
    6.1423   -5.0053   27.6060 H   0  0  0  0  0  0  0  0  0  0  0  0
    5.6111   -3.6191   26.5947 H   0  0  0  0  0  0  0  0  0  0  0  0
    5.8970   -5.2240   25.8401 H   0  0  0  0  0  0  0  0  0  0  0  0
    6.9673   -2.8365   24.8989 H   0  0  0  0  0  0  0  0  0  0  0  0
    9.4664   -3.4405   24.5973 H   0  0  0  0  0  0  0  0  0  0  0  0
    8.4883   -1.6631   23.0283 H   0  0  0  0  0  0  0  0  0  0  0  0
   10.3623    0.2468   25.2795 H   0  0  0  0  0  0  0  0  0  0  0  0
   12.3230    0.8700   25.2719 H   0  0  0  0  0  0  0  0  0  0  0  0
   14.1173   -0.0784   23.8031 H   0  0  0  0  0  0  0  0  0  0  0  0
   13.4519   -1.9747   22.4390 H   0  0  0  0  0  0  0  0  0  0  0  0
   11.4787   -1.9784   21.7928 H   0  0  0  0  0  0  0  0  0  0  0  0
   11.6739   -2.9252   23.3068 H   0  0  0  0  0  0  0  0  0  0  0  0
   10.4803   -0.8607   21.8761 H   0  0  0  0  0  0  0  0  0  0  0  0
    9.8903    0.3704   23.0436 H   0  0  0  0  0  0  0  0  0  0  0  0
    7.4722   -1.2517   21.8688 H   0  0  0  0  0  0  0  0  0  0  0  0
    8.2366   -0.4322   18.8602 H   0  0  0  0  0  0  0  0  0  0  0  0
    5.1988    1.3798   17.5511 H   0  0  0  0  0  0  0  0  0  0  0  0
    4.4687    1.7089   19.5311 H   0  0  0  0  0  0  0  0  0  0  0  0
    4.8669    0.1068   21.9505 H   0  0  0  0  0  0  0  0  0  0  0  0
    6.3795    0.9877   22.3535 H   0  0  0  0  0  0  0  0  0  0  0  0
    4.9600    1.8853   21.7163 H   0  0  0  0  0  0  0  0  0  0  0  0
 20 21  2  0  0  0  0
 19 20  1  0  0  0  0
 21 22  1  0  0  0  0
 18 19  2  0  0  0  0
 22 23  2  0  0  0  0
 18 23  1  0  0  0  0
 17 18  1  0  0  0  0
 23 24  1  0  0  0  0
 15 16  2  0  0  0  0
 15 17  1  0  0  0  0
 14 15  1  0  0  0  0
  8 14  1  0  0  0  0
 12 13  1  0  0  0  0
  8 13  1  0  0  0  0
 11 12  2  0  0  0  0
  7  8  1  0  0  0  0
  8  9  1  0  0  0  0
 10 11  1  0  0  0  0
  6  7  2  3  0  0  0
  5  6  1  0  0  0  0
  9 10  2  0  0  0  0
  2  5  1  0  0  0  0
  2  3  2  0  0  0  0
  1  2  1  0  0  0  0
  2  4  2  0  0  0  0
  1 25  1  0  0  0  0
  1 26  1  0  0  0  0
  1 27  1  0  0  0  0
  5 28  1  0  0  0  0
  6 29  1  0  0  0  0
  7 30  1  0  0  0  0
  9 31  1  0  0  0  0
 10 32  1  0  0  0  0
 11 33  1  0  0  0  0
 12 34  1  0  0  0  0
 13 35  1  0  0  0  0
 13 36  1  0  0  0  0
 14 37  1  0  0  0  0
 14 38  1  0  0  0  0
 17 39  1  0  0  0  0
 19 40  1  0  0  0  0
 21 41  1  0  0  0  0
 22 42  1  0  0  0  0
 24 43  1  0  0  0  0
 24 44  1  0  0  0  0
 24 45  1  0  0  0  0
M  END
> <Chemgauss4>
-13.029160

$$$$
