stable:False satoms:7 tatoms:24 sratio:0.2916666666666667
  -OEChem-07092417463D

 24 26  0     1  0  0  0  0  0999 V2000
    6.5401   -4.8800   26.4535 C   0  0  0  0  0  0  0  0  0  0  0  0
    8.2538   -4.2937   26.1220 S   0  0  0  0  0  0  0  0  0  0  0  0
    9.0891   -5.4665   26.0970 O   0  0  0  0  0  0  0  0  0  0  0  0
    8.5824   -3.3667   27.1679 O   0  0  0  0  0  0  0  0  0  0  0  0
    8.1667   -3.5553   24.6472 N   0  0  0  0  0  0  0  0  0  0  0  0
    8.9278   -2.9118   24.1425 C   0  0  0  0  0  0  0  0  0  0  0  0
    9.4516   -1.9198   23.4478 C   0  0  0  0  0  0  0  0  0  0  0  0
   10.4079   -1.1321   23.2474 C   0  0  1  0  0  0  0  0  0  0  0  0
   11.0825   -0.0296   24.2746 C   0  0  0  0  0  0  0  0  0  0  0  0
   12.1094    0.2954   24.1762 C   0  0  0  0  0  0  0  0  0  0  0  0
   13.1422   -0.1607   23.4628 C   0  0  0  0  0  0  0  0  0  0  0  0
   12.7535   -1.2746   22.6186 C   0  0  0  0  0  0  0  0  0  0  0  0
   11.8199   -1.7219   22.5165 C   0  0  0  0  0  0  0  0  0  0  0  0
    9.6286   -0.6920   22.4180 C   0  0  3  0  0  0  0  0  0  0  0  0
    9.0272    0.0278   21.3911 C   0  0  0  0  0  0  0  0  0  0  0  0
    9.5656    0.9528   20.9543 O   0  0  0  0  0  0  0  0  0  0  0  0
    7.8805   -0.5467   21.1173 N   0  0  0  0  0  0  0  0  0  0  0  0
    7.1893   -0.0770   20.1916 C   0  0  0  0  0  0  0  0  0  0  0  0
    7.1790    0.0490   18.8947 C   0  0  0  0  0  0  0  0  0  0  0  0
    6.7697    0.3536   17.7374 N   0  0  0  0  0  0  0  0  0  0  0  0
    5.7037    0.8831   18.2458 C   0  0  0  0  0  0  0  0  0  0  0  0
    5.2802    0.9698   19.4045 C   0  0  0  0  0  0  0  0  0  0  0  0
    5.7942    0.5653   20.5511 C   0  0  0  0  0  0  0  0  0  0  0  0
    5.2394    0.6414   22.0171 Cl  0  0  0  0  0  0  0  0  0  0  0  0
 20 21  2  0  0  0  0
 19 20  1  0  0  0  0
 21 22  1  0  0  0  0
 18 19  2  0  0  0  0
 22 23  2  0  0  0  0
 18 23  1  0  0  0  0
 17 18  1  0  0  0  0
 23 24  1  0  0  0  0
 15 16  2  0  0  0  0
 15 17  1  0  0  0  0
 14 15  1  0  0  0  0
  8 14  1  0  0  0  0
  7 14  1  0  0  0  0
 12 13  1  0  0  0  0
  8 13  1  0  0  0  0
 11 12  2  0  0  0  0
  7  8  1  0  0  0  0
  8  9  1  0  0  0  0
  6  7  2  0  0  0  0
 10 11  1  0  0  0  0
  5  6  1  0  0  0  0
  9 10  2  0  0  0  0
  2  5  1  0  0  0  0
  2  3  2  0  0  0  0
  1  2  1  0  0  0  0
  2  4  2  0  0  0  0
M  END
> <Shapegauss>
-286.218140

$$$$
