REMARK  5 active torsions:
REMARK  status: ('A' for Active; 'I' for Inactive)
REMARK    1  A    between atoms: S_2  and  N_5 
REMARK    2  A    between atoms: N_5  and  C_7 
REMARK    3  A    between atoms: C_7  and  C_8 
REMARK    4  A    between atoms: C_15  and  C_16 
REMARK       I    between atoms: C_16  and  N_18 
REMARK    5  A    between atoms: N_18  and  C_20 
ROOT
HETATM    1  C   UNL     1       9.452  -1.920  23.448  1.00  0.00     0.040 A 
HETATM    2  C   UNL     1      10.408  -1.132  23.247  1.00  0.00     0.066 A 
HETATM    3  C   UNL     1      11.082  -0.030  24.275  1.00  0.00    -0.003 C 
HETATM    4  C   UNL     1      12.109   0.295  24.176  1.00  0.00    -0.002 C 
HETATM    5  C   UNL     1      13.142  -0.161  23.463  1.00  0.00    -0.001 C 
HETATM    6  C   UNL     1      12.754  -1.275  22.619  1.00  0.00    -0.002 C 
HETATM    7  C   UNL     1      11.820  -1.722  22.517  1.00  0.00    -0.003 C 
HETATM    8  C   UNL     1       9.629  -0.692  22.418  1.00  0.00     0.049 A 
ENDROOT
BRANCH   8   9
HETATM    9  C   UNL     1       9.027   0.028  21.391  1.00  0.00     0.255 C 
HETATM   10  O   UNL     1       9.566   0.953  20.954  1.00  0.00    -0.268 OA
HETATM   11  N   UNL     1       7.880  -0.547  21.117  1.00  0.00    -0.320 N 
ATOM     12  HN  UNL     1       7.562  -1.358  21.647  1.00  0.00     0.169 HD
BRANCH  11  13
HETATM   13  C   UNL     1       7.189  -0.077  20.192  1.00  0.00     0.072 A 
HETATM   14  C   UNL     1       7.179   0.049  18.895  1.00  0.00     0.119 A 
HETATM   15  N   UNL     1       6.770   0.354  17.737  1.00  0.00    -0.373 N 
HETATM   16  C   UNL     1       5.704   0.883  18.246  1.00  0.00     0.089 A 
ATOM     17  HN  UNL     1       7.132   0.233  16.791  1.00  0.00     0.164 HD
HETATM   18  C   UNL     1       5.280   0.970  19.404  1.00  0.00     0.043 A 
HETATM   19  C   UNL     1       5.794   0.565  20.551  1.00  0.00     0.063 A 
HETATM   20 CL   UNL     1       5.239   0.641  22.017  1.00  0.00    -0.082 Cl
ENDBRANCH  11  13
ENDBRANCH   8   9
BRANCH   1  21
HETATM   21  C   UNL     1       8.928  -2.912  24.142  1.00  0.00    -0.022 C 
BRANCH  21  22
HETATM   22  N   UNL     1       8.167  -3.555  24.647  1.00  0.00    -0.249 N 
ATOM     23  HN  UNL     1       7.302  -3.706  24.128  1.00  0.00     0.188 HD
BRANCH  22  24
HETATM   24  S   UNL     1       8.254  -4.294  26.122  1.00  0.00     0.233 S 
HETATM   25  C   UNL     1       6.540  -4.880  26.453  1.00  0.00     0.186 C 
HETATM   26  O   UNL     1       9.089  -5.466  26.097  1.00  0.00    -0.205 OA
HETATM   27  O   UNL     1       8.582  -3.367  27.168  1.00  0.00    -0.205 OA
ENDBRANCH  22  24
ENDBRANCH  21  22
ENDBRANCH   1  21
TORSDOF 5
