stable:False satoms:8 tatoms:24 sratio:0.3333333333333333
  -OEChem-08062413163D

 42 43  0     1  0  0  0  0  0999 V2000
    5.8208   -5.2977   25.9767 C   0  0  0  0  0  0  0  0  0  0  0  0
    7.5209   -4.7686   25.8695 S   0  0  0  0  0  0  0  0  0  0  0  0
    8.3251   -5.9377   25.8029 O   0  0  0  0  0  0  0  0  0  0  0  0
    7.7644   -3.9604   27.0006 O   0  0  0  0  0  0  0  0  0  0  0  0
    7.5679   -3.9327   24.4827 N   0  0  0  0  0  0  0  0  0  0  0  0
    8.4301   -3.2403   24.0703 C   0  0  0  0  0  0  0  0  0  0  0  0
    8.9922   -2.2932   23.5234 C   0  0  0  0  0  0  0  0  0  0  0  0
   10.0355   -1.4855   23.3381 C   0  0  1  0  0  0  0  0  0  0  0  0
   10.6572   -0.3417   24.5677 C   0  0  0  0  0  0  0  0  0  0  0  0
   11.3626    0.0824   24.8447 C   0  0  0  0  0  0  0  0  0  0  0  0
   13.0395   -0.7865   23.7480 C   0  0  0  0  0  0  0  0  0  0  0  0
   12.4462   -1.4542   23.1941 C   0  0  0  0  0  0  0  0  0  0  0  0
   11.4119   -1.9107   22.8880 C   0  0  0  0  0  0  0  0  0  0  0  0
    9.3553   -0.8934   22.4678 C   0  0  1  0  0  0  0  0  0  0  0  0
    8.8366   -0.2363   21.4693 C   0  0  0  0  0  0  0  0  0  0  0  0
    9.4259    0.6847   21.1394 O   0  0  0  0  0  0  0  0  0  0  0  0
    7.7005   -0.7989   21.0572 N   0  0  0  0  0  0  0  0  0  0  0  0
    7.1084   -0.2609   20.1079 C   0  0  0  0  0  0  0  0  0  0  0  0
    7.2485   -0.0469   18.8272 C   0  0  0  0  0  0  0  0  0  0  0  0
    6.9356    0.3500   17.7033 N   0  0  0  0  0  0  0  0  0  0  0  0
    5.7521    0.8858   18.1446 C   0  0  0  0  0  0  0  0  0  0  0  0
    5.2744    0.8614   19.2245 C   0  0  0  0  0  0  0  0  0  0  0  0
    5.6898    0.3800   20.3890 C   0  0  0  0  0  0  0  0  0  0  0  0
    4.9891    0.3742   21.8972 Br  0  0  0  0  0  0  0  0  0  0  0  0
    5.6758   -5.8833   26.8965 H   0  0  0  0  0  0  0  0  0  0  0  0
    5.1631   -4.4162   25.9959 H   0  0  0  0  0  0  0  0  0  0  0  0
    5.5748   -5.9198   25.1035 H   0  0  0  0  0  0  0  0  0  0  0  0
    6.7653   -3.3375   24.5215 H   0  0  0  0  0  0  0  0  0  0  0  0
    9.2914   -3.8185   24.3705 H   0  0  0  0  0  0  0  0  0  0  0  0
    9.8360   -0.0762   25.2169 H   0  0  0  0  0  0  0  0  0  0  0  0
   11.2982    0.7344   25.7033 H   0  0  0  0  0  0  0  0  0  0  0  0
   12.3042   -0.0420   24.3306 H   0  0  0  0  0  0  0  0  0  0  0  0
   14.0982   -0.9340   23.4884 H   0  0  0  0  0  0  0  0  0  0  0  0
   12.7451    0.2470   23.5131 H   0  0  0  0  0  0  0  0  0  0  0  0
   12.8961   -0.9734   24.8225 H   0  0  0  0  0  0  0  0  0  0  0  0
   13.1599   -2.0045   22.5990 H   0  0  0  0  0  0  0  0  0  0  0  0
   11.4476   -2.7399   22.1970 H   0  0  0  0  0  0  0  0  0  0  0  0
    8.9410   -0.1892   23.2043 H   0  0  0  0  0  0  0  0  0  0  0  0
    7.3395   -1.6221   21.4955 H   0  0  0  0  0  0  0  0  0  0  0  0
    8.2232   -0.4737   18.6421 H   0  0  0  0  0  0  0  0  0  0  0  0
    5.1730    1.4053   17.3955 H   0  0  0  0  0  0  0  0  0  0  0  0
    4.3007    1.3258   19.2743 H   0  0  0  0  0  0  0  0  0  0  0  0
 20 21  2  0  0  0  0
 19 20  1  0  0  0  0
 21 22  1  0  0  0  0
 18 19  2  0  0  0  0
 22 23  2  0  0  0  0
 18 23  1  0  0  0  0
 17 18  1  0  0  0  0
 23 24  1  0  0  0  0
 15 16  2  0  0  0  0
 15 17  1  0  0  0  0
 14 15  1  0  0  0  0
  8 14  1  0  0  0  0
  7 14  1  0  0  0  0
 12 13  2  0  0  0  0
  8 13  1  0  0  0  0
 11 12  1  0  0  0  0
  7  8  1  0  0  0  0
  8  9  1  0  0  0  0
  6  7  2  0  0  0  0
  5  6  1  0  0  0  0
  9 10  2  0  0  0  0
  2  5  1  0  0  0  0
  2  3  2  0  0  0  0
  1  2  1  0  0  0  0
  2  4  2  0  0  0  0
  1 25  1  0  0  0  0
  1 26  1  0  0  0  0
  1 27  1  0  0  0  0
  5 28  1  0  0  0  0
  6 29  1  0  0  0  0
  9 30  1  0  0  0  0
 10 31  1  0  0  0  0
 10 32  1  0  0  0  0
 11 33  1  0  0  0  0
 11 34  1  0  0  0  0
 11 35  1  0  0  0  0
 12 36  1  0  0  0  0
 13 37  1  0  0  0  0
 14 38  1  0  0  0  0
 17 39  1  0  0  0  0
 19 40  1  0  0  0  0
 21 41  1  0  0  0  0
 22 42  1  0  0  0  0
M  END
> <Chemgauss4>
-12.953452

$$$$
