stable:False satoms:8 tatoms:24 sratio:0.3333333333333333
  -OEChem-08062413153D

 42 43  0     1  0  0  0  0  0999 V2000
   -6.0804   -5.0428  -25.9270 C   0  0  0  0  0  0  0  0  0  0  0  0
   -7.7806   -4.5137  -25.8198 S   0  0  0  0  0  0  0  0  0  0  0  0
   -8.5847   -5.6828  -25.7532 O   0  0  0  0  0  0  0  0  0  0  0  0
   -8.0240   -3.7055  -26.9509 O   0  0  0  0  0  0  0  0  0  0  0  0
   -7.8276   -3.6778  -24.4330 N   0  0  0  0  0  0  0  0  0  0  0  0
   -8.6897   -2.9854  -24.0206 C   0  0  0  0  0  0  0  0  0  0  0  0
   -9.2518   -2.0383  -23.4737 C   0  0  0  0  0  0  0  0  0  0  0  0
  -10.2951   -1.2306  -23.2884 C   0  0  1  0  0  0  0  0  0  0  0  0
  -10.9168   -0.0868  -24.5180 C   0  0  0  0  0  0  0  0  0  0  0  0
  -11.6222    0.3373  -24.7950 C   0  0  0  0  0  0  0  0  0  0  0  0
  -13.2992   -0.5316  -23.6983 C   0  0  0  0  0  0  0  0  0  0  0  0
  -12.7058   -1.1993  -23.1444 C   0  0  0  0  0  0  0  0  0  0  0  0
  -11.6715   -1.6558  -22.8383 C   0  0  0  0  0  0  0  0  0  0  0  0
   -9.6150   -0.6385  -22.4181 C   0  0  1  0  0  0  0  0  0  0  0  0
   -9.0962    0.0186  -21.4196 C   0  0  0  0  0  0  0  0  0  0  0  0
   -9.6855    0.9396  -21.0897 O   0  0  0  0  0  0  0  0  0  0  0  0
   -7.9602   -0.5440  -21.0075 N   0  0  0  0  0  0  0  0  0  0  0  0
   -7.3681   -0.0059  -20.0583 C   0  0  0  0  0  0  0  0  0  0  0  0
   -7.5082    0.2080  -18.7775 C   0  0  0  0  0  0  0  0  0  0  0  0
   -7.1953    0.6049  -17.6536 N   0  0  0  0  0  0  0  0  0  0  0  0
   -6.0117    1.1407  -18.0949 C   0  0  0  0  0  0  0  0  0  0  0  0
   -5.5341    1.1163  -19.1748 C   0  0  0  0  0  0  0  0  0  0  0  0
   -5.9495    0.6349  -20.3393 C   0  0  0  0  0  0  0  0  0  0  0  0
   -5.2488    0.6291  -21.8475 Br  0  0  0  0  0  0  0  0  0  0  0  0
   -5.9354   -5.6284  -26.8468 H   0  0  0  0  0  0  0  0  0  0  0  0
   -5.4227   -4.1613  -25.9462 H   0  0  0  0  0  0  0  0  0  0  0  0
   -5.8344   -5.6649  -25.0538 H   0  0  0  0  0  0  0  0  0  0  0  0
   -7.0250   -3.0826  -24.4718 H   0  0  0  0  0  0  0  0  0  0  0  0
   -9.5511   -3.5636  -24.3208 H   0  0  0  0  0  0  0  0  0  0  0  0
  -10.0956    0.1787  -25.1672 H   0  0  0  0  0  0  0  0  0  0  0  0
  -11.5578    0.9893  -25.6536 H   0  0  0  0  0  0  0  0  0  0  0  0
  -12.5638    0.2129  -24.2809 H   0  0  0  0  0  0  0  0  0  0  0  0
  -14.3579   -0.6791  -23.4387 H   0  0  0  0  0  0  0  0  0  0  0  0
  -13.0047    0.5019  -23.4634 H   0  0  0  0  0  0  0  0  0  0  0  0
  -13.1557   -0.7185  -24.7728 H   0  0  0  0  0  0  0  0  0  0  0  0
  -13.4196   -1.7496  -22.5493 H   0  0  0  0  0  0  0  0  0  0  0  0
  -11.7072   -2.4850  -22.1473 H   0  0  0  0  0  0  0  0  0  0  0  0
   -9.2006    0.0657  -23.1546 H   0  0  0  0  0  0  0  0  0  0  0  0
   -7.5991   -1.3672  -21.4458 H   0  0  0  0  0  0  0  0  0  0  0  0
   -8.4828   -0.2188  -18.5924 H   0  0  0  0  0  0  0  0  0  0  0  0
   -5.4327    1.6602  -17.3458 H   0  0  0  0  0  0  0  0  0  0  0  0
   -4.5603    1.5807  -19.2246 H   0  0  0  0  0  0  0  0  0  0  0  0
 20 21  2  0  0  0  0
 19 20  1  0  0  0  0
 21 22  1  0  0  0  0
 18 19  2  0  0  0  0
 22 23  2  0  0  0  0
 18 23  1  0  0  0  0
 17 18  1  0  0  0  0
 23 24  1  0  0  0  0
 15 16  2  0  0  0  0
 15 17  1  0  0  0  0
 14 15  1  0  0  0  0
  8 14  1  0  0  0  0
  7 14  1  0  0  0  0
 12 13  2  0  0  0  0
  8 13  1  0  0  0  0
 11 12  1  0  0  0  0
  7  8  1  0  0  0  0
  8  9  1  0  0  0  0
  6  7  2  0  0  0  0
  5  6  1  0  0  0  0
  9 10  2  0  0  0  0
  2  5  1  0  0  0  0
  2  3  2  0  0  0  0
  1  2  1  0  0  0  0
  2  4  2  0  0  0  0
  1 25  1  0  0  0  0
  1 26  1  0  0  0  0
  1 27  1  0  0  0  0
  5 28  1  0  0  0  0
  6 29  1  0  0  0  0
  9 30  1  0  0  0  0
 10 31  1  0  0  0  0
 10 32  1  0  0  0  0
 11 33  1  0  0  0  0
 11 34  1  0  0  0  0
 11 35  1  0  0  0  0
 12 36  1  0  0  0  0
 13 37  1  0  0  0  0
 14 38  1  0  0  0  0
 17 39  1  0  0  0  0
 19 40  1  0  0  0  0
 21 41  1  0  0  0  0
 22 42  1  0  0  0  0
M  END
> <Chemgauss4>
-12.910184

$$$$
