REMARK  3 active torsions:
REMARK  status: ('A' for Active; 'I' for Inactive)
REMARK    1  A    between atoms: O_9  and  C_14 
REMARK    2  A    between atoms: O_11  and  C_12 
REMARK    3  A    between atoms: C_12  and  C_14 
ROOT
HETATM    1  C   UNL     1       9.409  -1.470  24.860  1.00  0.00     0.063 C 
HETATM    2  C   UNL     1       8.362  -2.180  24.107  1.00  0.00    -0.011 C 
HETATM    3  C   UNL     1       8.238  -3.564  24.636  1.00  0.00     0.063 C 
HETATM    4  N   UNL     1       7.658  -1.699  23.123  1.00  0.00    -0.302 N 
ATOM      5  HN  UNL     1       7.831  -2.310  22.324  1.00  0.00     0.177 HD
HETATM    6  N   UNL     1       6.084  -0.051  22.296  1.00  0.00    -0.172 NA
HETATM    7  C   UNL     1       6.846  -0.800  22.715  1.00  0.00     0.181 C 
ENDROOT
TORSDOF 3
