stable:False satoms:20 tatoms:24 sratio:0.8333333333333334
  -OEChem-07092417303D

 24 22  0     1  0  0  0  0  0999 V2000
    7.7113   -2.8973   25.1591 H   0  0  0  0  0  0  0  0  0  0  0  0
    7.4712   -3.2774   22.2995 H   0  0  0  0  0  0  0  0  0  0  0  0
    8.4722   -3.4610   22.4795 N   0  0  0  0  0  0  0  0  0  0  0  0
    8.7574   -2.7290   24.8741 C   0  0  0  0  0  0  0  0  0  0  0  0
    9.1186   -1.4456   25.3943 O   0  0  0  0  0  0  0  0  0  0  0  0
    8.4283   -0.1873   20.8437 C   0  0  3  0  0  0  0  0  0  0  0  0
   10.0838   -0.9869   24.6183 O   0  0  0  0  0  0  0  0  0  0  0  0
    9.9481   -0.6682   23.3360 C   0  3  0  0  0  0  0  0  0  0  0  0
    9.0176   -2.9744   23.5267 N   0  0  0  0  0  0  0  0  0  0  0  0
    9.4796   -3.3536   25.4360 H   0  0  0  0  0  0  0  0  0  0  0  0
    9.2783    1.2425   22.1649 H   0  0  0  0  0  0  0  0  0  0  0  0
   10.7478    0.1341   23.2303 H   0  0  0  0  0  0  0  0  0  0  0  0
    8.4419   -1.4066   20.4415 N   0  0  0  0  0  0  0  0  0  0  0  0
    8.1016    0.1180   19.0908 H   0  0  0  0  0  0  0  0  0  0  0  0
    8.9976   -3.0062   21.6757 H   0  0  0  0  0  0  0  0  0  0  0  0
   10.4969   -0.9118   21.4647 H   0  0  0  0  0  0  0  0  0  0  0  0
    8.3488    0.6239   22.0790 C   0  0  0  0  0  0  0  0  0  0  0  0
    8.2647    0.7988   19.8723 O   0  0  0  0  0  0  0  0  0  0  0  0
   10.1199   -1.4686   22.1664 O   0  0  0  0  0  0  0  0  0  0  0  0
    7.4840    1.3139   21.9554 H   0  0  0  0  0  0  0  0  0  0  0  0
    7.3868   -1.3686   19.1194 S   0  0  0  0  0  0  0  0  0  0  0  0
    8.1659   -0.3441   23.1443 C   0  5  0  0  0  0  0  0  0  0  0  0
    7.3919   -1.0801   22.8177 H   0  0  0  0  0  0  0  0  0  0  0  0
    7.8697    0.0453   24.1069 H   0  0  0  0  0  0  0  0  0  0  0  0
 14 18  1  0  0  0  0
 13 21  1  0  0  0  0
  6 18  1  0  0  0  0
  6 13  1  0  0  0  0
  6 17  1  0  0  0  0
 16 19  1  0  0  0  0
  3 15  1  0  0  0  0
 17 20  1  0  0  0  0
 11 17  1  0  0  0  0
 17 22  1  0  0  0  0
  8 19  1  0  0  0  0
  2  3  1  0  0  0  0
  3  9  1  0  0  0  0
 22 23  1  0  0  0  0
 22 24  1  0  0  0  0
  8 12  1  0  0  0  0
  7  8  1  0  0  0  0
  4  9  1  0  0  0  0
  5  7  1  0  0  0  0
  1  4  1  0  0  0  0
  4  5  1  0  0  0  0
  4 10  1  0  0  0  0
M  CHG  2   8   1  22  -1
M  END
> <Shapegauss>
-115.862907

$$$$
