REMARK  7 active torsions:
REMARK  status: ('A' for Active; 'I' for Inactive)
REMARK    1  A    between atoms: N_2  and  N_7 
REMARK    2  A    between atoms: C_3  and  N_7 
REMARK    3  A    between atoms: C_3  and  O_4 
REMARK    4  A    between atoms: O_4  and  O_5 
REMARK    5  A    between atoms: O_5  and  C_6 
REMARK    6  A    between atoms: C_6  and  O_11 
REMARK    7  A    between atoms: C_12  and  C_16 
ROOT
HETATM    1  C   UNL     2       8.428  -0.187  20.844  1.00  0.00     0.121 C 
HETATM    2  N   UNL     2       8.442  -1.407  20.442  1.00  0.00    -0.315 N 
ATOM      3  HN  UNL     2       8.959  -2.199  20.824  1.00  0.00     0.175 HD
HETATM    4  H   UNL     2       8.102   0.118  19.091  1.00  0.00     0.309 HD
HETATM    5  O   UNL     2       8.265   0.799  19.872  1.00  0.00    -0.339 OA
HETATM    6  S   UNL     2       7.387  -1.369  19.119  1.00  0.00    -0.044 SA
ENDROOT
BRANCH   1   7
HETATM    7  C   UNL     2       8.349   0.624  22.079  1.00  0.00     0.080 C 
HETATM    8  C   UNL     2       8.166  -0.344  23.144  1.00  0.00     0.013 C 
ENDBRANCH   1   7
TORSDOF 7
