stable:False satoms:8 tatoms:24 sratio:0.3333333333333333
  -OEChem-07092417493D

 24 24  0     1  0  0  0  0  0999 V2000
    6.6980   -4.8354   26.4129 C   0  0  0  0  0  0  0  0  0  0  0  0
    8.1549   -4.3441   26.1200 S   0  0  0  0  0  0  0  0  0  0  0  0
    9.0608   -5.4838   26.0665 O   0  0  0  0  0  0  0  0  0  0  0  0
    8.5712   -3.4447   27.1695 O   0  0  0  0  0  0  0  0  0  0  0  0
    8.0902   -3.6057   24.6750 N   0  0  0  0  0  0  0  0  0  0  0  0
    8.9476   -2.9191   24.1491 C   0  0  0  0  0  0  0  0  0  0  0  0
    9.4121   -1.9372   23.4897 C   0  0  0  0  0  0  0  0  0  0  0  0
   10.3100   -1.0906   23.2988 C   0  0  2  0  0  0  0  0  0  0  0  0
   11.0288   -0.0258   24.2745 C   0  0  0  0  0  0  0  0  0  0  0  0
   12.0869    0.3445   24.2275 C   0  0  0  0  0  0  0  0  0  0  0  0
   13.1261   -0.1492   23.4773 C   0  0  0  0  0  0  0  0  0  0  0  0
   12.7104   -1.2719   22.6547 C   0  0  0  0  0  0  0  0  0  0  0  0
   11.8263   -1.7523   22.5427 C   0  0  0  0  0  0  0  0  0  0  0  0
    9.7118   -0.5556   22.3565 C   0  0  0  0  0  0  0  0  0  0  0  0
    9.0638    0.0354   21.3904 C   0  0  0  0  0  0  0  0  0  0  0  0
    9.5744    0.9830   20.9853 O   0  0  0  0  0  0  0  0  0  0  0  0
    7.9129   -0.5625   21.0910 N   0  0  0  0  0  0  0  0  0  0  0  0
    7.2045   -0.1169   20.1664 C   0  0  0  0  0  0  0  0  0  0  0  0
    7.2617   -0.0085   18.8694 C   0  0  0  0  0  0  0  0  0  0  0  0
    6.7814    0.3271   17.7636 N   0  0  0  0  0  0  0  0  0  0  0  0
    5.6893    0.8777   18.2343 C   0  0  0  0  0  0  0  0  0  0  0  0
    5.2553    0.9647   19.3749 C   0  0  0  0  0  0  0  0  0  0  0  0
    5.7858    0.5749   20.5394 C   0  0  0  0  0  0  0  0  0  0  0  0
    5.3198    0.7057   21.9675 C   0  0  0  0  0  0  0  0  0  0  0  0
 20 21  2  0  0  0  0
 19 20  1  0  0  0  0
 21 22  1  0  0  0  0
 18 19  2  0  0  0  0
 22 23  2  0  0  0  0
 18 23  1  0  0  0  0
 17 18  1  0  0  0  0
 23 24  1  0  0  0  0
 15 16  2  0  0  0  0
 15 17  1  0  0  0  0
 14 15  1  0  0  0  0
  8 14  1  0  0  0  0
 12 13  2  0  0  0  0
 11 12  1  0  0  0  0
  7  8  1  0  0  0  0
  8  9  1  0  0  0  0
 10 11  1  0  0  0  0
  6  7  2  3  0  0  0
  5  6  1  0  0  0  0
  9 10  2  0  0  0  0
  2  5  1  0  0  0  0
  2  3  2  0  0  0  0
  1  2  1  0  0  0  0
  2  4  2  0  0  0  0
M  END
> <Shapegauss>
-286.515320

$$$$
