REMARK  9 active torsions:
REMARK  status: ('A' for Active; 'I' for Inactive)
REMARK    1  A    between atoms: S_2  and  N_5 
REMARK    2  A    between atoms: N_5  and  C_7 
REMARK    3  A    between atoms: C_8  and  C_9 
REMARK    4  A    between atoms: C_9  and  C_15 
REMARK    5  A    between atoms: C_9  and  C_10 
REMARK    6  A    between atoms: C_10  and  C_11 
REMARK    7  A    between atoms: C_12  and  C_13 
REMARK    8  A    between atoms: C_15  and  C_16 
REMARK       I    between atoms: C_16  and  N_18 
REMARK    9  A    between atoms: N_18  and  C_20 
ROOT
HETATM    1  C   UNL     1      10.310  -1.091  23.299  1.00  0.00     0.109 C 
ENDROOT
BRANCH   1   2
HETATM    2  C   UNL     1       9.412  -1.937  23.490  1.00  0.00     0.011 C 
HETATM    3  C   UNL     1       8.948  -2.919  24.149  1.00  0.00     0.097 C 
BRANCH   3   4
HETATM    4  N   UNL     1       8.090  -3.606  24.675  1.00  0.00    -0.296 N 
ATOM      5  HN  UNL     1       7.228  -3.733  24.144  1.00  0.00     0.177 HD
BRANCH   4   6
HETATM    6  S   UNL     1       8.155  -4.344  26.120  1.00  0.00     0.226 S 
HETATM    7  C   UNL     1       6.698  -4.835  26.413  1.00  0.00     0.186 C 
HETATM    8  O   UNL     1       9.061  -5.484  26.067  1.00  0.00    -0.206 OA
HETATM    9  O   UNL     1       8.571  -3.445  27.169  1.00  0.00    -0.206 OA
ENDBRANCH   4   6
ENDBRANCH   3   4
ENDBRANCH   1   2
BRANCH   1  10
HETATM   10  C   UNL     1       9.712  -0.556  22.357  1.00  0.00    -0.071 C 
BRANCH  10  11
HETATM   11  C   UNL     1       9.064   0.035  21.390  1.00  0.00     0.289 C 
HETATM   12  O   UNL     1       9.574   0.983  20.985  1.00  0.00    -0.259 OA
HETATM   13  N   UNL     1       7.913  -0.562  21.091  1.00  0.00    -0.315 N 
ATOM     14  HN  UNL     1       7.611  -1.382  21.617  1.00  0.00     0.170 HD
BRANCH  13  15
HETATM   15  C   UNL     1       7.205  -0.117  20.166  1.00  0.00     0.057 A 
HETATM   16  C   UNL     1       7.262  -0.009  18.869  1.00  0.00     0.117 A 
HETATM   17  N   UNL     1       6.781   0.327  17.764  1.00  0.00    -0.373 N 
HETATM   18  C   UNL     1       5.689   0.878  18.234  1.00  0.00     0.088 A 
ATOM     19  HN  UNL     1       7.125   0.210  16.811  1.00  0.00     0.164 HD
HETATM   20  C   UNL     1       5.255   0.965  19.375  1.00  0.00     0.026 A 
HETATM   21  C   UNL     1       5.786   0.575  20.539  1.00  0.00    -0.033 A 
HETATM   22  C   UNL     1       5.320   0.706  21.968  1.00  0.00     0.050 C 
ENDBRANCH  13  15
ENDBRANCH  10  11
ENDBRANCH   1  10
BRANCH   1  23
HETATM   23  C   UNL     1      11.029  -0.026  24.274  1.00  0.00    -0.006 C 
BRANCH  23  24
HETATM   24  C   UNL     1      12.087   0.344  24.227  1.00  0.00    -0.002 C 
HETATM   25  C   UNL     1      13.126  -0.149  23.477  1.00  0.00    -0.001 C 
BRANCH  25  26
HETATM   26  C   UNL     1      12.710  -1.272  22.655  1.00  0.00    -0.010 C 
HETATM   27  C   UNL     1      11.826  -1.752  22.543  1.00  0.00     0.011 C 
ENDBRANCH  25  26
ENDBRANCH  23  24
ENDBRANCH   1  23
TORSDOF 9
