stable:False satoms:18 tatoms:24 sratio:0.75
  -OEChem-07092417363D

 24 23  0     1  0  0  0  0  0999 V2000
    7.1766   -3.0128   25.7079 H   0  0  0  0  0  0  0  0  0  0  0  0
    8.4355   -4.1606   25.2140 H   0  0  0  0  0  0  0  0  0  0  0  0
    7.7233   -4.2682   26.8164 H   0  0  0  0  0  0  0  0  0  0  0  0
    8.7944   -2.9282   26.4522 H   0  0  0  0  0  0  0  0  0  0  0  0
    8.7927   -2.1607   24.5462 N   0  0  0  0  0  0  0  0  0  0  0  0
    8.0344   -3.5763   26.0356 C   0  0  0  0  0  0  0  0  0  0  0  0
    8.8567   -1.6256   23.4622 C   0  0  3  0  0  0  0  0  0  0  0  0
    9.9863   -1.9743   23.6529 O   0  0  0  0  0  0  0  0  0  0  0  0
   11.3286   -0.0672   22.9071 C   0  0  0  0  0  0  0  0  0  0  0  0
   12.6908    0.5642   24.2875 H   0  0  0  0  0  0  0  0  0  0  0  0
   11.8915    0.7265   23.7731 N   0  5  0  0  0  0  0  0  0  0  0  0
   12.0001   -1.1236   22.5645 O   0  5  0  0  0  0  0  0  0  0  0  0
   10.3282   -1.3768   20.2867 Cl  0  0  0  0  0  0  0  0  0  0  0  0
    7.9519   -0.9772   22.5291 C   0  5  3  0  0  0  0  0  0  0  0  0
    8.7385   -0.6485   20.1392 C   0  0  0  0  0  0  0  0  0  0  0  0
   10.2611    0.3907   22.3333 O   0  0  0  0  0  0  0  0  0  0  0  0
    7.8657   -0.6046   21.1803 C   0  0  0  0  0  0  0  0  0  0  0  0
    6.6716   -0.0685   20.5859 C   0  0  0  0  0  0  0  0  0  0  0  0
    8.0332   -0.2002   18.9140 C   0  0  0  0  0  0  0  0  0  0  0  0
    8.4560   -0.1548   17.9198 H   0  0  0  0  0  0  0  0  0  0  0  0
    6.7703    0.1109   19.2161 C   0  5  3  0  0  0  0  0  0  0  0  0
    5.9689    0.4310   18.5635 H   0  0  0  0  0  0  0  0  0  0  0  0
    5.8457    0.2211   21.1822 H   0  0  0  0  0  0  0  0  0  0  0  0
    6.9820   -0.8065   23.0270 H   0  0  0  0  0  0  0  0  0  0  0  0
 19 20  1  0  0  0  0
 21 22  1  0  0  0  0
 19 21  1  0  0  0  0
 15 19  2  0  0  0  0
 18 21  1  0  0  0  0
 13 15  1  0  0  0  0
 15 17  1  0  0  0  0
 17 18  2  0  0  0  0
 18 23  1  0  0  0  0
 14 17  1  0  0  0  0
  9 16  2  0  0  0  0
 14 24  1  0  0  0  0
  7 14  1  0  0  0  0
  9 12  1  0  0  0  0
  9 11  1  0  0  0  0
  7  8  1  0  0  0  0
  5  7  1  0  0  0  0
  5  8  1  0  0  0  0
 10 11  1  0  0  0  0
  2  6  1  0  0  0  0
  1  6  1  0  0  0  0
  4  6  1  0  0  0  0
  3  6  1  0  0  0  0
M  CHG  4  11  -1  12  -1  14  -1  21  -1
M  END
> <Shapegauss>
-151.171478

$$$$
