stable:False satoms:21 tatoms:24 sratio:0.875
  -OEChem-07092417313D

 24 22  0     1  0  0  0  0  0999 V2000
   10.3224   -2.0668   24.8116 H   0  0  0  0  0  0  0  0  0  0  0  0
    9.6242   -2.4016   22.5771 H   0  0  0  0  0  0  0  0  0  0  0  0
    7.8968   -3.5688   25.6784 H   0  0  0  0  0  0  0  0  0  0  0  0
    9.1929   -4.0879   24.6678 H   0  0  0  0  0  0  0  0  0  0  0  0
    7.5343   -4.1382   24.0526 H   0  0  0  0  0  0  0  0  0  0  0  0
    9.1236   -1.4367   25.9102 H   0  0  0  0  0  0  0  0  0  0  0  0
    9.4093   -1.4695   24.8596 C   0  0  0  0  0  0  0  0  0  0  0  0
    8.3618   -2.1800   24.1067 C   0  0  0  0  0  0  0  0  0  0  0  0
    9.5972   -0.4571   24.5167 H   0  0  0  0  0  0  0  0  0  0  0  0
    9.5011    0.9391   22.0447 O   0  0  0  0  0  0  0  0  0  0  0  0
   10.2552    0.4244   22.4477 H   0  0  0  0  0  0  0  0  0  0  0  0
   10.1829   -1.0773   20.1262 H   0  0  0  0  0  0  0  0  0  0  0  0
    8.2382   -3.5638   24.6357 C   0  0  0  0  0  0  0  0  0  0  0  0
    9.8826   -1.6412   22.0248 O   0  0  0  0  0  0  0  0  0  0  0  0
    7.9433    0.2451   19.1465 H   0  0  0  0  0  0  0  0  0  0  0  0
    9.1945    1.5016   19.3626 H   0  0  0  0  0  0  0  0  0  0  0  0
    7.6582   -1.6994   23.1227 N   0  0  0  0  0  0  0  0  0  0  0  0
    8.5136   -1.6814   20.4607 H   0  0  0  0  0  0  0  0  0  0  0  0
    9.3390   -1.0746   20.8285 C   0  0  0  0  0  0  0  0  0  0  0  0
    8.3679    0.9787   19.8354 C   0  0  0  0  0  0  0  0  0  0  0  0
    7.5944    1.7014   20.0606 H   0  0  0  0  0  0  0  0  0  0  0  0
    8.9202    0.3154   21.0088 C   0  0  2  0  0  0  0  0  0  0  0  0
    6.0842   -0.0510   22.2962 N   0  0  0  0  0  0  0  0  0  0  0  0
    6.8462   -0.8004   22.7150 C   0  0  0  0  0  0  0  0  0  0  0  0
 15 20  1  0  0  0  0
 16 20  1  0  0  0  0
 20 21  1  0  0  0  0
 20 22  1  0  0  0  0
 12 19  1  0  0  0  0
 18 19  1  0  0  0  0
 19 22  1  0  0  0  0
 14 19  1  0  0  0  0
 10 22  1  0  0  0  0
  2 14  1  0  0  0  0
 10 11  1  0  0  0  0
 23 24  2  0  0  0  0
 17 24  1  0  0  0  0
  8 17  1  0  0  0  0
  5 13  1  0  0  0  0
  8 13  1  0  0  0  0
  7  8  1  0  0  0  0
  7  9  1  0  0  0  0
  4 13  1  0  0  0  0
  3 13  1  0  0  0  0
  1  7  1  0  0  0  0
  6  7  1  0  0  0  0
M  END
> <Shapegauss>
-88.728027

$$$$
