stable:False satoms:21 tatoms:24 sratio:0.875
  -OEChem-07092417273D

 24 24  0     1  0  0  0  0  0999 V2000
   10.6054   -3.9158   23.3842 H   0  0  0  0  0  0  0  0  0  0  0  0
    7.5337    0.1634   20.0479 C   0  0  0  0  0  0  0  0  0  0  0  0
   10.3014   -5.0447   25.3567 H   0  0  0  0  0  0  0  0  0  0  0  0
    7.9572   -1.4053   21.4450 H   0  0  0  0  0  0  0  0  0  0  0  0
    8.5541   -5.0479   25.1913 H   0  0  0  0  0  0  0  0  0  0  0  0
    9.1073   -1.3233   23.8490 C   0  0  0  0  0  0  0  0  0  0  0  0
    7.1081   -0.4906   19.3141 H   0  0  0  0  0  0  0  0  0  0  0  0
    8.7476    0.4829   22.1026 C   0  0  0  0  0  0  0  0  0  0  0  0
    8.0688   -0.3545   21.2121 C   0  0  0  0  0  0  0  0  0  0  0  0
    9.3538   -3.5937   25.8206 H   0  0  0  0  0  0  0  0  0  0  0  0
    9.2038   -2.5116   23.2288 N   0  0  0  0  0  0  0  0  0  0  0  0
    8.7039   -4.7021   22.9657 O   0  0  0  0  0  0  0  0  0  0  0  0
    7.0761    1.9337   18.9244 H   0  0  0  0  0  0  0  0  0  0  0  0
    9.4434   -4.4225   25.1244 C   0  0  0  0  0  0  0  0  0  0  0  0
    8.1414    3.4314   20.5388 H   0  0  0  0  0  0  0  0  0  0  0  0
    8.2381   -4.1929   22.2684 H   0  0  0  0  0  0  0  0  0  0  0  0
   10.0296    0.5222   23.6914 H   0  0  0  0  0  0  0  0  0  0  0  0
    8.7759   -1.2181   25.0108 O   0  0  0  0  0  0  0  0  0  0  0  0
    9.5431   -3.8197   23.6785 C   0  0  2  0  0  0  0  0  0  0  0  0
    8.1529    2.3728   20.7237 C   0  0  0  0  0  0  0  0  0  0  0  0
    8.7615    1.8635   21.8625 C   0  0  0  0  0  0  0  0  0  0  0  0
    7.5355    1.5350   19.8148 C   0  0  0  0  0  0  0  0  0  0  0  0
    9.4042   -0.0886   23.1767 N   0  0  0  0  0  0  0  0  0  0  0  0
    9.2374    2.5361   22.5643 H   0  0  0  0  0  0  0  0  0  0  0  0
 13 22  1  0  0  0  0
  2  7  1  0  0  0  0
  2 22  2  0  0  0  0
 20 22  1  0  0  0  0
  2  9  1  0  0  0  0
 15 20  1  0  0  0  0
 20 21  2  0  0  0  0
  4  9  1  0  0  0  0
  8  9  2  0  0  0  0
  8 21  1  0  0  0  0
 21 24  1  0  0  0  0
  8 23  1  0  0  0  0
 12 16  1  0  0  0  0
 12 19  1  0  0  0  0
 17 23  1  0  0  0  0
  6 23  1  0  0  0  0
 11 19  1  0  0  0  0
  6 11  1  0  0  0  0
  1 19  1  0  0  0  0
 14 19  1  0  0  0  0
  6 18  2  0  0  0  0
  5 14  1  0  0  0  0
  3 14  1  0  0  0  0
 10 14  1  0  0  0  0
M  END
> <Shapegauss>
-109.866554

$$$$
