MODEL 1
REMARK VINA RESULT:    -5.559      0.000      0.000
REMARK INTER + INTRA:          -6.466
REMARK INTER:                  -6.371
REMARK INTRA:                  -0.095
REMARK UNBOUND:                -0.095
REMARK  3 active torsions:
REMARK  status: ('A' for Active; 'I' for Inactive)
REMARK       I    between atoms: C_2  and  N_16 
REMARK       I    between atoms: C_2  and  N_5 
REMARK    1  A    between atoms: C_3  and  N_16 
REMARK    2  A    between atoms: N_5  and  C_12 
REMARK    3  A    between atoms: O_7  and  C_12 
ROOT
HETATM    1  C   UNL     1       1.506 -18.507   7.944  1.00  0.00     0.322 C 
HETATM    2  N   UNL     1       0.944 -18.159   9.114  1.00  0.00    -0.317 N 
ATOM      3  HN  UNL     1       1.017 -18.882   9.830  1.00  0.00     0.166 HD
HETATM    4  H   UNL     1       3.403 -19.019   7.293  1.00  0.00     0.170 HD
HETATM    5  O   UNL     1       1.092 -18.108   6.876  1.00  0.00    -0.247 OA
HETATM    6  N   UNL     1       2.652 -19.371   7.878  1.00  0.00    -0.309 N 
ENDROOT
BRANCH   6   7
HETATM    7  C   UNL     1       2.750 -20.698   8.253  1.00  0.00     0.036 A 
HETATM    8  C   UNL     1       3.634 -21.526   7.555  1.00  0.00     0.029 A 
HETATM    9  C   UNL     1       3.647 -22.886   7.798  1.00  0.00     0.002 A 
HETATM   10  C   UNL     1       2.890 -23.428   8.833  1.00  0.00     0.000 A 
HETATM   11  C   UNL     1       2.058 -22.602   9.565  1.00  0.00     0.002 A 
HETATM   12  C   UNL     1       1.978 -21.245   9.286  1.00  0.00     0.029 A 
ENDBRANCH   6   7
BRANCH   2  13
HETATM   13  C   UNL     1       0.268 -16.988   9.560  1.00  0.00     0.217 C 
HETATM   14  C   UNL     1      -0.296 -16.658  10.987  1.00  0.00     0.063 C 
BRANCH  13  15
HETATM   15  O   UNL     1       1.180 -15.926   9.384  1.00  0.00    -0.377 OA
HETATM   16  H   UNL     1       1.113 -15.327  10.160  1.00  0.00     0.212 HD
ENDBRANCH  13  15
ENDBRANCH   2  13
TORSDOF 3
ENDMDL
MODEL 2
REMARK VINA RESULT:    -5.453     35.965     38.346
REMARK INTER + INTRA:          -6.345
REMARK INTER:                  -6.126
REMARK INTRA:                  -0.218
REMARK UNBOUND:                -0.095
REMARK  3 active torsions:
REMARK  status: ('A' for Active; 'I' for Inactive)
REMARK       I    between atoms: C_2  and  N_16 
REMARK       I    between atoms: C_2  and  N_5 
REMARK    1  A    between atoms: C_3  and  N_16 
REMARK    2  A    between atoms: N_5  and  C_12 
REMARK    3  A    between atoms: O_7  and  C_12 
ROOT
HETATM    1  C   UNL     1       9.226  15.708   1.447  1.00  0.00     0.322 C 
HETATM    2  N   UNL     1       7.991  15.185   1.530  1.00  0.00    -0.317 N 
ATOM      3  HN  UNL     1       7.249  15.877   1.423  1.00  0.00     0.166 HD
HETATM    4  H   UNL     1      10.324  16.722   0.017  1.00  0.00     0.170 HD
HETATM    5  O   UNL     1      10.171  15.249   2.054  1.00  0.00    -0.247 OA
HETATM    6  N   UNL     1       9.517  16.844   0.618  1.00  0.00    -0.309 N 
ENDROOT
BRANCH   6   7
HETATM    7  C   UNL     1       9.040  18.137   0.736  1.00  0.00     0.036 A 
HETATM    8  C   UNL     1       7.929  18.511  -0.025  1.00  0.00     0.029 A 
HETATM    9  C   UNL     1       7.520  19.831  -0.050  1.00  0.00     0.002 A 
HETATM   10  C   UNL     1       8.112  20.773   0.786  1.00  0.00     0.000 A 
HETATM   11  C   UNL     1       9.173  20.392   1.586  1.00  0.00     0.002 A 
HETATM   12  C   UNL     1       9.645  19.087   1.569  1.00  0.00     0.029 A 
ENDBRANCH   6   7
BRANCH   2  13
HETATM   13  C   UNL     1       7.504  13.863   1.737  1.00  0.00     0.217 C 
HETATM   14  C   UNL     1       6.137  13.400   2.355  1.00  0.00     0.063 C 
BRANCH  13  15
HETATM   15  O   UNL     1       7.427  13.275   0.457  1.00  0.00    -0.377 OA
HETATM   16  H   UNL     1       6.612  12.730   0.413  1.00  0.00     0.212 HD
ENDBRANCH  13  15
ENDBRANCH   2  13
TORSDOF 3
ENDMDL
MODEL 3
REMARK VINA RESULT:    -5.393     32.392     34.785
REMARK INTER + INTRA:          -6.276
REMARK INTER:                  -6.092
REMARK INTRA:                  -0.184
REMARK UNBOUND:                -0.095
REMARK  3 active torsions:
REMARK  status: ('A' for Active; 'I' for Inactive)
REMARK       I    between atoms: C_2  and  N_16 
REMARK       I    between atoms: C_2  and  N_5 
REMARK    1  A    between atoms: C_3  and  N_16 
REMARK    2  A    between atoms: N_5  and  C_12 
REMARK    3  A    between atoms: O_7  and  C_12 
ROOT
HETATM    1  C   UNL     1       8.255  12.177   3.310  1.00  0.00     0.322 C 
HETATM    2  N   UNL     1       7.494  11.972   2.221  1.00  0.00    -0.317 N 
ATOM      3  HN  UNL     1       7.405  12.797   1.627  1.00  0.00     0.166 HD
HETATM    4  H   UNL     1      10.222  12.706   3.678  1.00  0.00     0.170 HD
HETATM    5  O   UNL     1       8.065  11.599   4.358  1.00  0.00    -0.247 OA
HETATM    6  N   UNL     1       9.362  13.093   3.302  1.00  0.00    -0.309 N 
ENDROOT
BRANCH   6   7
HETATM    7  C   UNL     1       9.341  14.464   3.129  1.00  0.00     0.036 A 
HETATM    8  C   UNL     1       9.442  15.281   4.259  1.00  0.00     0.029 A 
HETATM    9  C   UNL     1       9.270  16.647   4.143  1.00  0.00     0.002 A 
HETATM   10  C   UNL     1       9.139  17.242   2.892  1.00  0.00     0.000 A 
HETATM   11  C   UNL     1       9.100  16.442   1.765  1.00  0.00     0.002 A 
HETATM   12  C   UNL     1       9.196  15.061   1.870  1.00  0.00     0.029 A 
ENDBRANCH   6   7
BRANCH   2  13
HETATM   13  C   UNL     1       6.787  10.839   1.727  1.00  0.00     0.217 C 
HETATM   14  C   UNL     1       5.251  10.525   1.803  1.00  0.00     0.063 C 
BRANCH  13  15
HETATM   15  O   UNL     1       6.987  10.838   0.331  1.00  0.00    -0.377 OA
HETATM   16  H   UNL     1       7.329   9.957   0.066  1.00  0.00     0.212 HD
ENDBRANCH  13  15
ENDBRANCH   2  13
TORSDOF 3
ENDMDL
MODEL 4
REMARK VINA RESULT:    -5.332     31.056     33.252
REMARK INTER + INTRA:          -6.207
REMARK INTER:                  -6.081
REMARK INTRA:                  -0.125
REMARK UNBOUND:                -0.095
REMARK  3 active torsions:
REMARK  status: ('A' for Active; 'I' for Inactive)
REMARK       I    between atoms: C_2  and  N_16 
REMARK       I    between atoms: C_2  and  N_5 
REMARK    1  A    between atoms: C_3  and  N_16 
REMARK    2  A    between atoms: N_5  and  C_12 
REMARK    3  A    between atoms: O_7  and  C_12 
ROOT
HETATM    1  C   UNL     1       8.646  13.158   3.469  1.00  0.00     0.322 C 
HETATM    2  N   UNL     1       8.562  13.779   2.280  1.00  0.00    -0.317 N 
ATOM      3  HN  UNL     1       7.886  13.352   1.646  1.00  0.00     0.166 HD
HETATM    4  H   UNL     1       7.358  12.764   5.040  1.00  0.00     0.170 HD
HETATM    5  O   UNL     1       9.673  13.114   4.112  1.00  0.00    -0.247 OA
HETATM    6  N   UNL     1       7.513  12.511   4.070  1.00  0.00    -0.309 N 
ENDROOT
BRANCH   6   7
HETATM    7  C   UNL     1       6.808  11.414   3.612  1.00  0.00     0.036 A 
HETATM    8  C   UNL     1       6.544  11.314   2.242  1.00  0.00     0.029 A 
HETATM    9  C   UNL     1       5.715  10.316   1.768  1.00  0.00     0.002 A 
HETATM   10  C   UNL     1       5.248   9.318   2.618  1.00  0.00     0.000 A 
HETATM   11  C   UNL     1       5.557   9.380   3.964  1.00  0.00     0.002 A 
HETATM   12  C   UNL     1       6.328  10.417   4.470  1.00  0.00     0.029 A 
ENDBRANCH   6   7
BRANCH   2  13
HETATM   13  C   UNL     1       9.224  14.911   1.724  1.00  0.00     0.217 C 
HETATM   14  C   UNL     1       8.851  16.431   1.849  1.00  0.00     0.063 C 
BRANCH  13  15
HETATM   15  O   UNL     1      10.521  14.910   2.277  1.00  0.00    -0.377 OA
HETATM   16  H   UNL     1      10.873  13.995   2.244  1.00  0.00     0.212 HD
ENDBRANCH  13  15
ENDBRANCH   2  13
TORSDOF 3
ENDMDL
MODEL 5
REMARK VINA RESULT:    -5.329     22.018     24.638
REMARK INTER + INTRA:          -6.203
REMARK INTER:                  -5.807
REMARK INTRA:                  -0.396
REMARK UNBOUND:                -0.095
REMARK  3 active torsions:
REMARK  status: ('A' for Active; 'I' for Inactive)
REMARK       I    between atoms: C_2  and  N_16 
REMARK       I    between atoms: C_2  and  N_5 
REMARK    1  A    between atoms: C_3  and  N_16 
REMARK    2  A    between atoms: N_5  and  C_12 
REMARK    3  A    between atoms: O_7  and  C_12 
ROOT
HETATM    1  C   UNL     1       8.485  -2.573  23.105  1.00  0.00     0.322 C 
HETATM    2  N   UNL     1       8.628  -3.796  23.645  1.00  0.00    -0.317 N 
ATOM      3  HN  UNL     1       9.524  -3.928  24.116  1.00  0.00     0.166 HD
HETATM    4  H   UNL     1       8.452  -0.626  23.805  1.00  0.00     0.170 HD
HETATM    5  O   UNL     1       7.831  -2.375  22.102  1.00  0.00    -0.247 OA
HETATM    6  N   UNL     1       9.088  -1.408  23.689  1.00  0.00    -0.309 N 
ENDROOT
BRANCH   6   7
HETATM    7  C   UNL     1      10.432  -1.121  23.838  1.00  0.00     0.036 A 
HETATM    8  C   UNL     1      10.805  -0.111  24.730  1.00  0.00     0.029 A 
HETATM    9  C   UNL     1      12.120   0.308  24.792  1.00  0.00     0.002 A 
HETATM   10  C   UNL     1      13.111  -0.361  24.080  1.00  0.00     0.000 A 
HETATM   11  C   UNL     1      12.755  -1.401  23.241  1.00  0.00     0.002 A 
HETATM   12  C   UNL     1      11.428  -1.786  23.111  1.00  0.00     0.029 A 
ENDBRANCH   6   7
BRANCH   2  13
HETATM   13  C   UNL     1       7.787  -4.943  23.696  1.00  0.00     0.217 C 
HETATM   14  C   UNL     1       6.313  -5.063  24.224  1.00  0.00     0.063 C 
BRANCH  13  15
HETATM   15  O   UNL     1       7.622  -5.360  22.359  1.00  0.00    -0.377 OA
HETATM   16  H   UNL     1       6.955  -6.080  22.337  1.00  0.00     0.212 HD
ENDBRANCH  13  15
ENDBRANCH   2  13
TORSDOF 3
ENDMDL
MODEL 6
REMARK VINA RESULT:    -5.261     30.743     31.774
REMARK INTER + INTRA:          -6.125
REMARK INTER:                  -5.720
REMARK INTRA:                  -0.405
REMARK UNBOUND:                -0.095
REMARK  3 active torsions:
REMARK  status: ('A' for Active; 'I' for Inactive)
REMARK       I    between atoms: C_2  and  N_16 
REMARK       I    between atoms: C_2  and  N_5 
REMARK    1  A    between atoms: C_3  and  N_16 
REMARK    2  A    between atoms: N_5  and  C_12 
REMARK    3  A    between atoms: O_7  and  C_12 
ROOT
HETATM    1  C   UNL     1      23.890  -4.434  26.112  1.00  0.00     0.322 C 
HETATM    2  N   UNL     1      23.632  -5.470  25.294  1.00  0.00    -0.317 N 
ATOM      3  HN  UNL     1      22.996  -5.236  24.531  1.00  0.00     0.166 HD
HETATM    4  H   UNL     1      24.743  -2.559  25.921  1.00  0.00     0.170 HD
HETATM    5  O   UNL     1      24.123  -4.578  27.293  1.00  0.00    -0.247 OA
HETATM    6  N   UNL     1      23.920  -3.080  25.636  1.00  0.00    -0.309 N 
ENDROOT
BRANCH   6   7
HETATM    7  C   UNL     1      22.883  -2.331  25.110  1.00  0.00     0.036 A 
HETATM    8  C   UNL     1      21.775  -2.063  25.919  1.00  0.00     0.029 A 
HETATM    9  C   UNL     1      20.658  -1.453  25.383  1.00  0.00     0.002 A 
HETATM   10  C   UNL     1      20.671  -0.969  24.078  1.00  0.00     0.000 A 
HETATM   11  C   UNL     1      21.789  -1.179  23.292  1.00  0.00     0.002 A 
HETATM   12  C   UNL     1      22.893  -1.856  23.792  1.00  0.00     0.029 A 
ENDBRANCH   6   7
BRANCH   2  13
HETATM   13  C   UNL     1      24.065  -6.826  25.274  1.00  0.00     0.217 C 
HETATM   14  C   UNL     1      25.373  -7.435  24.657  1.00  0.00     0.063 C 
BRANCH  13  15
HETATM   15  O   UNL     1      24.209  -7.205  26.625  1.00  0.00    -0.377 OA
HETATM   16  H   UNL     1      23.523  -7.875  26.835  1.00  0.00     0.212 HD
ENDBRANCH  13  15
ENDBRANCH   2  13
TORSDOF 3
ENDMDL
MODEL 7
REMARK VINA RESULT:    -5.210     23.121     24.678
REMARK INTER + INTRA:          -6.066
REMARK INTER:                  -5.742
REMARK INTRA:                  -0.324
REMARK UNBOUND:                -0.095
REMARK  3 active torsions:
REMARK  status: ('A' for Active; 'I' for Inactive)
REMARK       I    between atoms: C_2  and  N_16 
REMARK       I    between atoms: C_2  and  N_5 
REMARK    1  A    between atoms: C_3  and  N_16 
REMARK    2  A    between atoms: N_5  and  C_12 
REMARK    3  A    between atoms: O_7  and  C_12 
ROOT
HETATM    1  C   UNL     1       8.177  -1.541  22.004  1.00  0.00     0.322 C 
HETATM    2  N   UNL     1       7.903  -0.447  21.272  1.00  0.00    -0.317 N 
ATOM      3  HN  UNL     1       8.610   0.283  21.354  1.00  0.00     0.166 HD
HETATM    4  H   UNL     1       9.688  -2.953  22.068  1.00  0.00     0.170 HD
HETATM    5  O   UNL     1       7.310  -2.239  22.486  1.00  0.00    -0.247 OA
HETATM    6  N   UNL     1       9.525  -1.970  22.254  1.00  0.00    -0.309 N 
ENDROOT
BRANCH   6   7
HETATM    7  C   UNL     1      10.515  -1.317  22.965  1.00  0.00     0.036 A 
HETATM    8  C   UNL     1      11.850  -1.639  22.701  1.00  0.00     0.029 A 
HETATM    9  C   UNL     1      12.856  -1.123  23.495  1.00  0.00     0.002 A 
HETATM   10  C   UNL     1      12.573  -0.170  24.468  1.00  0.00     0.000 A 
HETATM   11  C   UNL     1      11.260   0.197  24.691  1.00  0.00     0.002 A 
HETATM   12  C   UNL     1      10.228  -0.367  23.953  1.00  0.00     0.029 A 
ENDBRANCH   6   7
BRANCH   2  13
HETATM   13  C   UNL     1       6.827  -0.099  20.406  1.00  0.00     0.217 C 
HETATM   14  C   UNL     1       6.853   0.161  18.858  1.00  0.00     0.063 C 
BRANCH  13  15
HETATM   15  O   UNL     1       5.912  -1.170  20.478  1.00  0.00    -0.377 OA
HETATM   16  H   UNL     1       5.002  -0.801  20.486  1.00  0.00     0.212 HD
ENDBRANCH  13  15
ENDBRANCH   2  13
TORSDOF 3
ENDMDL
MODEL 8
REMARK VINA RESULT:    -5.187     20.688     21.916
REMARK INTER + INTRA:          -6.040
REMARK INTER:                  -5.587
REMARK INTRA:                  -0.452
REMARK UNBOUND:                -0.095
REMARK  3 active torsions:
REMARK  status: ('A' for Active; 'I' for Inactive)
REMARK       I    between atoms: C_2  and  N_16 
REMARK       I    between atoms: C_2  and  N_5 
REMARK    1  A    between atoms: C_3  and  N_16 
REMARK    2  A    between atoms: N_5  and  C_12 
REMARK    3  A    between atoms: O_7  and  C_12 
ROOT
HETATM    1  C   UNL     1       6.523  -1.176  21.161  1.00  0.00     0.322 C 
HETATM    2  N   UNL     1       5.780  -1.207  20.041  1.00  0.00    -0.317 N 
ATOM      3  HN  UNL     1       5.307  -2.099  19.893  1.00  0.00     0.166 HD
HETATM    4  H   UNL     1       6.174  -1.375  23.191  1.00  0.00     0.170 HD
HETATM    5  O   UNL     1       7.534  -0.512  21.255  1.00  0.00    -0.247 OA
HETATM    6  N   UNL     1       6.161  -1.920  22.335  1.00  0.00    -0.309 N 
ENDROOT
BRANCH   6   7
HETATM    7  C   UNL     1       6.086  -3.291  22.492  1.00  0.00     0.036 A 
HETATM    8  C   UNL     1       7.234  -4.055  22.257  1.00  0.00     0.029 A 
HETATM    9  C   UNL     1       7.159  -5.434  22.254  1.00  0.00     0.002 A 
HETATM   10  C   UNL     1       5.984  -6.081  22.625  1.00  0.00     0.000 A 
HETATM   11  C   UNL     1       4.862  -5.328  22.918  1.00  0.00     0.002 A 
HETATM   12  C   UNL     1       4.899  -3.942  22.853  1.00  0.00     0.029 A 
ENDBRANCH   6   7
BRANCH   2  13
HETATM   13  C   UNL     1       5.516  -0.250  19.020  1.00  0.00     0.217 C 
HETATM   14  C   UNL     1       5.004   1.227  19.161  1.00  0.00     0.063 C 
BRANCH  13  15
HETATM   15  O   UNL     1       6.745  -0.042  18.360  1.00  0.00    -0.377 OA
HETATM   16  H   UNL     1       6.561   0.184  17.423  1.00  0.00     0.212 HD
ENDBRANCH  13  15
ENDBRANCH   2  13
TORSDOF 3
ENDMDL
MODEL 9
REMARK VINA RESULT:    -5.125     36.225     38.332
REMARK INTER + INTRA:          -5.969
REMARK INTER:                  -5.743
REMARK INTRA:                  -0.226
REMARK UNBOUND:                -0.095
REMARK  3 active torsions:
REMARK  status: ('A' for Active; 'I' for Inactive)
REMARK       I    between atoms: C_2  and  N_16 
REMARK       I    between atoms: C_2  and  N_5 
REMARK    1  A    between atoms: C_3  and  N_16 
REMARK    2  A    between atoms: N_5  and  C_12 
REMARK    3  A    between atoms: O_7  and  C_12 
ROOT
HETATM    1  C   UNL     1       9.475  18.111   0.705  1.00  0.00     0.322 C 
HETATM    2  N   UNL     1      10.114  18.843   1.634  1.00  0.00    -0.317 N 
ATOM      3  HN  UNL     1      10.100  18.421   2.563  1.00  0.00     0.166 HD
HETATM    4  H   UNL     1       9.681  16.219  -0.106  1.00  0.00     0.170 HD
HETATM    5  O   UNL     1       8.907  18.611  -0.243  1.00  0.00    -0.247 OA
HETATM    6  N   UNL     1       9.432  16.677   0.764  1.00  0.00    -0.309 N 
ENDROOT
BRANCH   6   7
HETATM    7  C   UNL     1       8.838  15.875   1.721  1.00  0.00     0.036 A 
HETATM    8  C   UNL     1       9.595  14.850   2.297  1.00  0.00     0.029 A 
HETATM    9  C   UNL     1       8.994  13.936   3.140  1.00  0.00     0.002 A 
HETATM   10  C   UNL     1       7.671  14.102   3.540  1.00  0.00     0.000 A 
HETATM   11  C   UNL     1       6.936  15.149   3.018  1.00  0.00     0.002 A 
HETATM   12  C   UNL     1       7.503  16.035   2.112  1.00  0.00     0.029 A 
ENDBRANCH   6   7
BRANCH   2  13
HETATM   13  C   UNL     1      10.807  20.086   1.587  1.00  0.00     0.217 C 
HETATM   14  C   UNL     1      10.339  21.496   2.095  1.00  0.00     0.063 C 
BRANCH  13  15
HETATM   15  O   UNL     1      11.976  19.905   2.354  1.00  0.00    -0.377 OA
HETATM   16  H   UNL     1      12.327  19.005   2.179  1.00  0.00     0.212 HD
ENDBRANCH  13  15
ENDBRANCH   2  13
TORSDOF 3
ENDMDL
