REMARK  3 active torsions:
REMARK  status: ('A' for Active; 'I' for Inactive)
REMARK       I    between atoms: C_2  and  N_16 
REMARK       I    between atoms: C_2  and  N_5 
REMARK    1  A    between atoms: C_3  and  N_16 
REMARK    2  A    between atoms: N_5  and  C_12 
REMARK    3  A    between atoms: O_7  and  C_12 
ROOT
HETATM    1  C   UNL     1       9.107  -1.323  23.849  1.00  0.00     0.322 C 
HETATM    2  N   UNL     1       9.204  -2.512  23.229  1.00  0.00    -0.317 N 
ATOM      3  HN  UNL     1       8.991  -2.468  22.232  1.00  0.00     0.166 HD
HETATM    4  H   UNL     1      10.030   0.522  23.691  1.00  0.00     0.170 HD
HETATM    5  O   UNL     1       8.776  -1.218  25.011  1.00  0.00    -0.247 OA
HETATM    6  N   UNL     1       9.404  -0.089  23.177  1.00  0.00    -0.309 N 
ENDROOT
BRANCH   6   7
HETATM    7  C   UNL     1       8.748   0.483  22.103  1.00  0.00     0.036 A 
HETATM    8  C   UNL     1       8.069  -0.354  21.212  1.00  0.00     0.029 A 
HETATM    9  C   UNL     1       7.534   0.163  20.048  1.00  0.00     0.002 A 
HETATM   10  C   UNL     1       7.535   1.535  19.815  1.00  0.00     0.000 A 
HETATM   11  C   UNL     1       8.153   2.373  20.724  1.00  0.00     0.002 A 
HETATM   12  C   UNL     1       8.761   1.863  21.863  1.00  0.00     0.029 A 
ENDBRANCH   6   7
BRANCH   2  13
HETATM   13  C   UNL     1       9.543  -3.820  23.678  1.00  0.00     0.217 C 
HETATM   14  C   UNL     1       9.443  -4.423  25.124  1.00  0.00     0.063 C 
BRANCH  13  15
HETATM   15  O   UNL     1       8.704  -4.702  22.966  1.00  0.00    -0.377 OA
HETATM   16  H   UNL     1       8.238  -4.193  22.268  1.00  0.00     0.212 HD
ENDBRANCH  13  15
ENDBRANCH   2  13
TORSDOF 3
