stable:False satoms:18 tatoms:24 sratio:0.75
  -OEChem-07092417383D

 24 25  0     1  0  0  0  0  0999 V2000
    6.9459   -4.5568   26.3803 H   0  0  0  0  0  0  0  0  0  0  0  0
    8.0200   -4.3535   26.0909 C   0  0  0  0  0  0  0  0  0  0  0  0
    8.6298   -5.3096   26.2290 H   0  0  0  0  0  0  0  0  0  0  0  0
    8.5663   -3.4587   26.9338 F   0  0  0  0  0  0  0  0  0  0  0  0
    8.0263   -3.8382   24.7527 N   0  0  0  0  0  0  0  0  0  0  0  0
    8.9306   -3.1315   24.3038 C   0  0  0  0  0  0  0  0  0  0  0  0
    9.7495   -2.4890   23.9518 N   0  0  0  0  0  0  0  0  0  0  0  0
   10.2116   -0.8165   22.4567 C   0  0  0  0  0  0  0  0  0  0  0  0
   12.1755   -0.1467   23.7760 C   0  5  0  0  0  0  0  0  0  0  0  0
   11.5993    0.5216   24.3081 H   0  0  0  0  0  0  0  0  0  0  0  0
   13.2511   -0.1499   23.9627 H   0  0  0  0  0  0  0  0  0  0  0  0
   12.2589   -1.6208   22.3074 H   0  0  0  0  0  0  0  0  0  0  0  0
   11.5700   -1.0074   22.8311 C   0  0  1  0  0  0  0  0  0  0  0  0
    9.9715   -1.7064   23.2276 C   0  0  0  0  0  0  0  0  0  0  0  0
    9.2906    0.0688   21.3526 C   0  0  0  0  0  0  0  0  0  0  0  0
    9.8398    1.0080   20.8765 O   0  0  0  0  0  0  0  0  0  0  0  0
    8.0357   -0.3137   21.1087 N   0  0  0  0  0  0  0  0  0  0  0  0
    7.2036    0.1052   20.1404 C   0  0  0  0  0  0  0  0  0  0  0  0
    7.4220    0.0466   18.7989 N   0  0  0  0  0  0  0  0  0  0  0  0
    6.4405    0.5067   18.1225 N   0  0  0  0  0  0  0  0  0  0  0  0
    5.5300    0.8623   19.0021 C   0  0  0  0  0  0  0  0  0  0  0  0
    4.6200    1.3387   18.7704 H   0  0  0  0  0  0  0  0  0  0  0  0
    5.9041    0.5580   20.3346 C   0  0  0  0  0  0  0  0  0  0  0  0
    5.3916    0.5927   21.2783 H   0  0  0  0  0  0  0  0  0  0  0  0
 19 20  1  0  0  0  0
 20 21  2  0  0  0  0
 21 22  1  0  0  0  0
 18 19  1  0  0  0  0
 21 23  1  0  0  0  0
 18 23  2  0  0  0  0
 17 18  1  0  0  0  0
 23 24  1  0  0  0  0
 15 16  2  0  0  0  0
 15 17  1  0  0  0  0
  8 15  1  0  0  0  0
 12 13  1  0  0  0  0
  8 13  1  0  0  0  0
  8 14  2  0  0  0  0
 13 14  1  0  0  0  0
  9 13  1  0  0  0  0
  7 14  1  0  0  0  0
  9 11  1  0  0  0  0
  9 10  1  0  0  0  0
  6  7  2  3  0  0  0
  5  6  1  0  0  0  0
  2  5  1  0  0  0  0
  2  3  1  0  0  0  0
  1  2  1  0  0  0  0
  2  4  1  0  0  0  0
M  CHG  1   9  -1
M  END
> <Shapegauss>
-202.299469

$$$$
