MODEL 1
REMARK VINA RESULT:    -5.851      0.000      0.000
REMARK INTER + INTRA:          -8.545
REMARK INTER:                  -7.903
REMARK INTRA:                  -0.642
REMARK UNBOUND:                -0.642
REMARK  6 active torsions:
REMARK  status: ('A' for Active; 'I' for Inactive)
REMARK    1  A    between atoms: C_1  and  N_3 
REMARK    2  A    between atoms: N_3  and  C_5 
REMARK    3  A    between atoms: C_5  and  N_6 
REMARK    4  A    between atoms: N_6  and  C_11 
REMARK    5  A    between atoms: C_8  and  C_12 
REMARK       I    between atoms: C_12  and  N_14 
REMARK    6  A    between atoms: N_14  and  C_16 
ROOT
HETATM    1  C   UNL     1       9.592  -1.288  22.276  1.00  0.00     0.043 A 
HETATM    2  C   UNL     1      11.414  -0.872  23.874  1.00  0.00     0.022 C 
HETATM    3  C   UNL     1      10.895  -1.579  22.765  1.00  0.00     0.073 A 
HETATM    4  C   UNL     1       9.245  -2.258  22.894  1.00  0.00     0.039 A 
ENDROOT
BRANCH   1   5
HETATM    5  C   UNL     1       8.823  -0.232  21.207  1.00  0.00     0.256 C 
HETATM    6  O   UNL     1       9.395   0.789  21.007  1.00  0.00    -0.268 OA
HETATM    7  N   UNL     1       7.646  -0.587  20.687  1.00  0.00    -0.308 N 
ATOM      8  HN  UNL     1       7.205  -1.404  21.110  1.00  0.00     0.170 HD
BRANCH   7   9
HETATM    9  C   UNL     1       6.966  -0.013  19.680  1.00  0.00     0.123 C 
HETATM   10  N   UNL     1       7.446   0.299  18.447  1.00  0.00    -0.286 N 
HETATM   11  N   UNL     1       6.558   0.823  17.692  1.00  0.00    -0.310 N 
ATOM     12  HN  UNL     1       8.409   0.132  18.156  1.00  0.00     0.188 HD
HETATM   13  C   UNL     1       5.451   0.850  18.402  1.00  0.00     0.111 C 
ATOM     14  HN  UNL     1       6.682   1.152  16.735  1.00  0.00     0.186 HD
HETATM   15  C   UNL     1       5.600   0.249  19.677  1.00  0.00     0.068 C 
ENDBRANCH   7   9
ENDBRANCH   1   5
BRANCH   4  16
HETATM   16  N   UNL     1       8.923  -3.118  23.480  1.00  0.00    -0.310 N 
ATOM     17  HN  UNL     1       9.568  -3.252  24.258  1.00  0.00     0.177 HD
BRANCH  16  18
HETATM   18  C   UNL     1       8.143  -3.890  23.523  1.00  0.00     0.049 C 
BRANCH  18  19
HETATM   19  N   UNL     1       7.246  -4.731  23.617  1.00  0.00    -0.316 N 
ATOM     20  HN  UNL     1       6.960  -5.031  24.549  1.00  0.00     0.173 HD
BRANCH  19  21
HETATM   21  C   UNL     1       6.586  -5.308  22.483  1.00  0.00     0.354 C 
HETATM   22  F   UNL     1       7.490  -5.864  21.656  1.00  0.00    -0.234 F 
ENDBRANCH  19  21
ENDBRANCH  18  19
ENDBRANCH  16  18
ENDBRANCH   4  16
TORSDOF 6
ENDMDL
MODEL 2
REMARK VINA RESULT:    -5.606     19.021     21.077
REMARK INTER + INTRA:          -8.215
REMARK INTER:                  -7.541
REMARK INTRA:                  -0.673
REMARK UNBOUND:                -0.642
REMARK  6 active torsions:
REMARK  status: ('A' for Active; 'I' for Inactive)
REMARK    1  A    between atoms: C_1  and  N_3 
REMARK    2  A    between atoms: N_3  and  C_5 
REMARK    3  A    between atoms: C_5  and  N_6 
REMARK    4  A    between atoms: N_6  and  C_11 
REMARK    5  A    between atoms: C_8  and  C_12 
REMARK       I    between atoms: C_12  and  N_14 
REMARK    6  A    between atoms: N_14  and  C_16 
ROOT
HETATM    1  C   UNL     1      -0.349 -16.536   9.337  1.00  0.00     0.043 A 
HETATM    2  C   UNL     1      -0.807 -15.246   7.295  1.00  0.00     0.022 C 
HETATM    3  C   UNL     1      -0.896 -16.452   8.028  1.00  0.00     0.073 A 
HETATM    4  C   UNL     1       0.587 -17.074   8.811  1.00  0.00     0.039 A 
ENDROOT
BRANCH   1   5
HETATM    5  C   UNL     1      -0.787 -16.226  10.938  1.00  0.00     0.256 C 
HETATM    6  O   UNL     1      -1.857 -15.733  11.083  1.00  0.00    -0.268 OA
HETATM    7  N   UNL     1       0.079 -16.522  11.910  1.00  0.00    -0.308 N 
ATOM      8  HN  UNL     1       1.023 -16.757  11.604  1.00  0.00     0.170 HD
BRANCH   7   9
HETATM    9  C   UNL     1      -0.128 -16.554  13.238  1.00  0.00     0.123 C 
HETATM   10  N   UNL     1      -1.329 -16.526  13.875  1.00  0.00    -0.286 N 
HETATM   11  N   UNL     1      -1.212 -16.586  15.146  1.00  0.00    -0.310 N 
ATOM     12  HN  UNL     1      -2.225 -16.465  13.391  1.00  0.00     0.188 HD
HETATM   13  C   UNL     1       0.078 -16.680  15.385  1.00  0.00     0.111 C 
ATOM     14  HN  UNL     1      -1.965 -16.565  15.834  1.00  0.00     0.186 HD
HETATM   15  C   UNL     1       0.854 -16.753  14.202  1.00  0.00     0.068 C 
ENDBRANCH   7   9
ENDBRANCH   1   5
BRANCH   4  16
HETATM   16  N   UNL     1       1.451 -17.532   8.332  1.00  0.00    -0.310 N 
ATOM     17  HN  UNL     1       1.355 -17.448   7.320  1.00  0.00     0.177 HD
BRANCH  16  18
HETATM   18  C   UNL     1       2.390 -18.053   8.562  1.00  0.00     0.049 C 
BRANCH  18  19
HETATM   19  N   UNL     1       3.414 -18.676   8.849  1.00  0.00    -0.316 N 
ATOM     20  HN  UNL     1       4.219 -18.152   9.194  1.00  0.00     0.173 HD
BRANCH  19  21
HETATM   21  C   UNL     1       3.531 -20.100   8.724  1.00  0.00     0.354 C 
HETATM   22  F   UNL     1       2.310 -20.663   8.692  1.00  0.00    -0.234 F 
ENDBRANCH  19  21
ENDBRANCH  18  19
ENDBRANCH  16  18
ENDBRANCH   4  16
TORSDOF 6
ENDMDL
MODEL 3
REMARK VINA RESULT:    -5.389     18.753     21.913
REMARK INTER + INTRA:          -7.922
REMARK INTER:                  -7.549
REMARK INTRA:                  -0.373
REMARK UNBOUND:                -0.642
REMARK  6 active torsions:
REMARK  status: ('A' for Active; 'I' for Inactive)
REMARK    1  A    between atoms: C_1  and  N_3 
REMARK    2  A    between atoms: N_3  and  C_5 
REMARK    3  A    between atoms: C_5  and  N_6 
REMARK    4  A    between atoms: N_6  and  C_11 
REMARK    5  A    between atoms: C_8  and  C_12 
REMARK       I    between atoms: C_12  and  N_14 
REMARK    6  A    between atoms: N_14  and  C_16 
ROOT
HETATM    1  C   UNL     1       6.412  10.519   3.762  1.00  0.00     0.043 A 
HETATM    2  C   UNL     1       4.973   9.818   1.896  1.00  0.00     0.022 C 
HETATM    3  C   UNL     1       5.119  10.366   3.191  1.00  0.00     0.073 A 
HETATM    4  C   UNL     1       6.166   9.506   4.359  1.00  0.00     0.039 A 
ENDROOT
BRANCH   1   5
HETATM    5  C   UNL     1       7.683  11.630   3.796  1.00  0.00     0.256 C 
HETATM    6  O   UNL     1       8.602  11.324   4.482  1.00  0.00    -0.268 OA
HETATM    7  N   UNL     1       7.570  12.757   3.091  1.00  0.00    -0.308 N 
ATOM      8  HN  UNL     1       6.642  12.953   2.715  1.00  0.00     0.170 HD
BRANCH   7   9
HETATM    9  C   UNL     1       8.517  13.670   2.810  1.00  0.00     0.123 C 
HETATM   10  N   UNL     1       9.830  13.613   3.157  1.00  0.00    -0.286 N 
HETATM   11  N   UNL     1      10.493  14.620   2.735  1.00  0.00    -0.310 N 
ATOM     12  HN  UNL     1      10.241  12.850   3.694  1.00  0.00     0.188 HD
HETATM   13  C   UNL     1       9.636  15.364   2.071  1.00  0.00     0.111 C 
ATOM     14  HN  UNL     1      11.485  14.808   2.882  1.00  0.00     0.186 HD
HETATM   15  C   UNL     1       8.346  14.782   1.994  1.00  0.00     0.068 C 
ENDBRANCH   7   9
ENDBRANCH   1   5
BRANCH   4  16
HETATM   16  N   UNL     1       5.958   8.569   4.875  1.00  0.00    -0.310 N 
ATOM     17  HN  UNL     1       6.680   7.889   4.637  1.00  0.00     0.177 HD
BRANCH  16  18
HETATM   18  C   UNL     1       5.240   8.104   5.562  1.00  0.00     0.049 C 
BRANCH  18  19
HETATM   19  N   UNL     1       4.449   7.530   6.314  1.00  0.00    -0.316 N 
ATOM     20  HN  UNL     1       4.749   7.323   7.267  1.00  0.00     0.173 HD
BRANCH  19  21
HETATM   21  C   UNL     1       3.127   7.139   5.917  1.00  0.00     0.354 C 
HETATM   22  F   UNL     1       3.185   6.367   4.817  1.00  0.00    -0.234 F 
ENDBRANCH  19  21
ENDBRANCH  18  19
ENDBRANCH  16  18
ENDBRANCH   4  16
TORSDOF 6
ENDMDL
MODEL 4
REMARK VINA RESULT:    -5.344      4.656      6.785
REMARK INTER + INTRA:          -7.861
REMARK INTER:                  -7.316
REMARK INTRA:                  -0.545
REMARK UNBOUND:                -0.642
REMARK  6 active torsions:
REMARK  status: ('A' for Active; 'I' for Inactive)
REMARK    1  A    between atoms: C_1  and  N_3 
REMARK    2  A    between atoms: N_3  and  C_5 
REMARK    3  A    between atoms: C_5  and  N_6 
REMARK    4  A    between atoms: N_6  and  C_11 
REMARK    5  A    between atoms: C_8  and  C_12 
REMARK       I    between atoms: C_12  and  N_14 
REMARK    6  A    between atoms: N_14  and  C_16 
ROOT
HETATM    1  C   UNL     1      10.834   0.106  23.844  1.00  0.00     0.043 A 
HETATM    2  C   UNL     1      13.216  -0.380  24.208  1.00  0.00     0.022 C 
HETATM    3  C   UNL     1      11.981   0.117  24.684  1.00  0.00     0.073 A 
HETATM    4  C   UNL     1      11.079   1.266  23.651  1.00  0.00     0.039 A 
ENDROOT
BRANCH   1   5
HETATM    5  C   UNL     1       9.571  -0.923  23.400  1.00  0.00     0.256 C 
HETATM    6  O   UNL     1       8.826  -0.485  22.586  1.00  0.00    -0.268 OA
HETATM    7  N   UNL     1       9.476  -2.116  23.990  1.00  0.00    -0.308 N 
ATOM      8  HN  UNL     1      10.078  -2.257  24.801  1.00  0.00     0.170 HD
BRANCH   7   9
HETATM    9  C   UNL     1       8.694  -3.158  23.656  1.00  0.00     0.123 C 
HETATM   10  N   UNL     1       8.226  -3.459  22.416  1.00  0.00    -0.286 N 
HETATM   11  N   UNL     1       7.518  -4.522  22.403  1.00  0.00    -0.310 N 
ATOM     12  HN  UNL     1       8.419  -2.897  21.586  1.00  0.00     0.188 HD
HETATM   13  C   UNL     1       7.519  -4.971  23.640  1.00  0.00     0.111 C 
ATOM     14  HN  UNL     1       7.049  -4.939  21.599  1.00  0.00     0.186 HD
HETATM   15  C   UNL     1       8.329  -4.195  24.507  1.00  0.00     0.068 C 
ENDBRANCH   7   9
ENDBRANCH   1   5
BRANCH   4  16
HETATM   16  N   UNL     1      11.320   2.309  23.448  1.00  0.00    -0.310 N 
ATOM     17  HN  UNL     1      12.252   2.363  23.038  1.00  0.00     0.177 HD
BRANCH  16  18
HETATM   18  C   UNL     1      10.906   3.322  23.534  1.00  0.00     0.049 C 
BRANCH  18  19
HETATM   19  N   UNL     1      10.466   4.474  23.580  1.00  0.00    -0.316 N 
ATOM     20  HN  UNL     1       9.455   4.605  23.606  1.00  0.00     0.173 HD
BRANCH  19  21
HETATM   21  C   UNL     1      11.305   5.637  23.597  1.00  0.00     0.354 C 
HETATM   22  F   UNL     1      12.127   5.598  24.661  1.00  0.00    -0.234 F 
ENDBRANCH  19  21
ENDBRANCH  18  19
ENDBRANCH  16  18
ENDBRANCH   4  16
TORSDOF 6
ENDMDL
MODEL 5
REMARK VINA RESULT:    -5.329      4.448      8.072
REMARK INTER + INTRA:          -7.840
REMARK INTER:                  -7.246
REMARK INTRA:                  -0.594
REMARK UNBOUND:                -0.642
REMARK  6 active torsions:
REMARK  status: ('A' for Active; 'I' for Inactive)
REMARK    1  A    between atoms: C_1  and  N_3 
REMARK    2  A    between atoms: N_3  and  C_5 
REMARK    3  A    between atoms: C_5  and  N_6 
REMARK    4  A    between atoms: N_6  and  C_11 
REMARK    5  A    between atoms: C_8  and  C_12 
REMARK       I    between atoms: C_12  and  N_14 
REMARK    6  A    between atoms: N_14  and  C_16 
ROOT
HETATM    1  C   UNL     1       6.703  -5.402  23.336  1.00  0.00     0.043 A 
HETATM    2  C   UNL     1       6.123  -5.727  20.969  1.00  0.00     0.022 C 
HETATM    3  C   UNL     1       7.024  -5.903  22.045  1.00  0.00     0.073 A 
HETATM    4  C   UNL     1       7.419  -4.480  23.055  1.00  0.00     0.039 A 
ENDROOT
BRANCH   1   5
HETATM    5  C   UNL     1       5.876  -5.872  24.731  1.00  0.00     0.256 C 
HETATM    6  O   UNL     1       4.799  -6.336  24.547  1.00  0.00    -0.268 OA
HETATM    7  N   UNL     1       6.455  -5.678  25.918  1.00  0.00    -0.308 N 
ATOM      8  HN  UNL     1       7.291  -5.094  25.911  1.00  0.00     0.170 HD
BRANCH   7   9
HETATM    9  C   UNL     1       6.083  -6.149  27.121  1.00  0.00     0.123 C 
HETATM   10  N   UNL     1       5.287  -7.224  27.362  1.00  0.00    -0.286 N 
HETATM   11  N   UNL     1       5.121  -7.442  28.610  1.00  0.00    -0.310 N 
ATOM     12  HN  UNL     1       4.867  -7.794  26.628  1.00  0.00     0.188 HD
HETATM   13  C   UNL     1       5.829  -6.525  29.233  1.00  0.00     0.111 C 
ATOM     14  HN  UNL     1       4.557  -8.177  29.036  1.00  0.00     0.186 HD
HETATM   15  C   UNL     1       6.557  -5.693  28.346  1.00  0.00     0.068 C 
ENDBRANCH   7   9
ENDBRANCH   1   5
BRANCH   4  16
HETATM   16  N   UNL     1       8.042  -3.627  22.788  1.00  0.00    -0.310 N 
ATOM     17  HN  UNL     1       7.899  -3.403  21.803  1.00  0.00     0.177 HD
BRANCH  16  18
HETATM   18  C   UNL     1       8.770  -2.924  23.213  1.00  0.00     0.049 C 
BRANCH  18  19
HETATM   19  N   UNL     1       9.545  -2.100  23.705  1.00  0.00    -0.316 N 
ATOM     20  HN  UNL     1       9.499  -1.931  24.710  1.00  0.00     0.173 HD
BRANCH  19  21
HETATM   21  C   UNL     1      10.506  -1.366  22.934  1.00  0.00     0.354 C 
HETATM   22  F   UNL     1      11.650  -2.066  22.834  1.00  0.00    -0.234 F 
ENDBRANCH  19  21
ENDBRANCH  18  19
ENDBRANCH  16  18
ENDBRANCH   4  16
TORSDOF 6
ENDMDL
MODEL 6
REMARK VINA RESULT:    -5.317     18.402     20.424
REMARK INTER + INTRA:          -7.825
REMARK INTER:                  -7.220
REMARK INTRA:                  -0.605
REMARK UNBOUND:                -0.642
REMARK  6 active torsions:
REMARK  status: ('A' for Active; 'I' for Inactive)
REMARK    1  A    between atoms: C_1  and  N_3 
REMARK    2  A    between atoms: N_3  and  C_5 
REMARK    3  A    between atoms: C_5  and  N_6 
REMARK    4  A    between atoms: N_6  and  C_11 
REMARK    5  A    between atoms: C_8  and  C_12 
REMARK       I    between atoms: C_12  and  N_14 
REMARK    6  A    between atoms: N_14  and  C_16 
ROOT
HETATM    1  C   UNL     1      -1.240 -16.652  11.633  1.00  0.00     0.043 A 
HETATM    2  C   UNL     1      -3.252 -15.831  10.485  1.00  0.00     0.022 C 
HETATM    3  C   UNL     1      -2.359 -16.884  10.788  1.00  0.00     0.073 A 
HETATM    4  C   UNL     1      -0.605 -16.577  10.616  1.00  0.00     0.039 A 
ENDROOT
BRANCH   1   5
HETATM    5  C   UNL     1      -0.845 -16.642  13.275  1.00  0.00     0.256 C 
HETATM    6  O   UNL     1       0.316 -16.703  13.515  1.00  0.00    -0.268 OA
HETATM    7  N   UNL     1      -1.831 -16.593  14.173  1.00  0.00    -0.308 N 
ATOM      8  HN  UNL     1      -2.771 -16.741  13.806  1.00  0.00     0.170 HD
BRANCH   7   9
HETATM    9  C   UNL     1      -1.751 -16.373  15.497  1.00  0.00     0.123 C 
HETATM   10  N   UNL     1      -0.687 -16.636  16.302  1.00  0.00    -0.286 N 
HETATM   11  N   UNL     1      -0.898 -16.304  17.518  1.00  0.00    -0.310 N 
ATOM     12  HN  UNL     1       0.183 -17.053  15.972  1.00  0.00     0.188 HD
HETATM   13  C   UNL     1      -2.107 -15.785  17.546  1.00  0.00     0.111 C 
ATOM     14  HN  UNL     1      -0.260 -16.417  18.305  1.00  0.00     0.186 HD
HETATM   15  C   UNL     1      -2.703 -15.709  16.262  1.00  0.00     0.068 C 
ENDBRANCH   7   9
ENDBRANCH   1   5
BRANCH   4  16
HETATM   16  N   UNL     1      -0.033 -16.474   9.694  1.00  0.00    -0.310 N 
ATOM     17  HN  UNL     1      -0.471 -15.764   9.108  1.00  0.00     0.177 HD
BRANCH  16  18
HETATM   18  C   UNL     1       0.850 -16.872   9.178  1.00  0.00     0.049 C 
BRANCH  18  19
HETATM   19  N   UNL     1       1.871 -17.270   8.612  1.00  0.00    -0.316 N 
ATOM     20  HN  UNL     1       2.397 -16.609   8.040  1.00  0.00     0.173 HD
BRANCH  19  21
HETATM   21  C   UNL     1       2.355 -18.616   8.717  1.00  0.00     0.354 C 
HETATM   22  F   UNL     1       2.456 -18.971  10.011  1.00  0.00    -0.234 F 
ENDBRANCH  19  21
ENDBRANCH  18  19
ENDBRANCH  16  18
ENDBRANCH   4  16
TORSDOF 6
ENDMDL
MODEL 7
REMARK VINA RESULT:    -5.304      4.403      5.879
REMARK INTER + INTRA:          -7.807
REMARK INTER:                  -7.213
REMARK INTRA:                  -0.594
REMARK UNBOUND:                -0.642
REMARK  6 active torsions:
REMARK  status: ('A' for Active; 'I' for Inactive)
REMARK    1  A    between atoms: C_1  and  N_3 
REMARK    2  A    between atoms: N_3  and  C_5 
REMARK    3  A    between atoms: C_5  and  N_6 
REMARK    4  A    between atoms: N_6  and  C_11 
REMARK    5  A    between atoms: C_8  and  C_12 
REMARK       I    between atoms: C_12  and  N_14 
REMARK    6  A    between atoms: N_14  and  C_16 
ROOT
HETATM    1  C   UNL     1      10.517   0.251  23.619  1.00  0.00     0.043 A 
HETATM    2  C   UNL     1      12.821  -0.401  24.176  1.00  0.00     0.022 C 
HETATM    3  C   UNL     1      11.516  -0.045  24.586  1.00  0.00     0.073 A 
HETATM    4  C   UNL     1      10.765   1.403  23.851  1.00  0.00     0.039 A 
ENDROOT
BRANCH   1   5
HETATM    5  C   UNL     1       9.362  -0.541  22.675  1.00  0.00     0.256 C 
HETATM    6  O   UNL     1       9.217  -1.694  22.918  1.00  0.00    -0.268 OA
HETATM    7  N   UNL     1       8.722   0.149  21.729  1.00  0.00    -0.308 N 
ATOM      8  HN  UNL     1       9.103   1.073  21.522  1.00  0.00     0.170 HD
BRANCH   7   9
HETATM    9  C   UNL     1       7.644  -0.211  21.012  1.00  0.00     0.123 C 
HETATM   10  N   UNL     1       6.619  -1.003  21.426  1.00  0.00    -0.286 N 
HETATM   11  N   UNL     1       5.723  -1.156  20.529  1.00  0.00    -0.310 N 
ATOM     12  HN  UNL     1       6.571  -1.428  22.352  1.00  0.00     0.188 HD
HETATM   13  C   UNL     1       6.121  -0.444  19.496  1.00  0.00     0.111 C 
ATOM     14  HN  UNL     1       4.873  -1.715  20.598  1.00  0.00     0.186 HD
HETATM   15  C   UNL     1       7.317   0.274  19.751  1.00  0.00     0.068 C 
ENDBRANCH   7   9
ENDBRANCH   1   5
BRANCH   4  16
HETATM   16  N   UNL     1      11.013   2.447  24.036  1.00  0.00    -0.310 N 
ATOM     17  HN  UNL     1      11.151   2.586  25.037  1.00  0.00     0.177 HD
BRANCH  16  18
HETATM   18  C   UNL     1      11.165   3.403  23.517  1.00  0.00     0.049 C 
BRANCH  18  19
HETATM   19  N   UNL     1      11.376   4.450  22.902  1.00  0.00    -0.316 N 
ATOM     20  HN  UNL     1      10.661   4.784  22.256  1.00  0.00     0.173 HD
BRANCH  19  21
HETATM   21  C   UNL     1      12.575   5.222  23.049  1.00  0.00     0.354 C 
HETATM   22  F   UNL     1      12.996   5.656  21.847  1.00  0.00    -0.234 F 
ENDBRANCH  19  21
ENDBRANCH  18  19
ENDBRANCH  16  18
ENDBRANCH   4  16
TORSDOF 6
ENDMDL
MODEL 8
REMARK VINA RESULT:    -5.129     21.592     23.572
REMARK INTER + INTRA:          -7.571
REMARK INTER:                  -6.953
REMARK INTRA:                  -0.617
REMARK UNBOUND:                -0.642
REMARK  6 active torsions:
REMARK  status: ('A' for Active; 'I' for Inactive)
REMARK    1  A    between atoms: C_1  and  N_3 
REMARK    2  A    between atoms: N_3  and  C_5 
REMARK    3  A    between atoms: C_5  and  N_6 
REMARK    4  A    between atoms: N_6  and  C_11 
REMARK    5  A    between atoms: C_8  and  C_12 
REMARK       I    between atoms: C_12  and  N_14 
REMARK    6  A    between atoms: N_14  and  C_16 
ROOT
HETATM    1  C   UNL     1       6.283  10.780   3.463  1.00  0.00     0.043 A 
HETATM    2  C   UNL     1       4.946   9.409   5.004  1.00  0.00     0.022 C 
HETATM    3  C   UNL     1       5.737   9.522   3.838  1.00  0.00     0.073 A 
HETATM    4  C   UNL     1       5.365  10.845   2.692  1.00  0.00     0.039 A 
ENDROOT
BRANCH   1   5
HETATM    5  C   UNL     1       7.645  11.734   3.761  1.00  0.00     0.256 C 
HETATM    6  O   UNL     1       8.512  11.199   4.371  1.00  0.00    -0.268 OA
HETATM    7  N   UNL     1       7.653  12.996   3.326  1.00  0.00    -0.308 N 
ATOM      8  HN  UNL     1       6.758  13.355   2.994  1.00  0.00     0.170 HD
BRANCH   7   9
HETATM    9  C   UNL     1       8.684  13.857   3.269  1.00  0.00     0.123 C 
HETATM   10  N   UNL     1       9.994  13.546   3.081  1.00  0.00    -0.286 N 
HETATM   11  N   UNL     1      10.745  14.580   3.055  1.00  0.00    -0.310 N 
ATOM     12  HN  UNL     1      10.340  12.593   2.973  1.00  0.00     0.188 HD
HETATM   13  C   UNL     1       9.943  15.612   3.201  1.00  0.00     0.111 C 
ATOM     14  HN  UNL     1      11.758  14.600   2.943  1.00  0.00     0.186 HD
HETATM   15  C   UNL     1       8.576  15.243   3.261  1.00  0.00     0.068 C 
ENDBRANCH   7   9
ENDBRANCH   1   5
BRANCH   4  16
HETATM   16  N   UNL     1       4.514  10.920   2.016  1.00  0.00    -0.310 N 
ATOM     17  HN  UNL     1       4.646  10.272   1.240  1.00  0.00     0.177 HD
BRANCH  16  18
HETATM   18  C   UNL     1       3.564  11.453   1.881  1.00  0.00     0.049 C 
BRANCH  18  19
HETATM   19  N   UNL     1       2.469  12.003   1.739  1.00  0.00    -0.316 N 
ATOM     20  HN  UNL     1       1.665  11.425   1.496  1.00  0.00     0.173 HD
BRANCH  19  21
HETATM   21  C   UNL     1       2.270  13.414   1.898  1.00  0.00     0.354 C 
HETATM   22  F   UNL     1       2.802  13.827   3.063  1.00  0.00    -0.234 F 
ENDBRANCH  19  21
ENDBRANCH  18  19
ENDBRANCH  16  18
ENDBRANCH   4  16
TORSDOF 6
ENDMDL
MODEL 9
REMARK VINA RESULT:    -5.128      4.529      6.058
REMARK INTER + INTRA:          -7.569
REMARK INTER:                  -7.211
REMARK INTRA:                  -0.358
REMARK UNBOUND:                -0.642
REMARK  6 active torsions:
REMARK  status: ('A' for Active; 'I' for Inactive)
REMARK    1  A    between atoms: C_1  and  N_3 
REMARK    2  A    between atoms: N_3  and  C_5 
REMARK    3  A    between atoms: C_5  and  N_6 
REMARK    4  A    between atoms: N_6  and  C_11 
REMARK    5  A    between atoms: C_8  and  C_12 
REMARK       I    between atoms: C_12  and  N_14 
REMARK    6  A    between atoms: N_14  and  C_16 
ROOT
HETATM    1  C   UNL     1      10.386   0.488  22.467  1.00  0.00     0.043 A 
HETATM    2  C   UNL     1      10.575  -1.902  23.011  1.00  0.00     0.022 C 
HETATM    3  C   UNL     1      10.976  -0.786  22.241  1.00  0.00     0.073 A 
HETATM    4  C   UNL     1       9.702   0.237  21.512  1.00  0.00     0.039 A 
ENDROOT
BRANCH   1   5
HETATM    5  C   UNL     1      10.589   1.846  23.450  1.00  0.00     0.256 C 
HETATM    6  O   UNL     1      10.387   1.665  24.606  1.00  0.00    -0.268 OA
HETATM    7  N   UNL     1      10.928   3.005  22.884  1.00  0.00    -0.308 N 
ATOM      8  HN  UNL     1      10.872   3.033  21.866  1.00  0.00     0.170 HD
BRANCH   7   9
HETATM    9  C   UNL     1      11.335   4.141  23.476  1.00  0.00     0.123 C 
HETATM   10  N   UNL     1      12.600   4.638  23.501  1.00  0.00    -0.286 N 
HETATM   11  N   UNL     1      12.679   5.749  24.128  1.00  0.00    -0.310 N 
ATOM     12  HN  UNL     1      13.398   4.175  23.067  1.00  0.00     0.188 HD
HETATM   13  C   UNL     1      11.455   6.032  24.516  1.00  0.00     0.111 C 
ATOM     14  HN  UNL     1      13.520   6.302  24.293  1.00  0.00     0.186 HD
HETATM   15  C   UNL     1      10.501   5.087  24.063  1.00  0.00     0.068 C 
ENDBRANCH   7   9
ENDBRANCH   1   5
BRANCH   4  16
HETATM   16  N   UNL     1       9.058  -0.003  20.667  1.00  0.00    -0.310 N 
ATOM     17  HN  UNL     1       9.625  -0.392  19.914  1.00  0.00     0.177 HD
BRANCH  16  18
HETATM   18  C   UNL     1       8.008   0.028  20.346  1.00  0.00     0.049 C 
BRANCH  18  19
HETATM   19  N   UNL     1       6.845   0.035  19.938  1.00  0.00    -0.316 N 
ATOM     20  HN  UNL     1       6.091   0.044  20.626  1.00  0.00     0.173 HD
BRANCH  19  21
HETATM   21  C   UNL     1       6.498   0.032  18.547  1.00  0.00     0.354 C 
HETATM   22  F   UNL     1       5.799  -1.078  18.248  1.00  0.00    -0.234 F 
ENDBRANCH  19  21
ENDBRANCH  18  19
ENDBRANCH  16  18
ENDBRANCH   4  16
TORSDOF 6
ENDMDL
