stable:False satoms:8 tatoms:24 sratio:0.3333333333333333
  -OEChem-07092417453D

 24 24  0     1  0  0  0  0  0999 V2000
    6.4883   -4.8605   26.4695 C   0  0  0  0  0  0  0  0  0  0  0  0
    8.2258   -4.2917   26.0811 S   0  0  0  0  0  0  0  0  0  0  0  0
    9.0366   -5.4550   25.9725 O   0  0  0  0  0  0  0  0  0  0  0  0
    8.5724   -3.4185   27.1359 O   0  0  0  0  0  0  0  0  0  0  0  0
    8.1072   -3.5225   24.6305 N   0  0  0  0  0  0  0  0  0  0  0  0
    8.9241   -2.9150   24.1540 C   0  0  0  0  0  0  0  0  0  0  0  0
    9.4574   -1.8417   23.4960 C   0  0  0  0  0  0  0  0  0  0  0  0
   10.3609   -0.9445   23.4530 C   0  5  1  0  0  0  0  0  0  0  0  0
   10.7434   -0.3020   24.3051 H   0  0  0  0  0  0  0  0  0  0  0  0
   12.7750    0.3946   24.1479 C   0  0  0  0  0  0  0  0  0  0  0  0
   12.9556   -0.1778   23.5362 C   0  0  0  0  0  0  0  0  0  0  0  0
   12.6358   -1.2480   22.6498 C   0  0  0  0  0  0  0  0  0  0  0  0
   11.9188   -1.6059   22.5666 C   0  0  0  0  0  0  0  0  0  0  0  0
    9.6494   -0.7054   22.4856 C   0  0  2  0  0  0  0  0  0  0  0  0
    9.0130    0.0252   21.3852 C   0  0  0  0  0  0  0  0  0  0  0  0
    9.5540    0.9561   20.9445 O   0  0  0  0  0  0  0  0  0  0  0  0
    7.8917   -0.5547   21.1178 N   0  0  0  0  0  0  0  0  0  0  0  0
    7.2029   -0.1023   20.1804 C   0  0  0  0  0  0  0  0  0  0  0  0
    7.2159    0.0049   18.8944 C   0  0  0  0  0  0  0  0  0  0  0  0
    6.7721    0.3398   17.7786 N   0  0  0  0  0  0  0  0  0  0  0  0
    5.7059    0.8318   18.1757 C   0  0  0  0  0  0  0  0  0  0  0  0
    5.2442    0.9376   19.4146 C   0  0  0  0  0  0  0  0  0  0  0  0
    5.7737    0.5497   20.5422 C   0  0  0  0  0  0  0  0  0  0  0  0
    5.3602    0.6155   21.7797 C   0  0  0  0  0  0  0  0  0  0  0  0
 20 21  2  0  0  0  0
 19 20  1  0  0  0  0
 21 22  1  0  0  0  0
 18 19  2  0  0  0  0
 22 23  2  0  0  0  0
 18 23  1  0  0  0  0
 17 18  1  0  0  0  0
 23 24  1  0  0  0  0
 15 16  2  0  0  0  0
 15 17  1  0  0  0  0
 14 15  1  0  0  0  0
  8 14  1  0  0  0  0
  7 14  1  0  0  0  0
 12 13  2  0  0  0  0
 11 12  1  0  0  0  0
  7  8  1  0  0  0  0
  8  9  1  0  0  0  0
  6  7  2  3  0  0  0
 10 11  2  0  0  0  0
  5  6  1  0  0  0  0
  2  5  1  0  0  0  0
  2  3  2  0  0  0  0
  1  2  1  0  0  0  0
  2  4  2  0  0  0  0
M  CHG  1   8  -1
M  END
> <Shapegauss>
-272.258453

$$$$
