
 OpenBabel07202414153D

 42 45  0  0  1  0  0  0  0  0999 V2000
    2.4549    0.6613   -1.3335 C   0  0  0  0  0  0  0  0  0  0  0  0
    2.1070   -0.0042    0.0149 C   0  0  1  0  0  0  0  0  0  0  0  0
    0.5566   -0.1927    0.0681 C   0  0  0  0  0  0  0  0  0  0  0  0
    0.0367   -1.1971   -0.4152 O   0  0  0  0  0  0  0  0  0  0  0  0
   -0.1539    0.8630    0.6020 N   0  0  0  0  0  0  0  0  0  0  0  0
   -1.5623    1.0467    0.6427 C   0  0  0  0  0  0  0  0  0  0  0  0
   -2.4648    0.1518    0.0701 C   0  0  0  0  0  0  0  0  0  0  0  0
   -3.7917    0.3854   -0.0718 N   0  0  0  0  0  0  0  0  0  0  0  0
   -4.2540    1.5510    0.4241 C   0  0  0  0  0  0  0  0  0  0  0  0
   -3.4798    2.4723    1.1263 C   0  0  0  0  0  0  0  0  0  0  0  0
   -4.0641    3.6086    1.7147 C   0  0  0  0  0  0  0  0  0  0  0  0
   -3.2943    4.5110    2.4435 C   0  0  0  0  0  0  0  0  0  0  0  0
   -1.9284    4.2999    2.5711 C   0  0  0  0  0  0  0  0  0  0  0  0
   -1.3368    3.1798    1.9800 C   0  0  0  0  0  0  0  0  0  0  0  0
   -2.0918    2.2277    1.2456 C   0  0  0  0  0  0  0  0  0  0  0  0
    2.7644   -1.3999    0.0273 C   0  0  0  0  0  0  0  0  0  0  0  0
    2.5882   -2.0157    1.4066 C   0  0  0  0  0  0  0  0  0  0  0  0
    3.2553   -1.2675    2.4187 O   0  0  0  0  0  0  0  0  0  0  0  0
    3.2016    0.0949    2.3051 C   0  0  0  0  0  0  0  0  0  0  0  0
    3.7702    0.7923    3.3787 C   0  0  0  0  0  0  0  0  0  0  0  0
    3.8203    2.1863    3.3698 C   0  0  0  0  0  0  0  0  0  0  0  0
    3.3003    2.8822    2.2883 C   0  0  0  0  0  0  0  0  0  0  0  0
    3.3361    4.5983    2.2748 Cl  0  0  0  0  0  0  0  0  0  0  0  0
    2.7456    2.1924    1.2049 C   0  0  0  0  0  0  0  0  0  0  0  0
    2.6810    0.7792    1.1994 C   0  0  0  0  0  0  0  0  0  0  0  0
    3.5307    0.8341   -1.4232 H   0  0  0  0  0  0  0  0  0  0  0  0
    1.9472    1.6225   -1.4657 H   0  0  0  0  0  0  0  0  0  0  0  0
    2.1464    0.0291   -2.1762 H   0  0  0  0  0  0  0  0  0  0  0  0
    0.3875    1.6215    0.9817 H   0  0  0  0  0  0  0  0  0  0  0  0
   -2.1641   -0.8147   -0.3197 H   0  0  0  0  0  0  0  0  0  0  0  0
   -5.3108    1.7245    0.2407 H   0  0  0  0  0  0  0  0  0  0  0  0
   -5.1353    3.7839    1.6309 H   0  0  0  0  0  0  0  0  0  0  0  0
   -3.7604    5.3692    2.9206 H   0  0  0  0  0  0  0  0  0  0  0  0
   -1.3198    4.9967    3.1421 H   0  0  0  0  0  0  0  0  0  0  0  0
   -0.2713    3.0560    2.1451 H   0  0  0  0  0  0  0  0  0  0  0  0
    3.8384   -1.3119   -0.1892 H   0  0  0  0  0  0  0  0  0  0  0  0
    2.3358   -2.0603   -0.7364 H   0  0  0  0  0  0  0  0  0  0  0  0
    3.0201   -3.0232    1.4111 H   0  0  0  0  0  0  0  0  0  0  0  0
    1.5333   -2.1245    1.6863 H   0  0  0  0  0  0  0  0  0  0  0  0
    4.1892    0.2407    4.2154 H   0  0  0  0  0  0  0  0  0  0  0  0
    4.2674    2.7128    4.2061 H   0  0  0  0  0  0  0  0  0  0  0  0
    2.3650    2.7744    0.3703 H   0  0  0  0  0  0  0  0  0  0  0  0
  1 26  1  0  0  0  0
  1 27  1  0  0  0  0
  1 28  1  0  0  0  0
  2 16  1  0  0  0  0
  2 25  1  0  0  0  0
  2  3  1  1  0  0  0
  2  1  1  0  0  0  0
  3  4  2  0  0  0  0
  3  5  1  0  0  0  0
  5  6  1  0  0  0  0
  5 29  1  0  0  0  0
  6  7  1  0  0  0  0
  6 15  2  0  0  0  0
  7  8  2  0  0  0  0
  7 30  1  0  0  0  0
  8  9  1  0  0  0  0
  9 10  2  0  0  0  0
  9 31  1  0  0  0  0
 10 11  1  0  0  0  0
 10 15  1  0  0  0  0
 11 12  2  0  0  0  0
 11 32  1  0  0  0  0
 12 13  1  0  0  0  0
 12 33  1  0  0  0  0
 13 14  2  0  0  0  0
 13 34  1  0  0  0  0
 14 15  1  0  0  0  0
 14 35  1  0  0  0  0
 16 17  1  0  0  0  0
 16 36  1  0  0  0  0
 16 37  1  0  0  0  0
 17 18  1  0  0  0  0
 17 38  1  0  0  0  0
 17 39  1  0  0  0  0
 18 19  1  0  0  0  0
 19 20  1  0  0  0  0
 19 25  2  0  0  0  0
 20 21  2  0  0  0  0
 20 40  1  0  0  0  0
 21 22  1  0  0  0  0
 21 41  1  0  0  0  0
 22 23  1  0  0  0  0
 22 24  2  0  0  0  0
 24 25  1  0  0  0  0
 24 42  1  0  0  0  0
M  END
$$$$
