
 OpenBabel07202414123D

 67 70  0  0  1  0  0  0  0  0999 V2000
    2.3326    1.4426   -1.2515 C   0  0  0  0  0  0  0  0  0  0  0  0
    2.3796    0.2324   -0.3014 C   0  0  0  0  0  0  0  0  0  0  0  0
    0.9339   -0.3282   -0.2249 C   0  0  0  0  0  0  0  0  0  0  0  0
    3.2859   -0.8494   -0.9264 C   0  0  0  0  0  0  0  0  0  0  0  0
    2.8924    0.5877    1.1029 C   0  0  0  0  0  0  0  0  0  0  0  0
    3.5569    1.7664    1.4519 C   0  0  0  0  0  0  0  0  0  0  0  0
    4.0027    1.9997    2.7796 C   0  0  0  0  0  0  0  0  0  0  0  0
    3.7367    1.1065    3.8346 C   0  0  0  0  0  0  0  0  0  0  0  0
    4.1517    1.3228    5.2322 N   0  0  0  0  0  0  0  0  0  0  0  0
    4.3149    0.1387    6.1840 C   0  0  3  0  0  0  0  0  0  0  0  0
    3.4528   -1.1620    6.0195 C   0  0  0  0  0  0  0  0  0  0  0  0
    3.7922   -2.1248    5.3285 O   0  0  0  0  0  0  0  0  0  0  0  0
    2.2033   -1.1215    6.6155 N   0  0  0  0  0  0  0  0  0  0  0  0
    1.2483   -2.1854    6.3634 C   0  0  0  0  0  0  0  0  0  0  0  0
   -0.0582   -1.9629    7.1143 C   0  0  0  0  0  0  0  0  0  0  0  0
   -1.0439   -3.0768    6.8806 C   0  0  0  0  0  0  0  0  0  0  0  0
   -2.0439   -2.9575    5.9040 C   0  0  0  0  0  0  0  0  0  0  0  0
   -2.9599   -3.9927    5.6966 C   0  0  0  0  0  0  0  0  0  0  0  0
   -2.8788   -5.1578    6.4572 C   0  0  0  0  0  0  0  0  0  0  0  0
   -1.8788   -5.2813    7.4136 C   0  0  0  0  0  0  0  0  0  0  0  0
   -1.7971   -6.4016    8.1433 F   0  0  0  0  0  0  0  0  0  0  0  0
   -0.9621   -4.2581    7.6292 C   0  0  0  0  0  0  0  0  0  0  0  0
    5.7464   -0.3643    6.3991 C   0  0  0  0  0  0  0  0  0  0  0  0
    6.1408   -0.8289    7.6694 C   0  0  0  0  0  0  0  0  0  0  0  0
    7.3509   -1.4992    7.8374 C   0  0  0  0  0  0  0  0  0  0  0  0
    8.1508   -1.6806    6.7255 C   0  0  0  0  0  0  0  0  0  0  0  0
    7.8086   -1.2704    5.4856 N   0  0  0  0  0  0  0  0  0  0  0  0
    6.6068   -0.6515    5.3457 C   0  0  0  0  0  0  0  0  0  0  0  0
    4.3111    2.6857    5.6750 C   0  0  0  0  0  0  0  0  0  0  0  0
    4.0952    3.6487    4.9189 O   0  0  0  0  0  0  0  0  0  0  0  0
    4.6637    3.0351    7.0729 C   0  0  0  0  0  0  0  0  0  0  0  0
    4.8213    4.3514    7.4949 C   0  0  0  0  0  0  0  0  0  0  0  0
    5.0599    4.3093    8.8355 N   0  0  0  0  0  0  0  0  0  0  0  0
    5.0534    2.9957    9.2013 C   0  0  0  0  0  0  0  0  0  0  0  0
    4.8135    2.2071    8.1750 N   0  0  0  0  0  0  0  0  0  0  0  0
    2.9828    0.0047    3.4562 C   0  0  0  0  0  0  0  0  0  0  0  0
    2.6575   -0.3055    2.1383 C   0  0  0  0  0  0  0  0  0  0  0  0
    1.9198    1.1596   -2.2270 H   0  0  0  0  0  0  0  0  0  0  0  0
    3.3289    1.8598   -1.4313 H   0  0  0  0  0  0  0  0  0  0  0  0
    1.6980    2.2383   -0.8440 H   0  0  0  0  0  0  0  0  0  0  0  0
    0.5561   -0.5920   -1.2184 H   0  0  0  0  0  0  0  0  0  0  0  0
    0.2510    0.4079    0.2152 H   0  0  0  0  0  0  0  0  0  0  0  0
    0.8605   -1.2411    0.3762 H   0  0  0  0  0  0  0  0  0  0  0  0
    2.9007   -1.1684   -1.9027 H   0  0  0  0  0  0  0  0  0  0  0  0
    3.3504   -1.7450   -0.2969 H   0  0  0  0  0  0  0  0  0  0  0  0
    4.3066   -0.4798   -1.0768 H   0  0  0  0  0  0  0  0  0  0  0  0
    3.7474    2.5430    0.7150 H   0  0  0  0  0  0  0  0  0  0  0  0
    4.5499    2.9264    2.9323 H   0  0  0  0  0  0  0  0  0  0  0  0
    3.9633    0.5098    7.1466 H   0  0  0  0  0  0  0  0  0  0  0  0
    2.0444   -0.4701    7.3744 H   0  0  0  0  0  0  0  0  0  0  0  0
    1.7163   -3.1367    6.6409 H   0  0  0  0  0  0  0  0  0  0  0  0
    1.0659   -2.2236    5.2809 H   0  0  0  0  0  0  0  0  0  0  0  0
   -0.5018   -1.0027    6.8209 H   0  0  0  0  0  0  0  0  0  0  0  0
    0.1434   -1.8775    8.1895 H   0  0  0  0  0  0  0  0  0  0  0  0
   -2.1198   -2.0555    5.2993 H   0  0  0  0  0  0  0  0  0  0  0  0
   -3.7366   -3.8890    4.9430 H   0  0  0  0  0  0  0  0  0  0  0  0
   -3.5848   -5.9685    6.3104 H   0  0  0  0  0  0  0  0  0  0  0  0
   -0.1926   -4.3934    8.3837 H   0  0  0  0  0  0  0  0  0  0  0  0
    5.4796   -0.7221    8.5268 H   0  0  0  0  0  0  0  0  0  0  0  0
    7.6483   -1.8914    8.8041 H   0  0  0  0  0  0  0  0  0  0  0  0
    9.1069   -2.1919    6.8012 H   0  0  0  0  0  0  0  0  0  0  0  0
    6.3296   -0.4488    4.3149 H   0  0  0  0  0  0  0  0  0  0  0  0
    4.7582    5.2847    6.9510 H   0  0  0  0  0  0  0  0  0  0  0  0
    5.2036    5.1024    9.4483 H   0  0  0  0  0  0  0  0  0  0  0  0
    5.2147    2.6840   10.2255 H   0  0  0  0  0  0  0  0  0  0  0  0
    2.4945   -0.6459    4.1532 H   0  0  0  0  0  0  0  0  0  0  0  0
    2.1686   -1.2601    1.9725 H   0  0  0  0  0  0  0  0  0  0  0  0
  1  2  1  0  0  0  0
  1 38  1  0  0  0  0
  1 39  1  0  0  0  0
  1 40  1  0  0  0  0
  2  3  1  0  0  0  0
  2  4  1  0  0  0  0
  2  5  1  0  0  0  0
  3 41  1  0  0  0  0
  3 42  1  0  0  0  0
  3 43  1  0  0  0  0
  4 44  1  0  0  0  0
  4 45  1  0  0  0  0
  4 46  1  0  0  0  0
  5  6  1  0  0  0  0
  5 37  2  0  0  0  0
  6  7  2  0  0  0  0
  6 47  1  0  0  0  0
  7  8  1  0  0  0  0
  7 48  1  0  0  0  0
  8  9  1  0  0  0  0
  8 36  2  0  0  0  0
  9 10  1  0  0  0  0
  9 29  1  0  0  0  0
 10 11  1  0  0  0  0
 10 23  1  0  0  0  0
 10 49  1  0  0  0  0
 11 12  2  0  0  0  0
 11 13  1  0  0  0  0
 13 14  1  0  0  0  0
 13 50  1  0  0  0  0
 14 15  1  0  0  0  0
 14 51  1  0  0  0  0
 14 52  1  0  0  0  0
 15 16  1  0  0  0  0
 15 53  1  0  0  0  0
 15 54  1  0  0  0  0
 16 17  1  0  0  0  0
 16 22  2  0  0  0  0
 17 18  2  0  0  0  0
 17 55  1  0  0  0  0
 18 19  1  0  0  0  0
 18 56  1  0  0  0  0
 19 20  2  0  0  0  0
 19 57  1  0  0  0  0
 20 21  1  0  0  0  0
 20 22  1  0  0  0  0
 22 58  1  0  0  0  0
 23 24  1  0  0  0  0
 23 28  2  0  0  0  0
 24 25  2  0  0  0  0
 24 59  1  0  0  0  0
 25 26  1  0  0  0  0
 25 60  1  0  0  0  0
 26 27  2  0  0  0  0
 26 61  1  0  0  0  0
 27 28  1  0  0  0  0
 28 62  1  0  0  0  0
 29 30  2  0  0  0  0
 29 31  1  0  0  0  0
 31 32  2  0  0  0  0
 31 35  1  0  0  0  0
 32 33  1  0  0  0  0
 32 63  1  0  0  0  0
 33 34  1  0  0  0  0
 33 64  1  0  0  0  0
 34 35  2  0  0  0  0
 34 65  1  0  0  0  0
 36 37  1  0  0  0  0
 36 66  1  0  0  0  0
 37 67  1  0  0  0  0
M  END
$$$$
