stable:False satoms:11 tatoms:24 sratio:0.4583333333333333
  -OEChem-07092417403D

 24 24  0     0  0  0  0  0  0999 V2000
    6.5242   -4.9901   26.3939 Cl  0  0  0  0  0  0  0  0  0  0  0  0
    8.2940   -4.3604   26.0812 S   0  0  0  0  0  0  0  0  0  0  0  0
    9.1023   -5.5371   26.0104 O   0  0  0  0  0  0  0  0  0  0  0  0
    8.6340   -3.4646   27.1089 O   0  0  0  0  0  0  0  0  0  0  0  0
    8.0861   -3.6478   24.7033 N   0  0  0  0  0  0  0  0  0  0  0  0
    8.9031   -2.9121   24.1800 C   0  0  0  0  0  0  0  0  0  0  0  0
    9.3793   -2.1110   23.5959 C   0  0  0  0  0  0  0  0  0  0  0  0
   10.2672   -1.2589   23.0841 C   0  0  0  0  0  0  0  0  0  0  0  0
   11.4499    0.3528   24.5678 H   0  0  0  0  0  0  0  0  0  0  0  0
   12.2356   -0.0632   23.9961 C   0  5  0  0  0  0  0  0  0  0  0  0
   13.2796    0.2002   23.9919 H   0  0  0  0  0  0  0  0  0  0  0  0
   12.7407   -1.5171   22.6486 O   0  0  0  0  0  0  0  0  0  0  0  0
   11.9147   -1.0682   23.1396 C   0  0  0  0  0  0  0  0  0  0  0  0
    9.6654   -0.6593   22.3908 C   0  0  0  0  0  0  0  0  0  0  0  0
    8.9515    0.0548   21.3708 C   0  0  0  0  0  0  0  0  0  0  0  0
    9.4481    1.0179   20.9301 O   0  0  0  0  0  0  0  0  0  0  0  0
    7.8292   -0.5694   21.0848 N   0  0  0  0  0  0  0  0  0  0  0  0
    7.0795   -0.1062   20.1154 C   0  0  0  0  0  0  0  0  0  0  0  0
    7.1235   -0.0512   18.7947 C   0  0  0  0  0  0  0  0  0  0  0  0
    6.6089    0.3249   17.7605 N   0  0  0  0  0  0  0  0  0  0  0  0
    5.6036    0.8625   18.1973 C   0  0  0  0  0  0  0  0  0  0  0  0
    5.1889    0.9274   19.3290 C   0  0  0  0  0  0  0  0  0  0  0  0
    5.8002    0.5649   20.4082 C   0  0  0  0  0  0  0  0  0  0  0  0
    5.4744    0.7212   21.4136 H   0  0  0  0  0  0  0  0  0  0  0  0
 20 21  2  0  0  0  0
 19 20  1  0  0  0  0
 21 22  1  0  0  0  0
 18 19  2  0  0  0  0
 22 23  2  0  0  0  0
 18 23  1  0  0  0  0
 17 18  1  0  0  0  0
 23 24  1  0  0  0  0
 15 16  2  0  0  0  0
 15 17  1  0  0  0  0
 14 15  1  0  0  0  0
  8 14  2  3  0  0  0
 12 13  2  0  0  0  0
  8 13  1  0  0  0  0
  7  8  1  0  0  0  0
 10 13  1  0  0  0  0
  6  7  3  0  0  0  0
 10 11  1  0  0  0  0
  9 10  1  0  0  0  0
  5  6  1  0  0  0  0
  2  5  1  0  0  0  0
  2  3  2  0  0  0  0
  1  2  1  0  0  0  0
  2  4  2  0  0  0  0
M  CHG  1  10  -1
M  END
> <Shapegauss>
-261.980988

$$$$
