stable:False satoms:11 tatoms:24 sratio:0.4583333333333333
  -OEChem-08062412073D

 31 31  0     0  0  0  0  0  0999 V2000
    5.9769   -4.6083   26.2358 Cl  0  0  0  0  0  0  0  0  0  0  0  0
    7.8075   -4.1263   26.0277 S   0  0  0  0  0  0  0  0  0  0  0  0
    8.5230   -5.3636   26.0360 O   0  0  0  0  0  0  0  0  0  0  0  0
    8.1504   -3.2325   27.0561 O   0  0  0  0  0  0  0  0  0  0  0  0
    7.7458   -3.4368   24.6240 N   0  0  0  0  0  0  0  0  0  0  0  0
    8.6505   -2.7809   24.1403 C   0  0  0  0  0  0  0  0  0  0  0  0
    9.2253   -2.0350   23.5719 C   0  0  0  0  0  0  0  0  0  0  0  0
   10.2090   -1.2683   23.1019 C   0  0  0  0  0  0  0  0  0  0  0  0
   11.8097    0.7506   23.7395 H   0  0  0  0  0  0  0  0  0  0  0  0
   12.2030   -0.2050   24.1165 C   0  0  0  0  0  0  0  0  0  0  0  0
   13.2989   -0.1464   24.1912 H   0  0  0  0  0  0  0  0  0  0  0  0
   12.6772   -1.7292   22.8371 O   0  0  0  0  0  0  0  0  0  0  0  0
   11.8594   -1.2046   23.2625 C   0  0  0  0  0  0  0  0  0  0  0  0
    9.7025   -0.6426   22.3575 C   0  0  0  0  0  0  0  0  0  0  0  0
    9.1146    0.0973   21.2772 C   0  0  0  0  0  0  0  0  0  0  0  0
    9.7132    1.0068   20.8497 O   0  0  0  0  0  0  0  0  0  0  0  0
    7.9672   -0.4454   20.9309 N   0  0  0  0  0  0  0  0  0  0  0  0
    7.3205    0.0485   19.9041 C   0  0  0  0  0  0  0  0  0  0  0  0
    7.4538    0.0646   18.5884 C   0  0  0  0  0  0  0  0  0  0  0  0
    7.0383    0.4518   17.5144 N   0  0  0  0  0  0  0  0  0  0  0  0
    6.0526    1.0772   17.8719 C   0  0  0  0  0  0  0  0  0  0  0  0
    5.5723    1.2043   18.9719 C   0  0  0  0  0  0  0  0  0  0  0  0
    6.0821    0.8244   20.0969 C   0  0  0  0  0  0  0  0  0  0  0  0
    5.7056    1.0323   21.0748 H   0  0  0  0  0  0  0  0  0  0  0  0
    6.9572   -2.8229   24.6597 H   0  0  0  0  0  0  0  0  0  0  0  0
   11.7783   -0.4098   25.1103 H   0  0  0  0  0  0  0  0  0  0  0  0
    9.1691   -0.0798   23.1092 H   0  0  0  0  0  0  0  0  0  0  0  0
    7.5955   -1.2205   21.4419 H   0  0  0  0  0  0  0  0  0  0  0  0
    8.3235   -0.5374   18.3706 H   0  0  0  0  0  0  0  0  0  0  0  0
    5.5300    1.5968   17.0824 H   0  0  0  0  0  0  0  0  0  0  0  0
    4.6088    1.6897   19.0215 H   0  0  0  0  0  0  0  0  0  0  0  0
 20 21  2  0  0  0  0
 19 20  1  0  0  0  0
 21 22  1  0  0  0  0
 18 19  2  0  0  0  0
 22 23  2  0  0  0  0
 18 23  1  0  0  0  0
 17 18  1  0  0  0  0
 23 24  1  0  0  0  0
 15 16  2  0  0  0  0
 15 17  1  0  0  0  0
 14 15  1  0  0  0  0
  8 14  2  3  0  0  0
 12 13  2  0  0  0  0
  8 13  1  0  0  0  0
  7  8  1  0  0  0  0
 10 13  1  0  0  0  0
  6  7  3  0  0  0  0
 10 11  1  0  0  0  0
  9 10  1  0  0  0  0
  5  6  1  0  0  0  0
  2  5  1  0  0  0  0
  2  3  2  0  0  0  0
  1  2  1  0  0  0  0
  2  4  2  0  0  0  0
  5 25  1  0  0  0  0
 10 26  1  0  0  0  0
 14 27  1  0  0  0  0
 17 28  1  0  0  0  0
 19 29  1  0  0  0  0
 21 30  1  0  0  0  0
 22 31  1  0  0  0  0
M  END
> <Chemgauss4>
-11.319947

$$$$
