stable:False satoms:18 tatoms:24 sratio:0.75
  -OEChem-08062402593D

 26 25  0     0  0  0  0  0  0999 V2000
    7.3241    0.1631   17.8434 O   0  0  0  0  0  0  0  0  0  0  0  0
    6.9944    0.4923   18.9729 C   0  0  0  0  0  0  0  0  0  0  0  0
    5.7673    1.1125   19.1989 O   0  5  0  0  0  0  0  0  0  0  0  0
    7.7152    0.1286   20.0136 N   0  0  0  0  0  0  0  0  0  0  0  0
    9.5785   -0.9680   21.1667 N   0  3  0  0  0  0  0  0  0  0  0  0
    8.8189    0.1139   20.9786 C   0  0  0  0  0  0  0  0  0  0  0  0
   10.0409    3.2574   21.7328 C   0  0  0  0  0  0  0  0  0  0  0  0
    9.6307    3.2280   20.7340 H   0  0  0  0  0  0  0  0  0  0  0  0
   11.1098    3.2485   21.6316 H   0  0  0  0  0  0  0  0  0  0  0  0
    9.4760    2.0886   22.5040 C   0  0  0  0  0  0  0  0  0  0  0  0
    9.7683    4.1401   22.2901 H   0  0  0  0  0  0  0  0  0  0  0  0
    9.0531    1.1201   21.7190 C   0  0  0  0  0  0  0  0  0  0  0  0
    9.3147    1.8977   23.6875 O   0  0  0  0  0  0  0  0  0  0  0  0
   10.8936    0.0675   23.0369 H   0  0  0  0  0  0  0  0  0  0  0  0
   11.4812   -0.6765   23.3135 O   0  0  0  0  0  0  0  0  0  0  0  0
    9.0628   -2.5470   22.4248 H   0  0  0  0  0  0  0  0  0  0  0  0
    9.8768   -1.8827   22.2721 C   0  0  0  0  0  0  0  0  0  0  0  0
   12.6671   -2.9332   23.7700 H   0  0  0  0  0  0  0  0  0  0  0  0
   11.2794   -3.2186   24.7518 H   0  0  0  0  0  0  0  0  0  0  0  0
   11.6080   -3.1205   23.7237 C   0  0  0  0  0  0  0  0  0  0  0  0
   11.4272   -4.0451   23.1887 H   0  0  0  0  0  0  0  0  0  0  0  0
   10.9565   -1.9158   23.0399 C   0  0  0  0  0  0  0  0  0  0  0  0
    7.1462   -0.6081   20.3788 H   0  0  0  0  0  0  0  0  0  0  0  0
    8.2041    0.8911   22.3799 H   0  0  0  0  0  0  0  0  0  0  0  0
    8.7313    1.8275   20.9405 H   0  0  0  0  0  0  0  0  0  0  0  0
   10.0737   -1.2201   20.3353 H   0  0  0  0  0  0  0  0  0  0  0  0
 19 20  1  0  0  0  0
 18 20  1  0  0  0  0
 20 21  1  0  0  0  0
 20 22  1  0  0  0  0
 15 22  1  0  0  0  0
 17 22  2  3  0  0  0
 14 15  1  0  0  0  0
 16 17  1  0  0  0  0
  5 17  1  0  0  0  0
 10 13  2  0  0  0  0
  5  6  2  3  0  0  0
 10 12  1  0  0  0  0
  7 10  1  0  0  0  0
  6 12  1  0  0  0  0
  4  6  1  0  0  0  0
  7 11  1  0  0  0  0
  7  9  1  0  0  0  0
  7  8  1  0  0  0  0
  2  4  1  0  0  0  0
  2  3  1  0  0  0  0
  1  2  2  0  0  0  0
  4 23  1  0  0  0  0
 12 24  1  0  0  0  0
 12 25  1  0  0  0  0
  5 26  1  0  0  0  0
M  CHG  2   3  -1   5   1
M  END
> <Chemgauss4>
-5.356024

$$$$
