stable:False satoms:18 tatoms:24 sratio:0.75
  -OEChem-08062402593D

 26 25  0     0  0  0  0  0  0999 V2000
   -7.6641    0.1313  -18.6555 O   0  0  0  0  0  0  0  0  0  0  0  0
   -7.5334    0.4874  -19.8170 C   0  0  0  0  0  0  0  0  0  0  0  0
   -6.3416    1.0651  -20.2497 O   0  5  0  0  0  0  0  0  0  0  0  0
   -8.4500    0.1910  -20.7153 N   0  0  0  0  0  0  0  0  0  0  0  0
  -10.5429   -0.7870  -21.5321 N   0  3  0  0  0  0  0  0  0  0  0  0
   -9.7122    0.2558  -21.4584 C   0  0  0  0  0  0  0  0  0  0  0  0
  -10.9049    3.4713  -21.8841 C   0  0  0  0  0  0  0  0  0  0  0  0
  -10.3193    3.3893  -20.9802 H   0  0  0  0  0  0  0  0  0  0  0  0
  -11.9360    3.5021  -21.5863 H   0  0  0  0  0  0  0  0  0  0  0  0
  -10.5469    2.3092  -22.7792 C   0  0  0  0  0  0  0  0  0  0  0  0
  -10.6990    4.3618  -22.4575 H   0  0  0  0  0  0  0  0  0  0  0  0
  -10.0319    1.2967  -22.1139 C   0  0  0  0  0  0  0  0  0  0  0  0
  -10.6158    2.1546  -23.9769 O   0  0  0  0  0  0  0  0  0  0  0  0
  -12.1309    0.3677  -23.0955 H   0  0  0  0  0  0  0  0  0  0  0  0
  -12.7934   -0.3414  -23.2788 O   0  0  0  0  0  0  0  0  0  0  0  0
  -10.3422   -2.3392  -22.9077 H   0  0  0  0  0  0  0  0  0  0  0  0
  -11.0823   -1.6485  -22.5878 C   0  0  0  0  0  0  0  0  0  0  0  0
  -14.1467   -2.5304  -23.5697 H   0  0  0  0  0  0  0  0  0  0  0  0
  -12.9788   -2.8361  -24.7999 H   0  0  0  0  0  0  0  0  0  0  0  0
  -13.1072   -2.7620  -23.7263 C   0  0  0  0  0  0  0  0  0  0  0  0
  -12.8739   -3.7117  -23.2602 H   0  0  0  0  0  0  0  0  0  0  0  0
  -12.2855   -1.6100  -23.1422 C   0  0  0  0  0  0  0  0  0  0  0  0
   -7.9930   -0.5546  -21.2003 H   0  0  0  0  0  0  0  0  0  0  0  0
   -9.3310    1.0574  -22.9272 H   0  0  0  0  0  0  0  0  0  0  0  0
   -9.5395    1.9619  -21.3893 H   0  0  0  0  0  0  0  0  0  0  0  0
  -10.8874   -1.0486  -20.6305 H   0  0  0  0  0  0  0  0  0  0  0  0
 19 20  1  0  0  0  0
 18 20  1  0  0  0  0
 20 21  1  0  0  0  0
 20 22  1  0  0  0  0
 15 22  1  0  0  0  0
 17 22  2  3  0  0  0
 14 15  1  0  0  0  0
 16 17  1  0  0  0  0
  5 17  1  0  0  0  0
 10 13  2  0  0  0  0
  5  6  2  3  0  0  0
 10 12  1  0  0  0  0
  7 10  1  0  0  0  0
  6 12  1  0  0  0  0
  4  6  1  0  0  0  0
  7 11  1  0  0  0  0
  7  9  1  0  0  0  0
  7  8  1  0  0  0  0
  2  4  1  0  0  0  0
  2  3  1  0  0  0  0
  1  2  2  0  0  0  0
  4 23  1  0  0  0  0
 12 24  1  0  0  0  0
 12 25  1  0  0  0  0
  5 26  1  0  0  0  0
M  CHG  2   3  -1   5   1
M  END
> <Chemgauss4>
-5.427591

$$$$
