
 OpenBabel07202414153D

 48 51  0  0  0  0  0  0  0  0999 V2000
    4.6340   -2.5750   -3.0711 C   0  0  0  0  0  0  0  0  0  0  0  0
    3.7474   -1.5027   -2.7452 O   0  0  0  0  0  0  0  0  0  0  0  0
    4.2714   -0.4517   -2.0355 C   0  0  0  0  0  0  0  0  0  0  0  0
    5.5234   -0.5527   -1.3877 C   0  0  0  0  0  0  0  0  0  0  0  0
    6.1217    0.5423   -0.7710 C   0  0  0  0  0  0  0  0  0  0  0  0
    5.5023    1.7736   -0.8378 C   0  0  0  0  0  0  0  0  0  0  0  0
    4.2426    1.8757   -1.4293 C   0  0  0  0  0  0  0  0  0  0  0  0
    3.5462    0.7605   -1.9714 C   0  0  0  0  0  0  0  0  0  0  0  0
    2.1035    0.9883   -2.3436 C   0  0  0  0  0  0  0  0  0  0  0  0
    1.5992    2.2194   -2.1266 C   0  0  0  0  0  0  0  0  0  0  0  0
    2.4290    3.4053   -1.9005 C   0  0  0  0  0  0  0  0  0  0  0  0
    1.9780    4.5308   -2.0564 O   0  0  0  0  0  0  0  0  0  0  0  0
    3.6905    3.1586   -1.4807 N   0  0  0  0  0  0  0  0  0  0  0  0
    1.0577   -0.0778   -2.6096 C   0  0  0  0  0  0  0  0  0  0  0  0
    1.1623   -1.1859   -2.0826 O   0  0  0  0  0  0  0  0  0  0  0  0
   -0.0615    0.2323   -3.3924 N   0  0  0  0  0  0  0  0  0  0  0  0
   -1.2165   -0.6952   -3.4108 C   0  0  0  0  0  0  0  0  0  0  0  0
   -1.7493   -0.9941   -4.8386 C   0  0  0  0  0  0  0  0  0  0  0  0
   -1.8704    0.2660   -5.6027 N   0  0  0  0  0  0  0  0  0  0  0  0
   -0.6449    1.0650   -5.6448 C   0  0  0  0  0  0  0  0  0  0  0  0
   -0.2711    1.4394   -4.2174 C   0  0  0  0  0  0  0  0  0  0  0  0
   -2.9418    0.6046   -6.3983 C   0  0  0  0  0  0  0  0  0  0  0  0
   -3.7301   -0.3493   -7.0393 C   0  0  0  0  0  0  0  0  0  0  0  0
   -4.7889    0.0186   -7.8746 C   0  0  0  0  0  0  0  0  0  0  0  0
   -5.1028    1.3586   -8.0687 C   0  0  0  0  0  0  0  0  0  0  0  0
   -4.3418    2.3204   -7.4197 C   0  0  0  0  0  0  0  0  0  0  0  0
   -3.2870    1.9582   -6.5985 C   0  0  0  0  0  0  0  0  0  0  0  0
   -4.7036    3.9969   -7.6548 Cl  0  0  0  0  0  0  0  0  0  0  0  0
    4.0824   -3.3109   -3.6641 H   0  0  0  0  0  0  0  0  0  0  0  0
    4.9921   -3.0943   -2.1759 H   0  0  0  0  0  0  0  0  0  0  0  0
    5.4731   -2.2173   -3.6777 H   0  0  0  0  0  0  0  0  0  0  0  0
    6.0661   -1.4922   -1.3318 H   0  0  0  0  0  0  0  0  0  0  0  0
    7.0735    0.4337   -0.2583 H   0  0  0  0  0  0  0  0  0  0  0  0
    5.9832    2.6399   -0.3937 H   0  0  0  0  0  0  0  0  0  0  0  0
    0.5442    2.4560   -2.1460 H   0  0  0  0  0  0  0  0  0  0  0  0
    4.2410    3.9696   -1.2337 H   0  0  0  0  0  0  0  0  0  0  0  0
   -2.0125   -0.2065   -2.8317 H   0  0  0  0  0  0  0  0  0  0  0  0
   -0.9867   -1.6364   -2.9016 H   0  0  0  0  0  0  0  0  0  0  0  0
   -2.7142   -1.5047   -4.7465 H   0  0  0  0  0  0  0  0  0  0  0  0
   -1.0575   -1.6606   -5.3588 H   0  0  0  0  0  0  0  0  0  0  0  0
   -0.7272    1.9722   -6.2509 H   0  0  0  0  0  0  0  0  0  0  0  0
    0.1629    0.4674   -6.0862 H   0  0  0  0  0  0  0  0  0  0  0  0
   -1.0910    2.0093   -3.7510 H   0  0  0  0  0  0  0  0  0  0  0  0
    0.6107    2.0701   -4.2802 H   0  0  0  0  0  0  0  0  0  0  0  0
   -3.5007   -1.4101   -6.9328 H   0  0  0  0  0  0  0  0  0  0  0  0
   -5.3755   -0.7537   -8.3729 H   0  0  0  0  0  0  0  0  0  0  0  0
   -5.9216    1.6409   -8.7249 H   0  0  0  0  0  0  0  0  0  0  0  0
   -2.7529    2.7463   -6.0807 H   0  0  0  0  0  0  0  0  0  0  0  0
  1  2  1  0  0  0  0
  1 29  1  0  0  0  0
  1 30  1  0  0  0  0
  1 31  1  0  0  0  0
  2  3  1  0  0  0  0
  3  4  1  0  0  0  0
  3  8  2  0  0  0  0
  4  5  2  0  0  0  0
  4 32  1  0  0  0  0
  5  6  1  0  0  0  0
  5 33  1  0  0  0  0
  6  7  2  0  0  0  0
  6 34  1  0  0  0  0
  7  8  1  0  0  0  0
  7 13  1  0  0  0  0
  8  9  1  0  0  0  0
  9 10  2  0  0  0  0
  9 14  1  0  0  0  0
 10 11  1  0  0  0  0
 10 35  1  0  0  0  0
 11 12  2  0  0  0  0
 11 13  1  0  0  0  0
 13 36  1  0  0  0  0
 14 15  2  0  0  0  0
 14 16  1  0  0  0  0
 16 17  1  0  0  0  0
 16 21  1  0  0  0  0
 17 18  1  0  0  0  0
 17 37  1  0  0  0  0
 17 38  1  0  0  0  0
 18 19  1  0  0  0  0
 18 39  1  0  0  0  0
 18 40  1  0  0  0  0
 19 20  1  0  0  0  0
 19 22  1  0  0  0  0
 20 21  1  0  0  0  0
 20 41  1  0  0  0  0
 20 42  1  0  0  0  0
 21 43  1  0  0  0  0
 21 44  1  0  0  0  0
 22 23  1  0  0  0  0
 22 27  2  0  0  0  0
 23 24  2  0  0  0  0
 23 45  1  0  0  0  0
 24 25  1  0  0  0  0
 24 46  1  0  0  0  0
 25 26  2  0  0  0  0
 25 47  1  0  0  0  0
 26 27  1  0  0  0  0
 26 28  1  0  0  0  0
 27 48  1  0  0  0  0
M  END
$$$$
