stable:False satoms:23 tatoms:24 sratio:0.9583333333333334
  -OEChem-07092417363D

 24 23  0     1  0  0  0  0  0999 V2000
    6.9775   -3.8855   25.1781 H   0  0  0  0  0  0  0  0  0  0  0  0
    7.8941   -3.3352   24.9800 C   0  0  0  0  0  0  0  0  0  0  0  0
    9.0355   -3.2706   25.6435 C   0  0  0  0  0  0  0  0  0  0  0  0
    9.3044   -3.7918   26.5491 H   0  0  0  0  0  0  0  0  0  0  0  0
    9.7972   -2.2149   24.9714 C   0  0  0  0  0  0  0  0  0  0  0  0
    7.9806   -2.4803   23.9096 O   0  0  0  0  0  0  0  0  0  0  0  0
    8.2212   -0.6026   21.8724 C   0  0  0  0  0  0  0  0  0  0  0  0
    9.1642   -1.8536   23.7960 C   0  0  0  0  0  0  0  0  0  0  0  0
   10.6856   -1.6736   25.3009 H   0  0  0  0  0  0  0  0  0  0  0  0
   11.3040    0.0157   23.7608 H   0  0  0  0  0  0  0  0  0  0  0  0
   12.4144   -0.0212   22.3872 H   0  0  0  0  0  0  0  0  0  0  0  0
   12.1900   -1.4845   23.3214 H   0  0  0  0  0  0  0  0  0  0  0  0
   10.6648   -1.0794   22.0593 O   0  0  0  0  0  0  0  0  0  0  0  0
    9.4098   -0.6208   20.5291 H   0  0  0  0  0  0  0  0  0  0  0  0
    9.3926   -1.1129   22.5883 C   0  0  3  0  0  0  0  0  0  0  0  0
   11.6603   -0.5916   22.9208 C   0  0  0  0  0  0  0  0  0  0  0  0
    7.4155   -1.3390   21.8700 H   0  0  0  0  0  0  0  0  0  0  0  0
    8.4724   -0.2965   20.4636 O   0  0  0  0  0  0  0  0  0  0  0  0
    6.0146   -0.6748   19.3780 H   0  0  0  0  0  0  0  0  0  0  0  0
    6.7041    0.7558   18.6636 H   0  0  0  0  0  0  0  0  0  0  0  0
    5.9636    0.4083   19.3795 C   0  0  0  0  0  0  0  0  0  0  0  0
    4.9848    0.7654   19.0833 H   0  0  0  0  0  0  0  0  0  0  0  0
    6.1531    0.7672   20.3876 H   0  0  0  0  0  0  0  0  0  0  0  0
    7.7797    0.3261   22.3033 H   0  0  0  0  0  0  0  0  0  0  0  0
 20 21  1  0  0  0  0
 21 22  1  0  0  0  0
 19 21  1  0  0  0  0
 21 23  1  0  0  0  0
 14 18  1  0  0  0  0
  7 18  1  0  0  0  0
  7 17  1  0  0  0  0
  7 24  1  0  0  0  0
  7 15  1  0  0  0  0
 13 15  1  0  0  0  0
 13 16  1  0  0  0  0
 11 16  1  0  0  0  0
  8 15  1  0  0  0  0
 12 16  1  0  0  0  0
 10 16  1  0  0  0  0
  6  8  1  0  0  0  0
  5  8  2  0  0  0  0
  2  6  1  0  0  0  0
  5  9  1  0  0  0  0
  3  5  1  0  0  0  0
  1  2  1  0  0  0  0
  2  3  2  0  0  0  0
  3  4  1  0  0  0  0
M  END
> <Shapegauss>
-112.068192

$$$$
