stable:False satoms:16 tatoms:24 sratio:0.6666666666666666
  -OEChem-07092417383D

 24 25  0     1  0  0  0  0  0999 V2000
    7.0253   -4.6097   26.3289 H   0  0  0  0  0  0  0  0  0  0  0  0
    8.0798   -4.2942   26.1439 C   0  0  0  0  0  0  0  0  0  0  0  0
    8.7045   -5.2148   26.1010 H   0  0  0  0  0  0  0  0  0  0  0  0
    8.4214   -3.6942   27.0185 H   0  0  0  0  0  0  0  0  0  0  0  0
    8.1331   -3.5667   24.9410 N   0  0  0  0  0  0  0  0  0  0  0  0
    9.2496   -3.1393   24.4625 N   0  0  0  0  0  0  0  0  0  0  0  0
    9.5354   -2.2403   23.8416 C   0  0  0  0  0  0  0  0  0  0  0  0
   10.1354   -1.1514   23.3722 C   0  0  0  0  0  0  0  0  0  0  0  0
   11.1746   -0.7430   24.6871 S   0  0  0  0  0  0  0  0  0  0  0  0
   12.5234    0.4502   23.2846 H   0  0  0  0  0  0  0  0  0  0  0  0
   12.4612   -0.6107   23.3681 C   0  0  0  0  0  0  0  0  0  0  0  0
   13.3775   -1.0898   23.5905 H   0  0  0  0  0  0  0  0  0  0  0  0
   12.0697   -1.1311   22.4821 H   0  0  0  0  0  0  0  0  0  0  0  0
    9.9687   -0.4902   22.3051 N   0  0  0  0  0  0  0  0  0  0  0  0
    9.1769   -0.0478   21.2442 C   0  0  0  0  0  0  0  0  0  0  0  0
    9.6394    0.8788   20.5944 O   0  0  0  0  0  0  0  0  0  0  0  0
    8.0162   -0.6774   20.9773 N   0  0  0  0  0  0  0  0  0  0  0  0
    7.1618   -0.0640   20.1767 C   0  0  0  0  0  0  0  0  0  0  0  0
    7.0455    0.1311   18.8429 C   0  0  0  0  0  0  0  0  0  0  0  0
    6.3379    0.5442   18.0440 N   0  0  0  0  0  0  0  0  0  0  0  0
    5.4932    0.8901   19.0161 C   0  0  1  0  0  0  0  0  0  0  0  0
    4.5979    1.4436   18.8110 H   0  0  0  0  0  0  0  0  0  0  0  0
    5.8747    0.5087   20.3350 C   0  0  0  0  0  0  0  0  0  0  0  0
    5.3809    0.6278   21.3281 H   0  0  0  0  0  0  0  0  0  0  0  0
 19 20  2  0  0  0  0
 20 21  1  0  0  0  0
 21 22  1  0  0  0  0
 19 21  1  0  0  0  0
 18 19  1  0  0  0  0
 21 23  1  0  0  0  0
 18 23  2  0  0  0  0
 17 18  1  0  0  0  0
 23 24  1  0  0  0  0
 15 16  2  0  0  0  0
 15 17  1  0  0  0  0
 14 15  1  0  0  0  0
  8 14  1  0  0  0  0
 11 13  1  0  0  0  0
 10 11  1  0  0  0  0
 11 12  1  0  0  0  0
  9 11  1  0  0  0  0
  7  8  2  0  0  0  0
  8  9  1  0  0  0  0
  6  7  1  0  0  0  0
  5  6  2  3  0  0  0
  2  5  1  0  0  0  0
  2  3  1  0  0  0  0
  1  2  1  0  0  0  0
  2  4  1  0  0  0  0
M  END
> <Shapegauss>
-198.509048

$$$$
