stable:False satoms:16 tatoms:24 sratio:0.6666666666666666
  -OEChem-08062408353D

 27 28  0     1  0  0  0  0  0999 V2000
   -6.2550   -3.8051  -26.4986 H   0  0  0  0  0  0  0  0  0  0  0  0
   -7.3010   -3.4159  -26.5118 C   0  0  0  0  0  0  0  0  0  0  0  0
   -7.9789   -4.2775  -26.7059 H   0  0  0  0  0  0  0  0  0  0  0  0
   -7.3981   -2.7096  -27.3681 H   0  0  0  0  0  0  0  0  0  0  0  0
   -7.5737   -2.8010  -25.2762 N   0  0  0  0  0  0  0  0  0  0  0  0
   -8.7382   -2.3225  -25.0056 N   0  0  0  0  0  0  0  0  0  0  0  0
   -9.0956   -1.4631  -24.3660 C   0  0  0  0  0  0  0  0  0  0  0  0
   -9.7121   -0.3735  -23.9203 C   0  0  0  0  0  0  0  0  0  0  0  0
  -10.4018    0.2453  -25.3753 S   0  0  0  0  0  0  0  0  0  0  0  0
  -11.9482    1.4183  -24.1742 H   0  0  0  0  0  0  0  0  0  0  0  0
  -11.9391    0.3684  -24.3583 C   0  0  0  0  0  0  0  0  0  0  0  0
  -12.8121   -0.0050  -24.8242 H   0  0  0  0  0  0  0  0  0  0  0  0
  -11.7907   -0.2644  -23.4714 H   0  0  0  0  0  0  0  0  0  0  0  0
   -9.7448    0.1687  -22.7764 N   0  0  0  0  0  0  0  0  0  0  0  0
   -9.1828    0.4391  -21.5277 C   0  0  0  0  0  0  0  0  0  0  0  0
   -9.7166    1.3389  -20.8951 O   0  0  0  0  0  0  0  0  0  0  0  0
   -8.1552   -0.3129  -21.0877 N   0  0  0  0  0  0  0  0  0  0  0  0
   -7.4628    0.1457  -20.0593 C   0  0  0  0  0  0  0  0  0  0  0  0
   -7.6349    0.2054  -18.7187 C   0  0  0  0  0  0  0  0  0  0  0  0
   -7.0981    0.4784  -17.7456 N   0  0  0  0  0  0  0  0  0  0  0  0
   -6.0366    0.8366  -18.4688 C   0  0  1  0  0  0  0  0  0  0  0  0
   -5.1752    1.2873  -18.0160 H   0  0  0  0  0  0  0  0  0  0  0  0
   -6.1380    0.6143  -19.8726 C   0  0  0  0  0  0  0  0  0  0  0  0
   -5.4279    0.7806  -20.7167 H   0  0  0  0  0  0  0  0  0  0  0  0
   -8.5273   -1.6902  -23.4762 H   0  0  0  0  0  0  0  0  0  0  0  0
  -10.6220    0.6485  -22.7585 H   0  0  0  0  0  0  0  0  0  0  0  0
   -7.9253   -1.1838  -21.5220 H   0  0  0  0  0  0  0  0  0  0  0  0
 19 20  2  0  0  0  0
 20 21  1  0  0  0  0
 21 22  1  0  0  0  0
 19 21  1  0  0  0  0
 18 19  1  0  0  0  0
 21 23  1  0  0  0  0
 18 23  2  0  0  0  0
 17 18  1  0  0  0  0
 23 24  1  0  0  0  0
 15 16  2  0  0  0  0
 15 17  1  0  0  0  0
 14 15  1  0  0  0  0
  8 14  1  0  0  0  0
 11 13  1  0  0  0  0
 10 11  1  0  0  0  0
 11 12  1  0  0  0  0
  9 11  1  0  0  0  0
  7  8  2  0  0  0  0
  8  9  1  0  0  0  0
  6  7  1  0  0  0  0
  5  6  2  3  0  0  0
  2  5  1  0  0  0  0
  2  3  1  0  0  0  0
  1  2  1  0  0  0  0
  2  4  1  0  0  0  0
  7 25  1  0  0  0  0
 14 26  1  0  0  0  0
 17 27  1  0  0  0  0
M  END
> <Chemgauss4>
-7.457871

$$$$
