stable:False satoms:16 tatoms:24 sratio:0.6666666666666666
  -OEChem-08062408363D

 27 28  0     1  0  0  0  0  0999 V2000
    6.8765   -4.9852   26.1298 H   0  0  0  0  0  0  0  0  0  0  0  0
    7.8261   -4.4071   26.2297 C   0  0  0  0  0  0  0  0  0  0  0  0
    8.6539   -5.1393   26.3645 H   0  0  0  0  0  0  0  0  0  0  0  0
    7.7631   -3.7932   27.1574 H   0  0  0  0  0  0  0  0  0  0  0  0
    8.0034   -3.6201   25.0771 N   0  0  0  0  0  0  0  0  0  0  0  0
    9.0586   -2.9013   24.9095 N   0  0  0  0  0  0  0  0  0  0  0  0
    9.2570   -1.9247   24.3781 C   0  0  0  0  0  0  0  0  0  0  0  0
    9.6600   -0.6953   24.0745 C   0  0  0  0  0  0  0  0  0  0  0  0
   10.1807   -0.1189   25.6148 S   0  0  0  0  0  0  0  0  0  0  0  0
   11.4975    1.4521   24.6107 H   0  0  0  0  0  0  0  0  0  0  0  0
   11.6886    0.4061   24.6856 C   0  0  0  0  0  0  0  0  0  0  0  0
   12.6061    0.1578   25.1494 H   0  0  0  0  0  0  0  0  0  0  0  0
   11.6878   -0.1426   23.7327 H   0  0  0  0  0  0  0  0  0  0  0  0
    9.6140   -0.0351   22.9949 N   0  0  0  0  0  0  0  0  0  0  0  0
    9.0403    0.2577   21.7566 C   0  0  0  0  0  0  0  0  0  0  0  0
    9.4037    1.3066   21.2442 O   0  0  0  0  0  0  0  0  0  0  0  0
    8.1898   -0.6240   21.1962 N   0  0  0  0  0  0  0  0  0  0  0  0
    7.4463   -0.1967   20.1904 C   0  0  0  0  0  0  0  0  0  0  0  0
    7.6357    0.0410   18.8719 C   0  0  0  0  0  0  0  0  0  0  0  0
    7.0796    0.3111   17.9090 N   0  0  0  0  0  0  0  0  0  0  0  0
    5.9515    0.3787   18.6168 C   0  0  1  0  0  0  0  0  0  0  0  0
    5.0300    0.7031   18.1745 H   0  0  0  0  0  0  0  0  0  0  0  0
    6.0604    0.0277   19.9936 C   0  0  0  0  0  0  0  0  0  0  0  0
    5.3115   -0.0380   20.8176 H   0  0  0  0  0  0  0  0  0  0  0  0
    8.7654   -2.1575   23.4451 H   0  0  0  0  0  0  0  0  0  0  0  0
   10.3811    0.6025   23.0656 H   0  0  0  0  0  0  0  0  0  0  0  0
    8.1236   -1.5650   21.5282 H   0  0  0  0  0  0  0  0  0  0  0  0
 19 20  2  0  0  0  0
 20 21  1  0  0  0  0
 21 22  1  0  0  0  0
 19 21  1  0  0  0  0
 18 19  1  0  0  0  0
 21 23  1  0  0  0  0
 18 23  2  0  0  0  0
 17 18  1  0  0  0  0
 23 24  1  0  0  0  0
 15 16  2  0  0  0  0
 15 17  1  0  0  0  0
 14 15  1  0  0  0  0
  8 14  1  0  0  0  0
 11 13  1  0  0  0  0
 10 11  1  0  0  0  0
 11 12  1  0  0  0  0
  9 11  1  0  0  0  0
  7  8  2  0  0  0  0
  8  9  1  0  0  0  0
  6  7  1  0  0  0  0
  5  6  2  3  0  0  0
  2  5  1  0  0  0  0
  2  3  1  0  0  0  0
  1  2  1  0  0  0  0
  2  4  1  0  0  0  0
  7 25  1  0  0  0  0
 14 26  1  0  0  0  0
 17 27  1  0  0  0  0
M  END
> <Chemgauss4>
-7.435103

$$$$
