stable:False satoms:13 tatoms:24 sratio:0.5416666666666666
  -OEChem-07092417433D

 24 25  0     1  0  0  0  0  0999 V2000
    6.6561   -4.7891   26.4696 O   0  0  0  0  0  0  0  0  0  0  0  0
    8.0569   -4.3254   26.2393 S   0  0  0  0  0  0  0  0  0  0  0  0
    8.9341   -5.4625   26.0558 O   0  0  0  0  0  0  0  0  0  0  0  0
    8.4805   -3.4640   27.3155 O   0  5  0  0  0  0  0  0  0  0  0  0
    8.0123   -3.5295   24.8032 N   0  0  0  0  0  0  0  0  0  0  0  0
    8.9287   -2.8696   24.2934 C   0  0  0  0  0  0  0  0  0  0  0  0
    9.5309   -2.0971   23.7718 C   0  0  0  0  0  0  0  0  0  0  0  0
   10.3964   -1.1916   23.1927 C   0  0  1  0  0  0  0  0  0  0  0  0
   11.0137   -0.2805   24.1157 C   0  0  0  0  0  0  0  0  0  0  0  0
   12.0480    0.1809   24.2744 C   0  0  0  0  0  0  0  0  0  0  0  0
   13.1672   -0.2285   23.4175 C   0  0  0  0  0  0  0  0  0  0  0  0
   12.8682   -1.0453   22.8156 C   0  0  0  0  0  0  0  0  0  0  0  0
   11.8052   -2.0425   22.4080 S   0  0  0  0  0  0  0  0  0  0  0  0
    9.7873   -0.4949   22.2474 C   0  0  0  0  0  0  0  0  0  0  0  0
    9.0706    0.1084   21.2828 C   0  0  0  0  0  0  0  0  0  0  0  0
    9.5859    1.0269   20.7029 O   0  0  0  0  0  0  0  0  0  0  0  0
    7.8593   -0.4993   21.1584 N   0  0  0  0  0  0  0  0  0  0  0  0
    7.1549   -0.0016   20.2101 C   0  0  0  0  0  0  0  0  0  0  0  0
    7.2676    0.1179   18.9005 C   0  0  0  0  0  0  0  0  0  0  0  0
    6.7847    0.4262   17.8234 N   0  0  0  0  0  0  0  0  0  0  0  0
    5.7392    0.9434   18.3006 C   0  0  0  0  0  0  0  0  0  0  0  0
    5.2587    1.0528   19.4358 C   0  0  0  0  0  0  0  0  0  0  0  0
    5.7860    0.5885   20.5299 C   0  0  0  0  0  0  0  0  0  0  0  0
    5.3917    0.5863   21.5325 H   0  0  0  0  0  0  0  0  0  0  0  0
 20 21  2  0  0  0  0
 19 20  1  0  0  0  0
 21 22  1  0  0  0  0
 18 19  2  0  0  0  0
 22 23  2  0  0  0  0
 18 23  1  0  0  0  0
 17 18  1  0  0  0  0
 23 24  1  0  0  0  0
 15 16  2  0  0  0  0
 15 17  1  0  0  0  0
 14 15  1  0  0  0  0
  8 14  1  0  0  0  0
 12 13  1  0  0  0  0
  8 13  1  0  0  0  0
 11 12  2  0  0  0  0
  7  8  1  0  0  0  0
  8  9  1  0  0  0  0
 10 11  1  0  0  0  0
  6  7  3  0  0  0  0
  9 10  2  0  0  0  0
  5  6  1  0  0  0  0
  2  5  1  0  0  0  0
  2  3  2  0  0  0  0
  1  2  2  0  0  0  0
  2  4  1  0  0  0  0
M  CHG  1   4  -1
M  END
> <Shapegauss>
-279.122711

$$$$
