stable:False satoms:13 tatoms:24 sratio:0.5416666666666666
  -OEChem-08062410543D

 35 36  0     1  0  0  0  0  0999 V2000
   -6.2465   -5.3214  -26.0678 O   0  0  0  0  0  0  0  0  0  0  0  0
   -7.5624   -4.6185  -26.1348 S   0  0  0  0  0  0  0  0  0  0  0  0
   -8.6435   -5.5808  -26.0990 O   0  0  0  0  0  0  0  0  0  0  0  0
   -7.6143   -3.7665  -27.2971 O   0  5  0  0  0  0  0  0  0  0  0  0
   -7.6561   -3.7543  -24.7411 N   0  0  0  0  0  0  0  0  0  0  0  0
   -8.5236   -2.9215  -24.4429 C   0  0  0  0  0  0  0  0  0  0  0  0
   -9.0703   -2.0292  -24.0735 C   0  0  0  0  0  0  0  0  0  0  0  0
   -9.8591   -0.9589  -23.7041 C   0  0  1  0  0  0  0  0  0  0  0  0
  -10.1187   -0.0164  -24.7564 C   0  0  0  0  0  0  0  0  0  0  0  0
  -11.0065    0.5996  -25.1311 C   0  0  0  0  0  0  0  0  0  0  0  0
  -12.3234    0.4349  -24.5041 C   0  0  0  0  0  0  0  0  0  0  0  0
  -12.2930   -0.3816  -23.8324 C   0  0  0  0  0  0  0  0  0  0  0  0
  -11.5190   -1.5144  -23.1935 S   0  0  0  0  0  0  0  0  0  0  0  0
   -9.3306   -0.3161  -22.6756 C   0  0  0  0  0  0  0  0  0  0  0  0
   -8.7183    0.2180  -21.6043 C   0  0  0  0  0  0  0  0  0  0  0  0
   -9.1668    1.2431  -21.1644 O   0  0  0  0  0  0  0  0  0  0  0  0
   -7.6787   -0.5734  -21.2238 N   0  0  0  0  0  0  0  0  0  0  0  0
   -7.0935   -0.1422  -20.1679 C   0  0  0  0  0  0  0  0  0  0  0  0
   -7.4330    0.0746  -18.9110 C   0  0  0  0  0  0  0  0  0  0  0  0
   -7.1196    0.3640  -17.7681 N   0  0  0  0  0  0  0  0  0  0  0  0
   -5.9279    0.6703  -18.0408 C   0  0  0  0  0  0  0  0  0  0  0  0
   -5.2268    0.6286  -19.0597 C   0  0  0  0  0  0  0  0  0  0  0  0
   -5.6071    0.1919  -20.2240 C   0  0  0  0  0  0  0  0  0  0  0  0
   -5.0341    0.0627  -21.1271 H   0  0  0  0  0  0  0  0  0  0  0  0
   -6.7901   -3.2572  -24.6860 H   0  0  0  0  0  0  0  0  0  0  0  0
   -9.2374    0.1576  -25.3559 H   0  0  0  0  0  0  0  0  0  0  0  0
  -10.8764    1.2996  -25.9431 H   0  0  0  0  0  0  0  0  0  0  0  0
  -13.1886    1.0514  -24.6983 H   0  0  0  0  0  0  0  0  0  0  0  0
  -13.2802   -0.4297  -23.3971 H   0  0  0  0  0  0  0  0  0  0  0  0
  -10.3248   -0.0895  -22.2629 H   0  0  0  0  0  0  0  0  0  0  0  0
   -9.0029    0.5137  -23.3191 H   0  0  0  0  0  0  0  0  0  0  0  0
   -7.4018   -1.4000  -21.7138 H   0  0  0  0  0  0  0  0  0  0  0  0
   -8.5018   -0.0773  -18.8789 H   0  0  0  0  0  0  0  0  0  0  0  0
   -5.3944    1.0600  -17.1865 H   0  0  0  0  0  0  0  0  0  0  0  0
   -4.2112    0.9858  -18.9746 H   0  0  0  0  0  0  0  0  0  0  0  0
 20 21  2  0  0  0  0
 19 20  1  0  0  0  0
 21 22  1  0  0  0  0
 18 19  2  0  0  0  0
 22 23  2  0  0  0  0
 18 23  1  0  0  0  0
 17 18  1  0  0  0  0
 23 24  1  0  0  0  0
 15 16  2  0  0  0  0
 15 17  1  0  0  0  0
 14 15  1  0  0  0  0
  8 14  1  0  0  0  0
 12 13  1  0  0  0  0
  8 13  1  0  0  0  0
 11 12  2  0  0  0  0
  7  8  1  0  0  0  0
  8  9  1  0  0  0  0
 10 11  1  0  0  0  0
  6  7  3  0  0  0  0
  9 10  2  0  0  0  0
  5  6  1  0  0  0  0
  2  5  1  0  0  0  0
  2  3  2  0  0  0  0
  1  2  2  0  0  0  0
  2  4  1  0  0  0  0
  5 25  1  0  0  0  0
  9 26  1  0  0  0  0
 10 27  1  0  0  0  0
 11 28  1  0  0  0  0
 12 29  1  0  0  0  0
 14 30  1  0  0  0  0
 14 31  1  0  0  0  0
 17 32  1  0  0  0  0
 19 33  1  0  0  0  0
 21 34  1  0  0  0  0
 22 35  1  0  0  0  0
M  CHG  1   4  -1
M  END
> <Chemgauss4>
-12.617324

$$$$
