stable:False satoms:13 tatoms:24 sratio:0.5416666666666666
  -OEChem-08062410553D

 35 36  0     1  0  0  0  0  0999 V2000
    6.8990   -5.7297   26.1200 O   0  0  0  0  0  0  0  0  0  0  0  0
    8.1875   -4.9750   26.0970 S   0  0  0  0  0  0  0  0  0  0  0  0
    9.2993   -5.8920   25.9582 O   0  0  0  0  0  0  0  0  0  0  0  0
    8.2977   -4.1404   27.2679 O   0  5  0  0  0  0  0  0  0  0  0  0
    8.1366   -4.0856   24.7172 N   0  0  0  0  0  0  0  0  0  0  0  0
    8.9444   -3.2135   24.3679 C   0  0  0  0  0  0  0  0  0  0  0  0
    9.4247   -2.2939   23.9740 C   0  0  0  0  0  0  0  0  0  0  0  0
   10.1391   -1.1866   23.5644 C   0  0  1  0  0  0  0  0  0  0  0  0
   10.4440   -0.2513   24.6110 C   0  0  0  0  0  0  0  0  0  0  0  0
   11.3337    0.3941   24.9267 C   0  0  0  0  0  0  0  0  0  0  0  0
   12.6024    0.2933   24.1953 C   0  0  0  0  0  0  0  0  0  0  0  0
   12.5510   -0.5130   23.5126 C   0  0  0  0  0  0  0  0  0  0  0  0
   11.7740   -1.6659   22.9147 S   0  0  0  0  0  0  0  0  0  0  0  0
    9.5062   -0.5495   22.5931 C   0  0  0  0  0  0  0  0  0  0  0  0
    8.7905   -0.0236   21.5835 C   0  0  0  0  0  0  0  0  0  0  0  0
    9.1621    1.0259   21.1296 O   0  0  0  0  0  0  0  0  0  0  0  0
    7.7559   -0.8504   21.2706 N   0  0  0  0  0  0  0  0  0  0  0  0
    7.0726   -0.4265   20.2723 C   0  0  0  0  0  0  0  0  0  0  0  0
    7.3027   -0.1760   18.9971 C   0  0  0  0  0  0  0  0  0  0  0  0
    6.8888    0.1188   17.8879 N   0  0  0  0  0  0  0  0  0  0  0  0
    5.7113    0.3720   18.2592 C   0  0  0  0  0  0  0  0  0  0  0  0
    5.0952    0.2854   19.3289 C   0  0  0  0  0  0  0  0  0  0  0  0
    5.5832   -0.1541   20.4511 C   0  0  0  0  0  0  0  0  0  0  0  0
    5.0890   -0.3209   21.3938 H   0  0  0  0  0  0  0  0  0  0  0  0
    7.2501   -3.6233   24.7397 H   0  0  0  0  0  0  0  0  0  0  0  0
    9.6067   -0.1230   25.2810 H   0  0  0  0  0  0  0  0  0  0  0  0
   11.2409    1.0752   25.7597 H   0  0  0  0  0  0  0  0  0  0  0  0
   13.4553    0.9413   24.3329 H   0  0  0  0  0  0  0  0  0  0  0  0
   13.5018   -0.5139   23.0003 H   0  0  0  0  0  0  0  0  0  0  0  0
   10.4549   -0.2760   22.1081 H   0  0  0  0  0  0  0  0  0  0  0  0
    9.1981    0.2559   23.2761 H   0  0  0  0  0  0  0  0  0  0  0  0
    7.5513   -1.6953   21.7648 H   0  0  0  0  0  0  0  0  0  0  0  0
    8.3707   -0.2837   18.8783 H   0  0  0  0  0  0  0  0  0  0  0  0
    5.0969    0.7532   17.4569 H   0  0  0  0  0  0  0  0  0  0  0  0
    4.0627    0.6023   19.3305 H   0  0  0  0  0  0  0  0  0  0  0  0
 20 21  2  0  0  0  0
 19 20  1  0  0  0  0
 21 22  1  0  0  0  0
 18 19  2  0  0  0  0
 22 23  2  0  0  0  0
 18 23  1  0  0  0  0
 17 18  1  0  0  0  0
 23 24  1  0  0  0  0
 15 16  2  0  0  0  0
 15 17  1  0  0  0  0
 14 15  1  0  0  0  0
  8 14  1  0  0  0  0
 12 13  1  0  0  0  0
  8 13  1  0  0  0  0
 11 12  2  0  0  0  0
  7  8  1  0  0  0  0
  8  9  1  0  0  0  0
 10 11  1  0  0  0  0
  6  7  3  0  0  0  0
  9 10  2  0  0  0  0
  5  6  1  0  0  0  0
  2  5  1  0  0  0  0
  2  3  2  0  0  0  0
  1  2  2  0  0  0  0
  2  4  1  0  0  0  0
  5 25  1  0  0  0  0
  9 26  1  0  0  0  0
 10 27  1  0  0  0  0
 11 28  1  0  0  0  0
 12 29  1  0  0  0  0
 14 30  1  0  0  0  0
 14 31  1  0  0  0  0
 17 32  1  0  0  0  0
 19 33  1  0  0  0  0
 21 34  1  0  0  0  0
 22 35  1  0  0  0  0
M  CHG  1   4  -1
M  END
> <Chemgauss4>
-12.473230

$$$$
