stable:False satoms:19 tatoms:24 sratio:0.7916666666666666
  -OEChem-08052418593D

 28 30  0     1  0  0  0  0  0999 V2000
    9.2375   -2.4395   22.9989 C   0  0  0  0  0  0  0  0  0  0  0  0
    8.7206   -3.4685   22.6771 O   0  0  0  0  0  0  0  0  0  0  0  0
    7.6453    0.4605   22.3319 H   0  0  0  0  0  0  0  0  0  0  0  0
    7.9149    3.6532   23.5837 O   0  0  0  0  0  0  0  0  0  0  0  0
   10.5688    1.1008   23.6011 C   0  0  0  0  0  0  0  0  0  0  0  0
    8.6298   -1.6269   23.4129 H   0  0  0  0  0  0  0  0  0  0  0  0
   10.2618   -0.0123   23.4189 C   0  0  0  0  0  0  0  0  0  0  0  0
    9.2474    0.8850   23.5191 N   0  3  0  0  0  0  0  0  0  0  0  0
    7.5144    1.7275   23.5493 H   0  0  0  0  0  0  0  0  0  0  0  0
    8.3568    2.0688   22.0728 H   0  0  0  0  0  0  0  0  0  0  0  0
    9.8648    5.6513   22.8788 H   0  0  0  0  0  0  0  0  0  0  0  0
    8.1572    4.3448   24.8413 O   0  0  0  0  0  0  0  0  0  0  0  0
   10.4239    3.5933   23.7524 N   0  3  1  0  0  0  0  0  0  0  0  0
   11.0831   -1.1581   23.3793 C   0  0  3  0  0  0  0  0  0  0  0  0
   11.6896    3.1270   23.9205 C   0  0  0  0  0  0  0  0  0  0  0  0
   10.6829    5.6716   24.4707 H   0  0  0  0  0  0  0  0  0  0  0  0
    8.1535    1.2973   22.7955 C   0  0  0  0  0  0  0  0  0  0  0  0
    9.3621    3.9211   24.0134 C   0  0  0  0  0  0  0  0  0  0  0  0
   10.2636    5.0945   23.7065 C   0  0  0  0  0  0  0  0  0  0  0  0
   12.8462    1.4341   24.0129 H   0  0  0  0  0  0  0  0  0  0  0  0
   12.6784   -1.1367   24.0792 Cl  0  0  0  0  0  0  0  0  0  0  0  0
   11.9034    1.8888   23.8531 C   0  0  0  0  0  0  0  0  0  0  0  0
   12.4724    3.8411   24.0673 H   0  0  0  0  0  0  0  0  0  0  0  0
   10.5874   -2.1647   22.9172 N   0  0  0  0  0  0  0  0  0  0  0  0
   11.4861   -0.8683   22.3977 H   0  0  0  0  0  0  0  0  0  0  0  0
   11.1828   -2.8235   22.4573 H   0  0  0  0  0  0  0  0  0  0  0  0
    8.9268    0.8188   24.4640 H   0  0  0  0  0  0  0  0  0  0  0  0
   10.3237    3.4143   22.7736 H   0  0  0  0  0  0  0  0  0  0  0  0
 16 19  1  0  0  0  0
 15 23  1  0  0  0  0
 13 19  1  0  0  0  0
 18 19  1  0  0  0  0
 11 19  1  0  0  0  0
 13 15  1  0  0  0  0
 15 22  2  0  0  0  0
 12 18  1  0  0  0  0
  4 12  1  0  0  0  0
 20 22  1  0  0  0  0
 13 18  1  0  0  0  0
  5 22  1  0  0  0  0
  4 18  1  0  0  0  0
 14 21  1  0  0  0  0
  5  8  1  0  0  0  0
  5  7  2  0  0  0  0
  7  8  1  0  0  0  0
  8 17  1  0  0  0  0
  7 14  1  0  0  0  0
 14 24  1  0  0  0  0
  9 17  1  0  0  0  0
 10 17  1  0  0  0  0
  3 17  1  0  0  0  0
  1 24  1  0  0  0  0
  1  6  1  0  0  0  0
  1  2  2  0  0  0  0
 14 25  1  0  0  0  0
 24 26  1  0  0  0  0
  8 27  1  0  0  0  0
 13 28  1  0  0  0  0
M  CHG  2   8   1  13   1
M  END
> <Chemgauss4>
-5.691773

$$$$
