stable:False satoms:19 tatoms:24 sratio:0.7916666666666666
  -OEChem-08052418583D

 28 30  0     1  0  0  0  0  0999 V2000
   -9.4927   -1.9456  -22.8322 C   0  0  0  0  0  0  0  0  0  0  0  0
   -8.9757   -2.9747  -22.5105 O   0  0  0  0  0  0  0  0  0  0  0  0
   -7.9004    0.9544  -22.1652 H   0  0  0  0  0  0  0  0  0  0  0  0
   -8.1700    4.1470  -23.4171 O   0  0  0  0  0  0  0  0  0  0  0  0
  -10.8239    1.5947  -23.4344 C   0  0  0  0  0  0  0  0  0  0  0  0
   -8.8850   -1.1331  -23.2462 H   0  0  0  0  0  0  0  0  0  0  0  0
  -10.5169    0.4815  -23.2523 C   0  0  0  0  0  0  0  0  0  0  0  0
   -9.5025    1.3788  -23.3524 N   0  3  0  0  0  0  0  0  0  0  0  0
   -7.7695    2.2214  -23.3826 H   0  0  0  0  0  0  0  0  0  0  0  0
   -8.6119    2.5627  -21.9061 H   0  0  0  0  0  0  0  0  0  0  0  0
  -10.1199    6.1451  -22.7121 H   0  0  0  0  0  0  0  0  0  0  0  0
   -8.4123    4.8387  -24.6746 O   0  0  0  0  0  0  0  0  0  0  0  0
  -10.6790    4.0871  -23.5857 N   0  3  1  0  0  0  0  0  0  0  0  0
  -11.3382   -0.6642  -23.2126 C   0  0  3  0  0  0  0  0  0  0  0  0
  -11.9448    3.6208  -23.7538 C   0  0  0  0  0  0  0  0  0  0  0  0
  -10.9380    6.1655  -24.3040 H   0  0  0  0  0  0  0  0  0  0  0  0
   -8.4086    1.7911  -22.6288 C   0  0  0  0  0  0  0  0  0  0  0  0
   -9.6172    4.4150  -23.8467 C   0  0  0  0  0  0  0  0  0  0  0  0
  -10.5188    5.5884  -23.5399 C   0  0  0  0  0  0  0  0  0  0  0  0
  -13.1013    1.9279  -23.8462 H   0  0  0  0  0  0  0  0  0  0  0  0
  -12.9336   -0.6429  -23.9125 Cl  0  0  0  0  0  0  0  0  0  0  0  0
  -12.1585    2.3827  -23.6864 C   0  0  0  0  0  0  0  0  0  0  0  0
  -12.7275    4.3350  -23.9006 H   0  0  0  0  0  0  0  0  0  0  0  0
  -10.8425   -1.6708  -22.7505 N   0  0  0  0  0  0  0  0  0  0  0  0
  -11.7412   -0.3744  -22.2310 H   0  0  0  0  0  0  0  0  0  0  0  0
  -11.4379   -2.3297  -22.2906 H   0  0  0  0  0  0  0  0  0  0  0  0
   -9.1819    1.3126  -24.2973 H   0  0  0  0  0  0  0  0  0  0  0  0
  -10.5789    3.9081  -22.6070 H   0  0  0  0  0  0  0  0  0  0  0  0
 16 19  1  0  0  0  0
 15 23  1  0  0  0  0
 13 19  1  0  0  0  0
 18 19  1  0  0  0  0
 11 19  1  0  0  0  0
 13 15  1  0  0  0  0
 15 22  2  0  0  0  0
 12 18  1  0  0  0  0
  4 12  1  0  0  0  0
 20 22  1  0  0  0  0
 13 18  1  0  0  0  0
  5 22  1  0  0  0  0
  4 18  1  0  0  0  0
 14 21  1  0  0  0  0
  5  8  1  0  0  0  0
  5  7  2  0  0  0  0
  7  8  1  0  0  0  0
  8 17  1  0  0  0  0
  7 14  1  0  0  0  0
 14 24  1  0  0  0  0
  9 17  1  0  0  0  0
 10 17  1  0  0  0  0
  3 17  1  0  0  0  0
  1 24  1  0  0  0  0
  1  6  1  0  0  0  0
  1  2  2  0  0  0  0
 14 25  1  0  0  0  0
 24 26  1  0  0  0  0
  8 27  1  0  0  0  0
 13 28  1  0  0  0  0
M  CHG  2   8   1  13   1
M  END
> <Chemgauss4>
-5.821812

$$$$
