REMARK  7 active torsions:
REMARK  status: ('A' for Active; 'I' for Inactive)
REMARK    1  A    between atoms: S_2  and  N_5 
REMARK    2  A    between atoms: N_5  and  C_7 
REMARK    3  A    between atoms: C_7  and  C_8 
REMARK    4  A    between atoms: C_8  and  C_9 
REMARK    5  A    between atoms: C_9  and  C_15 
REMARK    6  A    between atoms: C_15  and  C_16 
REMARK       I    between atoms: C_16  and  N_18 
REMARK    7  A    between atoms: N_18  and  C_20 
ROOT
HETATM    1  C   UNL     1      10.324  -1.138  23.290  1.00  0.00     0.068 C 
HETATM    2  C   UNL     1      11.050  -0.102  24.273  1.00  0.00     0.000 C 
HETATM    3  C   UNL     1      12.138   0.214  24.239  1.00  0.00    -0.002 C 
HETATM    4  C   UNL     1      13.133  -0.261  23.402  1.00  0.00    -0.001 C 
HETATM    5  C   UNL     1      12.773  -1.212  22.662  1.00  0.00    -0.002 C 
HETATM    6  C   UNL     1      11.795  -1.766  22.486  1.00  0.00     0.000 C 
ENDROOT
BRANCH   1   7
HETATM    7  C   UNL     1       9.443  -2.060  23.572  1.00  0.00     0.135 C 
BRANCH   7   8
HETATM    8  C   UNL     1       8.924  -2.889  24.142  1.00  0.00    -0.058 C 
BRANCH   8   9
HETATM    9  N   UNL     1       8.067  -3.570  24.628  1.00  0.00    -0.254 N 
ATOM     10  HN  UNL     1       7.220  -3.713  24.078  1.00  0.00     0.188 HD
BRANCH   9  11
HETATM   11  S   UNL     1       8.133  -4.289  26.090  1.00  0.00     0.233 S 
HETATM   12  C   UNL     1       6.646  -4.793  26.428  1.00  0.00     0.186 C 
HETATM   13  O   UNL     1       9.002  -5.449  26.012  1.00  0.00    -0.206 OA
HETATM   14  O   UNL     1       8.585  -3.381  27.112  1.00  0.00    -0.206 OA
ENDBRANCH   9  11
ENDBRANCH   8   9
ENDBRANCH   7   8
ENDBRANCH   1   7
BRANCH   1  15
HETATM   15  C   UNL     1       9.774  -0.591  22.347  1.00  0.00    -0.064 C 
BRANCH  15  16
HETATM   16  C   UNL     1       9.092   0.068  21.400  1.00  0.00     0.290 C 
HETATM   17  O   UNL     1       9.559   1.040  21.000  1.00  0.00    -0.259 OA
HETATM   18  N   UNL     1       7.919  -0.519  21.105  1.00  0.00    -0.317 N 
ATOM     19  HN  UNL     1       7.602  -1.330  21.637  1.00  0.00     0.169 HD
BRANCH  18  20
HETATM   20  C   UNL     1       7.235  -0.074  20.195  1.00  0.00     0.059 A 
HETATM   21  C   UNL     1       7.195   0.064  18.879  1.00  0.00     0.155 A 
HETATM   22  N   UNL     1       6.726   0.352  17.753  1.00  0.00    -0.400 N 
HETATM   23  C   UNL     1       5.713   0.841  18.299  1.00  0.00     0.130 A 
ATOM     24  HN  UNL     1       7.041   0.236  16.790  1.00  0.00     0.154 HD
HETATM   25  C   UNL     1       5.265   0.964  19.422  1.00  0.00     0.026 A 
HETATM   26  C   UNL     1       5.785   0.584  20.548  1.00  0.00     0.057 A 
HETATM   27 CL   UNL     1       5.309   0.678  22.014  1.00  0.00    -0.082 Cl
ENDBRANCH  18  20
ENDBRANCH  15  16
ENDBRANCH   1  15
TORSDOF 7
