stable:False satoms:7 tatoms:24 sratio:0.2916666666666667
  -OEChem-07092417473D

 24 26  0     1  0  0  0  0  0999 V2000
    6.6463   -4.7931   26.4277 C   0  0  0  0  0  0  0  0  0  0  0  0
    8.1326   -4.2886   26.0898 S   0  0  0  0  0  0  0  0  0  0  0  0
    9.0016   -5.4489   26.0115 O   0  0  0  0  0  0  0  0  0  0  0  0
    8.5846   -3.3806   27.1121 O   0  0  0  0  0  0  0  0  0  0  0  0
    8.0669   -3.5695   24.6283 N   0  0  0  0  0  0  0  0  0  0  0  0
    8.9239   -2.8885   24.1416 C   0  0  0  0  0  0  0  0  0  0  0  0
    9.4427   -2.0602   23.5718 C   0  0  0  0  0  0  0  0  0  0  0  0
   10.3236   -1.1384   23.2897 C   0  0  1  0  0  0  0  0  0  0  0  0
   11.0502   -0.1022   24.2733 C   0  0  0  0  0  0  0  0  0  0  0  0
   12.1383    0.2137   24.2394 C   0  0  0  0  0  0  0  0  0  0  0  0
   13.1335   -0.2609   23.4021 C   0  0  0  0  0  0  0  0  0  0  0  0
   12.7730   -1.2125   22.6622 C   0  0  0  0  0  0  0  0  0  0  0  0
   11.7949   -1.7664   22.4860 C   0  0  0  0  0  0  0  0  0  0  0  0
    9.7745   -0.5914   22.3469 C   0  0  0  0  0  0  0  0  0  0  0  0
    9.0919    0.0680   21.3996 C   0  0  0  0  0  0  0  0  0  0  0  0
    9.5586    1.0399   20.9995 O   0  0  0  0  0  0  0  0  0  0  0  0
    7.9193   -0.5189   21.1051 N   0  0  0  0  0  0  0  0  0  0  0  0
    7.2354   -0.0739   20.1953 C   0  0  0  0  0  0  0  0  0  0  0  0
    7.1951    0.0637   18.8791 C   0  0  0  0  0  0  0  0  0  0  0  0
    6.7257    0.3522   17.7525 N   0  0  0  0  0  0  0  0  0  0  0  0
    5.7128    0.8409   18.2985 C   0  0  0  0  0  0  0  0  0  0  0  0
    5.2646    0.9636   19.4220 C   0  0  0  0  0  0  0  0  0  0  0  0
    5.7854    0.5837   20.5482 C   0  0  0  0  0  0  0  0  0  0  0  0
    5.3089    0.6781   22.0144 Cl  0  0  0  0  0  0  0  0  0  0  0  0
 20 21  2  0  0  0  0
 19 20  1  0  0  0  0
 19 21  1  0  0  0  0
 21 22  1  0  0  0  0
 18 19  2  0  0  0  0
 22 23  2  0  0  0  0
 18 23  1  0  0  0  0
 17 18  1  0  0  0  0
 23 24  1  0  0  0  0
 15 16  2  0  0  0  0
 15 17  1  0  0  0  0
 14 15  1  0  0  0  0
  8 14  1  0  0  0  0
 12 13  1  0  0  0  0
  8 13  1  0  0  0  0
 11 12  2  0  0  0  0
  7  8  1  0  0  0  0
  8  9  1  0  0  0  0
 10 11  1  0  0  0  0
  6  7  3  0  0  0  0
  5  6  1  0  0  0  0
  9 10  2  0  0  0  0
  2  5  1  0  0  0  0
  2  3  2  0  0  0  0
  1  2  1  0  0  0  0
  2  4  2  0  0  0  0
M  END
> <Shapegauss>
-287.036194

$$$$
