MODEL 1
REMARK VINA RESULT:    -7.260      0.000      0.000
REMARK INTER + INTRA:         -11.371
REMARK INTER:                 -10.231
REMARK INTRA:                  -1.140
REMARK UNBOUND:                -1.140
REMARK  7 active torsions:
REMARK  status: ('A' for Active; 'I' for Inactive)
REMARK    1  A    between atoms: S_2  and  N_5 
REMARK    2  A    between atoms: N_5  and  C_7 
REMARK    3  A    between atoms: C_7  and  C_8 
REMARK    4  A    between atoms: C_8  and  C_9 
REMARK    5  A    between atoms: C_9  and  C_15 
REMARK    6  A    between atoms: C_15  and  C_16 
REMARK       I    between atoms: C_16  and  N_18 
REMARK    7  A    between atoms: N_18  and  C_20 
ROOT
HETATM    1  C   UNL     1       9.410  -1.594  23.369  1.00  0.00     0.068 C 
HETATM    2  C   UNL     1       9.618  -0.646  24.643  1.00  0.00     0.000 C 
HETATM    3  C   UNL     1      10.548  -0.052  24.900  1.00  0.00    -0.002 C 
HETATM    4  C   UNL     1      11.762  -0.047  24.233  1.00  0.00    -0.001 C 
HETATM    5  C   UNL     1      11.832  -0.872  23.286  1.00  0.00    -0.002 C 
HETATM    6  C   UNL     1      11.111  -1.613  22.813  1.00  0.00     0.000 C 
ENDROOT
BRANCH   1   7
HETATM    7  C   UNL     1       8.818  -2.757  23.297  1.00  0.00     0.135 C 
BRANCH   7   8
HETATM    8  C   UNL     1       8.065  -3.544  22.989  1.00  0.00    -0.058 C 
BRANCH   8   9
HETATM    9  N   UNL     1       7.588  -4.543  22.532  1.00  0.00    -0.254 N 
ATOM     10  HN  UNL     1       8.152  -5.391  22.581  1.00  0.00     0.188 HD
BRANCH   9  11
HETATM   11  S   UNL     1       6.118  -4.668  21.839  1.00  0.00     0.233 S 
HETATM   12  C   UNL     1       5.086  -5.065  23.004  1.00  0.00     0.186 C 
HETATM   13  O   UNL     1       5.730  -3.375  21.306  1.00  0.00    -0.206 OA
HETATM   14  O   UNL     1       6.098  -5.671  20.806  1.00  0.00    -0.206 OA
ENDBRANCH   9  11
ENDBRANCH   8   9
ENDBRANCH   7   8
ENDBRANCH   1   7
BRANCH   1  15
HETATM   15  C   UNL     1       8.878  -1.020  22.432  1.00  0.00    -0.064 C 
BRANCH  15  16
HETATM   16  C   UNL     1       8.413  -0.386  21.346  1.00  0.00     0.290 C 
HETATM   17  O   UNL     1       9.157   0.272  20.767  1.00  0.00    -0.259 OA
HETATM   18  N   UNL     1       7.102  -0.603  21.143  1.00  0.00    -0.317 N 
ATOM     19  HN  UNL     1       6.558  -1.135  21.823  1.00  0.00     0.169 HD
BRANCH  18  20
HETATM   20  C   UNL     1       6.566  -0.159  20.139  1.00  0.00     0.059 A 
HETATM   21  C   UNL     1       6.286  -0.451  18.879  1.00  0.00     0.155 A 
HETATM   22  N   UNL     1       5.786  -0.318  17.737  1.00  0.00    -0.400 N 
HETATM   23  C   UNL     1       5.365   0.816  18.052  1.00  0.00     0.130 A 
ATOM     24  HN  UNL     1       5.742  -0.897  16.898  1.00  0.00     0.154 HD
HETATM   25  C   UNL     1       5.345   1.529  19.036  1.00  0.00     0.026 A 
HETATM   26  C   UNL     1       5.837   1.298  20.214  1.00  0.00     0.057 A 
HETATM   27 CL   UNL     1       5.862   2.115  21.524  1.00  0.00    -0.082 Cl
ENDBRANCH  18  20
ENDBRANCH  15  16
ENDBRANCH   1  15
TORSDOF 7
ENDMDL
MODEL 2
REMARK VINA RESULT:    -6.729      3.059      5.990
REMARK INTER + INTRA:         -10.622
REMARK INTER:                  -9.655
REMARK INTRA:                  -0.966
REMARK UNBOUND:                -1.140
REMARK  7 active torsions:
REMARK  status: ('A' for Active; 'I' for Inactive)
REMARK    1  A    between atoms: S_2  and  N_5 
REMARK    2  A    between atoms: N_5  and  C_7 
REMARK    3  A    between atoms: C_7  and  C_8 
REMARK    4  A    between atoms: C_8  and  C_9 
REMARK    5  A    between atoms: C_9  and  C_15 
REMARK    6  A    between atoms: C_15  and  C_16 
REMARK       I    between atoms: C_16  and  N_18 
REMARK    7  A    between atoms: N_18  and  C_20 
ROOT
HETATM    1  C   UNL     1       9.884  -0.857  23.557  1.00  0.00     0.068 C 
HETATM    2  C   UNL     1      11.224  -1.537  23.001  1.00  0.00     0.000 C 
HETATM    3  C   UNL     1      12.285  -1.308  23.328  1.00  0.00    -0.002 C 
HETATM    4  C   UNL     1      12.705  -0.341  24.225  1.00  0.00    -0.001 C 
HETATM    5  C   UNL     1      11.786   0.408  24.643  1.00  0.00    -0.002 C 
HETATM    6  C   UNL     1      10.660   0.462  24.486  1.00  0.00     0.000 C 
ENDROOT
BRANCH   1   7
HETATM    7  C   UNL     1       8.818  -0.483  22.901  1.00  0.00     0.135 C 
BRANCH   7   8
HETATM    8  C   UNL     1       8.014  -0.475  22.104  1.00  0.00    -0.058 C 
BRANCH   8   9
HETATM    9  N   UNL     1       7.255  -0.840  21.253  1.00  0.00    -0.254 N 
ATOM     10  HN  UNL     1       6.983  -1.823  21.263  1.00  0.00     0.188 HD
BRANCH   9  11
HETATM   11  S   UNL     1       6.615   0.095  20.079  1.00  0.00     0.233 S 
HETATM   12  C   UNL     1       6.161   1.469  20.775  1.00  0.00     0.186 C 
HETATM   13  O   UNL     1       7.642   0.397  19.098  1.00  0.00    -0.206 OA
HETATM   14  O   UNL     1       5.482  -0.535  19.453  1.00  0.00    -0.206 OA
ENDBRANCH   9  11
ENDBRANCH   8   9
ENDBRANCH   7   8
ENDBRANCH   1   7
BRANCH   1  15
HETATM   15  C   UNL     1       9.371  -1.493  24.464  1.00  0.00    -0.064 C 
BRANCH  15  16
HETATM   16  C   UNL     1       8.784  -2.286  25.371  1.00  0.00     0.290 C 
HETATM   17  O   UNL     1       8.619  -1.846  26.421  1.00  0.00    -0.259 OA
HETATM   18  N   UNL     1       8.523  -3.515  24.891  1.00  0.00    -0.317 N 
ATOM     19  HN  UNL     1       8.836  -3.779  23.957  1.00  0.00     0.169 HD
BRANCH  18  20
HETATM   20  C   UNL     1       7.908  -4.313  25.583  1.00  0.00     0.059 A 
HETATM   21  C   UNL     1       8.054  -5.175  26.577  1.00  0.00     0.155 A 
HETATM   22  N   UNL     1       7.721  -5.997  27.463  1.00  0.00    -0.400 N 
HETATM   23  C   UNL     1       6.539  -5.955  27.059  1.00  0.00     0.130 A 
ATOM     24  HN  UNL     1       8.212  -6.495  28.205  1.00  0.00     0.154 HD
HETATM   25  C   UNL     1       5.893  -5.354  26.223  1.00  0.00     0.026 A 
HETATM   26  C   UNL     1       6.298  -4.464  25.371  1.00  0.00     0.057 A 
HETATM   27 CL   UNL     1       5.576  -3.640  24.283  1.00  0.00    -0.082 Cl
ENDBRANCH  18  20
ENDBRANCH  15  16
ENDBRANCH   1  15
TORSDOF 7
ENDMDL
MODEL 3
REMARK VINA RESULT:    -6.589      2.336      4.576
REMARK INTER + INTRA:         -10.425
REMARK INTER:                  -9.368
REMARK INTRA:                  -1.057
REMARK UNBOUND:                -1.140
REMARK  7 active torsions:
REMARK  status: ('A' for Active; 'I' for Inactive)
REMARK    1  A    between atoms: S_2  and  N_5 
REMARK    2  A    between atoms: N_5  and  C_7 
REMARK    3  A    between atoms: C_7  and  C_8 
REMARK    4  A    between atoms: C_8  and  C_9 
REMARK    5  A    between atoms: C_9  and  C_15 
REMARK    6  A    between atoms: C_15  and  C_16 
REMARK       I    between atoms: C_16  and  N_18 
REMARK    7  A    between atoms: N_18  and  C_20 
ROOT
HETATM    1  C   UNL     1       7.506  -2.977  23.738  1.00  0.00     0.068 C 
HETATM    2  C   UNL     1       7.369  -4.528  23.359  1.00  0.00     0.000 C 
HETATM    3  C   UNL     1       6.422  -5.150  23.387  1.00  0.00    -0.002 C 
HETATM    4  C   UNL     1       5.166  -4.763  23.822  1.00  0.00    -0.001 C 
HETATM    5  C   UNL     1       5.125  -3.607  24.315  1.00  0.00    -0.002 C 
HETATM    6  C   UNL     1       5.882  -2.770  24.462  1.00  0.00     0.000 C 
ENDROOT
BRANCH   1   7
HETATM    7  C   UNL     1       8.458  -2.373  24.396  1.00  0.00     0.135 C 
BRANCH   7   8
HETATM    8  C   UNL     1       9.414  -1.797  24.584  1.00  0.00    -0.058 C 
BRANCH   8   9
HETATM    9  N   UNL     1      10.218  -0.909  24.621  1.00  0.00    -0.254 N 
ATOM     10  HN  UNL     1      10.173  -0.276  25.420  1.00  0.00     0.188 HD
BRANCH   9  11
HETATM   11  S   UNL     1      11.376  -0.622  23.510  1.00  0.00     0.233 S 
HETATM   12  C   UNL     1      12.711  -0.241  24.317  1.00  0.00     0.186 C 
HETATM   13  O   UNL     1      11.628  -1.839  22.759  1.00  0.00    -0.206 OA
HETATM   14  O   UNL     1      11.014   0.456  22.627  1.00  0.00    -0.206 OA
ENDBRANCH   9  11
ENDBRANCH   8   9
ENDBRANCH   7   8
ENDBRANCH   1   7
BRANCH   1  15
HETATM   15  C   UNL     1       7.410  -2.242  22.767  1.00  0.00    -0.064 C 
BRANCH  15  16
HETATM   16  C   UNL     1       7.424  -1.478  21.666  1.00  0.00     0.290 C 
HETATM   17  O   UNL     1       8.451  -1.133  21.282  1.00  0.00    -0.259 OA
HETATM   18  N   UNL     1       6.188  -1.202  21.214  1.00  0.00    -0.317 N 
ATOM     19  HN  UNL     1       5.368  -1.502  21.742  1.00  0.00     0.169 HD
BRANCH  18  20
HETATM   20  C   UNL     1       6.054  -0.589  20.165  1.00  0.00     0.059 A 
HETATM   21  C   UNL     1       5.895  -0.755  18.862  1.00  0.00     0.155 A 
HETATM   22  N   UNL     1       5.690  -0.443  17.665  1.00  0.00    -0.400 N 
HETATM   23  C   UNL     1       5.717   0.768  17.976  1.00  0.00     0.130 A 
ATOM     24  HN  UNL     1       5.558  -0.962  16.797  1.00  0.00     0.154 HD
HETATM   25  C   UNL     1       5.822   1.438  18.984  1.00  0.00     0.026 A 
HETATM   26  C   UNL     1       5.973   1.040  20.209  1.00  0.00     0.057 A 
HETATM   27 CL   UNL     1       6.107   1.790  21.553  1.00  0.00    -0.082 Cl
ENDBRANCH  18  20
ENDBRANCH  15  16
ENDBRANCH   1  15
TORSDOF 7
ENDMDL
MODEL 4
REMARK VINA RESULT:    -6.459      4.167      6.256
REMARK INTER + INTRA:         -10.241
REMARK INTER:                  -9.624
REMARK INTRA:                  -0.618
REMARK UNBOUND:                -1.140
REMARK  7 active torsions:
REMARK  status: ('A' for Active; 'I' for Inactive)
REMARK    1  A    between atoms: S_2  and  N_5 
REMARK    2  A    between atoms: N_5  and  C_7 
REMARK    3  A    between atoms: C_7  and  C_8 
REMARK    4  A    between atoms: C_8  and  C_9 
REMARK    5  A    between atoms: C_9  and  C_15 
REMARK    6  A    between atoms: C_15  and  C_16 
REMARK       I    between atoms: C_16  and  N_18 
REMARK    7  A    between atoms: N_18  and  C_20 
ROOT
HETATM    1  C   UNL     1       7.364  -4.778  24.029  1.00  0.00     0.068 C 
HETATM    2  C   UNL     1       7.610  -5.909  22.922  1.00  0.00     0.000 C 
HETATM    3  C   UNL     1       7.052  -6.031  21.943  1.00  0.00    -0.002 C 
HETATM    4  C   UNL     1       5.973  -5.294  21.486  1.00  0.00    -0.001 C 
HETATM    5  C   UNL     1       5.535  -4.454  22.313  1.00  0.00    -0.002 C 
HETATM    6  C   UNL     1       5.840  -4.122  23.358  1.00  0.00     0.000 C 
ENDROOT
BRANCH   1   7
HETATM    7  C   UNL     1       7.363  -4.887  25.331  1.00  0.00     0.135 C 
BRANCH   7   8
HETATM    8  C   UNL     1       7.651  -5.253  26.363  1.00  0.00    -0.058 C 
BRANCH   8   9
HETATM    9  N   UNL     1       7.657  -5.871  27.388  1.00  0.00    -0.254 N 
ATOM     10  HN  UNL     1       8.533  -6.321  27.654  1.00  0.00     0.188 HD
BRANCH   9  11
HETATM   11  S   UNL     1       6.391  -6.058  28.398  1.00  0.00     0.233 S 
HETATM   12  C   UNL     1       5.063  -5.821  27.528  1.00  0.00     0.186 C 
HETATM   13  O   UNL     1       6.375  -7.422  28.895  1.00  0.00    -0.206 OA
HETATM   14  O   UNL     1       6.434  -5.119  29.489  1.00  0.00    -0.206 OA
ENDBRANCH   9  11
ENDBRANCH   8   9
ENDBRANCH   7   8
ENDBRANCH   1   7
BRANCH   1  15
HETATM   15  C   UNL     1       8.099  -3.812  23.892  1.00  0.00    -0.064 C 
BRANCH  15  16
HETATM   16  C   UNL     1       8.845  -2.731  23.626  1.00  0.00     0.290 C 
HETATM   17  O   UNL     1       8.944  -2.422  22.523  1.00  0.00    -0.259 OA
HETATM   18  N   UNL     1       9.402  -2.204  24.730  1.00  0.00    -0.317 N 
ATOM     19  HN  UNL     1       9.298  -2.670  25.632  1.00  0.00     0.169 HD
BRANCH  18  20
HETATM   20  C   UNL     1      10.036  -1.162  24.646  1.00  0.00     0.059 A 
HETATM   21  C   UNL     1      11.234  -0.679  24.356  1.00  0.00     0.155 A 
HETATM   22  N   UNL     1      12.119   0.179  24.130  1.00  0.00    -0.400 N 
HETATM   23  C   UNL     1      11.316   1.089  24.430  1.00  0.00     0.130 A 
ATOM     24  HN  UNL     1      13.092   0.148  23.827  1.00  0.00     0.154 HD
HETATM   25  C   UNL     1      10.147   1.191  24.748  1.00  0.00     0.026 A 
HETATM   26  C   UNL     1       9.266   0.252  24.907  1.00  0.00     0.057 A 
HETATM   27 CL   UNL     1       7.771   0.264  25.295  1.00  0.00    -0.082 Cl
ENDBRANCH  18  20
ENDBRANCH  15  16
ENDBRANCH   1  15
TORSDOF 7
ENDMDL
MODEL 5
REMARK VINA RESULT:    -6.283      2.733      2.847
REMARK INTER + INTRA:          -9.993
REMARK INTER:                  -9.119
REMARK INTRA:                  -0.874
REMARK UNBOUND:                -1.140
REMARK  7 active torsions:
REMARK  status: ('A' for Active; 'I' for Inactive)
REMARK    1  A    between atoms: S_2  and  N_5 
REMARK    2  A    between atoms: N_5  and  C_7 
REMARK    3  A    between atoms: C_7  and  C_8 
REMARK    4  A    between atoms: C_8  and  C_9 
REMARK    5  A    between atoms: C_9  and  C_15 
REMARK    6  A    between atoms: C_15  and  C_16 
REMARK       I    between atoms: C_16  and  N_18 
REMARK    7  A    between atoms: N_18  and  C_20 
ROOT
HETATM    1  C   UNL     1       9.363  -1.373  24.527  1.00  0.00     0.068 C 
HETATM    2  C   UNL     1       9.798   0.004  25.220  1.00  0.00     0.000 C 
HETATM    3  C   UNL     1      10.647   0.684  24.902  1.00  0.00    -0.002 C 
HETATM    4  C   UNL     1      11.570   0.470  23.892  1.00  0.00    -0.001 C 
HETATM    5  C   UNL     1      11.478  -0.656  23.340  1.00  0.00    -0.002 C 
HETATM    6  C   UNL     1      10.781  -1.548  23.448  1.00  0.00     0.000 C 
ENDROOT
BRANCH   1   7
HETATM    7  C   UNL     1       8.984  -2.491  25.086  1.00  0.00     0.135 C 
BRANCH   7   8
HETATM    8  C   UNL     1       8.611  -3.203  25.883  1.00  0.00    -0.058 C 
BRANCH   8   9
HETATM    9  N   UNL     1       8.541  -4.134  26.632  1.00  0.00    -0.254 N 
ATOM     10  HN  UNL     1       9.402  -4.420  27.099  1.00  0.00     0.188 HD
BRANCH   9  11
HETATM   11  S   UNL     1       7.194  -4.987  26.973  1.00  0.00     0.233 S 
HETATM   12  C   UNL     1       6.059  -3.924  27.373  1.00  0.00     0.186 C 
HETATM   13  O   UNL     1       6.761  -5.691  25.780  1.00  0.00    -0.206 OA
HETATM   14  O   UNL     1       7.405  -5.908  28.060  1.00  0.00    -0.206 OA
ENDBRANCH   9  11
ENDBRANCH   8   9
ENDBRANCH   7   8
ENDBRANCH   1   7
BRANCH   1  15
HETATM   15  C   UNL     1       8.475  -1.229  23.702  1.00  0.00    -0.064 C 
BRANCH  15  16
HETATM   16  C   UNL     1       7.443  -0.988  22.881  1.00  0.00     0.290 C 
HETATM   17  O   UNL     1       6.392  -1.240  23.275  1.00  0.00    -0.259 OA
HETATM   18  N   UNL     1       7.833  -0.520  21.683  1.00  0.00    -0.317 N 
ATOM     19  HN  UNL     1       8.826  -0.455  21.455  1.00  0.00     0.169 HD
BRANCH  18  20
HETATM   20  C   UNL     1       6.991  -0.174  20.868  1.00  0.00     0.059 A 
HETATM   21  C   UNL     1       6.224  -0.629  19.889  1.00  0.00     0.155 A 
HETATM   22  N   UNL     1       5.337  -0.615  19.004  1.00  0.00    -0.400 N 
HETATM   23  C   UNL     1       5.164   0.608  19.195  1.00  0.00     0.130 A 
ATOM     24  HN  UNL     1       4.926  -1.313  18.384  1.00  0.00     0.154 HD
HETATM   25  C   UNL     1       5.582   1.472  19.941  1.00  0.00     0.026 A 
HETATM   26  C   UNL     1       6.468   1.370  20.883  1.00  0.00     0.057 A 
HETATM   27 CL   UNL     1       7.062   2.384  21.885  1.00  0.00    -0.082 Cl
ENDBRANCH  18  20
ENDBRANCH  15  16
ENDBRANCH   1  15
TORSDOF 7
ENDMDL
MODEL 6
REMARK VINA RESULT:    -6.166     15.100     16.154
REMARK INTER + INTRA:          -9.829
REMARK INTER:                  -8.842
REMARK INTRA:                  -0.987
REMARK UNBOUND:                -1.140
REMARK  7 active torsions:
REMARK  status: ('A' for Active; 'I' for Inactive)
REMARK    1  A    between atoms: S_2  and  N_5 
REMARK    2  A    between atoms: N_5  and  C_7 
REMARK    3  A    between atoms: C_7  and  C_8 
REMARK    4  A    between atoms: C_8  and  C_9 
REMARK    5  A    between atoms: C_9  and  C_15 
REMARK    6  A    between atoms: C_15  and  C_16 
REMARK       I    between atoms: C_16  and  N_18 
REMARK    7  A    between atoms: N_18  and  C_20 
ROOT
HETATM    1  C   UNL     1      23.222  -1.585  23.743  1.00  0.00     0.068 C 
HETATM    2  C   UNL     1      21.932  -1.084  24.549  1.00  0.00     0.000 C 
HETATM    3  C   UNL     1      21.730  -0.030  24.915  1.00  0.00    -0.002 C 
HETATM    4  C   UNL     1      22.566   1.070  24.833  1.00  0.00    -0.001 C 
HETATM    5  C   UNL     1      23.707   0.817  24.368  1.00  0.00    -0.002 C 
HETATM    6  C   UNL     1      24.217  -0.113  23.956  1.00  0.00     0.000 C 
ENDROOT
BRANCH   1   7
HETATM    7  C   UNL     1      23.893  -2.698  23.875  1.00  0.00     0.135 C 
BRANCH   7   8
HETATM    8  C   UNL     1      24.114  -3.809  23.866  1.00  0.00    -0.058 C 
BRANCH   8   9
HETATM    9  N   UNL     1      24.061  -4.980  24.112  1.00  0.00    -0.254 N 
ATOM     10  HN  UNL     1      24.053  -5.621  23.319  1.00  0.00     0.188 HD
BRANCH   9  11
HETATM   11  S   UNL     1      24.002  -5.640  25.602  1.00  0.00     0.233 S 
HETATM   12  C   UNL     1      25.392  -5.285  26.323  1.00  0.00     0.186 C 
HETATM   13  O   UNL     1      22.926  -5.023  26.355  1.00  0.00    -0.206 OA
HETATM   14  O   UNL     1      23.832  -7.069  25.546  1.00  0.00    -0.206 OA
ENDBRANCH   9  11
ENDBRANCH   8   9
ENDBRANCH   7   8
ENDBRANCH   1   7
BRANCH   1  15
HETATM   15  C   UNL     1      23.061  -1.569  22.533  1.00  0.00    -0.064 C 
BRANCH  15  16
HETATM   16  C   UNL     1      22.771  -1.614  21.225  1.00  0.00     0.290 C 
HETATM   17  O   UNL     1      21.688  -1.877  20.939  1.00  0.00    -0.259 OA
HETATM   18  N   UNL     1      23.843  -1.379  20.449  1.00  0.00    -0.317 N 
ATOM     19  HN  UNL     1      24.767  -1.267  20.869  1.00  0.00     0.169 HD
BRANCH  18  20
HETATM   20  C   UNL     1      23.704  -1.301  19.237  1.00  0.00     0.059 A 
HETATM   21  C   UNL     1      23.409  -0.454  18.264  1.00  0.00     0.155 A 
HETATM   22  N   UNL     1      23.251  -0.036  17.093  1.00  0.00    -0.400 N 
HETATM   23  C   UNL     1      23.477  -1.184  16.652  1.00  0.00     0.130 A 
ATOM     24  HN  UNL     1      23.029   0.867  16.674  1.00  0.00     0.154 HD
HETATM   25  C   UNL     1      23.790  -2.273  17.091  1.00  0.00     0.026 A 
HETATM   26  C   UNL     1      23.997  -2.621  18.324  1.00  0.00     0.057 A 
HETATM   27 CL   UNL     1      24.401  -3.954  18.989  1.00  0.00    -0.082 Cl
ENDBRANCH  18  20
ENDBRANCH  15  16
ENDBRANCH   1  15
TORSDOF 7
ENDMDL
MODEL 7
REMARK VINA RESULT:    -6.021      6.132      8.187
REMARK INTER + INTRA:          -9.624
REMARK INTER:                  -8.696
REMARK INTRA:                  -0.928
REMARK UNBOUND:                -1.140
REMARK  7 active torsions:
REMARK  status: ('A' for Active; 'I' for Inactive)
REMARK    1  A    between atoms: S_2  and  N_5 
REMARK    2  A    between atoms: N_5  and  C_7 
REMARK    3  A    between atoms: C_7  and  C_8 
REMARK    4  A    between atoms: C_8  and  C_9 
REMARK    5  A    between atoms: C_9  and  C_15 
REMARK    6  A    between atoms: C_15  and  C_16 
REMARK       I    between atoms: C_16  and  N_18 
REMARK    7  A    between atoms: N_18  and  C_20 
ROOT
HETATM    1  C   UNL     1       5.700  -5.283  24.245  1.00  0.00     0.068 C 
HETATM    2  C   UNL     1       5.291  -3.817  23.746  1.00  0.00     0.000 C 
HETATM    3  C   UNL     1       5.403  -3.404  22.697  1.00  0.00    -0.002 C 
HETATM    4  C   UNL     1       5.984  -4.018  21.601  1.00  0.00    -0.001 C 
HETATM    5  C   UNL     1       6.514  -5.130  21.855  1.00  0.00    -0.002 C 
HETATM    6  C   UNL     1       6.603  -5.783  22.783  1.00  0.00     0.000 C 
ENDROOT
BRANCH   1   7
HETATM    7  C   UNL     1       6.270  -5.642  25.365  1.00  0.00     0.135 C 
BRANCH   7   8
HETATM    8  C   UNL     1       6.429  -5.767  26.478  1.00  0.00    -0.058 C 
BRANCH   8   9
HETATM    9  N   UNL     1       6.962  -5.920  27.540  1.00  0.00    -0.254 N 
ATOM     10  HN  UNL     1       7.973  -5.784  27.575  1.00  0.00     0.188 HD
BRANCH   9  11
HETATM   11  S   UNL     1       6.218  -6.326  28.933  1.00  0.00     0.233 S 
HETATM   12  C   UNL     1       4.674  -6.587  28.576  1.00  0.00     0.186 C 
HETATM   13  O   UNL     1       6.787  -7.563  29.434  1.00  0.00    -0.206 OA
HETATM   14  O   UNL     1       6.322  -5.280  29.918  1.00  0.00    -0.206 OA
ENDBRANCH   9  11
ENDBRANCH   8   9
ENDBRANCH   7   8
ENDBRANCH   1   7
BRANCH   1  15
HETATM   15  C   UNL     1       4.769  -6.073  24.210  1.00  0.00    -0.064 C 
BRANCH  15  16
HETATM   16  C   UNL     1       3.717  -6.888  24.055  1.00  0.00     0.290 C 
HETATM   17  O   UNL     1       3.672  -7.818  24.730  1.00  0.00    -0.259 OA
HETATM   18  N   UNL     1       2.892  -6.485  23.072  1.00  0.00    -0.317 N 
ATOM     19  HN  UNL     1       3.139  -5.684  22.491  1.00  0.00     0.169 HD
BRANCH  18  20
HETATM   20  C   UNL     1       1.845  -7.086  22.881  1.00  0.00     0.059 A 
HETATM   21  C   UNL     1       1.318  -8.090  22.199  1.00  0.00     0.155 A 
HETATM   22  N   UNL     1       0.454  -8.922  21.833  1.00  0.00    -0.400 N 
HETATM   23  C   UNL     1      -0.396  -8.359  22.557  1.00  0.00     0.130 A 
ATOM     24  HN  UNL     1       0.448  -9.725  21.205  1.00  0.00     0.154 HD
HETATM   25  C   UNL     1      -0.437  -7.442  23.353  1.00  0.00     0.026 A 
HETATM   26  C   UNL     1       0.522  -6.653  23.731  1.00  0.00     0.057 A 
HETATM   27 CL   UNL     1       0.587  -5.476  24.728  1.00  0.00    -0.082 Cl
ENDBRANCH  18  20
ENDBRANCH  15  16
ENDBRANCH   1  15
TORSDOF 7
ENDMDL
MODEL 8
REMARK VINA RESULT:    -5.788     15.387     17.731
REMARK INTER + INTRA:          -9.296
REMARK INTER:                  -8.297
REMARK INTRA:                  -0.999
REMARK UNBOUND:                -1.140
REMARK  7 active torsions:
REMARK  status: ('A' for Active; 'I' for Inactive)
REMARK    1  A    between atoms: S_2  and  N_5 
REMARK    2  A    between atoms: N_5  and  C_7 
REMARK    3  A    between atoms: C_7  and  C_8 
REMARK    4  A    between atoms: C_8  and  C_9 
REMARK    5  A    between atoms: C_9  and  C_15 
REMARK    6  A    between atoms: C_15  and  C_16 
REMARK       I    between atoms: C_16  and  N_18 
REMARK    7  A    between atoms: N_18  and  C_20 
ROOT
HETATM    1  C   UNL     1      23.301  -2.243  24.880  1.00  0.00     0.068 C 
HETATM    2  C   UNL     1      23.498  -0.711  24.456  1.00  0.00     0.000 C 
HETATM    3  C   UNL     1      22.709   0.103  24.473  1.00  0.00    -0.002 C 
HETATM    4  C   UNL     1      21.366  -0.025  24.785  1.00  0.00    -0.001 C 
HETATM    5  C   UNL     1      20.995  -1.209  24.988  1.00  0.00    -0.002 C 
HETATM    6  C   UNL     1      21.516  -2.221  25.012  1.00  0.00     0.000 C 
ENDROOT
BRANCH   1   7
HETATM    7  C   UNL     1      23.775  -3.320  24.314  1.00  0.00     0.135 C 
BRANCH   7   8
HETATM    8  C   UNL     1      23.930  -4.420  24.095  1.00  0.00    -0.058 C 
BRANCH   8   9
HETATM    9  N   UNL     1      24.425  -5.509  24.043  1.00  0.00    -0.254 N 
ATOM     10  HN  UNL     1      24.900  -5.762  23.176  1.00  0.00     0.188 HD
BRANCH   9  11
HETATM   11  S   UNL     1      24.408  -6.625  25.232  1.00  0.00     0.233 S 
HETATM   12  C   UNL     1      25.924  -6.790  25.736  1.00  0.00     0.186 C 
HETATM   13  O   UNL     1      23.610  -6.129  26.339  1.00  0.00    -0.206 OA
HETATM   14  O   UNL     1      23.906  -7.892  24.769  1.00  0.00    -0.206 OA
ENDBRANCH   9  11
ENDBRANCH   8   9
ENDBRANCH   7   8
ENDBRANCH   1   7
BRANCH   1  15
HETATM   15  C   UNL     1      23.605  -2.456  26.044  1.00  0.00    -0.064 C 
BRANCH  15  16
HETATM   16  C   UNL     1      24.044  -2.614  27.300  1.00  0.00     0.290 C 
HETATM   17  O   UNL     1      24.924  -3.338  27.459  1.00  0.00    -0.259 OA
HETATM   18  N   UNL     1      23.327  -1.908  28.191  1.00  0.00    -0.317 N 
ATOM     19  HN  UNL     1      22.499  -1.392  27.891  1.00  0.00     0.169 HD
BRANCH  18  20
HETATM   20  C   UNL     1      23.673  -1.889  29.363  1.00  0.00     0.059 A 
HETATM   21  C   UNL     1      23.529  -2.528  30.513  1.00  0.00     0.155 A 
HETATM   22  N   UNL     1      23.727  -2.816  31.717  1.00  0.00    -0.400 N 
HETATM   23  C   UNL     1      24.486  -1.829  31.829  1.00  0.00     0.130 A 
ATOM     24  HN  UNL     1      23.403  -3.552  32.345  1.00  0.00     0.154 HD
HETATM   25  C   UNL     1      24.943  -0.957  31.117  1.00  0.00     0.026 A 
HETATM   26  C   UNL     1      24.737  -0.754  29.852  1.00  0.00     0.057 A 
HETATM   27 CL   UNL     1      25.263   0.302  28.855  1.00  0.00    -0.082 Cl
ENDBRANCH  18  20
ENDBRANCH  15  16
ENDBRANCH   1  15
TORSDOF 7
ENDMDL
MODEL 9
REMARK VINA RESULT:    -5.764     15.152     17.360
REMARK INTER + INTRA:          -9.263
REMARK INTER:                  -7.811
REMARK INTRA:                  -1.452
REMARK UNBOUND:                -1.140
REMARK  7 active torsions:
REMARK  status: ('A' for Active; 'I' for Inactive)
REMARK    1  A    between atoms: S_2  and  N_5 
REMARK    2  A    between atoms: N_5  and  C_7 
REMARK    3  A    between atoms: C_7  and  C_8 
REMARK    4  A    between atoms: C_8  and  C_9 
REMARK    5  A    between atoms: C_9  and  C_15 
REMARK    6  A    between atoms: C_15  and  C_16 
REMARK       I    between atoms: C_16  and  N_18 
REMARK    7  A    between atoms: N_18  and  C_20 
ROOT
HETATM    1  C   UNL     1      23.014  -1.251  23.114  1.00  0.00     0.068 C 
HETATM    2  C   UNL     1      23.377   0.154  23.793  1.00  0.00     0.000 C 
HETATM    3  C   UNL     1      22.847   0.638  24.670  1.00  0.00    -0.002 C 
HETATM    4  C   UNL     1      21.716   0.190  25.330  1.00  0.00    -0.001 C 
HETATM    5  C   UNL     1      21.192  -0.832  24.817  1.00  0.00    -0.002 C 
HETATM    6  C   UNL     1      21.449  -1.513  23.943  1.00  0.00     0.000 C 
ENDROOT
BRANCH   1   7
HETATM    7  C   UNL     1      23.000  -1.574  21.848  1.00  0.00     0.135 C 
BRANCH   7   8
HETATM    8  C   UNL     1      23.377  -1.936  20.844  1.00  0.00    -0.058 C 
BRANCH   8   9
HETATM    9  N   UNL     1      23.701  -2.658  19.945  1.00  0.00    -0.254 N 
ATOM     10  HN  UNL     1      23.354  -2.425  19.015  1.00  0.00     0.188 HD
BRANCH   9  11
HETATM   11  S   UNL     1      24.648  -3.979  20.075  1.00  0.00     0.233 S 
HETATM   12  C   UNL     1      24.731  -4.637  18.612  1.00  0.00     0.186 C 
HETATM   13  O   UNL     1      25.984  -3.571  20.470  1.00  0.00    -0.206 OA
HETATM   14  O   UNL     1      24.109  -4.933  21.009  1.00  0.00    -0.206 OA
ENDBRANCH   9  11
ENDBRANCH   8   9
ENDBRANCH   7   8
ENDBRANCH   1   7
BRANCH   1  15
HETATM   15  C   UNL     1      23.663  -2.180  23.569  1.00  0.00    -0.064 C 
BRANCH  15  16
HETATM   16  C   UNL     1      24.429  -3.211  23.950  1.00  0.00     0.290 C 
HETATM   17  O   UNL     1      25.559  -3.016  24.045  1.00  0.00    -0.259 OA
HETATM   18  N   UNL     1      23.725  -4.344  24.115  1.00  0.00    -0.317 N 
ATOM     19  HN  UNL     1      22.732  -4.371  23.882  1.00  0.00     0.169 HD
BRANCH  18  20
HETATM   20  C   UNL     1      24.283  -5.342  24.547  1.00  0.00     0.059 A 
HETATM   21  C   UNL     1      24.931  -6.433  24.169  1.00  0.00     0.155 A 
HETATM   22  N   UNL     1      25.599  -7.488  24.281  1.00  0.00    -0.400 N 
HETATM   23  C   UNL     1      25.504  -7.416  25.526  1.00  0.00     0.130 A 
ATOM     24  HN  UNL     1      26.037  -8.136  23.627  1.00  0.00     0.154 HD
HETATM   25  C   UNL     1      25.042  -6.654  26.352  1.00  0.00     0.026 A 
HETATM   26  C   UNL     1      24.409  -5.539  26.162  1.00  0.00     0.057 A 
HETATM   27 CL   UNL     1      23.793  -4.498  27.122  1.00  0.00    -0.082 Cl
ENDBRANCH  18  20
ENDBRANCH  15  16
ENDBRANCH   1  15
TORSDOF 7
ENDMDL
