REMARK  3 active torsions:
REMARK  status: ('A' for Active; 'I' for Inactive)
REMARK    1  A    between atoms: C_3  and  C_10 
REMARK       I    between atoms: N_5  and  C_10 
REMARK    2  A    between atoms: C_6  and  C_13 
REMARK    3  A    between atoms: C_6  and  O_9 
ROOT
HETATM    1  O   UNL     1       9.515   0.945  20.736  1.00  0.00    -0.222 OA
HETATM    2  S   UNL     1       9.445  -0.463  21.015  1.00  0.00     0.189 S 
HETATM    3  C   UNL     1       7.439  -0.298  22.597  1.00  0.00     0.120 C 
HETATM    4  C   UNL     1       7.763  -1.108  21.320  1.00  0.00     0.127 C 
HETATM    5  C   UNL     1       9.769  -0.626  22.826  1.00  0.00     0.126 C 
HETATM    6  C   UNL     1       7.664  -2.470  21.699  1.00  0.00     0.028 C 
HETATM    7  C   UNL     1       8.629  -0.463  23.465  1.00  0.00     0.023 C 
HETATM    8  O   UNL     1      10.150  -1.341  20.145  1.00  0.00    -0.222 OA
ENDROOT
BRANCH   3   9
HETATM    9  C   UNL     1       6.237  -0.972  23.245  1.00  0.00     0.224 C 
HETATM   10  N   UNL     1       5.079  -0.721  22.595  1.00  0.00    -0.370 N 
HETATM   11  H   UNL     1       5.173  -0.557  21.617  1.00  0.00     0.159 HD
HETATM   12  H   UNL     1       4.240  -0.800  23.117  1.00  0.00     0.159 HD
HETATM   13  O   UNL     1       6.304  -1.665  24.210  1.00  0.00    -0.273 OA
ENDBRANCH   3   9
BRANCH   5  14
HETATM   14  C   UNL     1      10.776  -1.001  23.515  1.00  0.00     0.024 C 
BRANCH  14  15
HETATM   15  O   UNL     1      11.445  -1.574  24.231  1.00  0.00    -0.314 OA
HETATM   16  C   UNL     1      12.699  -1.821  23.573  1.00  0.00     0.222 C 
ENDBRANCH  14  15
ENDBRANCH   5  14
TORSDOF 3
