stable:False satoms:18 tatoms:24 sratio:0.75
  -OEChem-07092417283D

 24 24  0     1  0  0  0  0  0999 V2000
    9.5147    0.9452   20.7362 O   0  0  0  0  0  0  0  0  0  0  0  0
   13.4484   -1.3147   24.1542 H   0  0  0  0  0  0  0  0  0  0  0  0
    9.4449   -0.4628   21.0150 S   0  0  0  0  0  0  0  0  0  0  0  0
    7.4393   -0.2983   22.5972 C   0  0  1  0  0  0  0  0  0  0  0  0
    7.7631   -1.1078   21.3199 C   0  0  2  0  0  0  0  0  0  0  0  0
    6.7595   -3.0255   21.5586 H   0  0  0  0  0  0  0  0  0  0  0  0
    5.0793   -0.7212   22.5952 N   0  0  0  0  0  0  0  0  0  0  0  0
   10.7762   -1.0008   23.5151 C   0  0  0  0  0  0  0  0  0  0  0  0
    6.3040   -1.6653   24.2098 O   0  0  0  0  0  0  0  0  0  0  0  0
    5.1735   -0.5567   21.6172 H   0  0  0  0  0  0  0  0  0  0  0  0
   11.4446   -1.5742   24.2312 O   0  0  0  0  0  0  0  0  0  0  0  0
    6.2374   -0.9718   23.2454 C   0  0  0  0  0  0  0  0  0  0  0  0
    7.2624    0.7465   22.3600 H   0  0  0  0  0  0  0  0  0  0  0  0
    8.4641   -2.9162   22.2226 H   0  0  0  0  0  0  0  0  0  0  0  0
   12.6990   -1.8206   23.5727 C   0  0  0  0  0  0  0  0  0  0  0  0
    7.1645   -0.8998   20.4346 H   0  0  0  0  0  0  0  0  0  0  0  0
   12.7419   -1.4902   22.5463 H   0  0  0  0  0  0  0  0  0  0  0  0
   12.8629   -2.8878   23.5944 H   0  0  0  0  0  0  0  0  0  0  0  0
    4.2405   -0.7997   23.1175 H   0  0  0  0  0  0  0  0  0  0  0  0
    9.7687   -0.6256   22.8263 C   0  0  0  0  0  0  0  0  0  0  0  0
    7.6639   -2.4699   21.6987 C   0  5  0  0  0  0  0  0  0  0  0  0
    8.5525   -0.5686   24.5190 H   0  0  0  0  0  0  0  0  0  0  0  0
    8.6293   -0.4631   23.4646 C   0  5  3  0  0  0  0  0  0  0  0  0
   10.1496   -1.3411   20.1451 O   0  0  0  0  0  0  0  0  0  0  0  0
  3 24  2  0  0  0  0
  5 16  1  0  0  0  0
  1  3  2  0  0  0  0
  3  5  1  0  0  0  0
  3 20  1  0  0  0  0
  5 21  1  0  0  0  0
  4  5  1  0  0  0  0
  6 21  1  0  0  0  0
  7 10  1  0  0  0  0
 14 21  1  0  0  0  0
  4 13  1  0  0  0  0
 15 17  1  0  0  0  0
  7 19  1  0  0  0  0
  7 12  1  0  0  0  0
  4 12  1  0  0  0  0
  4 23  1  0  0  0  0
 20 23  1  0  0  0  0
  8 20  2  3  0  0  0
  9 12  2  0  0  0  0
 22 23  1  0  0  0  0
  8 11  1  0  0  0  0
 15 18  1  0  0  0  0
  2 15  1  0  0  0  0
 11 15  1  0  0  0  0
M  CHG  2  21  -1  23  -1
M  END
> <Shapegauss>
-106.100922

$$$$
