MODEL 1
REMARK VINA RESULT:    -4.783      0.000      0.000
REMARK INTER + INTRA:          -5.249
REMARK INTER:                  -5.622
REMARK INTRA:                   0.373
REMARK UNBOUND:                 0.373
REMARK  3 active torsions:
REMARK  status: ('A' for Active; 'I' for Inactive)
REMARK    1  A    between atoms: C_3  and  C_10 
REMARK       I    between atoms: N_5  and  C_10 
REMARK    2  A    between atoms: C_6  and  C_13 
REMARK    3  A    between atoms: C_6  and  O_9 
ROOT
HETATM    1  O   UNL     1      10.289   3.720  23.815  1.00  0.00    -0.222 OA
HETATM    2  S   UNL     1       9.647   2.474  24.134  1.00  0.00     0.189 S 
HETATM    3  C   UNL     1      11.714   1.022  23.713  1.00  0.00     0.120 C 
HETATM    4  C   UNL     1      10.735   1.218  24.894  1.00  0.00     0.127 C 
HETATM    5  C   UNL     1       9.691   1.481  22.578  1.00  0.00     0.126 C 
HETATM    6  C   UNL     1      10.164  -0.058  25.129  1.00  0.00     0.028 C 
HETATM    7  C   UNL     1      10.846   0.850  22.524  1.00  0.00     0.023 C 
HETATM    8  O   UNL     1       8.411   2.533  24.836  1.00  0.00    -0.222 OA
ENDROOT
BRANCH   3   9
HETATM    9  C   UNL     1      12.469  -0.271  23.985  1.00  0.00     0.224 C 
HETATM   10  N   UNL     1      12.077  -1.288  23.187  1.00  0.00    -0.370 N 
HETATM   11  H   UNL     1      11.736  -1.013  22.292  1.00  0.00     0.159 HD
HETATM   12  H   UNL     1      12.233  -2.210  23.517  1.00  0.00     0.159 HD
HETATM   13  O   UNL     1      13.331  -0.379  24.799  1.00  0.00    -0.273 OA
ENDBRANCH   3   9
BRANCH   5  14
HETATM   14  C   UNL     1       8.820   1.181  21.694  1.00  0.00     0.024 C 
BRANCH  14  15
HETATM   15  O   UNL     1       8.155   1.214  20.775  1.00  0.00    -0.314 OA
HETATM   16  C   UNL     1       8.116  -0.103  20.201  1.00  0.00     0.222 C 
ENDBRANCH  14  15
ENDBRANCH   5  14
TORSDOF 3
ENDMDL
MODEL 2
REMARK VINA RESULT:    -4.747     23.613     25.340
REMARK INTER + INTRA:          -5.206
REMARK INTER:                  -5.546
REMARK INTRA:                   0.340
REMARK UNBOUND:                 0.373
REMARK  3 active torsions:
REMARK  status: ('A' for Active; 'I' for Inactive)
REMARK    1  A    between atoms: C_3  and  C_10 
REMARK       I    between atoms: N_5  and  C_10 
REMARK    2  A    between atoms: C_6  and  C_13 
REMARK    3  A    between atoms: C_6  and  O_9 
ROOT
HETATM    1  O   UNL     1      11.332  14.895   3.546  1.00  0.00    -0.222 OA
HETATM    2  S   UNL     1       9.964  14.492   3.368  1.00  0.00     0.189 S 
HETATM    3  C   UNL     1       9.219  16.657   2.223  1.00  0.00     0.120 C 
HETATM    4  C   UNL     1       9.151  15.152   1.871  1.00  0.00     0.127 C 
HETATM    5  C   UNL     1       8.963  15.684   4.362  1.00  0.00     0.126 C 
HETATM    6  C   UNL     1       7.773  14.861   1.715  1.00  0.00     0.028 C 
HETATM    7  C   UNL     1       8.727  16.745   3.618  1.00  0.00     0.023 C 
HETATM    8  O   UNL     1       9.662  13.109   3.513  1.00  0.00    -0.222 OA
ENDROOT
BRANCH   3   9
HETATM    9  C   UNL     1       8.244  17.365   1.292  1.00  0.00     0.224 C 
HETATM   10  N   UNL     1       8.737  17.536   0.045  1.00  0.00    -0.370 N 
HETATM   11  H   UNL     1       9.393  16.845  -0.246  1.00  0.00     0.159 HD
HETATM   12  H   UNL     1       8.353  18.271  -0.497  1.00  0.00     0.159 HD
HETATM   13  O   UNL     1       7.154  17.715   1.613  1.00  0.00    -0.273 OA
ENDBRANCH   3   9
BRANCH   5  14
HETATM   14  C   UNL     1       8.363  15.615   5.487  1.00  0.00     0.024 C 
BRANCH  14  15
HETATM   15  O   UNL     1       7.870  15.215   6.428  1.00  0.00    -0.314 OA
HETATM   16  C   UNL     1       8.189  16.102   7.513  1.00  0.00     0.222 C 
ENDBRANCH  14  15
ENDBRANCH   5  14
TORSDOF 3
ENDMDL
MODEL 3
REMARK VINA RESULT:    -4.634      2.619      4.287
REMARK INTER + INTRA:          -5.073
REMARK INTER:                  -5.338
REMARK INTRA:                   0.265
REMARK UNBOUND:                 0.373
REMARK  3 active torsions:
REMARK  status: ('A' for Active; 'I' for Inactive)
REMARK    1  A    between atoms: C_3  and  C_10 
REMARK       I    between atoms: N_5  and  C_10 
REMARK    2  A    between atoms: C_6  and  C_13 
REMARK    3  A    between atoms: C_6  and  O_9 
ROOT
HETATM    1  O   UNL     1      12.784  -0.030  24.819  1.00  0.00    -0.222 OA
HETATM    2  S   UNL     1      11.768  -0.294  23.838  1.00  0.00     0.189 S 
HETATM    3  C   UNL     1      10.476   1.881  24.234  1.00  0.00     0.120 C 
HETATM    4  C   UNL     1      11.098   1.185  23.000  1.00  0.00     0.127 C 
HETATM    5  C   UNL     1      10.184  -0.400  24.782  1.00  0.00     0.126 C 
HETATM    6  C   UNL     1      10.023   0.975  22.101  1.00  0.00     0.028 C 
HETATM    7  C   UNL     1       9.704   0.819  24.921  1.00  0.00     0.023 C 
HETATM    8  O   UNL     1      12.026  -1.316  22.882  1.00  0.00    -0.222 OA
ENDROOT
BRANCH   3   9
HETATM    9  C   UNL     1       9.523   2.941  23.699  1.00  0.00     0.224 C 
HETATM   10  N   UNL     1      10.161   4.037  23.233  1.00  0.00    -0.370 N 
HETATM   11  H   UNL     1      11.075   3.870  22.875  1.00  0.00     0.159 HD
HETATM   12  H   UNL     1       9.648   4.885  23.211  1.00  0.00     0.159 HD
HETATM   13  O   UNL     1       8.339   2.817  23.672  1.00  0.00    -0.273 OA
ENDBRANCH   3   9
BRANCH   5  14
HETATM   14  C   UNL     1       9.437  -1.367  25.153  1.00  0.00     0.024 C 
BRANCH  14  15
HETATM   15  O   UNL     1       8.766  -2.282  25.143  1.00  0.00    -0.314 OA
HETATM   16  C   UNL     1       8.879  -2.907  23.853  1.00  0.00     0.222 C 
ENDBRANCH  14  15
ENDBRANCH   5  14
TORSDOF 3
ENDMDL
MODEL 4
REMARK VINA RESULT:    -4.598      2.727      3.103
REMARK INTER + INTRA:          -5.031
REMARK INTER:                  -5.333
REMARK INTRA:                   0.302
REMARK UNBOUND:                 0.373
REMARK  3 active torsions:
REMARK  status: ('A' for Active; 'I' for Inactive)
REMARK    1  A    between atoms: C_3  and  C_10 
REMARK       I    between atoms: N_5  and  C_10 
REMARK    2  A    between atoms: C_6  and  C_13 
REMARK    3  A    between atoms: C_6  and  O_9 
ROOT
HETATM    1  O   UNL     1      10.397   1.849  21.440  1.00  0.00    -0.222 OA
HETATM    2  S   UNL     1       9.045   1.556  21.831  1.00  0.00     0.189 S 
HETATM    3  C   UNL     1       9.512  -0.862  22.529  1.00  0.00     0.120 C 
HETATM    4  C   UNL     1       8.879   0.372  23.213  1.00  0.00     0.127 C 
HETATM    5  C   UNL     1       8.480   0.215  20.695  1.00  0.00     0.126 C 
HETATM    6  C   UNL     1       7.562  -0.019  23.559  1.00  0.00     0.028 C 
HETATM    7  C   UNL     1       8.855  -0.941  21.202  1.00  0.00     0.023 C 
HETATM    8  O   UNL     1       8.166   2.657  22.029  1.00  0.00    -0.222 OA
ENDROOT
BRANCH   3   9
HETATM    9  C   UNL     1       9.117  -2.072  23.366  1.00  0.00     0.224 C 
HETATM   10  N   UNL     1       8.520  -3.042  22.640  1.00  0.00    -0.370 N 
HETATM   11  H   UNL     1       8.800  -3.086  21.685  1.00  0.00     0.159 HD
HETATM   12  H   UNL     1       7.926  -3.670  23.125  1.00  0.00     0.159 HD
HETATM   13  O   UNL     1       9.328  -2.169  24.533  1.00  0.00    -0.273 OA
ENDBRANCH   3   9
BRANCH   5  14
HETATM   14  C   UNL     1       7.711   0.183  19.676  1.00  0.00     0.024 C 
BRANCH  14  15
HETATM   15  O   UNL     1       7.244   0.402  18.665  1.00  0.00    -0.314 OA
HETATM   16  C   UNL     1       5.928  -0.175  18.644  1.00  0.00     0.222 C 
ENDBRANCH  14  15
ENDBRANCH   5  14
TORSDOF 3
ENDMDL
MODEL 5
REMARK VINA RESULT:    -4.576     14.819     15.934
REMARK INTER + INTRA:          -5.005
REMARK INTER:                  -5.305
REMARK INTRA:                   0.300
REMARK UNBOUND:                 0.373
REMARK  3 active torsions:
REMARK  status: ('A' for Active; 'I' for Inactive)
REMARK    1  A    between atoms: C_3  and  C_10 
REMARK       I    between atoms: N_5  and  C_10 
REMARK    2  A    between atoms: C_6  and  C_13 
REMARK    3  A    between atoms: C_6  and  O_9 
ROOT
HETATM    1  O   UNL     1      22.504  -1.132  18.967  1.00  0.00    -0.222 OA
HETATM    2  S   UNL     1      23.896  -1.235  18.626  1.00  0.00     0.189 S 
HETATM    3  C   UNL     1      23.533  -1.144  16.093  1.00  0.00     0.120 C 
HETATM    4  C   UNL     1      24.388  -0.348  17.107  1.00  0.00     0.127 C 
HETATM    5  C   UNL     1      24.058  -2.814  17.682  1.00  0.00     0.126 C 
HETATM    6  C   UNL     1      25.730  -0.511  16.682  1.00  0.00     0.028 C 
HETATM    7  C   UNL     1      23.787  -2.568  16.417  1.00  0.00     0.023 C 
HETATM    8  O   UNL     1      24.846  -0.992  19.658  1.00  0.00    -0.222 OA
ENDROOT
BRANCH   3   9
HETATM    9  C   UNL     1      24.090  -0.827  14.712  1.00  0.00     0.224 C 
HETATM   10  N   UNL     1      23.811   0.432  14.308  1.00  0.00    -0.370 N 
HETATM   11  H   UNL     1      23.715   1.098  15.043  1.00  0.00     0.159 HD
HETATM   12  H   UNL     1      23.805   0.604  13.332  1.00  0.00     0.159 HD
HETATM   13  O   UNL     1      24.723  -1.594  14.059  1.00  0.00    -0.273 OA
ENDBRANCH   3   9
BRANCH   5  14
HETATM   14  C   UNL     1      24.509  -3.974  17.967  1.00  0.00     0.024 C 
BRANCH  14  15
HETATM   15  O   UNL     1      24.582  -5.049  18.324  1.00  0.00    -0.314 OA
HETATM   16  C   UNL     1      24.127  -5.102  19.687  1.00  0.00     0.222 C 
ENDBRANCH  14  15
ENDBRANCH   5  14
TORSDOF 3
ENDMDL
MODEL 6
REMARK VINA RESULT:    -4.541      5.273      6.637
REMARK INTER + INTRA:          -4.965
REMARK INTER:                  -5.263
REMARK INTRA:                   0.299
REMARK UNBOUND:                 0.373
REMARK  3 active torsions:
REMARK  status: ('A' for Active; 'I' for Inactive)
REMARK    1  A    between atoms: C_3  and  C_10 
REMARK       I    between atoms: N_5  and  C_10 
REMARK    2  A    between atoms: C_6  and  C_13 
REMARK    3  A    between atoms: C_6  and  O_9 
ROOT
HETATM    1  O   UNL     1       8.730  -5.414  25.112  1.00  0.00    -0.222 OA
HETATM    2  S   UNL     1       8.113  -4.135  25.331  1.00  0.00     0.189 S 
HETATM    3  C   UNL     1       6.666  -4.199  23.220  1.00  0.00     0.120 C 
HETATM    4  C   UNL     1       6.394  -3.993  24.728  1.00  0.00     0.127 C 
HETATM    5  C   UNL     1       8.634  -3.083  23.904  1.00  0.00     0.126 C 
HETATM    6  C   UNL     1       5.788  -2.716  24.833  1.00  0.00     0.028 C 
HETATM    7  C   UNL     1       7.798  -3.295  22.909  1.00  0.00     0.023 C 
HETATM    8  O   UNL     1       8.219  -3.568  26.632  1.00  0.00    -0.222 OA
ENDROOT
BRANCH   3   9
HETATM    9  C   UNL     1       5.418  -3.727  22.486  1.00  0.00     0.224 C 
HETATM   10  N   UNL     1       5.639  -2.635  21.721  1.00  0.00    -0.370 N 
HETATM   11  H   UNL     1       6.567  -2.550  21.367  1.00  0.00     0.159 HD
HETATM   12  H   UNL     1       4.858  -2.063  21.511  1.00  0.00     0.159 HD
HETATM   13  O   UNL     1       4.361  -4.268  22.556  1.00  0.00    -0.273 OA
ENDBRANCH   3   9
BRANCH   5  14
HETATM   14  C   UNL     1       9.484  -2.141  23.763  1.00  0.00     0.024 C 
BRANCH  14  15
HETATM   15  O   UNL     1      10.389  -1.470  23.901  1.00  0.00    -0.314 OA
HETATM   16  C   UNL     1      11.192  -1.549  22.711  1.00  0.00     0.222 C 
ENDBRANCH  14  15
ENDBRANCH   5  14
TORSDOF 3
ENDMDL
MODEL 7
REMARK VINA RESULT:    -4.527      2.882      3.900
REMARK INTER + INTRA:          -4.948
REMARK INTER:                  -5.301
REMARK INTRA:                   0.353
REMARK UNBOUND:                 0.373
REMARK  3 active torsions:
REMARK  status: ('A' for Active; 'I' for Inactive)
REMARK    1  A    between atoms: C_3  and  C_10 
REMARK       I    between atoms: N_5  and  C_10 
REMARK    2  A    between atoms: C_6  and  C_13 
REMARK    3  A    between atoms: C_6  and  O_9 
ROOT
HETATM    1  O   UNL     1       8.300   0.144  19.448  1.00  0.00    -0.222 OA
HETATM    2  S   UNL     1       7.851   0.232  20.811  1.00  0.00     0.189 S 
HETATM    3  C   UNL     1      10.059   1.141  21.735  1.00  0.00     0.120 C 
HETATM    4  C   UNL     1       8.582   1.599  21.778  1.00  0.00     0.127 C 
HETATM    5  C   UNL     1       8.923  -0.933  21.762  1.00  0.00     0.126 C 
HETATM    6  C   UNL     1       8.243   1.656  23.153  1.00  0.00     0.028 C 
HETATM    7  C   UNL     1      10.024  -0.294  22.104  1.00  0.00     0.023 C 
HETATM    8  O   UNL     1       6.449   0.168  21.046  1.00  0.00    -0.222 OA
ENDROOT
BRANCH   3   9
HETATM    9  C   UNL     1      10.789   1.928  22.816  1.00  0.00     0.224 C 
HETATM   10  N   UNL     1      10.833   3.254  22.562  1.00  0.00    -0.370 N 
HETATM   11  H   UNL     1      10.068   3.606  22.029  1.00  0.00     0.159 HD
HETATM   12  H   UNL     1      11.563   3.773  22.986  1.00  0.00     0.159 HD
HETATM   13  O   UNL     1      11.256   1.437  23.794  1.00  0.00    -0.273 OA
ENDBRANCH   3   9
BRANCH   5  14
HETATM   14  C   UNL     1       8.746  -2.096  22.256  1.00  0.00     0.024 C 
BRANCH  14  15
HETATM   15  O   UNL     1       8.632  -2.955  22.989  1.00  0.00    -0.314 OA
HETATM   16  C   UNL     1       7.503  -3.746  22.582  1.00  0.00     0.222 C 
ENDBRANCH  14  15
ENDBRANCH   5  14
TORSDOF 3
ENDMDL
MODEL 8
REMARK VINA RESULT:    -4.518     12.059     13.650
REMARK INTER + INTRA:          -4.937
REMARK INTER:                  -5.270
REMARK INTRA:                   0.333
REMARK UNBOUND:                 0.373
REMARK  3 active torsions:
REMARK  status: ('A' for Active; 'I' for Inactive)
REMARK    1  A    between atoms: C_3  and  C_10 
REMARK       I    between atoms: N_5  and  C_10 
REMARK    2  A    between atoms: C_6  and  C_13 
REMARK    3  A    between atoms: C_6  and  O_9 
ROOT
HETATM    1  O   UNL     1      24.380  -0.917  23.015  1.00  0.00    -0.222 OA
HETATM    2  S   UNL     1      23.091  -1.330  23.497  1.00  0.00     0.189 S 
HETATM    3  C   UNL     1      23.476  -0.561  25.909  1.00  0.00     0.120 C 
HETATM    4  C   UNL     1      22.397  -0.294  24.833  1.00  0.00     0.127 C 
HETATM    5  C   UNL     1      23.430  -2.630  24.765  1.00  0.00     0.126 C 
HETATM    6  C   UNL     1      21.176  -0.730  25.405  1.00  0.00     0.028 C 
HETATM    7  C   UNL     1      23.649  -2.033  25.919  1.00  0.00     0.023 C 
HETATM    8  O   UNL     1      22.086  -1.610  22.530  1.00  0.00    -0.222 OA
ENDROOT
BRANCH   3   9
HETATM    9  C   UNL     1      22.886  -0.107  27.237  1.00  0.00     0.224 C 
HETATM   10  N   UNL     1      22.586  -1.137  28.059  1.00  0.00    -0.370 N 
HETATM   11  H   UNL     1      23.154  -1.946  27.943  1.00  0.00     0.159 HD
HETATM   12  H   UNL     1      21.895  -0.977  28.751  1.00  0.00     0.159 HD
HETATM   13  O   UNL     1      22.723   1.033  27.536  1.00  0.00    -0.273 OA
ENDBRANCH   3   9
BRANCH   5  14
HETATM   14  C   UNL     1      23.338  -3.903  24.775  1.00  0.00     0.024 C 
BRANCH  14  15
HETATM   15  O   UNL     1      23.287  -4.987  24.442  1.00  0.00    -0.314 OA
HETATM   16  C   UNL     1      23.726  -5.812  25.534  1.00  0.00     0.222 C 
ENDBRANCH  14  15
ENDBRANCH   5  14
TORSDOF 3
ENDMDL
MODEL 9
REMARK VINA RESULT:    -4.496      5.030      6.126
REMARK INTER + INTRA:          -4.911
REMARK INTER:                  -5.180
REMARK INTRA:                   0.268
REMARK UNBOUND:                 0.373
REMARK  3 active torsions:
REMARK  status: ('A' for Active; 'I' for Inactive)
REMARK    1  A    between atoms: C_3  and  C_10 
REMARK       I    between atoms: N_5  and  C_10 
REMARK    2  A    between atoms: C_6  and  C_13 
REMARK    3  A    between atoms: C_6  and  O_9 
ROOT
HETATM    1  O   UNL     1       5.779  -1.661  24.447  1.00  0.00    -0.222 OA
HETATM    2  S   UNL     1       6.761  -2.520  23.845  1.00  0.00     0.189 S 
HETATM    3  C   UNL     1       7.180  -3.920  25.948  1.00  0.00     0.120 C 
HETATM    4  C   UNL     1       6.787  -4.232  24.485  1.00  0.00     0.127 C 
HETATM    5  C   UNL     1       8.325  -2.214  24.779  1.00  0.00     0.126 C 
HETATM    6  C   UNL     1       7.809  -5.079  23.990  1.00  0.00     0.028 C 
HETATM    7  C   UNL     1       8.329  -2.989  25.844  1.00  0.00     0.023 C 
HETATM    8  O   UNL     1       6.842  -2.533  22.425  1.00  0.00    -0.222 OA
ENDROOT
BRANCH   3   9
HETATM    9  C   UNL     1       7.643  -5.234  26.562  1.00  0.00     0.224 C 
HETATM   10  N   UNL     1       8.959  -5.238  26.867  1.00  0.00    -0.370 N 
HETATM   11  H   UNL     1       9.342  -4.346  27.092  1.00  0.00     0.159 HD
HETATM   12  H   UNL     1       9.409  -6.120  26.921  1.00  0.00     0.159 HD
HETATM   13  O   UNL     1       6.923  -6.158  26.775  1.00  0.00    -0.273 OA
ENDBRANCH   3   9
BRANCH   5  14
HETATM   14  C   UNL     1       9.396  -1.567  24.524  1.00  0.00     0.024 C 
BRANCH  14  15
HETATM   15  O   UNL     1      10.473  -1.313  24.272  1.00  0.00    -0.314 OA
HETATM   16  C   UNL     1      10.727  -1.728  22.919  1.00  0.00     0.222 C 
ENDBRANCH  14  15
ENDBRANCH   5  14
TORSDOF 3
ENDMDL
