MODEL 1
REMARK VINA RESULT:    -6.344      0.000      0.000
REMARK INTER + INTRA:          -7.093
REMARK INTER:                  -6.901
REMARK INTRA:                  -0.193
REMARK UNBOUND:                -0.193
REMARK  2 active torsions:
REMARK  status: ('A' for Active; 'I' for Inactive)
REMARK    1  A    between atoms: C_1  and  O_18 
REMARK    2  A    between atoms: C_7  and  C_12 
REMARK       I    between atoms: C_12  and  N_14 
ROOT
HETATM    1  C   UNL     1      -0.025 -17.644   9.801  1.00  0.00     0.593 C 
HETATM    2  O   UNL     1      -1.208 -17.942   6.383  1.00  0.00    -0.270 OA
HETATM    3  N   UNL     1       0.836 -15.574   9.281  1.00  0.00    -0.259 N 
ATOM      4  HN  UNL     1       1.323 -14.683   9.368  1.00  0.00     0.190 HD
HETATM    5  H   UNL     1       1.686 -16.793  10.780  1.00  0.00     0.207 HD
HETATM    6  C   UNL     1      -0.244 -19.348   8.163  1.00  0.00     0.256 C 
HETATM    7  N   UNL     1      -0.473 -17.115   8.417  1.00  0.00    -0.085 N 
HETATM    8  N   UNL     1       1.000 -16.595  10.071  1.00  0.00    -0.130 N 
HETATM    9  C   UNL     1       1.818 -19.323   9.640  1.00  0.00     0.280 C 
HETATM   10  N   UNL     1       0.564 -18.877   9.276  1.00  0.00    -0.136 N 
HETATM   11 CL   UNL     1      -0.689 -14.789   7.113  1.00  0.00    -0.042 Cl
HETATM   12  C   UNL     1      -0.099 -15.879   8.309  1.00  0.00     0.221 C 
HETATM   13  C   UNL     1      -0.752 -18.079   7.482  1.00  0.00     0.265 C 
HETATM   14  O   UNL     1       2.524 -18.701  10.402  1.00  0.00    -0.266 OA
ENDROOT
BRANCH   1  15
HETATM   15  O   UNL     1      -0.870 -17.781  10.680  1.00  0.00    -0.233 OA
ATOM     16  HO2 UNL     1      -0.577 -17.969  11.639  1.00  0.00     0.175 HD
ATOM     17  HO1 UNL     1      -1.856 -17.703  10.427  1.00  0.00     0.175 HD
ENDBRANCH   1  15
BRANCH   9  18
HETATM   18  C   UNL     1       2.274 -20.603   9.024  1.00  0.00     0.073 A 
HETATM   19  S   UNL     1       1.683 -22.224   9.516  1.00  0.00    -0.097 SA
HETATM   20  C   UNL     1       2.635 -22.975   8.395  1.00  0.00     0.050 A 
HETATM   21  C   UNL     1       3.456 -22.094   7.743  1.00  0.00     0.009 A 
HETATM   22  C   UNL     1       3.213 -20.715   8.069  1.00  0.00     0.025 A 
ENDBRANCH   9  18
TORSDOF 2
ENDMDL
MODEL 2
REMARK VINA RESULT:    -6.197     35.138     37.081
REMARK INTER + INTRA:          -6.934
REMARK INTER:                  -6.768
REMARK INTRA:                  -0.165
REMARK UNBOUND:                -0.193
REMARK  2 active torsions:
REMARK  status: ('A' for Active; 'I' for Inactive)
REMARK    1  A    between atoms: C_1  and  O_18 
REMARK    2  A    between atoms: C_7  and  C_12 
REMARK       I    between atoms: C_12  and  N_14 
ROOT
HETATM    1  C   UNL     1      11.029  17.300   5.084  1.00  0.00     0.593 C 
HETATM    2  O   UNL     1       8.649  19.700   3.762  1.00  0.00    -0.270 OA
HETATM    3  N   UNL     1      12.716  18.440   4.012  1.00  0.00    -0.259 N 
ATOM      4  HN  UNL     1      13.641  18.690   3.663  1.00  0.00     0.190 HD
HETATM    5  H   UNL     1      12.835  16.367   4.395  1.00  0.00     0.207 HD
HETATM    6  C   UNL     1       8.807  17.289   4.249  1.00  0.00     0.256 C 
HETATM    7  N   UNL     1      10.584  18.662   4.499  1.00  0.00    -0.085 N 
HETATM    8  N   UNL     1      12.374  17.261   4.443  1.00  0.00    -0.130 N 
HETATM    9  C   UNL     1      10.352  15.368   3.651  1.00  0.00     0.280 C 
HETATM   10  N   UNL     1      10.036  16.519   4.345  1.00  0.00    -0.136 N 
HETATM   11 CL   UNL     1      11.666  20.980   3.719  1.00  0.00    -0.042 Cl
HETATM   12  C   UNL     1      11.637  19.301   4.096  1.00  0.00     0.221 C 
HETATM   13  C   UNL     1       9.263  18.742   4.139  1.00  0.00     0.265 C 
HETATM   14  O   UNL     1      11.486  14.948   3.590  1.00  0.00    -0.266 OA
ENDROOT
BRANCH   1  15
HETATM   15  O   UNL     1      11.031  17.155   6.303  1.00  0.00    -0.233 OA
ATOM     16  HO2 UNL     1      10.294  17.582   6.864  1.00  0.00     0.175 HD
ATOM     17  HO1 UNL     1      11.778  16.606   6.729  1.00  0.00     0.175 HD
ENDBRANCH   1  15
BRANCH   9  18
HETATM   18  C   UNL     1       9.226  14.680   2.956  1.00  0.00     0.073 A 
HETATM   19  S   UNL     1       8.195  13.422   3.711  1.00  0.00    -0.097 SA
HETATM   20  C   UNL     1       7.294  13.253   2.337  1.00  0.00     0.050 A 
HETATM   21  C   UNL     1       7.786  14.005   1.304  1.00  0.00     0.009 A 
HETATM   22  C   UNL     1       8.873  14.870   1.673  1.00  0.00     0.025 A 
ENDBRANCH   9  18
TORSDOF 2
ENDMDL
MODEL 3
REMARK VINA RESULT:    -5.965     22.606     24.019
REMARK INTER + INTRA:          -6.680
REMARK INTER:                  -6.492
REMARK INTRA:                  -0.188
REMARK UNBOUND:                -0.193
REMARK  2 active torsions:
REMARK  status: ('A' for Active; 'I' for Inactive)
REMARK    1  A    between atoms: C_1  and  O_18 
REMARK    2  A    between atoms: C_7  and  C_12 
REMARK       I    between atoms: C_12  and  N_14 
ROOT
HETATM    1  C   UNL     1       8.942  -0.099  23.648  1.00  0.00     0.593 C 
HETATM    2  O   UNL     1      11.823  -1.704  22.132  1.00  0.00    -0.270 OA
HETATM    3  N   UNL     1      10.123   0.075  25.616  1.00  0.00    -0.259 N 
ATOM      4  HN  UNL     1      10.352   0.275  26.589  1.00  0.00     0.190 HD
HETATM    5  H   UNL     1       8.018  -0.083  25.585  1.00  0.00     0.207 HD
HETATM    6  C   UNL     1       9.363  -1.842  22.093  1.00  0.00     0.256 C 
HETATM    7  N   UNL     1      10.443  -0.448  23.504  1.00  0.00    -0.085 N 
HETATM    8  N   UNL     1       8.917  -0.025  25.137  1.00  0.00    -0.130 N 
HETATM    9  C   UNL     1       7.489  -2.127  23.780  1.00  0.00     0.280 C 
HETATM   10  N   UNL     1       8.468  -1.388  23.145  1.00  0.00    -0.136 N 
HETATM   11 CL   UNL     1      12.755  -0.004  24.775  1.00  0.00    -0.042 Cl
HETATM   12  C   UNL     1      11.046  -0.133  24.607  1.00  0.00     0.221 C 
HETATM   13  C   UNL     1      10.744  -1.347  22.513  1.00  0.00     0.265 C 
HETATM   14  O   UNL     1       6.980  -1.760  24.815  1.00  0.00    -0.266 OA
ENDROOT
BRANCH   1  15
HETATM   15  O   UNL     1       8.512   0.897  23.072  1.00  0.00    -0.233 OA
ATOM     16  HO2 UNL     1       7.598   1.271  23.324  1.00  0.00     0.175 HD
ATOM     17  HO1 UNL     1       9.086   1.329  22.349  1.00  0.00     0.175 HD
ENDBRANCH   1  15
BRANCH   9  18
HETATM   18  C   UNL     1       7.107  -3.418  23.137  1.00  0.00     0.073 A 
HETATM   19  S   UNL     1       5.887  -3.571  21.833  1.00  0.00    -0.097 SA
HETATM   20  C   UNL     1       6.106  -5.205  21.740  1.00  0.00     0.050 A 
HETATM   21  C   UNL     1       6.963  -5.665  22.704  1.00  0.00     0.009 A 
HETATM   22  C   UNL     1       7.582  -4.627  23.482  1.00  0.00     0.025 A 
ENDBRANCH   9  18
TORSDOF 2
ENDMDL
MODEL 4
REMARK VINA RESULT:    -5.964     33.699     35.802
REMARK INTER + INTRA:          -6.679
REMARK INTER:                  -6.500
REMARK INTRA:                  -0.179
REMARK UNBOUND:                -0.193
REMARK  2 active torsions:
REMARK  status: ('A' for Active; 'I' for Inactive)
REMARK    1  A    between atoms: C_1  and  O_18 
REMARK    2  A    between atoms: C_7  and  C_12 
REMARK       I    between atoms: C_12  and  N_14 
ROOT
HETATM    1  C   UNL     1       9.147  14.636   2.716  1.00  0.00     0.593 C 
HETATM    2  O   UNL     1       6.047  15.378   4.452  1.00  0.00    -0.270 OA
HETATM    3  N   UNL     1       8.993  12.460   3.451  1.00  0.00    -0.259 N 
ATOM      4  HN  UNL     1       9.220  11.481   3.620  1.00  0.00     0.190 HD
HETATM    5  H   UNL     1      10.853  13.378   3.059  1.00  0.00     0.207 HD
HETATM    6  C   UNL     1       8.216  16.436   3.952  1.00  0.00     0.256 C 
HETATM    7  N   UNL     1       7.785  14.296   3.370  1.00  0.00    -0.085 N 
HETATM    8  N   UNL     1       9.847  13.375   3.095  1.00  0.00    -0.130 N 
HETATM    9  C   UNL     1      10.672  15.879   4.256  1.00  0.00     0.280 C 
HETATM   10  N   UNL     1       9.450  15.738   3.630  1.00  0.00    -0.136 N 
HETATM   11 CL   UNL     1       6.287  12.152   3.927  1.00  0.00    -0.042 Cl
HETATM   12  C   UNL     1       7.732  13.016   3.567  1.00  0.00     0.221 C 
HETATM   13  C   UNL     1       7.144  15.350   3.970  1.00  0.00     0.265 C 
HETATM   14  O   UNL     1      11.565  15.075   4.106  1.00  0.00    -0.266 OA
ENDROOT
BRANCH   1  15
HETATM   15  O   UNL     1       9.174  14.904   1.519  1.00  0.00    -0.233 OA
ATOM     16  HO2 UNL     1       9.502  14.207   0.851  1.00  0.00     0.175 HD
ATOM     17  HO1 UNL     1       8.863  15.828   1.218  1.00  0.00     0.175 HD
ENDBRANCH   1  15
BRANCH   9  18
HETATM   18  C   UNL     1      10.829  17.061   5.152  1.00  0.00     0.073 A 
HETATM   19  S   UNL     1      10.364  17.081   6.884  1.00  0.00    -0.097 SA
HETATM   20  C   UNL     1      10.859  18.647   7.058  1.00  0.00     0.050 A 
HETATM   21  C   UNL     1      11.254  19.198   5.868  1.00  0.00     0.009 A 
HETATM   22  C   UNL     1      11.285  18.267   4.773  1.00  0.00     0.025 A 
ENDBRANCH   9  18
TORSDOF 2
ENDMDL
MODEL 5
REMARK VINA RESULT:    -5.943     36.355     38.531
REMARK INTER + INTRA:          -6.657
REMARK INTER:                  -6.503
REMARK INTRA:                  -0.154
REMARK UNBOUND:                -0.193
REMARK  2 active torsions:
REMARK  status: ('A' for Active; 'I' for Inactive)
REMARK    1  A    between atoms: C_1  and  O_18 
REMARK    2  A    between atoms: C_7  and  C_12 
REMARK       I    between atoms: C_12  and  N_14 
ROOT
HETATM    1  C   UNL     1       8.684  16.384   2.263  1.00  0.00     0.593 C 
HETATM    2  O   UNL     1       9.595  17.729   5.508  1.00  0.00    -0.270 OA
HETATM    3  N   UNL     1      10.460  14.929   2.410  1.00  0.00    -0.259 N 
ATOM      4  HN  UNL     1      11.138  14.206   2.168  1.00  0.00     0.190 HD
HETATM    5  H   UNL     1       9.731  15.618   0.553  1.00  0.00     0.207 HD
HETATM    6  C   UNL     1       8.715  18.500   3.339  1.00  0.00     0.256 C 
HETATM    7  N   UNL     1       9.348  16.355   3.660  1.00  0.00    -0.085 N 
HETATM    8  N   UNL     1       9.713  15.567   1.558  1.00  0.00    -0.130 N 
HETATM    9  C   UNL     1       9.394  18.354   0.899  1.00  0.00     0.280 C 
HETATM   10  N   UNL     1       8.879  17.821   2.064  1.00  0.00    -0.136 N 
HETATM   11 CL   UNL     1      10.891  14.742   5.135  1.00  0.00    -0.042 Cl
HETATM   12  C   UNL     1      10.196  15.376   3.692  1.00  0.00     0.221 C 
HETATM   13  C   UNL     1       9.258  17.521   4.377  1.00  0.00     0.265 C 
HETATM   14  O   UNL     1       9.742  17.655  -0.026  1.00  0.00    -0.266 OA
ENDROOT
BRANCH   1  15
HETATM   15  O   UNL     1       7.532  15.976   2.150  1.00  0.00    -0.233 OA
ATOM     16  HO2 UNL     1       7.314  15.007   2.381  1.00  0.00     0.175 HD
ATOM     17  HO1 UNL     1       6.813  16.623   1.826  1.00  0.00     0.175 HD
ENDBRANCH   1  15
BRANCH   9  18
HETATM   18  C   UNL     1       9.524  19.839   0.846  1.00  0.00     0.073 A 
HETATM   19  S   UNL     1       8.251  20.940   0.229  1.00  0.00    -0.097 SA
HETATM   20  C   UNL     1       9.175  22.274   0.533  1.00  0.00     0.050 A 
HETATM   21  C   UNL     1      10.429  21.942   0.971  1.00  0.00     0.009 A 
HETATM   22  C   UNL     1      10.617  20.535   1.201  1.00  0.00     0.025 A 
ENDBRANCH   9  18
TORSDOF 2
ENDMDL
MODEL 6
REMARK VINA RESULT:    -5.941     23.943     25.415
REMARK INTER + INTRA:          -6.654
REMARK INTER:                  -6.474
REMARK INTRA:                  -0.180
REMARK UNBOUND:                -0.193
REMARK  2 active torsions:
REMARK  status: ('A' for Active; 'I' for Inactive)
REMARK    1  A    between atoms: C_1  and  O_18 
REMARK    2  A    between atoms: C_7  and  C_12 
REMARK       I    between atoms: C_12  and  N_14 
ROOT
HETATM    1  C   UNL     1       9.813   0.592  22.000  1.00  0.00     0.593 C 
HETATM    2  O   UNL     1      12.573   0.677  24.356  1.00  0.00    -0.270 OA
HETATM    3  N   UNL     1       9.279   2.746  22.607  1.00  0.00    -0.259 N 
ATOM      4  HN  UNL     1       8.790   3.639  22.664  1.00  0.00     0.190 HD
HETATM    5  H   UNL     1       7.820   1.385  21.918  1.00  0.00     0.207 HD
HETATM    6  C   UNL     1      10.878  -0.899  23.509  1.00  0.00     0.256 C 
HETATM    7  N   UNL     1      10.886   1.272  22.885  1.00  0.00    -0.085 N 
HETATM    8  N   UNL     1       8.765   1.641  22.150  1.00  0.00    -0.130 N 
HETATM    9  C   UNL     1       8.352  -0.973  23.288  1.00  0.00     0.280 C 
HETATM   10  N   UNL     1       9.606  -0.538  22.906  1.00  0.00    -0.136 N 
HETATM   11 CL   UNL     1      11.669   3.732  23.585  1.00  0.00    -0.042 Cl
HETATM   12  C   UNL     1      10.585   2.527  23.004  1.00  0.00     0.221 C 
HETATM   13  C   UNL     1      11.626   0.422  23.667  1.00  0.00     0.265 C 
HETATM   14  O   UNL     1       7.341  -0.422  22.913  1.00  0.00    -0.266 OA
ENDROOT
BRANCH   1  15
HETATM   15  O   UNL     1      10.101   0.308  20.840  1.00  0.00    -0.233 OA
ATOM     16  HO2 UNL     1       9.489  -0.306  20.303  1.00  0.00     0.175 HD
ATOM     17  HO1 UNL     1      10.953   0.700  20.438  1.00  0.00     0.175 HD
ENDBRANCH   1  15
BRANCH   9  18
HETATM   18  C   UNL     1       8.306  -2.144  24.210  1.00  0.00     0.073 A 
HETATM   19  S   UNL     1       8.378  -2.022  25.998  1.00  0.00    -0.097 SA
HETATM   20  C   UNL     1       8.263  -3.660  26.173  1.00  0.00     0.050 A 
HETATM   21  C   UNL     1       8.284  -4.309  24.967  1.00  0.00     0.009 A 
HETATM   22  C   UNL     1       8.257  -3.432  23.828  1.00  0.00     0.025 A 
ENDBRANCH   9  18
TORSDOF 2
ENDMDL
MODEL 7
REMARK VINA RESULT:    -5.940     23.002     24.089
REMARK INTER + INTRA:          -6.653
REMARK INTER:                  -6.488
REMARK INTRA:                  -0.165
REMARK UNBOUND:                -0.193
REMARK  2 active torsions:
REMARK  status: ('A' for Active; 'I' for Inactive)
REMARK    1  A    between atoms: C_1  and  O_18 
REMARK    2  A    between atoms: C_7  and  C_12 
REMARK       I    between atoms: C_12  and  N_14 
ROOT
HETATM    1  C   UNL     1       9.482  -1.174  22.420  1.00  0.00     0.593 C 
HETATM    2  O   UNL     1       6.491  -2.665  23.836  1.00  0.00    -0.270 OA
HETATM    3  N   UNL     1       9.883  -0.152  24.442  1.00  0.00    -0.259 N 
ATOM      4  HN  UNL     1      10.313   0.431  25.159  1.00  0.00     0.190 HD
HETATM    5  H   UNL     1      10.526   0.691  22.616  1.00  0.00     0.207 HD
HETATM    6  C   UNL     1       7.280  -1.705  21.708  1.00  0.00     0.256 C 
HETATM    7  N   UNL     1       8.569  -1.680  23.563  1.00  0.00    -0.085 N 
HETATM    8  N   UNL     1      10.080  -0.028  23.161  1.00  0.00    -0.130 N 
HETATM    9  C   UNL     1       8.334   0.466  20.924  1.00  0.00     0.280 C 
HETATM   10  N   UNL     1       8.376  -0.763  21.554  1.00  0.00    -0.136 N 
HETATM   11 CL   UNL     1       8.533  -1.763  26.237  1.00  0.00    -0.042 Cl
HETATM   12  C   UNL     1       9.003  -1.191  24.682  1.00  0.00     0.221 C 
HETATM   13  C   UNL     1       7.336  -2.135  23.172  1.00  0.00     0.265 C 
HETATM   14  O   UNL     1       9.205   1.293  21.074  1.00  0.00    -0.266 OA
ENDROOT
BRANCH   1  15
HETATM   15  O   UNL     1      10.292  -1.953  21.926  1.00  0.00    -0.233 OA
ATOM     16  HO2 UNL     1      10.425  -2.875  22.340  1.00  0.00     0.175 HD
ATOM     17  HO1 UNL     1      10.819  -1.655  21.105  1.00  0.00     0.175 HD
ENDBRANCH   1  15
BRANCH   9  18
HETATM   18  C   UNL     1       7.143   0.733  20.067  1.00  0.00     0.073 A 
HETATM   19  S   UNL     1       5.701   1.654  20.605  1.00  0.00    -0.097 SA
HETATM   20  C   UNL     1       4.967   1.476  19.136  1.00  0.00     0.050 A 
HETATM   21  C   UNL     1       5.689   0.672  18.294  1.00  0.00     0.009 A 
HETATM   22  C   UNL     1       6.973   0.283  18.812  1.00  0.00     0.025 A 
ENDBRANCH   9  18
TORSDOF 2
ENDMDL
MODEL 8
REMARK VINA RESULT:    -5.861     32.842     34.932
REMARK INTER + INTRA:          -6.568
REMARK INTER:                  -6.368
REMARK INTRA:                  -0.199
REMARK UNBOUND:                -0.193
REMARK  2 active torsions:
REMARK  status: ('A' for Active; 'I' for Inactive)
REMARK    1  A    between atoms: C_1  and  O_18 
REMARK    2  A    between atoms: C_7  and  C_12 
REMARK       I    between atoms: C_12  and  N_14 
ROOT
HETATM    1  C   UNL     1       9.560  15.089   2.275  1.00  0.00     0.593 C 
HETATM    2  O   UNL     1       8.184  17.199   4.888  1.00  0.00    -0.270 OA
HETATM    3  N   UNL     1       9.320  16.834   0.794  1.00  0.00    -0.259 N 
ATOM      4  HN  UNL     1       9.325  17.371  -0.073  1.00  0.00     0.190 HD
HETATM    5  H   UNL     1       9.236  14.819   0.170  1.00  0.00     0.207 HD
HETATM    6  C   UNL     1       8.131  14.847   4.155  1.00  0.00     0.256 C 
HETATM    7  N   UNL     1       9.198  16.433   2.952  1.00  0.00    -0.085 N 
HETATM    8  N   UNL     1       9.350  15.535   0.868  1.00  0.00    -0.130 N 
HETATM    9  C   UNL     1       7.589  13.573   2.028  1.00  0.00     0.280 C 
HETATM   10  N   UNL     1       8.404  14.368   2.809  1.00  0.00    -0.136 N 
HETATM   11 CL   UNL     1       9.322  19.056   2.439  1.00  0.00    -0.042 Cl
HETATM   12  C   UNL     1       9.280  17.375   2.065  1.00  0.00     0.221 C 
HETATM   13  C   UNL     1       8.495  16.329   4.125  1.00  0.00     0.265 C 
HETATM   14  O   UNL     1       7.768  13.447   0.838  1.00  0.00    -0.266 OA
ENDROOT
BRANCH   1  15
HETATM   15  O   UNL     1      10.659  14.592   2.503  1.00  0.00    -0.233 OA
ATOM     16  HO2 UNL     1      11.303  14.414   1.733  1.00  0.00     0.175 HD
ATOM     17  HO1 UNL     1      10.903  14.368   3.468  1.00  0.00     0.175 HD
ENDBRANCH   1  15
BRANCH   9  18
HETATM   18  C   UNL     1       6.455  12.897   2.723  1.00  0.00     0.073 A 
HETATM   19  S   UNL     1       6.608  11.364   3.641  1.00  0.00    -0.097 SA
HETATM   20  C   UNL     1       5.004  11.371   4.034  1.00  0.00     0.050 A 
HETATM   21  C   UNL     1       4.331  12.398   3.428  1.00  0.00     0.009 A 
HETATM   22  C   UNL     1       5.178  13.312   2.710  1.00  0.00     0.025 A 
ENDBRANCH   9  18
TORSDOF 2
ENDMDL
MODEL 9
REMARK VINA RESULT:    -5.824     23.951     25.606
REMARK INTER + INTRA:          -6.528
REMARK INTER:                  -6.343
REMARK INTRA:                  -0.185
REMARK UNBOUND:                -0.193
REMARK  2 active torsions:
REMARK  status: ('A' for Active; 'I' for Inactive)
REMARK    1  A    between atoms: C_1  and  O_18 
REMARK    2  A    between atoms: C_7  and  C_12 
REMARK       I    between atoms: C_12  and  N_14 
ROOT
HETATM    1  C   UNL     1      10.278  -1.421  22.582  1.00  0.00     0.593 C 
HETATM    2  O   UNL     1       7.407  -0.294  20.669  1.00  0.00    -0.270 OA
HETATM    3  N   UNL     1       8.904  -2.882  23.711  1.00  0.00    -0.259 N 
ATOM      4  HN  UNL     1       8.581  -3.585  24.374  1.00  0.00     0.190 HD
HETATM    5  H   UNL     1      10.640  -2.071  24.596  1.00  0.00     0.207 HD
HETATM    6  C   UNL     1       9.459   0.618  21.685  1.00  0.00     0.256 C 
HETATM    7  N   UNL     1       8.863  -1.543  21.967  1.00  0.00    -0.085 N 
HETATM    8  N   UNL     1       9.998  -2.188  23.829  1.00  0.00    -0.130 N 
HETATM    9  C   UNL     1      10.551   0.635  23.974  1.00  0.00     0.280 C 
HETATM   10  N   UNL     1      10.199   0.025  22.787  1.00  0.00    -0.136 N 
HETATM   11 CL   UNL     1       6.802  -3.248  21.952  1.00  0.00    -0.042 Cl
HETATM   12  C   UNL     1       8.244  -2.521  22.550  1.00  0.00     0.221 C 
HETATM   13  C   UNL     1       8.411  -0.427  21.310  1.00  0.00     0.265 C 
HETATM   14  O   UNL     1      10.925  -0.000  24.935  1.00  0.00    -0.266 OA
ENDROOT
BRANCH   1  15
HETATM   15  O   UNL     1      11.238  -1.823  21.931  1.00  0.00    -0.233 OA
ATOM     16  HO2 UNL     1      11.082  -2.346  21.070  1.00  0.00     0.175 HD
ATOM     17  HO1 UNL     1      12.179  -1.620  22.271  1.00  0.00     0.175 HD
ENDBRANCH   1  15
BRANCH   9  18
HETATM   18  C   UNL     1      10.424   2.121  24.024  1.00  0.00     0.073 A 
HETATM   19  S   UNL     1       8.946   2.988  24.553  1.00  0.00    -0.097 SA
HETATM   20  C   UNL     1       9.654   4.460  24.315  1.00  0.00     0.050 A 
HETATM   21  C   UNL     1      10.900   4.348  23.758  1.00  0.00     0.009 A 
HETATM   22  C   UNL     1      11.368   2.994  23.635  1.00  0.00     0.025 A 
ENDBRANCH   9  18
TORSDOF 2
ENDMDL
