stable:False satoms:20 tatoms:24 sratio:0.8333333333333334
  -OEChem-07092417293D

 24 26  0     1  0  0  0  0  0999 V2000
    8.0604    0.6979   23.5711 C   0  0  2  0  0  0  0  0  0  0  0  0
    8.6259   -4.8279   21.2505 C   0  0  0  0  0  0  0  0  0  0  0  0
    8.0630    1.2096   19.9781 O   0  0  0  0  0  0  0  0  0  0  0  0
    9.8470    2.1383   23.7388 N   0  0  0  0  0  0  0  0  0  0  0  0
    9.4377   -5.1286   22.3111 C   0  0  0  0  0  0  0  0  0  0  0  0
    8.9689   -2.9436   22.8263 C   0  0  0  0  0  0  0  0  0  0  0  0
    9.5414    0.5709   25.1201 H   0  0  0  0  0  0  0  0  0  0  0  0
    7.6801   -0.5917   21.6150 C   0  0  0  0  0  0  0  0  0  0  0  0
    8.3682    1.4611   22.2599 N   0  0  0  0  0  0  0  0  0  0  0  0
   10.3288   -4.0763   24.0541 H   0  0  0  0  0  0  0  0  0  0  0  0
    8.2322   -1.1845   20.8701 H   0  0  0  0  0  0  0  0  0  0  0  0
    9.2838    1.1147   24.3133 N   0  0  0  0  0  0  0  0  0  0  0  0
    8.9361   -1.6418   23.5529 C   0  0  0  0  0  0  0  0  0  0  0  0
    9.6778   -4.0234   23.1979 C   0  0  0  0  0  0  0  0  0  0  0  0
    8.1951   -0.6306   22.9736 N   0  0  0  0  0  0  0  0  0  0  0  0
    9.6201    3.6850   21.4588 Cl  0  0  0  0  0  0  0  0  0  0  0  0
    9.2507    2.3753   22.5137 C   0  0  3  0  0  0  0  0  0  0  0  0
    8.0250    0.8047   21.1054 C   0  0  0  0  0  0  0  0  0  0  0  0
    8.4019   -5.4646   20.4099 H   0  0  0  0  0  0  0  0  0  0  0  0
    7.0009    0.9253   24.1493 O   0  0  0  0  0  0  0  0  0  0  0  0
    8.0022   -3.3028   21.3587 S   0  0  0  0  0  0  0  0  0  0  0  0
    9.5465   -1.4781   24.5858 O   0  0  0  0  0  0  0  0  0  0  0  0
    9.8637   -6.1048   22.4417 H   0  0  0  0  0  0  0  0  0  0  0  0
    6.6265   -0.8743   21.6406 H   0  0  0  0  0  0  0  0  0  0  0  0
  3 18  2  0  0  0  0
  2 19  1  0  0  0  0
  8 11  1  0  0  0  0
  8 18  1  0  0  0  0
  9 18  1  0  0  0  0
  2 21  1  0  0  0  0
  2  5  2  0  0  0  0
  6 21  1  0  0  0  0
 16 17  1  0  0  0  0
  8 24  1  0  0  0  0
  8 15  1  0  0  0  0
  9 17  1  0  0  0  0
  1  9  1  0  0  0  0
  5 23  1  0  0  0  0
  5 14  1  0  0  0  0
  4 17  1  0  0  0  0
  6 14  2  0  0  0  0
  6 13  1  0  0  0  0
 13 15  1  0  0  0  0
  1 15  1  0  0  0  0
 10 14  1  0  0  0  0
 13 22  2  0  0  0  0
  1 20  1  0  0  0  0
  1 12  1  0  0  0  0
  4 12  1  0  0  0  0
  7 12  1  0  0  0  0
M  END
> <Shapegauss>
-120.269966

$$$$
