stable:False satoms:16 tatoms:24 sratio:0.6666666666666666
  -OEChem-07092417373D

 24 23  0     0  0  0  0  0  0999 V2000
    6.8623   -4.7403   26.4400 O   0  0  0  0  0  0  0  0  0  0  0  0
    8.2788   -4.1772   26.2081 S   0  0  0  0  0  0  0  0  0  0  0  0
    9.2244   -5.2761   26.1149 O   0  0  0  0  0  0  0  0  0  0  0  0
    8.7364   -3.2256   27.1973 O   0  5  0  0  0  0  0  0  0  0  0  0
    8.1507   -3.4877   24.7929 N   0  0  0  0  0  0  0  0  0  0  0  0
    8.7642   -2.5934   24.3019 C   0  0  0  0  0  0  0  0  0  0  0  0
    9.1922   -1.6754   23.6605 C   0  0  0  0  0  0  0  0  0  0  0  0
   11.0374   -1.1413   22.6996 C   0  0  0  0  0  0  0  0  0  0  0  0
   11.5330   -0.3994   24.5899 H   0  0  0  0  0  0  0  0  0  0  0  0
   12.0626   -0.6556   23.6796 C   0  0  0  0  0  0  0  0  0  0  0  0
   12.6098    0.2031   23.3103 H   0  0  0  0  0  0  0  0  0  0  0  0
   12.8139   -1.4295   23.7764 H   0  0  0  0  0  0  0  0  0  0  0  0
   11.4607   -1.6832   21.8789 H   0  0  0  0  0  0  0  0  0  0  0  0
    9.7241   -0.9690   22.7085 C   0  0  0  0  0  0  0  0  0  0  0  0
    8.9750   -0.1054   21.5710 C   0  0  0  0  0  0  0  0  0  0  0  0
    9.5538    0.8774   21.2130 O   0  0  0  0  0  0  0  0  0  0  0  0
    7.7942   -0.4848   21.0772 N   0  0  0  0  0  0  0  0  0  0  0  0
    6.0230    0.6054   19.6783 C   0  0  0  0  0  0  0  0  0  0  0  0
    7.0925   -0.1654   18.0592 H   0  0  0  0  0  0  0  0  0  0  0  0
    6.3484    0.4404   18.2817 N   0  0  0  0  0  0  0  0  0  0  0  0
    5.7116    0.9963   17.7138 H   0  0  0  0  0  0  0  0  0  0  0  0
    4.9247    1.1956   19.7592 O   0  0  0  0  0  0  0  0  0  0  0  0
    6.6702    0.1907   20.8424 C   0  3  0  0  0  0  0  0  0  0  0  0
    6.0402    0.4104   21.7419 H   0  0  0  0  0  0  0  0  0  0  0  0
 20 21  1  0  0  0  0
 19 20  1  0  0  0  0
 18 20  1  0  0  0  0
 18 22  2  0  0  0  0
 18 23  1  0  0  0  0
 17 23  1  0  0  0  0
 23 24  1  0  0  0  0
 15 17  1  0  0  0  0
 15 16  2  0  0  0  0
 14 15  1  0  0  0  0
  8 13  1  0  0  0  0
  8 14  2  3  0  0  0
  8 10  1  0  0  0  0
  7 14  1  0  0  0  0
 10 11  1  0  0  0  0
  6  7  3  0  0  0  0
 10 12  1  0  0  0  0
  9 10  1  0  0  0  0
  5  6  1  0  0  0  0
  2  5  1  0  0  0  0
  2  3  2  0  0  0  0
  1  2  2  0  0  0  0
  2  4  1  0  0  0  0
M  CHG  2   4  -1  23   1
M  END
> <Shapegauss>
-201.769180

$$$$
