MODEL 1
REMARK VINA RESULT:    -6.056      0.000      0.000
REMARK INTER + INTRA:          -8.142
REMARK INTER:                  -7.826
REMARK INTRA:                  -0.316
REMARK UNBOUND:                -0.316
REMARK  5 active torsions:
REMARK  status: ('A' for Active; 'I' for Inactive)
REMARK    1  A    between atoms: S_2  and  N_5 
REMARK    2  A    between atoms: N_5  and  C_7 
REMARK    3  A    between atoms: C_8  and  C_11 
REMARK    4  A    between atoms: C_11  and  C_12 
REMARK       I    between atoms: C_12  and  N_14 
REMARK       I    between atoms: C_16  and  N_18 
REMARK    5  A    between atoms: C_16  and  C_21 
ROOT
HETATM    1  C   UNL     1       5.529  12.206   2.353  1.00  0.00    -0.005 C 
HETATM    2  C   UNL     1       4.907  13.409   2.998  1.00  0.00     0.037 C 
HETATM    3  C   UNL     1       6.216  11.220   2.909  1.00  0.00     0.083 C 
ENDROOT
BRANCH   3   4
HETATM    4  C   UNL     1       7.378  11.652   3.293  1.00  0.00    -0.038 C 
HETATM    5  C   UNL     1       8.332  12.352   3.488  1.00  0.00     0.028 C 
BRANCH   5   6
HETATM    6  N   UNL     1       9.328  13.004   3.451  1.00  0.00    -0.223 N 
ATOM      7  HN  UNL     1      10.170  12.507   3.739  1.00  0.00     0.192 HD
BRANCH   6   8
HETATM    8  S   UNL     1       9.565  14.508   3.032  1.00  0.00     0.216 S 
HETATM    9  O   UNL     1       8.708  15.284   4.052  1.00  0.00    -0.577 OA
HETATM   10  O   UNL     1      10.966  14.838   3.230  1.00  0.00    -0.577 OA
HETATM   11  O   UNL     1       9.210  14.711   1.645  1.00  0.00    -0.577 OA
ENDBRANCH   6   8
ENDBRANCH   5   6
ENDBRANCH   3   4
BRANCH   3  12
HETATM   12  C   UNL     1       5.660   9.705   2.925  1.00  0.00     0.264 C 
HETATM   13  N   UNL     1       5.746   8.947   4.021  1.00  0.00    -0.327 N 
HETATM   14  C   UNL     1       4.859   8.161   4.629  1.00  0.00     0.165 C 
ATOM     15  HN  UNL     1       6.659   8.975   4.475  1.00  0.00     0.168 HD
HETATM   16  O   UNL     1       5.181   9.327   1.897  1.00  0.00    -0.267 OA
BRANCH  14  17
HETATM   17  C   UNL     1       4.731   6.778   4.761  1.00  0.00     0.254 C 
HETATM   18  N   UNL     1       5.663   5.698   4.548  1.00  0.00    -0.366 N 
HETATM   19  H   UNL     1       6.605   5.938   4.389  1.00  0.00     0.159 HD
HETATM   20  H   UNL     1       5.175   4.807   4.612  1.00  0.00     0.159 HD
HETATM   21  O   UNL     1       3.658   6.295   5.182  1.00  0.00    -0.267 OA
ENDBRANCH  14  17
ENDBRANCH   3  12
TORSDOF 5
ENDMDL
MODEL 2
REMARK VINA RESULT:    -5.753      2.852      7.323
REMARK INTER + INTRA:          -7.751
REMARK INTER:                  -7.350
REMARK INTRA:                  -0.401
REMARK UNBOUND:                -0.316
REMARK  5 active torsions:
REMARK  status: ('A' for Active; 'I' for Inactive)
REMARK    1  A    between atoms: S_2  and  N_5 
REMARK    2  A    between atoms: N_5  and  C_7 
REMARK    3  A    between atoms: C_8  and  C_11 
REMARK    4  A    between atoms: C_11  and  C_12 
REMARK       I    between atoms: C_12  and  N_14 
REMARK       I    between atoms: C_16  and  N_18 
REMARK    5  A    between atoms: C_16  and  C_21 
ROOT
HETATM    1  C   UNL     1       5.208  12.071   3.327  1.00  0.00    -0.005 C 
HETATM    2  C   UNL     1       4.288  11.775   2.181  1.00  0.00     0.037 C 
HETATM    3  C   UNL     1       6.284  11.412   3.729  1.00  0.00     0.083 C 
ENDROOT
BRANCH   3   4
HETATM    4  C   UNL     1       5.937  10.280   4.262  1.00  0.00    -0.038 C 
HETATM    5  C   UNL     1       5.729   9.112   4.435  1.00  0.00     0.028 C 
BRANCH   5   6
HETATM    6  N   UNL     1       5.332   7.990   4.467  1.00  0.00    -0.223 N 
ATOM      7  HN  UNL     1       5.901   7.356   5.027  1.00  0.00     0.192 HD
BRANCH   6   8
HETATM    8  S   UNL     1       4.075   7.316   3.789  1.00  0.00     0.216 S 
HETATM    9  O   UNL     1       4.428   7.370   2.289  1.00  0.00    -0.577 OA
HETATM   10  O   UNL     1       3.994   5.930   4.215  1.00  0.00    -0.577 OA
HETATM   11  O   UNL     1       2.863   8.011   4.164  1.00  0.00    -0.577 OA
ENDBRANCH   6   8
ENDBRANCH   5   6
ENDBRANCH   3   4
BRANCH   3  12
HETATM   12  C   UNL     1       7.756  12.069   3.656  1.00  0.00     0.264 C 
HETATM   13  N   UNL     1       8.011  13.112   2.862  1.00  0.00    -0.327 N 
HETATM   14  C   UNL     1       8.663  14.254   3.078  1.00  0.00     0.165 C 
ATOM     15  HN  UNL     1       7.638  13.018   1.917  1.00  0.00     0.168 HD
HETATM   16  O   UNL     1       8.580  11.552   4.350  1.00  0.00    -0.267 OA
BRANCH  14  17
HETATM   17  C   UNL     1       9.889  14.758   2.645  1.00  0.00     0.254 C 
HETATM   18  N   UNL     1      11.227  14.624   3.168  1.00  0.00    -0.366 N 
HETATM   19  H   UNL     1      11.365  13.978   3.899  1.00  0.00     0.159 HD
HETATM   20  H   UNL     1      11.856  15.245   2.664  1.00  0.00     0.159 HD
HETATM   21  O   UNL     1       9.945  15.421   1.587  1.00  0.00    -0.267 OA
ENDBRANCH  14  17
ENDBRANCH   3  12
TORSDOF 5
ENDMDL
MODEL 3
REMARK VINA RESULT:    -5.575      2.555      2.950
REMARK INTER + INTRA:          -7.520
REMARK INTER:                  -7.120
REMARK INTRA:                  -0.400
REMARK UNBOUND:                -0.316
REMARK  5 active torsions:
REMARK  status: ('A' for Active; 'I' for Inactive)
REMARK    1  A    between atoms: S_2  and  N_5 
REMARK    2  A    between atoms: N_5  and  C_7 
REMARK    3  A    between atoms: C_8  and  C_11 
REMARK    4  A    between atoms: C_11  and  C_12 
REMARK       I    between atoms: C_12  and  N_14 
REMARK       I    between atoms: C_16  and  N_18 
REMARK    5  A    between atoms: C_16  and  C_21 
ROOT
HETATM    1  C   UNL     1       6.253  14.190   3.690  1.00  0.00    -0.005 C 
HETATM    2  C   UNL     1       6.316  15.512   4.395  1.00  0.00     0.037 C 
HETATM    3  C   UNL     1       7.237  13.363   3.371  1.00  0.00     0.083 C 
ENDROOT
BRANCH   3   4
HETATM    4  C   UNL     1       7.950  13.872   2.413  1.00  0.00    -0.038 C 
HETATM    5  C   UNL     1       8.674  14.591   1.783  1.00  0.00     0.028 C 
BRANCH   5   6
HETATM    6  N   UNL     1       9.201  15.445   1.142  1.00  0.00    -0.223 N 
ATOM      7  HN  UNL     1       9.839  15.102   0.424  1.00  0.00     0.192 HD
BRANCH   6   8
HETATM    8  S   UNL     1       9.078  17.018   1.213  1.00  0.00     0.216 S 
HETATM    9  O   UNL     1       7.552  17.238   1.233  1.00  0.00    -0.577 OA
HETATM   10  O   UNL     1       9.648  17.480   2.466  1.00  0.00    -0.577 OA
HETATM   11  O   UNL     1       9.776  17.632   0.106  1.00  0.00    -0.577 OA
ENDBRANCH   6   8
ENDBRANCH   5   6
ENDBRANCH   3   4
BRANCH   3  12
HETATM   12  C   UNL     1       7.358  11.896   4.032  1.00  0.00     0.264 C 
HETATM   13  N   UNL     1       6.275  11.221   4.424  1.00  0.00    -0.327 N 
HETATM   14  C   UNL     1       5.904   9.954   4.243  1.00  0.00     0.165 C 
ATOM     15  HN  UNL     1       5.608  11.777   4.961  1.00  0.00     0.168 HD
HETATM   16  O   UNL     1       8.472  11.478   4.143  1.00  0.00    -0.267 OA
BRANCH  14  17
HETATM   17  C   UNL     1       5.808   8.850   5.090  1.00  0.00     0.254 C 
HETATM   18  N   UNL     1       6.725   7.777   5.385  1.00  0.00    -0.366 N 
HETATM   19  H   UNL     1       7.643   7.856   5.034  1.00  0.00     0.159 HD
HETATM   20  H   UNL     1       6.258   7.072   5.952  1.00  0.00     0.159 HD
HETATM   21  O   UNL     1       4.791   8.706   5.803  1.00  0.00    -0.267 OA
ENDBRANCH  14  17
ENDBRANCH   3  12
TORSDOF 5
ENDMDL
MODEL 4
REMARK VINA RESULT:    -5.521     20.847     23.887
REMARK INTER + INTRA:          -7.450
REMARK INTER:                  -7.084
REMARK INTRA:                  -0.366
REMARK UNBOUND:                -0.316
REMARK  5 active torsions:
REMARK  status: ('A' for Active; 'I' for Inactive)
REMARK    1  A    between atoms: S_2  and  N_5 
REMARK    2  A    between atoms: N_5  and  C_7 
REMARK    3  A    between atoms: C_8  and  C_11 
REMARK    4  A    between atoms: C_11  and  C_12 
REMARK       I    between atoms: C_12  and  N_14 
REMARK       I    between atoms: C_16  and  N_18 
REMARK    5  A    between atoms: C_16  and  C_21 
ROOT
HETATM    1  C   UNL     1       9.314  -1.703  23.335  1.00  0.00    -0.005 C 
HETATM    2  C   UNL     1      10.651  -1.624  22.661  1.00  0.00     0.037 C 
HETATM    3  C   UNL     1       8.199  -2.283  22.918  1.00  0.00     0.083 C 
ENDROOT
BRANCH   3   4
HETATM    4  C   UNL     1       7.693  -1.610  21.929  1.00  0.00    -0.038 C 
HETATM    5  C   UNL     1       6.957  -0.947  21.254  1.00  0.00     0.028 C 
BRANCH   5   6
HETATM    6  N   UNL     1       6.105  -0.493  20.557  1.00  0.00    -0.223 N 
ATOM      7  HN  UNL     1       5.187  -0.431  20.998  1.00  0.00     0.192 HD
BRANCH   6   8
HETATM    8  S   UNL     1       6.153   0.031  19.069  1.00  0.00     0.216 S 
HETATM    9  O   UNL     1       7.626   0.458  18.908  1.00  0.00    -0.577 OA
HETATM   10  O   UNL     1       5.872  -1.074  18.169  1.00  0.00    -0.577 OA
HETATM   11  O   UNL     1       5.180   1.081  18.867  1.00  0.00    -0.577 OA
ENDBRANCH   6   8
ENDBRANCH   5   6
ENDBRANCH   3   4
BRANCH   3  12
HETATM   12  C   UNL     1       7.566  -3.553  23.686  1.00  0.00     0.264 C 
HETATM   13  N   UNL     1       7.907  -3.843  24.944  1.00  0.00    -0.327 N 
HETATM   14  C   UNL     1       7.177  -4.168  26.010  1.00  0.00     0.165 C 
ATOM     15  HN  UNL     1       8.912  -3.810  25.121  1.00  0.00     0.168 HD
HETATM   16  O   UNL     1       6.788  -4.198  23.048  1.00  0.00    -0.267 OA
BRANCH  14  17
HETATM   17  C   UNL     1       6.995  -5.350  26.726  1.00  0.00     0.254 C 
HETATM   18  N   UNL     1       5.988  -6.380  26.649  1.00  0.00    -0.366 N 
HETATM   19  H   UNL     1       5.357  -6.341  25.893  1.00  0.00     0.159 HD
HETATM   20  H   UNL     1       6.101  -7.030  27.424  1.00  0.00     0.159 HD
HETATM   21  O   UNL     1       7.838  -5.689  27.584  1.00  0.00    -0.267 OA
ENDBRANCH  14  17
ENDBRANCH   3  12
TORSDOF 5
ENDMDL
MODEL 5
REMARK VINA RESULT:    -5.474     26.724     28.549
REMARK INTER + INTRA:          -7.390
REMARK INTER:                  -7.016
REMARK INTRA:                  -0.374
REMARK UNBOUND:                -0.316
REMARK  5 active torsions:
REMARK  status: ('A' for Active; 'I' for Inactive)
REMARK    1  A    between atoms: S_2  and  N_5 
REMARK    2  A    between atoms: N_5  and  C_7 
REMARK    3  A    between atoms: C_8  and  C_11 
REMARK    4  A    between atoms: C_11  and  C_12 
REMARK       I    between atoms: C_12  and  N_14 
REMARK       I    between atoms: C_16  and  N_18 
REMARK    5  A    between atoms: C_16  and  C_21 
ROOT
HETATM    1  C   UNL     1       4.976  -4.327  24.671  1.00  0.00    -0.005 C 
HETATM    2  C   UNL     1       4.634  -3.119  25.492  1.00  0.00     0.037 C 
HETATM    3  C   UNL     1       4.475  -5.551  24.734  1.00  0.00     0.083 C 
ENDROOT
BRANCH   3   4
HETATM    4  C   UNL     1       4.878  -6.138  25.820  1.00  0.00    -0.038 C 
HETATM    5  C   UNL     1       4.982  -6.484  26.963  1.00  0.00     0.028 C 
BRANCH   5   6
HETATM    6  N   UNL     1       5.188  -6.615  28.129  1.00  0.00    -0.223 N 
ATOM      7  HN  UNL     1       4.390  -6.958  28.664  1.00  0.00     0.192 HD
BRANCH   6   8
HETATM    8  S   UNL     1       6.486  -6.348  28.987  1.00  0.00     0.216 S 
HETATM    9  O   UNL     1       6.800  -7.742  29.568  1.00  0.00    -0.577 OA
HETATM   10  O   UNL     1       7.563  -5.943  28.101  1.00  0.00    -0.577 OA
HETATM   11  O   UNL     1       6.245  -5.311  29.965  1.00  0.00    -0.577 OA
ENDBRANCH   6   8
ENDBRANCH   5   6
ENDBRANCH   3   4
BRANCH   3  12
HETATM   12  C   UNL     1       3.621  -6.180  23.519  1.00  0.00     0.264 C 
HETATM   13  N   UNL     1       2.944  -7.322  23.666  1.00  0.00    -0.327 N 
HETATM   14  C   UNL     1       1.704  -7.670  23.324  1.00  0.00     0.165 C 
ATOM     15  HN  UNL     1       3.474  -8.064  24.123  1.00  0.00     0.168 HD
HETATM   16  O   UNL     1       3.648  -5.556  22.500  1.00  0.00    -0.267 OA
BRANCH  14  17
HETATM   17  C   UNL     1       1.178  -8.518  22.350  1.00  0.00     0.254 C 
HETATM   18  N   UNL     1       1.473  -8.677  20.947  1.00  0.00    -0.366 N 
HETATM   19  H   UNL     1       2.259  -8.201  20.593  1.00  0.00     0.159 HD
HETATM   20  H   UNL     1       0.791  -9.302  20.522  1.00  0.00     0.159 HD
HETATM   21  O   UNL     1       0.317  -9.366  22.670  1.00  0.00    -0.267 OA
ENDBRANCH  14  17
ENDBRANCH   3  12
TORSDOF 5
ENDMDL
MODEL 6
REMARK VINA RESULT:    -5.284     20.148     23.700
REMARK INTER + INTRA:          -7.144
REMARK INTER:                  -6.624
REMARK INTRA:                  -0.521
REMARK UNBOUND:                -0.316
REMARK  5 active torsions:
REMARK  status: ('A' for Active; 'I' for Inactive)
REMARK    1  A    between atoms: S_2  and  N_5 
REMARK    2  A    between atoms: N_5  and  C_7 
REMARK    3  A    between atoms: C_8  and  C_11 
REMARK    4  A    between atoms: C_11  and  C_12 
REMARK       I    between atoms: C_12  and  N_14 
REMARK       I    between atoms: C_16  and  N_18 
REMARK    5  A    between atoms: C_16  and  C_21 
ROOT
HETATM    1  C   UNL     1       9.380  -1.003  24.357  1.00  0.00    -0.005 C 
HETATM    2  C   UNL     1       8.976  -0.655  25.758  1.00  0.00     0.037 C 
HETATM    3  C   UNL     1       8.640  -1.474  23.364  1.00  0.00     0.083 C 
ENDROOT
BRANCH   3   4
HETATM    4  C   UNL     1       8.309  -2.706  23.606  1.00  0.00    -0.038 C 
HETATM    5  C   UNL     1       7.884  -3.821  23.488  1.00  0.00     0.028 C 
BRANCH   5   6
HETATM    6  N   UNL     1       7.249  -4.824  23.400  1.00  0.00    -0.223 N 
ATOM      7  HN  UNL     1       7.457  -5.522  24.115  1.00  0.00     0.192 HD
BRANCH   6   8
HETATM    8  S   UNL     1       6.138  -5.258  22.365  1.00  0.00     0.216 S 
HETATM    9  O   UNL     1       5.137  -6.032  23.247  1.00  0.00    -0.577 OA
HETATM   10  O   UNL     1       5.494  -4.069  21.836  1.00  0.00    -0.577 OA
HETATM   11  O   UNL     1       6.722  -6.017  21.281  1.00  0.00    -0.577 OA
ENDBRANCH   6   8
ENDBRANCH   5   6
ENDBRANCH   3   4
BRANCH   3  12
HETATM   12  C   UNL     1       8.369  -0.613  22.027  1.00  0.00     0.264 C 
HETATM   13  N   UNL     1       7.581  -1.075  21.053  1.00  0.00    -0.327 N 
HETATM   14  C   UNL     1       6.602  -0.501  20.355  1.00  0.00     0.165 C 
ATOM     15  HN  UNL     1       7.762  -2.046  20.797  1.00  0.00     0.168 HD
HETATM   16  O   UNL     1       8.923   0.445  21.981  1.00  0.00    -0.267 OA
BRANCH  14  17
HETATM   17  C   UNL     1       6.488  -0.074  19.032  1.00  0.00     0.254 C 
HETATM   18  N   UNL     1       5.512  -0.358  18.008  1.00  0.00    -0.366 N 
HETATM   19  H   UNL     1       4.700  -0.846  18.278  1.00  0.00     0.159 HD
HETATM   20  H   UNL     1       5.828   0.024  17.118  1.00  0.00     0.159 HD
HETATM   21  O   UNL     1       7.313   0.745  18.574  1.00  0.00    -0.267 OA
ENDBRANCH  14  17
ENDBRANCH   3  12
TORSDOF 5
ENDMDL
MODEL 7
REMARK VINA RESULT:    -5.272     20.082     23.334
REMARK INTER + INTRA:          -7.128
REMARK INTER:                  -6.688
REMARK INTRA:                  -0.440
REMARK UNBOUND:                -0.316
REMARK  5 active torsions:
REMARK  status: ('A' for Active; 'I' for Inactive)
REMARK    1  A    between atoms: S_2  and  N_5 
REMARK    2  A    between atoms: N_5  and  C_7 
REMARK    3  A    between atoms: C_8  and  C_11 
REMARK    4  A    between atoms: C_11  and  C_12 
REMARK       I    between atoms: C_12  and  N_14 
REMARK       I    between atoms: C_16  and  N_18 
REMARK    5  A    between atoms: C_16  and  C_21 
ROOT
HETATM    1  C   UNL     1       9.690   0.382  23.306  1.00  0.00    -0.005 C 
HETATM    2  C   UNL     1       9.367   0.668  24.742  1.00  0.00     0.037 C 
HETATM    3  C   UNL     1       9.013  -0.337  22.423  1.00  0.00     0.083 C 
ENDROOT
BRANCH   3   4
HETATM    4  C   UNL     1       9.095  -1.598  22.723  1.00  0.00    -0.038 C 
HETATM    5  C   UNL     1       8.897  -2.672  23.218  1.00  0.00     0.028 C 
BRANCH   5   6
HETATM    6  N   UNL     1       8.813  -3.646  23.898  1.00  0.00    -0.223 N 
ATOM      7  HN  UNL     1       9.291  -4.466  23.524  1.00  0.00     0.192 HD
BRANCH   6   8
HETATM    8  S   UNL     1       8.089  -3.884  25.281  1.00  0.00     0.216 S 
HETATM    9  O   UNL     1       8.603  -2.710  26.139  1.00  0.00    -0.577 OA
HETATM   10  O   UNL     1       6.655  -3.751  25.093  1.00  0.00    -0.577 OA
HETATM   11  O   UNL     1       8.392  -5.203  25.793  1.00  0.00    -0.577 OA
ENDBRANCH   6   8
ENDBRANCH   5   6
ENDBRANCH   3   4
BRANCH   3  12
HETATM   12  C   UNL     1       8.343   0.334  21.119  1.00  0.00     0.264 C 
HETATM   13  N   UNL     1       7.620  -0.389  20.260  1.00  0.00    -0.327 N 
HETATM   14  C   UNL     1       6.440  -0.166  19.683  1.00  0.00     0.165 C 
ATOM     15  HN  UNL     1       8.051  -1.276  19.997  1.00  0.00     0.168 HD
HETATM   16  O   UNL     1       8.546   1.504  20.986  1.00  0.00    -0.267 OA
BRANCH  14  17
HETATM   17  C   UNL     1       6.049   0.138  18.379  1.00  0.00     0.254 C 
HETATM   18  N   UNL     1       6.042   1.375  17.637  1.00  0.00    -0.366 N 
HETATM   19  H   UNL     1       6.491   2.151  18.046  1.00  0.00     0.159 HD
HETATM   20  H   UNL     1       5.559   1.241  16.752  1.00  0.00     0.159 HD
HETATM   21  O   UNL     1       5.663  -0.778  17.622  1.00  0.00    -0.267 OA
ENDBRANCH  14  17
ENDBRANCH   3  12
TORSDOF 5
ENDMDL
MODEL 8
REMARK VINA RESULT:    -5.257     33.350     35.387
REMARK INTER + INTRA:          -7.109
REMARK INTER:                  -6.725
REMARK INTRA:                  -0.384
REMARK UNBOUND:                -0.316
REMARK  5 active torsions:
REMARK  status: ('A' for Active; 'I' for Inactive)
REMARK    1  A    between atoms: S_2  and  N_5 
REMARK    2  A    between atoms: N_5  and  C_7 
REMARK    3  A    between atoms: C_8  and  C_11 
REMARK    4  A    between atoms: C_11  and  C_12 
REMARK       I    between atoms: C_12  and  N_14 
REMARK       I    between atoms: C_16  and  N_18 
REMARK    5  A    between atoms: C_16  and  C_21 
ROOT
HETATM    1  C   UNL     1      22.535 -19.813  11.992  1.00  0.00    -0.005 C 
HETATM    2  C   UNL     1      23.682 -19.302  12.812  1.00  0.00     0.037 C 
HETATM    3  C   UNL     1      21.313 -19.321  11.865  1.00  0.00     0.083 C 
ENDROOT
BRANCH   3   4
HETATM    4  C   UNL     1      20.646 -19.504  12.964  1.00  0.00    -0.038 C 
HETATM    5  C   UNL     1      20.362 -19.747  14.104  1.00  0.00     0.028 C 
BRANCH   5   6
HETATM    6  N   UNL     1      20.110 -20.215  15.169  1.00  0.00    -0.223 N 
ATOM      7  HN  UNL     1      19.126 -20.160  15.434  1.00  0.00     0.192 HD
BRANCH   6   8
HETATM    8  S   UNL     1      21.039 -20.907  16.242  1.00  0.00     0.216 S 
HETATM    9  O   UNL     1      20.996 -22.390  15.821  1.00  0.00    -0.577 OA
HETATM   10  O   UNL     1      22.393 -20.403  16.091  1.00  0.00    -0.577 OA
HETATM   11  O   UNL     1      20.565 -20.630  17.580  1.00  0.00    -0.577 OA
ENDBRANCH   6   8
ENDBRANCH   5   6
ENDBRANCH   3   4
BRANCH   3  12
HETATM   12  C   UNL     1      20.777 -18.732  10.462  1.00  0.00     0.264 C 
HETATM   13  N   UNL     1      20.637 -19.516   9.390  1.00  0.00    -0.327 N 
HETATM   14  C   UNL     1      19.647 -19.644   8.507  1.00  0.00     0.165 C 
ATOM     15  HN  UNL     1      21.433 -20.129   9.215  1.00  0.00     0.168 HD
HETATM   16  O   UNL     1      20.528 -17.563  10.461  1.00  0.00    -0.267 OA
BRANCH  14  17
HETATM   17  C   UNL     1      19.504 -19.291   7.165  1.00  0.00     0.254 C 
HETATM   18  N   UNL     1      19.389 -20.084   5.965  1.00  0.00    -0.366 N 
HETATM   19  H   UNL     1      19.271 -21.056   6.075  1.00  0.00     0.159 HD
HETATM   20  H   UNL     1      19.437 -19.479   5.148  1.00  0.00     0.159 HD
HETATM   21  O   UNL     1      19.401 -18.086   6.852  1.00  0.00    -0.267 OA
ENDBRANCH  14  17
ENDBRANCH   3  12
TORSDOF 5
ENDMDL
MODEL 9
REMARK VINA RESULT:    -5.232     21.348     24.806
REMARK INTER + INTRA:          -7.077
REMARK INTER:                  -6.718
REMARK INTRA:                  -0.359
REMARK UNBOUND:                -0.316
REMARK  5 active torsions:
REMARK  status: ('A' for Active; 'I' for Inactive)
REMARK    1  A    between atoms: S_2  and  N_5 
REMARK    2  A    between atoms: N_5  and  C_7 
REMARK    3  A    between atoms: C_8  and  C_11 
REMARK    4  A    between atoms: C_11  and  C_12 
REMARK       I    between atoms: C_12  and  N_14 
REMARK       I    between atoms: C_16  and  N_18 
REMARK    5  A    between atoms: C_16  and  C_21 
ROOT
HETATM    1  C   UNL     1       6.669  -1.010  24.517  1.00  0.00    -0.005 C 
HETATM    2  C   UNL     1       5.371  -0.823  25.244  1.00  0.00     0.037 C 
HETATM    3  C   UNL     1       6.949  -1.803  23.495  1.00  0.00     0.083 C 
ENDROOT
BRANCH   3   4
HETATM    4  C   UNL     1       6.955  -3.042  23.885  1.00  0.00    -0.038 C 
HETATM    5  C   UNL     1       6.807  -4.037  24.537  1.00  0.00     0.028 C 
BRANCH   5   6
HETATM    6  N   UNL     1       6.848  -4.945  25.306  1.00  0.00    -0.223 N 
ATOM      7  HN  UNL     1       6.717  -5.864  24.884  1.00  0.00     0.192 HD
BRANCH   6   8
HETATM    8  S   UNL     1       7.070  -4.969  26.869  1.00  0.00     0.216 S 
HETATM    9  O   UNL     1       6.704  -6.420  27.242  1.00  0.00    -0.577 OA
HETATM   10  O   UNL     1       8.477  -4.741  27.150  1.00  0.00    -0.577 OA
HETATM   11  O   UNL     1       6.275  -3.945  27.512  1.00  0.00    -0.577 OA
ENDBRANCH   6   8
ENDBRANCH   5   6
ENDBRANCH   3   4
BRANCH   3  12
HETATM   12  C   UNL     1       7.352  -1.212  22.049  1.00  0.00     0.264 C 
HETATM   13  N   UNL     1       6.458  -1.129  21.060  1.00  0.00    -0.327 N 
HETATM   14  C   UNL     1       6.165  -0.147  20.208  1.00  0.00     0.165 C 
ATOM     15  HN  UNL     1       5.897  -1.972  20.934  1.00  0.00     0.168 HD
HETATM   16  O   UNL     1       8.491  -0.869  21.939  1.00  0.00    -0.267 OA
BRANCH  14  17
HETATM   17  C   UNL     1       6.372   0.033  18.841  1.00  0.00     0.254 C 
HETATM   18  N   UNL     1       5.512  -0.166  17.700  1.00  0.00    -0.366 N 
HETATM   19  H   UNL     1       4.561  -0.354  17.877  1.00  0.00     0.159 HD
HETATM   20  H   UNL     1       6.051  -0.061  16.842  1.00  0.00     0.159 HD
HETATM   21  O   UNL     1       7.461   0.494  18.437  1.00  0.00    -0.267 OA
ENDBRANCH  14  17
ENDBRANCH   3  12
TORSDOF 5
ENDMDL
