MODEL 1
REMARK VINA RESULT:    -5.207      0.000      0.000
REMARK INTER + INTRA:          -6.366
REMARK INTER:                  -5.816
REMARK INTRA:                  -0.550
REMARK UNBOUND:                -0.550
REMARK  2 active torsions:
REMARK  status: ('A' for Active; 'I' for Inactive)
REMARK       I    between atoms: N_1  and  C_3 
REMARK    1  A    between atoms: N_1  and  C_5 
REMARK    2  A    between atoms: C_3  and  C_7 
ROOT
HETATM    1  C   UNL     1       3.567   2.281  19.715  1.00  0.00     0.068 C 
HETATM    2  C   UNL     1       7.015   0.620  20.117  1.00  0.00     0.038 C 
HETATM    3  C   UNL     1       7.136   0.324  18.756  1.00  0.00     0.046 C 
HETATM    4  C   UNL     1       6.027   0.477  17.955  1.00  0.00     0.090 C 
HETATM    5  C   UNL     1       5.784   1.066  20.552  1.00  0.00     0.054 C 
HETATM    6  C   UNL     1       4.806   1.447  19.582  1.00  0.00     0.007 C 
HETATM    7  N   UNL     1       4.912   1.049  18.345  1.00  0.00    -0.369 N 
ATOM      8  HN  UNL     1       4.141   1.181  17.690  1.00  0.00     0.165 HD
ENDROOT
BRANCH   2   9
HETATM    9  N   UNL     1       8.158   0.453  20.914  1.00  0.00    -0.324 N 
HETATM   10  C   UNL     1       8.735  -0.625  21.624  1.00  0.00     0.248 C 
HETATM   11  O   UNL     1       8.198  -1.702  21.679  1.00  0.00    -0.268 OA
HETATM   12  H   UNL     1       8.648   1.328  20.992  1.00  0.00     0.169 HD
BRANCH  10  13
HETATM   13  C   UNL     1       9.965  -0.241  22.207  1.00  0.00     0.108 C 
HETATM   14  C   UNL     1      10.290   1.164  22.141  1.00  0.00     0.076 A 
HETATM   15  O   UNL     1      10.477   2.095  21.419  1.00  0.00    -0.347 OA
HETATM   16  C   UNL     1      10.896   2.076  22.802  1.00  0.00     0.240 A 
ENDBRANCH  10  13
ENDBRANCH   2   9
TORSDOF 2
ENDMDL
MODEL 2
REMARK VINA RESULT:    -4.763     21.215     22.184
REMARK INTER + INTRA:          -5.870
REMARK INTER:                  -5.370
REMARK INTRA:                  -0.500
REMARK UNBOUND:                -0.550
REMARK  2 active torsions:
REMARK  status: ('A' for Active; 'I' for Inactive)
REMARK       I    between atoms: N_1  and  C_3 
REMARK    1  A    between atoms: N_1  and  C_5 
REMARK    2  A    between atoms: C_3  and  C_7 
ROOT
HETATM    1  C   UNL     1       2.895  12.098   1.945  1.00  0.00     0.068 C 
HETATM    2  C   UNL     1       6.702  12.537   2.299  1.00  0.00     0.038 C 
HETATM    3  C   UNL     1       6.987  11.243   1.855  1.00  0.00     0.046 C 
HETATM    4  C   UNL     1       5.945  10.351   1.734  1.00  0.00     0.090 C 
HETATM    5  C   UNL     1       5.380  12.829   2.565  1.00  0.00     0.054 C 
HETATM    6  C   UNL     1       4.371  11.913   2.134  1.00  0.00     0.007 C 
HETATM    7  N   UNL     1       4.679  10.681   1.836  1.00  0.00    -0.369 N 
ATOM      8  HN  UNL     1       3.948   9.986   1.685  1.00  0.00     0.165 HD
ENDROOT
BRANCH   2   9
HETATM    9  N   UNL     1       7.780  13.427   2.418  1.00  0.00    -0.324 N 
HETATM   10  C   UNL     1       8.961  13.471   3.193  1.00  0.00     0.248 C 
HETATM   11  O   UNL     1       9.202  12.630   4.022  1.00  0.00    -0.268 OA
HETATM   12  H   UNL     1       7.639  14.215   1.809  1.00  0.00     0.169 HD
BRANCH  10  13
HETATM   13  C   UNL     1       9.751  14.591   2.843  1.00  0.00     0.108 C 
HETATM   14  C   UNL     1       9.036  15.749   2.361  1.00  0.00     0.076 A 
HETATM   15  O   UNL     1       8.288  16.164   1.530  1.00  0.00    -0.347 OA
HETATM   16  C   UNL     1       9.099  17.026   2.359  1.00  0.00     0.240 A 
ENDBRANCH  10  13
ENDBRANCH   2   9
TORSDOF 2
ENDMDL
MODEL 3
REMARK VINA RESULT:    -4.723      5.131      5.974
REMARK INTER + INTRA:          -5.825
REMARK INTER:                  -5.569
REMARK INTRA:                  -0.256
REMARK UNBOUND:                -0.550
REMARK  2 active torsions:
REMARK  status: ('A' for Active; 'I' for Inactive)
REMARK       I    between atoms: N_1  and  C_3 
REMARK    1  A    between atoms: N_1  and  C_5 
REMARK    2  A    between atoms: C_3  and  C_7 
ROOT
HETATM    1  C   UNL     1       5.836  -5.686  26.014  1.00  0.00     0.068 C 
HETATM    2  C   UNL     1       8.096  -3.904  23.459  1.00  0.00     0.038 C 
HETATM    3  C   UNL     1       7.178  -4.035  22.414  1.00  0.00     0.046 C 
HETATM    4  C   UNL     1       6.092  -4.861  22.600  1.00  0.00     0.090 C 
HETATM    5  C   UNL     1       7.830  -4.606  24.617  1.00  0.00     0.054 C 
HETATM    6  C   UNL     1       6.539  -5.198  24.783  1.00  0.00     0.007 C 
HETATM    7  N   UNL     1       5.765  -5.397  23.752  1.00  0.00    -0.369 N 
ATOM      8  HN  UNL     1       4.919  -5.960  23.840  1.00  0.00     0.165 HD
ENDROOT
BRANCH   2   9
HETATM    9  N   UNL     1       9.197  -3.059  23.246  1.00  0.00    -0.324 N 
HETATM   10  C   UNL     1       9.651  -1.845  23.808  1.00  0.00     0.248 C 
HETATM   11  O   UNL     1       9.013  -1.263  24.649  1.00  0.00    -0.268 OA
HETATM   12  H   UNL     1       9.765  -3.425  22.500  1.00  0.00     0.169 HD
BRANCH  10  13
HETATM   13  C   UNL     1      10.896  -1.468  23.252  1.00  0.00     0.108 C 
HETATM   14  C   UNL     1      11.756  -0.674  24.098  1.00  0.00     0.076 A 
HETATM   15  O   UNL     1      11.858   0.340  24.717  1.00  0.00    -0.347 OA
HETATM   16  C   UNL     1      12.994  -0.472  24.345  1.00  0.00     0.240 A 
ENDBRANCH  10  13
ENDBRANCH   2   9
TORSDOF 2
ENDMDL
MODEL 4
REMARK VINA RESULT:    -4.587     14.614     16.900
REMARK INTER + INTRA:          -5.673
REMARK INTER:                  -5.400
REMARK INTRA:                  -0.273
REMARK UNBOUND:                -0.550
REMARK  2 active torsions:
REMARK  status: ('A' for Active; 'I' for Inactive)
REMARK       I    between atoms: N_1  and  C_3 
REMARK    1  A    between atoms: N_1  and  C_5 
REMARK    2  A    between atoms: C_3  and  C_7 
ROOT
HETATM    1  C   UNL     1      23.315   1.616  24.804  1.00  0.00     0.068 C 
HETATM    2  C   UNL     1      22.386  -2.046  25.534  1.00  0.00     0.038 C 
HETATM    3  C   UNL     1      21.084  -1.913  25.042  1.00  0.00     0.046 C 
HETATM    4  C   UNL     1      20.617  -0.646  24.771  1.00  0.00     0.090 C 
HETATM    5  C   UNL     1      23.115  -0.886  25.694  1.00  0.00     0.054 C 
HETATM    6  C   UNL     1      22.621   0.325  25.117  1.00  0.00     0.007 C 
HETATM    7  N   UNL     1      21.367   0.430  24.776  1.00  0.00    -0.369 N 
ATOM      8  HN  UNL     1      20.975   1.336  24.516  1.00  0.00     0.165 HD
ENDROOT
BRANCH   2   9
HETATM    9  N   UNL     1      22.839  -3.346  25.807  1.00  0.00    -0.324 N 
HETATM   10  C   UNL     1      23.361  -4.407  25.033  1.00  0.00     0.248 C 
HETATM   11  O   UNL     1      23.449  -4.328  23.833  1.00  0.00    -0.268 OA
HETATM   12  H   UNL     1      22.740  -3.541  26.789  1.00  0.00     0.169 HD
BRANCH  10  13
HETATM   13  C   UNL     1      23.738  -5.493  25.857  1.00  0.00     0.108 C 
HETATM   14  C   UNL     1      24.227  -6.669  25.177  1.00  0.00     0.076 A 
HETATM   15  O   UNL     1      23.973  -7.517  24.378  1.00  0.00    -0.347 OA
HETATM   16  C   UNL     1      25.056  -7.631  25.327  1.00  0.00     0.240 A 
ENDBRANCH  10  13
ENDBRANCH   2   9
TORSDOF 2
ENDMDL
MODEL 5
REMARK VINA RESULT:    -4.565     22.790     24.295
REMARK INTER + INTRA:          -5.648
REMARK INTER:                  -5.110
REMARK INTRA:                  -0.538
REMARK UNBOUND:                -0.550
REMARK  2 active torsions:
REMARK  status: ('A' for Active; 'I' for Inactive)
REMARK       I    between atoms: N_1  and  C_3 
REMARK    1  A    between atoms: N_1  and  C_5 
REMARK    2  A    between atoms: C_3  and  C_7 
ROOT
HETATM    1  C   UNL     1      10.604  20.422   2.763  1.00  0.00     0.068 C 
HETATM    2  C   UNL     1       9.117  16.922   2.171  1.00  0.00     0.038 C 
HETATM    3  C   UNL     1       8.911  17.138   0.806  1.00  0.00     0.046 C 
HETATM    4  C   UNL     1       9.050  18.419   0.320  1.00  0.00     0.090 C 
HETATM    5  C   UNL     1       9.467  18.020   2.931  1.00  0.00     0.054 C 
HETATM    6  C   UNL     1       9.850  19.226   2.266  1.00  0.00     0.007 C 
HETATM    7  N   UNL     1       9.535  19.420   1.016  1.00  0.00    -0.369 N 
ATOM      8  HN  UNL     1       9.662  20.337   0.585  1.00  0.00     0.165 HD
ENDROOT
BRANCH   2   9
HETATM    9  N   UNL     1       8.967  15.610   2.644  1.00  0.00    -0.324 N 
HETATM   10  C   UNL     1       9.843  14.616   3.136  1.00  0.00     0.248 C 
HETATM   11  O   UNL     1      11.035  14.788   3.168  1.00  0.00    -0.268 OA
HETATM   12  H   UNL     1       7.999  15.339   2.591  1.00  0.00     0.169 HD
BRANCH  10  13
HETATM   13  C   UNL     1       9.122  13.474   3.556  1.00  0.00     0.108 C 
HETATM   14  C   UNL     1       7.803  13.310   2.992  1.00  0.00     0.076 A 
HETATM   15  O   UNL     1       6.723  13.799   2.865  1.00  0.00    -0.347 OA
HETATM   16  C   UNL     1       6.984  12.398   2.631  1.00  0.00     0.240 A 
ENDBRANCH  10  13
ENDBRANCH   2   9
TORSDOF 2
ENDMDL
MODEL 6
REMARK VINA RESULT:    -4.476     25.421     26.368
REMARK INTER + INTRA:          -5.549
REMARK INTER:                  -5.035
REMARK INTRA:                  -0.513
REMARK UNBOUND:                -0.550
REMARK  2 active torsions:
REMARK  status: ('A' for Active; 'I' for Inactive)
REMARK       I    between atoms: N_1  and  C_3 
REMARK    1  A    between atoms: N_1  and  C_5 
REMARK    2  A    between atoms: C_3  and  C_7 
ROOT
HETATM    1  C   UNL     1      19.103 -18.059   1.332  1.00  0.00     0.068 C 
HETATM    2  C   UNL     1      20.563 -16.127   4.324  1.00  0.00     0.038 C 
HETATM    3  C   UNL     1      20.349 -14.875   3.741  1.00  0.00     0.046 C 
HETATM    4  C   UNL     1      19.996 -14.827   2.410  1.00  0.00     0.090 C 
HETATM    5  C   UNL     1      20.384 -17.231   3.516  1.00  0.00     0.054 C 
HETATM    6  C   UNL     1      19.751 -17.061   2.246  1.00  0.00     0.007 C 
HETATM    7  N   UNL     1      19.676 -15.881   1.697  1.00  0.00    -0.369 N 
ATOM      8  HN  UNL     1      19.373 -15.778   0.728  1.00  0.00     0.165 HD
ENDROOT
BRANCH   2   9
HETATM    9  N   UNL     1      20.925 -16.151   5.680  1.00  0.00    -0.324 N 
HETATM   10  C   UNL     1      20.350 -16.672   6.860  1.00  0.00     0.248 C 
HETATM   11  O   UNL     1      19.270 -17.207   6.852  1.00  0.00    -0.268 OA
HETATM   12  H   UNL     1      21.793 -15.659   5.807  1.00  0.00     0.169 HD
BRANCH  10  13
HETATM   13  C   UNL     1      21.206 -16.471   7.968  1.00  0.00     0.108 C 
HETATM   14  C   UNL     1      21.763 -15.147   8.111  1.00  0.00     0.076 A 
HETATM   15  O   UNL     1      22.427 -14.301   7.594  1.00  0.00    -0.347 OA
HETATM   16  C   UNL     1      22.136 -14.317   9.009  1.00  0.00     0.240 A 
ENDBRANCH  10  13
ENDBRANCH   2   9
TORSDOF 2
ENDMDL
MODEL 7
REMARK VINA RESULT:    -4.347     22.353     23.969
REMARK INTER + INTRA:          -5.405
REMARK INTER:                  -4.868
REMARK INTRA:                  -0.536
REMARK UNBOUND:                -0.550
REMARK  2 active torsions:
REMARK  status: ('A' for Active; 'I' for Inactive)
REMARK       I    between atoms: N_1  and  C_3 
REMARK    1  A    between atoms: N_1  and  C_5 
REMARK    2  A    between atoms: C_3  and  C_7 
ROOT
HETATM    1  C   UNL     1       4.245  12.689   3.749  1.00  0.00     0.068 C 
HETATM    2  C   UNL     1       7.121  14.435   1.880  1.00  0.00     0.038 C 
HETATM    3  C   UNL     1       7.221  13.436   0.908  1.00  0.00     0.046 C 
HETATM    4  C   UNL     1       6.537  12.257   1.111  1.00  0.00     0.090 C 
HETATM    5  C   UNL     1       6.320  14.167   2.971  1.00  0.00     0.054 C 
HETATM    6  C   UNL     1       5.451  13.032   2.927  1.00  0.00     0.007 C 
HETATM    7  N   UNL     1       5.658  12.074   2.068  1.00  0.00    -0.369 N 
ATOM      8  HN  UNL     1       5.145  11.195   2.137  1.00  0.00     0.165 HD
ENDROOT
BRANCH   2   9
HETATM    9  N   UNL     1       7.828  15.625   1.653  1.00  0.00    -0.324 N 
HETATM   10  C   UNL     1       9.194  15.988   1.621  1.00  0.00     0.248 C 
HETATM   11  O   UNL     1      10.063  15.192   1.877  1.00  0.00    -0.268 OA
HETATM   12  H   UNL     1       7.181  16.380   1.497  1.00  0.00     0.169 HD
BRANCH  10  13
HETATM   13  C   UNL     1       9.345  17.346   1.256  1.00  0.00     0.108 C 
HETATM   14  C   UNL     1       8.154  18.018   0.794  1.00  0.00     0.076 A 
HETATM   15  O   UNL     1       7.281  18.019  -0.019  1.00  0.00    -0.347 OA
HETATM   16  C   UNL     1       7.599  19.170   0.795  1.00  0.00     0.240 A 
ENDBRANCH  10  13
ENDBRANCH   2   9
TORSDOF 2
ENDMDL
MODEL 8
REMARK VINA RESULT:    -4.341      2.731      4.069
REMARK INTER + INTRA:          -5.398
REMARK INTER:                  -5.115
REMARK INTRA:                  -0.284
REMARK UNBOUND:                -0.550
REMARK  2 active torsions:
REMARK  status: ('A' for Active; 'I' for Inactive)
REMARK       I    between atoms: N_1  and  C_3 
REMARK    1  A    between atoms: N_1  and  C_5 
REMARK    2  A    between atoms: C_3  and  C_7 
ROOT
HETATM    1  C   UNL     1       6.948  -1.641  21.871  1.00  0.00     0.068 C 
HETATM    2  C   UNL     1       8.584   1.840  21.999  1.00  0.00     0.038 C 
HETATM    3  C   UNL     1       7.383   2.517  21.772  1.00  0.00     0.046 C 
HETATM    4  C   UNL     1       6.285   1.783  21.383  1.00  0.00     0.090 C 
HETATM    5  C   UNL     1       8.571   0.470  21.832  1.00  0.00     0.054 C 
HETATM    6  C   UNL     1       7.313  -0.196  21.703  1.00  0.00     0.007 C 
HETATM    7  N   UNL     1       6.241   0.471  21.381  1.00  0.00    -0.369 N 
ATOM      8  HN  UNL     1       5.381  -0.018  21.131  1.00  0.00     0.165 HD
ENDROOT
BRANCH   2   9
HETATM    9  N   UNL     1       9.691   2.610  22.391  1.00  0.00    -0.324 N 
HETATM   10  C   UNL     1      10.437   2.756  23.582  1.00  0.00     0.248 C 
HETATM   11  O   UNL     1      10.131   2.174  24.593  1.00  0.00    -0.268 OA
HETATM   12  H   UNL     1       9.985   3.194  21.627  1.00  0.00     0.169 HD
BRANCH  10  13
HETATM   13  C   UNL     1      11.527   3.635  23.388  1.00  0.00     0.108 C 
HETATM   14  C   UNL     1      11.318   5.007  23.787  1.00  0.00     0.076 A 
HETATM   15  O   UNL     1      10.653   5.984  23.628  1.00  0.00    -0.347 OA
HETATM   16  C   UNL     1      11.950   6.011  24.263  1.00  0.00     0.240 A 
ENDBRANCH  10  13
ENDBRANCH   2   9
TORSDOF 2
ENDMDL
MODEL 9
REMARK VINA RESULT:    -4.335     21.555     22.841
REMARK INTER + INTRA:          -5.392
REMARK INTER:                  -4.850
REMARK INTRA:                  -0.542
REMARK UNBOUND:                -0.550
REMARK  2 active torsions:
REMARK  status: ('A' for Active; 'I' for Inactive)
REMARK       I    between atoms: N_1  and  C_3 
REMARK    1  A    between atoms: N_1  and  C_5 
REMARK    2  A    between atoms: C_3  and  C_7 
ROOT
HETATM    1  C   UNL     1       7.716  11.993   3.622  1.00  0.00     0.068 C 
HETATM    2  C   UNL     1       9.620  15.338   3.589  1.00  0.00     0.038 C 
HETATM    3  C   UNL     1       9.219  15.661   2.290  1.00  0.00     0.046 C 
HETATM    4  C   UNL     1       8.608  14.685   1.535  1.00  0.00     0.090 C 
HETATM    5  C   UNL     1       9.352  14.056   4.025  1.00  0.00     0.054 C 
HETATM    6  C   UNL     1       8.470  13.236   3.255  1.00  0.00     0.007 C 
HETATM    7  N   UNL     1       8.217  13.526   2.009  1.00  0.00    -0.369 N 
ATOM      8  HN  UNL     1       7.722  12.862   1.412  1.00  0.00     0.165 HD
ENDROOT
BRANCH   2   9
HETATM    9  N   UNL     1      10.244  16.347   4.339  1.00  0.00    -0.324 N 
HETATM   10  C   UNL     1       9.805  17.331   5.253  1.00  0.00     0.248 C 
HETATM   11  O   UNL     1       8.636  17.481   5.505  1.00  0.00    -0.268 OA
HETATM   12  H   UNL     1      11.230  16.354   4.143  1.00  0.00     0.169 HD
BRANCH  10  13
HETATM   13  C   UNL     1      10.902  18.050   5.783  1.00  0.00     0.108 C 
HETATM   14  C   UNL     1      11.965  18.363   4.857  1.00  0.00     0.076 A 
HETATM   15  O   UNL     1      12.773  17.914   4.104  1.00  0.00    -0.347 OA
HETATM   16  C   UNL     1      12.840  19.264   4.616  1.00  0.00     0.240 A 
ENDBRANCH  10  13
ENDBRANCH   2   9
TORSDOF 2
ENDMDL
