stable:False satoms:8 tatoms:24 sratio:0.3333333333333333
  -OEChem-08062415003D

 43 44  0     1  0  0  0  0  0999 V2000
    6.4323   -5.1492   26.1651 C   0  0  0  0  0  0  0  0  0  0  0  0
    8.1930   -4.5511   25.9336 S   0  0  0  0  0  0  0  0  0  0  0  0
    9.0525   -5.7268   25.8806 O   0  0  0  0  0  0  0  0  0  0  0  0
    8.5048   -3.6862   27.0123 O   0  0  0  0  0  0  0  0  0  0  0  0
    8.1457   -3.7496   24.5217 N   0  0  0  0  0  0  0  0  0  0  0  0
    8.9700   -3.0552   24.0764 C   0  0  0  0  0  0  0  0  0  0  0  0
    9.4970   -2.1168   23.5494 C   0  0  0  0  0  0  0  0  0  0  0  0
   10.4034   -1.2475   23.3524 C   0  0  1  0  0  0  0  0  0  0  0  0
   10.9926   -0.1428   24.5625 C   0  0  0  0  0  0  0  0  0  0  0  0
   11.9840    0.1487   24.6088 C   0  0  0  0  0  0  0  0  0  0  0  0
   13.1616   -0.2982   23.7808 C   0  0  0  0  0  0  0  0  0  0  0  0
   12.8887   -1.1520   23.0318 C   0  0  0  0  0  0  0  0  0  0  0  0
   11.8838   -1.7112   22.7300 C   0  0  0  0  0  0  0  0  0  0  0  0
    9.7883   -0.6114   22.4784 C   0  0  0  0  0  0  0  0  0  0  0  0
    9.1620    0.0162   21.5081 C   0  0  0  0  0  0  0  0  0  0  0  0
    9.7141    0.9464   21.1487 O   0  0  0  0  0  0  0  0  0  0  0  0
    8.0109   -0.5892   21.1265 N   0  0  0  0  0  0  0  0  0  0  0  0
    7.3771   -0.0805   20.1728 C   0  0  0  0  0  0  0  0  0  0  0  0
    7.4370    0.0976   18.8551 C   0  0  0  0  0  0  0  0  0  0  0  0
    7.0682    0.3902   17.7205 N   0  0  0  0  0  0  0  0  0  0  0  0
    5.9694    0.9090   18.1629 C   0  0  0  0  0  0  0  0  0  0  0  0
    5.3489    1.0091   19.2596 C   0  0  0  0  0  0  0  0  0  0  0  0
    5.9703    0.5449   20.4631 C   0  0  0  0  0  0  0  0  0  0  0  0
    5.5825    0.5941   21.4661 C   0  0  0  0  0  0  0  0  0  0  0  0
    6.3566   -5.7122   27.1071 H   0  0  0  0  0  0  0  0  0  0  0  0
    5.7531   -4.2846   26.1993 H   0  0  0  0  0  0  0  0  0  0  0  0
    6.1533   -5.8017   25.3247 H   0  0  0  0  0  0  0  0  0  0  0  0
    7.3300   -3.1742   24.5806 H   0  0  0  0  0  0  0  0  0  0  0  0
   10.2987    0.2518   25.2900 H   0  0  0  0  0  0  0  0  0  0  0  0
   12.2097    0.8853   25.3657 H   0  0  0  0  0  0  0  0  0  0  0  0
   14.1510    0.1253   23.8704 H   0  0  0  0  0  0  0  0  0  0  0  0
   13.7471   -1.5177   22.4880 H   0  0  0  0  0  0  0  0  0  0  0  0
   11.7997   -1.6289   21.6363 H   0  0  0  0  0  0  0  0  0  0  0  0
   12.0205   -2.7665   23.0088 H   0  0  0  0  0  0  0  0  0  0  0  0
   10.2915    0.3197   22.7783 H   0  0  0  0  0  0  0  0  0  0  0  0
    8.8481   -0.7172   23.0394 H   0  0  0  0  0  0  0  0  0  0  0  0
    7.6797   -1.4115   21.5890 H   0  0  0  0  0  0  0  0  0  0  0  0
    8.4537   -0.2099   18.6597 H   0  0  0  0  0  0  0  0  0  0  0  0
    5.4260    1.3966   17.3670 H   0  0  0  0  0  0  0  0  0  0  0  0
    4.3593    1.4408   19.2885 H   0  0  0  0  0  0  0  0  0  0  0  0
    5.0077   -0.3184   21.6827 H   0  0  0  0  0  0  0  0  0  0  0  0
    6.4168    0.6793   22.1779 H   0  0  0  0  0  0  0  0  0  0  0  0
    4.9268    1.4719   21.5630 H   0  0  0  0  0  0  0  0  0  0  0  0
 20 21  2  0  0  0  0
 19 20  1  0  0  0  0
 21 22  1  0  0  0  0
 18 19  2  0  0  0  0
 22 23  2  0  0  0  0
 18 23  1  0  0  0  0
 17 18  1  0  0  0  0
 23 24  1  0  0  0  0
 15 16  2  0  0  0  0
 15 17  1  0  0  0  0
 14 15  1  0  0  0  0
  8 14  1  0  0  0  0
 12 13  1  0  0  0  0
  8 13  1  0  0  0  0
 11 12  2  0  0  0  0
  7  8  1  0  0  0  0
  8  9  1  0  0  0  0
 10 11  1  0  0  0  0
  6  7  3  0  0  0  0
  5  6  1  0  0  0  0
  9 10  2  0  0  0  0
  2  5  1  0  0  0  0
  2  3  2  0  0  0  0
  1  2  1  0  0  0  0
  2  4  2  0  0  0  0
  1 25  1  0  0  0  0
  1 26  1  0  0  0  0
  1 27  1  0  0  0  0
  5 28  1  0  0  0  0
  9 29  1  0  0  0  0
 10 30  1  0  0  0  0
 11 31  1  0  0  0  0
 12 32  1  0  0  0  0
 13 33  1  0  0  0  0
 13 34  1  0  0  0  0
 14 35  1  0  0  0  0
 14 36  1  0  0  0  0
 17 37  1  0  0  0  0
 19 38  1  0  0  0  0
 21 39  1  0  0  0  0
 22 40  1  0  0  0  0
 24 41  1  0  0  0  0
 24 42  1  0  0  0  0
 24 43  1  0  0  0  0
M  END
> <Chemgauss4>
-13.656036

$$$$
