
 OpenBabel07202414163D

 57 59  0  0  1  0  0  0  0  0999 V2000
   -5.7503   -3.4358   -4.4335 C   0  0  0  0  0  0  0  0  0  0  0  0
   -5.2166   -2.5420   -3.3495 C   0  0  0  0  0  0  0  0  0  0  0  0
   -4.8021   -1.2331   -3.6289 C   0  0  0  0  0  0  0  0  0  0  0  0
   -4.2680   -0.4262   -2.6184 C   0  0  0  0  0  0  0  0  0  0  0  0
   -4.1537   -0.9254   -1.3169 C   0  0  0  0  0  0  0  0  0  0  0  0
   -3.4019    0.0937   -0.0568 S   0  0  0  0  0  0  0  0  0  0  0  0
   -3.2894   -0.7030    1.1437 O   0  0  0  0  0  0  0  0  0  0  0  0
   -2.2444    0.7103   -0.6653 O   0  0  0  0  0  0  0  0  0  0  0  0
   -4.5739    1.2641    0.2156 N   0  0  0  0  0  0  0  0  0  0  0  0
   -4.3490    2.6909   -0.1396 C   0  0  0  0  0  0  0  0  0  0  0  0
   -4.4566    3.6738    1.0555 C   0  0  0  0  0  0  0  0  0  0  0  0
   -5.4649    3.3025    2.0538 N   0  0  0  0  0  0  0  0  0  0  0  0
   -6.3662    4.1428    2.6993 C   0  0  0  0  0  0  0  0  0  0  0  0
   -7.0619    3.7440    3.6395 O   0  0  0  0  0  0  0  0  0  0  0  0
   -6.5435    5.5644    2.2077 C   0  0  0  0  0  0  0  0  0  0  0  0
   -5.1681    6.5667    2.7027 Cl  0  0  0  0  0  0  0  0  0  0  0  0
   -5.4461    1.8884    2.4341 C   0  0  0  0  0  0  0  0  0  0  0  0
   -5.6541    0.9898    1.2065 C   0  0  1  0  0  0  0  0  0  0  0  0
   -7.0404    1.1767    0.5704 C   0  0  0  0  0  0  0  0  0  0  0  0
   -7.8788    1.9852    0.9615 O   0  0  0  0  0  0  0  0  0  0  0  0
   -7.3055    0.3105   -0.4713 N   0  0  0  0  0  0  0  0  0  0  0  0
   -8.6094    0.2677   -1.1055 C   0  0  0  0  0  0  0  0  0  0  0  0
   -8.8860   -1.0537   -1.8307 C   0  0  0  0  0  0  0  0  0  0  0  0
   -8.9205   -2.3370   -1.0249 C   0  0  0  0  0  0  0  0  0  0  0  0
   -8.6683   -2.4093    0.3510 C   0  0  0  0  0  0  0  0  0  0  0  0
   -8.6379   -3.6424    1.0095 C   0  0  0  0  0  0  0  0  0  0  0  0
   -8.8870   -4.8189    0.3083 C   0  0  0  0  0  0  0  0  0  0  0  0
   -9.1827   -4.7629   -1.0500 C   0  0  0  0  0  0  0  0  0  0  0  0
   -9.1973   -3.5327   -1.7104 C   0  0  0  0  0  0  0  0  0  0  0  0
   -4.5700   -2.2271   -1.0234 C   0  0  0  0  0  0  0  0  0  0  0  0
   -5.1024   -3.0283   -2.0395 C   0  0  0  0  0  0  0  0  0  0  0  0
   -5.7857   -2.9225   -5.4004 H   0  0  0  0  0  0  0  0  0  0  0  0
   -6.7660   -3.7639   -4.1908 H   0  0  0  0  0  0  0  0  0  0  0  0
   -5.1075   -4.3154   -4.5475 H   0  0  0  0  0  0  0  0  0  0  0  0
   -4.8718   -0.8411   -4.6422 H   0  0  0  0  0  0  0  0  0  0  0  0
   -3.9242    0.5774   -2.8580 H   0  0  0  0  0  0  0  0  0  0  0  0
   -5.0896    2.9619   -0.8996 H   0  0  0  0  0  0  0  0  0  0  0  0
   -3.3682    2.8386   -0.6037 H   0  0  0  0  0  0  0  0  0  0  0  0
   -4.6361    4.6784    0.6658 H   0  0  0  0  0  0  0  0  0  0  0  0
   -3.4989    3.7046    1.5900 H   0  0  0  0  0  0  0  0  0  0  0  0
   -7.4441    5.9863    2.6674 H   0  0  0  0  0  0  0  0  0  0  0  0
   -6.6734    5.5959    1.1228 H   0  0  0  0  0  0  0  0  0  0  0  0
   -6.1967    1.6647    3.1979 H   0  0  0  0  0  0  0  0  0  0  0  0
   -4.4616    1.6965    2.8809 H   0  0  0  0  0  0  0  0  0  0  0  0
   -5.6223   -0.0520    1.5437 H   0  0  0  0  0  0  0  0  0  0  0  0
   -6.5366   -0.1690   -0.9186 H   0  0  0  0  0  0  0  0  0  0  0  0
   -8.6300    1.0899   -1.8298 H   0  0  0  0  0  0  0  0  0  0  0  0
   -9.3852    0.4692   -0.3582 H   0  0  0  0  0  0  0  0  0  0  0  0
   -8.1238   -1.1796   -2.6108 H   0  0  0  0  0  0  0  0  0  0  0  0
   -9.8544   -0.9532   -2.3370 H   0  0  0  0  0  0  0  0  0  0  0  0
   -8.4871   -1.5161    0.9418 H   0  0  0  0  0  0  0  0  0  0  0  0
   -8.4199   -3.6821    2.0741 H   0  0  0  0  0  0  0  0  0  0  0  0
   -8.8594   -5.7760    0.8224 H   0  0  0  0  0  0  0  0  0  0  0  0
   -9.3987   -5.6766   -1.5973 H   0  0  0  0  0  0  0  0  0  0  0  0
   -9.4243   -3.5110   -2.7744 H   0  0  0  0  0  0  0  0  0  0  0  0
   -4.4704   -2.6387   -0.0216 H   0  0  0  0  0  0  0  0  0  0  0  0
   -5.4149   -4.0463   -1.8083 H   0  0  0  0  0  0  0  0  0  0  0  0
  1  2  1  0  0  0  0
  1 32  1  0  0  0  0
  1 33  1  0  0  0  0
  1 34  1  0  0  0  0
  2  3  1  0  0  0  0
  2 31  2  0  0  0  0
  3  4  2  0  0  0  0
  3 35  1  0  0  0  0
  4  5  1  0  0  0  0
  4 36  1  0  0  0  0
  5  6  1  0  0  0  0
  5 30  2  0  0  0  0
  6  7  2  0  0  0  0
  6  8  2  0  0  0  0
  6  9  1  0  0  0  0
  9 10  1  0  0  0  0
  9 18  1  0  0  0  0
 10 11  1  0  0  0  0
 10 37  1  0  0  0  0
 10 38  1  0  0  0  0
 11 12  1  0  0  0  0
 11 39  1  0  0  0  0
 11 40  1  0  0  0  0
 12 13  1  0  0  0  0
 12 17  1  0  0  0  0
 13 14  2  0  0  0  0
 13 15  1  0  0  0  0
 15 16  1  0  0  0  0
 15 41  1  0  0  0  0
 15 42  1  0  0  0  0
 17 18  1  0  0  0  0
 17 43  1  0  0  0  0
 17 44  1  0  0  0  0
 18 19  1  0  0  0  0
 18 45  1  1  0  0  0
 19 20  2  0  0  0  0
 19 21  1  0  0  0  0
 21 22  1  0  0  0  0
 21 46  1  0  0  0  0
 22 23  1  0  0  0  0
 22 47  1  0  0  0  0
 22 48  1  0  0  0  0
 23 24  1  0  0  0  0
 23 49  1  0  0  0  0
 23 50  1  0  0  0  0
 24 25  1  0  0  0  0
 24 29  2  0  0  0  0
 25 26  2  0  0  0  0
 25 51  1  0  0  0  0
 26 27  1  0  0  0  0
 26 52  1  0  0  0  0
 27 28  2  0  0  0  0
 27 53  1  0  0  0  0
 28 29  1  0  0  0  0
 28 54  1  0  0  0  0
 29 55  1  0  0  0  0
 30 31  1  0  0  0  0
 30 56  1  0  0  0  0
 31 57  1  0  0  0  0
M  END
$$$$
