stable:False satoms:11 tatoms:24 sratio:0.4583333333333333
  -OEChem-07092417423D

 24 25  0     1  0  0  0  0  0999 V2000
    6.4695   -5.0127   26.5070 Cl  0  0  0  0  0  0  0  0  0  0  0  0
    8.2359   -4.4065   26.1815 S   0  0  0  0  0  0  0  0  0  0  0  0
    9.0418   -5.5749   26.0326 O   0  0  0  0  0  0  0  0  0  0  0  0
    8.6250   -3.5033   27.2003 O   0  0  0  0  0  0  0  0  0  0  0  0
    8.0940   -3.6493   24.7465 N   0  0  0  0  0  0  0  0  0  0  0  0
    8.9434   -2.9201   24.2216 C   0  0  0  0  0  0  0  0  0  0  0  0
    9.5220   -2.1308   23.6935 C   0  0  0  0  0  0  0  0  0  0  0  0
   10.4410   -1.1527   23.2154 C   0  0  1  0  0  0  0  0  0  0  0  0
   10.9069   -0.3070   24.1203 C   0  0  0  0  0  0  0  0  0  0  0  0
   12.2231    0.6706   24.3827 S   0  0  0  0  0  0  0  0  0  0  0  0
   12.9007   -0.2582   23.4495 C   0  0  0  0  0  0  0  0  0  0  0  0
   12.7855   -1.1805   22.7857 C   0  0  0  0  0  0  0  0  0  0  0  0
   11.7128   -1.5757   22.7517 C   0  0  0  0  0  0  0  0  0  0  0  0
    9.8854   -0.4783   22.1707 C   0  0  0  0  0  0  0  0  0  0  0  0
    9.1019    0.1162   21.2963 C   0  0  0  0  0  0  0  0  0  0  0  0
    9.5146    1.1087   20.7774 O   0  0  0  0  0  0  0  0  0  0  0  0
    7.9002   -0.5417   21.1578 N   0  0  0  0  0  0  0  0  0  0  0  0
    7.1357    0.0053   20.2453 C   0  0  0  0  0  0  0  0  0  0  0  0
    7.1656    0.0773   18.8966 C   0  0  0  0  0  0  0  0  0  0  0  0
    6.6742    0.3852   17.8800 N   0  0  0  0  0  0  0  0  0  0  0  0
    5.5760    0.8158   18.1520 N   0  0  0  0  0  0  0  0  0  0  0  0
    5.3894    0.8892   19.3771 C   0  0  0  0  0  0  0  0  0  0  0  0
    5.8653    0.6069   20.5295 C   0  0  0  0  0  0  0  0  0  0  0  0
    5.4742    0.7261   21.5255 H   0  0  0  0  0  0  0  0  0  0  0  0
 20 21  2  0  0  0  0
 19 20  1  0  0  0  0
 21 22  1  0  0  0  0
 18 19  2  0  0  0  0
 22 23  2  0  0  0  0
 18 23  1  0  0  0  0
 17 18  1  0  0  0  0
 23 24  1  0  0  0  0
 15 16  2  0  0  0  0
 15 17  1  0  0  0  0
 14 15  1  0  0  0  0
  8 14  1  0  0  0  0
 12 13  1  0  0  0  0
  8 13  1  0  0  0  0
 11 12  1  0  0  0  0
  7  8  1  0  0  0  0
  8  9  1  0  0  0  0
 10 11  1  0  0  0  0
  6  7  3  0  0  0  0
  9 10  1  0  0  0  0
  5  6  1  0  0  0  0
  2  5  1  0  0  0  0
  2  3  2  0  0  0  0
  1  2  1  0  0  0  0
  2  4  2  0  0  0  0
M  END
> <Shapegauss>
-287.026215

$$$$
