stable:False satoms:11 tatoms:24 sratio:0.4583333333333333
  -OEChem-08062410273D

 38 39  0     1  0  0  0  0  0999 V2000
   -5.7367   -5.2536  -25.9652 Cl  0  0  0  0  0  0  0  0  0  0  0  0
   -7.5349   -4.6600  -25.8788 S   0  0  0  0  0  0  0  0  0  0  0  0
   -8.3401   -5.8313  -25.7509 O   0  0  0  0  0  0  0  0  0  0  0  0
   -7.8151   -3.8257  -26.9881 O   0  0  0  0  0  0  0  0  0  0  0  0
   -7.5652   -3.8166  -24.4857 N   0  0  0  0  0  0  0  0  0  0  0  0
   -8.4764   -3.0725  -24.1055 C   0  0  0  0  0  0  0  0  0  0  0  0
   -9.1196   -2.2634  -23.6951 C   0  0  0  0  0  0  0  0  0  0  0  0
  -10.0973   -1.2748  -23.3843 C   0  0  1  0  0  0  0  0  0  0  0  0
  -10.4661   -0.4925  -24.3858 C   0  0  0  0  0  0  0  0  0  0  0  0
  -11.7542    0.4448  -24.8542 S   0  0  0  0  0  0  0  0  0  0  0  0
  -12.5237   -0.4387  -23.9487 C   0  0  0  0  0  0  0  0  0  0  0  0
  -12.4750   -1.3179  -23.2212 C   0  0  0  0  0  0  0  0  0  0  0  0
  -11.4091   -1.6916  -23.0423 C   0  0  0  0  0  0  0  0  0  0  0  0
   -9.6713   -0.5301  -22.3266 C   0  0  0  0  0  0  0  0  0  0  0  0
   -8.9987    0.1288  -21.4071 C   0  0  0  0  0  0  0  0  0  0  0  0
   -9.4782    1.1430  -20.9996 O   0  0  0  0  0  0  0  0  0  0  0  0
   -7.8136   -0.4988  -21.0940 N   0  0  0  0  0  0  0  0  0  0  0  0
   -7.1637    0.1146  -20.1361 C   0  0  0  0  0  0  0  0  0  0  0  0
   -7.3476    0.2659  -18.8063 C   0  0  0  0  0  0  0  0  0  0  0  0
   -6.9783    0.6421  -17.7613 N   0  0  0  0  0  0  0  0  0  0  0  0
   -5.8609    1.0748  -17.9333 N   0  0  0  0  0  0  0  0  0  0  0  0
   -5.5369    1.0787  -19.1317 C   0  0  0  0  0  0  0  0  0  0  0  0
   -5.8757    0.7203  -20.3111 C   0  0  0  0  0  0  0  0  0  0  0  0
   -5.3751    0.7870  -21.2620 H   0  0  0  0  0  0  0  0  0  0  0  0
   -6.7490   -3.2394  -24.5112 H   0  0  0  0  0  0  0  0  0  0  0  0
   -9.6451    0.2392  -24.4052 H   0  0  0  0  0  0  0  0  0  0  0  0
  -10.3694   -1.1749  -25.2431 H   0  0  0  0  0  0  0  0  0  0  0  0
  -13.2749   -0.8218  -24.6550 H   0  0  0  0  0  0  0  0  0  0  0  0
  -12.9853    0.3179  -23.2971 H   0  0  0  0  0  0  0  0  0  0  0  0
  -13.0725   -2.1455  -23.6312 H   0  0  0  0  0  0  0  0  0  0  0  0
  -12.9012   -0.9999  -22.2582 H   0  0  0  0  0  0  0  0  0  0  0  0
  -11.3599   -1.7421  -21.9445 H   0  0  0  0  0  0  0  0  0  0  0  0
  -11.4460   -2.7106  -23.4549 H   0  0  0  0  0  0  0  0  0  0  0  0
  -10.2208   -1.1349  -21.5902 H   0  0  0  0  0  0  0  0  0  0  0  0
  -10.2770    0.3437  -22.6087 H   0  0  0  0  0  0  0  0  0  0  0  0
   -7.4864   -1.3284  -21.5464 H   0  0  0  0  0  0  0  0  0  0  0  0
   -8.3113   -0.1808  -18.6110 H   0  0  0  0  0  0  0  0  0  0  0  0
   -4.5887    1.5897  -19.2087 H   0  0  0  0  0  0  0  0  0  0  0  0
 20 21  2  0  0  0  0
 19 20  1  0  0  0  0
 21 22  1  0  0  0  0
 18 19  2  0  0  0  0
 22 23  2  0  0  0  0
 18 23  1  0  0  0  0
 17 18  1  0  0  0  0
 23 24  1  0  0  0  0
 15 16  2  0  0  0  0
 15 17  1  0  0  0  0
 14 15  1  0  0  0  0
  8 14  1  0  0  0  0
 12 13  1  0  0  0  0
  8 13  1  0  0  0  0
 11 12  1  0  0  0  0
  7  8  1  0  0  0  0
  8  9  1  0  0  0  0
 10 11  1  0  0  0  0
  6  7  3  0  0  0  0
  9 10  1  0  0  0  0
  5  6  1  0  0  0  0
  2  5  1  0  0  0  0
  2  3  2  0  0  0  0
  1  2  1  0  0  0  0
  2  4  2  0  0  0  0
  5 25  1  0  0  0  0
  9 26  1  0  0  0  0
  9 27  1  0  0  0  0
 11 28  1  0  0  0  0
 11 29  1  0  0  0  0
 12 30  1  0  0  0  0
 12 31  1  0  0  0  0
 13 32  1  0  0  0  0
 13 33  1  0  0  0  0
 14 34  1  0  0  0  0
 14 35  1  0  0  0  0
 17 36  1  0  0  0  0
 19 37  1  0  0  0  0
 22 38  1  0  0  0  0
M  END
> <Chemgauss4>
-12.504087

$$$$
