REMARK  5 active torsions:
REMARK  status: ('A' for Active; 'I' for Inactive)
REMARK    1  A    between atoms: C_1  and  N_3 
REMARK    2  A    between atoms: N_3  and  C_5 
REMARK    3  A    between atoms: C_5  and  C_8 
REMARK    4  A    between atoms: C_12  and  C_13 
REMARK       I    between atoms: C_13  and  N_15 
REMARK    5  A    between atoms: N_15  and  C_17 
ROOT
HETATM    1  C   UNL     1       9.110   0.037  21.276  1.00  0.00     0.298 C 
HETATM    2  O   UNL     1       9.537   1.091  20.834  1.00  0.00    -0.263 OA
HETATM    3  N   UNL     1       7.904  -0.517  21.095  1.00  0.00    -0.304 N 
ATOM      4  HN  UNL     1       7.587  -1.286  21.686  1.00  0.00     0.171 HD
ENDROOT
BRANCH   1   5
HETATM    5  C   UNL     1       9.918  -0.800  22.180  1.00  0.00     0.218 C 
HETATM    6  N   UNL     1       9.328  -1.482  23.114  1.00  0.00    -0.324 N 
HETATM    7  C   UNL     1      10.065  -1.649  24.012  1.00  0.00     0.100 C 
ATOM      8  HN  UNL     1       8.367  -1.822  23.073  1.00  0.00     0.169 HD
HETATM    9  C   UNL     1      11.208  -0.654  24.177  1.00  0.00     0.064 C 
HETATM   10  C   UNL     1      11.992  -0.642  23.043  1.00  0.00     0.147 C 
HETATM   11  O   UNL     1      11.266  -1.024  22.015  1.00  0.00    -0.301 OA
BRANCH   7  12
HETATM   12  C   UNL     1       9.407  -2.887  24.654  1.00  0.00    -0.010 C 
BRANCH  12  13
HETATM   13  N   UNL     1       8.655  -3.621  24.974  1.00  0.00    -0.310 N 
ATOM     14  HN  UNL     1       7.972  -3.831  24.246  1.00  0.00     0.177 HD
BRANCH  13  15
HETATM   15  C   UNL     1       8.414  -4.362  26.204  1.00  0.00     0.392 C 
HETATM   16  O   UNL     1       8.914  -5.458  26.200  1.00  0.00    -0.300 OA
ENDBRANCH  13  15
ENDBRANCH  12  13
ENDBRANCH   7  12
ENDBRANCH   1   5
BRANCH   3  17
HETATM   17  C   UNL     1       7.123  -0.032  20.113  1.00  0.00     0.141 C 
HETATM   18  N   UNL     1       7.475  -0.101  18.827  1.00  0.00    -0.269 N 
HETATM   19  N   UNL     1       6.681   0.371  17.881  1.00  0.00    -0.227 N 
ATOM     20  HN  UNL     1       8.368  -0.523  18.571  1.00  0.00     0.190 HD
HETATM   21  N   UNL     1       5.583   0.935  18.143  1.00  0.00    -0.228 N 
ATOM     22  HN  UNL     1       6.966   0.276  16.906  1.00  0.00     0.210 HD
HETATM   23  N   UNL     1       5.159   1.046  19.391  1.00  0.00    -0.293 N 
ATOM     24  HN  UNL     1       5.015   1.310  17.383  1.00  0.00     0.210 HD
HETATM   25  C   UNL     1       5.831   0.517  20.382  1.00  0.00     0.158 C 
ATOM     26  HN  UNL     1       4.295   1.552  19.584  1.00  0.00     0.187 HD
ENDBRANCH   3  17
TORSDOF 5
