stable:False satoms:7 tatoms:24 sratio:0.2916666666666667
  -OEChem-08062417123D

 45 46  0     1  0  0  0  0  0999 V2000
    5.9162   -5.1084   25.8126 C   0  0  0  0  0  0  0  0  0  0  0  0
    7.5167   -4.5849   25.6748 S   0  0  0  0  0  0  0  0  0  0  0  0
    8.3968   -5.7457   25.6303 O   0  0  0  0  0  0  0  0  0  0  0  0
    7.8059   -3.7633   26.8355 O   0  0  0  0  0  0  0  0  0  0  0  0
    7.6037   -3.7691   24.3100 N   0  0  0  0  0  0  0  0  0  0  0  0
    8.5425   -3.1266   23.8701 C   0  0  0  0  0  0  0  0  0  0  0  0
    9.0431   -2.1871   23.3421 C   0  0  0  0  0  0  0  0  0  0  0  0
    9.9495   -1.2710   23.2706 C   0  0  1  0  0  0  0  0  0  0  0  0
   10.5811   -0.2175   24.3869 C   0  0  0  0  0  0  0  0  0  0  0  0
   11.5627    0.0621   24.4817 C   0  0  0  0  0  0  0  0  0  0  0  0
   12.8163   -0.4145   23.7109 C   0  0  0  0  0  0  0  0  0  0  0  0
   12.4086   -1.4318   22.8547 C   0  0  0  0  0  0  0  0  0  0  0  0
   11.4941   -1.8747   22.5913 C   0  0  0  0  0  0  0  0  0  0  0  0
    9.4929   -0.6794   22.3031 C   0  0  0  0  0  0  0  0  0  0  0  0
    8.9121    0.0028   21.3186 C   0  0  0  0  0  0  0  0  0  0  0  0
    9.4228    0.9821   21.0168 O   0  0  0  0  0  0  0  0  0  0  0  0
    7.7943   -0.5933   20.8674 N   0  0  0  0  0  0  0  0  0  0  0  0
    7.1690   -0.0776   19.9002 C   0  0  0  0  0  0  0  0  0  0  0  0
    7.3136    0.1055   18.5998 C   0  0  0  0  0  0  0  0  0  0  0  0
    6.9975    0.4691   17.5246 N   0  0  0  0  0  0  0  0  0  0  0  0
    5.8149    1.1010   17.8727 C   0  0  0  0  0  0  0  0  0  0  0  0
    5.3324    1.1333   18.9873 C   0  0  0  0  0  0  0  0  0  0  0  0
    5.7844    0.6373   20.1935 C   0  0  0  0  0  0  0  0  0  0  0  0
    5.1681    0.7327   21.6035 C   0  0  0  0  0  0  0  0  0  0  0  0
    5.7963   -5.6817   26.7437 H   0  0  0  0  0  0  0  0  0  0  0  0
    5.2456   -4.2366   25.8300 H   0  0  0  0  0  0  0  0  0  0  0  0
    5.6643   -5.7476   24.9535 H   0  0  0  0  0  0  0  0  0  0  0  0
    6.8517   -3.1120   24.3617 H   0  0  0  0  0  0  0  0  0  0  0  0
    9.3881   -3.7670   24.0730 H   0  0  0  0  0  0  0  0  0  0  0  0
    8.4194   -2.0076   22.4789 H   0  0  0  0  0  0  0  0  0  0  0  0
    9.8845    0.2194   25.0872 H   0  0  0  0  0  0  0  0  0  0  0  0
   11.7516    0.8076   25.2399 H   0  0  0  0  0  0  0  0  0  0  0  0
   13.8197   -0.0295   23.8176 H   0  0  0  0  0  0  0  0  0  0  0  0
   13.2406   -1.8773   22.3298 H   0  0  0  0  0  0  0  0  0  0  0  0
   11.4092   -1.7914   21.4978 H   0  0  0  0  0  0  0  0  0  0  0  0
   11.5671   -2.9354   22.8736 H   0  0  0  0  0  0  0  0  0  0  0  0
    9.4579   -1.6093   21.7164 H   0  0  0  0  0  0  0  0  0  0  0  0
   10.4520   -0.1706   22.1269 H   0  0  0  0  0  0  0  0  0  0  0  0
    7.4626   -1.4351   21.2932 H   0  0  0  0  0  0  0  0  0  0  0  0
    8.2842   -0.3310   18.4157 H   0  0  0  0  0  0  0  0  0  0  0  0
    5.2758    1.6082   17.0862 H   0  0  0  0  0  0  0  0  0  0  0  0
    4.3805    1.6403   19.0445 H   0  0  0  0  0  0  0  0  0  0  0  0
    4.5148   -0.1349   21.7781 H   0  0  0  0  0  0  0  0  0  0  0  0
    5.9716    0.7435   22.3547 H   0  0  0  0  0  0  0  0  0  0  0  0
    4.5784    1.6577   21.6840 H   0  0  0  0  0  0  0  0  0  0  0  0
 20 21  2  0  0  0  0
 19 20  1  0  0  0  0
 21 22  1  0  0  0  0
 18 19  2  0  0  0  0
 22 23  2  0  0  0  0
 18 23  1  0  0  0  0
 17 18  1  0  0  0  0
 23 24  1  0  0  0  0
 15 16  2  0  0  0  0
 15 17  1  0  0  0  0
 14 15  1  0  0  0  0
  8 14  1  0  0  0  0
 12 13  1  0  0  0  0
  8 13  1  0  0  0  0
 11 12  2  0  0  0  0
  7  8  1  0  0  0  0
  8  9  1  0  0  0  0
 10 11  1  0  0  0  0
  6  7  2  3  0  0  0
  5  6  1  0  0  0  0
  9 10  2  0  0  0  0
  2  5  1  0  0  0  0
  2  3  2  0  0  0  0
  1  2  1  0  0  0  0
  2  4  2  0  0  0  0
  1 25  1  0  0  0  0
  1 26  1  0  0  0  0
  1 27  1  0  0  0  0
  5 28  1  0  0  0  0
  6 29  1  0  0  0  0
  7 30  1  0  0  0  0
  9 31  1  0  0  0  0
 10 32  1  0  0  0  0
 11 33  1  0  0  0  0
 12 34  1  0  0  0  0
 13 35  1  0  0  0  0
 13 36  1  0  0  0  0
 14 37  1  0  0  0  0
 14 38  1  0  0  0  0
 17 39  1  0  0  0  0
 19 40  1  0  0  0  0
 21 41  1  0  0  0  0
 22 42  1  0  0  0  0
 24 43  1  0  0  0  0
 24 44  1  0  0  0  0
 24 45  1  0  0  0  0
M  END
> <Chemgauss4>
-12.851692

$$$$
