stable:False satoms:7 tatoms:24 sratio:0.2916666666666667
  -OEChem-08062417123D

 45 46  0     1  0  0  0  0  0999 V2000
   -6.2495   -5.1084  -26.1459 C   0  0  0  0  0  0  0  0  0  0  0  0
   -7.8500   -4.5849  -26.0081 S   0  0  0  0  0  0  0  0  0  0  0  0
   -8.7301   -5.7457  -25.9636 O   0  0  0  0  0  0  0  0  0  0  0  0
   -8.1392   -3.7633  -27.1689 O   0  0  0  0  0  0  0  0  0  0  0  0
   -7.9370   -3.7691  -24.6434 N   0  0  0  0  0  0  0  0  0  0  0  0
   -8.8759   -3.1266  -24.2034 C   0  0  0  0  0  0  0  0  0  0  0  0
   -9.3764   -2.1871  -23.6755 C   0  0  0  0  0  0  0  0  0  0  0  0
  -10.2828   -1.2710  -23.6039 C   0  0  1  0  0  0  0  0  0  0  0  0
  -10.9144   -0.2175  -24.7203 C   0  0  0  0  0  0  0  0  0  0  0  0
  -11.8960    0.0621  -24.8150 C   0  0  0  0  0  0  0  0  0  0  0  0
  -13.1496   -0.4145  -24.0442 C   0  0  0  0  0  0  0  0  0  0  0  0
  -12.7419   -1.4318  -23.1881 C   0  0  0  0  0  0  0  0  0  0  0  0
  -11.8274   -1.8747  -22.9247 C   0  0  0  0  0  0  0  0  0  0  0  0
   -9.8262   -0.6794  -22.6365 C   0  0  0  0  0  0  0  0  0  0  0  0
   -9.2454    0.0028  -21.6519 C   0  0  0  0  0  0  0  0  0  0  0  0
   -9.7562    0.9821  -21.3501 O   0  0  0  0  0  0  0  0  0  0  0  0
   -8.1276   -0.5933  -21.2007 N   0  0  0  0  0  0  0  0  0  0  0  0
   -7.5023   -0.0776  -20.2335 C   0  0  0  0  0  0  0  0  0  0  0  0
   -7.6470    0.1055  -18.9332 C   0  0  0  0  0  0  0  0  0  0  0  0
   -7.3308    0.4691  -17.8579 N   0  0  0  0  0  0  0  0  0  0  0  0
   -6.1482    1.1010  -18.2060 C   0  0  0  0  0  0  0  0  0  0  0  0
   -5.6657    1.1333  -19.3206 C   0  0  0  0  0  0  0  0  0  0  0  0
   -6.1177    0.6373  -20.5268 C   0  0  0  0  0  0  0  0  0  0  0  0
   -5.5015    0.7327  -21.9368 C   0  0  0  0  0  0  0  0  0  0  0  0
   -6.1296   -5.6817  -27.0770 H   0  0  0  0  0  0  0  0  0  0  0  0
   -5.5789   -4.2366  -26.1634 H   0  0  0  0  0  0  0  0  0  0  0  0
   -5.9977   -5.7476  -25.2869 H   0  0  0  0  0  0  0  0  0  0  0  0
   -7.1850   -3.1120  -24.6950 H   0  0  0  0  0  0  0  0  0  0  0  0
   -9.7215   -3.7670  -24.4064 H   0  0  0  0  0  0  0  0  0  0  0  0
   -8.7527   -2.0076  -22.8122 H   0  0  0  0  0  0  0  0  0  0  0  0
  -10.2178    0.2194  -25.4205 H   0  0  0  0  0  0  0  0  0  0  0  0
  -12.0849    0.8076  -25.5732 H   0  0  0  0  0  0  0  0  0  0  0  0
  -14.1530   -0.0295  -24.1509 H   0  0  0  0  0  0  0  0  0  0  0  0
  -13.5740   -1.8773  -22.6631 H   0  0  0  0  0  0  0  0  0  0  0  0
  -11.7425   -1.7914  -21.8311 H   0  0  0  0  0  0  0  0  0  0  0  0
  -11.9004   -2.9354  -23.2070 H   0  0  0  0  0  0  0  0  0  0  0  0
   -9.7912   -1.6093  -22.0498 H   0  0  0  0  0  0  0  0  0  0  0  0
  -10.7854   -0.1706  -22.4603 H   0  0  0  0  0  0  0  0  0  0  0  0
   -7.7959   -1.4351  -21.6265 H   0  0  0  0  0  0  0  0  0  0  0  0
   -8.6175   -0.3310  -18.7490 H   0  0  0  0  0  0  0  0  0  0  0  0
   -5.6092    1.6082  -17.4195 H   0  0  0  0  0  0  0  0  0  0  0  0
   -4.7138    1.6403  -19.3778 H   0  0  0  0  0  0  0  0  0  0  0  0
   -4.8481   -0.1349  -22.1115 H   0  0  0  0  0  0  0  0  0  0  0  0
   -6.3049    0.7435  -22.6881 H   0  0  0  0  0  0  0  0  0  0  0  0
   -4.9117    1.6577  -22.0173 H   0  0  0  0  0  0  0  0  0  0  0  0
 20 21  2  0  0  0  0
 19 20  1  0  0  0  0
 21 22  1  0  0  0  0
 18 19  2  0  0  0  0
 22 23  2  0  0  0  0
 18 23  1  0  0  0  0
 17 18  1  0  0  0  0
 23 24  1  0  0  0  0
 15 16  2  0  0  0  0
 15 17  1  0  0  0  0
 14 15  1  0  0  0  0
  8 14  1  0  0  0  0
 12 13  1  0  0  0  0
  8 13  1  0  0  0  0
 11 12  2  0  0  0  0
  7  8  1  0  0  0  0
  8  9  1  0  0  0  0
 10 11  1  0  0  0  0
  6  7  2  3  0  0  0
  5  6  1  0  0  0  0
  9 10  2  0  0  0  0
  2  5  1  0  0  0  0
  2  3  2  0  0  0  0
  1  2  1  0  0  0  0
  2  4  2  0  0  0  0
  1 25  1  0  0  0  0
  1 26  1  0  0  0  0
  1 27  1  0  0  0  0
  5 28  1  0  0  0  0
  6 29  1  0  0  0  0
  7 30  1  0  0  0  0
  9 31  1  0  0  0  0
 10 32  1  0  0  0  0
 11 33  1  0  0  0  0
 12 34  1  0  0  0  0
 13 35  1  0  0  0  0
 13 36  1  0  0  0  0
 14 37  1  0  0  0  0
 14 38  1  0  0  0  0
 17 39  1  0  0  0  0
 19 40  1  0  0  0  0
 21 41  1  0  0  0  0
 22 42  1  0  0  0  0
 24 43  1  0  0  0  0
 24 44  1  0  0  0  0
 24 45  1  0  0  0  0
M  END
> <Chemgauss4>
-13.215439

$$$$
