stable:False satoms:7 tatoms:24 sratio:0.2916666666666667
  -OEChem-07092417483D

 24 25  0     1  0  0  0  0  0999 V2000
    6.5965   -4.8292   26.4624 C   0  0  0  0  0  0  0  0  0  0  0  0
    8.1857   -4.3173   26.1150 S   0  0  0  0  0  0  0  0  0  0  0  0
    9.0604   -5.4848   26.0457 O   0  0  0  0  0  0  0  0  0  0  0  0
    8.6066   -3.4369   27.1784 O   0  0  0  0  0  0  0  0  0  0  0  0
    8.1108   -3.5718   24.6892 N   0  0  0  0  0  0  0  0  0  0  0  0
    8.9906   -2.9239   24.1773 C   0  0  0  0  0  0  0  0  0  0  0  0
    9.4425   -1.9558   23.5108 C   0  0  0  0  0  0  0  0  0  0  0  0
   10.3174   -1.1179   23.2710 C   0  0  1  0  0  0  0  0  0  0  0  0
   11.0132    0.0191   24.2890 C   0  0  0  0  0  0  0  0  0  0  0  0
   12.0699    0.3200   24.2507 C   0  0  0  0  0  0  0  0  0  0  0  0
   13.1552   -0.2102   23.4175 C   0  0  0  0  0  0  0  0  0  0  0  0
   12.7570   -1.2197   22.6731 C   0  0  0  0  0  0  0  0  0  0  0  0
   11.8086   -1.7382   22.5045 C   0  0  0  0  0  0  0  0  0  0  0  0
    9.7206   -0.5869   22.3499 C   0  0  0  0  0  0  0  0  0  0  0  0
    9.0520    0.0360   21.3940 C   0  0  0  0  0  0  0  0  0  0  0  0
    9.5235    1.0091   21.0041 O   0  0  0  0  0  0  0  0  0  0  0  0
    7.9123   -0.5773   21.1035 N   0  0  0  0  0  0  0  0  0  0  0  0
    7.1975   -0.1130   20.1692 C   0  0  0  0  0  0  0  0  0  0  0  0
    7.2599   -0.0384   18.8770 C   0  0  0  0  0  0  0  0  0  0  0  0
    6.7748    0.3003   17.7756 N   0  0  0  0  0  0  0  0  0  0  0  0
    5.6604    0.8788   18.2078 C   0  0  0  0  0  0  0  0  0  0  0  0
    5.2649    0.9821   19.3552 C   0  0  0  0  0  0  0  0  0  0  0  0
    5.8123    0.5649   20.5128 C   0  0  0  0  0  0  0  0  0  0  0  0
    5.2918    0.7208   21.9631 C   0  0  0  0  0  0  0  0  0  0  0  0
 20 21  2  0  0  0  0
 19 20  1  0  0  0  0
 21 22  1  0  0  0  0
 18 19  2  0  0  0  0
 22 23  2  0  0  0  0
 18 23  1  0  0  0  0
 17 18  1  0  0  0  0
 23 24  1  0  0  0  0
 15 16  2  0  0  0  0
 15 17  1  0  0  0  0
 14 15  1  0  0  0  0
  8 14  1  0  0  0  0
 12 13  1  0  0  0  0
  8 13  1  0  0  0  0
 11 12  2  0  0  0  0
  7  8  1  0  0  0  0
  8  9  1  0  0  0  0
 10 11  1  0  0  0  0
  6  7  2  3  0  0  0
  5  6  1  0  0  0  0
  9 10  2  0  0  0  0
  2  5  1  0  0  0  0
  2  3  2  0  0  0  0
  1  2  1  0  0  0  0
  2  4  2  0  0  0  0
M  END
> <Shapegauss>
-286.286133

$$$$
