stable:False satoms:7 tatoms:24 sratio:0.2916666666666667
  -OEChem-08062416533D

 45 46  0     1  0  0  0  0  0999 V2000
    5.9198   -5.1749   25.9524 C   0  0  0  0  0  0  0  0  0  0  0  0
    7.5417   -4.6615   25.8337 S   0  0  0  0  0  0  0  0  0  0  0  0
    8.4108   -5.8331   25.7633 O   0  0  0  0  0  0  0  0  0  0  0  0
    7.8437   -3.8822   27.0104 O   0  0  0  0  0  0  0  0  0  0  0  0
    7.6358   -3.7958   24.4787 N   0  0  0  0  0  0  0  0  0  0  0  0
    8.5728   -3.1212   24.1283 C   0  0  0  0  0  0  0  0  0  0  0  0
    9.1045   -2.1073   23.6039 C   0  0  0  0  0  0  0  0  0  0  0  0
   10.0067   -1.2665   23.5387 C   0  0  1  0  0  0  0  0  0  0  0  0
   10.5887   -0.2323   24.7240 C   0  0  0  0  0  0  0  0  0  0  0  0
   11.6447    0.0533   24.8323 C   0  0  0  0  0  0  0  0  0  0  0  0
   12.8149   -0.4216   24.0851 C   0  0  0  0  0  0  0  0  0  0  0  0
   12.4980   -1.3572   23.2155 C   0  0  0  0  0  0  0  0  0  0  0  0
   11.5718   -1.8437   22.8959 C   0  0  0  0  0  0  0  0  0  0  0  0
    9.5230   -0.6491   22.6053 C   0  0  0  0  0  0  0  0  0  0  0  0
    8.9726    0.0641   21.6372 C   0  0  0  0  0  0  0  0  0  0  0  0
    9.4922    1.0591   21.3893 O   0  0  0  0  0  0  0  0  0  0  0  0
    7.8697   -0.5032   21.1669 N   0  0  0  0  0  0  0  0  0  0  0  0
    7.2699    0.0509   20.2012 C   0  0  0  0  0  0  0  0  0  0  0  0
    7.4806    0.2345   18.9359 C   0  0  0  0  0  0  0  0  0  0  0  0
    7.1273    0.6740   17.8200 N   0  0  0  0  0  0  0  0  0  0  0  0
    5.9745    1.2318   18.1712 C   0  0  0  0  0  0  0  0  0  0  0  0
    5.4507    1.2433   19.2708 C   0  0  0  0  0  0  0  0  0  0  0  0
    5.8590    0.7198   20.4426 C   0  0  0  0  0  0  0  0  0  0  0  0
    5.1766    0.7598   21.8323 C   0  0  0  0  0  0  0  0  0  0  0  0
    5.7906   -5.7756   26.8648 H   0  0  0  0  0  0  0  0  0  0  0  0
    5.2594   -4.2962   25.9956 H   0  0  0  0  0  0  0  0  0  0  0  0
    5.6628   -5.7839   25.0732 H   0  0  0  0  0  0  0  0  0  0  0  0
    6.8599   -3.1660   24.5165 H   0  0  0  0  0  0  0  0  0  0  0  0
    9.4242   -3.7126   24.4310 H   0  0  0  0  0  0  0  0  0  0  0  0
    8.4287   -1.8347   22.8068 H   0  0  0  0  0  0  0  0  0  0  0  0
    9.8796    0.1801   25.4266 H   0  0  0  0  0  0  0  0  0  0  0  0
   11.8501    0.7876   25.5972 H   0  0  0  0  0  0  0  0  0  0  0  0
   13.8175   -0.0477   24.2315 H   0  0  0  0  0  0  0  0  0  0  0  0
   13.3619   -1.7367   22.6901 H   0  0  0  0  0  0  0  0  0  0  0  0
   11.5223   -1.7493   21.8011 H   0  0  0  0  0  0  0  0  0  0  0  0
   11.6577   -2.9058   23.1688 H   0  0  0  0  0  0  0  0  0  0  0  0
    9.0220   -1.5585   22.2422 H   0  0  0  0  0  0  0  0  0  0  0  0
   10.5114   -0.5606   22.1306 H   0  0  0  0  0  0  0  0  0  0  0  0
    7.5203   -1.3504   21.5671 H   0  0  0  0  0  0  0  0  0  0  0  0
    8.4436   -0.2193   18.7543 H   0  0  0  0  0  0  0  0  0  0  0  0
    5.4347    1.7379   17.3846 H   0  0  0  0  0  0  0  0  0  0  0  0
    4.5024    1.7582   19.3131 H   0  0  0  0  0  0  0  0  0  0  0  0
    4.5353   -0.1259   21.9522 H   0  0  0  0  0  0  0  0  0  0  0  0
    5.9460    0.7644   22.6184 H   0  0  0  0  0  0  0  0  0  0  0  0
    4.5638    1.6697   21.9137 H   0  0  0  0  0  0  0  0  0  0  0  0
 20 21  2  0  0  0  0
 19 20  1  0  0  0  0
 21 22  1  0  0  0  0
 18 19  2  0  0  0  0
 22 23  2  0  0  0  0
 18 23  1  0  0  0  0
 17 18  1  0  0  0  0
 23 24  1  0  0  0  0
 15 16  2  0  0  0  0
 15 17  1  0  0  0  0
 14 15  1  0  0  0  0
  8 14  1  0  0  0  0
 12 13  1  0  0  0  0
  8 13  1  0  0  0  0
 11 12  2  0  0  0  0
  7  8  1  0  0  0  0
  8  9  1  0  0  0  0
 10 11  1  0  0  0  0
  6  7  2  3  0  0  0
  5  6  1  0  0  0  0
  9 10  2  0  0  0  0
  2  5  1  0  0  0  0
  2  3  2  0  0  0  0
  1  2  1  0  0  0  0
  2  4  2  0  0  0  0
  1 25  1  0  0  0  0
  1 26  1  0  0  0  0
  1 27  1  0  0  0  0
  5 28  1  0  0  0  0
  6 29  1  0  0  0  0
  7 30  1  0  0  0  0
  9 31  1  0  0  0  0
 10 32  1  0  0  0  0
 11 33  1  0  0  0  0
 12 34  1  0  0  0  0
 13 35  1  0  0  0  0
 13 36  1  0  0  0  0
 14 37  1  0  0  0  0
 14 38  1  0  0  0  0
 17 39  1  0  0  0  0
 19 40  1  0  0  0  0
 21 41  1  0  0  0  0
 22 42  1  0  0  0  0
 24 43  1  0  0  0  0
 24 44  1  0  0  0  0
 24 45  1  0  0  0  0
M  END
> <Chemgauss4>
-12.661109

$$$$
