stable:False satoms:7 tatoms:24 sratio:0.2916666666666667
  -OEChem-08062416533D

 45 46  0     1  0  0  0  0  0999 V2000
   -5.7999   -5.3011  -25.7188 C   0  0  0  0  0  0  0  0  0  0  0  0
   -7.4218   -4.7877  -25.6000 S   0  0  0  0  0  0  0  0  0  0  0  0
   -8.2909   -5.9593  -25.5297 O   0  0  0  0  0  0  0  0  0  0  0  0
   -7.7238   -4.0084  -26.7767 O   0  0  0  0  0  0  0  0  0  0  0  0
   -7.5159   -3.9220  -24.2450 N   0  0  0  0  0  0  0  0  0  0  0  0
   -8.4529   -3.2474  -23.8946 C   0  0  0  0  0  0  0  0  0  0  0  0
   -8.9846   -2.2335  -23.3703 C   0  0  0  0  0  0  0  0  0  0  0  0
   -9.8868   -1.3927  -23.3051 C   0  0  1  0  0  0  0  0  0  0  0  0
  -10.4688   -0.3585  -24.4903 C   0  0  0  0  0  0  0  0  0  0  0  0
  -11.5249   -0.0729  -24.5987 C   0  0  0  0  0  0  0  0  0  0  0  0
  -12.6950   -0.5478  -23.8514 C   0  0  0  0  0  0  0  0  0  0  0  0
  -12.3782   -1.4834  -22.9819 C   0  0  0  0  0  0  0  0  0  0  0  0
  -11.4519   -1.9699  -22.6622 C   0  0  0  0  0  0  0  0  0  0  0  0
   -9.4031   -0.7753  -22.3716 C   0  0  0  0  0  0  0  0  0  0  0  0
   -8.8527   -0.0621  -21.4036 C   0  0  0  0  0  0  0  0  0  0  0  0
   -9.3723    0.9329  -21.1557 O   0  0  0  0  0  0  0  0  0  0  0  0
   -7.7498   -0.6294  -20.9333 N   0  0  0  0  0  0  0  0  0  0  0  0
   -7.1500   -0.0753  -19.9676 C   0  0  0  0  0  0  0  0  0  0  0  0
   -7.3607    0.1083  -18.7022 C   0  0  0  0  0  0  0  0  0  0  0  0
   -7.0074    0.5478  -17.5863 N   0  0  0  0  0  0  0  0  0  0  0  0
   -5.8546    1.1056  -17.9375 C   0  0  0  0  0  0  0  0  0  0  0  0
   -5.3308    1.1171  -19.0371 C   0  0  0  0  0  0  0  0  0  0  0  0
   -5.7391    0.5936  -20.2089 C   0  0  0  0  0  0  0  0  0  0  0  0
   -5.0567    0.6336  -21.5986 C   0  0  0  0  0  0  0  0  0  0  0  0
   -5.6708   -5.9018  -26.6312 H   0  0  0  0  0  0  0  0  0  0  0  0
   -5.1395   -4.4224  -25.7619 H   0  0  0  0  0  0  0  0  0  0  0  0
   -5.5429   -5.9101  -24.8395 H   0  0  0  0  0  0  0  0  0  0  0  0
   -6.7400   -3.2922  -24.2828 H   0  0  0  0  0  0  0  0  0  0  0  0
   -9.3043   -3.8388  -24.1974 H   0  0  0  0  0  0  0  0  0  0  0  0
   -8.3089   -1.9609  -22.5732 H   0  0  0  0  0  0  0  0  0  0  0  0
   -9.7597    0.0539  -25.1929 H   0  0  0  0  0  0  0  0  0  0  0  0
  -11.7302    0.6614  -25.3635 H   0  0  0  0  0  0  0  0  0  0  0  0
  -13.6976   -0.1739  -23.9978 H   0  0  0  0  0  0  0  0  0  0  0  0
  -13.2420   -1.8629  -22.4564 H   0  0  0  0  0  0  0  0  0  0  0  0
  -11.4024   -1.8755  -21.5674 H   0  0  0  0  0  0  0  0  0  0  0  0
  -11.5378   -3.0320  -22.9352 H   0  0  0  0  0  0  0  0  0  0  0  0
   -8.9021   -1.6847  -22.0085 H   0  0  0  0  0  0  0  0  0  0  0  0
  -10.3915   -0.6868  -21.8970 H   0  0  0  0  0  0  0  0  0  0  0  0
   -7.4004   -1.4766  -21.3335 H   0  0  0  0  0  0  0  0  0  0  0  0
   -8.3238   -0.3455  -18.5206 H   0  0  0  0  0  0  0  0  0  0  0  0
   -5.3148    1.6117  -17.1509 H   0  0  0  0  0  0  0  0  0  0  0  0
   -4.3825    1.6320  -19.0794 H   0  0  0  0  0  0  0  0  0  0  0  0
   -4.4154   -0.2520  -21.7185 H   0  0  0  0  0  0  0  0  0  0  0  0
   -5.8261    0.6382  -22.3848 H   0  0  0  0  0  0  0  0  0  0  0  0
   -4.4440    1.5435  -21.6800 H   0  0  0  0  0  0  0  0  0  0  0  0
 20 21  2  0  0  0  0
 19 20  1  0  0  0  0
 21 22  1  0  0  0  0
 18 19  2  0  0  0  0
 22 23  2  0  0  0  0
 18 23  1  0  0  0  0
 17 18  1  0  0  0  0
 23 24  1  0  0  0  0
 15 16  2  0  0  0  0
 15 17  1  0  0  0  0
 14 15  1  0  0  0  0
  8 14  1  0  0  0  0
 12 13  1  0  0  0  0
  8 13  1  0  0  0  0
 11 12  2  0  0  0  0
  7  8  1  0  0  0  0
  8  9  1  0  0  0  0
 10 11  1  0  0  0  0
  6  7  2  3  0  0  0
  5  6  1  0  0  0  0
  9 10  2  0  0  0  0
  2  5  1  0  0  0  0
  2  3  2  0  0  0  0
  1  2  1  0  0  0  0
  2  4  2  0  0  0  0
  1 25  1  0  0  0  0
  1 26  1  0  0  0  0
  1 27  1  0  0  0  0
  5 28  1  0  0  0  0
  6 29  1  0  0  0  0
  7 30  1  0  0  0  0
  9 31  1  0  0  0  0
 10 32  1  0  0  0  0
 11 33  1  0  0  0  0
 12 34  1  0  0  0  0
 13 35  1  0  0  0  0
 13 36  1  0  0  0  0
 14 37  1  0  0  0  0
 14 38  1  0  0  0  0
 17 39  1  0  0  0  0
 19 40  1  0  0  0  0
 21 41  1  0  0  0  0
 22 42  1  0  0  0  0
 24 43  1  0  0  0  0
 24 44  1  0  0  0  0
 24 45  1  0  0  0  0
M  END
> <Chemgauss4>
-12.665716

$$$$
