MODEL 1
REMARK VINA RESULT:    -4.523      0.000      0.000
REMARK INTER + INTRA:          -5.616
REMARK INTER:                  -5.316
REMARK INTRA:                  -0.300
REMARK UNBOUND:                -0.300
REMARK  3 active torsions:
REMARK  status: ('A' for Active; 'I' for Inactive)
REMARK    1  A    between atoms: S_1  and  C_4 
REMARK    2  A    between atoms: C_4  and  C_11 
REMARK    3  A    between atoms: N_5  and  C_8 
REMARK       I    between atoms: N_10  and  C_11 
ROOT
HETATM    1  H   UNL     1       5.985   0.988  21.452  1.00  0.00     0.160 HD
HETATM    2  C   UNL     1       7.107  -0.480  22.123  1.00  0.00     0.137 C 
HETATM    3  N   UNL     1       6.355   0.056  21.221  1.00  0.00    -0.375 N 
ENDROOT
BRANCH   2   4
HETATM    4  S   UNL     1       7.434   0.610  23.507  1.00  0.00    -0.111 SA
HETATM    5  C   UNL     1       8.684   0.482  24.809  1.00  0.00     0.097 C 
ENDBRANCH   2   4
BRANCH   2   6
HETATM    6  C   UNL     1       7.718  -1.948  22.208  1.00  0.00     0.306 C 
HETATM    7  N   UNL     1       7.044  -3.094  22.365  1.00  0.00    -0.186 N 
HETATM    8  S   UNL     1       5.453  -3.449  22.881  1.00  0.00     0.003 SA
HETATM    9  N   UNL     1       7.833  -4.224  22.237  1.00  0.00    -0.296 N 
HETATM   10  C   UNL     1       5.735  -5.043  22.126  1.00  0.00     0.088 C 
HETATM   11  C   UNL     1       7.084  -5.306  22.059  1.00  0.00     0.117 C 
ATOM     12  HN  UNL     1       8.852  -4.226  22.274  1.00  0.00     0.187 HD
HETATM   13  O   UNL     1       8.915  -2.096  22.199  1.00  0.00    -0.263 OA
ENDBRANCH   2   6
BRANCH   3  14
HETATM   14  C   UNL     1       5.990  -0.409  19.966  1.00  0.00     0.082 A 
HETATM   15  C   UNL     1       5.372   0.536  19.117  1.00  0.00     0.027 A 
HETATM   16  C   UNL     1       6.694  -0.054  18.789  1.00  0.00     0.027 A 
ENDBRANCH   3  14
TORSDOF 3
ENDMDL
MODEL 2
REMARK VINA RESULT:    -4.492      4.568      6.158
REMARK INTER + INTRA:          -5.580
REMARK INTER:                  -5.300
REMARK INTRA:                  -0.280
REMARK UNBOUND:                -0.300
REMARK  3 active torsions:
REMARK  status: ('A' for Active; 'I' for Inactive)
REMARK    1  A    between atoms: S_1  and  C_4 
REMARK    2  A    between atoms: C_4  and  C_11 
REMARK    3  A    between atoms: N_5  and  C_8 
REMARK       I    between atoms: N_10  and  C_11 
ROOT
HETATM    1  H   UNL     1       9.726   5.025  23.945  1.00  0.00     0.160 HD
HETATM    2  C   UNL     1       9.684   3.196  23.229  1.00  0.00     0.137 C 
HETATM    3  N   UNL     1      10.318   4.238  23.649  1.00  0.00    -0.375 N 
ENDROOT
BRANCH   2   4
HETATM    4  S   UNL     1       7.906   3.334  23.403  1.00  0.00    -0.111 SA
HETATM    5  C   UNL     1       6.651   3.742  22.165  1.00  0.00     0.097 C 
ENDBRANCH   2   4
BRANCH   2   6
HETATM    6  C   UNL     1      10.235   1.868  22.542  1.00  0.00     0.306 C 
HETATM    7  N   UNL     1      10.375   0.665  23.109  1.00  0.00    -0.186 N 
HETATM    8  S   UNL     1      10.404   0.140  24.737  1.00  0.00     0.003 SA
HETATM    9  N   UNL     1      10.722  -0.334  22.216  1.00  0.00    -0.296 N 
HETATM   10  C   UNL     1      10.091  -1.480  24.053  1.00  0.00     0.088 C 
HETATM   11  C   UNL     1      10.516  -1.534  22.745  1.00  0.00     0.117 C 
ATOM     12  HN  UNL     1      11.086  -0.170  21.278  1.00  0.00     0.187 HD
HETATM   13  O   UNL     1      10.642   1.912  21.407  1.00  0.00    -0.263 OA
ENDBRANCH   2   6
BRANCH   3  14
HETATM   14  C   UNL     1      11.679   4.459  23.801  1.00  0.00     0.082 A 
HETATM   15  C   UNL     1      12.276   5.303  22.838  1.00  0.00     0.027 A 
HETATM   16  C   UNL     1      12.203   5.688  24.269  1.00  0.00     0.027 A 
ENDBRANCH   3  14
TORSDOF 3
ENDMDL
MODEL 3
REMARK VINA RESULT:    -4.484     16.062     17.355
REMARK INTER + INTRA:          -5.571
REMARK INTER:                  -5.285
REMARK INTRA:                  -0.286
REMARK UNBOUND:                -0.300
REMARK  3 active torsions:
REMARK  status: ('A' for Active; 'I' for Inactive)
REMARK    1  A    between atoms: S_1  and  C_4 
REMARK    2  A    between atoms: C_4  and  C_11 
REMARK    3  A    between atoms: N_5  and  C_8 
REMARK       I    between atoms: N_10  and  C_11 
ROOT
HETATM    1  H   UNL     1      22.555  -1.919  26.709  1.00  0.00     0.160 HD
HETATM    2  C   UNL     1      23.511  -3.521  26.091  1.00  0.00     0.137 C 
HETATM    3  N   UNL     1      22.583  -2.632  25.968  1.00  0.00    -0.375 N 
ENDROOT
BRANCH   2   4
HETATM    4  S   UNL     1      24.617  -3.201  27.464  1.00  0.00    -0.111 SA
HETATM    5  C   UNL     1      24.254  -3.050  29.230  1.00  0.00     0.097 C 
ENDBRANCH   2   4
BRANCH   2   6
HETATM    6  C   UNL     1      23.770  -4.855  25.260  1.00  0.00     0.306 C 
HETATM    7  N   UNL     1      24.397  -4.963  24.083  1.00  0.00    -0.186 N 
HETATM    8  S   UNL     1      24.813  -3.826  22.876  1.00  0.00     0.003 SA
HETATM    9  N   UNL     1      24.614  -6.272  23.688  1.00  0.00    -0.296 N 
HETATM   10  C   UNL     1      25.943  -5.086  22.304  1.00  0.00     0.088 C 
HETATM   11  C   UNL     1      25.518  -6.328  22.716  1.00  0.00     0.117 C 
ATOM     12  HN  UNL     1      24.144  -7.083  24.088  1.00  0.00     0.187 HD
HETATM   13  O   UNL     1      23.317  -5.900  25.658  1.00  0.00    -0.263 OA
ENDBRANCH   2   6
BRANCH   3  14
HETATM   14  C   UNL     1      21.633  -2.461  24.972  1.00  0.00     0.082 A 
HETATM   15  C   UNL     1      20.610  -1.528  25.254  1.00  0.00     0.027 A 
HETATM   16  C   UNL     1      21.585  -1.303  24.158  1.00  0.00     0.027 A 
ENDBRANCH   3  14
TORSDOF 3
ENDMDL
MODEL 4
REMARK VINA RESULT:    -4.449      2.429      4.772
REMARK INTER + INTRA:          -5.529
REMARK INTER:                  -5.301
REMARK INTRA:                  -0.228
REMARK UNBOUND:                -0.300
REMARK  3 active torsions:
REMARK  status: ('A' for Active; 'I' for Inactive)
REMARK    1  A    between atoms: S_1  and  C_4 
REMARK    2  A    between atoms: C_4  and  C_11 
REMARK    3  A    between atoms: N_5  and  C_8 
REMARK       I    between atoms: N_10  and  C_11 
ROOT
HETATM    1  H   UNL     1       7.229  -5.033  24.129  1.00  0.00     0.160 HD
HETATM    2  C   UNL     1       8.234  -3.371  23.830  1.00  0.00     0.137 C 
HETATM    3  N   UNL     1       7.547  -4.376  23.403  1.00  0.00    -0.375 N 
ENDROOT
BRANCH   2   4
HETATM    4  S   UNL     1       8.340  -3.296  25.617  1.00  0.00    -0.111 SA
HETATM    5  C   UNL     1       8.437  -4.638  26.827  1.00  0.00     0.097 C 
ENDBRANCH   2   4
BRANCH   2   6
HETATM    6  C   UNL     1       9.029  -2.254  23.018  1.00  0.00     0.306 C 
HETATM    7  N   UNL     1       8.508  -1.286  22.257  1.00  0.00    -0.186 N 
HETATM    8  S   UNL     1       6.964  -1.056  21.559  1.00  0.00     0.003 SA
HETATM    9  N   UNL     1       9.441  -0.365  21.812  1.00  0.00    -0.296 N 
HETATM   10  C   UNL     1       7.472   0.647  21.384  1.00  0.00     0.088 C 
HETATM   11  C   UNL     1       8.845   0.734  21.365  1.00  0.00     0.117 C 
ATOM     12  HN  UNL     1      10.451  -0.511  21.827  1.00  0.00     0.187 HD
HETATM   13  O   UNL     1      10.235  -2.276  23.004  1.00  0.00    -0.263 OA
ENDBRANCH   2   6
BRANCH   3  14
HETATM   14  C   UNL     1       7.135  -4.700  22.118  1.00  0.00     0.082 A 
HETATM   15  C   UNL     1       7.129  -6.078  21.805  1.00  0.00     0.027 A 
HETATM   16  C   UNL     1       5.874  -5.286  21.849  1.00  0.00     0.027 A 
ENDBRANCH   3  14
TORSDOF 3
ENDMDL
MODEL 5
REMARK VINA RESULT:    -4.426     22.438     23.914
REMARK INTER + INTRA:          -5.502
REMARK INTER:                  -5.187
REMARK INTRA:                  -0.316
REMARK UNBOUND:                -0.300
REMARK  3 active torsions:
REMARK  status: ('A' for Active; 'I' for Inactive)
REMARK    1  A    between atoms: S_1  and  C_4 
REMARK    2  A    between atoms: C_4  and  C_11 
REMARK    3  A    between atoms: N_5  and  C_8 
REMARK       I    between atoms: N_10  and  C_11 
ROOT
HETATM    1  H   UNL     1       4.360  11.912   3.802  1.00  0.00     0.160 HD
HETATM    2  C   UNL     1       6.296  11.762   3.498  1.00  0.00     0.137 C 
HETATM    3  N   UNL     1       5.275  12.287   4.087  1.00  0.00    -0.375 N 
ENDROOT
BRANCH   2   4
HETATM    4  S   UNL     1       5.864  10.396   2.422  1.00  0.00    -0.111 SA
HETATM    5  C   UNL     1       4.838   8.942   2.752  1.00  0.00     0.097 C 
ENDBRANCH   2   4
BRANCH   2   6
HETATM    6  C   UNL     1       7.832  12.180   3.541  1.00  0.00     0.306 C 
HETATM    7  N   UNL     1       8.400  13.227   2.932  1.00  0.00    -0.186 N 
HETATM    8  S   UNL     1       7.893  14.251   1.660  1.00  0.00     0.003 SA
HETATM    9  N   UNL     1       9.722  13.428   3.289  1.00  0.00    -0.296 N 
HETATM   10  C   UNL     1       9.170  15.352   2.250  1.00  0.00     0.088 C 
HETATM   11  C   UNL     1      10.128  14.643   2.939  1.00  0.00     0.117 C 
ATOM     12  HN  UNL     1      10.306  12.737   3.760  1.00  0.00     0.187 HD
HETATM   13  O   UNL     1       8.623  11.477   4.120  1.00  0.00    -0.263 OA
ENDBRANCH   2   6
BRANCH   3  14
HETATM   14  C   UNL     1       5.212  13.259   5.075  1.00  0.00     0.082 A 
HETATM   15  C   UNL     1       5.253  14.597   4.624  1.00  0.00     0.027 A 
HETATM   16  C   UNL     1       4.053  14.042   5.299  1.00  0.00     0.027 A 
ENDBRANCH   3  14
TORSDOF 3
ENDMDL
MODEL 6
REMARK VINA RESULT:    -4.409      2.365      5.204
REMARK INTER + INTRA:          -5.482
REMARK INTER:                  -5.171
REMARK INTRA:                  -0.311
REMARK UNBOUND:                -0.300
REMARK  3 active torsions:
REMARK  status: ('A' for Active; 'I' for Inactive)
REMARK    1  A    between atoms: S_1  and  C_4 
REMARK    2  A    between atoms: C_4  and  C_11 
REMARK    3  A    between atoms: N_5  and  C_8 
REMARK       I    between atoms: N_10  and  C_11 
ROOT
HETATM    1  H   UNL     1      10.016  -3.248  22.754  1.00  0.00     0.160 HD
HETATM    2  C   UNL     1       8.405  -2.139  22.568  1.00  0.00     0.137 C 
HETATM    3  N   UNL     1       9.686  -2.283  22.618  1.00  0.00    -0.375 N 
ENDROOT
BRANCH   2   4
HETATM    4  S   UNL     1       7.518  -3.695  22.606  1.00  0.00    -0.111 SA
HETATM    5  C   UNL     1       5.957  -4.156  21.815  1.00  0.00     0.097 C 
ENDBRANCH   2   4
BRANCH   2   6
HETATM    6  C   UNL     1       7.523  -0.813  22.539  1.00  0.00     0.306 C 
HETATM    7  N   UNL     1       7.218  -0.070  21.468  1.00  0.00    -0.186 N 
HETATM    8  S   UNL     1       7.872   0.025  19.891  1.00  0.00     0.003 SA
HETATM    9  N   UNL     1       6.298   0.930  21.729  1.00  0.00    -0.296 N 
HETATM   10  C   UNL     1       6.339   0.842  19.477  1.00  0.00     0.088 C 
HETATM   11  C   UNL     1       5.780   1.403  20.602  1.00  0.00     0.117 C 
ATOM     12  HN  UNL     1       6.050   1.259  22.663  1.00  0.00     0.187 HD
HETATM   13  O   UNL     1       7.113  -0.349  23.574  1.00  0.00    -0.263 OA
ENDBRANCH   2   6
BRANCH   3  14
HETATM   14  C   UNL     1      10.700  -1.346  22.484  1.00  0.00     0.082 A 
HETATM   15  C   UNL     1      11.087  -0.684  23.671  1.00  0.00     0.027 A 
HETATM   16  C   UNL     1      12.020  -1.581  22.942  1.00  0.00     0.027 A 
ENDBRANCH   3  14
TORSDOF 3
ENDMDL
MODEL 7
REMARK VINA RESULT:    -4.403      2.632      4.992
REMARK INTER + INTRA:          -5.475
REMARK INTER:                  -5.184
REMARK INTRA:                  -0.291
REMARK UNBOUND:                -0.300
REMARK  3 active torsions:
REMARK  status: ('A' for Active; 'I' for Inactive)
REMARK    1  A    between atoms: S_1  and  C_4 
REMARK    2  A    between atoms: C_4  and  C_11 
REMARK    3  A    between atoms: N_5  and  C_8 
REMARK       I    between atoms: N_10  and  C_11 
ROOT
HETATM    1  H   UNL     1       5.580  -0.542  21.069  1.00  0.00     0.160 HD
HETATM    2  C   UNL     1       7.346   0.058  21.686  1.00  0.00     0.137 C 
HETATM    3  N   UNL     1       6.310   0.168  20.925  1.00  0.00    -0.375 N 
ENDROOT
BRANCH   2   4
HETATM    4  S   UNL     1       7.187  -1.237  22.913  1.00  0.00    -0.111 SA
HETATM    5  C   UNL     1       8.265  -2.651  23.249  1.00  0.00     0.097 C 
ENDBRANCH   2   4
BRANCH   2   6
HETATM    6  C   UNL     1       8.731   0.845  21.652  1.00  0.00     0.306 C 
HETATM    7  N   UNL     1       9.063   1.924  22.370  1.00  0.00    -0.186 N 
HETATM    8  S   UNL     1       8.144   3.064  23.253  1.00  0.00     0.003 SA
HETATM    9  N   UNL     1      10.394   2.285  22.247  1.00  0.00    -0.296 N 
HETATM   10  C   UNL     1       9.699   3.474  24.033  1.00  0.00     0.088 C 
HETATM   11  C   UNL     1      10.748   3.123  23.215  1.00  0.00     0.117 C 
ATOM     12  HN  UNL     1      11.018   1.952  21.513  1.00  0.00     0.187 HD
HETATM   13  O   UNL     1       9.584   0.512  20.867  1.00  0.00    -0.263 OA
ENDBRANCH   2   6
BRANCH   3  14
HETATM   14  C   UNL     1       6.002   1.117  19.961  1.00  0.00     0.082 A 
HETATM   15  C   UNL     1       6.157   0.703  18.620  1.00  0.00     0.027 A 
HETATM   16  C   UNL     1       4.825   1.049  19.176  1.00  0.00     0.027 A 
ENDBRANCH   3  14
TORSDOF 3
ENDMDL
MODEL 8
REMARK VINA RESULT:    -4.291     20.961     23.177
REMARK INTER + INTRA:          -5.344
REMARK INTER:                  -5.202
REMARK INTRA:                  -0.142
REMARK UNBOUND:                -0.300
REMARK  3 active torsions:
REMARK  status: ('A' for Active; 'I' for Inactive)
REMARK    1  A    between atoms: S_1  and  C_4 
REMARK    2  A    between atoms: C_4  and  C_11 
REMARK    3  A    between atoms: N_5  and  C_8 
REMARK       I    between atoms: N_10  and  C_11 
ROOT
HETATM    1  H   UNL     1       0.771 -22.194   8.527  1.00  0.00     0.160 HD
HETATM    2  C   UNL     1       0.480 -20.282   8.876  1.00  0.00     0.137 C 
HETATM    3  N   UNL     1       1.250 -21.310   8.746  1.00  0.00    -0.375 N 
ENDROOT
BRANCH   2   4
HETATM    4  S   UNL     1      -1.236 -20.633   8.499  1.00  0.00    -0.111 SA
HETATM    5  C   UNL     1      -2.646 -20.841   9.614  1.00  0.00     0.097 C 
ENDBRANCH   2   4
BRANCH   2   6
HETATM    6  C   UNL     1       0.818 -18.805   9.368  1.00  0.00     0.306 C 
HETATM    7  N   UNL     1       0.454 -17.658   8.785  1.00  0.00    -0.186 N 
HETATM    8  S   UNL     1      -0.128 -17.278   7.222  1.00  0.00     0.003 SA
HETATM    9  N   UNL     1       0.753 -16.533   9.535  1.00  0.00    -0.296 N 
HETATM   10  C   UNL     1      -0.665 -15.747   7.968  1.00  0.00     0.088 C 
HETATM   11  C   UNL     1       0.083 -15.476   9.091  1.00  0.00     0.117 C 
ATOM     12  HN  UNL     1       1.401 -16.519  10.323  1.00  0.00     0.187 HD
HETATM   13  O   UNL     1       1.527 -18.647  10.331  1.00  0.00    -0.263 OA
ENDBRANCH   2   6
BRANCH   3  14
HETATM   14  C   UNL     1       2.631 -21.411   8.818  1.00  0.00     0.082 A 
HETATM   15  C   UNL     1       3.229 -22.319   7.916  1.00  0.00     0.027 A 
HETATM   16  C   UNL     1       3.487 -20.860   7.834  1.00  0.00     0.027 A 
ENDBRANCH   3  14
TORSDOF 3
ENDMDL
MODEL 9
REMARK VINA RESULT:    -4.222     16.470     17.687
REMARK INTER + INTRA:          -5.263
REMARK INTER:                  -4.928
REMARK INTRA:                  -0.335
REMARK UNBOUND:                -0.300
REMARK  3 active torsions:
REMARK  status: ('A' for Active; 'I' for Inactive)
REMARK    1  A    between atoms: S_1  and  C_4 
REMARK    2  A    between atoms: C_4  and  C_11 
REMARK    3  A    between atoms: N_5  and  C_8 
REMARK       I    between atoms: N_10  and  C_11 
ROOT
HETATM    1  H   UNL     1      24.730  -5.492  23.448  1.00  0.00     0.160 HD
HETATM    2  C   UNL     1      23.842  -3.837  24.025  1.00  0.00     0.137 C 
HETATM    3  N   UNL     1      24.107  -5.092  24.162  1.00  0.00    -0.375 N 
ENDROOT
BRANCH   2   4
HETATM    4  S   UNL     1      24.751  -3.066  22.687  1.00  0.00    -0.111 SA
HETATM    5  C   UNL     1      24.143  -2.303  21.163  1.00  0.00     0.097 C 
ENDBRANCH   2   4
BRANCH   2   6
HETATM    6  C   UNL     1      22.806  -2.915  24.810  1.00  0.00     0.306 C 
HETATM    7  N   UNL     1      22.998  -2.310  25.988  1.00  0.00    -0.186 N 
HETATM    8  S   UNL     1      24.143  -2.530  27.238  1.00  0.00     0.003 SA
HETATM    9  N   UNL     1      21.979  -1.442  26.339  1.00  0.00    -0.296 N 
HETATM   10  C   UNL     1      23.632  -0.904  27.775  1.00  0.00     0.088 C 
HETATM   11  C   UNL     1      22.365  -0.629  27.315  1.00  0.00     0.117 C 
ATOM     12  HN  UNL     1      21.055  -1.428  25.906  1.00  0.00     0.187 HD
HETATM   13  O   UNL     1      21.693  -2.765  24.371  1.00  0.00    -0.263 OA
ENDBRANCH   2   6
BRANCH   3  14
HETATM   14  C   UNL     1      23.713  -5.989  25.144  1.00  0.00     0.082 A 
HETATM   15  C   UNL     1      24.365  -7.242  25.129  1.00  0.00     0.027 A 
HETATM   16  C   UNL     1      24.525  -6.298  26.263  1.00  0.00     0.027 A 
ENDBRANCH   3  14
TORSDOF 3
ENDMDL
