MODEL 1
REMARK VINA RESULT:    -6.920      0.000      0.000
REMARK INTER + INTRA:         -10.466
REMARK INTER:                  -9.549
REMARK INTRA:                  -0.917
REMARK UNBOUND:                -0.917
REMARK  8 active torsions:
REMARK  status: ('A' for Active; 'I' for Inactive)
REMARK    1  A    between atoms: S_2  and  N_5 
REMARK    2  A    between atoms: N_5  and  C_7 
REMARK    3  A    between atoms: C_9  and  C_10 
REMARK    4  A    between atoms: C_10  and  C_11 
REMARK    5  A    between atoms: C_11  and  C_12 
REMARK    6  A    between atoms: C_12  and  C_13 
REMARK    7  A    between atoms: C_15  and  C_16 
REMARK       I    between atoms: C_16  and  N_18 
REMARK    8  A    between atoms: N_18  and  C_20 
ROOT
HETATM    1  C   UNL     1       6.719  -0.688  21.182  1.00  0.00     0.108 C 
HETATM    2  C   UNL     1       7.242  -1.149  22.220  1.00  0.00    -0.017 A 
HETATM    3  C   UNL     1       8.248  -1.342  22.921  1.00  0.00     0.082 A 
HETATM    4  C   UNL     1       7.640  -1.971  23.744  1.00  0.00     0.031 A 
ENDROOT
BRANCH   4   5
HETATM    5  C   UNL     1       6.991  -2.741  24.633  1.00  0.00     0.253 C 
HETATM    6  O   UNL     1       6.479  -2.209  25.497  1.00  0.00    -0.268 OA
HETATM    7  N   UNL     1       7.073  -4.016  24.359  1.00  0.00    -0.321 N 
ATOM      8  HN  UNL     1       7.626  -4.327  23.560  1.00  0.00     0.169 HD
BRANCH   7   9
HETATM    9  C   UNL     1       6.478  -4.863  25.068  1.00  0.00     0.056 A 
HETATM   10  C   UNL     1       6.694  -5.483  26.213  1.00  0.00     0.117 A 
HETATM   11  N   UNL     1       6.377  -6.259  27.073  1.00  0.00    -0.373 N 
HETATM   12  C   UNL     1       5.200  -6.712  26.513  1.00  0.00     0.088 A 
ATOM     13  HN  UNL     1       6.837  -6.507  27.949  1.00  0.00     0.164 HD
HETATM   14  C   UNL     1       4.683  -6.323  25.524  1.00  0.00     0.026 A 
HETATM   15  C   UNL     1       5.085  -5.414  24.614  1.00  0.00    -0.033 A 
HETATM   16  C   UNL     1       4.419  -4.943  23.309  1.00  0.00     0.050 C 
ENDBRANCH   7   9
ENDBRANCH   4   5
BRANCH   3  17
HETATM   17  C   UNL     1       9.784  -1.994  22.556  1.00  0.00    -0.016 C 
BRANCH  17  18
HETATM   18  C   UNL     1      10.680  -1.371  22.550  1.00  0.00    -0.026 C 
BRANCH  18  19
HETATM   19  C   UNL     1      11.765  -1.282  23.263  1.00  0.00     0.053 C 
BRANCH  19  20
HETATM   20  C   UNL     1      11.826   0.053  24.050  1.00  0.00    -0.033 C 
HETATM   21  C   UNL     1      11.330   0.274  24.864  1.00  0.00     0.007 C 
ENDBRANCH  19  20
ENDBRANCH  18  19
ENDBRANCH  17  18
ENDBRANCH   3  17
BRANCH   1  22
HETATM   22  N   UNL     1       5.956  -0.770  20.192  1.00  0.00    -0.295 N 
ATOM     23  HN  UNL     1       5.188  -1.440  20.234  1.00  0.00     0.177 HD
BRANCH  22  24
HETATM   24  S   UNL     1       6.114   0.128  18.841  1.00  0.00     0.226 S 
HETATM   25  C   UNL     1       5.108   1.492  19.162  1.00  0.00     0.186 C 
HETATM   26  O   UNL     1       7.462   0.621  18.668  1.00  0.00    -0.206 OA
HETATM   27  O   UNL     1       5.603  -0.501  17.670  1.00  0.00    -0.206 OA
ENDBRANCH  22  24
ENDBRANCH   1  22
TORSDOF 8
ENDMDL
MODEL 2
REMARK VINA RESULT:    -6.636     14.708     17.783
REMARK INTER + INTRA:         -10.075
REMARK INTER:                  -9.207
REMARK INTRA:                  -0.868
REMARK UNBOUND:                -0.917
REMARK  8 active torsions:
REMARK  status: ('A' for Active; 'I' for Inactive)
REMARK    1  A    between atoms: S_2  and  N_5 
REMARK    2  A    between atoms: N_5  and  C_7 
REMARK    3  A    between atoms: C_9  and  C_10 
REMARK    4  A    between atoms: C_10  and  C_11 
REMARK    5  A    between atoms: C_11  and  C_12 
REMARK    6  A    between atoms: C_12  and  C_13 
REMARK    7  A    between atoms: C_15  and  C_16 
REMARK       I    between atoms: C_16  and  N_18 
REMARK    8  A    between atoms: N_18  and  C_20 
ROOT
HETATM    1  C   UNL     1      24.051  -3.484  24.476  1.00  0.00     0.108 C 
HETATM    2  C   UNL     1      24.006  -2.636  23.557  1.00  0.00    -0.017 A 
HETATM    3  C   UNL     1      24.129  -1.463  23.171  1.00  0.00     0.082 A 
HETATM    4  C   UNL     1      23.781  -1.720  22.052  1.00  0.00     0.031 A 
ENDROOT
BRANCH   4   5
HETATM    5  C   UNL     1      23.321  -1.976  20.816  1.00  0.00     0.253 C 
HETATM    6  O   UNL     1      22.194  -2.013  20.682  1.00  0.00    -0.268 OA
HETATM    7  N   UNL     1      24.278  -2.165  19.945  1.00  0.00    -0.321 N 
ATOM      8  HN  UNL     1      25.251  -2.147  20.253  1.00  0.00     0.169 HD
BRANCH   7   9
HETATM    9  C   UNL     1      24.014  -2.367  18.736  1.00  0.00     0.056 A 
HETATM   10  C   UNL     1      23.547  -1.664  17.721  1.00  0.00     0.117 A 
HETATM   11  N   UNL     1      23.209  -1.557  16.574  1.00  0.00    -0.373 N 
HETATM   12  C   UNL     1      23.412  -2.864  16.180  1.00  0.00     0.088 A 
ATOM     13  HN  UNL     1      22.873  -0.749  16.051  1.00  0.00     0.164 HD
HETATM   14  C   UNL     1      23.880  -3.739  16.823  1.00  0.00     0.026 A 
HETATM   15  C   UNL     1      24.273  -3.779  18.111  1.00  0.00    -0.033 A 
HETATM   16  C   UNL     1      24.845  -4.937  18.948  1.00  0.00     0.050 C 
ENDBRANCH   7   9
ENDBRANCH   4   5
BRANCH   3  17
HETATM   17  C   UNL     1      23.492   0.006  23.768  1.00  0.00    -0.016 C 
BRANCH  17  18
HETATM   18  C   UNL     1      22.952   0.050  24.715  1.00  0.00    -0.026 C 
BRANCH  18  19
HETATM   19  C   UNL     1      21.713   0.210  25.082  1.00  0.00     0.053 C 
BRANCH  19  20
HETATM   20  C   UNL     1      20.806  -0.931  24.550  1.00  0.00    -0.033 C 
HETATM   21  C   UNL     1      20.487  -1.706  25.055  1.00  0.00     0.007 C 
ENDBRANCH  19  20
ENDBRANCH  18  19
ENDBRANCH  17  18
ENDBRANCH   3  17
BRANCH   1  22
HETATM   22  N   UNL     1      23.587  -4.458  25.110  1.00  0.00    -0.295 N 
ATOM     23  HN  UNL     1      22.723  -4.321  25.635  1.00  0.00     0.177 HD
BRANCH  22  24
HETATM   24  S   UNL     1      24.279  -5.935  25.149  1.00  0.00     0.226 S 
HETATM   25  C   UNL     1      25.942  -5.575  25.437  1.00  0.00     0.186 C 
HETATM   26  O   UNL     1      23.813  -6.727  26.264  1.00  0.00    -0.206 OA
HETATM   27  O   UNL     1      24.212  -6.633  23.910  1.00  0.00    -0.206 OA
ENDBRANCH  22  24
ENDBRANCH   1  22
TORSDOF 8
ENDMDL
MODEL 3
REMARK VINA RESULT:    -6.423     14.806     17.849
REMARK INTER + INTRA:          -9.781
REMARK INTER:                  -8.925
REMARK INTRA:                  -0.855
REMARK UNBOUND:                -0.917
REMARK  8 active torsions:
REMARK  status: ('A' for Active; 'I' for Inactive)
REMARK    1  A    between atoms: S_2  and  N_5 
REMARK    2  A    between atoms: N_5  and  C_7 
REMARK    3  A    between atoms: C_9  and  C_10 
REMARK    4  A    between atoms: C_10  and  C_11 
REMARK    5  A    between atoms: C_11  and  C_12 
REMARK    6  A    between atoms: C_12  and  C_13 
REMARK    7  A    between atoms: C_15  and  C_16 
REMARK       I    between atoms: C_16  and  N_18 
REMARK    8  A    between atoms: N_18  and  C_20 
ROOT
HETATM    1  C   UNL     1      23.963  -3.590  24.374  1.00  0.00     0.108 C 
HETATM    2  C   UNL     1      23.955  -2.718  23.477  1.00  0.00    -0.017 A 
HETATM    3  C   UNL     1      24.095  -1.536  23.127  1.00  0.00     0.082 A 
HETATM    4  C   UNL     1      23.790  -1.762  21.989  1.00  0.00     0.031 A 
ENDROOT
BRANCH   4   5
HETATM    5  C   UNL     1      23.378  -1.985  20.729  1.00  0.00     0.253 C 
HETATM    6  O   UNL     1      22.257  -2.051  20.558  1.00  0.00    -0.268 OA
HETATM    7  N   UNL     1      24.367  -2.111  19.884  1.00  0.00    -0.321 N 
ATOM      8  HN  UNL     1      25.329  -2.076  20.224  1.00  0.00     0.169 HD
BRANCH   7   9
HETATM    9  C   UNL     1      24.148  -2.275  18.661  1.00  0.00     0.056 A 
HETATM   10  C   UNL     1      24.004  -3.295  17.835  1.00  0.00     0.117 A 
HETATM   11  N   UNL     1      23.814  -3.753  16.742  1.00  0.00    -0.373 N 
HETATM   12  C   UNL     1      23.738  -2.570  16.036  1.00  0.00     0.088 A 
ATOM     13  HN  UNL     1      23.733  -4.721  16.430  1.00  0.00     0.164 HD
HETATM   14  C   UNL     1      23.764  -1.473  16.477  1.00  0.00     0.026 A 
HETATM   15  C   UNL     1      23.950  -1.028  17.735  1.00  0.00    -0.033 A 
HETATM   16  C   UNL     1      24.021   0.406  18.289  1.00  0.00     0.050 C 
ENDBRANCH   7   9
ENDBRANCH   4   5
BRANCH   3  17
HETATM   17  C   UNL     1      23.438  -0.082  23.737  1.00  0.00    -0.016 C 
BRANCH  17  18
HETATM   18  C   UNL     1      22.948  -0.042  24.711  1.00  0.00    -0.026 C 
BRANCH  18  19
HETATM   19  C   UNL     1      21.747   0.205  25.147  1.00  0.00     0.053 C 
BRANCH  19  20
HETATM   20  C   UNL     1      20.727  -0.852  24.649  1.00  0.00    -0.033 C 
HETATM   21  C   UNL     1      20.613  -1.761  24.993  1.00  0.00     0.007 C 
ENDBRANCH  19  20
ENDBRANCH  18  19
ENDBRANCH  17  18
ENDBRANCH   3  17
BRANCH   1  22
HETATM   22  N   UNL     1      23.473  -4.580  24.964  1.00  0.00    -0.295 N 
ATOM     23  HN  UNL     1      22.539  -4.486  25.363  1.00  0.00     0.177 HD
BRANCH  22  24
HETATM   24  S   UNL     1      24.237  -6.010  25.134  1.00  0.00     0.226 S 
HETATM   25  C   UNL     1      25.887  -5.547  25.333  1.00  0.00     0.186 C 
HETATM   26  O   UNL     1      23.839  -6.702  26.340  1.00  0.00    -0.206 OA
HETATM   27  O   UNL     1      24.172  -6.837  23.978  1.00  0.00    -0.206 OA
ENDBRANCH  22  24
ENDBRANCH   1  22
TORSDOF 8
ENDMDL
MODEL 4
REMARK VINA RESULT:    -6.373      2.777      3.501
REMARK INTER + INTRA:          -9.712
REMARK INTER:                  -8.916
REMARK INTRA:                  -0.795
REMARK UNBOUND:                -0.917
REMARK  8 active torsions:
REMARK  status: ('A' for Active; 'I' for Inactive)
REMARK    1  A    between atoms: S_2  and  N_5 
REMARK    2  A    between atoms: N_5  and  C_7 
REMARK    3  A    between atoms: C_9  and  C_10 
REMARK    4  A    between atoms: C_10  and  C_11 
REMARK    5  A    between atoms: C_11  and  C_12 
REMARK    6  A    between atoms: C_12  and  C_13 
REMARK    7  A    between atoms: C_15  and  C_16 
REMARK       I    between atoms: C_16  and  N_18 
REMARK    8  A    between atoms: N_18  and  C_20 
ROOT
HETATM    1  C   UNL     1       7.330   1.632  21.833  1.00  0.00     0.108 C 
HETATM    2  C   UNL     1       8.182   1.209  22.646  1.00  0.00    -0.017 A 
HETATM    3  C   UNL     1       9.175   1.412  23.363  1.00  0.00     0.082 A 
HETATM    4  C   UNL     1       9.246   0.265  23.709  1.00  0.00     0.031 A 
ENDROOT
BRANCH   4   5
HETATM    5  C   UNL     1       9.386  -1.028  24.047  1.00  0.00     0.253 C 
HETATM    6  O   UNL     1      10.398  -1.506  23.850  1.00  0.00    -0.268 OA
HETATM    7  N   UNL     1       8.294  -1.545  24.546  1.00  0.00    -0.321 N 
ATOM      8  HN  UNL     1       7.447  -0.979  24.603  1.00  0.00     0.169 HD
BRANCH   7   9
HETATM    9  C   UNL     1       8.275  -2.730  24.955  1.00  0.00     0.056 A 
HETATM   10  C   UNL     1       8.508  -3.362  26.090  1.00  0.00     0.117 A 
HETATM   11  N   UNL     1       8.580  -4.363  26.750  1.00  0.00    -0.373 N 
HETATM   12  C   UNL     1       8.277  -5.278  25.763  1.00  0.00     0.088 A 
ATOM     13  HN  UNL     1       8.798  -4.496  27.737  1.00  0.00     0.164 HD
HETATM   14  C   UNL     1       7.956  -5.047  24.649  1.00  0.00     0.026 A 
HETATM   15  C   UNL     1       7.864  -3.882  23.977  1.00  0.00    -0.033 A 
HETATM   16  C   UNL     1       7.483  -3.598  22.514  1.00  0.00     0.050 C 
ENDBRANCH   7   9
ENDBRANCH   4   5
BRANCH   3  17
HETATM   17  C   UNL     1      10.692   2.125  23.035  1.00  0.00    -0.016 C 
BRANCH  17  18
HETATM   18  C   UNL     1      11.109   2.899  23.680  1.00  0.00    -0.026 C 
BRANCH  18  19
HETATM   19  C   UNL     1      11.533   4.120  23.526  1.00  0.00     0.053 C 
BRANCH  19  20
HETATM   20  C   UNL     1      10.514   5.154  24.074  1.00  0.00    -0.033 C 
HETATM   21  C   UNL     1      10.471   6.106  23.851  1.00  0.00     0.007 C 
ENDBRANCH  19  20
ENDBRANCH  18  19
ENDBRANCH  17  18
ENDBRANCH   3  17
BRANCH   1  22
HETATM   22  N   UNL     1       6.651   1.534  20.786  1.00  0.00    -0.295 N 
ATOM     23  HN  UNL     1       5.875   2.183  20.655  1.00  0.00     0.177 HD
BRANCH  22  24
HETATM   24  S   UNL     1       6.929   0.430  19.618  1.00  0.00     0.226 S 
HETATM   25  C   UNL     1       6.069  -0.955  20.182  1.00  0.00     0.186 C 
HETATM   26  O   UNL     1       6.341   0.813  18.354  1.00  0.00    -0.206 OA
HETATM   27  O   UNL     1       8.296   0.052  19.499  1.00  0.00    -0.206 OA
ENDBRANCH  22  24
ENDBRANCH   1  22
TORSDOF 8
ENDMDL
MODEL 5
REMARK VINA RESULT:    -6.282     24.231     27.166
REMARK INTER + INTRA:          -9.586
REMARK INTER:                  -8.813
REMARK INTRA:                  -0.773
REMARK UNBOUND:                -0.917
REMARK  8 active torsions:
REMARK  status: ('A' for Active; 'I' for Inactive)
REMARK    1  A    between atoms: S_2  and  N_5 
REMARK    2  A    between atoms: N_5  and  C_7 
REMARK    3  A    between atoms: C_9  and  C_10 
REMARK    4  A    between atoms: C_10  and  C_11 
REMARK    5  A    between atoms: C_11  and  C_12 
REMARK    6  A    between atoms: C_12  and  C_13 
REMARK    7  A    between atoms: C_15  and  C_16 
REMARK       I    between atoms: C_16  and  N_18 
REMARK    8  A    between atoms: N_18  and  C_20 
ROOT
HETATM    1  C   UNL     1      10.300  15.119   3.671  1.00  0.00     0.108 C 
HETATM    2  C   UNL     1       9.511  15.042   2.703  1.00  0.00    -0.017 A 
HETATM    3  C   UNL     1       9.011  15.543   1.683  1.00  0.00     0.082 A 
HETATM    4  C   UNL     1       8.262  14.621   1.513  1.00  0.00     0.031 A 
ENDROOT
BRANCH   4   5
HETATM    5  C   UNL     1       7.366  13.633   1.351  1.00  0.00     0.253 C 
HETATM    6  O   UNL     1       7.410  13.052   0.375  1.00  0.00    -0.268 OA
HETATM    7  N   UNL     1       6.553  13.510   2.367  1.00  0.00    -0.321 N 
ATOM      8  HN  UNL     1       6.622  14.160   3.150  1.00  0.00     0.169 HD
BRANCH   7   9
HETATM    9  C   UNL     1       5.689  12.601   2.391  1.00  0.00     0.056 A 
HETATM   10  C   UNL     1       4.497  12.390   1.864  1.00  0.00     0.117 A 
HETATM   11  N   UNL     1       3.516  11.719   1.702  1.00  0.00    -0.373 N 
HETATM   12  C   UNL     1       3.855  10.662   2.521  1.00  0.00     0.088 A 
ATOM     13  HN  UNL     1       2.684  11.881   1.133  1.00  0.00     0.164 HD
HETATM   14  C   UNL     1       4.876  10.503   3.095  1.00  0.00     0.026 A 
HETATM   15  C   UNL     1       5.962  11.293   3.207  1.00  0.00    -0.033 A 
HETATM   16  C   UNL     1       7.271  11.090   3.990  1.00  0.00     0.050 C 
ENDBRANCH   7   9
ENDBRANCH   4   5
BRANCH   3  17
HETATM   17  C   UNL     1       8.299  17.068   1.394  1.00  0.00    -0.016 C 
BRANCH  17  18
HETATM   18  C   UNL     1       8.775  17.806   0.748  1.00  0.00    -0.026 C 
BRANCH  18  19
HETATM   19  C   UNL     1       8.374  18.720  -0.088  1.00  0.00     0.053 C 
BRANCH  19  20
HETATM   20  C   UNL     1       9.129  20.059   0.120  1.00  0.00    -0.033 C 
HETATM   21  C   UNL     1       9.854  20.227   0.756  1.00  0.00     0.007 C 
ENDBRANCH  19  20
ENDBRANCH  18  19
ENDBRANCH  17  18
ENDBRANCH   3  17
BRANCH   1  22
HETATM   22  N   UNL     1      10.586  14.986   4.883  1.00  0.00    -0.295 N 
ATOM     23  HN  UNL     1      11.227  14.237   5.144  1.00  0.00     0.177 HD
BRANCH  22  24
HETATM   24  S   UNL     1       9.996  15.936   6.069  1.00  0.00     0.226 S 
HETATM   25  C   UNL     1      10.724  17.465   5.739  1.00  0.00     0.186 C 
HETATM   26  O   UNL     1       8.565  16.112   5.967  1.00  0.00    -0.206 OA
HETATM   27  O   UNL     1      10.412  15.550   7.375  1.00  0.00    -0.206 OA
ENDBRANCH  22  24
ENDBRANCH   1  22
TORSDOF 8
ENDMDL
MODEL 6
REMARK VINA RESULT:    -6.198      4.198      8.692
REMARK INTER + INTRA:          -9.470
REMARK INTER:                  -8.696
REMARK INTRA:                  -0.774
REMARK UNBOUND:                -0.917
REMARK  8 active torsions:
REMARK  status: ('A' for Active; 'I' for Inactive)
REMARK    1  A    between atoms: S_2  and  N_5 
REMARK    2  A    between atoms: N_5  and  C_7 
REMARK    3  A    between atoms: C_9  and  C_10 
REMARK    4  A    between atoms: C_10  and  C_11 
REMARK    5  A    between atoms: C_11  and  C_12 
REMARK    6  A    between atoms: C_12  and  C_13 
REMARK    7  A    between atoms: C_15  and  C_16 
REMARK       I    between atoms: C_16  and  N_18 
REMARK    8  A    between atoms: N_18  and  C_20 
ROOT
HETATM    1  C   UNL     1       5.365  -6.199  27.016  1.00  0.00     0.108 C 
HETATM    2  C   UNL     1       5.677  -5.566  25.984  1.00  0.00    -0.017 A 
HETATM    3  C   UNL     1       5.390  -5.155  24.848  1.00  0.00     0.082 A 
HETATM    4  C   UNL     1       6.473  -4.665  24.676  1.00  0.00     0.031 A 
ENDROOT
BRANCH   4   5
HETATM    5  C   UNL     1       7.702  -4.177  24.437  1.00  0.00     0.253 C 
HETATM    6  O   UNL     1       8.567  -4.912  24.492  1.00  0.00    -0.268 OA
HETATM    7  N   UNL     1       7.702  -2.894  24.191  1.00  0.00    -0.321 N 
ATOM      8  HN  UNL     1       6.827  -2.371  24.236  1.00  0.00     0.169 HD
BRANCH   7   9
HETATM    9  C   UNL     1       8.766  -2.297  23.901  1.00  0.00     0.056 A 
HETATM   10  C   UNL     1       9.579  -2.225  22.863  1.00  0.00     0.117 A 
HETATM   11  N   UNL     1      10.563  -1.808  22.317  1.00  0.00    -0.373 N 
HETATM   12  C   UNL     1      11.064  -1.048  23.353  1.00  0.00     0.088 A 
ATOM     13  HN  UNL     1      10.920  -1.968  21.374  1.00  0.00     0.164 HD
HETATM   14  C   UNL     1      10.555  -0.844  24.400  1.00  0.00     0.026 A 
HETATM   15  C   UNL     1       9.418  -1.324  24.941  1.00  0.00    -0.033 A 
HETATM   16  C   UNL     1       8.786  -1.081  26.322  1.00  0.00     0.050 C 
ENDBRANCH   7   9
ENDBRANCH   4   5
BRANCH   3  17
HETATM   17  C   UNL     1       4.771  -5.951  23.470  1.00  0.00    -0.016 C 
BRANCH  17  18
HETATM   18  C   UNL     1       3.764  -5.753  23.102  1.00  0.00    -0.026 C 
BRANCH  18  19
HETATM   19  C   UNL     1       2.576  -6.246  23.305  1.00  0.00     0.053 C 
BRANCH  19  20
HETATM   20  C   UNL     1       2.634  -7.553  24.139  1.00  0.00    -0.033 C 
HETATM   21  C   UNL     1       1.994  -8.293  24.109  1.00  0.00     0.007 C 
ENDBRANCH  19  20
ENDBRANCH  18  19
ENDBRANCH  17  18
ENDBRANCH   3  17
BRANCH   1  22
HETATM   22  N   UNL     1       5.606  -7.019  27.931  1.00  0.00    -0.295 N 
ATOM     23  HN  UNL     1       5.603  -8.012  27.698  1.00  0.00     0.177 HD
BRANCH  22  24
HETATM   24  S   UNL     1       5.925  -6.596  29.474  1.00  0.00     0.226 S 
HETATM   25  C   UNL     1       4.381  -6.715  30.234  1.00  0.00     0.186 C 
HETATM   26  O   UNL     1       6.798  -7.543  30.130  1.00  0.00    -0.206 OA
HETATM   27  O   UNL     1       6.361  -5.250  29.623  1.00  0.00    -0.206 OA
ENDBRANCH  22  24
ENDBRANCH   1  22
TORSDOF 8
ENDMDL
MODEL 7
REMARK VINA RESULT:    -6.190      4.691      8.505
REMARK INTER + INTRA:          -9.460
REMARK INTER:                  -8.627
REMARK INTRA:                  -0.833
REMARK UNBOUND:                -0.917
REMARK  8 active torsions:
REMARK  status: ('A' for Active; 'I' for Inactive)
REMARK    1  A    between atoms: S_2  and  N_5 
REMARK    2  A    between atoms: N_5  and  C_7 
REMARK    3  A    between atoms: C_9  and  C_10 
REMARK    4  A    between atoms: C_10  and  C_11 
REMARK    5  A    between atoms: C_11  and  C_12 
REMARK    6  A    between atoms: C_12  and  C_13 
REMARK    7  A    between atoms: C_15  and  C_16 
REMARK       I    between atoms: C_16  and  N_18 
REMARK    8  A    between atoms: N_18  and  C_20 
ROOT
HETATM    1  C   UNL     1       5.338  -6.454  28.360  1.00  0.00     0.108 C 
HETATM    2  C   UNL     1       5.675  -5.746  27.385  1.00  0.00    -0.017 A 
HETATM    3  C   UNL     1       5.526  -5.411  26.199  1.00  0.00     0.082 A 
HETATM    4  C   UNL     1       6.452  -4.648  26.225  1.00  0.00     0.031 A 
ENDROOT
BRANCH   4   5
HETATM    5  C   UNL     1       7.531  -3.847  26.216  1.00  0.00     0.253 C 
HETATM    6  O   UNL     1       8.453  -4.218  26.767  1.00  0.00    -0.268 OA
HETATM    7  N   UNL     1       7.331  -2.730  25.568  1.00  0.00    -0.321 N 
ATOM      8  HN  UNL     1       6.411  -2.533  25.173  1.00  0.00     0.169 HD
BRANCH   7   9
HETATM    9  C   UNL     1       8.257  -1.896  25.427  1.00  0.00     0.056 A 
HETATM   10  C   UNL     1       8.851  -0.981  26.170  1.00  0.00     0.117 A 
HETATM   11  N   UNL     1       9.665  -0.113  26.330  1.00  0.00    -0.373 N 
HETATM   12  C   UNL     1      10.197  -0.096  25.058  1.00  0.00     0.088 A 
ATOM     13  HN  UNL     1       9.893   0.443  27.155  1.00  0.00     0.164 HD
HETATM   14  C   UNL     1       9.937  -0.825  24.165  1.00  0.00     0.026 A 
HETATM   15  C   UNL     1       9.024  -1.812  24.064  1.00  0.00    -0.033 A 
HETATM   16  C   UNL     1       8.668  -2.729  22.882  1.00  0.00     0.050 C 
ENDBRANCH   7   9
ENDBRANCH   4   5
BRANCH   3  17
HETATM   17  C   UNL     1       5.431  -6.325  24.759  1.00  0.00    -0.016 C 
BRANCH  17  18
HETATM   18  C   UNL     1       4.860  -5.974  23.898  1.00  0.00    -0.026 C 
BRANCH  18  19
HETATM   19  C   UNL     1       5.131  -5.605  22.680  1.00  0.00     0.053 C 
BRANCH  19  20
HETATM   20  C   UNL     1       6.595  -5.940  22.292  1.00  0.00    -0.033 C 
HETATM   21  C   UNL     1       7.019  -5.787  21.423  1.00  0.00     0.007 C 
ENDBRANCH  19  20
ENDBRANCH  18  19
ENDBRANCH  17  18
ENDBRANCH   3  17
BRANCH   1  22
HETATM   22  N   UNL     1       5.597  -7.192  29.337  1.00  0.00    -0.295 N 
ATOM     23  HN  UNL     1       5.633  -8.199  29.181  1.00  0.00     0.177 HD
BRANCH  22  24
HETATM   24  S   UNL     1       5.880  -6.642  30.846  1.00  0.00     0.226 S 
HETATM   25  C   UNL     1       4.301  -6.584  31.539  1.00  0.00     0.186 C 
HETATM   26  O   UNL     1       6.657  -7.575  31.630  1.00  0.00    -0.206 OA
HETATM   27  O   UNL     1       6.402  -5.319  30.887  1.00  0.00    -0.206 OA
ENDBRANCH  22  24
ENDBRANCH   1  22
TORSDOF 8
ENDMDL
MODEL 8
REMARK VINA RESULT:    -6.041     24.354     28.394
REMARK INTER + INTRA:          -9.254
REMARK INTER:                  -8.342
REMARK INTRA:                  -0.911
REMARK UNBOUND:                -0.917
REMARK  8 active torsions:
REMARK  status: ('A' for Active; 'I' for Inactive)
REMARK    1  A    between atoms: S_2  and  N_5 
REMARK    2  A    between atoms: N_5  and  C_7 
REMARK    3  A    between atoms: C_9  and  C_10 
REMARK    4  A    between atoms: C_10  and  C_11 
REMARK    5  A    between atoms: C_11  and  C_12 
REMARK    6  A    between atoms: C_12  and  C_13 
REMARK    7  A    between atoms: C_15  and  C_16 
REMARK       I    between atoms: C_16  and  N_18 
REMARK    8  A    between atoms: N_18  and  C_20 
ROOT
HETATM    1  C   UNL     1       6.852  14.806   2.798  1.00  0.00     0.108 C 
HETATM    2  C   UNL     1       7.534  15.853   2.848  1.00  0.00    -0.017 A 
HETATM    3  C   UNL     1       7.784  16.993   2.426  1.00  0.00     0.082 A 
HETATM    4  C   UNL     1       8.727  17.133   3.155  1.00  0.00     0.031 A 
ENDROOT
BRANCH   4   5
HETATM    5  C   UNL     1       9.829  17.277   3.910  1.00  0.00     0.253 C 
HETATM    6  O   UNL     1      10.652  16.505   3.772  1.00  0.00    -0.268 OA
HETATM    7  N   UNL     1       9.764  18.302   4.718  1.00  0.00    -0.321 N 
ATOM      8  HN  UNL     1       8.914  18.866   4.749  1.00  0.00     0.169 HD
BRANCH   7   9
HETATM    9  C   UNL     1      10.733  18.600   5.455  1.00  0.00     0.056 A 
HETATM   10  C   UNL     1      11.189  18.241   6.640  1.00  0.00     0.117 A 
HETATM   11  N   UNL     1      11.984  18.317   7.536  1.00  0.00    -0.373 N 
HETATM   12  C   UNL     1      12.784  19.312   7.013  1.00  0.00     0.088 A 
ATOM     13  HN  UNL     1      12.049  17.804   8.416  1.00  0.00     0.164 HD
HETATM   14  C   UNL     1      12.695  19.813   5.946  1.00  0.00     0.026 A 
HETATM   15  C   UNL     1      11.785  19.652   4.965  1.00  0.00    -0.033 A 
HETATM   16  C   UNL     1      11.658  20.340   3.595  1.00  0.00     0.050 C 
ENDBRANCH   7   9
ENDBRANCH   4   5
BRANCH   3  17
HETATM   17  C   UNL     1       8.042  17.592   0.847  1.00  0.00    -0.016 C 
BRANCH  17  18
HETATM   18  C   UNL     1       7.635  18.553   0.529  1.00  0.00    -0.026 C 
BRANCH  18  19
HETATM   19  C   UNL     1       7.971  19.477  -0.325  1.00  0.00     0.053 C 
BRANCH  19  20
HETATM   20  C   UNL     1       9.325  20.136   0.046  1.00  0.00    -0.033 C 
HETATM   21  C   UNL     1       9.457  20.909   0.632  1.00  0.00     0.007 C 
ENDBRANCH  19  20
ENDBRANCH  18  19
ENDBRANCH  17  18
ENDBRANCH   3  17
BRANCH   1  22
HETATM   22  N   UNL     1       6.731  13.559   2.785  1.00  0.00    -0.295 N 
ATOM     23  HN  UNL     1       6.257  13.132   1.990  1.00  0.00     0.177 HD
BRANCH  22  24
HETATM   24  S   UNL     1       7.286  12.577   3.962  1.00  0.00     0.226 S 
HETATM   25  C   UNL     1       6.418  11.112   3.685  1.00  0.00     0.186 C 
HETATM   26  O   UNL     1       8.692  12.277   3.805  1.00  0.00    -0.206 OA
HETATM   27  O   UNL     1       6.960  13.013   5.277  1.00  0.00    -0.206 OA
ENDBRANCH  22  24
ENDBRANCH   1  22
TORSDOF 8
ENDMDL
MODEL 9
REMARK VINA RESULT:    -5.976      3.916      8.184
REMARK INTER + INTRA:          -9.164
REMARK INTER:                  -8.553
REMARK INTRA:                  -0.611
REMARK UNBOUND:                -0.917
REMARK  8 active torsions:
REMARK  status: ('A' for Active; 'I' for Inactive)
REMARK    1  A    between atoms: S_2  and  N_5 
REMARK    2  A    between atoms: N_5  and  C_7 
REMARK    3  A    between atoms: C_9  and  C_10 
REMARK    4  A    between atoms: C_10  and  C_11 
REMARK    5  A    between atoms: C_11  and  C_12 
REMARK    6  A    between atoms: C_12  and  C_13 
REMARK    7  A    between atoms: C_15  and  C_16 
REMARK       I    between atoms: C_16  and  N_18 
REMARK    8  A    between atoms: N_18  and  C_20 
ROOT
HETATM    1  C   UNL     1       6.643  -4.833  27.194  1.00  0.00     0.108 C 
HETATM    2  C   UNL     1       6.684  -3.978  26.282  1.00  0.00    -0.017 A 
HETATM    3  C   UNL     1       6.109  -3.323  25.397  1.00  0.00     0.082 A 
HETATM    4  C   UNL     1       7.123  -2.794  25.033  1.00  0.00     0.031 A 
ENDROOT
BRANCH   4   5
HETATM    5  C   UNL     1       8.258  -2.250  24.564  1.00  0.00     0.253 C 
HETATM    6  O   UNL     1       8.895  -2.895  23.879  1.00  0.00    -0.268 OA
HETATM    7  N   UNL     1       8.460  -1.034  25.002  1.00  0.00    -0.321 N 
ATOM      8  HN  UNL     1       7.803  -0.621  25.663  1.00  0.00     0.169 HD
BRANCH   7   9
HETATM    9  C   UNL     1       9.452  -0.371  24.617  1.00  0.00     0.056 A 
HETATM   10  C   UNL     1      10.722  -0.250  24.959  1.00  0.00     0.117 A 
HETATM   11  N   UNL     1      11.812   0.233  24.825  1.00  0.00    -0.373 N 
HETATM   12  C   UNL     1      11.522   1.108  23.798  1.00  0.00     0.088 A 
ATOM     13  HN  UNL     1      12.687   0.053  25.319  1.00  0.00     0.164 HD
HETATM   14  C   UNL     1      10.498   1.212  23.217  1.00  0.00     0.026 A 
HETATM   15  C   UNL     1       9.309   0.605  23.402  1.00  0.00    -0.033 A 
HETATM   16  C   UNL     1       7.971   0.778  22.661  1.00  0.00     0.050 C 
ENDBRANCH   7   9
ENDBRANCH   4   5
BRANCH   3  17
HETATM   17  C   UNL     1       5.083  -3.793  24.116  1.00  0.00    -0.016 C 
BRANCH  17  18
HETATM   18  C   UNL     1       4.815  -4.839  23.954  1.00  0.00    -0.026 C 
BRANCH  18  19
HETATM   19  C   UNL     1       5.322  -5.846  23.304  1.00  0.00     0.053 C 
BRANCH  19  20
HETATM   20  C   UNL     1       6.250  -5.377  22.153  1.00  0.00    -0.033 C 
HETATM   21  C   UNL     1       6.964  -5.896  21.730  1.00  0.00     0.007 C 
ENDBRANCH  19  20
ENDBRANCH  18  19
ENDBRANCH  17  18
ENDBRANCH   3  17
BRANCH   1  22
HETATM   22  N   UNL     1       7.089  -5.837  27.795  1.00  0.00    -0.295 N 
ATOM     23  HN  UNL     1       7.930  -6.281  27.427  1.00  0.00     0.177 HD
BRANCH  22  24
HETATM   24  S   UNL     1       6.408  -6.477  29.131  1.00  0.00     0.226 S 
HETATM   25  C   UNL     1       4.741  -6.592  28.699  1.00  0.00     0.186 C 
HETATM   26  O   UNL     1       6.875  -7.820  29.392  1.00  0.00    -0.206 OA
HETATM   27  O   UNL     1       6.485  -5.635  30.276  1.00  0.00    -0.206 OA
ENDBRANCH  22  24
ENDBRANCH   1  22
TORSDOF 8
ENDMDL
