stable:False satoms:9 tatoms:24 sratio:0.375
  -OEChem-07092417493D

 24 25  0     1  0  0  0  0  0999 V2000
    6.6189   -4.8517   26.4269 C   0  0  0  0  0  0  0  0  0  0  0  0
    8.2202   -4.2939   26.1087 S   0  0  0  0  0  0  0  0  0  0  0  0
    9.0773   -5.4565   26.0628 O   0  0  0  0  0  0  0  0  0  0  0  0
    8.5650   -3.3957   27.1577 O   0  0  0  0  0  0  0  0  0  0  0  0
    8.0747   -3.5777   24.6507 N   0  0  0  0  0  0  0  0  0  0  0  0
    8.9976   -2.9499   24.0841 C   0  0  0  0  0  0  0  0  0  0  0  0
    9.4428   -1.9731   23.4422 C   0  0  0  0  0  0  0  0  0  0  0  0
   10.3156   -1.1074   23.2725 C   0  0  2  0  0  0  0  0  0  0  0  0
   11.0326    0.0126   24.3446 C   0  0  0  0  0  0  0  0  0  0  0  0
   12.0810    0.3015   24.2511 C   0  0  0  0  0  0  0  0  0  0  0  0
   13.0997   -0.0870   23.5402 C   0  0  0  0  0  0  0  0  0  0  0  0
   12.7466   -1.3089   22.6525 C   0  0  0  0  0  0  0  0  0  0  0  0
   11.8665   -1.7271   22.5571 C   0  0  0  0  0  0  0  0  0  0  0  0
    9.7288   -0.5927   22.3609 C   0  0  2  0  0  0  0  0  0  0  0  0
    9.0501    0.0386   21.3888 C   0  0  0  0  0  0  0  0  0  0  0  0
    9.5172    0.9839   20.9653 O   0  0  0  0  0  0  0  0  0  0  0  0
    7.9194   -0.5459   21.0938 N   0  0  0  0  0  0  0  0  0  0  0  0
    7.1905   -0.1064   20.1727 C   0  0  0  0  0  0  0  0  0  0  0  0
    7.2360   -0.0435   18.8548 C   0  0  0  0  0  0  0  0  0  0  0  0
    6.7721    0.2725   17.7944 N   0  0  0  0  0  0  0  0  0  0  0  0
    5.6310    0.9002   18.2503 C   0  0  0  0  0  0  0  0  0  0  0  0
    5.2528    0.9698   19.3680 C   0  0  0  0  0  0  0  0  0  0  0  0
    5.8164    0.5584   20.5215 C   0  0  0  0  0  0  0  0  0  0  0  0
    5.3312    0.6895   21.9750 C   0  0  0  0  0  0  0  0  0  0  0  0
 20 21  2  0  0  0  0
 19 20  1  0  0  0  0
 21 22  1  0  0  0  0
 18 19  2  0  0  0  0
 22 23  2  0  0  0  0
 18 23  1  0  0  0  0
 17 18  1  0  0  0  0
 23 24  1  0  0  0  0
 15 16  2  0  0  0  0
 15 17  1  0  0  0  0
 14 15  1  0  0  0  0
  8 14  1  0  0  0  0
  7 14  1  0  0  0  0
 12 13  2  0  0  0  0
 11 12  1  0  0  0  0
  7  8  1  0  0  0  0
  8  9  1  0  0  0  0
  6  7  2  3  0  0  0
 10 11  1  0  0  0  0
  5  6  1  0  0  0  0
  9 10  2  0  0  0  0
  2  5  1  0  0  0  0
  2  3  2  0  0  0  0
  1  2  1  0  0  0  0
  2  4  2  0  0  0  0
M  END
> <Shapegauss>
-287.055542

$$$$
