REMARK  5 active torsions:
REMARK  status: ('A' for Active; 'I' for Inactive)
REMARK    1  A    between atoms: C_2  and  O_6 
REMARK    2  A    between atoms: C_2  and  N_7 
REMARK    3  A    between atoms: C_2  and  C_3 
REMARK    4  A    between atoms: N_7  and  N_12 
REMARK       I    between atoms: C_9  and  N_12 
REMARK    5  A    between atoms: C_9  and  C_13 
ROOT
HETATM    1  C   UNL     2       5.452  -0.577  22.698  1.00  0.00     0.000 C 
ENDROOT
TORSDOF 5
