stable:False satoms:22 tatoms:24 sratio:0.9166666666666666
  -OEChem-07092417293D

 24 22  0     0  0  0  0  0  0999 V2000
   10.4734   -3.4545   22.0201 H   0  0  0  0  0  0  0  0  0  0  0  0
    9.9083   -0.4253   21.9697 C   0  0  0  0  0  0  0  0  0  0  0  0
    9.8588    0.5862   22.8615 C   0  0  0  0  0  0  0  0  0  0  0  0
    8.9849    0.7408   23.4560 H   0  0  0  0  0  0  0  0  0  0  0  0
   11.9567    1.0913   22.6830 H   0  0  0  0  0  0  0  0  0  0  0  0
    6.5260   -3.2980   22.8520 O   0  0  0  0  0  0  0  0  0  0  0  0
   11.0793    1.8976   23.9536 H   0  0  0  0  0  0  0  0  0  0  0  0
    9.7713   -4.1697   22.0643 N   0  0  0  0  0  0  0  0  0  0  0  0
    6.2175    0.1717   22.6042 H   0  0  0  0  0  0  0  0  0  0  0  0
    4.4992   -0.1347   22.5240 H   0  0  0  0  0  0  0  0  0  0  0  0
   10.6617   -0.3163   20.8180 O   0  0  0  0  0  0  0  0  0  0  0  0
    8.6558   -4.7944   23.6590 H   0  0  0  0  0  0  0  0  0  0  0  0
    9.2800   -1.5600   22.1042 N   0  0  0  0  0  0  0  0  0  0  0  0
    7.7277   -3.0624   22.8489 C   0  0  0  0  0  0  0  0  0  0  0  0
   10.9919    1.5160   22.9551 C   0  0  0  0  0  0  0  0  0  0  0  0
    7.7945   -1.1172   23.4605 H   0  0  0  0  0  0  0  0  0  0  0  0
    8.2267   -1.7940   22.8417 N   0  3  0  0  0  0  0  0  0  0  0  0
    8.7584   -4.0504   22.9001 C   0  3  0  0  0  0  0  0  0  0  0  0
    5.4560   -1.0193   23.6832 H   0  0  0  0  0  0  0  0  0  0  0  0
   10.7961    2.3248   22.2609 H   0  0  0  0  0  0  0  0  0  0  0  0
    5.4525   -0.5767   22.6985 C   0  0  0  0  0  0  0  0  0  0  0  0
    5.6332   -1.3549   21.9770 H   0  0  0  0  0  0  0  0  0  0  0  0
    9.7625   -5.0016   21.5085 H   0  0  0  0  0  0  0  0  0  0  0  0
   11.1118    0.5107   20.5925 H   0  0  0  0  0  0  0  0  0  0  0  0
 11 24  1  0  0  0  0
  2 11  1  0  0  0  0
  8 23  1  0  0  0  0
  2 13  1  0  0  0  0
  2  3  2  0  0  0  0
 21 22  1  0  0  0  0
  1  8  1  0  0  0  0
  8 18  1  0  0  0  0
 13 17  2  0  0  0  0
 15 20  1  0  0  0  0
 10 21  1  0  0  0  0
  9 21  1  0  0  0  0
  5 15  1  0  0  0  0
 19 21  1  0  0  0  0
 14 17  1  0  0  0  0
 16 17  1  0  0  0  0
  6 14  2  0  0  0  0
 14 18  1  0  0  0  0
  3 15  1  0  0  0  0
  3  4  1  0  0  0  0
 12 18  1  0  0  0  0
  7 15  1  0  0  0  0
M  CHG  2  17   1  18   1
M  END
> <Shapegauss>
-80.529228

$$$$
