REMARK  7 active torsions:
REMARK  status: ('A' for Active; 'I' for Inactive)
REMARK    1  A    between atoms: S_2  and  N_5 
REMARK    2  A    between atoms: N_5  and  C_7 
REMARK    3  A    between atoms: C_7  and  C_8 
REMARK    4  A    between atoms: C_8  and  C_9 
REMARK    5  A    between atoms: C_9  and  C_15 
REMARK    6  A    between atoms: C_15  and  C_16 
REMARK       I    between atoms: C_16  and  N_18 
REMARK    7  A    between atoms: N_18  and  C_20 
ROOT
HETATM    1  C   UNL     1      10.353  -1.121  23.253  1.00  0.00     0.068 C 
HETATM    2  C   UNL     1      11.084  -0.103  24.279  1.00  0.00     0.000 C 
HETATM    3  C   UNL     1      12.196   0.195  24.245  1.00  0.00    -0.002 C 
HETATM    4  C   UNL     1      13.124  -0.220  23.568  1.00  0.00    -0.001 C 
HETATM    5  C   UNL     1      12.769  -1.290  22.672  1.00  0.00    -0.002 C 
HETATM    6  C   UNL     1      11.740  -1.642  22.554  1.00  0.00     0.000 C 
ENDROOT
BRANCH   1   7
HETATM    7  C   UNL     1       9.388  -1.987  23.545  1.00  0.00     0.135 C 
BRANCH   7   8
HETATM    8  C   UNL     1       8.879  -2.849  24.154  1.00  0.00    -0.058 C 
BRANCH   8   9
HETATM    9  N   UNL     1       8.066  -3.554  24.700  1.00  0.00    -0.254 N 
ATOM     10  HN  UNL     1       7.205  -3.704  24.175  1.00  0.00     0.188 HD
BRANCH   9  11
HETATM   11  S   UNL     1       8.129  -4.296  26.131  1.00  0.00     0.233 S 
HETATM   12  C   UNL     1       6.667  -4.750  26.395  1.00  0.00     0.186 C 
HETATM   13  O   UNL     1       9.030  -5.460  26.072  1.00  0.00    -0.206 OA
HETATM   14  O   UNL     1       8.585  -3.391  27.172  1.00  0.00    -0.206 OA
ENDBRANCH   9  11
ENDBRANCH   8   9
ENDBRANCH   7   8
ENDBRANCH   1   7
BRANCH   1  15
HETATM   15  C   UNL     1       9.671  -0.552  22.378  1.00  0.00    -0.064 C 
BRANCH  15  16
HETATM   16  C   UNL     1       9.031   0.049  21.420  1.00  0.00     0.290 C 
HETATM   17  O   UNL     1       9.549   1.002  21.008  1.00  0.00    -0.259 OA
HETATM   18  N   UNL     1       7.878  -0.560  21.088  1.00  0.00    -0.315 N 
ATOM     19  HN  UNL     1       7.580  -1.390  21.600  1.00  0.00     0.170 HD
BRANCH  18  20
HETATM   20  C   UNL     1       7.182  -0.127  20.176  1.00  0.00     0.060 A 
HETATM   21  C   UNL     1       7.219  -0.015  18.838  1.00  0.00     0.117 A 
HETATM   22  N   UNL     1       6.783   0.324  17.785  1.00  0.00    -0.373 N 
HETATM   23  C   UNL     1       5.692   0.900  18.258  1.00  0.00     0.088 A 
ATOM     24  HN  UNL     1       7.134   0.209  16.834  1.00  0.00     0.164 HD
HETATM   25  C   UNL     1       5.280   0.971  19.416  1.00  0.00     0.030 A 
HETATM   26  C   UNL     1       5.821   0.558  20.558  1.00  0.00    -0.016 A 
HETATM   27  C   UNL     1       5.471   0.630  21.630  1.00  0.00     0.026 C 
ENDBRANCH  18  20
ENDBRANCH  15  16
ENDBRANCH   1  15
TORSDOF 7
