stable:False satoms:18 tatoms:24 sratio:0.75
  -OEChem-07092417373D

 24 26  0     1  0  0  0  0  0999 V2000
    7.1885   -4.9081   26.1347 H   0  0  0  0  0  0  0  0  0  0  0  0
    8.2399   -4.5249   26.0185 C   0  0  0  0  0  0  0  0  0  0  0  0
    8.9117   -5.4148   25.9796 H   0  0  0  0  0  0  0  0  0  0  0  0
    8.4738   -3.9250   26.9230 H   0  0  0  0  0  0  0  0  0  0  0  0
    8.3361   -3.7329   24.8496 N   0  0  0  0  0  0  0  0  0  0  0  0
    9.1757   -3.0581   24.3028 C   0  0  0  0  0  0  0  0  0  0  0  0
    8.8158   -1.4514   23.0076 O   0  0  0  0  0  0  0  0  0  0  0  0
    9.6937   -2.0377   23.6293 C   0  0  0  0  0  0  0  0  0  0  0  0
   11.0887   -0.0857   23.4703 C   0  0  2  0  0  0  0  0  0  0  0  0
   11.4953    0.7175   24.0879 H   0  0  0  0  0  0  0  0  0  0  0  0
   13.3729   -0.9784   23.3696 H   0  0  0  0  0  0  0  0  0  0  0  0
   12.3926   -1.0317   23.3278 C   0  0  0  0  0  0  0  0  0  0  0  0
   11.1421   -1.2964   23.4551 C   0  0  0  0  0  0  0  0  0  0  0  0
   10.0670    0.3165   22.5266 O   0  0  0  0  0  0  0  0  0  0  0  0
    9.1033   -0.3559   22.1544 C   0  0  3  0  0  0  0  0  0  0  0  0
    9.3255    0.7267   20.3841 O   0  0  0  0  0  0  0  0  0  0  0  0
    8.4215   -0.0042   20.8931 N   0  0  3  0  0  0  0  0  0  0  0  0
    7.2080    0.2103   20.0587 C   0  0  0  0  0  0  0  0  0  0  0  0
    7.0083    0.2633   18.7114 C   0  0  0  0  0  0  0  0  0  0  0  0
    7.5940    0.0855   17.8495 H   0  0  0  0  0  0  0  0  0  0  0  0
    5.7472    0.7430   18.4008 O   0  0  0  0  0  0  0  0  0  0  0  0
    5.1968    1.0666   19.5782 N   0  0  0  0  0  0  0  0  0  0  0  0
    5.9450    0.6708   20.5673 C   0  0  0  0  0  0  0  0  0  0  0  0
    5.6406    0.7146   21.6169 H   0  0  0  0  0  0  0  0  0  0  0  0
 19 20  1  0  0  0  0
 19 21  1  0  0  0  0
 21 22  1  0  0  0  0
 18 19  2  0  0  0  0
 22 23  2  0  0  0  0
 18 23  1  0  0  0  0
 17 18  1  0  0  0  0
 16 17  1  0  0  0  0
 23 24  1  0  0  0  0
 15 17  1  0  0  0  0
 14 15  1  0  0  0  0
  7 15  1  0  0  0  0
  9 14  1  0  0  0  0
  7  8  1  0  0  0  0
 11 12  1  0  0  0  0
 12 13  2  0  0  0  0
  9 12  1  0  0  0  0
  9 13  1  0  0  0  0
  8 13  1  0  0  0  0
  9 10  1  0  0  0  0
  6  8  2  0  0  0  0
  5  6  1  0  0  0  0
  2  5  1  0  0  0  0
  2  3  1  0  0  0  0
  1  2  1  0  0  0  0
  2  4  1  0  0  0  0
M  END
> <Shapegauss>
-201.864090

$$$$
