stable:False satoms:18 tatoms:24 sratio:0.75
  -OEChem-08062406153D

 28 30  0     1  0  0  0  0  0999 V2000
  -10.3064    7.0288  -22.5691 H   0  0  0  0  0  0  0  0  0  0  0  0
  -10.7105    6.2596  -23.2839 C   0  0  0  0  0  0  0  0  0  0  0  0
  -10.4568    6.6033  -24.3145 H   0  0  0  0  0  0  0  0  0  0  0  0
  -11.8139    6.2434  -23.1612 H   0  0  0  0  0  0  0  0  0  0  0  0
  -10.1522    4.9924  -22.9920 N   0  3  0  0  0  0  0  0  0  0  0  0
  -10.2760    3.8572  -23.3863 C   0  0  0  0  0  0  0  0  0  0  0  0
   -9.8643    2.1193  -22.2915 O   0  0  0  0  0  0  0  0  0  0  0  0
  -10.3630    2.5334  -23.3311 C   0  0  0  0  0  0  0  0  0  0  0  0
  -11.5836    0.4732  -23.5484 C   0  0  2  0  0  0  0  0  0  0  0  0
  -12.5991    0.0788  -23.4781 H   0  0  0  0  0  0  0  0  0  0  0  0
  -11.7642    0.1271  -25.9717 H   0  0  0  0  0  0  0  0  0  0  0  0
  -11.4084    0.5412  -25.1547 C   0  0  0  0  0  0  0  0  0  0  0  0
  -11.0098    1.3126  -24.2080 C   0  0  0  0  0  0  0  0  0  0  0  0
  -10.6879    0.0683  -22.4853 O   0  0  0  0  0  0  0  0  0  0  0  0
   -9.7691    0.7340  -22.0037 C   0  0  3  0  0  0  0  0  0  0  0  0
   -8.8910   -1.1325  -21.6868 O   0  5  0  0  0  0  0  0  0  0  0  0
   -8.6898    0.0479  -21.2663 N   0  0  3  0  0  0  0  0  0  0  0  0
   -7.7370   -0.0823  -20.1305 C   0  0  0  0  0  0  0  0  0  0  0  0
   -6.5898   -0.7988  -19.9620 C   0  0  0  0  0  0  0  0  0  0  0  0
   -5.9702   -1.3957  -20.5763 H   0  0  0  0  0  0  0  0  0  0  0  0
   -6.1815   -0.8048  -18.6390 O   0  0  0  0  0  0  0  0  0  0  0  0
   -7.1416   -0.1491  -17.9741 N   0  0  0  0  0  0  0  0  0  0  0  0
   -7.9953    0.3882  -18.7972 C   0  0  0  0  0  0  0  0  0  0  0  0
   -8.7908    1.0726  -18.4889 H   0  0  0  0  0  0  0  0  0  0  0  0
  -10.3431    4.8980  -22.0150 H   0  0  0  0  0  0  0  0  0  0  0  0
  -10.3829    4.0227  -24.4482 H   0  0  0  0  0  0  0  0  0  0  0  0
  -10.3364    0.8737  -21.0716 H   0  0  0  0  0  0  0  0  0  0  0  0
   -9.1750    5.1566  -23.1264 H   0  0  0  0  0  0  0  0  0  0  0  0
 19 20  1  0  0  0  0
 19 21  1  0  0  0  0
 21 22  1  0  0  0  0
 18 19  2  0  0  0  0
 22 23  2  0  0  0  0
 18 23  1  0  0  0  0
 17 18  1  0  0  0  0
 16 17  1  0  0  0  0
 23 24  1  0  0  0  0
 15 17  1  0  0  0  0
 14 15  1  0  0  0  0
  7 15  1  0  0  0  0
  9 14  1  0  0  0  0
  7  8  1  0  0  0  0
 11 12  1  0  0  0  0
 12 13  2  0  0  0  0
  9 12  1  0  0  0  0
  9 13  1  0  0  0  0
  8 13  1  0  0  0  0
  9 10  1  0  0  0  0
  6  8  2  0  0  0  0
  5  6  1  0  0  0  0
  2  5  1  0  0  0  0
  2  3  1  0  0  0  0
  1  2  1  0  0  0  0
  2  4  1  0  0  0  0
  5 25  1  0  0  0  0
  6 26  1  0  0  0  0
 15 27  1  0  0  0  0
  5 28  1  0  0  0  0
M  CHG  2   5   1  16  -1
M  END
> <Chemgauss4>
-6.830301

$$$$
