stable:False satoms:18 tatoms:24 sratio:0.75
  -OEChem-08062406153D

 28 30  0     1  0  0  0  0  0999 V2000
   10.1433    6.9457   22.5854 H   0  0  0  0  0  0  0  0  0  0  0  0
   10.5475    6.1766   23.3002 C   0  0  0  0  0  0  0  0  0  0  0  0
   10.2938    6.5202   24.3309 H   0  0  0  0  0  0  0  0  0  0  0  0
   11.6508    6.1604   23.1776 H   0  0  0  0  0  0  0  0  0  0  0  0
    9.9892    4.9093   23.0084 N   0  3  0  0  0  0  0  0  0  0  0  0
   10.1130    3.7741   23.4026 C   0  0  0  0  0  0  0  0  0  0  0  0
    9.7013    2.0362   22.3078 O   0  0  0  0  0  0  0  0  0  0  0  0
   10.1999    2.4503   23.3475 C   0  0  0  0  0  0  0  0  0  0  0  0
   11.4205    0.3901   23.5648 C   0  0  2  0  0  0  0  0  0  0  0  0
   12.4361   -0.0043   23.4945 H   0  0  0  0  0  0  0  0  0  0  0  0
   11.6011    0.0441   25.9880 H   0  0  0  0  0  0  0  0  0  0  0  0
   11.2453    0.4581   25.1710 C   0  0  0  0  0  0  0  0  0  0  0  0
   10.8467    1.2295   24.2243 C   0  0  0  0  0  0  0  0  0  0  0  0
   10.5248   -0.0148   22.5017 O   0  0  0  0  0  0  0  0  0  0  0  0
    9.6061    0.6510   22.0200 C   0  0  3  0  0  0  0  0  0  0  0  0
    8.7279   -1.2155   21.7031 O   0  5  0  0  0  0  0  0  0  0  0  0
    8.5268   -0.0352   21.2827 N   0  0  3  0  0  0  0  0  0  0  0  0
    7.5739   -0.1654   20.1469 C   0  0  0  0  0  0  0  0  0  0  0  0
    6.4267   -0.8819   19.9783 C   0  0  0  0  0  0  0  0  0  0  0  0
    5.8072   -1.4788   20.5926 H   0  0  0  0  0  0  0  0  0  0  0  0
    6.0184   -0.8879   18.6553 O   0  0  0  0  0  0  0  0  0  0  0  0
    6.9786   -0.2322   17.9905 N   0  0  0  0  0  0  0  0  0  0  0  0
    7.8322    0.3051   18.8135 C   0  0  0  0  0  0  0  0  0  0  0  0
    8.6277    0.9895   18.5053 H   0  0  0  0  0  0  0  0  0  0  0  0
   10.1801    4.8149   22.0313 H   0  0  0  0  0  0  0  0  0  0  0  0
   10.2198    3.9396   24.4645 H   0  0  0  0  0  0  0  0  0  0  0  0
   10.1733    0.7906   21.0879 H   0  0  0  0  0  0  0  0  0  0  0  0
    9.0120    5.0736   23.1427 H   0  0  0  0  0  0  0  0  0  0  0  0
 19 20  1  0  0  0  0
 19 21  1  0  0  0  0
 21 22  1  0  0  0  0
 18 19  2  0  0  0  0
 22 23  2  0  0  0  0
 18 23  1  0  0  0  0
 17 18  1  0  0  0  0
 16 17  1  0  0  0  0
 23 24  1  0  0  0  0
 15 17  1  0  0  0  0
 14 15  1  0  0  0  0
  7 15  1  0  0  0  0
  9 14  1  0  0  0  0
  7  8  1  0  0  0  0
 11 12  1  0  0  0  0
 12 13  2  0  0  0  0
  9 12  1  0  0  0  0
  9 13  1  0  0  0  0
  8 13  1  0  0  0  0
  9 10  1  0  0  0  0
  6  8  2  0  0  0  0
  5  6  1  0  0  0  0
  2  5  1  0  0  0  0
  2  3  1  0  0  0  0
  1  2  1  0  0  0  0
  2  4  1  0  0  0  0
  5 25  1  0  0  0  0
  6 26  1  0  0  0  0
 15 27  1  0  0  0  0
  5 28  1  0  0  0  0
M  CHG  2   5   1  16  -1
M  END
> <Chemgauss4>
-6.746825

$$$$
