stable:False satoms:19 tatoms:24 sratio:0.7916666666666666
  -OEChem-07092417403D

 24 23  0     0  0  0  0  0  0999 V2000
    7.0536   -4.5814   26.0747 H   0  0  0  0  0  0  0  0  0  0  0  0
    8.0727   -4.4129   26.1617 N   0  0  0  0  0  0  0  0  0  0  0  0
    8.7242   -4.9998   25.6348 H   0  0  0  0  0  0  0  0  0  0  0  0
    8.4895   -3.5677   26.8489 O   0  0  0  0  0  0  0  0  0  0  0  0
    7.9862   -3.2447   24.2782 N   0  3  0  0  0  0  0  0  0  0  0  0
    8.7685   -2.7622   24.0481 C   0  0  0  0  0  0  0  0  0  0  0  0
    9.1045   -1.9437   23.4979 C   0  0  0  0  0  0  0  0  0  0  0  0
   11.4755   -1.2122   23.3672 C   0  0  0  0  0  0  0  0  0  0  0  0
   10.3887   -0.4478   23.4246 O   0  0  0  0  0  0  0  0  0  0  0  0
   12.7758    0.2150   24.1387 H   0  0  0  0  0  0  0  0  0  0  0  0
   12.6746   -0.6219   23.4814 C   0  0  0  0  0  0  0  0  0  0  0  0
   13.4531   -1.0184   22.8942 H   0  0  0  0  0  0  0  0  0  0  0  0
   11.4185   -2.2660   23.2237 H   0  0  0  0  0  0  0  0  0  0  0  0
    9.4193   -0.8499   22.7293 C   0  0  0  0  0  0  0  0  0  0  0  0
    8.9470   -0.1263   21.5067 C   0  0  0  0  0  0  0  0  0  0  0  0
    9.7349    0.5699   20.9803 O   0  0  0  0  0  0  0  0  0  0  0  0
    7.6806   -0.1242   20.8246 N   0  0  0  0  0  0  0  0  0  0  0  0
    6.4611    0.3795   20.9849 C   0  0  0  0  0  0  0  0  0  0  0  0
    7.8726   -0.1453   18.9999 S   0  0  0  0  0  0  0  0  0  0  0  0
    6.4280    0.5324   18.6849 C   0  3  0  0  0  0  0  0  0  0  0  0
    6.0195    0.7827   17.7341 H   0  0  0  0  0  0  0  0  0  0  0  0
    4.8314    1.3251   19.8825 H   0  0  0  0  0  0  0  0  0  0  0  0
    5.7789    0.7976   19.9088 C   0  0  0  0  0  0  0  0  0  0  0  0
    6.0254    0.4322   21.9866 H   0  0  0  0  0  0  0  0  0  0  0  0
 20 21  1  0  0  0  0
 19 20  1  0  0  0  0
 20 23  1  0  0  0  0
 17 19  1  0  0  0  0
 22 23  1  0  0  0  0
 18 23  2  0  0  0  0
 17 18  1  0  0  0  0
 15 17  1  0  0  0  0
 15 16  2  0  0  0  0
 18 24  1  0  0  0  0
 14 15  1  0  0  0  0
  9 14  1  0  0  0  0
  7 14  2  0  0  0  0
 11 12  1  0  0  0  0
  8 13  1  0  0  0  0
  8  9  1  0  0  0  0
  8 11  2  0  0  0  0
 10 11  1  0  0  0  0
  6  7  1  0  0  0  0
  5  6  1  0  0  0  0
  2  3  1  0  0  0  0
  1  2  1  0  0  0  0
  2  4  1  0  0  0  0
M  CHG  2   5   1  20   1
M  END
> <Shapegauss>
-187.378723

$$$$
