stable:False satoms:8 tatoms:24 sratio:0.3333333333333333
  -OEChem-07092417483D

 24 25  0     1  0  0  0  0  0999 V2000
    6.6190   -4.8841   26.4053 C   0  0  0  0  0  0  0  0  0  0  0  0
    8.2078   -4.3123   26.1143 S   0  0  0  0  0  0  0  0  0  0  0  0
    9.0725   -5.4648   26.0460 O   0  0  0  0  0  0  0  0  0  0  0  0
    8.6029   -3.4187   27.1840 O   0  0  0  0  0  0  0  0  0  0  0  0
    8.0953   -3.5649   24.6846 N   0  0  0  0  0  0  0  0  0  0  0  0
    8.9816   -2.9071   24.1314 C   0  0  0  0  0  0  0  0  0  0  0  0
    9.4143   -1.9646   23.5016 C   0  0  0  0  0  0  0  0  0  0  0  0
   10.3297   -1.1736   23.2150 C   0  0  1  0  0  0  0  0  0  0  0  0
   11.0355    0.0695   24.2948 C   0  0  0  0  0  0  0  0  0  0  0  0
   12.0393    0.3200   24.2467 C   0  0  0  0  0  0  0  0  0  0  0  0
   13.1500   -0.1481   23.4675 C   0  0  0  0  0  0  0  0  0  0  0  0
   12.7203   -1.2804   22.6649 C   0  0  0  0  0  0  0  0  0  0  0  0
   11.7974   -1.7234   22.5445 C   0  0  0  0  0  0  0  0  0  0  0  0
    9.7234   -0.5571   22.3668 C   0  0  0  0  0  0  0  0  0  0  0  0
    9.0686    0.0389   21.3943 C   0  0  0  0  0  0  0  0  0  0  0  0
    9.5409    0.9693   20.9847 O   0  0  0  0  0  0  0  0  0  0  0  0
    7.9172   -0.5630   21.0738 N   0  0  0  0  0  0  0  0  0  0  0  0
    7.2142   -0.1166   20.1540 C   0  0  0  0  0  0  0  0  0  0  0  0
    7.2575   -0.0495   18.8765 C   0  0  0  0  0  0  0  0  0  0  0  0
    6.7632    0.3404   17.7876 N   0  0  0  0  0  0  0  0  0  0  0  0
    5.7285    0.8576   18.2384 C   0  0  0  0  0  0  0  0  0  0  0  0
    5.2474    0.9701   19.4131 C   0  0  0  0  0  0  0  0  0  0  0  0
    5.7764    0.5728   20.5294 C   0  0  0  0  0  0  0  0  0  0  0  0
    5.2811    0.6995   21.9778 C   0  0  0  0  0  0  0  0  0  0  0  0
 20 21  2  0  0  0  0
 19 20  1  0  0  0  0
 21 22  1  0  0  0  0
 18 19  2  0  0  0  0
 22 23  2  0  0  0  0
 18 23  1  0  0  0  0
 17 18  1  0  0  0  0
 23 24  1  0  0  0  0
 15 16  2  0  0  0  0
 15 17  1  0  0  0  0
 14 15  1  0  0  0  0
  8 14  1  0  0  0  0
 12 13  1  0  0  0  0
  8 13  1  0  0  0  0
 11 12  2  0  0  0  0
  7  8  1  0  0  0  0
  8  9  1  0  0  0  0
 10 11  1  0  0  0  0
  6  7  2  0  0  0  0
  5  6  1  0  0  0  0
  9 10  2  0  0  0  0
  2  5  1  0  0  0  0
  2  3  2  0  0  0  0
  1  2  1  0  0  0  0
  2  4  2  0  0  0  0
M  END
> <Shapegauss>
-287.278900

$$$$
