stable:False satoms:8 tatoms:24 sratio:0.3333333333333333
  -OEChem-08062417093D

 45 46  0     1  0  0  0  0  0999 V2000
   -5.7279   -5.2452  -25.7218 C   0  0  0  0  0  0  0  0  0  0  0  0
   -7.3476   -4.6883  -25.6751 S   0  0  0  0  0  0  0  0  0  0  0  0
   -8.2000   -5.8513  -25.6350 O   0  0  0  0  0  0  0  0  0  0  0  0
   -7.6139   -3.8788  -26.8468 O   0  0  0  0  0  0  0  0  0  0  0  0
   -7.4273   -3.8421  -24.2992 N   0  0  0  0  0  0  0  0  0  0  0  0
   -8.3848   -3.1666  -23.9104 C   0  0  0  0  0  0  0  0  0  0  0  0
   -8.9056   -2.1923  -23.4087 C   0  0  0  0  0  0  0  0  0  0  0  0
   -9.8596   -1.4029  -23.2968 C   0  0  1  0  0  0  0  0  0  0  0  0
  -10.4370   -0.2521  -24.5425 C   0  0  0  0  0  0  0  0  0  0  0  0
  -11.4417   -0.0200  -24.6394 C   0  0  0  0  0  0  0  0  0  0  0  0
  -12.6369   -0.4566  -23.9755 C   0  0  0  0  0  0  0  0  0  0  0  0
  -12.2993   -1.5218  -23.0469 C   0  0  0  0  0  0  0  0  0  0  0  0
  -11.3940   -1.9360  -22.7798 C   0  0  0  0  0  0  0  0  0  0  0  0
   -9.3738   -0.7169  -22.4247 C   0  0  0  0  0  0  0  0  0  0  0  0
   -8.8556   -0.0418  -21.4220 C   0  0  0  0  0  0  0  0  0  0  0  0
   -9.3875    0.9044  -21.1423 O   0  0  0  0  0  0  0  0  0  0  0  0
   -7.7472   -0.5959  -20.9168 N   0  0  0  0  0  0  0  0  0  0  0  0
   -7.1727   -0.0727  -19.9495 C   0  0  0  0  0  0  0  0  0  0  0  0
   -7.3792    0.0812  -18.6957 C   0  0  0  0  0  0  0  0  0  0  0  0
   -7.0325    0.5553  -17.5835 N   0  0  0  0  0  0  0  0  0  0  0  0
   -5.9551    1.0619  -17.9355 C   0  0  0  0  0  0  0  0  0  0  0  0
   -5.3296    1.1035  -19.0451 C   0  0  0  0  0  0  0  0  0  0  0  0
   -5.7072    0.6193  -20.1883 C   0  0  0  0  0  0  0  0  0  0  0  0
   -5.0329    0.6565  -21.5678 C   0  0  0  0  0  0  0  0  0  0  0  0
   -5.5703   -5.8402  -26.6336 H   0  0  0  0  0  0  0  0  0  0  0  0
   -5.0440   -4.3837  -25.7236 H   0  0  0  0  0  0  0  0  0  0  0  0
   -5.5292   -5.8693  -24.8381 H   0  0  0  0  0  0  0  0  0  0  0  0
   -6.6581   -3.2045  -24.3405 H   0  0  0  0  0  0  0  0  0  0  0  0
   -9.2316   -3.7922  -24.1515 H   0  0  0  0  0  0  0  0  0  0  0  0
   -8.1712   -1.8273  -22.7060 H   0  0  0  0  0  0  0  0  0  0  0  0
   -9.7217    0.2098  -25.2069 H   0  0  0  0  0  0  0  0  0  0  0  0
  -11.6320    0.7122  -25.4102 H   0  0  0  0  0  0  0  0  0  0  0  0
  -13.6271   -0.0579  -24.1397 H   0  0  0  0  0  0  0  0  0  0  0  0
  -13.1507   -1.9584  -22.5460 H   0  0  0  0  0  0  0  0  0  0  0  0
  -11.3640   -1.8809  -21.6816 H   0  0  0  0  0  0  0  0  0  0  0  0
  -11.4545   -2.9888  -23.0926 H   0  0  0  0  0  0  0  0  0  0  0  0
  -10.1278    0.0666  -22.5910 H   0  0  0  0  0  0  0  0  0  0  0  0
   -8.4900   -0.5133  -23.0470 H   0  0  0  0  0  0  0  0  0  0  0  0
   -7.3809   -1.4345  -21.3201 H   0  0  0  0  0  0  0  0  0  0  0  0
   -8.2944   -0.4565  -18.4962 H   0  0  0  0  0  0  0  0  0  0  0  0
   -5.4413    1.5737  -17.1353 H   0  0  0  0  0  0  0  0  0  0  0  0
   -4.3711    1.6009  -19.0324 H   0  0  0  0  0  0  0  0  0  0  0  0
   -4.3989   -0.2340  -21.6908 H   0  0  0  0  0  0  0  0  0  0  0  0
   -5.8038    0.6688  -22.3524 H   0  0  0  0  0  0  0  0  0  0  0  0
   -4.4131    1.5617  -21.6486 H   0  0  0  0  0  0  0  0  0  0  0  0
 20 21  2  0  0  0  0
 19 20  1  0  0  0  0
 21 22  1  0  0  0  0
 18 19  2  0  0  0  0
 22 23  2  0  0  0  0
 18 23  1  0  0  0  0
 17 18  1  0  0  0  0
 23 24  1  0  0  0  0
 15 16  2  0  0  0  0
 15 17  1  0  0  0  0
 14 15  1  0  0  0  0
  8 14  1  0  0  0  0
 12 13  1  0  0  0  0
  8 13  1  0  0  0  0
 11 12  2  0  0  0  0
  7  8  1  0  0  0  0
  8  9  1  0  0  0  0
 10 11  1  0  0  0  0
  6  7  2  0  0  0  0
  5  6  1  0  0  0  0
  9 10  2  0  0  0  0
  2  5  1  0  0  0  0
  2  3  2  0  0  0  0
  1  2  1  0  0  0  0
  2  4  2  0  0  0  0
  1 25  1  0  0  0  0
  1 26  1  0  0  0  0
  1 27  1  0  0  0  0
  5 28  1  0  0  0  0
  6 29  1  0  0  0  0
  7 30  1  0  0  0  0
  9 31  1  0  0  0  0
 10 32  1  0  0  0  0
 11 33  1  0  0  0  0
 12 34  1  0  0  0  0
 13 35  1  0  0  0  0
 13 36  1  0  0  0  0
 14 37  1  0  0  0  0
 14 38  1  0  0  0  0
 17 39  1  0  0  0  0
 19 40  1  0  0  0  0
 21 41  1  0  0  0  0
 22 42  1  0  0  0  0
 24 43  1  0  0  0  0
 24 44  1  0  0  0  0
 24 45  1  0  0  0  0
M  END
> <Chemgauss4>
-12.544981

$$$$
