stable:False satoms:8 tatoms:24 sratio:0.3333333333333333
  -OEChem-08062417093D

 45 46  0     1  0  0  0  0  0999 V2000
    5.9092   -5.2857   25.8109 C   0  0  0  0  0  0  0  0  0  0  0  0
    7.5252   -4.7191   25.7534 S   0  0  0  0  0  0  0  0  0  0  0  0
    8.3832   -5.8766   25.6837 O   0  0  0  0  0  0  0  0  0  0  0  0
    7.8017   -3.9276   26.9349 O   0  0  0  0  0  0  0  0  0  0  0  0
    7.5834   -3.8501   24.3908 N   0  0  0  0  0  0  0  0  0  0  0  0
    8.5324   -3.1630   24.0015 C   0  0  0  0  0  0  0  0  0  0  0  0
    9.0418   -2.1777   23.5096 C   0  0  0  0  0  0  0  0  0  0  0  0
    9.9900   -1.3813   23.3990 C   0  0  1  0  0  0  0  0  0  0  0  0
   10.5767   -0.2479   24.6563 C   0  0  0  0  0  0  0  0  0  0  0  0
   11.5812   -0.0119   24.7447 C   0  0  0  0  0  0  0  0  0  0  0  0
   12.7705   -0.4310   24.0591 C   0  0  0  0  0  0  0  0  0  0  0  0
   12.4271   -1.4825   23.1172 C   0  0  0  0  0  0  0  0  0  0  0  0
   11.5208   -1.8973   22.8545 C   0  0  0  0  0  0  0  0  0  0  0  0
    9.4899   -0.6837   22.5444 C   0  0  0  0  0  0  0  0  0  0  0  0
    8.9557    0.0049   21.5594 C   0  0  0  0  0  0  0  0  0  0  0  0
    9.4790    0.9585   21.2888 O   0  0  0  0  0  0  0  0  0  0  0  0
    7.8442   -0.5470   21.0588 N   0  0  0  0  0  0  0  0  0  0  0  0
    7.2549   -0.0111   20.1074 C   0  0  0  0  0  0  0  0  0  0  0  0
    7.4451    0.1645   18.8539 C   0  0  0  0  0  0  0  0  0  0  0  0
    7.0821    0.6549   17.7540 N   0  0  0  0  0  0  0  0  0  0  0  0
    6.0065    1.1497   18.1275 C   0  0  0  0  0  0  0  0  0  0  0  0
    5.3946    1.1695   19.2452 C   0  0  0  0  0  0  0  0  0  0  0  0
    5.7888    0.6688   20.3755 C   0  0  0  0  0  0  0  0  0  0  0  0
    5.1314    0.6795   21.7636 C   0  0  0  0  0  0  0  0  0  0  0  0
    5.7661   -5.8964   26.7145 H   0  0  0  0  0  0  0  0  0  0  0  0
    5.2208   -4.4282   25.8352 H   0  0  0  0  0  0  0  0  0  0  0  0
    5.7030   -5.8963   24.9194 H   0  0  0  0  0  0  0  0  0  0  0  0
    6.8114   -3.2174   24.4521 H   0  0  0  0  0  0  0  0  0  0  0  0
    9.3854   -3.7877   24.2218 H   0  0  0  0  0  0  0  0  0  0  0  0
    8.2968   -1.8052   22.8220 H   0  0  0  0  0  0  0  0  0  0  0  0
    9.8672    0.1990   25.3370 H   0  0  0  0  0  0  0  0  0  0  0  0
   11.7772    0.7085   25.5251 H   0  0  0  0  0  0  0  0  0  0  0  0
   13.7605   -0.0295   24.2177 H   0  0  0  0  0  0  0  0  0  0  0  0
   13.2745   -1.9062   22.5987 H   0  0  0  0  0  0  0  0  0  0  0  0
   11.4769   -1.8244   21.7578 H   0  0  0  0  0  0  0  0  0  0  0  0
   11.5908   -2.9548   23.1491 H   0  0  0  0  0  0  0  0  0  0  0  0
   10.2417    0.1011   22.7143 H   0  0  0  0  0  0  0  0  0  0  0  0
    8.6127   -0.4953   23.1808 H   0  0  0  0  0  0  0  0  0  0  0  0
    7.4873   -1.3941   21.4527 H   0  0  0  0  0  0  0  0  0  0  0  0
    8.3606   -0.3647   18.6343 H   0  0  0  0  0  0  0  0  0  0  0  0
    5.4801    1.6717   17.3422 H   0  0  0  0  0  0  0  0  0  0  0  0
    4.4333    1.6618   19.2525 H   0  0  0  0  0  0  0  0  0  0  0  0
    4.5038   -0.2164   21.8796 H   0  0  0  0  0  0  0  0  0  0  0  0
    5.9119    0.6832   22.5388 H   0  0  0  0  0  0  0  0  0  0  0  0
    4.5079    1.5798   21.8669 H   0  0  0  0  0  0  0  0  0  0  0  0
 20 21  2  0  0  0  0
 19 20  1  0  0  0  0
 21 22  1  0  0  0  0
 18 19  2  0  0  0  0
 22 23  2  0  0  0  0
 18 23  1  0  0  0  0
 17 18  1  0  0  0  0
 23 24  1  0  0  0  0
 15 16  2  0  0  0  0
 15 17  1  0  0  0  0
 14 15  1  0  0  0  0
  8 14  1  0  0  0  0
 12 13  1  0  0  0  0
  8 13  1  0  0  0  0
 11 12  2  0  0  0  0
  7  8  1  0  0  0  0
  8  9  1  0  0  0  0
 10 11  1  0  0  0  0
  6  7  2  0  0  0  0
  5  6  1  0  0  0  0
  9 10  2  0  0  0  0
  2  5  1  0  0  0  0
  2  3  2  0  0  0  0
  1  2  1  0  0  0  0
  2  4  2  0  0  0  0
  1 25  1  0  0  0  0
  1 26  1  0  0  0  0
  1 27  1  0  0  0  0
  5 28  1  0  0  0  0
  6 29  1  0  0  0  0
  7 30  1  0  0  0  0
  9 31  1  0  0  0  0
 10 32  1  0  0  0  0
 11 33  1  0  0  0  0
 12 34  1  0  0  0  0
 13 35  1  0  0  0  0
 13 36  1  0  0  0  0
 14 37  1  0  0  0  0
 14 38  1  0  0  0  0
 17 39  1  0  0  0  0
 19 40  1  0  0  0  0
 21 41  1  0  0  0  0
 22 42  1  0  0  0  0
 24 43  1  0  0  0  0
 24 44  1  0  0  0  0
 24 45  1  0  0  0  0
M  END
> <Chemgauss4>
-12.649625

$$$$
