REMARK  3 active torsions:
REMARK  status: ('A' for Active; 'I' for Inactive)
REMARK    1  A    between atoms: S_2  and  C_4 
REMARK    2  A    between atoms: C_4  and  C_6 
REMARK    3  A    between atoms: C_5  and  C_6 
ROOT
HETATM    1 CL   UNL     2       7.367  -1.644  23.642  1.00  0.00    -0.053 Cl
HETATM    2  O   UNL     2       5.861   0.205  22.355  1.00  0.00    -0.291 OA
HETATM    3  C   UNL     2       6.820   0.247  20.272  1.00  0.00     0.002 A 
HETATM    4  C   UNL     2       6.952   0.456  19.093  1.00  0.00     0.015 A 
HETATM    5  C   UNL     2       5.927   0.724  19.389  1.00  0.00     0.015 A 
HETATM    6  C   UNL     2       6.687  -0.053  21.619  1.00  0.00     0.133 A 
HETATM    7  C   UNL     2       6.766  -0.512  22.529  1.00  0.00     0.180 A 
ENDROOT
TORSDOF 3
