MODEL 1
REMARK VINA RESULT:    -6.261      0.000      0.000
REMARK INTER + INTRA:          -9.283
REMARK INTER:                  -8.457
REMARK INTRA:                  -0.826
REMARK UNBOUND:                -0.826
REMARK  6 active torsions:
REMARK  status: ('A' for Active; 'I' for Inactive)
REMARK    1  A    between atoms: N_2  and  N_4 
REMARK    2  A    between atoms: N_4  and  C_8 
REMARK    3  A    between atoms: N_6  and  N_15 
REMARK    4  A    between atoms: C_8  and  N_11 
REMARK    5  A    between atoms: C_8  and  C_9 
REMARK    6  A    between atoms: C_13  and  C_17 
REMARK       I    between atoms: C_13  and  N_15 
ROOT
HETATM    1  N   UNL     1       8.304  11.269   3.265  1.00  0.00    -0.238 N 
ATOM      2  HN  UNL     1       8.683  10.467   2.760  1.00  0.00     0.208 HD
HETATM    3  N   UNL     1       7.173  11.319   3.752  1.00  0.00    -0.270 N 
ATOM      4  HN  UNL     1       6.948  12.032   4.445  1.00  0.00     0.190 HD
ENDROOT
BRANCH   1   5
HETATM    5  N   UNL     1       8.951  12.383   3.485  1.00  0.00    -0.250 N 
HETATM    6  C   UNL     1       8.644  13.537   2.986  1.00  0.00     0.290 C 
HETATM    7  O   UNL     1       7.836  14.000   2.212  1.00  0.00    -0.264 OA
ATOM      8  HN  UNL     1       9.764  12.339   4.099  1.00  0.00     0.192 HD
BRANCH   6   9
HETATM    9  C   UNL     1       9.707  14.455   3.615  1.00  0.00     0.136 C 
HETATM   10  N   UNL     1      10.942  14.463   3.183  1.00  0.00    -0.295 N 
HETATM   11  N   UNL     1      11.733  15.023   3.966  1.00  0.00    -0.310 N 
ATOM     12  HN  UNL     1      11.229  14.052   2.294  1.00  0.00     0.187 HD
HETATM   13  C   UNL     1      10.946  15.547   4.950  1.00  0.00     0.128 C 
ATOM     14  HN  UNL     1      12.748  15.078   3.889  1.00  0.00     0.186 HD
HETATM   15  C   UNL     1       9.606  15.294   4.702  1.00  0.00     0.061 C 
HETATM   16 BR   UNL     1       8.070  15.866   5.468  1.00  0.00    -0.047 Br
ENDBRANCH   6   9
ENDBRANCH   1   5
BRANCH   3  17
HETATM   17  C   UNL     1       6.341  10.536   3.414  1.00  0.00     0.134 C 
BRANCH  17  18
HETATM   18  N   UNL     1       6.494   9.362   4.557  1.00  0.00    -0.289 N 
ATOM     19  HN  UNL     1       7.211   9.727   5.184  1.00  0.00     0.188 HD
BRANCH  18  20
HETATM   20  N   UNL     1       6.192   8.254   5.064  1.00  0.00    -0.339 N 
HETATM   21  C   UNL     1       5.014   7.435   4.987  1.00  0.00     0.167 C 
ATOM     22  HN  UNL     1       6.929   7.856   5.646  1.00  0.00     0.179 HD
ENDBRANCH  18  20
ENDBRANCH  17  18
BRANCH  17  23
HETATM   23  C   UNL     1       5.512  10.820   2.304  1.00  0.00     0.041 C 
HETATM   24  C   UNL     1       4.888   9.718   1.870  1.00  0.00     0.015 C 
ENDBRANCH  17  23
ENDBRANCH   3  17
TORSDOF 6
ENDMDL
MODEL 2
REMARK VINA RESULT:    -6.111      4.310      8.274
REMARK INTER + INTRA:          -9.080
REMARK INTER:                  -8.300
REMARK INTRA:                  -0.781
REMARK UNBOUND:                -0.826
REMARK  6 active torsions:
REMARK  status: ('A' for Active; 'I' for Inactive)
REMARK    1  A    between atoms: N_2  and  N_4 
REMARK    2  A    between atoms: N_4  and  C_8 
REMARK    3  A    between atoms: N_6  and  N_15 
REMARK    4  A    between atoms: C_8  and  N_11 
REMARK    5  A    between atoms: C_8  and  C_9 
REMARK    6  A    between atoms: C_13  and  C_17 
REMARK       I    between atoms: C_13  and  N_15 
ROOT
HETATM    1  N   UNL     1       9.718  17.834   0.375  1.00  0.00    -0.238 N 
ATOM      2  HN  UNL     1      10.275  17.947  -0.473  1.00  0.00     0.208 HD
HETATM    3  N   UNL     1       9.469  18.738   1.175  1.00  0.00    -0.270 N 
ATOM      4  HN  UNL     1       8.716  18.624   1.854  1.00  0.00     0.190 HD
ENDROOT
BRANCH   1   5
HETATM    5  N   UNL     1       9.172  16.711   0.763  1.00  0.00    -0.250 N 
HETATM    6  C   UNL     1       9.294  16.187   1.939  1.00  0.00     0.290 C 
HETATM    7  O   UNL     1       9.887  16.412   2.970  1.00  0.00    -0.264 OA
ATOM      8  HN  UNL     1       8.604  16.207   0.082  1.00  0.00     0.192 HD
BRANCH   6   9
HETATM    9  C   UNL     1       8.420  14.925   1.824  1.00  0.00     0.136 C 
HETATM   10  N   UNL     1       8.398  14.209   0.729  1.00  0.00    -0.295 N 
HETATM   11  N   UNL     1       7.443  13.411   0.684  1.00  0.00    -0.310 N 
ATOM     12  HN  UNL     1       9.093  14.296  -0.013  1.00  0.00     0.187 HD
HETATM   13  C   UNL     1       6.842  13.507   1.905  1.00  0.00     0.128 C 
ATOM     14  HN  UNL     1       7.168  12.814  -0.097  1.00  0.00     0.186 HD
HETATM   15  C   UNL     1       7.515  14.404   2.721  1.00  0.00     0.061 C 
HETATM   16 BR   UNL     1       7.380  14.834   4.472  1.00  0.00    -0.047 Br
ENDBRANCH   6   9
ENDBRANCH   1   5
BRANCH   3  17
HETATM   17  C   UNL     1      10.105  19.745   1.156  1.00  0.00     0.134 C 
BRANCH  17  18
HETATM   18  N   UNL     1      11.322  19.399   2.208  1.00  0.00    -0.289 N 
ATOM     19  HN  UNL     1      11.347  18.379   2.221  1.00  0.00     0.188 HD
BRANCH  18  20
HETATM   20  N   UNL     1      12.235  19.729   3.003  1.00  0.00    -0.339 N 
HETATM   21  C   UNL     1      12.610  19.260   4.308  1.00  0.00     0.167 C 
ATOM     22  HN  UNL     1      12.829  20.481   2.653  1.00  0.00     0.179 HD
ENDBRANCH  18  20
ENDBRANCH  17  18
BRANCH  17  23
HETATM   23  C   UNL     1       9.727  20.803   0.298  1.00  0.00     0.041 C 
HETATM   24  C   UNL     1      10.425  21.915   0.562  1.00  0.00     0.015 C 
ENDBRANCH  17  23
ENDBRANCH   3  17
TORSDOF 6
ENDMDL
MODEL 3
REMARK VINA RESULT:    -6.074     19.719     22.874
REMARK INTER + INTRA:          -9.030
REMARK INTER:                  -7.853
REMARK INTRA:                  -1.177
REMARK UNBOUND:                -0.826
REMARK  6 active torsions:
REMARK  status: ('A' for Active; 'I' for Inactive)
REMARK    1  A    between atoms: N_2  and  N_4 
REMARK    2  A    between atoms: N_4  and  C_8 
REMARK    3  A    between atoms: N_6  and  N_15 
REMARK    4  A    between atoms: C_8  and  N_11 
REMARK    5  A    between atoms: C_8  and  C_9 
REMARK    6  A    between atoms: C_13  and  C_17 
REMARK       I    between atoms: C_13  and  N_15 
ROOT
HETATM    1  N   UNL     1       5.774  -2.806  22.139  1.00  0.00    -0.238 N 
ATOM      2  HN  UNL     1       5.137  -2.877  22.933  1.00  0.00     0.208 HD
HETATM    3  N   UNL     1       6.746  -3.540  21.952  1.00  0.00    -0.270 N 
ATOM      4  HN  UNL     1       7.185  -3.580  21.033  1.00  0.00     0.190 HD
ENDROOT
BRANCH   1   5
HETATM    5  N   UNL     1       5.671  -1.923  21.180  1.00  0.00    -0.250 N 
HETATM    6  C   UNL     1       6.604  -1.105  20.813  1.00  0.00     0.290 C 
HETATM    7  O   UNL     1       7.727  -0.805  21.154  1.00  0.00    -0.264 OA
ATOM      8  HN  UNL     1       4.784  -1.875  20.680  1.00  0.00     0.192 HD
BRANCH   6   9
HETATM    9  C   UNL     1       5.939  -0.358  19.644  1.00  0.00     0.136 C 
HETATM   10  N   UNL     1       5.654  -0.967  18.521  1.00  0.00    -0.295 N 
HETATM   11  N   UNL     1       5.400  -0.181  17.588  1.00  0.00    -0.310 N 
ATOM     12  HN  UNL     1       5.641  -1.982  18.420  1.00  0.00     0.187 HD
HETATM   13  C   UNL     1       5.389   1.058  18.160  1.00  0.00     0.128 C 
ATOM     14  HN  UNL     1       5.235  -0.413  16.608  1.00  0.00     0.186 HD
HETATM   15  C   UNL     1       5.628   0.978  19.523  1.00  0.00     0.061 C 
HETATM   16 BR   UNL     1       5.547   2.180  20.872  1.00  0.00    -0.047 Br
ENDBRANCH   6   9
ENDBRANCH   1   5
BRANCH   3  17
HETATM   17  C   UNL     1       7.173  -4.204  22.844  1.00  0.00     0.134 C 
BRANCH  17  18
HETATM   18  N   UNL     1       8.559  -3.406  23.231  1.00  0.00    -0.289 N 
ATOM     19  HN  UNL     1       8.889  -3.887  24.068  1.00  0.00     0.188 HD
BRANCH  18  20
HETATM   20  N   UNL     1       9.424  -2.518  23.037  1.00  0.00    -0.339 N 
HETATM   21  C   UNL     1       9.962  -1.482  23.874  1.00  0.00     0.167 C 
ATOM     22  HN  UNL     1       9.824  -2.535  22.099  1.00  0.00     0.179 HD
ENDBRANCH  18  20
ENDBRANCH  17  18
BRANCH  17  23
HETATM   23  C   UNL     1       6.436  -5.317  23.312  1.00  0.00     0.041 C 
HETATM   24  C   UNL     1       6.379  -6.284  22.388  1.00  0.00     0.015 C 
ENDBRANCH  17  23
ENDBRANCH   3  17
TORSDOF 6
ENDMDL
MODEL 4
REMARK VINA RESULT:    -5.952      3.270      6.919
REMARK INTER + INTRA:          -8.866
REMARK INTER:                  -7.669
REMARK INTRA:                  -1.198
REMARK UNBOUND:                -0.826
REMARK  6 active torsions:
REMARK  status: ('A' for Active; 'I' for Inactive)
REMARK    1  A    between atoms: N_2  and  N_4 
REMARK    2  A    between atoms: N_4  and  C_8 
REMARK    3  A    between atoms: N_6  and  N_15 
REMARK    4  A    between atoms: C_8  and  N_11 
REMARK    5  A    between atoms: C_8  and  C_9 
REMARK    6  A    between atoms: C_13  and  C_17 
REMARK       I    between atoms: C_13  and  N_15 
ROOT
HETATM    1  N   UNL     1       9.302  15.846   1.145  1.00  0.00    -0.238 N 
ATOM      2  HN  UNL     1       9.994  15.805   0.396  1.00  0.00     0.208 HD
HETATM    3  N   UNL     1       8.727  16.871   1.513  1.00  0.00    -0.270 N 
ATOM      4  HN  UNL     1       7.883  16.806   2.081  1.00  0.00     0.190 HD
ENDROOT
BRANCH   1   5
HETATM    5  N   UNL     1       8.904  14.816   1.846  1.00  0.00    -0.250 N 
HETATM    6  C   UNL     1       8.919  14.741   3.138  1.00  0.00     0.290 C 
HETATM    7  O   UNL     1       9.284  15.412   4.077  1.00  0.00    -0.264 OA
ATOM      8  HN  UNL     1       8.554  14.007   1.334  1.00  0.00     0.192 HD
BRANCH   6   9
HETATM    9  C   UNL     1       8.311  13.349   3.388  1.00  0.00     0.136 C 
HETATM   10  N   UNL     1       9.061  12.278   3.447  1.00  0.00    -0.295 N 
HETATM   11  N   UNL     1       8.411  11.219   3.359  1.00  0.00    -0.310 N 
ATOM     12  HN  UNL     1      10.075  12.308   3.555  1.00  0.00     0.187 HD
HETATM   13  C   UNL     1       7.101  11.603   3.367  1.00  0.00     0.128 C 
ATOM     14  HN  UNL     1       8.778  10.269   3.295  1.00  0.00     0.186 HD
HETATM   15  C   UNL     1       6.989  12.979   3.496  1.00  0.00     0.061 C 
HETATM   16 BR   UNL     1       5.589  14.091   3.774  1.00  0.00    -0.047 Br
ENDBRANCH   6   9
ENDBRANCH   1   5
BRANCH   3  17
HETATM   17  C   UNL     1       9.155  17.940   1.206  1.00  0.00     0.134 C 
BRANCH  17  18
HETATM   18  N   UNL     1      10.025  18.355   2.539  1.00  0.00    -0.289 N 
ATOM     19  HN  UNL     1      10.248  19.339   2.385  1.00  0.00     0.188 HD
BRANCH  18  20
HETATM   20  N   UNL     1      10.559  18.099   3.645  1.00  0.00    -0.339 N 
HETATM   21  C   UNL     1      11.511  18.806   4.456  1.00  0.00     0.167 C 
ATOM     22  HN  UNL     1      10.257  17.212   4.049  1.00  0.00     0.179 HD
ENDBRANCH  18  20
ENDBRANCH  17  18
BRANCH  17  23
HETATM   23  C   UNL     1       8.887  18.465  -0.080  1.00  0.00     0.041 C 
HETATM   24  C   UNL     1       7.864  19.327  -0.049  1.00  0.00     0.015 C 
ENDBRANCH  17  23
ENDBRANCH   3  17
TORSDOF 6
ENDMDL
MODEL 5
REMARK VINA RESULT:    -5.806      2.785      6.384
REMARK INTER + INTRA:          -8.669
REMARK INTER:                  -7.680
REMARK INTRA:                  -0.989
REMARK UNBOUND:                -0.826
REMARK  6 active torsions:
REMARK  status: ('A' for Active; 'I' for Inactive)
REMARK    1  A    between atoms: N_2  and  N_4 
REMARK    2  A    between atoms: N_4  and  C_8 
REMARK    3  A    between atoms: N_6  and  N_15 
REMARK    4  A    between atoms: C_8  and  N_11 
REMARK    5  A    between atoms: C_8  and  C_9 
REMARK    6  A    between atoms: C_13  and  C_17 
REMARK       I    between atoms: C_13  and  N_15 
ROOT
HETATM    1  N   UNL     1       8.109  14.177   0.796  1.00  0.00    -0.238 N 
ATOM      2  HN  UNL     1       8.627  14.248  -0.081  1.00  0.00     0.208 HD
HETATM    3  N   UNL     1       7.991  15.089   1.616  1.00  0.00    -0.270 N 
ATOM      4  HN  UNL     1       7.269  15.038   2.334  1.00  0.00     0.190 HD
ENDROOT
BRANCH   1   5
HETATM    5  N   UNL     1       7.479  13.105   1.203  1.00  0.00    -0.250 N 
HETATM    6  C   UNL     1       7.606  12.562   2.370  1.00  0.00     0.290 C 
HETATM    7  O   UNL     1       8.263  12.723   3.374  1.00  0.00    -0.264 OA
ATOM      8  HN  UNL     1       6.837  12.662   0.547  1.00  0.00     0.192 HD
BRANCH   6   9
HETATM    9  C   UNL     1       6.614  11.388   2.290  1.00  0.00     0.136 C 
HETATM   10  N   UNL     1       6.433  10.724   1.178  1.00  0.00    -0.295 N 
HETATM   11  N   UNL     1       5.409  10.015   1.191  1.00  0.00    -0.310 N 
ATOM     12  HN  UNL     1       7.067  10.781   0.380  1.00  0.00     0.187 HD
HETATM   13  C   UNL     1       4.926  10.111   2.463  1.00  0.00     0.128 C 
ATOM     14  HN  UNL     1       5.016   9.478   0.417  1.00  0.00     0.186 HD
HETATM   15  C   UNL     1       5.745  10.911   3.246  1.00  0.00     0.061 C 
HETATM   16 BR   UNL     1       5.800  11.277   5.016  1.00  0.00    -0.047 Br
ENDBRANCH   6   9
ENDBRANCH   1   5
BRANCH   3  17
HETATM   17  C   UNL     1       8.719  16.031   1.571  1.00  0.00     0.134 C 
BRANCH  17  18
HETATM   18  N   UNL     1      10.102  15.425   2.227  1.00  0.00    -0.289 N 
ATOM     19  HN  UNL     1      10.842  15.891   1.701  1.00  0.00     0.188 HD
BRANCH  18  20
HETATM   20  N   UNL     1      10.724  14.692   3.033  1.00  0.00    -0.339 N 
HETATM   21  C   UNL     1      11.208  14.903   4.369  1.00  0.00     0.167 C 
ATOM     22  HN  UNL     1      10.928  13.762   2.666  1.00  0.00     0.179 HD
ENDBRANCH  18  20
ENDBRANCH  17  18
BRANCH  17  23
HETATM   23  C   UNL     1       8.277  17.239   0.983  1.00  0.00     0.041 C 
HETATM   24  C   UNL     1       7.423  17.885   1.786  1.00  0.00     0.015 C 
ENDBRANCH  17  23
ENDBRANCH   3  17
TORSDOF 6
ENDMDL
MODEL 6
REMARK VINA RESULT:    -5.795      2.374      6.687
REMARK INTER + INTRA:          -8.654
REMARK INTER:                  -7.843
REMARK INTRA:                  -0.811
REMARK UNBOUND:                -0.826
REMARK  6 active torsions:
REMARK  status: ('A' for Active; 'I' for Inactive)
REMARK    1  A    between atoms: N_2  and  N_4 
REMARK    2  A    between atoms: N_4  and  C_8 
REMARK    3  A    between atoms: N_6  and  N_15 
REMARK    4  A    between atoms: C_8  and  N_11 
REMARK    5  A    between atoms: C_8  and  C_9 
REMARK    6  A    between atoms: C_13  and  C_17 
REMARK       I    between atoms: C_13  and  N_15 
ROOT
HETATM    1  N   UNL     1       9.431  12.706   3.279  1.00  0.00    -0.238 N 
ATOM      2  HN  UNL     1      10.393  12.400   3.431  1.00  0.00     0.208 HD
HETATM    3  N   UNL     1       9.104  13.837   2.917  1.00  0.00    -0.270 N 
ATOM      4  HN  UNL     1       8.168  14.003   2.549  1.00  0.00     0.190 HD
ENDROOT
BRANCH   1   5
HETATM    5  N   UNL     1       8.376  11.950   3.442  1.00  0.00    -0.250 N 
HETATM    6  C   UNL     1       7.372  12.223   4.210  1.00  0.00     0.290 C 
HETATM    7  O   UNL     1       7.047  13.081   5.001  1.00  0.00    -0.264 OA
ATOM      8  HN  UNL     1       8.343  11.073   2.922  1.00  0.00     0.192 HD
BRANCH   6   9
HETATM    9  C   UNL     1       6.442  11.021   3.967  1.00  0.00     0.136 C 
HETATM   10  N   UNL     1       6.578   9.908   4.641  1.00  0.00    -0.295 N 
HETATM   11  N   UNL     1       5.960   8.951   4.136  1.00  0.00    -0.310 N 
ATOM     12  HN  UNL     1       7.133   9.832   5.494  1.00  0.00     0.187 HD
HETATM   13  C   UNL     1       5.246   9.491   3.107  1.00  0.00     0.128 C 
ATOM     14  HN  UNL     1       5.983   7.974   4.429  1.00  0.00     0.186 HD
HETATM   15  C   UNL     1       5.446  10.861   3.030  1.00  0.00     0.061 C 
HETATM   16 BR   UNL     1       4.670  12.178   2.063  1.00  0.00    -0.047 Br
ENDBRANCH   6   9
ENDBRANCH   1   5
BRANCH   3  17
HETATM   17  C   UNL     1       9.879  14.738   2.997  1.00  0.00     0.134 C 
BRANCH  17  18
HETATM   18  N   UNL     1       9.721  15.455   1.525  1.00  0.00    -0.289 N 
ATOM     19  HN  UNL     1      10.270  14.859   0.905  1.00  0.00     0.188 HD
BRANCH  18  20
HETATM   20  N   UNL     1       9.281  16.350   0.763  1.00  0.00    -0.339 N 
HETATM   21  C   UNL     1       9.020  17.750   0.952  1.00  0.00     0.167 C 
ATOM     22  HN  UNL     1       9.065  16.016  -0.177  1.00  0.00     0.179 HD
ENDBRANCH  18  20
ENDBRANCH  17  18
BRANCH  17  23
HETATM   23  C   UNL     1      10.587  14.956   4.202  1.00  0.00     0.041 C 
HETATM   24  C   UNL     1      10.549  16.246   4.560  1.00  0.00     0.015 C 
ENDBRANCH  17  23
ENDBRANCH   3  17
TORSDOF 6
ENDMDL
MODEL 7
REMARK VINA RESULT:    -5.671     21.697     24.955
REMARK INTER + INTRA:          -8.486
REMARK INTER:                  -7.363
REMARK INTRA:                  -1.123
REMARK UNBOUND:                -0.826
REMARK  6 active torsions:
REMARK  status: ('A' for Active; 'I' for Inactive)
REMARK    1  A    between atoms: N_2  and  N_4 
REMARK    2  A    between atoms: N_4  and  C_8 
REMARK    3  A    between atoms: N_6  and  N_15 
REMARK    4  A    between atoms: C_8  and  N_11 
REMARK    5  A    between atoms: C_8  and  C_9 
REMARK    6  A    between atoms: C_13  and  C_17 
REMARK       I    between atoms: C_13  and  N_15 
ROOT
HETATM    1  N   UNL     1       9.682  -2.385  23.708  1.00  0.00    -0.238 N 
ATOM      2  HN  UNL     1       9.783  -1.901  24.600  1.00  0.00     0.208 HD
HETATM    3  N   UNL     1      10.425  -2.230  22.738  1.00  0.00    -0.270 N 
ATOM      4  HN  UNL     1      10.422  -2.912  21.980  1.00  0.00     0.190 HD
ENDROOT
BRANCH   1   5
HETATM    5  N   UNL     1       8.744  -3.257  23.437  1.00  0.00    -0.250 N 
HETATM    6  C   UNL     1       7.825  -3.111  22.540  1.00  0.00     0.290 C 
HETATM    7  O   UNL     1       7.453  -2.265  21.756  1.00  0.00    -0.264 OA
ATOM      8  HN  UNL     1       8.738  -4.121  23.978  1.00  0.00     0.192 HD
BRANCH   6   9
HETATM    9  C   UNL     1       7.057  -4.440  22.644  1.00  0.00     0.136 C 
HETATM   10  N   UNL     1       7.534  -5.545  22.130  1.00  0.00    -0.295 N 
HETATM   11  N   UNL     1       6.682  -6.450  22.036  1.00  0.00    -0.310 N 
ATOM     12  HN  UNL     1       8.505  -5.654  21.836  1.00  0.00     0.187 HD
HETATM   13  C   UNL     1       5.570  -5.957  22.653  1.00  0.00     0.128 C 
ATOM     14  HN  UNL     1       6.793  -7.362  21.593  1.00  0.00     0.186 HD
HETATM   15  C   UNL     1       5.805  -4.689  23.162  1.00  0.00     0.061 C 
HETATM   16 BR   UNL     1       4.859  -3.586  24.239  1.00  0.00    -0.047 Br
ENDBRANCH   6   9
ENDBRANCH   1   5
BRANCH   3  17
HETATM   17  C   UNL     1      11.146  -1.284  22.683  1.00  0.00     0.134 C 
BRANCH  17  18
HETATM   18  N   UNL     1      10.259  -0.229  21.784  1.00  0.00    -0.289 N 
ATOM     19  HN  UNL     1      10.651   0.682  22.025  1.00  0.00     0.188 HD
BRANCH  18  20
HETATM   20  N   UNL     1       9.355   0.045  20.959  1.00  0.00    -0.339 N 
HETATM   21  C   UNL     1       8.242   0.952  20.996  1.00  0.00     0.167 C 
ATOM     22  HN  UNL     1       9.423  -0.482  20.088  1.00  0.00     0.179 HD
ENDBRANCH  18  20
ENDBRANCH  17  18
BRANCH  17  23
HETATM   23  C   UNL     1      12.382  -1.297  23.371  1.00  0.00     0.041 C 
HETATM   24  C   UNL     1      12.530  -0.201  24.125  1.00  0.00     0.015 C 
ENDBRANCH  17  23
ENDBRANCH   3  17
TORSDOF 6
ENDMDL
MODEL 8
REMARK VINA RESULT:    -5.558     40.456     42.685
REMARK INTER + INTRA:          -8.333
REMARK INTER:                  -7.220
REMARK INTRA:                  -1.113
REMARK UNBOUND:                -0.826
REMARK  6 active torsions:
REMARK  status: ('A' for Active; 'I' for Inactive)
REMARK    1  A    between atoms: N_2  and  N_4 
REMARK    2  A    between atoms: N_4  and  C_8 
REMARK    3  A    between atoms: N_6  and  N_15 
REMARK    4  A    between atoms: C_8  and  N_11 
REMARK    5  A    between atoms: C_8  and  C_9 
REMARK    6  A    between atoms: C_13  and  C_17 
REMARK       I    between atoms: C_13  and  N_15 
ROOT
HETATM    1  N   UNL     1      20.945 -18.345  27.205  1.00  0.00    -0.238 N 
ATOM      2  HN  UNL     1      20.217 -17.754  26.803  1.00  0.00     0.208 HD
HETATM    3  N   UNL     1      22.140 -18.280  26.915  1.00  0.00    -0.270 N 
ATOM      4  HN  UNL     1      22.836 -18.714  27.521  1.00  0.00     0.190 HD
ENDROOT
BRANCH   1   5
HETATM    5  N   UNL     1      20.737 -19.276  28.101  1.00  0.00    -0.250 N 
HETATM    6  C   UNL     1      21.030 -20.528  27.960  1.00  0.00     0.290 C 
HETATM    7  O   UNL     1      21.474 -21.260  27.104  1.00  0.00    -0.264 OA
ATOM      8  HN  UNL     1      20.309 -18.991  28.981  1.00  0.00     0.192 HD
BRANCH   6   9
HETATM    9  C   UNL     1      20.608 -21.114  29.318  1.00  0.00     0.136 C 
HETATM   10  N   UNL     1      19.382 -20.995  29.761  1.00  0.00    -0.295 N 
HETATM   11  N   UNL     1      19.272 -21.253  30.975  1.00  0.00    -0.310 N 
ATOM     12  HN  UNL     1      18.597 -20.718  29.171  1.00  0.00     0.187 HD
HETATM   13  C   UNL     1      20.501 -21.706  31.355  1.00  0.00     0.128 C 
ATOM     14  HN  UNL     1      18.442 -21.148  31.558  1.00  0.00     0.186 HD
HETATM   15  C   UNL     1      21.374 -21.736  30.278  1.00  0.00     0.061 C 
HETATM   16 BR   UNL     1      23.039 -22.404  30.047  1.00  0.00    -0.047 Br
ENDBRANCH   6   9
ENDBRANCH   1   5
BRANCH   3  17
HETATM   17  C   UNL     1      22.485 -17.711  25.927  1.00  0.00     0.134 C 
BRANCH  17  18
HETATM   18  N   UNL     1      22.115 -18.806  24.755  1.00  0.00    -0.289 N 
ATOM     19  HN  UNL     1      21.683 -18.240  24.025  1.00  0.00     0.188 HD
BRANCH  18  20
HETATM   20  N   UNL     1      22.085 -19.969  24.288  1.00  0.00    -0.339 N 
HETATM   21  C   UNL     1      23.097 -20.821  23.725  1.00  0.00     0.167 C 
ATOM     22  HN  UNL     1      21.159 -20.396  24.312  1.00  0.00     0.179 HD
ENDBRANCH  18  20
ENDBRANCH  17  18
BRANCH  17  23
HETATM   23  C   UNL     1      22.993 -16.394  26.011  1.00  0.00     0.041 C 
HETATM   24  C   UNL     1      23.718 -16.224  27.124  1.00  0.00     0.015 C 
ENDBRANCH  17  23
ENDBRANCH   3  17
TORSDOF 6
ENDMDL
MODEL 9
REMARK VINA RESULT:    -5.522     30.842     32.178
REMARK INTER + INTRA:          -8.285
REMARK INTER:                  -7.549
REMARK INTRA:                  -0.736
REMARK UNBOUND:                -0.826
REMARK  6 active torsions:
REMARK  status: ('A' for Active; 'I' for Inactive)
REMARK    1  A    between atoms: N_2  and  N_4 
REMARK    2  A    between atoms: N_4  and  C_8 
REMARK    3  A    between atoms: N_6  and  N_15 
REMARK    4  A    between atoms: C_8  and  N_11 
REMARK    5  A    between atoms: C_8  and  C_9 
REMARK    6  A    between atoms: C_13  and  C_17 
REMARK       I    between atoms: C_13  and  N_15 
ROOT
HETATM    1  N   UNL     1      -0.750 -16.060  13.870  1.00  0.00    -0.238 N 
ATOM      2  HN  UNL     1      -0.263 -15.376  14.449  1.00  0.00     0.208 HD
HETATM    3  N   UNL     1      -1.719 -16.727  14.238  1.00  0.00    -0.270 N 
ATOM      4  HN  UNL     1      -2.305 -17.198  13.548  1.00  0.00     0.190 HD
ENDROOT
BRANCH   1   5
HETATM    5  N   UNL     1      -0.433 -16.349  12.634  1.00  0.00    -0.250 N 
HETATM    6  C   UNL     1      -1.248 -16.333  11.630  1.00  0.00     0.290 C 
HETATM    7  O   UNL     1      -2.427 -16.146  11.426  1.00  0.00    -0.264 OA
ATOM      8  HN  UNL     1       0.535 -16.609  12.448  1.00  0.00     0.192 HD
BRANCH   6   9
HETATM    9  C   UNL     1      -0.324 -16.709  10.457  1.00  0.00     0.136 C 
HETATM   10  N   UNL     1       0.813 -16.092  10.262  1.00  0.00    -0.295 N 
HETATM   11  N   UNL     1       1.294 -16.299   9.131  1.00  0.00    -0.310 N 
ATOM     12  HN  UNL     1       1.261 -15.503  10.964  1.00  0.00     0.187 HD
HETATM   13  C   UNL     1       0.478 -17.231   8.561  1.00  0.00     0.128 C 
ATOM     14  HN  UNL     1       2.120 -15.864   8.719  1.00  0.00     0.186 HD
HETATM   15  C   UNL     1      -0.530 -17.609   9.436  1.00  0.00     0.061 C 
HETATM   16 BR   UNL     1      -1.786 -18.910   9.397  1.00  0.00    -0.047 Br
ENDBRANCH   6   9
ENDBRANCH   1   5
BRANCH   3  17
HETATM   17  C   UNL     1      -1.973 -16.823  15.397  1.00  0.00     0.134 C 
BRANCH  17  18
HETATM   18  N   UNL     1      -3.549 -17.294  15.364  1.00  0.00    -0.289 N 
ATOM     19  HN  UNL     1      -3.601 -18.012  16.087  1.00  0.00     0.188 HD
BRANCH  18  20
HETATM   20  N   UNL     1      -4.720 -17.235  14.918  1.00  0.00    -0.339 N 
HETATM   21  C   UNL     1      -5.373 -16.335  14.009  1.00  0.00     0.167 C 
ATOM     22  HN  UNL     1      -5.330 -17.972  15.272  1.00  0.00     0.179 HD
ENDBRANCH  18  20
ENDBRANCH  17  18
BRANCH  17  23
HETATM   23  C   UNL     1      -0.964 -16.597  16.363  1.00  0.00     0.041 C 
HETATM   24  C   UNL     1      -1.482 -16.498  17.592  1.00  0.00     0.015 C 
ENDBRANCH  17  23
ENDBRANCH   3  17
TORSDOF 6
ENDMDL
