stable:False satoms:17 tatoms:24 sratio:0.7083333333333334
  -OEChem-07092417383D

 24 24  0     0  0  0  0  0  0999 V2000
    7.1943   -4.3377   26.1413 H   0  0  0  0  0  0  0  0  0  0  0  0
    8.2876   -4.1487   26.0292 C   0  0  0  0  0  0  0  0  0  0  0  0
    8.7851   -5.1184   25.9398 H   0  0  0  0  0  0  0  0  0  0  0  0
    8.6503   -3.6358   26.9433 H   0  0  0  0  0  0  0  0  0  0  0  0
    8.5593   -3.3654   24.8559 N   0  0  0  0  0  0  0  0  0  0  0  0
    9.5741   -2.7396   24.4653 N   0  0  0  0  0  0  0  0  0  0  0  0
    8.5554   -1.6611   22.7260 N   0  0  0  0  0  0  0  0  0  0  0  0
   10.3217   -1.4173   23.8345 C   0  0  0  0  0  0  0  0  0  0  0  0
   11.4239   -0.5855   24.1427 C   0  0  0  0  0  0  0  0  0  0  0  0
   11.4805    0.1526   24.9329 H   0  0  0  0  0  0  0  0  0  0  0  0
   13.3175   -0.2002   23.3180 H   0  0  0  0  0  0  0  0  0  0  0  0
   12.4239   -0.7622   23.2709 C   0  0  0  0  0  0  0  0  0  0  0  0
   12.2843   -1.4817   22.4912 H   0  0  0  0  0  0  0  0  0  0  0  0
    9.7095   -1.2445   22.8268 N   0  0  0  0  0  0  0  0  0  0  0  0
    8.4312   -0.1386   20.9923 C   0  0  0  0  0  0  0  0  0  0  0  0
    9.4264    0.5502   20.9543 O   0  0  0  0  0  0  0  0  0  0  0  0
    7.9440   -1.0906   21.7197 N   0  0  0  0  0  0  0  0  0  0  0  0
    7.3084    0.0901   19.9653 C   0  0  0  0  0  0  0  0  0  0  0  0
    7.4991   -0.1209   18.6878 N   0  0  0  0  0  0  0  0  0  0  0  0
    6.6131    0.3808   17.9702 N   0  0  0  0  0  0  0  0  0  0  0  0
    4.8893    1.3578   18.3582 H   0  0  0  0  0  0  0  0  0  0  0  0
    5.6796    0.8626   18.8411 C   0  0  0  0  0  0  0  0  0  0  0  0
    6.0406    0.5955   20.1526 C   0  0  0  0  0  0  0  0  0  0  0  0
    5.1850    0.7685   21.7374 Br  0  0  0  0  0  0  0  0  0  0  0  0
 19 20  1  0  0  0  0
 20 22  2  0  0  0  0
 21 22  1  0  0  0  0
 18 19  1  0  0  0  0
 22 23  1  0  0  0  0
 18 23  2  0  0  0  0
 15 18  1  0  0  0  0
 23 24  1  0  0  0  0
 15 16  2  0  0  0  0
 15 17  1  0  0  0  0
  7 17  1  0  0  0  0
 12 13  1  0  0  0  0
  7 14  1  0  0  0  0
  8 14  2  0  0  0  0
 11 12  1  0  0  0  0
  9 12  2  0  0  0  0
  8  9  1  0  0  0  0
  6  8  1  0  0  0  0
  9 10  1  0  0  0  0
  5  6  2  3  0  0  0
  2  5  1  0  0  0  0
  2  3  1  0  0  0  0
  1  2  1  0  0  0  0
  2  4  1  0  0  0  0
M  END
> <Shapegauss>
-195.820877

$$$$
