REMARK  6 active torsions:
REMARK  status: ('A' for Active; 'I' for Inactive)
REMARK    1  A    between atoms: N_2  and  N_4 
REMARK    2  A    between atoms: N_4  and  C_8 
REMARK    3  A    between atoms: N_6  and  N_15 
REMARK    4  A    between atoms: C_8  and  N_11 
REMARK    5  A    between atoms: C_8  and  C_9 
REMARK    6  A    between atoms: C_13  and  C_17 
REMARK       I    between atoms: C_13  and  N_15 
ROOT
HETATM    1  N   UNL     1       8.555  -1.661  22.726  1.00  0.00    -0.238 N 
ATOM      2  HN  UNL     1       8.133  -2.356  23.343  1.00  0.00     0.208 HD
HETATM    3  N   UNL     1       9.710  -1.244  22.827  1.00  0.00    -0.270 N 
ATOM      4  HN  UNL     1      10.143  -0.750  22.047  1.00  0.00     0.190 HD
ENDROOT
BRANCH   1   5
HETATM    5  N   UNL     1       7.944  -1.091  21.720  1.00  0.00    -0.250 N 
HETATM    6  C   UNL     1       8.431  -0.139  20.992  1.00  0.00     0.290 C 
HETATM    7  O   UNL     1       9.426   0.550  20.954  1.00  0.00    -0.264 OA
ATOM      8  HN  UNL     1       7.008  -1.424  21.491  1.00  0.00     0.192 HD
BRANCH   6   9
HETATM    9  C   UNL     1       7.308   0.090  19.965  1.00  0.00     0.136 C 
HETATM   10  N   UNL     1       7.499  -0.121  18.688  1.00  0.00    -0.295 N 
HETATM   11  N   UNL     1       6.613   0.381  17.970  1.00  0.00    -0.310 N 
ATOM     12  HN  UNL     1       8.293  -0.644  18.318  1.00  0.00     0.187 HD
HETATM   13  C   UNL     1       5.680   0.863  18.841  1.00  0.00     0.128 C 
ATOM     14  HN  UNL     1       6.590   0.423  16.951  1.00  0.00     0.186 HD
HETATM   15  C   UNL     1       6.041   0.596  20.153  1.00  0.00     0.061 C 
HETATM   16 BR   UNL     1       5.185   0.768  21.737  1.00  0.00    -0.047 Br
ENDBRANCH   6   9
ENDBRANCH   1   5
BRANCH   3  17
HETATM   17  C   UNL     1      10.322  -1.417  23.834  1.00  0.00     0.134 C 
BRANCH  17  18
HETATM   18  N   UNL     1       9.574  -2.740  24.465  1.00  0.00    -0.289 N 
ATOM     19  HN  UNL     1      10.338  -3.398  24.620  1.00  0.00     0.188 HD
BRANCH  18  20
HETATM   20  N   UNL     1       8.559  -3.365  24.856  1.00  0.00    -0.339 N 
HETATM   21  C   UNL     1       8.288  -4.149  26.029  1.00  0.00     0.167 C 
ATOM     22  HN  UNL     1       7.769  -3.305  24.213  1.00  0.00     0.179 HD
ENDBRANCH  18  20
ENDBRANCH  17  18
BRANCH  17  23
HETATM   23  C   UNL     1      11.424  -0.586  24.143  1.00  0.00     0.041 C 
HETATM   24  C   UNL     1      12.424  -0.762  23.271  1.00  0.00     0.015 C 
ENDBRANCH  17  23
ENDBRANCH   3  17
TORSDOF 6
