
 OpenBabel07202414163D

 45 47  0  0  0  0  0  0  0  0999 V2000
   -6.2470    1.6777   -0.8434 C   0  0  0  0  0  0  0  0  0  0  0  0
   -5.3455    0.5327   -0.6448 C   0  0  0  0  0  0  0  0  0  0  0  0
   -4.0012    0.3867   -0.4075 C   0  0  0  0  0  0  0  0  0  0  0  0
   -3.8057   -1.0108   -0.3448 C   0  0  0  0  0  0  0  0  0  0  0  0
   -4.9611   -1.6596   -0.5339 N   0  0  0  0  0  0  0  0  0  0  0  0
   -5.9236   -0.6928   -0.7106 O   0  0  0  0  0  0  0  0  0  0  0  0
   -2.5929   -1.6255   -0.1276 N   0  0  0  0  0  0  0  0  0  0  0  0
   -2.3346   -2.9645   -0.0356 C   0  0  0  0  0  0  0  0  0  0  0  0
   -1.1841   -3.3129    0.2274 O   0  0  0  0  0  0  0  0  0  0  0  0
   -3.3888   -3.8124   -0.2711 N   0  0  0  0  0  0  0  0  0  0  0  0
   -3.4288   -5.1822   -0.1271 C   0  0  0  0  0  0  0  0  0  0  0  0
   -2.5694   -5.8350    0.6646 C   0  0  0  0  0  0  0  0  0  0  0  0
   -2.5570   -7.2052    0.8346 N   0  0  0  0  0  0  0  0  0  0  0  0
   -3.4350   -8.0426    0.1459 C   0  0  0  0  0  0  0  0  0  0  0  0
   -3.4394   -9.2657    0.2525 O   0  0  0  0  0  0  0  0  0  0  0  0
   -4.4317   -7.3770   -0.7371 C   0  0  0  0  0  0  0  0  0  0  0  0
   -4.4664   -5.9746   -0.8354 C   0  0  0  0  0  0  0  0  0  0  0  0
   -5.4702   -5.4029   -1.6383 C   0  0  0  0  0  0  0  0  0  0  0  0
   -6.3921   -6.2014   -2.3282 C   0  0  0  0  0  0  0  0  0  0  0  0
   -6.3235   -7.5875   -2.2389 C   0  0  0  0  0  0  0  0  0  0  0  0
   -5.3453   -8.1769   -1.4438 C   0  0  0  0  0  0  0  0  0  0  0  0
   -1.6160   -7.7814    1.7974 C   0  0  0  0  0  0  0  0  0  0  0  0
   -0.2115   -8.1087    1.2500 C   0  0  0  0  0  0  0  0  0  0  0  0
   -0.2414   -9.1567    0.1402 C   0  0  0  0  0  0  0  0  0  0  0  0
    0.5610   -6.8715    0.7906 C   0  0  0  0  0  0  0  0  0  0  0  0
   -5.7026    2.6241   -0.7824 H   0  0  0  0  0  0  0  0  0  0  0  0
   -7.0328    1.6809   -0.0821 H   0  0  0  0  0  0  0  0  0  0  0  0
   -6.7211    1.6166   -1.8280 H   0  0  0  0  0  0  0  0  0  0  0  0
   -3.2693    1.1733   -0.3024 H   0  0  0  0  0  0  0  0  0  0  0  0
   -1.7819   -1.0423    0.0229 H   0  0  0  0  0  0  0  0  0  0  0  0
   -4.1982   -3.3577   -0.6732 H   0  0  0  0  0  0  0  0  0  0  0  0
   -1.8289   -5.2982    1.2512 H   0  0  0  0  0  0  0  0  0  0  0  0
   -5.5695   -4.3276   -1.7552 H   0  0  0  0  0  0  0  0  0  0  0  0
   -7.1616   -5.7356   -2.9402 H   0  0  0  0  0  0  0  0  0  0  0  0
   -7.0318   -8.2085   -2.7819 H   0  0  0  0  0  0  0  0  0  0  0  0
   -5.2946   -9.2615   -1.3690 H   0  0  0  0  0  0  0  0  0  0  0  0
   -2.0582   -8.6973    2.2090 H   0  0  0  0  0  0  0  0  0  0  0  0
   -1.5261   -7.0902    2.6467 H   0  0  0  0  0  0  0  0  0  0  0  0
    0.3508   -8.5413    2.0887 H   0  0  0  0  0  0  0  0  0  0  0  0
   -0.6988   -8.7644   -0.7738 H   0  0  0  0  0  0  0  0  0  0  0  0
   -0.8005  -10.0434    0.4555 H   0  0  0  0  0  0  0  0  0  0  0  0
    0.7754   -9.4789   -0.1082 H   0  0  0  0  0  0  0  0  0  0  0  0
    0.1176   -6.4228   -0.1039 H   0  0  0  0  0  0  0  0  0  0  0  0
    1.5954   -7.1359    0.5451 H   0  0  0  0  0  0  0  0  0  0  0  0
    0.5923   -6.1128    1.5795 H   0  0  0  0  0  0  0  0  0  0  0  0
  1  2  1  0  0  0  0
  1 26  1  0  0  0  0
  1 27  1  0  0  0  0
  1 28  1  0  0  0  0
  2  3  2  0  0  0  0
  2  6  1  0  0  0  0
  3  4  1  0  0  0  0
  3 29  1  0  0  0  0
  4  5  2  0  0  0  0
  4  7  1  0  0  0  0
  5  6  1  0  0  0  0
  7  8  1  0  0  0  0
  7 30  1  0  0  0  0
  8  9  2  0  0  0  0
  8 10  1  0  0  0  0
 10 11  1  0  0  0  0
 10 31  1  0  0  0  0
 11 12  2  0  0  0  0
 11 17  1  0  0  0  0
 12 13  1  0  0  0  0
 12 32  1  0  0  0  0
 13 14  1  0  0  0  0
 13 22  1  0  0  0  0
 14 15  2  0  0  0  0
 14 16  1  0  0  0  0
 16 17  1  0  0  0  0
 16 21  2  0  0  0  0
 17 18  2  0  0  0  0
 18 19  1  0  0  0  0
 18 33  1  0  0  0  0
 19 20  2  0  0  0  0
 19 34  1  0  0  0  0
 20 21  1  0  0  0  0
 20 35  1  0  0  0  0
 21 36  1  0  0  0  0
 22 23  1  0  0  0  0
 22 37  1  0  0  0  0
 22 38  1  0  0  0  0
 23 24  1  0  0  0  0
 23 25  1  0  0  0  0
 23 39  1  0  0  0  0
 24 40  1  0  0  0  0
 24 41  1  0  0  0  0
 24 42  1  0  0  0  0
 25 43  1  0  0  0  0
 25 44  1  0  0  0  0
 25 45  1  0  0  0  0
M  END
$$$$
