stable:False satoms:16 tatoms:24 sratio:0.6666666666666666
  -OEChem-07092417403D

 24 23  0     0  0  0  0  0  0999 V2000
    7.1158   -4.5966   26.1542 H   0  0  0  0  0  0  0  0  0  0  0  0
    8.1709   -4.3369   26.2291 C   0  0  0  0  0  0  0  0  0  0  0  0
    8.8070   -5.2379   26.2327 H   0  0  0  0  0  0  0  0  0  0  0  0
    8.3636   -3.7648   27.1559 H   0  0  0  0  0  0  0  0  0  0  0  0
    8.2559   -3.0927   24.1221 N   0  0  0  0  0  0  0  0  0  0  0  0
    8.4330   -3.5436   25.0263 C   0  0  0  0  0  0  0  0  0  0  0  0
    9.1645   -2.4144   23.4140 C   0  0  0  0  0  0  0  0  0  0  0  0
   10.6616    0.0052   23.0463 N   0  0  0  0  0  0  0  0  0  0  0  0
   11.8052    0.0013   23.6720 C   0  0  0  0  0  0  0  0  0  0  0  0
   12.1407    0.6441   24.6163 O   0  0  0  0  0  0  0  0  0  0  0  0
   13.5533   -0.3273   23.3709 H   0  0  0  0  0  0  0  0  0  0  0  0
   12.7855   -0.7711   22.9607 O   0  0  0  0  0  0  0  0  0  0  0  0
   10.1115   -2.0540   22.8168 N   0  0  0  0  0  0  0  0  0  0  0  0
    9.9288   -0.8065   22.4838 C   0  0  0  0  0  0  0  0  0  0  0  0
    8.9893   -0.1332   21.3450 C   0  0  0  0  0  0  0  0  0  0  0  0
    9.3100    0.8498   20.8948 O   0  0  0  0  0  0  0  0  0  0  0  0
    7.9636   -0.4628   20.7482 N   0  0  0  0  0  0  0  0  0  0  0  0
    6.7590   -1.1183   19.3920 H   0  0  0  0  0  0  0  0  0  0  0  0
    7.1783   -0.1603   19.6389 C   0  0  0  0  0  0  0  0  0  0  0  0
    7.5595    0.3276   18.7307 H   0  0  0  0  0  0  0  0  0  0  0  0
    5.4492    0.9414   18.3566 H   0  0  0  0  0  0  0  0  0  0  0  0
    5.3518    1.2675   19.2567 O   0  0  0  0  0  0  0  0  0  0  0  0
    5.9958    0.7175   20.2315 C   0  0  0  0  0  0  0  0  0  0  0  0
    5.7302    0.7758   21.4015 O   0  0  0  0  0  0  0  0  0  0  0  0
 21 22  1  0  0  0  0
 19 20  1  0  0  0  0
 22 23  1  0  0  0  0
 18 19  1  0  0  0  0
 19 23  1  0  0  0  0
 17 19  1  0  0  0  0
 23 24  2  0  0  0  0
 15 17  1  0  0  0  0
 15 16  2  0  0  0  0
 14 15  1  0  0  0  0
 13 14  1  0  0  0  0
  8 14  2  0  0  0  0
  7 13  2  0  0  0  0
 11 12  1  0  0  0  0
  9 12  1  0  0  0  0
  8  9  1  0  0  0  0
  5  7  1  0  0  0  0
  9 10  2  0  0  0  0
  5  6  1  0  0  0  0
  2  6  1  0  0  0  0
  1  2  1  0  0  0  0
  2  3  1  0  0  0  0
  2  4  1  0  0  0  0
M  END
> <Shapegauss>
-190.259186

$$$$
