stable:False satoms:16 tatoms:24 sratio:0.6666666666666666
  -OEChem-08062405123D

 29 28  0     0  0  0  0  0  0999 V2000
   11.0053    2.2067   24.1489 H   0  0  0  0  0  0  0  0  0  0  0  0
   10.7701    2.4066   23.1044 C   0  0  0  0  0  0  0  0  0  0  0  0
   11.6831    2.4409   22.4866 H   0  0  0  0  0  0  0  0  0  0  0  0
   10.2399    3.3723   23.0052 H   0  0  0  0  0  0  0  0  0  0  0  0
    9.4435    0.3759   22.7705 N   0  0  0  0  0  0  0  0  0  0  0  0
    9.9341    1.2741   22.7002 C   0  0  0  0  0  0  0  0  0  0  0  0
    8.7555   -0.2000   21.7795 C   0  0  0  0  0  0  0  0  0  0  0  0
    6.3536   -0.3001   20.2137 N   0  3  0  0  0  0  0  0  0  0  0  0
    6.4058    0.4452   19.1455 C   0  0  0  0  0  0  0  0  0  0  0  0
    5.8086    1.4468   18.9052 O   0  0  0  0  0  0  0  0  0  0  0  0
    7.1683   -0.1877   18.1055 O   0  5  0  0  0  0  0  0  0  0  0  0
    8.3903   -0.6751   20.7675 N   0  3  0  0  0  0  0  0  0  0  0  0
    7.1270   -0.9727   20.8933 C   0  0  0  0  0  0  0  0  0  0  0  0
    6.3894   -2.1771   21.6922 C   0  0  0  0  0  0  0  0  0  0  0  0
    5.3956   -2.5478   21.3090 O   0  0  0  0  0  0  0  0  0  0  0  0
    6.6739   -2.8951   22.6515 N   0  0  0  0  0  0  0  0  0  0  0  0
    7.2496   -4.4006   23.7109 H   0  0  0  0  0  0  0  0  0  0  0  0
    6.3110   -4.0692   23.3062 C   0  0  0  0  0  0  0  0  0  0  0  0
    5.7945   -4.9092   22.8205 H   0  0  0  0  0  0  0  0  0  0  0  0
    4.8325   -4.5864   25.0576 O   0  5  0  0  0  0  0  0  0  0  0  0
    5.4343   -3.5717   24.5325 C   0  0  0  0  0  0  0  0  0  0  0  0
    5.4181   -2.4360   24.9234 O   0  0  0  0  0  0  0  0  0  0  0  0
    9.4829   -0.1051   23.6463 H   0  0  0  0  0  0  0  0  0  0  0  0
   10.5015    1.0276   21.7906 H   0  0  0  0  0  0  0  0  0  0  0  0
    9.0501    1.8705   22.4306 H   0  0  0  0  0  0  0  0  0  0  0  0
    7.8288   -0.3220   22.3205 H   0  0  0  0  0  0  0  0  0  0  0  0
    7.4466   -2.4860   23.1369 H   0  0  0  0  0  0  0  0  0  0  0  0
    5.4253   -0.3345   20.5841 H   0  0  0  0  0  0  0  0  0  0  0  0
    8.9507   -0.8247   19.9529 H   0  0  0  0  0  0  0  0  0  0  0  0
 18 19  1  0  0  0  0
 20 21  1  0  0  0  0
 17 18  1  0  0  0  0
 18 21  1  0  0  0  0
 16 18  1  0  0  0  0
 21 22  2  0  0  0  0
 14 16  1  0  0  0  0
 14 15  2  0  0  0  0
 13 14  1  0  0  0  0
 12 13  1  0  0  0  0
  8 13  2  0  0  0  0
  7 12  2  0  0  0  0
  9 11  1  0  0  0  0
  8  9  1  0  0  0  0
  5  7  1  0  0  0  0
  9 10  2  0  0  0  0
  5  6  1  0  0  0  0
  2  6  1  0  0  0  0
  1  2  1  0  0  0  0
  2  3  1  0  0  0  0
  2  4  1  0  0  0  0
  5 23  1  0  0  0  0
  6 24  1  0  0  0  0
  6 25  1  0  0  0  0
  7 26  1  0  0  0  0
 16 27  1  0  0  0  0
  8 28  1  0  0  0  0
 12 29  1  0  0  0  0
M  CHG  4   8   1  11  -1  12   1  20  -1
M  END
> <Chemgauss4>
-5.284155

$$$$
