stable:False satoms:16 tatoms:24 sratio:0.6666666666666666
  -OEChem-08062405123D

 29 28  0     0  0  0  0  0  0999 V2000
   -6.2211   -6.0880  -21.7746 H   0  0  0  0  0  0  0  0  0  0  0  0
   -5.6980   -5.3884  -21.1240 C   0  0  0  0  0  0  0  0  0  0  0  0
   -4.6132   -5.3893  -21.3228 H   0  0  0  0  0  0  0  0  0  0  0  0
   -5.8627   -5.6506  -20.0621 H   0  0  0  0  0  0  0  0  0  0  0  0
   -6.8403   -3.3913  -21.9614 N   0  0  0  0  0  0  0  0  0  0  0  0
   -6.2686   -4.0835  -21.4652 C   0  0  0  0  0  0  0  0  0  0  0  0
   -6.8284   -2.0760  -21.7225 C   0  0  0  0  0  0  0  0  0  0  0  0
   -7.6542    0.1090  -20.0568 N   0  3  0  0  0  0  0  0  0  0  0  0
   -6.8040    0.3799  -19.1066 C   0  0  0  0  0  0  0  0  0  0  0  0
   -6.9229    0.2227  -17.9324 O   0  0  0  0  0  0  0  0  0  0  0  0
   -5.6813    1.1226  -19.6082 O   0  5  0  0  0  0  0  0  0  0  0  0
   -6.5428   -0.9475  -21.5549 N   0  3  0  0  0  0  0  0  0  0  0  0
   -7.6243   -0.3029  -21.2151 C   0  0  0  0  0  0  0  0  0  0  0  0
   -8.8990    0.1798  -22.0954 C   0  0  0  0  0  0  0  0  0  0  0  0
   -9.4671    1.0954  -21.7626 O   0  0  0  0  0  0  0  0  0  0  0  0
   -9.4224   -0.1812  -23.1502 N   0  0  0  0  0  0  0  0  0  0  0  0
   -9.9294   -0.2792  -25.0085 H   0  0  0  0  0  0  0  0  0  0  0  0
  -10.3186    0.2172  -24.1386 C   0  0  0  0  0  0  0  0  0  0  0  0
  -10.5458    1.2662  -24.3755 H   0  0  0  0  0  0  0  0  0  0  0  0
  -12.6345   -0.0244  -24.4532 O   0  5  0  0  0  0  0  0  0  0  0  0
  -11.6694   -0.5234  -23.7553 C   0  0  0  0  0  0  0  0  0  0  0  0
  -11.7297   -1.4455  -22.9879 O   0  0  0  0  0  0  0  0  0  0  0  0
   -7.4528   -3.7255  -22.6777 H   0  0  0  0  0  0  0  0  0  0  0  0
   -5.3074   -3.5692  -21.6116 H   0  0  0  0  0  0  0  0  0  0  0  0
   -6.6559   -3.8580  -20.4606 H   0  0  0  0  0  0  0  0  0  0  0  0
   -7.8902   -1.9655  -21.5587 H   0  0  0  0  0  0  0  0  0  0  0  0
   -9.0785   -1.0915  -23.3807 H   0  0  0  0  0  0  0  0  0  0  0  0
   -8.5931    0.2855  -19.7614 H   0  0  0  0  0  0  0  0  0  0  0  0
   -5.6300   -0.5514  -21.6553 H   0  0  0  0  0  0  0  0  0  0  0  0
 18 19  1  0  0  0  0
 20 21  1  0  0  0  0
 17 18  1  0  0  0  0
 18 21  1  0  0  0  0
 16 18  1  0  0  0  0
 21 22  2  0  0  0  0
 14 16  1  0  0  0  0
 14 15  2  0  0  0  0
 13 14  1  0  0  0  0
 12 13  1  0  0  0  0
  8 13  2  0  0  0  0
  7 12  2  0  0  0  0
  9 11  1  0  0  0  0
  8  9  1  0  0  0  0
  5  7  1  0  0  0  0
  9 10  2  0  0  0  0
  5  6  1  0  0  0  0
  2  6  1  0  0  0  0
  1  2  1  0  0  0  0
  2  3  1  0  0  0  0
  2  4  1  0  0  0  0
  5 23  1  0  0  0  0
  6 24  1  0  0  0  0
  6 25  1  0  0  0  0
  7 26  1  0  0  0  0
 16 27  1  0  0  0  0
  8 28  1  0  0  0  0
 12 29  1  0  0  0  0
M  CHG  4   8   1  11  -1  12   1  20  -1
M  END
> <Chemgauss4>
-5.168159

$$$$
