stable:False satoms:10 tatoms:24 sratio:0.4166666666666667
  -OEChem-07092417403D

 24 25  0     1  0  0  0  0  0999 V2000
    6.4915   -4.9690   26.4834 Cl  0  0  0  0  0  0  0  0  0  0  0  0
    8.3091   -4.3618   26.1765 S   0  0  0  0  0  0  0  0  0  0  0  0
    9.1711   -5.4862   25.9796 O   0  0  0  0  0  0  0  0  0  0  0  0
    8.6565   -3.5207   27.2549 O   0  0  0  0  0  0  0  0  0  0  0  0
    8.1151   -3.5691   24.7856 N   0  0  0  0  0  0  0  0  0  0  0  0
    8.9328   -2.8714   24.2281 C   0  0  0  0  0  0  0  0  0  0  0  0
    9.4837   -2.1070   23.6027 C   0  0  0  0  0  0  0  0  0  0  0  0
   10.4453   -1.3232   23.0496 C   0  0  2  0  0  0  0  0  0  0  0  0
   11.4571   -0.3203   23.8259 C   0  0  0  0  0  0  0  0  0  0  0  0
   12.7220    0.4878   24.3182 C   0  0  0  0  0  0  0  0  0  0  0  0
   12.5392   -0.1807   23.6930 C   0  0  0  0  0  0  0  0  0  0  0  0
   13.2850   -0.8695   22.7778 H   0  3  0  0  0  0  0  0  0  0  0  0
   11.2520   -1.9974   22.7252 H   0  0  0  0  0  0  0  0  0  0  0  0
    9.8841   -0.5425   22.2277 C   0  0  0  0  0  0  0  0  0  0  0  0
    9.0766    0.1629   21.3202 C   0  0  0  0  0  0  0  0  0  0  0  0
    9.4411    1.2034   20.8355 O   0  0  0  0  0  0  0  0  0  0  0  0
    7.9023   -0.4614   21.1171 N   0  0  0  0  0  0  0  0  0  0  0  0
    7.0474   -0.0302   20.2027 C   0  0  0  0  0  0  0  0  0  0  0  0
    6.9845   -0.0158   18.9013 C   0  0  0  0  0  0  0  0  0  0  0  0
    6.5352    0.2657   17.8306 N   0  0  0  0  0  0  0  0  0  0  0  0
    5.6292    0.8154   18.5133 C   0  0  1  0  0  0  0  0  0  0  0  0
    5.0803    1.1382   19.5095 N   0  0  0  0  0  0  0  0  0  0  0  0
    5.7567    0.6089   20.4529 C   0  0  0  0  0  0  0  0  0  0  0  0
    5.3863    0.6539   21.4855 H   0  0  0  0  0  0  0  0  0  0  0  0
 20 21  1  0  0  0  0
 19 20  2  0  0  0  0
 19 21  1  0  0  0  0
 21 22  1  0  0  0  0
 18 19  1  0  0  0  0
 22 23  1  0  0  0  0
 18 23  2  0  0  0  0
 17 18  1  0  0  0  0
 23 24  1  0  0  0  0
 15 16  2  0  0  0  0
 15 17  1  0  0  0  0
 14 15  1  0  0  0  0
  8 14  1  0  0  0  0
  8 13  1  0  0  0  0
  7  8  1  0  0  0  0
  8  9  1  0  0  0  0
  6  7  3  0  0  0  0
  9 11  1  0  0  0  0
 10 11  1  0  0  0  0
  9 10  1  0  0  0  0
  5  6  1  0  0  0  0
  2  5  1  0  0  0  0
  2  3  2  0  0  0  0
  1  2  1  0  0  0  0
  2  4  2  0  0  0  0
M  CHG  1  12   1
M  END
> <Shapegauss>
-260.455170

$$$$
