stable:False satoms:6 tatoms:24 sratio:0.25
  -OEChem-07092417463D

 24 25  0     1  0  0  0  0  0999 V2000
    6.5507   -4.8851   26.4499 C   0  0  0  0  0  0  0  0  0  0  0  0
    8.2374   -4.3139   26.1083 S   0  0  0  0  0  0  0  0  0  0  0  0
    9.0658   -5.4946   26.0042 O   0  0  0  0  0  0  0  0  0  0  0  0
    8.6418   -3.4392   27.1713 O   0  0  0  0  0  0  0  0  0  0  0  0
    8.0571   -3.5473   24.7038 N   0  0  0  0  0  0  0  0  0  0  0  0
    8.9072   -2.8652   24.1394 C   0  0  0  0  0  0  0  0  0  0  0  0
    9.3984   -1.9963   23.5251 C   0  0  0  0  0  0  0  0  0  0  0  0
   10.3728   -1.1352   23.2057 C   0  0  1  0  0  0  0  0  0  0  0  0
   11.0122    0.0054   24.2545 C   0  0  0  0  0  0  0  0  0  0  0  0
   12.0907    0.2680   24.2048 C   0  0  0  0  0  0  0  0  0  0  0  0
   13.1718   -0.0711   23.5352 C   0  0  0  0  0  0  0  0  0  0  0  0
   12.7644   -1.2159   22.6502 C   0  0  0  0  0  0  0  0  0  0  0  0
   11.8104   -1.6880   22.5276 C   0  0  0  0  0  0  0  0  0  0  0  0
    9.6945   -0.6128   22.3498 C   0  0  0  0  0  0  0  0  0  0  0  0
    9.0316    0.0177   21.3833 C   0  0  0  0  0  0  0  0  0  0  0  0
    9.6031    0.9036   20.9716 O   0  0  0  0  0  0  0  0  0  0  0  0
    7.8848   -0.5677   21.1159 N   0  0  0  0  0  0  0  0  0  0  0  0
    7.2056   -0.0954   20.1995 C   0  0  0  0  0  0  0  0  0  0  0  0
    7.2164    0.0120   18.8773 C   0  0  0  0  0  0  0  0  0  0  0  0
    6.8143    0.2612   17.7985 N   0  0  0  0  0  0  0  0  0  0  0  0
    5.6727    0.8792   18.2396 C   0  0  0  0  0  0  0  0  0  0  0  0
    5.2762    0.9782   19.3698 C   0  0  0  0  0  0  0  0  0  0  0  0
    5.8122    0.5717   20.5191 C   0  0  0  0  0  0  0  0  0  0  0  0
    5.2919    0.7405   21.9921 Cl  0  0  0  0  0  0  0  0  0  0  0  0
 20 21  2  0  0  0  0
 19 20  1  0  0  0  0
 21 22  1  0  0  0  0
 18 19  2  0  0  0  0
 22 23  2  0  0  0  0
 18 23  1  0  0  0  0
 17 18  1  0  0  0  0
 23 24  1  0  0  0  0
 15 16  2  0  0  0  0
 15 17  1  0  0  0  0
 14 15  1  0  0  0  0
  8 14  1  0  0  0  0
 12 13  1  0  0  0  0
  8 13  1  0  0  0  0
 11 12  2  0  0  0  0
  7  8  1  0  0  0  0
  8  9  1  0  0  0  0
  6  7  3  0  0  0  0
 10 11  1  0  0  0  0
  5  6  1  0  0  0  0
  9 10  2  0  0  0  0
  2  5  1  0  0  0  0
  2  3  2  0  0  0  0
  1  2  1  0  0  0  0
  2  4  2  0  0  0  0
M  END
> <Shapegauss>
-286.414520

$$$$
