REMARK  7 active torsions:
REMARK  status: ('A' for Active; 'I' for Inactive)
REMARK    1  A    between atoms: S_2  and  N_5 
REMARK    2  A    between atoms: N_5  and  C_7 
REMARK    3  A    between atoms: C_7  and  C_8 
REMARK    4  A    between atoms: C_8  and  C_9 
REMARK    5  A    between atoms: C_9  and  C_15 
REMARK    6  A    between atoms: C_15  and  C_16 
REMARK       I    between atoms: C_16  and  N_18 
REMARK    7  A    between atoms: N_18  and  C_20 
ROOT
HETATM    1  C   UNL     1      10.373  -1.135  23.206  1.00  0.00     0.068 C 
HETATM    2  C   UNL     1      11.012   0.005  24.255  1.00  0.00     0.000 C 
HETATM    3  C   UNL     1      12.091   0.268  24.205  1.00  0.00    -0.002 C 
HETATM    4  C   UNL     1      13.172  -0.071  23.535  1.00  0.00    -0.001 C 
HETATM    5  C   UNL     1      12.764  -1.216  22.650  1.00  0.00    -0.002 C 
HETATM    6  C   UNL     1      11.810  -1.688  22.528  1.00  0.00     0.000 C 
ENDROOT
BRANCH   1   7
HETATM    7  C   UNL     1       9.398  -1.996  23.525  1.00  0.00     0.135 C 
BRANCH   7   8
HETATM    8  C   UNL     1       8.907  -2.865  24.139  1.00  0.00    -0.058 C 
BRANCH   8   9
HETATM    9  N   UNL     1       8.057  -3.547  24.704  1.00  0.00    -0.254 N 
ATOM     10  HN  UNL     1       7.153  -3.636  24.241  1.00  0.00     0.188 HD
BRANCH   9  11
HETATM   11  S   UNL     1       8.237  -4.314  26.108  1.00  0.00     0.233 S 
HETATM   12  C   UNL     1       6.551  -4.885  26.450  1.00  0.00     0.186 C 
HETATM   13  O   UNL     1       9.066  -5.495  26.004  1.00  0.00    -0.206 OA
HETATM   14  O   UNL     1       8.642  -3.439  27.171  1.00  0.00    -0.206 OA
ENDBRANCH   9  11
ENDBRANCH   8   9
ENDBRANCH   7   8
ENDBRANCH   1   7
BRANCH   1  15
HETATM   15  C   UNL     1       9.694  -0.613  22.350  1.00  0.00    -0.064 C 
BRANCH  15  16
HETATM   16  C   UNL     1       9.032   0.018  21.383  1.00  0.00     0.290 C 
HETATM   17  O   UNL     1       9.603   0.904  20.972  1.00  0.00    -0.259 OA
HETATM   18  N   UNL     1       7.885  -0.568  21.116  1.00  0.00    -0.314 N 
ATOM     19  HN  UNL     1       7.569  -1.381  21.645  1.00  0.00     0.170 HD
BRANCH  18  20
HETATM   20  C   UNL     1       7.206  -0.095  20.200  1.00  0.00     0.072 C 
HETATM   21  C   UNL     1       7.216   0.012  18.877  1.00  0.00     0.119 C 
HETATM   22  N   UNL     1       6.814   0.261  17.799  1.00  0.00    -0.373 N 
HETATM   23  C   UNL     1       5.673   0.879  18.240  1.00  0.00     0.089 C 
ATOM     24  HN  UNL     1       7.184   0.080  16.866  1.00  0.00     0.164 HD
HETATM   25  C   UNL     1       5.276   0.978  19.370  1.00  0.00     0.043 C 
HETATM   26  C   UNL     1       5.812   0.572  20.519  1.00  0.00     0.063 C 
HETATM   27 CL   UNL     1       5.292   0.741  21.992  1.00  0.00    -0.082 Cl
ENDBRANCH  18  20
ENDBRANCH  15  16
ENDBRANCH   1  15
TORSDOF 7
