stable:False satoms:22 tatoms:24 sratio:0.9166666666666666
  -OEChem-08052416443D

 27 28  0     1  0  0  0  0  0999 V2000
  -10.4686    0.7943  -25.4888 C   0  0  0  0  0  0  0  0  0  0  0  0
   -9.9784   -0.9810  -20.4114 H   0  0  0  0  0  0  0  0  0  0  0  0
  -13.0301   -0.3395  -23.7734 S   0  0  0  0  0  0  0  0  0  0  0  0
  -10.2038    1.5230  -23.2687 C   0  0  1  0  0  0  0  0  0  0  0  0
  -11.2450   -0.1768  -24.4677 C   0  0  2  0  0  0  0  0  0  0  0  0
   -9.9945    0.2402  -26.2731 H   0  0  0  0  0  0  0  0  0  0  0  0
  -10.5923    0.0778  -23.2676 N   0  3  2  0  0  0  0  0  0  0  0  0
  -11.6161    2.8028  -24.3630 H   0  0  0  0  0  0  0  0  0  0  0  0
  -11.1597   -1.1620  -24.9011 H   0  0  0  0  0  0  0  0  0  0  0  0
  -11.1153   -2.3509  -21.6255 H   0  0  0  0  0  0  0  0  0  0  0  0
  -11.5871   -1.5001  -21.8567 N   0  0  0  0  0  0  0  0  0  0  0  0
   -9.4536    1.5095  -24.5962 C   0  0  0  0  0  0  0  0  0  0  0  0
  -11.3373    2.5489  -23.3495 C   0  0  0  0  0  0  0  0  0  0  0  0
  -11.0396    3.4675  -22.8505 H   0  0  0  0  0  0  0  0  0  0  0  0
  -10.6046   -0.5690  -22.0826 C   0  0  3  0  0  0  0  0  0  0  0  0
   -9.2024    2.5125  -24.9412 H   0  0  0  0  0  0  0  0  0  0  0  0
  -12.1669   -2.5545  -23.5530 H   0  0  0  0  0  0  0  0  0  0  0  0
   -9.6080    1.6988  -22.3776 H   0  0  0  0  0  0  0  0  0  0  0  0
  -12.5462   -1.8370  -22.8275 C   0  0  0  0  0  0  0  0  0  0  0  0
   -8.5357    0.9246  -24.4944 H   0  0  0  0  0  0  0  0  0  0  0  0
  -13.4345   -2.2448  -22.3514 H   0  0  0  0  0  0  0  0  0  0  0  0
  -11.1943    1.4791  -25.9180 H   0  0  0  0  0  0  0  0  0  0  0  0
  -12.2169    2.1458  -22.8609 H   0  0  0  0  0  0  0  0  0  0  0  0
   -9.7641   -0.3945  -21.1924 N   0  0  0  0  0  0  0  0  0  0  0  0
  -11.2397    0.2182  -21.6500 H   0  0  0  0  0  0  0  0  0  0  0  0
   -9.7782    0.5629  -20.9039 H   0  0  0  0  0  0  0  0  0  0  0  0
   -9.6990   -0.2609  -23.5631 H   0  0  0  0  0  0  0  0  0  0  0  0
 12 20  1  0  0  0  0
  4 18  1  0  0  0  0
  2 24  1  0  0  0  0
 12 16  1  0  0  0  0
 15 24  1  0  0  0  0
  4 12  1  0  0  0  0
  1 12  1  0  0  0  0
 13 14  1  0  0  0  0
  4 13  1  0  0  0  0
  4  7  1  0  0  0  0
  8 13  1  0  0  0  0
 13 23  1  0  0  0  0
  7 15  1  0  0  0  0
 11 15  1  0  0  0  0
  5  7  1  0  0  0  0
  1  6  1  0  0  0  0
  1 22  1  0  0  0  0
  1  5  1  0  0  0  0
 10 11  1  0  0  0  0
  5  9  1  0  0  0  0
  3  5  1  0  0  0  0
 11 19  1  0  0  0  0
  3 19  1  0  0  0  0
 17 19  1  0  0  0  0
 19 21  1  0  0  0  0
 15 25  1  0  0  0  0
 24 26  1  0  0  0  0
  7 27  1  0  0  0  0
M  CHG  1   7   1
M  END
> <Chemgauss4>
-6.470475

$$$$
