stable:False satoms:22 tatoms:24 sratio:0.9166666666666666
  -OEChem-08052416443D

 27 28  0     1  0  0  0  0  0999 V2000
    9.9897    1.1311   25.4134 C   0  0  0  0  0  0  0  0  0  0  0  0
   10.2696   -0.0532   20.1511 H   0  0  0  0  0  0  0  0  0  0  0  0
   12.5155   -0.5243   24.1213 S   0  0  0  0  0  0  0  0  0  0  0  0
   10.4389    2.0705   23.3049 C   0  0  1  0  0  0  0  0  0  0  0  0
   10.7159    0.0655   24.4513 C   0  0  2  0  0  0  0  0  0  0  0  0
    9.2236    0.6694   26.0022 H   0  0  0  0  0  0  0  0  0  0  0  0
   10.4450    0.5786   23.1886 N   0  3  2  0  0  0  0  0  0  0  0  0
   11.8301    2.8303   24.8270 H   0  0  0  0  0  0  0  0  0  0  0  0
   10.2898   -0.8891   24.7214 H   0  0  0  0  0  0  0  0  0  0  0  0
   10.7151   -1.7691   21.3762 H   0  0  0  0  0  0  0  0  0  0  0  0
   11.3164   -1.0990   21.8115 N   0  0  0  0  0  0  0  0  0  0  0  0
    9.4211    2.1614   24.4368 C   0  0  0  0  0  0  0  0  0  0  0  0
   11.7409    2.7395   23.7531 C   0  0  0  0  0  0  0  0  0  0  0  0
   11.8056    3.7396   23.3322 H   0  0  0  0  0  0  0  0  0  0  0  0
   10.5716    0.0447   21.9550 C   0  0  3  0  0  0  0  0  0  0  0  0
    9.3541    3.1657   24.8550 H   0  0  0  0  0  0  0  0  0  0  0  0
   11.2044   -2.3969   23.4326 H   0  0  0  0  0  0  0  0  0  0  0  0
   10.1299    2.4690   22.3428 H   0  0  0  0  0  0  0  0  0  0  0  0
   11.9084   -1.7571   22.9035 C   0  0  0  0  0  0  0  0  0  0  0  0
    8.4364    1.8581   24.0716 H   0  0  0  0  0  0  0  0  0  0  0  0
   12.7530   -2.3542   22.5685 H   0  0  0  0  0  0  0  0  0  0  0  0
   10.7423    1.5577   26.0701 H   0  0  0  0  0  0  0  0  0  0  0  0
   12.5814    2.1503   23.4050 H   0  0  0  0  0  0  0  0  0  0  0  0
   10.0321    0.5085   20.9436 N   0  0  0  0  0  0  0  0  0  0  0  0
   11.4652    0.6594   21.7715 H   0  0  0  0  0  0  0  0  0  0  0  0
   10.3505    1.4449   20.7957 H   0  0  0  0  0  0  0  0  0  0  0  0
    9.4521    0.4747   23.2468 H   0  0  0  0  0  0  0  0  0  0  0  0
 12 20  1  0  0  0  0
  4 18  1  0  0  0  0
  2 24  1  0  0  0  0
 12 16  1  0  0  0  0
 15 24  1  0  0  0  0
  4 12  1  0  0  0  0
  1 12  1  0  0  0  0
 13 14  1  0  0  0  0
  4 13  1  0  0  0  0
  4  7  1  0  0  0  0
  8 13  1  0  0  0  0
 13 23  1  0  0  0  0
  7 15  1  0  0  0  0
 11 15  1  0  0  0  0
  5  7  1  0  0  0  0
  1  6  1  0  0  0  0
  1 22  1  0  0  0  0
  1  5  1  0  0  0  0
 10 11  1  0  0  0  0
  5  9  1  0  0  0  0
  3  5  1  0  0  0  0
 11 19  1  0  0  0  0
  3 19  1  0  0  0  0
 17 19  1  0  0  0  0
 19 21  1  0  0  0  0
 15 25  1  0  0  0  0
 24 26  1  0  0  0  0
  7 27  1  0  0  0  0
M  CHG  1   7   1
M  END
> <Chemgauss4>
-6.358176

$$$$
