stable:False satoms:22 tatoms:24 sratio:0.9166666666666666
  -OEChem-08052421473D

 27 26  0     1  0  0  0  0  0999 V2000
  -11.4215    1.8966  -22.8469 O   0  0  0  0  0  0  0  0  0  0  0  0
  -12.5789   -0.4229  -23.1115 H   0  0  0  0  0  0  0  0  0  0  0  0
  -11.3137    3.8034  -24.5867 H   0  0  0  0  0  0  0  0  0  0  0  0
  -13.4039    0.9292  -23.8790 H   0  0  0  0  0  0  0  0  0  0  0  0
  -10.6073    6.9389  -23.3013 H   0  0  0  0  0  0  0  0  0  0  0  0
  -12.6069   -0.2759  -24.8714 H   0  0  0  0  0  0  0  0  0  0  0  0
  -11.3013    1.0386  -23.8710 C   0  0  3  0  0  0  0  0  0  0  0  0
  -10.2742    6.5276  -25.0079 H   0  0  0  0  0  0  0  0  0  0  0  0
  -10.4195    3.6669  -23.9259 C   0  0  1  0  0  0  0  0  0  0  0  0
   -9.6277    0.2141  -25.6127 N   0  0  0  0  0  0  0  0  0  0  0  0
   -8.8043    5.0144  -24.2132 H   0  0  0  0  0  0  0  0  0  0  0  0
   -9.2996    2.9605  -24.5904 N   0  3  0  0  0  0  0  0  0  0  0  0
   -8.8932    3.5368  -25.2994 H   0  0  0  0  0  0  0  0  0  0  0  0
  -10.5929    6.1509  -24.0431 C   0  0  0  0  0  0  0  0  0  0  0  0
  -11.6279    5.8460  -24.1565 H   0  0  0  0  0  0  0  0  0  0  0  0
  -10.2797    0.6818  -24.7878 C   0  0  0  0  0  0  0  0  0  0  0  0
  -12.5334    0.2751  -23.9504 C   0  0  0  0  0  0  0  0  0  0  0  0
   -8.1901    1.6129  -23.5329 H   0  0  0  0  0  0  0  0  0  0  0  0
   -8.3404    2.6961  -23.5409 C   0  0  0  0  0  0  0  0  0  0  0  0
   -7.4320    3.2360  -23.7896 H   0  0  0  0  0  0  0  0  0  0  0  0
  -10.7861    3.1793  -22.7255 N   0  0  0  0  0  0  0  0  0  0  0  0
   -9.4186    5.0616  -22.5463 H   0  0  0  0  0  0  0  0  0  0  0  0
   -8.6041    2.9546  -22.5046 H   0  0  0  0  0  0  0  0  0  0  0  0
   -9.7053    5.0299  -23.5981 C   0  0  0  0  0  0  0  0  0  0  0  0
  -11.6972    1.7876  -24.5726 H   0  0  0  0  0  0  0  0  0  0  0  0
   -9.9728    3.0854  -22.1513 H   0  0  0  0  0  0  0  0  0  0  0  0
   -9.6177    2.1047  -24.9982 H   0  0  0  0  0  0  0  0  0  0  0  0
  8 14  1  0  0  0  0
  5 14  1  0  0  0  0
 11 24  1  0  0  0  0
 14 24  1  0  0  0  0
 14 15  1  0  0  0  0
 22 24  1  0  0  0  0
  9 24  1  0  0  0  0
 19 20  1  0  0  0  0
 19 23  1  0  0  0  0
 12 19  1  0  0  0  0
 18 19  1  0  0  0  0
  9 12  1  0  0  0  0
 12 13  1  0  0  0  0
  3  9  1  0  0  0  0
  9 21  1  0  0  0  0
  1 21  1  0  0  0  0
 10 16  3  0  0  0  0
  1  7  1  0  0  0  0
  7 16  1  0  0  0  0
  7 17  1  0  0  0  0
  4 17  1  0  0  0  0
  6 17  1  0  0  0  0
  2 17  1  0  0  0  0
  7 25  1  0  0  0  0
 21 26  1  0  0  0  0
 12 27  1  0  0  0  0
M  CHG  1  12   1
M  END
> <Chemgauss4>
-5.571673

$$$$
