stable:False satoms:22 tatoms:24 sratio:0.9166666666666666
  -OEChem-08052421473D

 27 26  0     1  0  0  0  0  0999 V2000
   12.0909    1.2885   23.8676 O   0  0  0  0  0  0  0  0  0  0  0  0
   14.1834   -0.2554   24.0327 H   0  0  0  0  0  0  0  0  0  0  0  0
    9.8716    1.0674   25.1716 H   0  0  0  0  0  0  0  0  0  0  0  0
   13.3198    0.0168   25.5420 H   0  0  0  0  0  0  0  0  0  0  0  0
    7.9541    3.9453   25.3244 H   0  0  0  0  0  0  0  0  0  0  0  0
   13.2414   -1.5550   24.7701 H   0  0  0  0  0  0  0  0  0  0  0  0
   12.1206   -0.0515   23.8128 C   0  0  3  0  0  0  0  0  0  0  0  0
    7.2296    2.3237   25.5198 H   0  0  0  0  0  0  0  0  0  0  0  0
    9.8075    1.4464   24.1194 C   0  0  1  0  0  0  0  0  0  0  0  0
   10.9454   -2.0426   22.7317 N   0  0  0  0  0  0  0  0  0  0  0  0
    7.8719    1.9315   23.3947 H   0  0  0  0  0  0  0  0  0  0  0  0
    9.3713    0.4159   23.1487 N   0  3  0  0  0  0  0  0  0  0  0  0
    8.4111    0.1792   23.2966 H   0  0  0  0  0  0  0  0  0  0  0  0
    8.1296    2.8782   25.2807 C   0  0  0  0  0  0  0  0  0  0  0  0
    8.8398    2.6725   26.0745 H   0  0  0  0  0  0  0  0  0  0  0  0
   11.3733   -1.0620   23.1555 C   0  0  0  0  0  0  0  0  0  0  0  0
   13.2696   -0.4964   24.5804 C   0  0  0  0  0  0  0  0  0  0  0  0
   10.2203    0.3564   21.2937 H   0  0  0  0  0  0  0  0  0  0  0  0
    9.5495    1.0198   21.8468 C   0  0  0  0  0  0  0  0  0  0  0  0
    8.5689    1.0911   21.3865 H   0  0  0  0  0  0  0  0  0  0  0  0
   10.9241    2.1228   23.7895 N   0  0  0  0  0  0  0  0  0  0  0  0
    8.9790    3.3189   23.3084 H   0  0  0  0  0  0  0  0  0  0  0  0
   10.0164    2.0140   21.7833 H   0  0  0  0  0  0  0  0  0  0  0  0
    8.6434    2.4876   23.9294 C   0  0  0  0  0  0  0  0  0  0  0  0
   11.4750   -0.1233   24.7005 H   0  0  0  0  0  0  0  0  0  0  0  0
   10.8318    2.4649   22.8543 H   0  0  0  0  0  0  0  0  0  0  0  0
    9.9342   -0.4062   23.2336 H   0  0  0  0  0  0  0  0  0  0  0  0
  8 14  1  0  0  0  0
  5 14  1  0  0  0  0
 11 24  1  0  0  0  0
 14 24  1  0  0  0  0
 14 15  1  0  0  0  0
 22 24  1  0  0  0  0
  9 24  1  0  0  0  0
 19 20  1  0  0  0  0
 19 23  1  0  0  0  0
 12 19  1  0  0  0  0
 18 19  1  0  0  0  0
  9 12  1  0  0  0  0
 12 13  1  0  0  0  0
  3  9  1  0  0  0  0
  9 21  1  0  0  0  0
  1 21  1  0  0  0  0
 10 16  3  0  0  0  0
  1  7  1  0  0  0  0
  7 16  1  0  0  0  0
  7 17  1  0  0  0  0
  4 17  1  0  0  0  0
  6 17  1  0  0  0  0
  2 17  1  0  0  0  0
  7 25  1  0  0  0  0
 21 26  1  0  0  0  0
 12 27  1  0  0  0  0
M  CHG  1  12   1
M  END
> <Chemgauss4>
-5.457875

$$$$
