REMARK  5 active torsions:
REMARK  status: ('A' for Active; 'I' for Inactive)
REMARK    1  A    between atoms: C9_12  and  C1'_13 
REMARK    2  A    between atoms: C2'_14  and  O2'_15 
REMARK    3  A    between atoms: C3'_16  and  O3'_17 
REMARK    4  A    between atoms: C4'_18  and  C5'_20 
REMARK    5  A    between atoms: C5'_20  and  O5'_21 
ROOT
HETATM    1  N1  FMB F 240       4.637  84.067  35.382  1.00 60.26    -0.318 N 
HETATM    2  C2  FMB F 240       5.486  83.691  36.400  1.00 35.53     0.184 A 
HETATM    3  N3  FMB F 240       6.785  83.443  36.227  1.00 33.44    -0.349 N 
ATOM      4  H3  FMB F 240       7.417  83.162  36.977  1.00  0.00     0.167 HD
HETATM    5  C4  FMB F 240       7.166  83.608  34.937  1.00 38.54     0.094 A 
HETATM    6  C5  FMB F 240       6.395  83.980  33.856  1.00100.00     0.145 A 
HETATM    7  C6  FMB F 240       5.013  84.237  34.052  1.00 57.49     0.276 A 
HETATM    8  O6  FMB F 240       4.158  84.580  33.225  1.00 67.62    -0.266 OA
HETATM    9  N7  FMB F 240       7.165  84.035  32.699  1.00 33.05    -0.293 N 
HETATM   10  N8  FMB F 240       8.364  83.706  33.094  1.00100.00    -0.299 N 
ATOM     11  H8  FMB F 240       9.167  83.657  32.466  1.00  0.00     0.186 HD
HETATM   12  C9  FMB F 240       8.440  83.431  34.441  1.00 52.11     0.086 A 
HETATM   13  H1  FMB F 240       3.679  84.230  35.616  1.00 20.00     0.169 HD
HETATM   14  H7  FMB F 240       6.867  84.273  31.774  1.00 20.00     0.187 HD
ENDROOT
BRANCH  12  15
HETATM   15  C1' FMB F 240       9.745  82.920  34.932  1.00 75.82     0.207 C 
HETATM   16  C2' FMB F 240       9.854  82.882  36.459  1.00 42.06     0.184 C 
HETATM   17  C3' FMB F 240      10.186  81.415  36.790  1.00 78.37     0.180 C 
HETATM   18  C4' FMB F 240       9.838  80.653  35.526  1.00 79.39     0.177 C 
HETATM   19  O4' FMB F 240       9.928  81.606  34.438  1.00 55.58    -0.367 OA
BRANCH  16  20
HETATM   20  O2' FMB F 240      10.860  83.760  36.883  1.00 42.59    -0.390 OA
HETATM   21  H2' FMB F 240      11.249  83.433  37.686  1.00 20.00     0.210 HD
ENDBRANCH  16  20
BRANCH  17  22
HETATM   22  O3' FMB F 240      11.557  81.179  37.095  1.00 24.93    -0.390 OA
HETATM   23  H3' FMB F 240      11.721  81.396  38.005  1.00 20.00     0.210 HD
ENDBRANCH  17  22
BRANCH  18  24
HETATM   24  C5' FMB F 240       8.478  79.999  35.515  1.00 27.41     0.198 C 
BRANCH  24  25
HETATM   25  O5' FMB F 240       8.393  79.073  34.433  1.00 49.77    -0.398 OA
HETATM   26  H5' FMB F 240       7.704  79.344  33.837  1.00 20.00     0.209 HD
ENDBRANCH  24  25
ENDBRANCH  18  24
ENDBRANCH  12  15
TORSDOF 5
