MODEL 1
REMARK VINA RESULT:    -5.691      0.000      0.000
REMARK INTER + INTRA:          -7.377
REMARK INTER:                  -6.855
REMARK INTRA:                  -0.522
REMARK UNBOUND:                -0.522
REMARK  5 active torsions:
REMARK  status: ('A' for Active; 'I' for Inactive)
REMARK    1  A    between atoms: C9_12  and  C1'_13 
REMARK    2  A    between atoms: C2'_14  and  O2'_15 
REMARK    3  A    between atoms: C3'_16  and  O3'_17 
REMARK    4  A    between atoms: C4'_18  and  C5'_20 
REMARK    5  A    between atoms: C5'_20  and  O5'_21 
ROOT
HETATM    1  N1  FMB F 240      -0.182 102.169  55.123  1.00 60.26    -0.318 N 
HETATM    2  C2  FMB F 240      -1.065 101.923  54.095  1.00 35.53     0.184 A 
HETATM    3  N3  FMB F 240      -2.315 101.495  54.280  1.00 33.44    -0.349 N 
ATOM      4  H3  FMB F 240      -2.973 101.309  53.522  1.00  0.00     0.167 HD
HETATM    5  C4  FMB F 240      -2.609 101.337  55.594  1.00 38.54     0.094 A 
HETATM    6  C5  FMB F 240      -1.797 101.557  56.686  1.00100.00     0.145 A 
HETATM    7  C6  FMB F 240      -0.467 102.008  56.477  1.00 57.49     0.276 A 
HETATM    8  O6  FMB F 240       0.411 102.263  57.311  1.00 67.62    -0.266 OA
HETATM    9  N7  FMB F 240      -2.475 101.276  57.867  1.00 33.05    -0.293 N 
HETATM   10  N8  FMB F 240      -3.662 100.902  57.476  1.00100.00    -0.299 N 
ATOM     11  H8  FMB F 240      -4.405 100.629  58.121  1.00  0.00     0.186 HD
HETATM   12  C9  FMB F 240      -3.816 100.913  56.108  1.00 52.11     0.086 A 
HETATM   13  H1  FMB F 240       0.734 102.487  54.879  1.00 20.00     0.169 HD
HETATM   14  H7  FMB F 240      -2.131 101.345  58.804  1.00 20.00     0.187 HD
ENDROOT
BRANCH  12  15
HETATM   15  C1' FMB F 240      -5.097 100.371  55.588  1.00 75.82     0.207 C 
HETATM   16  C2' FMB F 240      -4.982  99.757  54.190  1.00 42.06     0.184 C 
HETATM   17  C3' FMB F 240      -5.488  98.312  54.355  1.00 78.37     0.180 C 
HETATM   18  C4' FMB F 240      -5.456  98.069  55.852  1.00 79.39     0.177 C 
HETATM   19  O4' FMB F 240      -5.556  99.371  56.479  1.00 55.58    -0.367 OA
BRANCH  16  20
HETATM   20  O2' FMB F 240      -5.763 100.490  53.286  1.00 42.59    -0.390 OA
HETATM   21  H2' FMB F 240      -6.309 101.104  53.764  1.00 20.00     0.210 HD
ENDBRANCH  16  20
BRANCH  17  22
HETATM   22  O3' FMB F 240      -6.818  98.100  53.893  1.00 24.93    -0.390 OA
HETATM   23  H3' FMB F 240      -7.011  97.171  53.899  1.00 20.00     0.210 HD
ENDBRANCH  17  22
BRANCH  18  24
HETATM   24  C5' FMB F 240      -4.233  97.351  56.368  1.00 27.41     0.198 C 
BRANCH  24  25
HETATM   25  O5' FMB F 240      -3.920  97.808  57.683  1.00 49.77    -0.398 OA
HETATM   26  H5' FMB F 240      -4.195  98.713  57.777  1.00 20.00     0.209 HD
ENDBRANCH  24  25
ENDBRANCH  18  24
ENDBRANCH  12  15
TORSDOF 5
ENDMDL
MODEL 2
REMARK VINA RESULT:    -5.665      3.182      4.797
REMARK INTER + INTRA:          -7.346
REMARK INTER:                  -6.740
REMARK INTRA:                  -0.606
REMARK UNBOUND:                -0.522
REMARK  5 active torsions:
REMARK  status: ('A' for Active; 'I' for Inactive)
REMARK    1  A    between atoms: C9_12  and  C1'_13 
REMARK    2  A    between atoms: C2'_14  and  O2'_15 
REMARK    3  A    between atoms: C3'_16  and  O3'_17 
REMARK    4  A    between atoms: C4'_18  and  C5'_20 
REMARK    5  A    between atoms: C5'_20  and  O5'_21 
ROOT
HETATM    1  N1  FMB F 240      -0.921  94.964  55.277  1.00 60.26    -0.318 N 
HETATM    2  C2  FMB F 240      -1.102  95.948  54.329  1.00 35.53     0.184 A 
HETATM    3  N3  FMB F 240      -1.951  96.966  54.472  1.00 33.44    -0.349 N 
ATOM      4  H3  FMB F 240      -2.091  97.695  53.773  1.00  0.00     0.167 HD
HETATM    5  C4  FMB F 240      -2.608  96.916  55.657  1.00 38.54     0.094 A 
HETATM    6  C5  FMB F 240      -2.495  95.979  56.662  1.00100.00     0.145 A 
HETATM    7  C6  FMB F 240      -1.590  94.898  56.496  1.00 57.49     0.276 A 
HETATM    8  O6  FMB F 240      -1.341  93.963  57.268  1.00 67.62    -0.266 OA
HETATM    9  N7  FMB F 240      -3.345  96.286  57.718  1.00 33.05    -0.293 N 
HETATM   10  N8  FMB F 240      -3.942  97.384  57.343  1.00100.00    -0.299 N 
ATOM     11  H8  FMB F 240      -4.636  97.868  57.914  1.00  0.00     0.186 HD
HETATM   12  C9  FMB F 240      -3.546  97.824  56.100  1.00 52.11     0.086 A 
HETATM   13  H1  FMB F 240      -0.259  94.243  55.073  1.00 20.00     0.169 HD
HETATM   14  H7  FMB F 240      -3.471  95.781  58.572  1.00 20.00     0.187 HD
ENDROOT
BRANCH  12  15
HETATM   15  C1' FMB F 240      -4.283  98.992  55.554  1.00 75.82     0.207 C 
HETATM   16  C2' FMB F 240      -5.196  99.675  56.577  1.00 42.06     0.184 C 
HETATM   17  C3' FMB F 240      -4.721 101.140  56.606  1.00 78.37     0.180 C 
HETATM   18  C4' FMB F 240      -3.354 101.109  55.951  1.00 79.39     0.177 C 
HETATM   19  O4' FMB F 240      -3.340  99.942  55.092  1.00 55.58    -0.367 OA
BRANCH  16  20
HETATM   20  O2' FMB F 240      -6.531  99.560  56.169  1.00 42.59    -0.390 OA
HETATM   21  H2' FMB F 240      -7.032 100.290  56.514  1.00 20.00     0.210 HD
ENDBRANCH  16  20
BRANCH  17  22
HETATM   22  O3' FMB F 240      -5.551 102.039  55.876  1.00 24.93    -0.390 OA
HETATM   23  H3' FMB F 240      -6.463 101.832  56.039  1.00 20.00     0.210 HD
ENDBRANCH  17  22
BRANCH  18  24
HETATM   24  C5' FMB F 240      -2.181 101.054  56.898  1.00 27.41     0.198 C 
BRANCH  24  25
HETATM   25  O5' FMB F 240      -2.630 101.243  58.239  1.00 49.77    -0.398 OA
HETATM   26  H5' FMB F 240      -2.792 100.397  58.641  1.00 20.00     0.209 HD
ENDBRANCH  24  25
ENDBRANCH  18  24
ENDBRANCH  12  15
TORSDOF 5
ENDMDL
MODEL 3
REMARK VINA RESULT:    -5.490      2.599      3.251
REMARK INTER + INTRA:          -7.135
REMARK INTER:                  -6.142
REMARK INTRA:                  -0.994
REMARK UNBOUND:                -0.522
REMARK  5 active torsions:
REMARK  status: ('A' for Active; 'I' for Inactive)
REMARK    1  A    between atoms: C9_12  and  C1'_13 
REMARK    2  A    between atoms: C2'_14  and  O2'_15 
REMARK    3  A    between atoms: C3'_16  and  O3'_17 
REMARK    4  A    between atoms: C4'_18  and  C5'_20 
REMARK    5  A    between atoms: C5'_20  and  O5'_21 
ROOT
HETATM    1  N1  FMB F 240       0.197  97.477  57.940  1.00 60.26    -0.318 N 
HETATM    2  C2  FMB F 240      -0.639  96.577  57.315  1.00 35.53     0.184 A 
HETATM    3  N3  FMB F 240      -1.871  96.875  56.900  1.00 33.44    -0.349 N 
ATOM      4  H3  FMB F 240      -2.494  96.212  56.439  1.00  0.00     0.167 HD
HETATM    5  C4  FMB F 240      -2.197  98.164  57.164  1.00 38.54     0.094 A 
HETATM    6  C5  FMB F 240      -1.434  99.133  57.779  1.00100.00     0.145 A 
HETATM    7  C6  FMB F 240      -0.126  98.802  58.220  1.00 57.49     0.276 A 
HETATM    8  O6  FMB F 240       0.711  99.517  58.786  1.00 67.62    -0.266 OA
HETATM    9  N7  FMB F 240      -2.134 100.332  57.862  1.00 33.05    -0.293 N 
HETATM   10  N8  FMB F 240      -3.284 100.072  57.302  1.00100.00    -0.299 N 
ATOM     11  H8  FMB F 240      -4.028 100.764  57.204  1.00  0.00     0.186 HD
HETATM   12  C9  FMB F 240      -3.394  98.774  56.856  1.00 52.11     0.086 A 
HETATM   13  H1  FMB F 240       1.103  97.154  58.212  1.00 20.00     0.169 HD
HETATM   14  H7  FMB F 240      -1.827 101.197  58.260  1.00 20.00     0.187 HD
ENDROOT
BRANCH  12  15
HETATM   15  C1' FMB F 240      -4.724  98.374  56.330  1.00 75.82     0.207 C 
HETATM   16  C2' FMB F 240      -5.405  99.460  55.493  1.00 42.06     0.184 C 
HETATM   17  C3' FMB F 240      -5.678  98.791  54.133  1.00 78.37     0.180 C 
HETATM   18  C4' FMB F 240      -4.792  97.561  54.131  1.00 79.39     0.177 C 
HETATM   19  O4' FMB F 240      -4.560  97.224  55.521  1.00 55.58    -0.367 OA
BRANCH  16  20
HETATM   20  O2' FMB F 240      -6.586  99.873  56.125  1.00 42.59    -0.390 OA
HETATM   21  H2' FMB F 240      -6.657 100.819  56.078  1.00 20.00     0.210 HD
ENDBRANCH  16  20
BRANCH  17  22
HETATM   22  O3' FMB F 240      -7.027  98.375  53.945  1.00 24.93    -0.390 OA
HETATM   23  H3' FMB F 240      -7.317  98.624  53.075  1.00 20.00     0.210 HD
ENDBRANCH  17  22
BRANCH  18  24
HETATM   24  C5' FMB F 240      -3.469  97.714  53.420  1.00 27.41     0.198 C 
BRANCH  24  25
HETATM   25  O5' FMB F 240      -2.531  96.767  53.930  1.00 49.77    -0.398 OA
HETATM   26  H5' FMB F 240      -2.390  96.082  53.287  1.00 20.00     0.209 HD
ENDBRANCH  24  25
ENDBRANCH  18  24
ENDBRANCH  12  15
TORSDOF 5
ENDMDL
MODEL 4
REMARK VINA RESULT:    -5.411      2.842      5.466
REMARK INTER + INTRA:          -7.039
REMARK INTER:                  -6.052
REMARK INTRA:                  -0.987
REMARK UNBOUND:                -0.522
REMARK  5 active torsions:
REMARK  status: ('A' for Active; 'I' for Inactive)
REMARK    1  A    between atoms: C9_12  and  C1'_13 
REMARK    2  A    between atoms: C2'_14  and  O2'_15 
REMARK    3  A    between atoms: C3'_16  and  O3'_17 
REMARK    4  A    between atoms: C4'_18  and  C5'_20 
REMARK    5  A    between atoms: C5'_20  and  O5'_21 
ROOT
HETATM    1  N1  FMB F 240      -5.647  98.148  51.271  1.00 60.26    -0.318 N 
HETATM    2  C2  FMB F 240      -4.476  98.861  51.410  1.00 35.53     0.184 A 
HETATM    3  N3  FMB F 240      -4.145  99.533  52.514  1.00 33.44    -0.349 N 
ATOM      4  H3  FMB F 240      -3.281 100.064  52.621  1.00  0.00     0.167 HD
HETATM    5  C4  FMB F 240      -5.094  99.429  53.475  1.00 38.54     0.094 A 
HETATM    6  C5  FMB F 240      -6.290  98.743  53.430  1.00100.00     0.145 A 
HETATM    7  C6  FMB F 240      -6.632  98.034  52.248  1.00 57.49     0.276 A 
HETATM    8  O6  FMB F 240      -7.644  97.363  52.007  1.00 67.62    -0.266 OA
HETATM    9  N7  FMB F 240      -6.984  98.885  54.627  1.00 33.05    -0.293 N 
HETATM   10  N8  FMB F 240      -6.209  99.635  55.361  1.00100.00    -0.299 N 
ATOM     11  H8  FMB F 240      -6.444  99.920  56.313  1.00  0.00     0.186 HD
HETATM   12  C9  FMB F 240      -5.045 100.005  54.727  1.00 52.11     0.086 A 
HETATM   13  H1  FMB F 240      -5.801  97.678  50.403  1.00 20.00     0.169 HD
HETATM   14  H7  FMB F 240      -7.874  98.499  54.869  1.00 20.00     0.187 HD
ENDROOT
BRANCH  12  15
HETATM   15  C1' FMB F 240      -4.181 100.969  55.455  1.00 75.82     0.207 C 
HETATM   16  C2' FMB F 240      -3.916 100.576  56.911  1.00 42.06     0.184 C 
HETATM   17  C3' FMB F 240      -2.381 100.511  57.024  1.00 78.37     0.180 C 
HETATM   18  C4' FMB F 240      -1.897 100.451  55.589  1.00 79.39     0.177 C 
HETATM   19  O4' FMB F 240      -2.938 101.056  54.782  1.00 55.58    -0.367 OA
BRANCH  16  20
HETATM   20  O2' FMB F 240      -4.468 101.538  57.768  1.00 42.59    -0.390 OA
HETATM   21  H2' FMB F 240      -5.237 101.178  58.194  1.00 20.00     0.210 HD
ENDBRANCH  16  20
BRANCH  17  22
HETATM   22  O3' FMB F 240      -1.791 101.645  57.651  1.00 24.93    -0.390 OA
HETATM   23  H3' FMB F 240      -0.893 101.738  57.358  1.00 20.00     0.210 HD
ENDBRANCH  17  22
BRANCH  18  24
HETATM   24  C5' FMB F 240      -1.589  99.070  55.064  1.00 27.41     0.198 C 
BRANCH  24  25
HETATM   25  O5' FMB F 240      -1.544  99.090  53.638  1.00 49.77    -0.398 OA
HETATM   26  H5' FMB F 240      -1.151  98.285  53.322  1.00 20.00     0.209 HD
ENDBRANCH  24  25
ENDBRANCH  18  24
ENDBRANCH  12  15
TORSDOF 5
ENDMDL
MODEL 5
REMARK VINA RESULT:    -5.172     19.569     21.969
REMARK INTER + INTRA:          -6.752
REMARK INTER:                  -6.408
REMARK INTRA:                  -0.344
REMARK UNBOUND:                -0.522
REMARK  5 active torsions:
REMARK  status: ('A' for Active; 'I' for Inactive)
REMARK    1  A    between atoms: C9_12  and  C1'_13 
REMARK    2  A    between atoms: C2'_14  and  O2'_15 
REMARK    3  A    between atoms: C3'_16  and  O3'_17 
REMARK    4  A    between atoms: C4'_18  and  C5'_20 
REMARK    5  A    between atoms: C5'_20  and  O5'_21 
ROOT
HETATM    1  N1  FMB F 240      -3.848  75.475  58.932  1.00 60.26    -0.318 N 
HETATM    2  C2  FMB F 240      -3.581  76.366  59.949  1.00 35.53     0.184 A 
HETATM    3  N3  FMB F 240      -4.059  77.611  59.986  1.00 33.44    -0.349 N 
ATOM      4  H3  FMB F 240      -3.862  78.275  60.735  1.00  0.00     0.167 HD
HETATM    5  C4  FMB F 240      -4.836  77.889  58.912  1.00 38.54     0.094 A 
HETATM    6  C5  FMB F 240      -5.160  77.068  57.852  1.00100.00     0.145 A 
HETATM    7  C6  FMB F 240      -4.642  75.747  57.821  1.00 57.49     0.276 A 
HETATM    8  O6  FMB F 240      -4.811  74.863  56.972  1.00 67.62    -0.266 OA
HETATM    9  N7  FMB F 240      -5.985  77.733  56.951  1.00 33.05    -0.293 N 
HETATM   10  N8  FMB F 240      -6.146  78.917  57.473  1.00100.00    -0.299 N 
ATOM     11  H8  FMB F 240      -6.712  79.648  57.041  1.00  0.00     0.186 HD
HETATM   12  C9  FMB F 240      -5.475  79.085  58.664  1.00 52.11     0.086 A 
HETATM   13  H1  FMB F 240      -3.442  74.564  58.998  1.00 20.00     0.169 HD
HETATM   14  H7  FMB F 240      -6.369  77.382  56.096  1.00 20.00     0.187 HD
ENDROOT
BRANCH  12  15
HETATM   15  C1' FMB F 240      -5.505  80.451  59.245  1.00 75.82     0.207 C 
HETATM   16  C2' FMB F 240      -5.649  81.560  58.198  1.00 42.06     0.184 C 
HETATM   17  C3' FMB F 240      -6.910  82.336  58.624  1.00 78.37     0.180 C 
HETATM   18  C4' FMB F 240      -7.618  81.408  59.591  1.00 79.39     0.177 C 
HETATM   19  O4' FMB F 240      -6.599  80.536  60.139  1.00 55.58    -0.367 OA
BRANCH  16  20
HETATM   20  O2' FMB F 240      -4.504  82.367  58.204  1.00 42.59    -0.390 OA
HETATM   21  H2' FMB F 240      -4.758  83.278  58.104  1.00 20.00     0.210 HD
ENDBRANCH  16  20
BRANCH  17  22
HETATM   22  O3' FMB F 240      -6.643  83.565  59.292  1.00 24.93    -0.390 OA
HETATM   23  H3' FMB F 240      -5.709  83.648  59.443  1.00 20.00     0.210 HD
ENDBRANCH  17  22
BRANCH  18  24
HETATM   24  C5' FMB F 240      -8.730  80.578  58.999  1.00 27.41     0.198 C 
BRANCH  24  25
HETATM   25  O5' FMB F 240      -9.994  81.088  59.418  1.00 49.77    -0.398 OA
HETATM   26  H5' FMB F 240     -10.509  80.386  59.800  1.00 20.00     0.209 HD
ENDBRANCH  24  25
ENDBRANCH  18  24
ENDBRANCH  12  15
TORSDOF 5
ENDMDL
MODEL 6
REMARK VINA RESULT:    -5.167      2.596      3.260
REMARK INTER + INTRA:          -6.746
REMARK INTER:                  -6.323
REMARK INTRA:                  -0.423
REMARK UNBOUND:                -0.522
REMARK  5 active torsions:
REMARK  status: ('A' for Active; 'I' for Inactive)
REMARK    1  A    between atoms: C9_12  and  C1'_13 
REMARK    2  A    between atoms: C2'_14  and  O2'_15 
REMARK    3  A    between atoms: C3'_16  and  O3'_17 
REMARK    4  A    between atoms: C4'_18  and  C5'_20 
REMARK    5  A    between atoms: C5'_20  and  O5'_21 
ROOT
HETATM    1  N1  FMB F 240       1.731  98.982  56.715  1.00 60.26    -0.318 N 
HETATM    2  C2  FMB F 240       1.166  98.755  55.480  1.00 35.53     0.184 A 
HETATM    3  N3  FMB F 240      -0.150  98.745  55.258  1.00 33.44    -0.349 N 
ATOM      4  H3  FMB F 240      -0.573  98.574  54.345  1.00  0.00     0.167 HD
HETATM    5  C4  FMB F 240      -0.857  98.987  56.388  1.00 38.54     0.094 A 
HETATM    6  C5  FMB F 240      -0.384  99.225  57.661  1.00100.00     0.145 A 
HETATM    7  C6  FMB F 240       1.017  99.229  57.885  1.00 57.49     0.276 A 
HETATM    8  O6  FMB F 240       1.639  99.422  58.939  1.00 67.62    -0.266 OA
HETATM    9  N7  FMB F 240      -1.437  99.428  58.547  1.00 33.05    -0.293 N 
HETATM   10  N8  FMB F 240      -2.506  99.315  57.807  1.00100.00    -0.299 N 
ATOM     11  H8  FMB F 240      -3.454  99.416  58.173  1.00  0.00     0.186 HD
HETATM   12  C9  FMB F 240      -2.231  99.045  56.485  1.00 52.11     0.086 A 
HETATM   13  H1  FMB F 240       2.729  98.969  56.776  1.00 20.00     0.169 HD
HETATM   14  H7  FMB F 240      -1.387  99.617  59.528  1.00 20.00     0.187 HD
ENDROOT
BRANCH  12  15
HETATM   15  C1' FMB F 240      -3.403  98.771  55.615  1.00 75.82     0.207 C 
HETATM   16  C2' FMB F 240      -4.657  98.355  56.389  1.00 42.06     0.184 C 
HETATM   17  C3' FMB F 240      -5.732  99.375  55.968  1.00 78.37     0.180 C 
HETATM   18  C4' FMB F 240      -4.949 100.514  55.343  1.00 79.39     0.177 C 
HETATM   19  O4' FMB F 240      -3.700  99.943  54.879  1.00 55.58    -0.367 OA
BRANCH  16  20
HETATM   20  O2' FMB F 240      -5.010  97.043  56.045  1.00 42.59    -0.390 OA
HETATM   21  H2' FMB F 240      -4.761  96.873  55.144  1.00 20.00     0.210 HD
ENDBRANCH  16  20
BRANCH  17  22
HETATM   22  O3' FMB F 240      -6.660  98.885  55.006  1.00 24.93    -0.390 OA
HETATM   23  H3' FMB F 240      -6.384  99.150  54.136  1.00 20.00     0.210 HD
ENDBRANCH  17  22
BRANCH  18  24
HETATM   24  C5' FMB F 240      -4.665 101.683  56.254  1.00 27.41     0.198 C 
BRANCH  24  25
HETATM   25  O5' FMB F 240      -5.734 102.625  56.184  1.00 49.77    -0.398 OA
HETATM   26  H5' FMB F 240      -5.977 102.761  55.275  1.00 20.00     0.209 HD
ENDBRANCH  24  25
ENDBRANCH  18  24
ENDBRANCH  12  15
TORSDOF 5
ENDMDL
MODEL 7
REMARK VINA RESULT:    -5.049      2.867      5.590
REMARK INTER + INTRA:          -6.603
REMARK INTER:                  -5.599
REMARK INTRA:                  -1.004
REMARK UNBOUND:                -0.522
REMARK  5 active torsions:
REMARK  status: ('A' for Active; 'I' for Inactive)
REMARK    1  A    between atoms: C9_12  and  C1'_13 
REMARK    2  A    between atoms: C2'_14  and  O2'_15 
REMARK    3  A    between atoms: C3'_16  and  O3'_17 
REMARK    4  A    between atoms: C4'_18  and  C5'_20 
REMARK    5  A    between atoms: C5'_20  and  O5'_21 
ROOT
HETATM    1  N1  FMB F 240      -5.181  98.788  52.229  1.00 60.26    -0.318 N 
HETATM    2  C2  FMB F 240      -4.720  99.828  53.007  1.00 35.53     0.184 A 
HETATM    3  N3  FMB F 240      -4.289  99.680  54.260  1.00 33.44    -0.349 N 
ATOM      4  H3  FMB F 240      -3.949 100.447  54.841  1.00  0.00     0.167 HD
HETATM    5  C4  FMB F 240      -4.356  98.391  54.671  1.00 38.54     0.094 A 
HETATM    6  C5  FMB F 240      -4.799  97.289  53.970  1.00100.00     0.145 A 
HETATM    7  C6  FMB F 240      -5.259  97.460  52.638  1.00 57.49     0.276 A 
HETATM    8  O6  FMB F 240      -5.690  96.611  51.847  1.00 67.62    -0.266 OA
HETATM    9  N7  FMB F 240      -4.708  96.141  54.750  1.00 33.05    -0.293 N 
HETATM   10  N8  FMB F 240      -4.218  96.560  55.885  1.00100.00    -0.299 N 
ATOM     11  H8  FMB F 240      -4.030  95.943  56.676  1.00  0.00     0.186 HD
HETATM   12  C9  FMB F 240      -3.981  97.916  55.910  1.00 52.11     0.086 A 
HETATM   13  H1  FMB F 240      -5.482  99.004  51.300  1.00 20.00     0.169 HD
HETATM   14  H7  FMB F 240      -4.960  95.206  54.499  1.00 20.00     0.187 HD
ENDROOT
BRANCH  12  15
HETATM   15  C1' FMB F 240      -3.551  98.481  57.215  1.00 75.82     0.207 C 
HETATM   16  C2' FMB F 240      -2.468  97.654  57.914  1.00 42.06     0.184 C 
HETATM   17  C3' FMB F 240      -1.307  98.640  58.136  1.00 78.37     0.180 C 
HETATM   18  C4' FMB F 240      -1.613  99.801  57.209  1.00 79.39     0.177 C 
HETATM   19  O4' FMB F 240      -3.046  99.785  56.996  1.00 55.58    -0.367 OA
BRANCH  16  20
HETATM   20  O2' FMB F 240      -2.967  97.146  59.121  1.00 42.59    -0.390 OA
HETATM   21  H2' FMB F 240      -2.374  97.370  59.829  1.00 20.00     0.210 HD
ENDBRANCH  16  20
BRANCH  17  22
HETATM   22  O3' FMB F 240      -1.208  99.140  59.465  1.00 24.93    -0.390 OA
HETATM   23  H3' FMB F 240      -0.342  98.955  59.810  1.00 20.00     0.210 HD
ENDBRANCH  17  22
BRANCH  18  24
HETATM   24  C5' FMB F 240      -0.902  99.774  55.877  1.00 27.41     0.198 C 
BRANCH  24  25
HETATM   25  O5' FMB F 240      -1.561 100.645  54.958  1.00 49.77    -0.398 OA
HETATM   26  H5' FMB F 240      -1.833 101.435  55.410  1.00 20.00     0.209 HD
ENDBRANCH  24  25
ENDBRANCH  18  24
ENDBRANCH  12  15
TORSDOF 5
ENDMDL
MODEL 8
REMARK VINA RESULT:    -4.945      2.895      5.442
REMARK INTER + INTRA:          -6.479
REMARK INTER:                  -6.302
REMARK INTRA:                  -0.177
REMARK UNBOUND:                -0.522
REMARK  5 active torsions:
REMARK  status: ('A' for Active; 'I' for Inactive)
REMARK    1  A    between atoms: C9_12  and  C1'_13 
REMARK    2  A    between atoms: C2'_14  and  O2'_15 
REMARK    3  A    between atoms: C3'_16  and  O3'_17 
REMARK    4  A    between atoms: C4'_18  and  C5'_20 
REMARK    5  A    between atoms: C5'_20  and  O5'_21 
ROOT
HETATM    1  N1  FMB F 240      -4.595  97.953  51.654  1.00 60.26    -0.318 N 
HETATM    2  C2  FMB F 240      -4.029  99.059  52.249  1.00 35.53     0.184 A 
HETATM    3  N3  FMB F 240      -3.727  99.128  53.546  1.00 33.44    -0.349 N 
ATOM      4  H3  FMB F 240      -3.310  99.946  53.992  1.00  0.00     0.167 HD
HETATM    5  C4  FMB F 240      -4.038  97.984  54.202  1.00 38.54     0.094 A 
HETATM    6  C5  FMB F 240      -4.602  96.832  53.696  1.00100.00     0.145 A 
HETATM    7  C6  FMB F 240      -4.924  96.772  52.315  1.00 57.49     0.276 A 
HETATM    8  O6  FMB F 240      -5.428  95.843  51.670  1.00 67.62    -0.266 OA
HETATM    9  N7  FMB F 240      -4.763  95.882  54.699  1.00 33.05    -0.293 N 
HETATM   10  N8  FMB F 240      -4.299  96.464  55.771  1.00100.00    -0.299 N 
ATOM     11  H8  FMB F 240      -4.277  96.014  56.687  1.00  0.00     0.186 HD
HETATM   12  C9  FMB F 240      -3.843  97.743  55.545  1.00 52.11     0.086 A 
HETATM   13  H1  FMB F 240      -4.784  98.002  50.673  1.00 20.00     0.169 HD
HETATM   14  H7  FMB F 240      -5.147  94.962  54.617  1.00 20.00     0.187 HD
ENDROOT
BRANCH  12  15
HETATM   15  C1' FMB F 240      -3.427  98.511  56.746  1.00 75.82     0.207 C 
HETATM   16  C2' FMB F 240      -2.257  99.465  56.490  1.00 42.06     0.184 C 
HETATM   17  C3' FMB F 240      -2.784 100.850  56.907  1.00 78.37     0.180 C 
HETATM   18  C4' FMB F 240      -4.290 100.680  56.967  1.00 79.39     0.177 C 
HETATM   19  O4' FMB F 240      -4.532  99.271  57.200  1.00 55.58    -0.367 OA
BRANCH  16  20
HETATM   20  O2' FMB F 240      -1.149  99.070  57.251  1.00 42.59    -0.390 OA
HETATM   21  H2' FMB F 240      -0.375  99.052  56.700  1.00 20.00     0.210 HD
ENDBRANCH  16  20
BRANCH  17  22
HETATM   22  O3' FMB F 240      -2.330 101.290  58.183  1.00 24.93    -0.390 OA
HETATM   23  H3' FMB F 240      -2.696 100.733  58.859  1.00 20.00     0.210 HD
ENDBRANCH  17  22
BRANCH  18  24
HETATM   24  C5' FMB F 240      -5.044 101.128  55.739  1.00 27.41     0.198 C 
BRANCH  24  25
HETATM   25  O5' FMB F 240      -5.818 102.288  56.039  1.00 49.77    -0.398 OA
HETATM   26  H5' FMB F 240      -5.921 102.365  56.981  1.00 20.00     0.209 HD
ENDBRANCH  24  25
ENDBRANCH  18  24
ENDBRANCH  12  15
TORSDOF 5
ENDMDL
MODEL 9
REMARK VINA RESULT:    -4.815     17.186     19.450
REMARK INTER + INTRA:          -6.322
REMARK INTER:                  -5.319
REMARK INTRA:                  -1.003
REMARK UNBOUND:                -0.522
REMARK  5 active torsions:
REMARK  status: ('A' for Active; 'I' for Inactive)
REMARK    1  A    between atoms: C9_12  and  C1'_13 
REMARK    2  A    between atoms: C2'_14  and  O2'_15 
REMARK    3  A    between atoms: C3'_16  and  O3'_17 
REMARK    4  A    between atoms: C4'_18  and  C5'_20 
REMARK    5  A    between atoms: C5'_20  and  O5'_21 
ROOT
HETATM    1  N1  FMB F 240      -4.332  84.798  56.344  1.00 60.26    -0.318 N 
HETATM    2  C2  FMB F 240      -3.512  84.028  57.140  1.00 35.53     0.184 A 
HETATM    3  N3  FMB F 240      -3.907  82.903  57.739  1.00 33.44    -0.349 N 
ATOM      4  H3  FMB F 240      -3.304  82.331  58.331  1.00  0.00     0.167 HD
HETATM    5  C4  FMB F 240      -5.202  82.611  57.468  1.00 38.54     0.094 A 
HETATM    6  C5  FMB F 240      -6.095  83.315  56.689  1.00100.00     0.145 A 
HETATM    7  C6  FMB F 240      -5.665  84.513  56.060  1.00 57.49     0.276 A 
HETATM    8  O6  FMB F 240      -6.301  85.281  55.327  1.00 67.62    -0.266 OA
HETATM    9  N7  FMB F 240      -7.332  82.680  56.664  1.00 33.05    -0.293 N 
HETATM   10  N8  FMB F 240      -7.167  81.624  57.411  1.00100.00    -0.299 N 
ATOM     11  H8  FMB F 240      -7.906  80.943  57.589  1.00  0.00     0.186 HD
HETATM   12  C9  FMB F 240      -5.899  81.517  57.935  1.00 52.11     0.086 A 
HETATM   13  H1  FMB F 240      -3.940  85.624  55.940  1.00 20.00     0.169 HD
HETATM   14  H7  FMB F 240      -8.161  82.969  56.183  1.00 20.00     0.187 HD
ENDROOT
BRANCH  12  15
HETATM   15  C1' FMB F 240      -5.681  80.411  58.902  1.00 75.82     0.207 C 
HETATM   16  C2' FMB F 240      -6.266  79.072  58.444  1.00 42.06     0.184 C 
HETATM   17  C3' FMB F 240      -5.071  78.100  58.455  1.00 78.37     0.180 C 
HETATM   18  C4' FMB F 240      -3.851  78.999  58.500  1.00 79.39     0.177 C 
HETATM   19  O4' FMB F 240      -4.288  80.248  59.092  1.00 55.58    -0.367 OA
BRANCH  16  20
HETATM   20  O2' FMB F 240      -7.279  78.673  59.325  1.00 42.59    -0.390 OA
HETATM   21  H2' FMB F 240      -7.405  79.342  59.988  1.00 20.00     0.210 HD
ENDBRANCH  16  20
BRANCH  17  22
HETATM   22  O3' FMB F 240      -5.032  77.231  59.583  1.00 24.93    -0.390 OA
HETATM   23  H3' FMB F 240      -4.604  77.672  60.307  1.00 20.00     0.210 HD
ENDBRANCH  17  22
BRANCH  18  24
HETATM   24  C5' FMB F 240      -3.195  79.272  57.169  1.00 27.41     0.198 C 
BRANCH  24  25
HETATM   25  O5' FMB F 240      -2.327  80.400  57.277  1.00 49.77    -0.398 OA
HETATM   26  H5' FMB F 240      -1.424  80.113  57.199  1.00 20.00     0.209 HD
ENDBRANCH  24  25
ENDBRANCH  18  24
ENDBRANCH  12  15
TORSDOF 5
ENDMDL
