BZU(A-555)
  -OEChem-06302400583D

 45 46  0     1  0  0  0  0  0999 V2000
   -5.6889    0.5248   17.0906 S   0  0  0  0  0  0  0  0  0  0  0  0
   -6.2857    3.2436   16.0774 S   0  0  0  0  0  0  0  0  0  0  0  0
   -5.2665    1.8681   16.1305 C   0  0  0  0  0  0  0  0  0  0  0  0
   -4.1650    2.0181   15.3509 C   0  0  0  0  0  0  0  0  0  0  0  0
   -4.0936    3.2166   14.6963 C   0  0  0  0  0  0  0  0  0  0  0  0
   -5.1877    4.0081   15.0052 C   0  0  0  0  0  0  0  0  0  0  0  0
   -5.3750    5.6260   14.4417 S   0  0  0  0  0  0  0  0  0  0  0  0
   -3.9507    5.9492   14.1343 N   0  0  1  0  0  0  0  0  0  0  0  0
   -3.4677    5.1151   13.0556 C   0  0  0  0  0  0  0  0  0  0  0  0
   -3.0356    3.8015   13.7414 C   0  0  2  0  0  0  0  0  0  0  0  0
   -3.5360    7.3192   13.9675 C   0  0  0  0  0  0  0  0  0  0  0  0
   -2.2500    7.4153   14.7707 C   0  0  0  0  0  0  0  0  0  0  0  0
   -1.5570    8.6285   14.5226 O   0  0  0  0  0  0  0  0  0  0  0  0
   -2.2233    9.7644   15.0592 C   0  0  0  0  0  0  0  0  0  0  0  0
   -1.2537   10.9586   15.1557 C   0  0  0  0  0  0  0  0  0  0  0  0
   -2.7203    2.8452   12.6763 N   0  3  0  0  0  0  0  0  0  0  0  0
   -1.5338    3.0312   11.8439 C   0  0  0  0  0  0  0  0  0  0  0  0
   -1.3901    1.9524   10.7566 C   0  0  0  0  0  0  0  0  0  0  0  0
   -5.1377    0.8039   18.3691 O   0  0  0  0  0  0  0  0  0  0  0  0
   -5.1432   -0.7407   16.5468 N   0  0  0  0  0  0  0  0  0  0  0  0
   -7.1221    0.5062   17.1173 O   0  0  0  0  0  0  0  0  0  0  0  0
   -6.2635    5.6174   13.3353 O   0  0  0  0  0  0  0  0  0  0  0  0
   -5.9677    6.4465   15.4567 O   0  0  0  0  0  0  0  0  0  0  0  0
   -3.4078    1.2538   15.2557 H   0  0  0  0  0  0  0  0  0  0  0  0
   -2.1241    4.0041   14.3238 H   0  0  0  0  0  0  0  0  0  0  0  0
   -4.9687   -1.3784   17.2971 H   0  0  0  0  0  0  0  0  0  0  0  0
   -4.2966    8.0086   14.3630 H   0  0  0  0  0  0  0  0  0  0  0  0
   -4.2884   -0.5549   16.0621 H   0  0  0  0  0  0  0  0  0  0  0  0
   -3.3524    7.5451   12.9070 H   0  0  0  0  0  0  0  0  0  0  0  0
   -2.4955    7.3590   15.8419 H   0  0  0  0  0  0  0  0  0  0  0  0
   -1.5978    6.5723   14.4987 H   0  0  0  0  0  0  0  0  0  0  0  0
   -2.6014    9.5228   16.0636 H   0  0  0  0  0  0  0  0  0  0  0  0
   -3.0662   10.0337   14.4052 H   0  0  0  0  0  0  0  0  0  0  0  0
   -1.7833   11.8281   15.5722 H   0  0  0  0  0  0  0  0  0  0  0  0
   -0.4110   10.6944   15.8117 H   0  0  0  0  0  0  0  0  0  0  0  0
   -0.8748   11.2053   14.1533 H   0  0  0  0  0  0  0  0  0  0  0  0
   -2.6276    1.9501   13.1124 H   0  0  0  0  0  0  0  0  0  0  0  0
   -1.5985    4.0145   11.3556 H   0  0  0  0  0  0  0  0  0  0  0  0
   -0.6442    2.9992   12.4893 H   0  0  0  0  0  0  0  0  0  0  0  0
   -0.4827    2.1452   10.1658 H   0  0  0  0  0  0  0  0  0  0  0  0
   -1.3153    0.9628   11.2297 H   0  0  0  0  0  0  0  0  0  0  0  0
   -2.2696    1.9781   10.0970 H   0  0  0  0  0  0  0  0  0  0  0  0
   -2.6124    5.5894   12.5511 H   0  0  0  0  0  0  0  0  0  0  0  0
   -4.2667    4.9261   12.3229 H   0  0  0  0  0  0  0  0  0  0  0  0
   -3.5061    2.8349   12.0579 H   0  0  0  0  0  0  0  0  0  0  0  0
  1  3  1  0  0  0  0
  1 19  2  0  0  0  0
  1 20  1  0  0  0  0
  1 21  2  0  0  0  0
  2  3  1  0  0  0  0
  2  6  1  0  0  0  0
  3  4  2  0  0  0  0
  4  5  1  0  0  0  0
  4 24  1  0  0  0  0
  5  6  2  0  0  0  0
  5 10  1  0  0  0  0
  6  7  1  0  0  0  0
  7  8  1  0  0  0  0
  7 22  2  0  0  0  0
  7 23  2  0  0  0  0
  8  9  1  0  0  0  0
  8 11  1  0  0  0  0
  9 10  1  0  0  0  0
  9 43  1  0  0  0  0
  9 44  1  0  0  0  0
 10 16  1  0  0  0  0
 10 25  1  0  0  0  0
 11 12  1  0  0  0  0
 11 27  1  0  0  0  0
 11 29  1  0  0  0  0
 12 13  1  0  0  0  0
 12 30  1  0  0  0  0
 12 31  1  0  0  0  0
 13 14  1  0  0  0  0
 14 15  1  0  0  0  0
 14 32  1  0  0  0  0
 14 33  1  0  0  0  0
 15 34  1  0  0  0  0
 15 35  1  0  0  0  0
 15 36  1  0  0  0  0
 16 17  1  0  0  0  0
 16 37  1  0  0  0  0
 17 18  1  0  0  0  0
 17 38  1  0  0  0  0
 17 39  1  0  0  0  0
 18 40  1  0  0  0  0
 18 41  1  0  0  0  0
 18 42  1  0  0  0  0
 20 26  1  0  0  0  0
 20 28  1  0  0  0  0
 16 45  1  0  0  0  0
M  CHG  1  16   1
M  END
> <Chemgauss4>
-9.889580

$$$$
