MODEL 1
REMARK VINA RESULT:    -8.065      0.000      0.000
REMARK INTER + INTRA:         -10.678
REMARK INTER:                  -9.951
REMARK INTRA:                  -0.726
REMARK UNBOUND:                -0.726
REMARK  4 active torsions:
REMARK  status: ('A' for Active; 'I' for Inactive)
REMARK    1  A    between atoms: S_2  and  N_5 
REMARK    2  A    between atoms: N_5  and  C_7 
REMARK    3  A    between atoms: C_15  and  C_16 
REMARK       I    between atoms: C_16  and  N_18 
REMARK    4  A    between atoms: N_18  and  C_20 
ROOT
HETATM    1  C   UNL     1       8.561  -3.553  23.817  1.00  0.00     0.109 C 
HETATM    2  C   UNL     1       8.905  -2.433  23.335  1.00  0.00    -0.008 A 
HETATM    3  C   UNL     1       9.612  -1.363  23.409  1.00  0.00     0.058 A 
HETATM    4  C   UNL     1       9.783  -0.280  24.627  1.00  0.00    -0.003 C 
HETATM    5  C   UNL     1      10.752   0.227  24.855  1.00  0.00    -0.002 C 
HETATM    6  C   UNL     1      12.017   0.107  24.348  1.00  0.00    -0.001 C 
HETATM    7  C   UNL     1      12.064  -0.945  23.341  1.00  0.00    -0.002 C 
HETATM    8  C   UNL     1      11.350  -1.555  22.980  1.00  0.00    -0.003 C 
HETATM    9  C   UNL     1       9.117  -0.934  22.433  1.00  0.00     0.040 A 
ENDROOT
BRANCH   9  10
HETATM   10  C   UNL     1       8.579  -0.352  21.331  1.00  0.00     0.254 C 
HETATM   11  O   UNL     1       9.277   0.325  20.725  1.00  0.00    -0.268 OA
HETATM   12  N   UNL     1       7.320  -0.643  21.171  1.00  0.00    -0.321 N 
ATOM     13  HN  UNL     1       6.851  -1.229  21.862  1.00  0.00     0.169 HD
BRANCH  12  14
HETATM   14  C   UNL     1       6.672  -0.218  20.187  1.00  0.00     0.056 A 
HETATM   15  C   UNL     1       6.363  -0.563  19.027  1.00  0.00     0.117 A 
HETATM   16  N   UNL     1       5.818  -0.426  17.869  1.00  0.00    -0.373 N 
HETATM   17  C   UNL     1       5.311   0.754  18.136  1.00  0.00     0.088 A 
ATOM     18  HN  UNL     1       5.790  -1.022  17.041  1.00  0.00     0.164 HD
HETATM   19  C   UNL     1       5.369   1.453  19.148  1.00  0.00     0.026 A 
HETATM   20  C   UNL     1       5.962   1.238  20.299  1.00  0.00    -0.033 A 
HETATM   21  C   UNL     1       6.050   2.102  21.615  1.00  0.00     0.050 C 
ENDBRANCH  12  14
ENDBRANCH   9  10
BRANCH   1  22
HETATM   22  N   UNL     1       7.809  -4.414  24.084  1.00  0.00    -0.295 N 
ATOM     23  HN  UNL     1       7.966  -4.859  24.988  1.00  0.00     0.177 HD
BRANCH  22  24
HETATM   24  S   UNL     1       6.543  -5.012  23.226  1.00  0.00     0.226 S 
HETATM   25  C   UNL     1       7.135  -5.962  22.071  1.00  0.00     0.186 C 
HETATM   26  O   UNL     1       5.686  -5.770  24.097  1.00  0.00    -0.206 OA
HETATM   27  O   UNL     1       5.783  -3.929  22.640  1.00  0.00    -0.206 OA
ENDBRANCH  22  24
ENDBRANCH   1  22
TORSDOF 4
ENDMDL
MODEL 2
REMARK VINA RESULT:    -7.990      2.810      6.065
REMARK INTER + INTRA:         -10.585
REMARK INTER:                  -9.681
REMARK INTRA:                  -0.904
REMARK UNBOUND:                -0.726
REMARK  4 active torsions:
REMARK  status: ('A' for Active; 'I' for Inactive)
REMARK    1  A    between atoms: S_2  and  N_5 
REMARK    2  A    between atoms: N_5  and  C_7 
REMARK    3  A    between atoms: C_15  and  C_16 
REMARK       I    between atoms: C_16  and  N_18 
REMARK    4  A    between atoms: N_18  and  C_20 
ROOT
HETATM    1  C   UNL     1       8.653   0.702  22.220  1.00  0.00     0.109 C 
HETATM    2  C   UNL     1       9.199  -0.093  23.042  1.00  0.00    -0.008 A 
HETATM    3  C   UNL     1      10.252  -0.671  23.495  1.00  0.00     0.058 A 
HETATM    4  C   UNL     1      11.408  -1.539  22.724  1.00  0.00    -0.003 C 
HETATM    5  C   UNL     1      12.487  -1.500  23.008  1.00  0.00    -0.002 C 
HETATM    6  C   UNL     1      13.192  -0.761  23.919  1.00  0.00    -0.001 C 
HETATM    7  C   UNL     1      12.315   0.187  24.593  1.00  0.00    -0.002 C 
HETATM    8  C   UNL     1      11.328   0.365  24.501  1.00  0.00    -0.003 C 
HETATM    9  C   UNL     1       9.620  -1.277  24.278  1.00  0.00     0.040 A 
ENDROOT
BRANCH   9  10
HETATM   10  C   UNL     1       8.963  -2.037  25.192  1.00  0.00     0.254 C 
HETATM   11  O   UNL     1       8.767  -1.547  26.209  1.00  0.00    -0.268 OA
HETATM   12  N   UNL     1       8.696  -3.234  24.755  1.00  0.00    -0.321 N 
ATOM     13  HN  UNL     1       9.008  -3.507  23.823  1.00  0.00     0.169 HD
BRANCH  12  14
HETATM   14  C   UNL     1       8.064  -4.058  25.456  1.00  0.00     0.056 A 
HETATM   15  C   UNL     1       8.265  -4.883  26.372  1.00  0.00     0.117 A 
HETATM   16  N   UNL     1       7.941  -5.795  27.220  1.00  0.00    -0.373 N 
HETATM   17  C   UNL     1       6.673  -5.799  26.883  1.00  0.00     0.088 A 
ATOM     18  HN  UNL     1       8.478  -6.326  27.907  1.00  0.00     0.164 HD
HETATM   19  C   UNL     1       6.054  -5.148  26.040  1.00  0.00     0.026 A 
HETATM   20  C   UNL     1       6.471  -4.230  25.199  1.00  0.00    -0.033 A 
HETATM   21  C   UNL     1       5.710  -3.372  24.117  1.00  0.00     0.050 C 
ENDBRANCH  12  14
ENDBRANCH   9  10
BRANCH   1  22
HETATM   22  N   UNL     1       7.809   1.071  21.494  1.00  0.00    -0.295 N 
ATOM     23  HN  UNL     1       7.416   1.986  21.719  1.00  0.00     0.177 HD
BRANCH  22  24
HETATM   24  S   UNL     1       7.161   0.344  20.172  1.00  0.00     0.226 S 
HETATM   25  C   UNL     1       6.417  -0.995  20.661  1.00  0.00     0.186 C 
HETATM   26  O   UNL     1       6.219   1.232  19.546  1.00  0.00    -0.206 OA
HETATM   27  O   UNL     1       8.204   0.017  19.224  1.00  0.00    -0.206 OA
ENDBRANCH  22  24
ENDBRANCH   1  22
TORSDOF 4
ENDMDL
MODEL 3
REMARK VINA RESULT:    -7.556      3.795      6.032
REMARK INTER + INTRA:         -10.049
REMARK INTER:                  -9.353
REMARK INTRA:                  -0.696
REMARK UNBOUND:                -0.726
REMARK  4 active torsions:
REMARK  status: ('A' for Active; 'I' for Inactive)
REMARK    1  A    between atoms: S_2  and  N_5 
REMARK    2  A    between atoms: N_5  and  C_7 
REMARK    3  A    between atoms: C_15  and  C_16 
REMARK       I    between atoms: C_16  and  N_18 
REMARK    4  A    between atoms: N_18  and  C_20 
ROOT
HETATM    1  C   UNL     1       7.132  -5.448  26.884  1.00  0.00     0.109 C 
HETATM    2  C   UNL     1       7.419  -4.605  25.981  1.00  0.00    -0.008 A 
HETATM    3  C   UNL     1       7.337  -4.216  24.760  1.00  0.00     0.058 A 
HETATM    4  C   UNL     1       7.663  -5.009  23.364  1.00  0.00    -0.003 C 
HETATM    5  C   UNL     1       7.067  -4.865  22.431  1.00  0.00    -0.002 C 
HETATM    6  C   UNL     1       5.939  -4.146  22.139  1.00  0.00    -0.001 C 
HETATM    7  C   UNL     1       5.428  -3.493  23.337  1.00  0.00    -0.002 C 
HETATM    8  C   UNL     1       5.761  -3.486  24.287  1.00  0.00    -0.003 C 
HETATM    9  C   UNL     1       8.031  -3.293  24.977  1.00  0.00     0.040 A 
ENDROOT
BRANCH   9  10
HETATM   10  C   UNL     1       8.846  -2.218  25.134  1.00  0.00     0.254 C 
HETATM   11  O   UNL     1       8.837  -1.724  26.168  1.00  0.00    -0.268 OA
HETATM   12  N   UNL     1       9.484  -1.906  24.044  1.00  0.00    -0.321 N 
ATOM     13  HN  UNL     1       9.313  -2.442  23.193  1.00  0.00     0.169 HD
BRANCH  12  14
HETATM   14  C   UNL     1      10.305  -0.959  24.017  1.00  0.00     0.056 A 
HETATM   15  C   UNL     1      11.513  -0.737  24.243  1.00  0.00     0.117 A 
HETATM   16  N   UNL     1      12.574  -0.016  24.341  1.00  0.00    -0.373 N 
HETATM   17  C   UNL     1      11.978   1.090  23.964  1.00  0.00     0.088 A 
ATOM     18  HN  UNL     1      13.534  -0.228  24.614  1.00  0.00     0.164 HD
HETATM   19  C   UNL     1      10.810   1.316  23.646  1.00  0.00     0.026 A 
HETATM   20  C   UNL     1       9.775   0.512  23.581  1.00  0.00    -0.033 A 
HETATM   21  C   UNL     1       8.272   0.762  23.171  1.00  0.00     0.050 C 
ENDBRANCH  12  14
ENDBRANCH   9  10
BRANCH   1  22
HETATM   22  N   UNL     1       7.339  -6.105  27.833  1.00  0.00    -0.295 N 
ATOM     23  HN  UNL     1       8.278  -6.503  27.886  1.00  0.00     0.177 HD
BRANCH  22  24
HETATM   24  S   UNL     1       6.352  -6.485  29.089  1.00  0.00     0.226 S 
HETATM   25  C   UNL     1       4.861  -6.655  28.511  1.00  0.00     0.186 C 
HETATM   26  O   UNL     1       6.792  -7.715  29.693  1.00  0.00    -0.206 OA
HETATM   27  O   UNL     1       6.384  -5.433  30.082  1.00  0.00    -0.206 OA
ENDBRANCH  22  24
ENDBRANCH   1  22
TORSDOF 4
ENDMDL
MODEL 4
REMARK VINA RESULT:    -7.434      2.908      6.159
REMARK INTER + INTRA:          -9.899
REMARK INTER:                  -9.058
REMARK INTRA:                  -0.841
REMARK UNBOUND:                -0.726
REMARK  4 active torsions:
REMARK  status: ('A' for Active; 'I' for Inactive)
REMARK    1  A    between atoms: S_2  and  N_5 
REMARK    2  A    between atoms: N_5  and  C_7 
REMARK    3  A    between atoms: C_15  and  C_16 
REMARK       I    between atoms: C_16  and  N_18 
REMARK    4  A    between atoms: N_18  and  C_20 
ROOT
HETATM    1  C   UNL     1       7.829   0.452  20.109  1.00  0.00     0.109 C 
HETATM    2  C   UNL     1       8.445   0.275  21.202  1.00  0.00    -0.008 A 
HETATM    3  C   UNL     1       9.166   0.740  22.157  1.00  0.00     0.058 A 
HETATM    4  C   UNL     1      10.580   1.568  22.121  1.00  0.00    -0.003 C 
HETATM    5  C   UNL     1      10.822   2.386  22.841  1.00  0.00    -0.002 C 
HETATM    6  C   UNL     1      10.114   2.998  23.840  1.00  0.00    -0.001 C 
HETATM    7  C   UNL     1       8.758   2.469  23.900  1.00  0.00    -0.002 C 
HETATM    8  C   UNL     1       8.293   1.761  23.355  1.00  0.00    -0.003 C 
HETATM    9  C   UNL     1       9.227  -0.317  22.666  1.00  0.00     0.040 A 
ENDROOT
BRANCH   9  10
HETATM   10  C   UNL     1       9.371  -1.507  23.305  1.00  0.00     0.254 C 
HETATM   11  O   UNL     1      10.371  -2.045  23.150  1.00  0.00    -0.268 OA
HETATM   12  N   UNL     1       8.306  -1.856  23.967  1.00  0.00    -0.321 N 
ATOM     13  HN  UNL     1       7.480  -1.259  23.936  1.00  0.00     0.169 HD
BRANCH  12  14
HETATM   14  C   UNL     1       8.275  -2.911  24.642  1.00  0.00     0.056 A 
HETATM   15  C   UNL     1       8.539  -3.314  25.795  1.00  0.00     0.117 A 
HETATM   16  N   UNL     1       8.650  -4.186  26.735  1.00  0.00    -0.373 N 
HETATM   17  C   UNL     1       8.208  -5.180  26.001  1.00  0.00     0.088 A 
ATOM     18  HN  UNL     1       8.967  -4.125  27.703  1.00  0.00     0.164 HD
HETATM   19  C   UNL     1       7.839  -5.223  24.828  1.00  0.00     0.026 A 
HETATM   20  C   UNL     1       7.765  -4.274  23.924  1.00  0.00    -0.033 A 
HETATM   21  C   UNL     1       7.289  -4.289  22.420  1.00  0.00     0.050 C 
ENDBRANCH  12  14
ENDBRANCH   9  10
BRANCH   1  22
HETATM   22  N   UNL     1       7.452   0.158  19.037  1.00  0.00    -0.295 N 
ATOM     23  HN  UNL     1       8.133  -0.340  18.463  1.00  0.00     0.177 HD
BRANCH  22  24
HETATM   24  S   UNL     1       6.000   0.425  18.319  1.00  0.00     0.226 S 
HETATM   25  C   UNL     1       4.926   0.729  19.477  1.00  0.00     0.186 C 
HETATM   26  O   UNL     1       6.101   1.553  17.432  1.00  0.00    -0.206 OA
HETATM   27  O   UNL     1       5.599  -0.739  17.559  1.00  0.00    -0.206 OA
ENDBRANCH  22  24
ENDBRANCH   1  22
TORSDOF 4
ENDMDL
MODEL 5
REMARK VINA RESULT:    -6.832     14.660     15.989
REMARK INTER + INTRA:          -9.156
REMARK INTER:                  -8.318
REMARK INTRA:                  -0.839
REMARK UNBOUND:                -0.726
REMARK  4 active torsions:
REMARK  status: ('A' for Active; 'I' for Inactive)
REMARK    1  A    between atoms: S_2  and  N_5 
REMARK    2  A    between atoms: N_5  and  C_7 
REMARK    3  A    between atoms: C_15  and  C_16 
REMARK       I    between atoms: C_16  and  N_18 
REMARK    4  A    between atoms: N_18  and  C_20 
ROOT
HETATM    1  C   UNL     1      24.765  -3.256  24.392  1.00  0.00     0.109 C 
HETATM    2  C   UNL     1      24.010  -2.456  23.764  1.00  0.00    -0.008 A 
HETATM    3  C   UNL     1      23.200  -1.459  23.768  1.00  0.00     0.058 A 
HETATM    4  C   UNL     1      21.846  -1.188  24.651  1.00  0.00    -0.003 C 
HETATM    5  C   UNL     1      21.559  -0.176  25.026  1.00  0.00    -0.002 C 
HETATM    6  C   UNL     1      22.168   1.049  24.983  1.00  0.00    -0.001 C 
HETATM    7  C   UNL     1      23.477   0.945  24.353  1.00  0.00    -0.002 C 
HETATM    8  C   UNL     1      23.969   0.158  23.962  1.00  0.00    -0.003 C 
HETATM    9  C   UNL     1      23.023  -1.559  22.611  1.00  0.00     0.040 A 
ENDROOT
BRANCH   9  10
HETATM   10  C   UNL     1      22.740  -1.621  21.285  1.00  0.00     0.254 C 
HETATM   11  O   UNL     1      21.676  -1.947  21.010  1.00  0.00    -0.268 OA
HETATM   12  N   UNL     1      23.764  -1.330  20.537  1.00  0.00    -0.321 N 
ATOM     13  HN  UNL     1      24.660  -1.117  20.976  1.00  0.00     0.169 HD
BRANCH  12  14
HETATM   14  C   UNL     1      23.673  -1.306  19.287  1.00  0.00     0.056 A 
HETATM   15  C   UNL     1      23.350  -0.523  18.369  1.00  0.00     0.117 A 
HETATM   16  N   UNL     1      23.133  -0.172  17.150  1.00  0.00    -0.373 N 
HETATM   17  C   UNL     1      23.479  -1.334  16.648  1.00  0.00     0.088 A 
ATOM     18  HN  UNL     1      22.808   0.697  16.726  1.00  0.00     0.164 HD
HETATM   19  C   UNL     1      23.861  -2.372  17.190  1.00  0.00     0.026 A 
HETATM   20  C   UNL     1      24.049  -2.650  18.459  1.00  0.00    -0.033 A 
HETATM   21  C   UNL     1      24.545  -3.959  19.186  1.00  0.00     0.050 C 
ENDBRANCH  12  14
ENDBRANCH   9  10
BRANCH   1  22
HETATM   22  N   UNL     1      25.256  -4.295  24.630  1.00  0.00    -0.295 N 
ATOM     23  HN  UNL     1      26.203  -4.248  25.009  1.00  0.00     0.177 HD
BRANCH  22  24
HETATM   24  S   UNL     1      24.655  -5.812  24.447  1.00  0.00     0.226 S 
HETATM   25  C   UNL     1      25.515  -6.799  25.382  1.00  0.00     0.186 C 
HETATM   26  O   UNL     1      23.273  -5.834  24.844  1.00  0.00    -0.206 OA
HETATM   27  O   UNL     1      24.756  -6.223  23.063  1.00  0.00    -0.206 OA
ENDBRANCH  22  24
ENDBRANCH   1  22
TORSDOF 4
ENDMDL
MODEL 6
REMARK VINA RESULT:    -6.746      5.585      7.853
REMARK INTER + INTRA:          -9.050
REMARK INTER:                  -8.500
REMARK INTRA:                  -0.550
REMARK UNBOUND:                -0.726
REMARK  4 active torsions:
REMARK  status: ('A' for Active; 'I' for Inactive)
REMARK    1  A    between atoms: S_2  and  N_5 
REMARK    2  A    between atoms: N_5  and  C_7 
REMARK    3  A    between atoms: C_15  and  C_16 
REMARK       I    between atoms: C_16  and  N_18 
REMARK    4  A    between atoms: N_18  and  C_20 
ROOT
HETATM    1  C   UNL     1       6.931  -5.656  26.436  1.00  0.00     0.109 C 
HETATM    2  C   UNL     1       6.150  -5.690  25.439  1.00  0.00    -0.008 A 
HETATM    3  C   UNL     1       5.772  -5.214  24.308  1.00  0.00     0.058 A 
HETATM    4  C   UNL     1       5.385  -3.683  23.871  1.00  0.00    -0.003 C 
HETATM    5  C   UNL     1       5.632  -3.257  22.869  1.00  0.00    -0.002 C 
HETATM    6  C   UNL     1       6.328  -3.734  21.792  1.00  0.00    -0.001 C 
HETATM    7  C   UNL     1       6.880  -5.050  22.085  1.00  0.00    -0.002 C 
HETATM    8  C   UNL     1       6.824  -5.629  22.907  1.00  0.00    -0.003 C 
HETATM    9  C   UNL     1       4.887  -5.984  24.245  1.00  0.00     0.040 A 
ENDROOT
BRANCH   9  10
HETATM   10  C   UNL     1       3.825  -6.819  24.106  1.00  0.00     0.254 C 
HETATM   11  O   UNL     1       3.809  -7.734  24.796  1.00  0.00    -0.268 OA
HETATM   12  N   UNL     1       3.010  -6.444  23.164  1.00  0.00    -0.321 N 
ATOM     13  HN  UNL     1       3.231  -5.616  22.611  1.00  0.00     0.169 HD
BRANCH  12  14
HETATM   14  C   UNL     1       1.958  -7.081  22.920  1.00  0.00     0.056 A 
HETATM   15  C   UNL     1       1.565  -8.045  22.230  1.00  0.00     0.117 A 
HETATM   16  N   UNL     1       0.700  -8.871  21.756  1.00  0.00    -0.373 N 
HETATM   17  C   UNL     1      -0.304  -8.365  22.433  1.00  0.00     0.088 A 
ATOM     18  HN  UNL     1       0.770  -9.643  21.093  1.00  0.00     0.164 HD
HETATM   19  C   UNL     1      -0.357  -7.423  23.225  1.00  0.00     0.026 A 
HETATM   20  C   UNL     1       0.586  -6.616  23.651  1.00  0.00    -0.033 A 
HETATM   21  C   UNL     1       0.557  -5.410  24.667  1.00  0.00     0.050 C 
ENDBRANCH  12  14
ENDBRANCH   9  10
BRANCH   1  22
HETATM   22  N   UNL     1       7.216  -5.741  27.572  1.00  0.00    -0.295 N 
ATOM     23  HN  UNL     1       8.158  -5.427  27.805  1.00  0.00     0.177 HD
BRANCH  22  24
HETATM   24  S   UNL     1       6.332  -6.289  28.843  1.00  0.00     0.226 S 
HETATM   25  C   UNL     1       4.838  -6.571  28.319  1.00  0.00     0.186 C 
HETATM   26  O   UNL     1       6.916  -7.502  29.349  1.00  0.00    -0.206 OA
HETATM   27  O   UNL     1       6.312  -5.298  29.897  1.00  0.00    -0.206 OA
ENDBRANCH  22  24
ENDBRANCH   1  22
TORSDOF 4
ENDMDL
MODEL 7
REMARK VINA RESULT:    -6.732      3.218      5.452
REMARK INTER + INTRA:          -9.032
REMARK INTER:                  -8.344
REMARK INTRA:                  -0.688
REMARK UNBOUND:                -0.726
REMARK  4 active torsions:
REMARK  status: ('A' for Active; 'I' for Inactive)
REMARK    1  A    between atoms: S_2  and  N_5 
REMARK    2  A    between atoms: N_5  and  C_7 
REMARK    3  A    between atoms: C_15  and  C_16 
REMARK       I    between atoms: C_16  and  N_18 
REMARK    4  A    between atoms: N_18  and  C_20 
ROOT
HETATM    1  C   UNL     1       5.864  -4.264  26.584  1.00  0.00     0.109 C 
HETATM    2  C   UNL     1       6.380  -3.835  25.508  1.00  0.00    -0.008 A 
HETATM    3  C   UNL     1       6.712  -4.028  24.283  1.00  0.00     0.058 A 
HETATM    4  C   UNL     1       7.594  -5.224  23.592  1.00  0.00    -0.003 C 
HETATM    5  C   UNL     1       7.366  -5.640  22.581  1.00  0.00    -0.002 C 
HETATM    6  C   UNL     1       6.361  -5.417  21.679  1.00  0.00    -0.001 C 
HETATM    7  C   UNL     1       5.392  -4.473  22.220  1.00  0.00    -0.002 C 
HETATM    8  C   UNL     1       5.355  -3.985  23.100  1.00  0.00    -0.003 C 
HETATM    9  C   UNL     1       7.192  -2.958  24.213  1.00  0.00     0.040 A 
ENDROOT
BRANCH   9  10
HETATM   10  C   UNL     1       7.793  -1.751  24.055  1.00  0.00     0.254 C 
HETATM   11  O   UNL     1       7.908  -1.116  25.003  1.00  0.00    -0.268 OA
HETATM   12  N   UNL     1       8.107  -1.502  22.817  1.00  0.00    -0.321 N 
ATOM     13  HN  UNL     1       7.866  -2.180  22.094  1.00  0.00     0.169 HD
BRANCH  12  14
HETATM   14  C   UNL     1       8.699  -0.446  22.494  1.00  0.00     0.056 A 
HETATM   15  C   UNL     1       8.439   0.721  22.131  1.00  0.00     0.117 A 
HETATM   16  N   UNL     1       8.714   1.917  21.745  1.00  0.00    -0.373 N 
HETATM   17  C   UNL     1      10.013   1.743  21.798  1.00  0.00     0.088 A 
ATOM     18  HN  UNL     1       8.131   2.714  21.489  1.00  0.00     0.164 HD
HETATM   19  C   UNL     1      10.689   0.761  22.105  1.00  0.00     0.026 A 
HETATM   20  C   UNL     1      10.322  -0.440  22.485  1.00  0.00    -0.033 A 
HETATM   21  C   UNL     1      11.156  -1.715  22.894  1.00  0.00     0.050 C 
ENDBRANCH  12  14
ENDBRANCH   9  10
BRANCH   1  22
HETATM   22  N   UNL     1       5.772  -4.387  27.747  1.00  0.00    -0.295 N 
ATOM     23  HN  UNL     1       5.379  -3.583  28.236  1.00  0.00     0.177 HD
BRANCH  22  24
HETATM   24  S   UNL     1       6.177  -5.656  28.708  1.00  0.00     0.226 S 
HETATM   25  C   UNL     1       5.038  -6.780  28.547  1.00  0.00     0.186 C 
HETATM   26  O   UNL     1       7.452  -6.182  28.300  1.00  0.00    -0.206 OA
HETATM   27  O   UNL     1       6.263  -5.226  30.087  1.00  0.00    -0.206 OA
ENDBRANCH  22  24
ENDBRANCH   1  22
TORSDOF 4
ENDMDL
MODEL 8
REMARK VINA RESULT:    -6.596      4.125      6.864
REMARK INTER + INTRA:          -8.865
REMARK INTER:                  -8.073
REMARK INTRA:                  -0.793
REMARK UNBOUND:                -0.726
REMARK  4 active torsions:
REMARK  status: ('A' for Active; 'I' for Inactive)
REMARK    1  A    between atoms: S_2  and  N_5 
REMARK    2  A    between atoms: N_5  and  C_7 
REMARK    3  A    between atoms: C_15  and  C_16 
REMARK       I    between atoms: C_16  and  N_18 
REMARK    4  A    between atoms: N_18  and  C_20 
ROOT
HETATM    1  C   UNL     1       5.585  -5.064  28.069  1.00  0.00     0.109 C 
HETATM    2  C   UNL     1       5.811  -4.936  26.829  1.00  0.00    -0.008 A 
HETATM    3  C   UNL     1       5.445  -5.109  25.610  1.00  0.00     0.058 A 
HETATM    4  C   UNL     1       4.949  -6.461  24.828  1.00  0.00    -0.003 C 
HETATM    5  C   UNL     1       4.152  -6.451  24.046  1.00  0.00    -0.002 C 
HETATM    6  C   UNL     1       3.328  -5.474  23.556  1.00  0.00    -0.001 C 
HETATM    7  C   UNL     1       3.544  -4.222  24.271  1.00  0.00    -0.002 C 
HETATM    8  C   UNL     1       4.172  -3.981  25.019  1.00  0.00    -0.003 C 
HETATM    9  C   UNL     1       6.449  -4.649  25.211  1.00  0.00     0.040 A 
ENDROOT
BRANCH   9  10
HETATM   10  C   UNL     1       7.591  -4.157  24.666  1.00  0.00     0.254 C 
HETATM   11  O   UNL     1       8.495  -4.861  24.665  1.00  0.00    -0.268 OA
HETATM   12  N   UNL     1       7.468  -2.925  24.263  1.00  0.00    -0.321 N 
ATOM     13  HN  UNL     1       6.582  -2.439  24.405  1.00  0.00     0.169 HD
BRANCH  12  14
HETATM   14  C   UNL     1       8.415  -2.324  23.705  1.00  0.00     0.056 A 
HETATM   15  C   UNL     1       8.955  -2.229  22.582  1.00  0.00     0.117 A 
HETATM   16  N   UNL     1       9.823  -1.806  21.731  1.00  0.00    -0.373 N 
HETATM   17  C   UNL     1      10.447  -1.042  22.596  1.00  0.00     0.088 A 
ATOM     18  HN  UNL     1       9.971  -1.997  20.740  1.00  0.00     0.164 HD
HETATM   19  C   UNL     1      10.247  -0.839  23.794  1.00  0.00     0.026 A 
HETATM   20  C   UNL     1       9.331  -1.326  24.598  1.00  0.00    -0.033 A 
HETATM   21  C   UNL     1       9.038  -1.082  26.129  1.00  0.00     0.050 C 
ENDBRANCH  12  14
ENDBRANCH   9  10
BRANCH   1  22
HETATM   22  N   UNL     1       5.869  -5.271  29.189  1.00  0.00    -0.295 N 
ATOM     23  HN  UNL     1       6.152  -4.448  29.721  1.00  0.00     0.177 HD
BRANCH  22  24
HETATM   24  S   UNL     1       5.879  -6.681  30.031  1.00  0.00     0.226 S 
HETATM   25  C   UNL     1       6.314  -6.348  31.543  1.00  0.00     0.186 C 
HETATM   26  O   UNL     1       4.564  -7.263  30.012  1.00  0.00    -0.206 OA
HETATM   27  O   UNL     1       6.816  -7.609  29.436  1.00  0.00    -0.206 OA
ENDBRANCH  22  24
ENDBRANCH   1  22
TORSDOF 4
ENDMDL
MODEL 9
REMARK VINA RESULT:    -6.452      3.140      3.682
REMARK INTER + INTRA:          -8.687
REMARK INTER:                  -8.005
REMARK INTRA:                  -0.682
REMARK UNBOUND:                -0.726
REMARK  4 active torsions:
REMARK  status: ('A' for Active; 'I' for Inactive)
REMARK    1  A    between atoms: S_2  and  N_5 
REMARK    2  A    between atoms: N_5  and  C_7 
REMARK    3  A    between atoms: C_15  and  C_16 
REMARK       I    between atoms: C_16  and  N_18 
REMARK    4  A    between atoms: N_18  and  C_20 
ROOT
HETATM    1  C   UNL     1       8.614  -1.989  25.151  1.00  0.00     0.109 C 
HETATM    2  C   UNL     1       9.240  -1.109  24.488  1.00  0.00    -0.008 A 
HETATM    3  C   UNL     1      10.350  -0.585  24.110  1.00  0.00     0.058 A 
HETATM    4  C   UNL     1      11.635  -0.062  24.983  1.00  0.00    -0.003 C 
HETATM    5  C   UNL     1      12.690  -0.175  24.636  1.00  0.00    -0.002 C 
HETATM    6  C   UNL     1      13.262  -0.779  23.548  1.00  0.00    -0.001 C 
HETATM    7  C   UNL     1      12.244  -1.436  22.738  1.00  0.00    -0.002 C 
HETATM    8  C   UNL     1      11.246  -1.503  22.846  1.00  0.00    -0.003 C 
HETATM    9  C   UNL     1       9.785   0.255  23.513  1.00  0.00     0.040 A 
ENDROOT
BRANCH   9  10
HETATM   10  C   UNL     1       9.213   1.274  22.822  1.00  0.00     0.254 C 
HETATM   11  O   UNL     1       9.435   1.310  21.698  1.00  0.00    -0.268 OA
HETATM   12  N   UNL     1       8.526   2.076  23.583  1.00  0.00    -0.321 N 
ATOM     13  HN  UNL     1       8.494   1.906  24.588  1.00  0.00     0.169 HD
BRANCH  12  14
HETATM   14  C   UNL     1       7.903   3.053  23.106  1.00  0.00     0.056 A 
HETATM   15  C   UNL     1       6.877   3.296  22.437  1.00  0.00     0.117 A 
HETATM   16  N   UNL     1       6.031   4.042  21.818  1.00  0.00    -0.373 N 
HETATM   17  C   UNL     1       6.654   5.160  22.105  1.00  0.00     0.088 A 
ATOM     18  HN  UNL     1       5.180   3.837  21.293  1.00  0.00     0.164 HD
HETATM   19  C   UNL     1       7.688   5.375  22.738  1.00  0.00     0.026 A 
HETATM   20  C   UNL     1       8.507   4.542  23.338  1.00  0.00    -0.033 A 
HETATM   21  C   UNL     1       9.830   4.779  24.163  1.00  0.00     0.050 C 
ENDBRANCH  12  14
ENDBRANCH   9  10
BRANCH   1  22
HETATM   22  N   UNL     1       7.748  -2.398  25.827  1.00  0.00    -0.295 N 
ATOM     23  HN  UNL     1       7.053  -1.704  26.106  1.00  0.00     0.177 HD
BRANCH  22  24
HETATM   24  S   UNL     1       7.480  -3.915  26.396  1.00  0.00     0.226 S 
HETATM   25  C   UNL     1       7.137  -4.859  25.140  1.00  0.00     0.186 C 
HETATM   26  O   UNL     1       8.659  -4.394  27.067  1.00  0.00    -0.206 OA
HETATM   27  O   UNL     1       6.375  -3.908  27.331  1.00  0.00    -0.206 OA
ENDBRANCH  22  24
ENDBRANCH   1  22
TORSDOF 4
ENDMDL
