REMARK  4 active torsions:
REMARK  status: ('A' for Active; 'I' for Inactive)
REMARK    1  A    between atoms: S_2  and  N_5 
REMARK    2  A    between atoms: N_5  and  C_7 
REMARK    3  A    between atoms: C_15  and  C_16 
REMARK       I    between atoms: C_16  and  N_18 
REMARK    4  A    between atoms: N_18  and  C_20 
ROOT
HETATM    1  C   UNL     1       8.961  -2.944  24.140  1.00  0.00     0.109 C 
HETATM    2  C   UNL     1       9.413  -1.964  23.476  1.00  0.00    -0.008 A 
HETATM    3  C   UNL     1      10.331  -1.089  23.274  1.00  0.00     0.058 A 
HETATM    4  C   UNL     1      11.025  -0.015  24.299  1.00  0.00    -0.003 C 
HETATM    5  C   UNL     1      12.106   0.260  24.249  1.00  0.00    -0.002 C 
HETATM    6  C   UNL     1      13.153  -0.182  23.486  1.00  0.00    -0.001 C 
HETATM    7  C   UNL     1      12.724  -1.267  22.613  1.00  0.00    -0.002 C 
HETATM    8  C   UNL     1      11.828  -1.709  22.489  1.00  0.00    -0.003 C 
HETATM    9  C   UNL     1       9.720  -0.607  22.394  1.00  0.00     0.040 A 
ENDROOT
BRANCH   9  10
HETATM   10  C   UNL     1       9.069   0.027  21.385  1.00  0.00     0.254 C 
HETATM   11  O   UNL     1       9.576   0.967  20.969  1.00  0.00    -0.268 OA
HETATM   12  N   UNL     1       7.935  -0.536  21.084  1.00  0.00    -0.321 N 
ATOM     13  HN  UNL     1       7.623  -1.348  21.617  1.00  0.00     0.169 HD
BRANCH  12  14
HETATM   14  C   UNL     1       7.218  -0.101  20.153  1.00  0.00     0.056 A 
HETATM   15  C   UNL     1       7.224  -0.009  18.907  1.00  0.00     0.117 A 
HETATM   16  N   UNL     1       6.764   0.332  17.755  1.00  0.00    -0.373 N 
HETATM   17  C   UNL     1       5.666   0.863  18.239  1.00  0.00     0.088 A 
ATOM     18  HN  UNL     1       7.124   0.227  16.806  1.00  0.00     0.164 HD
HETATM   19  C   UNL     1       5.262   0.981  19.396  1.00  0.00     0.026 A 
HETATM   20  C   UNL     1       5.807   0.607  20.530  1.00  0.00    -0.033 A 
HETATM   21  C   UNL     1       5.317   0.732  22.024  1.00  0.00     0.050 C 
ENDBRANCH  12  14
ENDBRANCH   9  10
BRANCH   1  22
HETATM   22  N   UNL     1       8.128  -3.587  24.659  1.00  0.00    -0.295 N 
ATOM     23  HN  UNL     1       7.269  -3.697  24.119  1.00  0.00     0.177 HD
BRANCH  22  24
HETATM   24  S   UNL     1       8.131  -4.337  26.120  1.00  0.00     0.226 S 
HETATM   25  C   UNL     1       6.627  -4.814  26.432  1.00  0.00     0.186 C 
HETATM   26  O   UNL     1       9.011  -5.474  26.076  1.00  0.00    -0.206 OA
HETATM   27  O   UNL     1       8.588  -3.425  27.146  1.00  0.00    -0.206 OA
ENDBRANCH  22  24
ENDBRANCH   1  22
TORSDOF 4
