
 OpenBabel07202414123D

 60 63  0  0  0  0  0  0  0  0999 V2000
    2.8176    4.4250    3.7410 C   0  0  0  0  0  0  0  0  0  0  0  0
    4.0472    4.4788    2.8217 C   0  0  0  0  0  0  0  0  0  0  0  0
    3.6839    4.8742    1.3868 C   0  0  0  0  0  0  0  0  0  0  0  0
    4.9948    5.5489    3.3952 C   0  0  0  0  0  0  0  0  0  0  0  0
    4.7886    3.2239    2.8222 O   0  0  0  0  0  0  0  0  0  0  0  0
    4.1681    2.0598    2.4737 C   0  0  0  0  0  0  0  0  0  0  0  0
    2.9905    1.9902    2.1208 O   0  0  0  0  0  0  0  0  0  0  0  0
    4.9586    0.9168    2.6385 N   0  0  0  0  0  0  0  0  0  0  0  0
    4.2928   -0.4231    2.7889 C   0  0  0  0  0  0  0  0  0  0  0  0
    5.0630   -1.6378    2.2178 C   0  0  0  0  0  0  0  0  0  0  0  0
    3.8082   -2.1641    1.6527 N   0  0  0  0  0  0  0  0  0  0  0  0
    3.2185   -0.8105    1.7363 C   0  0  0  0  0  0  0  0  0  0  0  0
    6.3485    1.0222    2.9359 C   0  0  0  0  0  0  0  0  0  0  0  0
    7.1971    1.7167    2.0590 C   0  0  0  0  0  0  0  0  0  0  0  0
    8.5783    1.7808    2.3021 C   0  0  0  0  0  0  0  0  0  0  0  0
    9.5048    2.4733    1.3288 C   0  0  0  0  0  0  0  0  0  0  0  0
   10.1839    1.6056    0.2770 C   0  0  0  0  0  0  0  0  0  0  0  0
   11.0944    2.0762   -0.4055 O   0  0  0  0  0  0  0  0  0  0  0  0
    9.6720    0.3361    0.0960 N   0  0  0  0  0  0  0  0  0  0  0  0
   10.1891   -0.5689   -0.8632 C   0  0  0  0  0  0  0  0  0  0  0  0
   11.5647   -0.7593   -1.0075 C   0  0  0  0  0  0  0  0  0  0  0  0
   12.1283   -1.6415   -1.8631 N   0  0  0  0  0  0  0  0  0  0  0  0
   11.2772   -2.3440   -2.6414 C   0  0  0  0  0  0  0  0  0  0  0  0
    9.8852   -2.2260   -2.6078 C   0  0  0  0  0  0  0  0  0  0  0  0
    9.0608   -2.9596   -3.4800 C   0  0  0  0  0  0  0  0  0  0  0  0
    7.6768   -2.7947   -3.4588 C   0  0  0  0  0  0  0  0  0  0  0  0
    7.1005   -1.8998   -2.5667 C   0  0  0  0  0  0  0  0  0  0  0  0
    7.9070   -1.1731   -1.6893 C   0  0  0  0  0  0  0  0  0  0  0  0
    9.3158   -1.3208   -1.6834 C   0  0  0  0  0  0  0  0  0  0  0  0
    9.0920    1.1744    3.4562 C   0  0  0  0  0  0  0  0  0  0  0  0
    8.2405    0.5044    4.3341 C   0  0  0  0  0  0  0  0  0  0  0  0
    8.8760   -0.1893    5.7746 Cl  0  0  0  0  0  0  0  0  0  0  0  0
    6.8784    0.4004    4.0650 C   0  0  0  0  0  0  0  0  0  0  0  0
    2.3102    5.3953    3.7795 H   0  0  0  0  0  0  0  0  0  0  0  0
    3.1100    4.1468    4.7596 H   0  0  0  0  0  0  0  0  0  0  0  0
    2.0772    3.6898    3.4179 H   0  0  0  0  0  0  0  0  0  0  0  0
    3.1779    5.8448    1.3545 H   0  0  0  0  0  0  0  0  0  0  0  0
    3.0277    4.1394    0.9125 H   0  0  0  0  0  0  0  0  0  0  0  0
    4.5849    4.9324    0.7646 H   0  0  0  0  0  0  0  0  0  0  0  0
    4.5167    6.5356    3.4148 H   0  0  0  0  0  0  0  0  0  0  0  0
    5.9160    5.6262    2.8062 H   0  0  0  0  0  0  0  0  0  0  0  0
    5.2981    5.2996    4.4184 H   0  0  0  0  0  0  0  0  0  0  0  0
    3.9362   -0.5712    3.8172 H   0  0  0  0  0  0  0  0  0  0  0  0
    5.5264   -2.2873    2.9665 H   0  0  0  0  0  0  0  0  0  0  0  0
    5.8085   -1.4078    1.4474 H   0  0  0  0  0  0  0  0  0  0  0  0
    3.3425   -2.8518    2.2457 H   0  0  0  0  0  0  0  0  0  0  0  0
    2.1841   -0.8034    2.0988 H   0  0  0  0  0  0  0  0  0  0  0  0
    3.2565   -0.2752    0.7819 H   0  0  0  0  0  0  0  0  0  0  0  0
    6.7840    2.1796    1.1627 H   0  0  0  0  0  0  0  0  0  0  0  0
   10.3052    2.9614    1.8992 H   0  0  0  0  0  0  0  0  0  0  0  0
    8.9597    3.2687    0.8065 H   0  0  0  0  0  0  0  0  0  0  0  0
    8.7297    0.1668    0.4188 H   0  0  0  0  0  0  0  0  0  0  0  0
   12.2785   -0.2195   -0.3897 H   0  0  0  0  0  0  0  0  0  0  0  0
   11.7672   -3.0250   -3.3339 H   0  0  0  0  0  0  0  0  0  0  0  0
    9.4964   -3.6525   -4.1972 H   0  0  0  0  0  0  0  0  0  0  0  0
    7.0496   -3.3548   -4.1471 H   0  0  0  0  0  0  0  0  0  0  0  0
    6.0234   -1.7525   -2.5585 H   0  0  0  0  0  0  0  0  0  0  0  0
    7.4124   -0.4605   -1.0369 H   0  0  0  0  0  0  0  0  0  0  0  0
   10.1565    1.2318    3.6786 H   0  0  0  0  0  0  0  0  0  0  0  0
    6.2317   -0.1184    4.7668 H   0  0  0  0  0  0  0  0  0  0  0  0
  1  2  1  0  0  0  0
  1 34  1  0  0  0  0
  1 35  1  0  0  0  0
  1 36  1  0  0  0  0
  2  3  1  0  0  0  0
  2  4  1  0  0  0  0
  2  5  1  0  0  0  0
  3 37  1  0  0  0  0
  3 38  1  0  0  0  0
  3 39  1  0  0  0  0
  4 40  1  0  0  0  0
  4 41  1  0  0  0  0
  4 42  1  0  0  0  0
  5  6  1  0  0  0  0
  6  7  2  0  0  0  0
  6  8  1  0  0  0  0
  8  9  1  0  0  0  0
  8 13  1  0  0  0  0
  9 10  1  0  0  0  0
  9 12  1  0  0  0  0
  9 43  1  0  0  0  0
 10 11  1  0  0  0  0
 10 44  1  0  0  0  0
 10 45  1  0  0  0  0
 11 12  1  0  0  0  0
 11 46  1  0  0  0  0
 12 47  1  0  0  0  0
 12 48  1  0  0  0  0
 13 14  2  0  0  0  0
 13 33  1  0  0  0  0
 14 15  1  0  0  0  0
 14 49  1  0  0  0  0
 15 16  1  0  0  0  0
 15 30  2  0  0  0  0
 16 17  1  0  0  0  0
 16 50  1  0  0  0  0
 16 51  1  0  0  0  0
 17 18  2  0  0  0  0
 17 19  1  0  0  0  0
 19 20  1  0  0  0  0
 19 52  1  0  0  0  0
 20 21  2  0  0  0  0
 20 29  1  0  0  0  0
 21 22  1  0  0  0  0
 21 53  1  0  0  0  0
 22 23  2  0  0  0  0
 23 24  1  0  0  0  0
 23 54  1  0  0  0  0
 24 25  2  0  0  0  0
 24 29  1  0  0  0  0
 25 26  1  0  0  0  0
 25 55  1  0  0  0  0
 26 27  2  0  0  0  0
 26 56  1  0  0  0  0
 27 28  1  0  0  0  0
 27 57  1  0  0  0  0
 28 29  2  0  0  0  0
 28 58  1  0  0  0  0
 30 31  1  0  0  0  0
 30 59  1  0  0  0  0
 31 32  1  0  0  0  0
 31 33  2  0  0  0  0
 33 60  1  0  0  0  0
M  END
$$$$
