stable:False satoms:20 tatoms:24 sratio:0.8333333333333334
  -OEChem-07092417313D

 24 23  0     0  0  0  0  0  0999 V2000
   10.2433   -1.8689   24.7935 H   0  0  0  0  0  0  0  0  0  0  0  0
    7.0176   -3.3727   22.9001 O   0  0  0  0  0  0  0  0  0  0  0  0
    8.2004   -1.7626   24.1300 H   0  0  0  0  0  0  0  0  0  0  0  0
    7.8310   -1.3324   23.2899 N   0  0  0  0  0  0  0  0  0  0  0  0
    9.8791   -3.5099   24.1705 H   0  0  0  0  0  0  0  0  0  0  0  0
    7.0308   -2.2066   22.5737 C   0  0  0  0  0  0  0  0  0  0  0  0
    9.5394   -2.4397   21.9674 H   0  0  0  0  0  0  0  0  0  0  0  0
   11.2970   -1.3255   22.1808 O   0  0  0  0  0  0  0  0  0  0  0  0
   10.1795   -2.5069   23.9443 C   0  0  0  0  0  0  0  0  0  0  0  0
    8.2504   -0.1223   22.6549 C   0  3  0  0  0  0  0  0  0  0  0  0
   13.0284   -1.6270   23.6529 O   0  0  0  0  0  0  0  0  0  0  0  0
   11.9077    0.0864   23.5615 H   0  0  0  0  0  0  0  0  0  0  0  0
   12.6021   -2.4703   23.9582 H   0  0  0  0  0  0  0  0  0  0  0  0
   12.0416   -0.9081   23.1899 C   0  3  0  0  0  0  0  0  0  0  0  0
   10.2754   -2.1078   22.6639 C   0  0  0  0  0  0  0  0  0  0  0  0
    7.6375    0.8556   21.8487 C   0  0  0  0  0  0  0  0  0  0  0  0
    6.1646   -1.6516   21.4550 C   0  0  0  0  0  0  0  0  0  0  0  0
    9.2541    0.0898   22.9078 H   0  0  0  0  0  0  0  0  0  0  0  0
    5.5588   -2.4701   21.1096 H   0  0  0  0  0  0  0  0  0  0  0  0
    5.8765   -0.4356   20.7960 C   0  0  0  0  0  0  0  0  0  0  0  0
    6.1592    1.6407   20.4686 H   0  0  0  0  0  0  0  0  0  0  0  0
    6.5298    0.7696   20.9798 C   0  0  0  0  0  0  0  0  0  0  0  0
    5.0069   -0.4387   20.1802 H   0  0  0  0  0  0  0  0  0  0  0  0
    8.0732    1.8243   21.9197 H   0  0  0  0  0  0  0  0  0  0  0  0
 20 23  1  0  0  0  0
 21 22  1  0  0  0  0
 20 22  1  0  0  0  0
 17 20  2  0  0  0  0
 16 22  2  0  0  0  0
 17 19  1  0  0  0  0
  6 17  1  0  0  0  0
 16 24  1  0  0  0  0
 10 16  1  0  0  0  0
  7 15  1  0  0  0  0
  8 15  1  0  0  0  0
  8 14  1  0  0  0  0
  2  6  2  0  0  0  0
  4  6  1  0  0  0  0
 10 18  1  0  0  0  0
  4 10  1  0  0  0  0
  9 15  2  0  0  0  0
 12 14  1  0  0  0  0
 11 14  1  0  0  0  0
  3  4  1  0  0  0  0
 11 13  1  0  0  0  0
  5  9  1  0  0  0  0
  1  9  1  0  0  0  0
M  CHG  2  10   1  14   1
M  END
> <Shapegauss>
-119.175674

$$$$
