REMARK  3 active torsions:
REMARK  status: ('A' for Active; 'I' for Inactive)
REMARK    1  A    between atoms: O_1  and  C_6 
REMARK    2  A    between atoms: O_1  and  C_5 
REMARK    3  A    between atoms: O_3  and  C_5 
ROOT
HETATM    1  O   UNL     1      11.297  -1.325  22.181  1.00  0.00    -0.339 OA
ENDROOT
BRANCH   1   2
HETATM    2  C   UNL     1      10.275  -2.108  22.664  1.00  0.00     0.127 C 
HETATM    3  C   UNL     1      10.180  -2.507  23.944  1.00  0.00     0.037 C 
ENDBRANCH   1   2
BRANCH   1   4
HETATM    4  C   UNL     1      12.042  -0.908  23.190  1.00  0.00     0.340 C 
BRANCH   4   5
HETATM    5  O   UNL     1      13.028  -1.627  23.653  1.00  0.00    -0.377 OA
HETATM    6  H   UNL     1      12.602  -2.470  23.958  1.00  0.00     0.212 HD
ENDBRANCH   4   5
ENDBRANCH   1   4
TORSDOF 3
