MODEL 1
REMARK VINA RESULT:    -4.041      0.000      0.000
REMARK INTER + INTRA:          -4.682
REMARK INTER:                  -4.631
REMARK INTRA:                  -0.050
REMARK UNBOUND:                -0.050
REMARK  3 active torsions:
REMARK  status: ('A' for Active; 'I' for Inactive)
REMARK    1  A    between atoms: C_1  and  C_7 
REMARK    2  A    between atoms: C_1  and  N_4 
REMARK    3  A    between atoms: C_2  and  C_7 
ROOT
HETATM    1  C   UNL     1       8.380  13.507   3.655  1.00  0.00     0.100 C 
HETATM    2  H   UNL     1       9.512  11.743   3.603  1.00  0.00     0.155 HD
HETATM    3  C   UNL     1       6.914  13.668   3.145  1.00  0.00     0.140 C 
HETATM    4  C   UNL     1       7.486  11.397   2.950  1.00  0.00     0.233 C 
HETATM    5  N   UNL     1       8.595  12.115   3.440  1.00  0.00    -0.400 N 
HETATM    6  N   UNL     1       6.426  12.349   3.013  1.00  0.00    -0.404 N 
HETATM    7  H   UNL     1       5.478  12.041   2.997  1.00  0.00     0.154 HD
ENDROOT
BRANCH   1   8
HETATM    8  C   UNL     1       9.619  14.261   3.058  1.00  0.00     0.033 C 
HETATM    9  C   UNL     1       9.402  15.078   1.780  1.00  0.00     0.014 C 
BRANCH   8  10
HETATM   10  C   UNL     1      10.278  15.150   4.119  1.00  0.00     0.273 C 
BRANCH  10  11
HETATM   11  N   UNL     1      11.716  14.939   4.158  1.00  0.00     0.078 N 
HETATM   12  H   UNL     1      12.189  15.834   4.149  1.00  0.00     0.312 HD
HETATM   13  H   UNL     1      12.068  14.377   3.410  1.00  0.00     0.312 HD
ENDBRANCH  10  11
ENDBRANCH   8  10
ENDBRANCH   1   8
TORSDOF 3
ENDMDL
MODEL 2
REMARK VINA RESULT:    -3.934     31.741     33.197
REMARK INTER + INTRA:          -4.559
REMARK INTER:                  -4.478
REMARK INTRA:                  -0.081
REMARK UNBOUND:                -0.050
REMARK  3 active torsions:
REMARK  status: ('A' for Active; 'I' for Inactive)
REMARK    1  A    between atoms: C_1  and  C_7 
REMARK    2  A    between atoms: C_1  and  N_4 
REMARK    3  A    between atoms: C_2  and  C_7 
ROOT
HETATM    1  C   UNL     1       1.817 -18.041   8.423  1.00  0.00     0.100 C 
HETATM    2  H   UNL     1       1.893 -16.816  10.122  1.00  0.00     0.155 HD
HETATM    3  C   UNL     1       0.707 -18.015   7.325  1.00  0.00     0.140 C 
HETATM    4  C   UNL     1       0.261 -16.262   8.826  1.00  0.00     0.233 C 
HETATM    5  N   UNL     1       1.397 -16.972   9.264  1.00  0.00    -0.400 N 
HETATM    6  N   UNL     1       0.026 -16.794   7.523  1.00  0.00    -0.404 N 
HETATM    7  H   UNL     1      -0.534 -16.287   6.872  1.00  0.00     0.154 HD
ENDROOT
BRANCH   1   8
HETATM    8  C   UNL     1       2.122 -19.266   9.353  1.00  0.00     0.033 C 
HETATM    9  C   UNL     1       1.154 -20.453   9.301  1.00  0.00     0.014 C 
BRANCH   8  10
HETATM   10  C   UNL     1       3.553 -19.772   9.134  1.00  0.00     0.273 C 
BRANCH  10  11
HETATM   11  N   UNL     1       4.502 -18.671   9.133  1.00  0.00     0.078 N 
HETATM   12  H   UNL     1       4.386 -18.125   9.977  1.00  0.00     0.312 HD
HETATM   13  H   UNL     1       4.428 -18.067   8.341  1.00  0.00     0.312 HD
ENDBRANCH  10  11
ENDBRANCH   8  10
ENDBRANCH   1   8
TORSDOF 3
ENDMDL
MODEL 3
REMARK VINA RESULT:    -3.896     33.339     35.532
REMARK INTER + INTRA:          -4.516
REMARK INTER:                  -4.435
REMARK INTRA:                  -0.081
REMARK UNBOUND:                -0.050
REMARK  3 active torsions:
REMARK  status: ('A' for Active; 'I' for Inactive)
REMARK    1  A    between atoms: C_1  and  C_7 
REMARK    2  A    between atoms: C_1  and  N_4 
REMARK    3  A    between atoms: C_2  and  C_7 
ROOT
HETATM    1  C   UNL     1       2.429 -20.456   9.172  1.00  0.00     0.100 C 
HETATM    2  H   UNL     1       0.646 -20.027   8.157  1.00  0.00     0.155 HD
HETATM    3  C   UNL     1       3.695 -19.544   9.221  1.00  0.00     0.140 C 
HETATM    4  C   UNL     1       2.019 -18.367   8.068  1.00  0.00     0.233 C 
HETATM    5  N   UNL     1       1.533 -19.641   8.422  1.00  0.00    -0.400 N 
HETATM    6  N   UNL     1       3.251 -18.277   8.782  1.00  0.00    -0.404 N 
HETATM    7  H   UNL     1       3.669 -17.387   8.945  1.00  0.00     0.154 HD
ENDROOT
BRANCH   1   8
HETATM    8  C   UNL     1       2.388 -21.890   8.538  1.00  0.00     0.033 C 
HETATM    9  C   UNL     1       3.555 -22.297   7.633  1.00  0.00     0.014 C 
BRANCH   8  10
HETATM   10  C   UNL     1       2.192 -22.958   9.621  1.00  0.00     0.273 C 
BRANCH  10  11
HETATM   11  N   UNL     1       0.861 -22.875  10.201  1.00  0.00     0.078 N 
HETATM   12  H   UNL     1       0.642 -23.745  10.669  1.00  0.00     0.312 HD
HETATM   13  H   UNL     1       0.139 -22.669   9.542  1.00  0.00     0.312 HD
ENDBRANCH  10  11
ENDBRANCH   8  10
ENDBRANCH   1   8
TORSDOF 3
ENDMDL
MODEL 4
REMARK VINA RESULT:    -3.792     23.642     24.538
REMARK INTER + INTRA:          -4.396
REMARK INTER:                  -4.262
REMARK INTRA:                  -0.135
REMARK UNBOUND:                -0.050
REMARK  3 active torsions:
REMARK  status: ('A' for Active; 'I' for Inactive)
REMARK    1  A    between atoms: C_1  and  C_7 
REMARK    2  A    between atoms: C_1  and  N_4 
REMARK    3  A    between atoms: C_2  and  C_7 
ROOT
HETATM    1  C   UNL     1      10.966  -0.568  23.859  1.00  0.00     0.100 C 
HETATM    2  H   UNL     1      11.999   0.657  25.211  1.00  0.00     0.155 HD
HETATM    3  C   UNL     1      11.616  -1.506  22.795  1.00  0.00     0.140 C 
HETATM    4  C   UNL     1      13.353  -0.580  24.078  1.00  0.00     0.233 C 
HETATM    5  N   UNL     1      12.121  -0.059  24.519  1.00  0.00    -0.400 N 
HETATM    6  N   UNL     1      12.966  -1.627  23.190  1.00  0.00    -0.404 N 
HETATM    7  H   UNL     1      13.616  -2.345  22.952  1.00  0.00     0.154 HD
ENDROOT
BRANCH   1   8
HETATM    8  C   UNL     1      10.049   0.660  23.524  1.00  0.00     0.033 C 
HETATM    9  C   UNL     1      10.048   1.832  24.511  1.00  0.00     0.014 C 
BRANCH   8  10
HETATM   10  C   UNL     1      10.340   1.187  22.114  1.00  0.00     0.273 C 
BRANCH  10  11
HETATM   11  N   UNL     1      10.760   2.578  22.153  1.00  0.00     0.078 N 
HETATM   12  H   UNL     1       9.945   3.178  22.144  1.00  0.00     0.312 HD
HETATM   13  H   UNL     1      11.368   2.844  21.406  1.00  0.00     0.312 HD
ENDBRANCH  10  11
ENDBRANCH   8  10
ENDBRANCH   1   8
TORSDOF 3
ENDMDL
MODEL 5
REMARK VINA RESULT:    -3.764     21.846     23.112
REMARK INTER + INTRA:          -4.364
REMARK INTER:                  -4.284
REMARK INTRA:                  -0.080
REMARK UNBOUND:                -0.050
REMARK  3 active torsions:
REMARK  status: ('A' for Active; 'I' for Inactive)
REMARK    1  A    between atoms: C_1  and  C_7 
REMARK    2  A    between atoms: C_1  and  N_4 
REMARK    3  A    between atoms: C_2  and  C_7 
ROOT
HETATM    1  C   UNL     1       6.686  -0.342  20.805  1.00  0.00     0.100 C 
HETATM    2  H   UNL     1       4.764  -1.004  20.291  1.00  0.00     0.155 HD
HETATM    3  C   UNL     1       7.829   0.015  19.803  1.00  0.00     0.140 C 
HETATM    4  C   UNL     1       5.906  -0.471  18.542  1.00  0.00     0.233 C 
HETATM    5  N   UNL     1       5.621  -0.647  19.910  1.00  0.00    -0.400 N 
HETATM    6  N   UNL     1       7.188   0.156  18.553  1.00  0.00    -0.404 N 
HETATM    7  H   UNL     1       7.508   0.649  17.748  1.00  0.00     0.154 HD
ENDROOT
BRANCH   1   8
HETATM    8  C   UNL     1       6.752  -1.506  21.855  1.00  0.00     0.033 C 
HETATM    9  C   UNL     1       5.922  -2.762  21.572  1.00  0.00     0.014 C 
BRANCH   8  10
HETATM   10  C   UNL     1       8.206  -1.912  22.125  1.00  0.00     0.273 C 
BRANCH  10  11
HETATM   11  N   UNL     1       8.293  -3.309  22.519  1.00  0.00     0.078 N 
HETATM   12  H   UNL     1       8.715  -3.376  23.436  1.00  0.00     0.312 HD
HETATM   13  H   UNL     1       8.806  -3.883  21.882  1.00  0.00     0.312 HD
ENDBRANCH  10  11
ENDBRANCH   8  10
ENDBRANCH   1   8
TORSDOF 3
ENDMDL
MODEL 6
REMARK VINA RESULT:    -3.711     20.276     21.489
REMARK INTER + INTRA:          -4.303
REMARK INTER:                  -4.189
REMARK INTRA:                  -0.114
REMARK UNBOUND:                -0.050
REMARK  3 active torsions:
REMARK  status: ('A' for Active; 'I' for Inactive)
REMARK    1  A    between atoms: C_1  and  C_7 
REMARK    2  A    between atoms: C_1  and  N_4 
REMARK    3  A    between atoms: C_2  and  C_7 
ROOT
HETATM    1  C   UNL     1       6.096   0.202  19.553  1.00  0.00     0.100 C 
HETATM    2  H   UNL     1       7.472  -0.109  18.003  1.00  0.00     0.155 HD
HETATM    3  C   UNL     1       5.029   1.340  19.615  1.00  0.00     0.140 C 
HETATM    4  C   UNL     1       6.096   1.481  17.526  1.00  0.00     0.233 C 
HETATM    5  N   UNL     1       6.676   0.437  18.274  1.00  0.00    -0.400 N 
HETATM    6  N   UNL     1       4.950   1.838  18.296  1.00  0.00    -0.404 N 
HETATM    7  H   UNL     1       4.204   2.347  17.873  1.00  0.00     0.154 HD
ENDROOT
BRANCH   1   8
HETATM    8  C   UNL     1       7.278   0.032  20.570  1.00  0.00     0.033 C 
HETATM    9  C   UNL     1       7.743   1.280  21.329  1.00  0.00     0.014 C 
BRANCH   8  10
HETATM   10  C   UNL     1       6.975  -1.086  21.575  1.00  0.00     0.273 C 
BRANCH  10  11
HETATM   11  N   UNL     1       5.832  -1.877  21.147  1.00  0.00     0.078 N 
HETATM   12  H   UNL     1       5.250  -2.091  21.947  1.00  0.00     0.312 HD
HETATM   13  H   UNL     1       6.073  -2.727  20.682  1.00  0.00     0.312 HD
ENDBRANCH  10  11
ENDBRANCH   8  10
ENDBRANCH   1   8
TORSDOF 3
ENDMDL
MODEL 7
REMARK VINA RESULT:    -3.696      2.272      3.185
REMARK INTER + INTRA:          -4.286
REMARK INTER:                  -4.187
REMARK INTRA:                  -0.099
REMARK UNBOUND:                -0.050
REMARK  3 active torsions:
REMARK  status: ('A' for Active; 'I' for Inactive)
REMARK    1  A    between atoms: C_1  and  C_7 
REMARK    2  A    between atoms: C_1  and  N_4 
REMARK    3  A    between atoms: C_2  and  C_7 
ROOT
HETATM    1  C   UNL     1       9.018  14.970   1.752  1.00  0.00     0.100 C 
HETATM    2  H   UNL     1       7.224  13.918   1.488  1.00  0.00     0.155 HD
HETATM    3  C   UNL     1      10.081  14.700   2.863  1.00  0.00     0.140 C 
HETATM    4  C   UNL     1       8.428  13.040   3.046  1.00  0.00     0.233 C 
HETATM    5  N   UNL     1       8.079  13.931   2.012  1.00  0.00    -0.400 N 
HETATM    6  N   UNL     1       9.765  13.420   3.368  1.00  0.00    -0.404 N 
HETATM    7  H   UNL     1      10.357  12.788   3.862  1.00  0.00     0.154 HD
ENDROOT
BRANCH   1   8
HETATM    8  C   UNL     1       8.201  16.301   1.605  1.00  0.00     0.033 C 
HETATM    9  C   UNL     1       7.544  16.871   2.867  1.00  0.00     0.014 C 
BRANCH   8  10
HETATM   10  C   UNL     1       9.053  17.392   0.944  1.00  0.00     0.273 C 
BRANCH  10  11
HETATM   11  N   UNL     1       9.719  18.212   1.943  1.00  0.00     0.078 N 
HETATM   12  H   UNL     1       9.043  18.522   2.630  1.00  0.00     0.312 HD
HETATM   13  H   UNL     1      10.193  19.008   1.569  1.00  0.00     0.312 HD
ENDBRANCH  10  11
ENDBRANCH   8  10
ENDBRANCH   1   8
TORSDOF 3
ENDMDL
MODEL 8
REMARK VINA RESULT:    -3.663      1.505      3.802
REMARK INTER + INTRA:          -4.248
REMARK INTER:                  -4.229
REMARK INTRA:                  -0.019
REMARK UNBOUND:                -0.050
REMARK  3 active torsions:
REMARK  status: ('A' for Active; 'I' for Inactive)
REMARK    1  A    between atoms: C_1  and  C_7 
REMARK    2  A    between atoms: C_1  and  N_4 
REMARK    3  A    between atoms: C_2  and  C_7 
ROOT
HETATM    1  C   UNL     1       8.452  13.768   2.451  1.00  0.00     0.100 C 
HETATM    2  H   UNL     1       9.935  12.851   3.614  1.00  0.00     0.155 HD
HETATM    3  C   UNL     1       8.440  15.261   1.995  1.00  0.00     0.140 C 
HETATM    4  C   UNL     1      10.476  14.875   3.105  1.00  0.00     0.233 C 
HETATM    5  N   UNL     1       9.702  13.697   3.130  1.00  0.00    -0.400 N 
HETATM    6  N   UNL     1       9.761  15.717   2.202  1.00  0.00    -0.404 N 
HETATM    7  H   UNL     1      10.218  16.494   1.778  1.00  0.00     0.154 HD
ENDROOT
BRANCH   1   8
HETATM    8  C   UNL     1       7.380  13.115   3.391  1.00  0.00     0.033 C 
HETATM    9  C   UNL     1       5.959  13.688   3.350  1.00  0.00     0.014 C 
BRANCH   8  10
HETATM   10  C   UNL     1       7.318  11.598   3.173  1.00  0.00     0.273 C 
BRANCH  10  11
HETATM   11  N   UNL     1       8.101  10.895   4.176  1.00  0.00     0.078 N 
HETATM   12  H   UNL     1       7.821   9.923   4.203  1.00  0.00     0.312 HD
HETATM   13  H   UNL     1       8.032  11.280   5.095  1.00  0.00     0.312 HD
ENDBRANCH  10  11
ENDBRANCH   8  10
ENDBRANCH   1   8
TORSDOF 3
ENDMDL
MODEL 9
REMARK VINA RESULT:    -3.590     26.584     27.766
REMARK INTER + INTRA:          -4.165
REMARK INTER:                  -4.061
REMARK INTRA:                  -0.104
REMARK UNBOUND:                -0.050
REMARK  3 active torsions:
REMARK  status: ('A' for Active; 'I' for Inactive)
REMARK    1  A    between atoms: C_1  and  C_7 
REMARK    2  A    between atoms: C_1  and  N_4 
REMARK    3  A    between atoms: C_2  and  C_7 
ROOT
HETATM    1  C   UNL     1       7.337  -5.635  23.493  1.00  0.00     0.100 C 
HETATM    2  H   UNL     1       8.485  -5.414  21.753  1.00  0.00     0.155 HD
HETATM    3  C   UNL     1       5.780  -5.718  23.558  1.00  0.00     0.140 C 
HETATM    4  C   UNL     1       6.394  -5.662  21.289  1.00  0.00     0.233 C 
HETATM    5  N   UNL     1       7.551  -5.567  22.087  1.00  0.00    -0.400 N 
HETATM    6  N   UNL     1       5.373  -5.988  22.232  1.00  0.00    -0.404 N 
HETATM    7  H   UNL     1       4.515  -6.389  21.920  1.00  0.00     0.154 HD
ENDROOT
BRANCH   1   8
HETATM    8  C   UNL     1       8.197  -4.496  24.145  1.00  0.00     0.033 C 
HETATM    9  C   UNL     1       8.003  -3.072  23.614  1.00  0.00     0.014 C 
BRANCH   8  10
HETATM   10  C   UNL     1       8.030  -4.494  25.669  1.00  0.00     0.273 C 
BRANCH  10  11
HETATM   11  N   UNL     1       8.542  -5.724  26.252  1.00  0.00     0.078 N 
HETATM   12  H   UNL     1       8.937  -5.527  27.163  1.00  0.00     0.312 HD
HETATM   13  H   UNL     1       9.226  -6.189  25.692  1.00  0.00     0.312 HD
ENDBRANCH  10  11
ENDBRANCH   8  10
ENDBRANCH   1   8
TORSDOF 3
ENDMDL
