stable:False satoms:18 tatoms:24 sratio:0.75
  -OEChem-07092417353D

 24 25  0     1  0  0  0  0  0999 V2000
    7.4169   -4.0449   25.7829 H   0  0  0  0  0  0  0  0  0  0  0  0
    8.4762   -3.8245   25.6346 C   0  0  0  0  0  0  0  0  0  0  0  0
    9.0378   -4.7420   25.6788 H   0  0  0  0  0  0  0  0  0  0  0  0
    8.8342   -3.1420   26.3963 H   0  0  0  0  0  0  0  0  0  0  0  0
    8.6649   -3.1749   24.3738 O   0  0  0  0  0  0  0  0  0  0  0  0
    7.9137   -3.1830   22.2645 H   0  0  0  0  0  0  0  0  0  0  0  0
    9.4041   -2.1288   23.9462 N   0  0  0  0  0  0  0  0  0  0  0  0
   11.5841    0.0518   23.3094 C   0  0  0  0  0  0  0  0  0  0  0  0
    9.9142    0.6859   21.8845 N   0  0  0  0  0  0  0  0  0  0  0  0
   11.4848    0.9780   23.8568 H   0  0  0  0  0  0  0  0  0  0  0  0
   11.9806   -0.6740   23.9918 H   0  0  0  0  0  0  0  0  0  0  0  0
   12.3252    0.1831   22.5231 H   0  0  0  0  0  0  0  0  0  0  0  0
   10.2825   -0.2477   22.6865 C   0  0  0  0  0  0  0  0  0  0  0  0
    9.4001   -1.2832   23.0538 C   0  0  0  0  0  0  0  0  0  0  0  0
    8.2845   -1.3885   22.1091 C   0  0  0  0  0  0  0  0  0  0  0  0
    9.1003    0.8619   20.7440 N   0  0  0  0  0  0  0  0  0  0  0  0
    7.6063   -2.3830   21.7412 N   0  0  0  0  0  0  0  0  0  0  0  0
    8.0658    0.5600   19.7805 C   0  0  0  0  0  0  0  0  0  0  0  0
    6.7195    0.2177   19.9017 C   0  5  3  0  0  0  0  0  0  0  0  0
    8.3934    0.7640   18.7700 H   0  0  0  0  0  0  0  0  0  0  0  0
    6.0534    0.4689   19.0950 H   0  0  0  0  0  0  0  0  0  0  0  0
    7.1878   -1.1558   21.4654 C   0  0  0  0  0  0  0  0  0  0  0  0
    5.2401   -0.3217   21.3312 H   0  0  0  0  0  0  0  0  0  0  0  0
    6.2135   -0.3675   20.9756 C   0  0  0  0  0  0  0  0  0  0  0  0
 18 20  1  0  0  0  0
 19 21  1  0  0  0  0
 18 19  1  0  0  0  0
 16 18  2  3  0  0  0
 19 24  1  0  0  0  0
  9 16  1  0  0  0  0
 23 24  1  0  0  0  0
 22 24  2  3  0  0  0
 17 22  1  0  0  0  0
 15 22  1  0  0  0  0
 15 17  1  0  0  0  0
  6 17  1  0  0  0  0
  9 13  2  3  0  0  0
 14 15  2  3  0  0  0
  8 12  1  0  0  0  0
 13 14  1  0  0  0  0
  8 13  1  0  0  0  0
  7 14  1  0  0  0  0
  8 10  1  0  0  0  0
  8 11  1  0  0  0  0
  5  7  1  0  0  0  0
  2  5  1  0  0  0  0
  2  3  1  0  0  0  0
  1  2  1  0  0  0  0
  2  4  1  0  0  0  0
M  CHG  1  19  -1
M  END
> <Shapegauss>
-142.282684

$$$$
