stable:False satoms:18 tatoms:24 sratio:0.75
  -OEChem-08052423203D

 26 27  0     1  0  0  0  0  0999 V2000
   -7.4606   -2.7652  -26.4589 H   0  0  0  0  0  0  0  0  0  0  0  0
   -8.3961   -3.0168  -25.9548 C   0  0  0  0  0  0  0  0  0  0  0  0
   -8.2342   -3.8648  -25.3114 H   0  0  0  0  0  0  0  0  0  0  0  0
   -9.1682   -3.2514  -26.6780 H   0  0  0  0  0  0  0  0  0  0  0  0
   -8.8602   -1.8914  -25.2029 O   0  0  0  0  0  0  0  0  0  0  0  0
   -8.1193   -0.1952  -23.9429 H   0  0  0  0  0  0  0  0  0  0  0  0
  -10.0636   -1.3100  -25.0096 N   0  0  0  0  0  0  0  0  0  0  0  0
  -13.0776   -0.5531  -24.5039 C   0  0  0  0  0  0  0  0  0  0  0  0
  -12.1066    1.5151  -24.4822 N   0  0  0  0  0  0  0  0  0  0  0  0
  -13.6427   -0.2916  -25.3868 H   0  0  0  0  0  0  0  0  0  0  0  0
  -12.9638   -1.6193  -24.5097 H   0  0  0  0  0  0  0  0  0  0  0  0
  -13.6640   -0.3034  -23.6215 H   0  0  0  0  0  0  0  0  0  0  0  0
  -11.8466    0.2571  -24.4977 C   0  0  0  0  0  0  0  0  0  0  0  0
  -10.5365   -0.2137  -24.7164 C   0  0  0  0  0  0  0  0  0  0  0  0
   -9.5471    0.8384  -24.4673 C   0  0  0  0  0  0  0  0  0  0  0  0
  -11.5126    2.7288  -24.0719 N   0  0  0  0  0  0  0  0  0  0  0  0
   -8.3611    0.7734  -24.0506 N   0  0  0  0  0  0  0  0  0  0  0  0
  -10.4564    3.6353  -23.6817 C   0  0  0  0  0  0  0  0  0  0  0  0
   -9.2220    3.9602  -24.2430 C   0  0  3  0  0  0  0  0  0  0  0  0
  -10.7580    4.2625  -22.8536 H   0  0  0  0  0  0  0  0  0  0  0  0
   -8.7984    4.9296  -24.0255 H   0  0  0  0  0  0  0  0  0  0  0  0
   -8.8136    1.8957  -24.5919 C   0  0  0  0  0  0  0  0  0  0  0  0
   -7.8615    3.3818  -25.7719 H   0  0  0  0  0  0  0  0  0  0  0  0
   -8.5438    3.1393  -25.0290 C   0  0  0  0  0  0  0  0  0  0  0  0
  -10.4550   -1.8931  -24.2978 H   0  0  0  0  0  0  0  0  0  0  0  0
   -9.2220    3.9602  -24.2430 H   0  0  0  0  0  0  0  0  0  0  0  0
 18 20  1  0  0  0  0
 19 21  1  0  0  0  0
 18 19  1  0  0  0  0
 16 18  2  3  0  0  0
 19 24  1  0  0  0  0
  9 16  1  0  0  0  0
 23 24  1  0  0  0  0
 22 24  2  3  0  0  0
 17 22  1  0  0  0  0
 15 22  1  0  0  0  0
 15 17  1  0  0  0  0
  6 17  1  0  0  0  0
  9 13  2  3  0  0  0
 14 15  2  3  0  0  0
  8 12  1  0  0  0  0
 13 14  1  0  0  0  0
  8 13  1  0  0  0  0
  7 14  1  0  0  0  0
  8 10  1  0  0  0  0
  8 11  1  0  0  0  0
  5  7  1  0  0  0  0
  2  5  1  0  0  0  0
  2  3  1  0  0  0  0
  1  2  1  0  0  0  0
  2  4  1  0  0  0  0
  7 25  1  0  0  0  0
 19 26  1  0  0  0  0
M  END
> <Chemgauss4>
-5.728445

$$$$
