stable:False satoms:18 tatoms:24 sratio:0.75
  -OEChem-08052423203D

 26 27  0     1  0  0  0  0  0999 V2000
    9.3528    3.9013   26.4738 H   0  0  0  0  0  0  0  0  0  0  0  0
    8.6157    3.4787   25.7877 C   0  0  0  0  0  0  0  0  0  0  0  0
    8.1380    4.2773   25.2462 H   0  0  0  0  0  0  0  0  0  0  0  0
    7.8699    2.9109   26.3313 H   0  0  0  0  0  0  0  0  0  0  0  0
    9.2557    2.5684   24.8883 O   0  0  0  0  0  0  0  0  0  0  0  0
   11.1523    2.2837   23.7327 H   0  0  0  0  0  0  0  0  0  0  0  0
    8.9516    1.3478   24.3972 N   0  0  0  0  0  0  0  0  0  0  0  0
    7.6583   -1.2547   23.1858 C   0  0  0  0  0  0  0  0  0  0  0  0
    9.8584   -1.8663   23.2654 N   0  0  0  0  0  0  0  0  0  0  0  0
    7.4067   -2.0225   23.9031 H   0  0  0  0  0  0  0  0  0  0  0  0
    6.9166   -0.4858   23.2774 H   0  0  0  0  0  0  0  0  0  0  0  0
    7.5653   -1.6643   22.1817 H   0  0  0  0  0  0  0  0  0  0  0  0
    9.0626   -0.8682   23.4102 C   0  0  0  0  0  0  0  0  0  0  0  0
    9.5166    0.3546   23.9436 C   0  0  0  0  0  0  0  0  0  0  0  0
   10.9764    0.4579   23.8638 C   0  0  0  0  0  0  0  0  0  0  0  0
   11.2058   -2.1248   22.9308 N   0  0  0  0  0  0  0  0  0  0  0  0
   11.7262    1.4597   23.7282 N   0  0  0  0  0  0  0  0  0  0  0  0
   12.6115   -1.8494   22.7368 C   0  0  0  0  0  0  0  0  0  0  0  0
   13.5893   -1.2656   23.5415 C   0  0  3  0  0  0  0  0  0  0  0  0
   12.9828   -2.3034   21.8280 H   0  0  0  0  0  0  0  0  0  0  0  0
   14.6217   -1.5325   23.3701 H   0  0  0  0  0  0  0  0  0  0  0  0
   12.2384    0.2917   24.0897 C   0  0  0  0  0  0  0  0  0  0  0  0
   13.8588   -0.2083   25.3670 H   0  0  0  0  0  0  0  0  0  0  0  0
   13.3148   -0.4007   24.5050 C   0  0  0  0  0  0  0  0  0  0  0  0
    8.3299    1.5825   23.6499 H   0  0  0  0  0  0  0  0  0  0  0  0
   13.5893   -1.2656   23.5415 H   0  0  0  0  0  0  0  0  0  0  0  0
 18 20  1  0  0  0  0
 19 21  1  0  0  0  0
 18 19  1  0  0  0  0
 16 18  2  3  0  0  0
 19 24  1  0  0  0  0
  9 16  1  0  0  0  0
 23 24  1  0  0  0  0
 22 24  2  3  0  0  0
 17 22  1  0  0  0  0
 15 22  1  0  0  0  0
 15 17  1  0  0  0  0
  6 17  1  0  0  0  0
  9 13  2  3  0  0  0
 14 15  2  3  0  0  0
  8 12  1  0  0  0  0
 13 14  1  0  0  0  0
  8 13  1  0  0  0  0
  7 14  1  0  0  0  0
  8 10  1  0  0  0  0
  8 11  1  0  0  0  0
  5  7  1  0  0  0  0
  2  5  1  0  0  0  0
  2  3  1  0  0  0  0
  1  2  1  0  0  0  0
  2  4  1  0  0  0  0
  7 25  1  0  0  0  0
 19 26  1  0  0  0  0
M  END
> <Chemgauss4>
-5.838717

$$$$
