stable:False satoms:14 tatoms:24 sratio:0.5833333333333334
  -OEChem-07092417373D

 24 22  0     1  0  0  0  0  0999 V2000
    7.0588   -3.9300   25.4715 O   0  5  0  0  0  0  0  0  0  0  0  0
    8.2523   -3.8004   25.0615 C   0  0  0  0  0  0  0  0  0  0  0  0
    9.1928   -4.5593   25.4090 O   0  0  0  0  0  0  0  0  0  0  0  0
   11.1011   -2.7345   25.3209 O   0  5  0  0  0  0  0  0  0  0  0  0
    7.6311   -2.2816   23.7111 H   0  0  0  0  0  0  0  0  0  0  0  0
    8.5615   -2.6911   24.0496 C   0  5  3  0  0  0  0  0  0  0  0  0
    9.7487   -1.1586   22.7036 N   0  0  0  0  0  0  0  0  0  0  0  0
    8.9267   -0.3093   22.5244 N   0  0  0  0  0  0  0  0  0  0  0  0
   11.0647   -0.2734   24.2743 H   0  0  0  0  0  0  0  0  0  0  0  0
   11.5427    0.3480   23.5596 N   0  5  0  0  0  0  0  0  0  0  0  0
   12.4346   -0.3839   23.5040 N   0  0  0  0  0  0  0  0  0  0  0  0
   12.0466   -2.5243   23.1936 O   0  0  0  0  0  0  0  0  0  0  0  0
   11.1231   -2.4569   24.0375 C   0  0  0  0  0  0  0  0  0  0  0  0
    9.7449   -2.0952   23.5494 C   0  0  3  0  0  0  0  0  0  0  0  0
    9.5433    0.5787   20.8311 H   0  0  0  0  0  0  0  0  0  0  0  0
    8.6796    0.2354   21.3271 C   0  3  0  0  0  0  0  0  0  0  0  0
    6.5039   -1.4963   21.5714 H   0  0  0  0  0  0  0  0  0  0  0  0
    6.4825   -0.4218   21.5877 C   0  0  0  0  0  0  0  0  0  0  0  0
    7.0698   -0.2861   18.7650 H   0  0  0  0  0  0  0  0  0  0  0  0
    7.2238    1.4319   18.9488 H   0  0  0  0  0  0  0  0  0  0  0  0
    5.7194    0.6878   19.4376 H   0  0  0  0  0  0  0  0  0  0  0  0
    6.7900    0.5415   19.4100 C   0  0  0  0  0  0  0  0  0  0  0  0
    7.3244    0.1989   20.7935 C   0  0  0  0  0  0  0  0  0  0  0  0
    5.8178    0.0905   22.2546 H   0  0  0  0  0  0  0  0  0  0  0  0
 19 22  1  0  0  0  0
 20 22  1  0  0  0  0
 21 22  1  0  0  0  0
 22 23  1  0  0  0  0
 16 23  1  0  0  0  0
 18 23  2  0  0  0  0
 15 16  1  0  0  0  0
  8 16  1  0  0  0  0
 17 18  1  0  0  0  0
 18 24  1  0  0  0  0
  7  8  2  3  0  0  0
  7 14  1  0  0  0  0
 12 13  2  0  0  0  0
 10 11  1  0  0  0  0
 13 14  1  0  0  0  0
  6 14  1  0  0  0  0
  9 10  1  0  0  0  0
  5  6  1  0  0  0  0
  4 13  1  0  0  0  0
  2  6  1  0  0  0  0
  2  3  2  0  0  0  0
  1  2  1  0  0  0  0
M  CHG  5   1  -1   4  -1   6  -1  10  -1  16   1
M  END
> <Shapegauss>
-148.732758

$$$$
