REMARK  5 active torsions:
REMARK  status: ('A' for Active; 'I' for Inactive)
REMARK    1  A    between atoms: C_2  and  C_5 
REMARK    2  A    between atoms: N_6  and  C_18 
REMARK    3  A    between atoms: N_8  and  C_19 
REMARK    4  A    between atoms: C_17  and  C_18 
REMARK    5  A    between atoms: C_19  and  C_22 
ROOT
HETATM    1  H   UNL     1      11.065  -0.273  24.274  1.00  0.00     0.176 HD
HETATM    2  N   UNL     1      11.543   0.348  23.560  1.00  0.00    -0.352 N 
ATOM      3  HN  UNL     1      11.310   1.232  23.107  1.00  0.00     0.176 HD
HETATM    4  N   UNL     1      12.435  -0.384  23.504  1.00  0.00    -0.352 N 
ATOM      5  HN1 UNL     1      12.895   0.213  22.817  1.00  0.00     0.176 HD
ATOM      6  HN2 UNL     1      12.659  -1.267  23.962  1.00  0.00     0.176 HD
ENDROOT
TORSDOF 5
