stable:False satoms:19 tatoms:24 sratio:0.7916666666666666
  -OEChem-08052416133D

 28 29  0     1  0  0  0  0  0999 V2000
  -12.8487    1.6169  -24.7024 H   0  0  0  0  0  0  0  0  0  0  0  0
  -11.8649    0.6056  -25.7720 H   0  0  0  0  0  0  0  0  0  0  0  0
   -6.8752    0.7608  -20.2188 C   0  0  0  0  0  0  0  0  0  0  0  0
  -11.2940   -1.6898  -23.8258 H   0  0  0  0  0  0  0  0  0  0  0  0
   -8.8704    1.6268  -21.7215 C   0  0  3  0  0  0  0  0  0  0  0  0
  -12.1962    0.7400  -24.7349 C   0  0  0  0  0  0  0  0  0  0  0  0
   -4.7563   -0.2911  -17.7080 H   0  0  0  0  0  0  0  0  0  0  0  0
  -12.8508   -0.3703  -24.2251 O   0  0  0  0  0  0  0  0  0  0  0  0
   -7.7584    2.2946  -21.5947 N   0  0  0  0  0  0  0  0  0  0  0  0
  -10.7385    2.2686  -23.3403 C   0  0  0  0  0  0  0  0  0  0  0  0
   -6.7494    1.8460  -20.9237 N   0  0  0  0  0  0  0  0  0  0  0  0
   -5.8094    0.4771  -19.2059 C   0  0  0  0  0  0  0  0  0  0  0  0
   -4.9212    1.1121  -19.3081 H   0  0  0  0  0  0  0  0  0  0  0  0
  -10.1778    3.2018  -21.6959 H   0  0  0  0  0  0  0  0  0  0  0  0
   -8.8760    0.3395  -21.3616 N   0  3  0  0  0  0  0  0  0  0  0  0
   -5.6678   -0.3000  -18.2872 C   0  0  0  0  0  0  0  0  0  0  0  0
  -12.5578   -1.5595  -22.5481 H   0  0  0  0  0  0  0  0  0  0  0  0
  -11.2702    0.0417  -22.6780 O   0  0  0  0  0  0  0  0  0  0  0  0
  -10.0590    0.4160  -24.2935 H   0  0  0  0  0  0  0  0  0  0  0  0
  -11.2104    3.2559  -23.8371 O   0  0  0  0  0  0  0  0  0  0  0  0
   -7.9388    0.0109  -20.4791 N   0  0  0  0  0  0  0  0  0  0  0  0
  -11.9866   -0.9978  -23.3026 C   0  0  0  0  0  0  0  0  0  0  0  0
   -9.9748    2.3386  -22.2080 N   0  0  0  0  0  0  0  0  0  0  0  0
  -10.9467    0.8467  -23.8034 C   0  0  1  0  0  0  0  0  0  0  0  0
   -8.5920    1.3453  -22.7477 H   0  0  0  0  0  0  0  0  0  0  0  0
   -9.7686    0.1307  -20.9618 H   0  0  0  0  0  0  0  0  0  0  0  0
   -6.4531   -1.0016  -18.0475 H   0  0  0  0  0  0  0  0  0  0  0  0
   -8.7405   -0.2151  -22.1826 H   0  0  0  0  0  0  0  0  0  0  0  0
  2  6  1  0  0  0  0
  1  6  1  0  0  0  0
  6  8  1  0  0  0  0
  6 24  1  0  0  0  0
  8 22  1  0  0  0  0
 10 20  2  0  0  0  0
 10 24  1  0  0  0  0
 19 24  1  0  0  0  0
 18 24  1  0  0  0  0
 10 23  1  0  0  0  0
  4 22  1  0  0  0  0
 17 22  1  0  0  0  0
 18 22  1  0  0  0  0
 14 23  1  0  0  0  0
  5 23  1  0  0  0  0
  5  9  1  0  0  0  0
  5 15  1  0  0  0  0
  9 11  2  0  0  0  0
 15 21  1  0  0  0  0
  3 11  1  0  0  0  0
  3 21  2  0  0  0  0
  3 12  1  0  0  0  0
 12 13  1  0  0  0  0
 12 16  2  0  0  0  0
  7 16  1  0  0  0  0
  5 25  1  0  0  0  0
 15 26  1  0  0  0  0
 16 27  1  0  0  0  0
 15 28  1  0  0  0  0
M  CHG  1  15   1
M  END
> <Chemgauss4>
-5.410156

$$$$
