stable:False satoms:19 tatoms:24 sratio:0.7916666666666666
  -OEChem-08052416143D

 28 29  0     1  0  0  0  0  0999 V2000
   13.1073    1.4102   23.9440 H   0  0  0  0  0  0  0  0  0  0  0  0
   12.2155    0.7698   25.3330 H   0  0  0  0  0  0  0  0  0  0  0  0
    6.1435    2.1207   21.2020 C   0  0  0  0  0  0  0  0  0  0  0  0
   10.5520   -1.3437   23.8673 H   0  0  0  0  0  0  0  0  0  0  0  0
    8.6252    2.4386   22.0554 C   0  0  3  0  0  0  0  0  0  0  0  0
   12.2787    0.7600   24.2378 C   0  0  0  0  0  0  0  0  0  0  0  0
    3.2262    1.6183   19.4305 H   0  0  0  0  0  0  0  0  0  0  0  0
   12.4517   -0.5119   23.7147 O   0  0  0  0  0  0  0  0  0  0  0  0
    7.7397    3.3920   22.1301 N   0  0  0  0  0  0  0  0  0  0  0  0
   10.9610    2.5835   23.0781 C   0  0  0  0  0  0  0  0  0  0  0  0
    6.5057    3.2246   21.7853 N   0  0  0  0  0  0  0  0  0  0  0  0
    4.8088    2.1133   20.5230 C   0  0  0  0  0  0  0  0  0  0  0  0
    4.1833    2.9804   20.7667 H   0  0  0  0  0  0  0  0  0  0  0  0
   10.2477    3.5690   21.5259 H   0  0  0  0  0  0  0  0  0  0  0  0
    8.1909    1.1902   21.8571 N   0  3  0  0  0  0  0  0  0  0  0  0
    4.2235    1.3720   19.7641 C   0  0  0  0  0  0  0  0  0  0  0  0
   11.4124   -1.6356   22.3113 H   0  0  0  0  0  0  0  0  0  0  0  0
   10.6819    0.2721   22.5680 O   0  0  0  0  0  0  0  0  0  0  0  0
   10.0955    1.0457   24.3776 H   0  0  0  0  0  0  0  0  0  0  0  0
   11.7943    3.4133   23.3252 O   0  0  0  0  0  0  0  0  0  0  0  0
    6.9983    1.1083   21.2772 N   0  0  0  0  0  0  0  0  0  0  0  0
   11.2364   -0.9024   23.1129 C   0  0  0  0  0  0  0  0  0  0  0  0
    9.9679    2.8227   22.1688 N   0  0  0  0  0  0  0  0  0  0  0  0
   10.8998    1.1824   23.6372 C   0  0  1  0  0  0  0  0  0  0  0  0
    8.5689    2.2921   23.1442 H   0  0  0  0  0  0  0  0  0  0  0  0
    8.8537    0.7172   21.2767 H   0  0  0  0  0  0  0  0  0  0  0  0
    4.6990    0.4650   19.4213 H   0  0  0  0  0  0  0  0  0  0  0  0
    8.1388    0.7327   22.7447 H   0  0  0  0  0  0  0  0  0  0  0  0
  2  6  1  0  0  0  0
  1  6  1  0  0  0  0
  6  8  1  0  0  0  0
  6 24  1  0  0  0  0
  8 22  1  0  0  0  0
 10 20  2  0  0  0  0
 10 24  1  0  0  0  0
 19 24  1  0  0  0  0
 18 24  1  0  0  0  0
 10 23  1  0  0  0  0
  4 22  1  0  0  0  0
 17 22  1  0  0  0  0
 18 22  1  0  0  0  0
 14 23  1  0  0  0  0
  5 23  1  0  0  0  0
  5  9  1  0  0  0  0
  5 15  1  0  0  0  0
  9 11  2  0  0  0  0
 15 21  1  0  0  0  0
  3 11  1  0  0  0  0
  3 21  2  0  0  0  0
  3 12  1  0  0  0  0
 12 13  1  0  0  0  0
 12 16  2  0  0  0  0
  7 16  1  0  0  0  0
  5 25  1  0  0  0  0
 15 26  1  0  0  0  0
 16 27  1  0  0  0  0
 15 28  1  0  0  0  0
M  CHG  1  15   1
M  END
> <Chemgauss4>
-5.475926

$$$$
