
 OpenBabel07202414163D

 38 39  0  0  0  0  0  0  0  0999 V2000
    2.9050   -2.4651   -2.7151 C   0  0  0  0  0  0  0  0  0  0  0  0
    1.6612   -3.2606   -2.4344 C   0  0  0  0  0  0  0  0  0  0  0  0
    1.4518   -4.5027   -3.0350 C   0  0  0  0  0  0  0  0  0  0  0  0
    0.3062   -5.2378   -2.7179 C   0  0  0  0  0  0  0  0  0  0  0  0
    0.0666   -6.7795   -3.4488 Cl  0  0  0  0  0  0  0  0  0  0  0  0
   -0.6325   -4.7468   -1.8024 C   0  0  0  0  0  0  0  0  0  0  0  0
   -0.4502   -3.4953   -1.1995 C   0  0  0  0  0  0  0  0  0  0  0  0
   -1.3652   -2.9260   -0.1268 C   0  0  0  0  0  0  0  0  0  0  0  0
   -2.8368   -3.3950   -0.0585 C   0  0  0  0  0  0  0  0  0  0  0  0
   -3.7071   -2.9275   -1.2315 C   0  0  0  0  0  0  0  0  0  0  0  0
   -4.1418   -1.4633   -1.1644 C   0  0  0  0  0  0  0  0  0  0  0  0
   -4.6329   -1.0283    0.1449 N   0  0  0  0  0  0  0  0  0  0  0  0
   -5.3437    0.1860    0.1472 C   0  0  0  0  0  0  0  0  0  0  0  0
   -5.6626    0.7506   -0.9035 O   0  0  0  0  0  0  0  0  0  0  0  0
   -5.7551    0.7991    1.4749 C   0  0  0  0  0  0  0  0  0  0  0  0
   -4.4267    1.7839    2.1190 Cl  0  0  0  0  0  0  0  0  0  0  0  0
   -3.8703   -1.4763    1.3076 C   0  0  0  0  0  0  0  0  0  0  0  0
   -3.5074   -2.9585    1.2566 C   0  0  0  0  0  0  0  0  0  0  0  0
    0.7157   -2.7743   -1.5211 C   0  0  0  0  0  0  0  0  0  0  0  0
    3.4884   -2.9015   -3.5323 H   0  0  0  0  0  0  0  0  0  0  0  0
    3.5386   -2.4345   -1.8233 H   0  0  0  0  0  0  0  0  0  0  0  0
    2.6413   -1.4422   -3.0035 H   0  0  0  0  0  0  0  0  0  0  0  0
    2.1744   -4.9061   -3.7355 H   0  0  0  0  0  0  0  0  0  0  0  0
   -1.4929   -5.3676   -1.5637 H   0  0  0  0  0  0  0  0  0  0  0  0
   -1.3441   -1.8321   -0.2003 H   0  0  0  0  0  0  0  0  0  0  0  0
   -0.8845   -3.1838    0.8283 H   0  0  0  0  0  0  0  0  0  0  0  0
   -2.8380   -4.4922   -0.0556 H   0  0  0  0  0  0  0  0  0  0  0  0
   -4.6137   -3.5476   -1.2398 H   0  0  0  0  0  0  0  0  0  0  0  0
   -3.2062   -3.1095   -2.1886 H   0  0  0  0  0  0  0  0  0  0  0  0
   -4.9406   -1.3130   -1.9032 H   0  0  0  0  0  0  0  0  0  0  0  0
   -3.3183   -0.8004   -1.4438 H   0  0  0  0  0  0  0  0  0  0  0  0
   -6.0553    0.0461    2.2064 H   0  0  0  0  0  0  0  0  0  0  0  0
   -6.6138    1.4585    1.3110 H   0  0  0  0  0  0  0  0  0  0  0  0
   -4.4470   -1.3034    2.2195 H   0  0  0  0  0  0  0  0  0  0  0  0
   -2.9697   -0.8556    1.3714 H   0  0  0  0  0  0  0  0  0  0  0  0
   -4.4275   -3.5435    1.3816 H   0  0  0  0  0  0  0  0  0  0  0  0
   -2.8665   -3.2041    2.1117 H   0  0  0  0  0  0  0  0  0  0  0  0
    0.9010   -1.8178   -1.0331 H   0  0  0  0  0  0  0  0  0  0  0  0
  1  2  1  0  0  0  0
  1 20  1  0  0  0  0
  1 21  1  0  0  0  0
  1 22  1  0  0  0  0
  2  3  1  0  0  0  0
  2 19  2  0  0  0  0
  3  4  2  0  0  0  0
  3 23  1  0  0  0  0
  4  5  1  0  0  0  0
  4  6  1  0  0  0  0
  6  7  2  0  0  0  0
  6 24  1  0  0  0  0
  7  8  1  0  0  0  0
  7 19  1  0  0  0  0
  8  9  1  0  0  0  0
  8 25  1  0  0  0  0
  8 26  1  0  0  0  0
  9 10  1  0  0  0  0
  9 18  1  0  0  0  0
  9 27  1  0  0  0  0
 10 11  1  0  0  0  0
 10 28  1  0  0  0  0
 10 29  1  0  0  0  0
 11 12  1  0  0  0  0
 11 30  1  0  0  0  0
 11 31  1  0  0  0  0
 12 13  1  0  0  0  0
 12 17  1  0  0  0  0
 13 14  2  0  0  0  0
 13 15  1  0  0  0  0
 15 16  1  0  0  0  0
 15 32  1  0  0  0  0
 15 33  1  0  0  0  0
 17 18  1  0  0  0  0
 17 34  1  0  0  0  0
 17 35  1  0  0  0  0
 18 36  1  0  0  0  0
 18 37  1  0  0  0  0
 19 38  1  0  0  0  0
M  END
$$$$
