REMARK  7 active torsions:
REMARK  status: ('A' for Active; 'I' for Inactive)
REMARK    1  A    between atoms: N_2  and  C_4 
REMARK    2  A    between atoms: C_4  and  S_17 
REMARK    3  A    between atoms: N_5  and  N_9 
REMARK    4  A    between atoms: C_8  and  N_16 
REMARK    5  A    between atoms: C_8  and  C_12 
REMARK    6  A    between atoms: C_8  and  S_17 
REMARK    7  A    between atoms: N_13  and  N_16 
ROOT
HETATM    1  C   UNL     1       7.342   0.738  21.694  1.00  0.00     0.190 C 
ENDROOT
BRANCH   1   2
HETATM    2  N   UNL     1       6.814   1.701  20.978  1.00  0.00    -0.324 NA
BRANCH   2   3
HETATM    3  N   UNL     1       6.199   2.556  20.529  1.00  0.00    -0.279 N 
ATOM      4  HN2 UNL     1       5.579   2.544  21.339  1.00  0.00     0.191 HD
ATOM      5  HN1 UNL     1       5.788   3.305  19.972  1.00  0.00     0.191 HD
ENDBRANCH   2   3
ENDBRANCH   1   2
BRANCH   1   6
HETATM    6  C   UNL     1       8.564   0.167  21.438  1.00  0.00     0.156 C 
HETATM    7  N   UNL     1       8.850  -1.047  21.802  1.00  0.00    -0.327 N 
ATOM      8  HN  UNL     1       8.128  -1.720  22.060  1.00  0.00     0.180 HD
BRANCH   7   9
HETATM    9  N   UNL     1      10.219  -1.374  21.818  1.00  0.00    -0.240 NA
HETATM   10  C   UNL     1      10.571  -2.522  22.667  1.00  0.00     0.135 C 
HETATM   11  C   UNL     1      10.545  -1.527  20.379  1.00  0.00     0.135 C 
ENDBRANCH   7   9
ENDBRANCH   1   6
BRANCH   1  12
HETATM   12  S   UNL     1       6.189   0.328  22.939  1.00  0.00    -0.025 SA
BRANCH  12  13
HETATM   13  C   UNL     1       6.879  -1.241  23.452  1.00  0.00     0.141 C 
HETATM   14  S   UNL     1       6.112  -2.453  23.361  1.00  0.00    -0.052 SA
BRANCH  13  15
HETATM   15  N   UNL     1       8.038  -1.410  24.058  1.00  0.00    -0.380 N 
HETATM   16  H   UNL     1       8.905  -0.970  23.750  1.00  0.00     0.160 HD
HETATM   17  C   UNL     1       7.852  -1.878  25.422  1.00  0.00     0.147 C 
ENDBRANCH  13  15
ENDBRANCH  12  13
ENDBRANCH   1  12
TORSDOF 7
