stable:False satoms:13 tatoms:24 sratio:0.5416666666666666
  -OEChem-07092417363D

 24 24  0     1  0  0  0  0  0999 V2000
    8.1269   -3.9346   26.4899 O   0  0  0  0  0  0  0  0  0  0  0  0
    8.9187   -3.1052   25.9010 C   0  0  0  0  0  0  0  0  0  0  0  0
    7.8647   -4.8119   25.5948 O   0  0  0  0  0  0  0  0  0  0  0  0
    8.2584   -3.3535   23.8954 N   0  0  0  0  0  0  0  0  0  0  0  0
    7.9722   -4.2386   24.4240 N   0  0  0  0  0  0  0  0  0  0  0  0
    9.8522   -2.0355   25.6962 C   0  0  0  0  0  0  0  0  0  0  0  0
    8.9753   -2.3540   23.3882 C   0  0  0  0  0  0  0  0  0  0  0  0
    9.6942   -1.5252   23.3397 C   0  0  0  0  0  0  0  0  0  0  0  0
   10.1593   -1.7496   26.6271 H   0  0  0  0  0  0  0  0  0  0  0  0
   11.4318    0.0068   24.9122 Cl  0  0  0  0  0  0  0  0  0  0  0  0
   11.6142    0.2240   21.6992 N   0  0  0  0  0  0  0  0  0  0  0  0
   11.7481   -0.4455   22.3966 H   0  0  0  0  0  0  0  0  0  0  0  0
   10.3750   -1.2903   24.6372 C   0  0  3  0  0  0  0  0  0  0  0  0
   10.5908    0.0821   20.9093 N   0  3  0  0  0  0  0  0  0  0  0  0
    9.4259   -1.0730   22.1532 C   0  0  0  0  0  0  0  0  0  0  0  0
    9.4553   -0.3973   21.0564 C   0  0  0  0  0  0  0  0  0  0  0  0
    7.2049    0.2900   20.5023 C   0  0  0  0  0  0  0  0  0  0  0  0
    8.4697   -0.5331   19.1508 H   0  0  0  0  0  0  0  0  0  0  0  0
    6.2437    0.5759   19.3817 C   0  0  0  0  0  0  0  0  0  0  0  0
    8.3404   -0.2460   20.0866 N   0  0  0  0  0  0  0  0  0  0  0  0
    6.0745   -0.2368   18.7131 H   0  0  0  0  0  0  0  0  0  0  0  0
    6.5833    1.4177   18.8288 H   0  0  0  0  0  0  0  0  0  0  0  0
    5.3261    0.8335   19.8814 H   0  0  0  0  0  0  0  0  0  0  0  0
    6.8785    0.6100   21.6317 O   0  0  0  0  0  0  0  0  0  0  0  0
 19 21  1  0  0  0  0
 19 22  1  0  0  0  0
 18 20  1  0  0  0  0
 19 23  1  0  0  0  0
 17 19  1  0  0  0  0
 17 20  1  0  0  0  0
 16 20  1  0  0  0  0
 17 24  2  0  0  0  0
 14 16  2  0  0  0  0
 11 14  2  0  0  0  0
 15 16  1  0  0  0  0
 11 12  1  0  0  0  0
  8 15  2  0  0  0  0
  7  8  1  0  0  0  0
  8 13  1  0  0  0  0
  4  7  1  0  0  0  0
  4  5  1  0  0  0  0
  3  5  1  0  0  0  0
 10 13  1  0  0  0  0
  6 13  1  0  0  0  0
  1  3  1  0  0  0  0
  2  6  2  0  0  0  0
  6  9  1  0  0  0  0
  1  2  1  0  0  0  0
M  CHG  1  14   1
M  END
> <Shapegauss>
-178.530655

$$$$
