MODEL 1
REMARK VINA RESULT:    -6.945      0.000      0.000
REMARK INTER + INTRA:          -8.827
REMARK INTER:                  -8.367
REMARK INTRA:                  -0.461
REMARK UNBOUND:                -0.461
REMARK  4 active torsions:
REMARK  status: ('A' for Active; 'I' for Inactive)
REMARK    1  A    between atoms: C_9  and  C_17 
REMARK    2  A    between atoms: N_11  and  N_15 
REMARK    3  A    between atoms: C_17  and  C_18 
REMARK    4  A    between atoms: C_18  and  N_22 
REMARK       I    between atoms: C_19  and  N_22 
ROOT
HETATM    1  C   UNL     1       8.619  15.210   2.947  1.00  0.00    -0.063 C 
ENDROOT
BRANCH   1   2
HETATM    2  C   UNL     1       8.164  16.397   2.686  1.00  0.00     0.066 C 
HETATM    3  C   UNL     1       8.848  16.682   1.875  1.00  0.00     0.233 C 
HETATM    4  N   UNL     1       9.456  17.441   0.967  1.00  0.00    -0.314 NA
HETATM    5  N   UNL     1       9.638  18.138   0.174  1.00  0.00    -0.108 N 
HETATM    6  O   UNL     1       9.553  19.386  -0.209  1.00  0.00    -0.072 OA
ATOM      7  HN  UNL     1      10.044  17.613  -0.600  1.00  0.00     0.234 HD
HETATM    8  O   UNL     1       9.179  20.084   0.797  1.00  0.00    -0.126 OA
HETATM    9  C   UNL     1       8.505  19.260   1.525  1.00  0.00     0.046 C 
HETATM   10  C   UNL     1       7.640  18.752   2.550  1.00  0.00     0.111 C 
HETATM   11  C   UNL     1       7.301  17.523   3.120  1.00  0.00     0.064 C 
HETATM   12 CL   UNL     1       6.246  17.430   4.444  1.00  0.00    -0.082 Cl
ENDBRANCH   1   2
BRANCH   1  13
HETATM   13  C   UNL     1       8.882  13.950   2.885  1.00  0.00     0.171 C 
HETATM   14  N   UNL     1      10.083  13.776   3.152  1.00  0.00    -0.285 N 
ATOM     15  HN  UNL     1      10.315  12.801   3.339  1.00  0.00     0.188 HD
BRANCH  14  16
HETATM   16  N   UNL     1      11.106  14.573   3.242  1.00  0.00    -0.343 N 
HETATM   17  H   UNL     1      11.885  14.260   3.741  1.00  0.00     0.176 HD
ATOM     18  HN  UNL     1      11.095  15.496   2.807  1.00  0.00     0.176 HD
ENDBRANCH  14  16
BRANCH  13  19
HETATM   19  N   UNL     1       7.913  12.863   2.596  1.00  0.00    -0.306 N 
HETATM   20  C   UNL     1       7.861  11.823   3.411  1.00  0.00     0.219 C 
HETATM   21  C   UNL     1       6.703  10.908   3.126  1.00  0.00     0.117 C 
HETATM   22  O   UNL     1       8.582  11.556   4.357  1.00  0.00    -0.274 OA
HETATM   23  H   UNL     1       7.317  12.942   1.813  1.00  0.00     0.171 HD
ENDBRANCH  13  19
ENDBRANCH   1  13
TORSDOF 4
ENDMDL
MODEL 2
REMARK VINA RESULT:    -6.572     26.742     27.392
REMARK INTER + INTRA:          -8.378
REMARK INTER:                  -7.868
REMARK INTRA:                  -0.510
REMARK UNBOUND:                -0.461
REMARK  4 active torsions:
REMARK  status: ('A' for Active; 'I' for Inactive)
REMARK    1  A    between atoms: C_9  and  C_17 
REMARK    2  A    between atoms: N_11  and  N_15 
REMARK    3  A    between atoms: C_17  and  C_18 
REMARK    4  A    between atoms: C_18  and  N_22 
REMARK       I    between atoms: C_19  and  N_22 
ROOT
HETATM    1  C   UNL     1       8.459  -1.535  23.204  1.00  0.00    -0.063 C 
ENDROOT
BRANCH   1   2
HETATM    2  C   UNL     1       9.370  -0.701  23.605  1.00  0.00     0.066 C 
HETATM    3  C   UNL     1      10.271  -1.275  23.350  1.00  0.00     0.233 C 
HETATM    4  N   UNL     1      11.555  -1.615  23.289  1.00  0.00    -0.314 NA
HETATM    5  N   UNL     1      12.618  -1.573  23.163  1.00  0.00    -0.108 N 
HETATM    6  O   UNL     1      13.740  -1.069  23.607  1.00  0.00    -0.072 OA
ATOM      7  HN  UNL     1      12.850  -2.174  22.372  1.00  0.00     0.234 HD
HETATM    8  O   UNL     1      13.486  -0.427  24.685  1.00  0.00    -0.126 OA
HETATM    9  C   UNL     1      12.258  -0.057  24.554  1.00  0.00     0.046 C 
HETATM   10  C   UNL     1      11.013   0.618  24.787  1.00  0.00     0.111 C 
HETATM   11  C   UNL     1       9.680   0.525  24.382  1.00  0.00     0.064 C 
HETATM   12 CL   UNL     1       8.489   1.537  25.039  1.00  0.00    -0.082 Cl
ENDBRANCH   1   2
BRANCH   1  13
HETATM   13  C   UNL     1       7.743  -2.322  22.477  1.00  0.00     0.171 C 
HETATM   14  N   UNL     1       6.968  -1.639  21.789  1.00  0.00    -0.285 N 
ATOM     15  HN  UNL     1       6.529  -2.167  21.035  1.00  0.00     0.188 HD
BRANCH  14  16
HETATM   16  N   UNL     1       6.598  -0.393  21.824  1.00  0.00    -0.343 N 
HETATM   17  H   UNL     1       5.666  -0.200  22.045  1.00  0.00     0.176 HD
ATOM     18  HN  UNL     1       7.259   0.359  21.627  1.00  0.00     0.176 HD
ENDBRANCH  14  16
BRANCH  13  19
HETATM   19  N   UNL     1       7.847  -3.802  22.419  1.00  0.00    -0.306 N 
HETATM   20  C   UNL     1       6.789  -4.500  22.045  1.00  0.00     0.219 C 
HETATM   21  C   UNL     1       7.090  -5.956  21.827  1.00  0.00     0.117 C 
HETATM   22  O   UNL     1       5.656  -4.110  21.819  1.00  0.00    -0.274 OA
HETATM   23  H   UNL     1       8.705  -4.236  22.645  1.00  0.00     0.171 HD
ENDBRANCH  13  19
ENDBRANCH   1  13
TORSDOF 4
ENDMDL
MODEL 3
REMARK VINA RESULT:    -6.563     30.391     33.262
REMARK INTER + INTRA:          -8.367
REMARK INTER:                  -7.707
REMARK INTRA:                  -0.660
REMARK UNBOUND:                -0.461
REMARK  4 active torsions:
REMARK  status: ('A' for Active; 'I' for Inactive)
REMARK    1  A    between atoms: C_9  and  C_17 
REMARK    2  A    between atoms: N_11  and  N_15 
REMARK    3  A    between atoms: C_17  and  C_18 
REMARK    4  A    between atoms: C_18  and  N_22 
REMARK       I    between atoms: C_19  and  N_22 
ROOT
HETATM    1  C   UNL     1      22.893  -2.290  24.434  1.00  0.00    -0.063 C 
ENDROOT
BRANCH   1   2
HETATM    2  C   UNL     1      23.505  -3.069  25.273  1.00  0.00     0.066 C 
HETATM    3  C   UNL     1      23.415  -4.024  24.737  1.00  0.00     0.233 C 
HETATM    4  N   UNL     1      23.477  -5.332  24.504  1.00  0.00    -0.314 NA
HETATM    5  N   UNL     1      23.822  -6.344  24.447  1.00  0.00    -0.108 N 
HETATM    6  O   UNL     1      24.201  -7.397  25.124  1.00  0.00    -0.072 OA
ATOM      7  HN  UNL     1      23.879  -6.586  23.458  1.00  0.00     0.234 HD
HETATM    8  O   UNL     1      24.000  -7.161  26.366  1.00  0.00    -0.126 OA
HETATM    9  C   UNL     1      24.088  -5.878  26.466  1.00  0.00     0.046 C 
HETATM   10  C   UNL     1      24.192  -4.567  27.038  1.00  0.00     0.111 C 
HETATM   11  C   UNL     1      24.061  -3.236  26.638  1.00  0.00     0.064 C 
HETATM   12 CL   UNL     1      24.186  -1.966  27.754  1.00  0.00    -0.082 Cl
ENDBRANCH   1   2
BRANCH   1  13
HETATM   13  C   UNL     1      22.593  -1.596  23.390  1.00  0.00     0.171 C 
HETATM   14  N   UNL     1      21.386  -1.310  23.431  1.00  0.00    -0.285 N 
ATOM     15  HN  UNL     1      21.122  -0.585  22.764  1.00  0.00     0.188 HD
BRANCH  14  16
HETATM   16  N   UNL     1      20.386  -1.737  24.144  1.00  0.00    -0.343 N 
HETATM   17  H   UNL     1      20.145  -1.230  24.943  1.00  0.00     0.176 HD
ATOM     18  HN  UNL     1      19.870  -2.576  23.877  1.00  0.00     0.176 HD
ENDBRANCH  14  16
BRANCH  13  19
HETATM   19  N   UNL     1      23.532  -1.157  22.326  1.00  0.00    -0.306 N 
HETATM   20  C   UNL     1      23.437  -1.706  21.127  1.00  0.00     0.219 C 
HETATM   21  C   UNL     1      24.298  -1.027  20.099  1.00  0.00     0.117 C 
HETATM   22  O   UNL     1      22.728  -2.628  20.762  1.00  0.00    -0.274 OA
HETATM   23  H   UNL     1      24.198  -0.456  22.528  1.00  0.00     0.171 HD
ENDBRANCH  13  19
ENDBRANCH   1  13
TORSDOF 4
ENDMDL
MODEL 4
REMARK VINA RESULT:    -6.554     28.157     31.576
REMARK INTER + INTRA:          -8.356
REMARK INTER:                  -7.741
REMARK INTRA:                  -0.615
REMARK UNBOUND:                -0.461
REMARK  4 active torsions:
REMARK  status: ('A' for Active; 'I' for Inactive)
REMARK    1  A    between atoms: C_9  and  C_17 
REMARK    2  A    between atoms: N_11  and  N_15 
REMARK    3  A    between atoms: C_17  and  C_18 
REMARK    4  A    between atoms: C_18  and  N_22 
REMARK       I    between atoms: C_19  and  N_22 
ROOT
HETATM    1  C   UNL     1       6.564  -5.097  24.046  1.00  0.00    -0.063 C 
ENDROOT
BRANCH   1   2
HETATM    2  C   UNL     1       5.848  -5.406  25.084  1.00  0.00     0.066 C 
HETATM    3  C   UNL     1       6.650  -5.634  25.800  1.00  0.00     0.233 C 
HETATM    4  N   UNL     1       7.243  -6.056  26.912  1.00  0.00    -0.314 NA
HETATM    5  N   UNL     1       7.480  -6.223  27.943  1.00  0.00    -0.108 N 
HETATM    6  O   UNL     1       7.081  -6.748  29.073  1.00  0.00    -0.072 OA
ATOM      7  HN  UNL     1       8.391  -5.798  28.114  1.00  0.00     0.234 HD
HETATM    8  O   UNL     1       6.008  -7.408  28.846  1.00  0.00    -0.126 OA
HETATM    9  C   UNL     1       5.481  -6.819  27.827  1.00  0.00     0.046 C 
HETATM   10  C   UNL     1       4.529  -6.440  26.824  1.00  0.00     0.111 C 
HETATM   11  C   UNL     1       4.504  -5.745  25.613  1.00  0.00     0.064 C 
HETATM   12 CL   UNL     1       3.086  -5.637  24.690  1.00  0.00    -0.082 Cl
ENDBRANCH   1   2
BRANCH   1  13
HETATM   13  C   UNL     1       7.546  -4.764  23.282  1.00  0.00     0.171 C 
HETATM   14  N   UNL     1       7.439  -5.370  22.203  1.00  0.00    -0.285 N 
ATOM     15  HN  UNL     1       8.045  -4.999  21.472  1.00  0.00     0.188 HD
BRANCH  14  16
HETATM   16  N   UNL     1       6.719  -6.378  21.808  1.00  0.00    -0.343 N 
HETATM   17  H   UNL     1       6.185  -6.267  20.997  1.00  0.00     0.176 HD
ATOM     18  HN  UNL     1       6.711  -7.256  22.327  1.00  0.00     0.176 HD
ENDBRANCH  14  16
BRANCH  13  19
HETATM   19  N   UNL     1       8.613  -3.781  23.599  1.00  0.00    -0.306 N 
HETATM   20  C   UNL     1       8.590  -2.603  22.999  1.00  0.00     0.219 C 
HETATM   21  C   UNL     1       9.594  -1.636  23.562  1.00  0.00     0.117 C 
HETATM   22  O   UNL     1       7.852  -2.209  22.113  1.00  0.00    -0.274 OA
HETATM   23  H   UNL     1       9.307  -4.017  24.260  1.00  0.00     0.171 HD
ENDBRANCH  13  19
ENDBRANCH   1  13
TORSDOF 4
ENDMDL
MODEL 5
REMARK VINA RESULT:    -6.554     34.572     35.766
REMARK INTER + INTRA:          -8.356
REMARK INTER:                  -7.699
REMARK INTRA:                  -0.657
REMARK UNBOUND:                -0.461
REMARK  4 active torsions:
REMARK  status: ('A' for Active; 'I' for Inactive)
REMARK    1  A    between atoms: C_9  and  C_17 
REMARK    2  A    between atoms: N_11  and  N_15 
REMARK    3  A    between atoms: C_17  and  C_18 
REMARK    4  A    between atoms: C_18  and  N_22 
REMARK       I    between atoms: C_19  and  N_22 
ROOT
HETATM    1  C   UNL     1      -0.304 -16.918  10.236  1.00  0.00    -0.063 C 
ENDROOT
BRANCH   1   2
HETATM    2  C   UNL     1      -1.402 -16.897  10.928  1.00  0.00     0.066 C 
HETATM    3  C   UNL     1      -1.004 -16.564  11.896  1.00  0.00     0.233 C 
HETATM    4  N   UNL     1      -0.966 -16.272  13.193  1.00  0.00    -0.314 NA
HETATM    5  N   UNL     1      -1.215 -15.888  14.161  1.00  0.00    -0.108 N 
HETATM    6  O   UNL     1      -2.066 -15.929  15.154  1.00  0.00    -0.072 OA
ATOM      7  HN  UNL     1      -0.492 -15.215  14.413  1.00  0.00     0.234 HD
HETATM    8  O   UNL     1      -2.902 -16.870  14.920  1.00  0.00    -0.126 OA
HETATM    9  C   UNL     1      -2.929 -16.961  13.634  1.00  0.00     0.046 C 
HETATM   10  C   UNL     1      -3.335 -17.333  12.309  1.00  0.00     0.111 C 
HETATM   11  C   UNL     1      -2.830 -17.291  11.008  1.00  0.00     0.064 C 
HETATM   12 CL   UNL     1      -3.681 -17.978   9.712  1.00  0.00    -0.082 Cl
ENDBRANCH   1   2
BRANCH   1  13
HETATM   13  C   UNL     1       0.762 -17.312   9.627  1.00  0.00     0.171 C 
HETATM   14  N   UNL     1       1.370 -16.318   9.198  1.00  0.00    -0.285 N 
ATOM     15  HN  UNL     1       2.323 -16.528   8.902  1.00  0.00     0.188 HD
BRANCH  14  16
HETATM   16  N   UNL     1       1.050 -15.067   9.047  1.00  0.00    -0.343 N 
HETATM   17  H   UNL     1       1.697 -14.480   8.609  1.00  0.00     0.176 HD
ATOM     18  HN  UNL     1       0.152 -14.709   9.375  1.00  0.00     0.176 HD
ENDBRANCH  14  16
BRANCH  13  19
HETATM   19  N   UNL     1       1.230 -18.715   9.494  1.00  0.00    -0.306 N 
HETATM   20  C   UNL     1       1.615 -19.146   8.305  1.00  0.00     0.219 C 
HETATM   21  C   UNL     1       2.258 -20.504   8.350  1.00  0.00     0.117 C 
HETATM   22  O   UNL     1       1.555 -18.578   7.228  1.00  0.00    -0.274 OA
HETATM   23  H   UNL     1       1.261 -19.293  10.294  1.00  0.00     0.171 HD
ENDBRANCH  13  19
ENDBRANCH   1  13
TORSDOF 4
ENDMDL
MODEL 6
REMARK VINA RESULT:    -6.395     24.564     28.066
REMARK INTER + INTRA:          -8.164
REMARK INTER:                  -7.566
REMARK INTRA:                  -0.598
REMARK UNBOUND:                -0.461
REMARK  4 active torsions:
REMARK  status: ('A' for Active; 'I' for Inactive)
REMARK    1  A    between atoms: C_9  and  C_17 
REMARK    2  A    between atoms: N_11  and  N_15 
REMARK    3  A    between atoms: C_17  and  C_18 
REMARK    4  A    between atoms: C_18  and  N_22 
REMARK       I    between atoms: C_19  and  N_22 
ROOT
HETATM    1  C   UNL     1       8.211  -2.016  22.161  1.00  0.00    -0.063 C 
ENDROOT
BRANCH   1   2
HETATM    2  C   UNL     1       7.867  -3.071  22.835  1.00  0.00     0.066 C 
HETATM    3  C   UNL     1       8.282  -2.805  23.817  1.00  0.00     0.233 C 
HETATM    4  N   UNL     1       8.661  -2.934  25.085  1.00  0.00    -0.314 NA
HETATM    5  N   UNL     1       8.670  -3.172  26.129  1.00  0.00    -0.108 N 
HETATM    6  O   UNL     1       8.641  -4.130  27.020  1.00  0.00    -0.072 OA
ATOM      7  HN  UNL     1       8.724  -2.290  26.638  1.00  0.00     0.234 HD
HETATM    8  O   UNL     1       8.718  -5.248  26.402  1.00  0.00    -0.126 OA
HETATM    9  C   UNL     1       8.210  -5.007  25.242  1.00  0.00     0.046 C 
HETATM   10  C   UNL     1       7.663  -5.214  23.932  1.00  0.00     0.111 C 
HETATM   11  C   UNL     1       7.360  -4.465  22.793  1.00  0.00     0.064 C 
HETATM   12 CL   UNL     1       6.792  -5.206  21.378  1.00  0.00    -0.082 Cl
ENDBRANCH   1   2
BRANCH   1  13
HETATM   13  C   UNL     1       8.177  -0.958  21.426  1.00  0.00     0.171 C 
HETATM   14  N   UNL     1       9.340  -0.594  21.192  1.00  0.00    -0.285 N 
ATOM     15  HN  UNL     1       9.402   0.097  20.445  1.00  0.00     0.188 HD
BRANCH  14  16
HETATM   16  N   UNL     1      10.497  -0.906  21.696  1.00  0.00    -0.343 N 
HETATM   17  H   UNL     1      10.516  -1.549  22.432  1.00  0.00     0.176 HD
ATOM     18  HN  UNL     1      11.358  -0.494  21.335  1.00  0.00     0.176 HD
ENDBRANCH  14  16
BRANCH  13  19
HETATM   19  N   UNL     1       6.959  -0.296  20.895  1.00  0.00    -0.306 N 
HETATM   20  C   UNL     1       6.970   0.153  19.651  1.00  0.00     0.219 C 
HETATM   21  C   UNL     1       5.618   0.606  19.176  1.00  0.00     0.117 C 
HETATM   22  O   UNL     1       7.898   0.198  18.862  1.00  0.00    -0.274 OA
HETATM   23  H   UNL     1       6.160  -0.217  21.471  1.00  0.00     0.171 HD
ENDBRANCH  13  19
ENDBRANCH   1  13
TORSDOF 4
ENDMDL
MODEL 7
REMARK VINA RESULT:    -6.342     34.769     36.097
REMARK INTER + INTRA:          -8.100
REMARK INTER:                  -7.470
REMARK INTRA:                  -0.630
REMARK UNBOUND:                -0.461
REMARK  4 active torsions:
REMARK  status: ('A' for Active; 'I' for Inactive)
REMARK    1  A    between atoms: C_9  and  C_17 
REMARK    2  A    between atoms: N_11  and  N_15 
REMARK    3  A    between atoms: C_17  and  C_18 
REMARK    4  A    between atoms: C_18  and  N_22 
REMARK       I    between atoms: C_19  and  N_22 
ROOT
HETATM    1  C   UNL     1       1.974 -18.841   9.025  1.00  0.00    -0.063 C 
ENDROOT
BRANCH   1   2
HETATM    2  C   UNL     1       1.052 -17.940   8.875  1.00  0.00     0.066 C 
HETATM    3  C   UNL     1       0.830 -17.726   9.930  1.00  0.00     0.233 C 
HETATM    4  N   UNL     1       0.212 -17.226  10.996  1.00  0.00    -0.314 NA
HETATM    5  N   UNL     1      -0.272 -16.553  11.674  1.00  0.00    -0.108 N 
HETATM    6  O   UNL     1      -1.311 -15.785  11.876  1.00  0.00    -0.072 OA
ATOM      7  HN  UNL     1       0.320 -16.483  12.501  1.00  0.00     0.234 HD
HETATM    8  O   UNL     1      -2.134 -15.969  10.913  1.00  0.00    -0.126 OA
HETATM    9  C   UNL     1      -1.390 -16.330   9.923  1.00  0.00     0.046 C 
HETATM   10  C   UNL     1      -0.972 -16.652   8.590  1.00  0.00     0.111 C 
HETATM   11  C   UNL     1       0.106 -17.268   7.951  1.00  0.00     0.064 C 
HETATM   12 CL   UNL     1       0.107 -17.520   6.274  1.00  0.00    -0.082 Cl
ENDBRANCH   1   2
BRANCH   1  13
HETATM   13  C   UNL     1       2.645 -19.939   8.962  1.00  0.00     0.171 C 
HETATM   14  N   UNL     1       3.852 -19.681   9.099  1.00  0.00    -0.285 N 
ATOM     15  HN  UNL     1       4.421 -20.507   9.281  1.00  0.00     0.188 HD
BRANCH  14  16
HETATM   16  N   UNL     1       4.544 -18.581   9.059  1.00  0.00    -0.343 N 
HETATM   17  H   UNL     1       4.736 -18.194   8.183  1.00  0.00     0.176 HD
ATOM     18  HN  UNL     1       4.876 -18.137   9.915  1.00  0.00     0.176 HD
ENDBRANCH  14  16
BRANCH  13  19
HETATM   19  N   UNL     1       2.084 -21.305   8.805  1.00  0.00    -0.306 N 
HETATM   20  C   UNL     1       2.742 -22.182   8.067  1.00  0.00     0.219 C 
HETATM   21  C   UNL     1       2.180 -23.573   8.163  1.00  0.00     0.117 C 
HETATM   22  O   UNL     1       3.737 -22.013   7.383  1.00  0.00    -0.274 OA
HETATM   23  H   UNL     1       1.241 -21.538   9.265  1.00  0.00     0.171 HD
ENDBRANCH  13  19
ENDBRANCH   1  13
TORSDOF 4
ENDMDL
MODEL 8
REMARK VINA RESULT:    -6.327     24.732     27.716
REMARK INTER + INTRA:          -8.082
REMARK INTER:                  -7.460
REMARK INTRA:                  -0.622
REMARK UNBOUND:                -0.461
REMARK  4 active torsions:
REMARK  status: ('A' for Active; 'I' for Inactive)
REMARK    1  A    between atoms: C_9  and  C_17 
REMARK    2  A    between atoms: N_11  and  N_15 
REMARK    3  A    between atoms: C_17  and  C_18 
REMARK    4  A    between atoms: C_18  and  N_22 
REMARK       I    between atoms: C_19  and  N_22 
ROOT
HETATM    1  C   UNL     1       8.032  -3.463  23.122  1.00  0.00    -0.063 C 
ENDROOT
BRANCH   1   2
HETATM    2  C   UNL     1       8.459  -2.324  22.669  1.00  0.00     0.066 C 
HETATM    3  C   UNL     1       7.551  -1.976  22.158  1.00  0.00     0.233 C 
HETATM    4  N   UNL     1       6.763  -1.229  21.392  1.00  0.00    -0.314 NA
HETATM    5  N   UNL     1       6.275  -0.389  20.941  1.00  0.00    -0.108 N 
HETATM    6  O   UNL     1       6.427   0.688  20.214  1.00  0.00    -0.072 OA
ATOM      7  HN  UNL     1       5.284  -0.456  21.175  1.00  0.00     0.234 HD
HETATM    8  O   UNL     1       7.635   0.712  19.791  1.00  0.00    -0.126 OA
HETATM    9  C   UNL     1       8.299   0.061  20.684  1.00  0.00     0.046 C 
HETATM   10  C   UNL     1       9.399  -0.473  21.433  1.00  0.00     0.111 C 
HETATM   11  C   UNL     1       9.628  -1.450  22.405  1.00  0.00     0.064 C 
HETATM   12 CL   UNL     1      11.198  -1.806  22.940  1.00  0.00    -0.082 Cl
ENDBRANCH   1   2
BRANCH   1  13
HETATM   13  C   UNL     1       7.902  -4.547  23.808  1.00  0.00     0.171 C 
HETATM   14  N   UNL     1       7.774  -5.504  23.027  1.00  0.00    -0.285 N 
ATOM     15  HN  UNL     1       7.887  -6.410  23.481  1.00  0.00     0.188 HD
BRANCH  14  16
HETATM   16  N   UNL     1       7.526  -5.596  21.754  1.00  0.00    -0.343 N 
HETATM   17  H   UNL     1       7.756  -6.432  21.304  1.00  0.00     0.176 HD
ATOM     18  HN  UNL     1       7.105  -4.820  21.242  1.00  0.00     0.176 HD
ENDBRANCH  14  16
BRANCH  13  19
HETATM   19  N   UNL     1       7.947  -4.661  25.288  1.00  0.00    -0.306 N 
HETATM   20  C   UNL     1       6.973  -5.306  25.906  1.00  0.00     0.219 C 
HETATM   21  C   UNL     1       7.248  -5.528  27.367  1.00  0.00     0.117 C 
HETATM   22  O   UNL     1       5.943  -5.764  25.442  1.00  0.00    -0.274 OA
HETATM   23  H   UNL     1       8.708  -4.268  25.780  1.00  0.00     0.171 HD
ENDBRANCH  13  19
ENDBRANCH   1  13
TORSDOF 4
ENDMDL
MODEL 9
REMARK VINA RESULT:    -6.217     23.456     25.864
REMARK INTER + INTRA:          -7.950
REMARK INTER:                  -7.381
REMARK INTRA:                  -0.569
REMARK UNBOUND:                -0.461
REMARK  4 active torsions:
REMARK  status: ('A' for Active; 'I' for Inactive)
REMARK    1  A    between atoms: C_9  and  C_17 
REMARK    2  A    between atoms: N_11  and  N_15 
REMARK    3  A    between atoms: C_17  and  C_18 
REMARK    4  A    between atoms: C_18  and  N_22 
REMARK       I    between atoms: C_19  and  N_22 
ROOT
HETATM    1  C   UNL     1       8.564  -0.067  22.024  1.00  0.00    -0.063 C 
ENDROOT
BRANCH   1   2
HETATM    2  C   UNL     1       9.637   0.485  22.503  1.00  0.00     0.066 C 
HETATM    3  C   UNL     1      10.287  -0.398  22.565  1.00  0.00     0.233 C 
HETATM    4  N   UNL     1      11.340  -1.150  22.872  1.00  0.00    -0.314 NA
HETATM    5  N   UNL     1      12.345  -1.494  23.004  1.00  0.00    -0.108 N 
HETATM    6  O   UNL     1      13.480  -1.303  23.627  1.00  0.00    -0.072 OA
ATOM      7  HN  UNL     1      12.469  -2.302  22.395  1.00  0.00     0.234 HD
HETATM    8  O   UNL     1      13.303  -0.384  24.500  1.00  0.00    -0.126 OA
HETATM    9  C   UNL     1      12.345   0.332  24.019  1.00  0.00     0.046 C 
HETATM   10  C   UNL     1      11.424   1.416  23.835  1.00  0.00     0.111 C 
HETATM   11  C   UNL     1      10.244   1.681  23.137  1.00  0.00     0.064 C 
HETATM   12 CL   UNL     1       9.424   3.154  23.322  1.00  0.00    -0.082 Cl
ENDBRANCH   1   2
BRANCH   1  13
HETATM   13  C   UNL     1       7.440  -0.260  21.423  1.00  0.00     0.171 C 
HETATM   14  N   UNL     1       6.672  -0.860  22.192  1.00  0.00    -0.285 N 
ATOM     15  HN  UNL     1       5.702  -0.854  21.875  1.00  0.00     0.188 HD
BRANCH  14  16
HETATM   16  N   UNL     1       6.840  -1.494  23.314  1.00  0.00    -0.343 N 
HETATM   17  H   UNL     1       6.913  -2.467  23.282  1.00  0.00     0.176 HD
ATOM     18  HN  UNL     1       6.893  -0.991  24.201  1.00  0.00     0.176 HD
ENDBRANCH  14  16
BRANCH  13  19
HETATM   19  N   UNL     1       7.085   0.197  20.056  1.00  0.00    -0.306 N 
HETATM   20  C   UNL     1       6.122  -0.434  19.405  1.00  0.00     0.219 C 
HETATM   21  C   UNL     1       5.723   0.256  18.130  1.00  0.00     0.117 C 
HETATM   22  O   UNL     1       5.513  -1.440  19.726  1.00  0.00    -0.274 OA
HETATM   23  H   UNL     1       7.561   0.968  19.664  1.00  0.00     0.171 HD
ENDBRANCH  13  19
ENDBRANCH   1  13
TORSDOF 4
ENDMDL
