stable:False satoms:7 tatoms:24 sratio:0.2916666666666667
  -OEChem-08062412563D

 43 43  0     0  0  0  0  0  0999 V2000
    6.5482   -5.3220   26.1695 C   0  0  0  0  0  0  0  0  0  0  0  0
    8.1266   -4.6953   25.9975 S   0  0  0  0  0  0  0  0  0  0  0  0
    9.0443   -5.7927   25.9080 O   0  0  0  0  0  0  0  0  0  0  0  0
    8.4169   -3.8376   27.1238 O   0  0  0  0  0  0  0  0  0  0  0  0
    8.1005   -3.8991   24.6047 N   0  0  0  0  0  0  0  0  0  0  0  0
    8.8946   -3.1601   24.1775 C   0  0  0  0  0  0  0  0  0  0  0  0
    9.3674   -2.2148   23.6570 C   0  0  0  0  0  0  0  0  0  0  0  0
   10.2604   -1.4464   23.1872 C   0  0  0  0  0  0  0  0  0  0  0  0
   10.9826    0.0971   25.0460 C   0  0  0  0  0  0  0  0  0  0  0  0
   11.8851    0.1903   24.8115 C   0  0  0  0  0  0  0  0  0  0  0  0
   12.9319   -0.1229   24.0761 C   0  0  0  0  0  0  0  0  0  0  0  0
   12.6659   -1.1299   23.1605 C   0  0  0  0  0  0  0  0  0  0  0  0
   11.7438   -1.6068   22.9275 C   0  0  0  0  0  0  0  0  0  0  0  0
    9.6837   -0.5721   22.6091 C   0  0  0  0  0  0  0  0  0  0  0  0
    9.0454    0.0760   21.6810 C   0  0  0  0  0  0  0  0  0  0  0  0
    9.5409    1.0491   21.3545 O   0  0  0  0  0  0  0  0  0  0  0  0
    7.9448   -0.5642   21.2882 N   0  0  0  0  0  0  0  0  0  0  0  0
    7.2384   -0.0575   20.3474 C   0  0  0  0  0  0  0  0  0  0  0  0
    7.3779    0.1178   19.0521 C   0  0  0  0  0  0  0  0  0  0  0  0
    7.0255    0.4436   17.9509 N   0  0  0  0  0  0  0  0  0  0  0  0
    5.8397    0.9786   18.4016 C   0  0  0  0  0  0  0  0  0  0  0  0
    5.3856    0.9735   19.5117 C   0  0  0  0  0  0  0  0  0  0  0  0
    5.8323    0.5065   20.6699 C   0  0  0  0  0  0  0  0  0  0  0  0
    5.1524    0.5012   22.1152 C   0  0  0  0  0  0  0  0  0  0  0  0
    6.4785   -5.8887   27.1097 H   0  0  0  0  0  0  0  0  0  0  0  0
    5.8248   -4.4936   26.1864 H   0  0  0  0  0  0  0  0  0  0  0  0
    6.3238   -5.9876   25.3229 H   0  0  0  0  0  0  0  0  0  0  0  0
    7.2537   -3.3679   24.6349 H   0  0  0  0  0  0  0  0  0  0  0  0
   10.3553   -0.6014   24.5120 H   0  0  0  0  0  0  0  0  0  0  0  0
   10.5697    0.6880   25.8502 H   0  0  0  0  0  0  0  0  0  0  0  0
   12.2583    0.9386   25.4951 H   0  0  0  0  0  0  0  0  0  0  0  0
   13.7409   -0.4583   24.7417 H   0  0  0  0  0  0  0  0  0  0  0  0
   13.2565    0.7737   23.5275 H   0  0  0  0  0  0  0  0  0  0  0  0
   13.5205   -1.4818   22.6016 H   0  0  0  0  0  0  0  0  0  0  0  0
   11.9210   -2.4777   22.3140 H   0  0  0  0  0  0  0  0  0  0  0  0
    9.7137    0.1933   23.3705 H   0  0  0  0  0  0  0  0  0  0  0  0
    7.6751   -1.4248   21.7202 H   0  0  0  0  0  0  0  0  0  0  0  0
    8.3856   -0.2299   18.8790 H   0  0  0  0  0  0  0  0  0  0  0  0
    5.2358    1.4701   17.6532 H   0  0  0  0  0  0  0  0  0  0  0  0
    4.4165    1.4448   19.5825 H   0  0  0  0  0  0  0  0  0  0  0  0
    4.5728   -0.4247   22.2449 H   0  0  0  0  0  0  0  0  0  0  0  0
    5.9334    0.5560   22.8879 H   0  0  0  0  0  0  0  0  0  0  0  0
    4.4828    1.3689   22.2084 H   0  0  0  0  0  0  0  0  0  0  0  0
 20 21  2  0  0  0  0
 19 20  1  0  0  0  0
 21 22  1  0  0  0  0
 18 19  2  0  0  0  0
 22 23  2  0  0  0  0
 18 23  1  0  0  0  0
 17 18  1  0  0  0  0
 23 24  1  0  0  0  0
 15 16  2  0  0  0  0
 15 17  1  0  0  0  0
 14 15  1  0  0  0  0
  8 14  2  3  0  0  0
 12 13  2  0  0  0  0
  8 13  1  0  0  0  0
 11 12  1  0  0  0  0
  7  8  1  0  0  0  0
  6  7  3  0  0  0  0
 10 11  1  0  0  0  0
  5  6  1  0  0  0  0
  9 10  2  0  0  0  0
  2  5  1  0  0  0  0
  2  3  2  0  0  0  0
  1  2  1  0  0  0  0
  2  4  2  0  0  0  0
  1 25  1  0  0  0  0
  1 26  1  0  0  0  0
  1 27  1  0  0  0  0
  5 28  1  0  0  0  0
  9 29  1  0  0  0  0
  9 30  1  0  0  0  0
 10 31  1  0  0  0  0
 11 32  1  0  0  0  0
 11 33  1  0  0  0  0
 12 34  1  0  0  0  0
 13 35  1  0  0  0  0
 14 36  1  0  0  0  0
 17 37  1  0  0  0  0
 19 38  1  0  0  0  0
 21 39  1  0  0  0  0
 22 40  1  0  0  0  0
 24 41  1  0  0  0  0
 24 42  1  0  0  0  0
 24 43  1  0  0  0  0
M  END
> <Chemgauss4>
-13.478596

$$$$
