MODEL 1
REMARK VINA RESULT:    -7.263      0.000      0.000
REMARK INTER + INTRA:         -11.390
REMARK INTER:                 -10.235
REMARK INTRA:                  -1.155
REMARK UNBOUND:                -1.155
REMARK  7 active torsions:
REMARK  status: ('A' for Active; 'I' for Inactive)
REMARK    1  A    between atoms: S_2  and  N_5 
REMARK    2  A    between atoms: N_5  and  C_7 
REMARK    3  A    between atoms: C_7  and  C_8 
REMARK    4  A    between atoms: C_8  and  C_9 
REMARK    5  A    between atoms: C_9  and  C_15 
REMARK    6  A    between atoms: C_15  and  C_16 
REMARK       I    between atoms: C_16  and  N_18 
REMARK    7  A    between atoms: N_18  and  C_20 
ROOT
HETATM    1  C   UNL     1       9.371  -1.534  23.277  1.00  0.00     0.068 C 
HETATM    2  C   UNL     1       9.550  -0.635  24.581  1.00  0.00     0.000 C 
HETATM    3  C   UNL     1      10.495  -0.060  24.964  1.00  0.00    -0.002 C 
HETATM    4  C   UNL     1      11.697  -0.122  24.438  1.00  0.00    -0.001 C 
HETATM    5  C   UNL     1      11.796  -0.990  23.360  1.00  0.00    -0.002 C 
HETATM    6  C   UNL     1      11.088  -1.592  22.873  1.00  0.00     0.000 C 
ENDROOT
BRANCH   1   7
HETATM    7  C   UNL     1       8.725  -2.617  23.135  1.00  0.00     0.135 C 
BRANCH   7   8
HETATM    8  C   UNL     1       7.868  -3.403  23.360  1.00  0.00    -0.058 C 
BRANCH   8   9
HETATM    9  N   UNL     1       6.786  -3.946  23.333  1.00  0.00    -0.254 N 
ATOM     10  HN  UNL     1       6.392  -4.125  24.257  1.00  0.00     0.188 HD
BRANCH   9  11
HETATM   11  S   UNL     1       5.847  -4.439  22.117  1.00  0.00     0.233 S 
HETATM   12  C   UNL     1       6.556  -5.676  21.448  1.00  0.00     0.186 C 
HETATM   13  O   UNL     1       4.551  -4.874  22.631  1.00  0.00    -0.206 OA
HETATM   14  O   UNL     1       5.654  -3.362  21.163  1.00  0.00    -0.206 OA
ENDBRANCH   9  11
ENDBRANCH   8   9
ENDBRANCH   7   8
ENDBRANCH   1   7
BRANCH   1  15
HETATM   15  C   UNL     1       8.874  -0.925  22.312  1.00  0.00    -0.064 C 
BRANCH  15  16
HETATM   16  C   UNL     1       8.381  -0.341  21.251  1.00  0.00     0.290 C 
HETATM   17  O   UNL     1       9.133   0.300  20.670  1.00  0.00    -0.259 OA
HETATM   18  N   UNL     1       7.081  -0.638  21.097  1.00  0.00    -0.315 N 
ATOM     19  HN  UNL     1       6.585  -1.215  21.777  1.00  0.00     0.170 HD
BRANCH  18  20
HETATM   20  C   UNL     1       6.506  -0.184  20.093  1.00  0.00     0.060 A 
HETATM   21  C   UNL     1       6.195  -0.508  18.882  1.00  0.00     0.117 A 
HETATM   22  N   UNL     1       5.692  -0.377  17.755  1.00  0.00    -0.373 N 
HETATM   23  C   UNL     1       5.221   0.834  18.046  1.00  0.00     0.088 A 
ATOM     24  HN  UNL     1       5.653  -0.969  16.925  1.00  0.00     0.164 HD
HETATM   25  C   UNL     1       5.297   1.513  19.071  1.00  0.00     0.030 A 
HETATM   26  C   UNL     1       5.823   1.280  20.221  1.00  0.00    -0.016 A 
HETATM   27  C   UNL     1       5.871   2.016  21.325  1.00  0.00     0.026 C 
ENDBRANCH  18  20
ENDBRANCH  15  16
ENDBRANCH   1  15
TORSDOF 7
ENDMDL
MODEL 2
REMARK VINA RESULT:    -6.973      2.632      5.840
REMARK INTER + INTRA:         -10.982
REMARK INTER:                  -9.989
REMARK INTRA:                  -0.993
REMARK UNBOUND:                -1.155
REMARK  7 active torsions:
REMARK  status: ('A' for Active; 'I' for Inactive)
REMARK    1  A    between atoms: S_2  and  N_5 
REMARK    2  A    between atoms: N_5  and  C_7 
REMARK    3  A    between atoms: C_7  and  C_8 
REMARK    4  A    between atoms: C_8  and  C_9 
REMARK    5  A    between atoms: C_9  and  C_15 
REMARK    6  A    between atoms: C_15  and  C_16 
REMARK       I    between atoms: C_16  and  N_18 
REMARK    7  A    between atoms: N_18  and  C_20 
ROOT
HETATM    1  C   UNL     1      10.376  -0.841  23.321  1.00  0.00     0.068 C 
HETATM    2  C   UNL     1      11.729  -1.568  22.893  1.00  0.00     0.000 C 
HETATM    3  C   UNL     1      12.818  -1.408  23.293  1.00  0.00    -0.002 C 
HETATM    4  C   UNL     1      13.196  -0.478  24.139  1.00  0.00    -0.001 C 
HETATM    5  C   UNL     1      12.176   0.379  24.527  1.00  0.00    -0.002 C 
HETATM    6  C   UNL     1      11.156   0.414  24.286  1.00  0.00     0.000 C 
ENDROOT
BRANCH   1   7
HETATM    7  C   UNL     1       9.405  -0.467  22.595  1.00  0.00     0.135 C 
BRANCH   7   8
HETATM    8  C   UNL     1       8.643  -0.531  21.690  1.00  0.00    -0.058 C 
BRANCH   8   9
HETATM    9  N   UNL     1       7.611  -0.707  21.082  1.00  0.00    -0.254 N 
ATOM     10  HN  UNL     1       7.124  -1.566  21.337  1.00  0.00     0.188 HD
BRANCH   9  11
HETATM   11  S   UNL     1       6.859   0.157  19.946  1.00  0.00     0.233 S 
HETATM   12  C   UNL     1       5.572  -0.646  19.519  1.00  0.00     0.186 C 
HETATM   13  O   UNL     1       6.437   1.444  20.494  1.00  0.00    -0.206 OA
HETATM   14  O   UNL     1       7.742   0.378  18.816  1.00  0.00    -0.206 OA
ENDBRANCH   9  11
ENDBRANCH   8   9
ENDBRANCH   7   8
ENDBRANCH   1   7
BRANCH   1  15
HETATM   15  C   UNL     1       9.711  -1.473  24.163  1.00  0.00    -0.064 C 
BRANCH  15  16
HETATM   16  C   UNL     1       9.040  -2.203  25.013  1.00  0.00     0.290 C 
HETATM   17  O   UNL     1       8.776  -1.669  25.993  1.00  0.00    -0.259 OA
HETATM   18  N   UNL     1       8.817  -3.433  24.524  1.00  0.00    -0.315 N 
ATOM     19  HN  UNL     1       9.188  -3.717  23.617  1.00  0.00     0.170 HD
BRANCH  18  20
HETATM   20  C   UNL     1       8.142  -4.212  25.218  1.00  0.00     0.060 A 
HETATM   21  C   UNL     1       8.256  -5.019  26.220  1.00  0.00     0.117 A 
HETATM   22  N   UNL     1       7.887  -5.826  27.088  1.00  0.00    -0.373 N 
HETATM   23  C   UNL     1       6.624  -5.784  26.668  1.00  0.00     0.088 A 
ATOM     24  HN  UNL     1       8.367  -6.328  27.835  1.00  0.00     0.164 HD
HETATM   25  C   UNL     1       6.091  -5.158  25.751  1.00  0.00     0.030 A 
HETATM   26  C   UNL     1       6.554  -4.308  24.906  1.00  0.00    -0.016 A 
HETATM   27  C   UNL     1       5.956  -3.621  23.939  1.00  0.00     0.026 C 
ENDBRANCH  18  20
ENDBRANCH  15  16
ENDBRANCH   1  15
TORSDOF 7
ENDMDL
MODEL 3
REMARK VINA RESULT:    -6.575      2.307      6.057
REMARK INTER + INTRA:         -10.421
REMARK INTER:                  -9.419
REMARK INTRA:                  -1.002
REMARK UNBOUND:                -1.155
REMARK  7 active torsions:
REMARK  status: ('A' for Active; 'I' for Inactive)
REMARK    1  A    between atoms: S_2  and  N_5 
REMARK    2  A    between atoms: N_5  and  C_7 
REMARK    3  A    between atoms: C_7  and  C_8 
REMARK    4  A    between atoms: C_8  and  C_9 
REMARK    5  A    between atoms: C_9  and  C_15 
REMARK    6  A    between atoms: C_15  and  C_16 
REMARK       I    between atoms: C_16  and  N_18 
REMARK    7  A    between atoms: N_18  and  C_20 
ROOT
HETATM    1  C   UNL     1       7.016   0.307  20.560  1.00  0.00     0.068 C 
HETATM    2  C   UNL     1       5.875   1.408  20.726  1.00  0.00     0.000 C 
HETATM    3  C   UNL     1       5.150   1.853  19.923  1.00  0.00    -0.002 C 
HETATM    4  C   UNL     1       5.192   1.614  18.632  1.00  0.00    -0.001 C 
HETATM    5  C   UNL     1       6.234   0.781  18.248  1.00  0.00    -0.002 C 
HETATM    6  C   UNL     1       6.982   0.291  18.796  1.00  0.00     0.000 C 
ENDROOT
BRANCH   1   7
HETATM    7  C   UNL     1       8.164   0.257  21.099  1.00  0.00     0.135 C 
BRANCH   7   8
HETATM    8  C   UNL     1       9.328   0.045  21.148  1.00  0.00    -0.058 C 
BRANCH   8   9
HETATM    9  N   UNL     1      10.385  -0.430  21.501  1.00  0.00    -0.254 N 
ATOM     10  HN  UNL     1      11.150  -0.264  20.848  1.00  0.00     0.188 HD
BRANCH   9  11
HETATM   11  S   UNL     1      10.813  -1.275  22.807  1.00  0.00     0.233 S 
HETATM   12  C   UNL     1      10.815  -0.282  24.030  1.00  0.00     0.186 C 
HETATM   13  O   UNL     1       9.830  -2.324  23.068  1.00  0.00    -0.206 OA
HETATM   14  O   UNL     1      12.120  -1.874  22.611  1.00  0.00    -0.206 OA
ENDBRANCH   9  11
ENDBRANCH   8   9
ENDBRANCH   7   8
ENDBRANCH   1   7
BRANCH   1  15
HETATM   15  C   UNL     1       6.650  -0.845  20.861  1.00  0.00    -0.064 C 
BRANCH  15  16
HETATM   16  C   UNL     1       6.256  -2.068  21.099  1.00  0.00     0.290 C 
HETATM   17  O   UNL     1       5.421  -2.441  20.408  1.00  0.00    -0.259 OA
HETATM   18  N   UNL     1       6.940  -2.604  22.122  1.00  0.00    -0.315 N 
ATOM     19  HN  UNL     1       7.634  -2.063  22.637  1.00  0.00     0.170 HD
BRANCH  18  20
HETATM   20  C   UNL     1       6.694  -3.786  22.417  1.00  0.00     0.060 A 
HETATM   21  C   UNL     1       6.991  -4.992  22.061  1.00  0.00     0.117 A 
HETATM   22  N   UNL     1       6.985  -6.232  22.103  1.00  0.00    -0.373 N 
HETATM   23  C   UNL     1       6.163  -6.247  23.151  1.00  0.00     0.088 A 
ATOM     24  HN  UNL     1       7.435  -6.961  21.548  1.00  0.00     0.164 HD
HETATM   25  C   UNL     1       5.640  -5.333  23.789  1.00  0.00     0.030 A 
HETATM   26  C   UNL     1       5.728  -4.054  23.690  1.00  0.00    -0.016 A 
HETATM   27  C   UNL     1       5.176  -3.082  24.407  1.00  0.00     0.026 C 
ENDBRANCH  18  20
ENDBRANCH  15  16
ENDBRANCH   1  15
TORSDOF 7
ENDMDL
MODEL 4
REMARK VINA RESULT:    -6.551      4.111      6.277
REMARK INTER + INTRA:         -10.387
REMARK INTER:                  -9.791
REMARK INTRA:                  -0.597
REMARK UNBOUND:                -1.155
REMARK  7 active torsions:
REMARK  status: ('A' for Active; 'I' for Inactive)
REMARK    1  A    between atoms: S_2  and  N_5 
REMARK    2  A    between atoms: N_5  and  C_7 
REMARK    3  A    between atoms: C_7  and  C_8 
REMARK    4  A    between atoms: C_8  and  C_9 
REMARK    5  A    between atoms: C_9  and  C_15 
REMARK    6  A    between atoms: C_15  and  C_16 
REMARK       I    between atoms: C_16  and  N_18 
REMARK    7  A    between atoms: N_18  and  C_20 
ROOT
HETATM    1  C   UNL     1       7.480  -4.796  24.095  1.00  0.00     0.068 C 
HETATM    2  C   UNL     1       7.589  -5.724  22.804  1.00  0.00     0.000 C 
HETATM    3  C   UNL     1       6.775  -5.981  22.002  1.00  0.00    -0.002 C 
HETATM    4  C   UNL     1       5.510  -5.634  22.053  1.00  0.00    -0.001 C 
HETATM    5  C   UNL     1       5.164  -4.935  23.201  1.00  0.00    -0.002 C 
HETATM    6  C   UNL     1       5.726  -4.614  24.026  1.00  0.00     0.000 C 
ENDROOT
BRANCH   1   7
HETATM    7  C   UNL     1       7.981  -4.967  25.248  1.00  0.00     0.135 C 
BRANCH   7   8
HETATM    8  C   UNL     1       7.999  -5.321  26.378  1.00  0.00    -0.058 C 
BRANCH   8   9
HETATM    9  N   UNL     1       7.714  -5.932  27.384  1.00  0.00    -0.254 N 
ATOM     10  HN  UNL     1       8.472  -6.514  27.741  1.00  0.00     0.188 HD
BRANCH   9  11
HETATM   11  S   UNL     1       6.366  -6.002  28.268  1.00  0.00     0.233 S 
HETATM   12  C   UNL     1       5.497  -4.741  27.901  1.00  0.00     0.186 C 
HETATM   13  O   UNL     1       5.605  -7.201  27.924  1.00  0.00    -0.206 OA
HETATM   14  O   UNL     1       6.693  -6.025  29.682  1.00  0.00    -0.206 OA
ENDBRANCH   9  11
ENDBRANCH   8   9
ENDBRANCH   7   8
ENDBRANCH   1   7
BRANCH   1  15
HETATM   15  C   UNL     1       7.892  -3.634  23.914  1.00  0.00    -0.064 C 
BRANCH  15  16
HETATM   16  C   UNL     1       8.251  -2.390  23.740  1.00  0.00     0.290 C 
HETATM   17  O   UNL     1       7.589  -1.802  23.011  1.00  0.00    -0.259 OA
HETATM   18  N   UNL     1       9.337  -2.094  24.471  1.00  0.00    -0.315 N 
ATOM     19  HN  UNL     1       9.804  -2.803  25.037  1.00  0.00     0.170 HD
BRANCH  18  20
HETATM   20  C   UNL     1       9.751  -0.923  24.433  1.00  0.00     0.060 A 
HETATM   21  C   UNL     1       9.507   0.244  24.929  1.00  0.00     0.117 A 
HETATM   22  N   UNL     1       9.668   1.458  25.134  1.00  0.00    -0.373 N 
HETATM   23  C   UNL     1      10.732   1.507  24.335  1.00  0.00     0.088 A 
ATOM     24  HN  UNL     1       9.176   2.151  25.698  1.00  0.00     0.164 HD
HETATM   25  C   UNL     1      11.291   0.636  23.668  1.00  0.00     0.030 A 
HETATM   26  C   UNL     1      11.067  -0.624  23.536  1.00  0.00    -0.016 A 
HETATM   27  C   UNL     1      11.699  -1.555  22.832  1.00  0.00     0.026 C 
ENDBRANCH  18  20
ENDBRANCH  15  16
ENDBRANCH   1  15
TORSDOF 7
ENDMDL
MODEL 5
REMARK VINA RESULT:    -6.459      2.113      2.389
REMARK INTER + INTRA:         -10.257
REMARK INTER:                  -9.540
REMARK INTRA:                  -0.717
REMARK UNBOUND:                -1.155
REMARK  7 active torsions:
REMARK  status: ('A' for Active; 'I' for Inactive)
REMARK    1  A    between atoms: S_2  and  N_5 
REMARK    2  A    between atoms: N_5  and  C_7 
REMARK    3  A    between atoms: C_7  and  C_8 
REMARK    4  A    between atoms: C_8  and  C_9 
REMARK    5  A    between atoms: C_9  and  C_15 
REMARK    6  A    between atoms: C_15  and  C_16 
REMARK       I    between atoms: C_16  and  N_18 
REMARK    7  A    between atoms: N_18  and  C_20 
ROOT
HETATM    1  C   UNL     1       9.875  -1.038  23.712  1.00  0.00     0.068 C 
HETATM    2  C   UNL     1      10.515   0.090  24.638  1.00  0.00     0.000 C 
HETATM    3  C   UNL     1      11.624   0.464  24.696  1.00  0.00    -0.002 C 
HETATM    4  C   UNL     1      12.646  -0.063  24.062  1.00  0.00    -0.001 C 
HETATM    5  C   UNL     1      12.323  -1.179  23.302  1.00  0.00    -0.002 C 
HETATM    6  C   UNL     1      11.414  -1.670  23.124  1.00  0.00     0.000 C 
ENDROOT
BRANCH   1   7
HETATM    7  C   UNL     1       8.988  -1.899  23.998  1.00  0.00     0.135 C 
BRANCH   7   8
HETATM    8  C   UNL     1       8.249  -2.498  24.704  1.00  0.00    -0.058 C 
BRANCH   8   9
HETATM    9  N   UNL     1       7.672  -2.855  25.707  1.00  0.00    -0.254 N 
ATOM     10  HN  UNL     1       7.272  -2.087  26.247  1.00  0.00     0.188 HD
BRANCH   9  11
HETATM   11  S   UNL     1       7.415  -4.311  26.353  1.00  0.00     0.233 S 
HETATM   12  C   UNL     1       6.111  -4.212  27.231  1.00  0.00     0.186 C 
HETATM   13  O   UNL     1       7.183  -5.292  25.295  1.00  0.00    -0.206 OA
HETATM   14  O   UNL     1       8.558  -4.717  27.149  1.00  0.00    -0.206 OA
ENDBRANCH   9  11
ENDBRANCH   8   9
ENDBRANCH   7   8
ENDBRANCH   1   7
BRANCH   1  15
HETATM   15  C   UNL     1       9.338  -0.595  22.680  1.00  0.00    -0.064 C 
BRANCH  15  16
HETATM   16  C   UNL     1       8.823  -0.067  21.601  1.00  0.00     0.290 C 
HETATM   17  O   UNL     1       9.533   0.625  21.025  1.00  0.00    -0.259 OA
HETATM   18  N   UNL     1       7.555  -0.471  21.424  1.00  0.00    -0.315 N 
ATOM     19  HN  UNL     1       7.093  -1.077  22.102  1.00  0.00     0.170 HD
BRANCH  18  20
HETATM   20  C   UNL     1       6.967  -0.078  20.402  1.00  0.00     0.060 A 
HETATM   21  C   UNL     1       6.748  -0.421  19.177  1.00  0.00     0.117 A 
HETATM   22  N   UNL     1       6.277  -0.338  18.031  1.00  0.00    -0.373 N 
HETATM   23  C   UNL     1       5.644   0.799  18.315  1.00  0.00     0.088 A 
ATOM     24  HN  UNL     1       6.347  -0.917  17.194  1.00  0.00     0.164 HD
HETATM   25  C   UNL     1       5.592   1.466  19.348  1.00  0.00     0.030 A 
HETATM   26  C   UNL     1       6.098   1.285  20.516  1.00  0.00    -0.016 A 
HETATM   27  C   UNL     1       6.008   2.004  21.630  1.00  0.00     0.026 C 
ENDBRANCH  18  20
ENDBRANCH  15  16
ENDBRANCH   1  15
TORSDOF 7
ENDMDL
MODEL 6
REMARK VINA RESULT:    -6.365      2.558      5.943
REMARK INTER + INTRA:         -10.125
REMARK INTER:                  -9.385
REMARK INTRA:                  -0.740
REMARK UNBOUND:                -1.155
REMARK  7 active torsions:
REMARK  status: ('A' for Active; 'I' for Inactive)
REMARK    1  A    between atoms: S_2  and  N_5 
REMARK    2  A    between atoms: N_5  and  C_7 
REMARK    3  A    between atoms: C_7  and  C_8 
REMARK    4  A    between atoms: C_8  and  C_9 
REMARK    5  A    between atoms: C_9  and  C_15 
REMARK    6  A    between atoms: C_15  and  C_16 
REMARK       I    between atoms: C_16  and  N_18 
REMARK    7  A    between atoms: N_18  and  C_20 
ROOT
HETATM    1  C   UNL     1       6.409  -3.117  22.265  1.00  0.00     0.068 C 
HETATM    2  C   UNL     1       5.617  -3.335  23.631  1.00  0.00     0.000 C 
HETATM    3  C   UNL     1       5.616  -4.259  24.350  1.00  0.00    -0.002 C 
HETATM    4  C   UNL     1       6.206  -5.410  24.123  1.00  0.00    -0.001 C 
HETATM    5  C   UNL     1       6.838  -5.485  22.890  1.00  0.00    -0.002 C 
HETATM    6  C   UNL     1       6.950  -4.789  22.113  1.00  0.00     0.000 C 
ENDROOT
BRANCH   1   7
HETATM    7  C   UNL     1       6.020  -2.554  21.196  1.00  0.00     0.135 C 
BRANCH   7   8
HETATM    8  C   UNL     1       5.727  -1.643  20.498  1.00  0.00    -0.058 C 
BRANCH   8   9
HETATM    9  N   UNL     1       5.593  -0.973  19.498  1.00  0.00    -0.254 N 
ATOM     10  HN  UNL     1       5.021  -1.415  18.779  1.00  0.00     0.188 HD
BRANCH   9  11
HETATM   11  S   UNL     1       6.146   0.486  19.087  1.00  0.00     0.233 S 
HETATM   12  C   UNL     1       5.629   1.507  20.169  1.00  0.00     0.186 C 
HETATM   13  O   UNL     1       7.607   0.492  19.111  1.00  0.00    -0.206 OA
HETATM   14  O   UNL     1       5.682   0.843  17.759  1.00  0.00    -0.206 OA
ENDBRANCH   9  11
ENDBRANCH   8   9
ENDBRANCH   7   8
ENDBRANCH   1   7
BRANCH   1  15
HETATM   15  C   UNL     1       7.474  -2.485  22.398  1.00  0.00    -0.064 C 
BRANCH  15  16
HETATM   16  C   UNL     1       8.613  -1.849  22.466  1.00  0.00     0.290 C 
HETATM   17  O   UNL     1       8.937  -1.348  21.486  1.00  0.00    -0.259 OA
HETATM   18  N   UNL     1       9.144  -1.939  23.695  1.00  0.00    -0.315 N 
ATOM     19  HN  UNL     1       8.691  -2.485  24.428  1.00  0.00     0.170 HD
BRANCH  18  20
HETATM   20  C   UNL     1      10.207  -1.331  23.905  1.00  0.00     0.060 A 
HETATM   21  C   UNL     1      11.464  -1.377  23.612  1.00  0.00     0.117 A 
HETATM   22  N   UNL     1      12.651  -1.012  23.598  1.00  0.00    -0.373 N 
HETATM   23  C   UNL     1      12.389   0.052  24.354  1.00  0.00     0.088 A 
ATOM     24  HN  UNL     1      13.499  -1.384  23.171  1.00  0.00     0.164 HD
HETATM   25  C   UNL     1      11.340   0.461  24.851  1.00  0.00     0.030 A 
HETATM   26  C   UNL     1      10.131   0.027  24.788  1.00  0.00    -0.016 A 
HETATM   27  C   UNL     1       9.004   0.497  25.309  1.00  0.00     0.026 C 
ENDBRANCH  18  20
ENDBRANCH  15  16
ENDBRANCH   1  15
TORSDOF 7
ENDMDL
MODEL 7
REMARK VINA RESULT:    -6.317      2.808      6.324
REMARK INTER + INTRA:         -10.057
REMARK INTER:                  -8.472
REMARK INTRA:                  -1.585
REMARK UNBOUND:                -1.155
REMARK  7 active torsions:
REMARK  status: ('A' for Active; 'I' for Inactive)
REMARK    1  A    between atoms: S_2  and  N_5 
REMARK    2  A    between atoms: N_5  and  C_7 
REMARK    3  A    between atoms: C_7  and  C_8 
REMARK    4  A    between atoms: C_8  and  C_9 
REMARK    5  A    between atoms: C_9  and  C_15 
REMARK    6  A    between atoms: C_15  and  C_16 
REMARK       I    between atoms: C_16  and  N_18 
REMARK    7  A    between atoms: N_18  and  C_20 
ROOT
HETATM    1  C   UNL     1       7.725   0.931  21.451  1.00  0.00     0.068 C 
HETATM    2  C   UNL     1       6.381   1.721  21.122  1.00  0.00     0.000 C 
HETATM    3  C   UNL     1       5.614   1.555  20.253  1.00  0.00    -0.002 C 
HETATM    4  C   UNL     1       5.757   0.716  19.253  1.00  0.00    -0.001 C 
HETATM    5  C   UNL     1       6.960   0.024  19.266  1.00  0.00    -0.002 C 
HETATM    6  C   UNL     1       7.768   0.029  19.935  1.00  0.00     0.000 C 
ENDROOT
BRANCH   1   7
HETATM    7  C   UNL     1       8.836   1.380  21.867  1.00  0.00     0.135 C 
BRANCH   7   8
HETATM    8  C   UNL     1       9.977   1.324  22.183  1.00  0.00    -0.058 C 
BRANCH   8   9
HETATM    9  N   UNL     1      10.979   0.984  22.772  1.00  0.00    -0.254 N 
ATOM     10  HN  UNL     1      11.743   1.656  22.706  1.00  0.00     0.188 HD
BRANCH   9  11
HETATM   11  S   UNL     1      11.336  -0.326  23.643  1.00  0.00     0.233 S 
HETATM   12  C   UNL     1      12.791  -0.131  24.212  1.00  0.00     0.186 C 
HETATM   13  O   UNL     1      10.413  -0.445  24.769  1.00  0.00    -0.206 OA
HETATM   14  O   UNL     1      11.247  -1.517  22.817  1.00  0.00    -0.206 OA
ENDBRANCH   9  11
ENDBRANCH   8   9
ENDBRANCH   7   8
ENDBRANCH   1   7
BRANCH   1  15
HETATM   15  C   UNL     1       7.586   0.037  22.307  1.00  0.00    -0.064 C 
BRANCH  15  16
HETATM   16  C   UNL     1       7.371  -0.919  23.171  1.00  0.00     0.290 C 
HETATM   17  O   UNL     1       6.519  -0.710  23.910  1.00  0.00    -0.259 OA
HETATM   18  N   UNL     1       8.222  -1.940  22.982  1.00  0.00    -0.315 N 
ATOM     19  HN  UNL     1       8.950  -1.897  22.269  1.00  0.00     0.170 HD
BRANCH  18  20
HETATM   20  C   UNL     1       8.088  -2.939  23.710  1.00  0.00     0.060 A 
HETATM   21  C   UNL     1       8.412  -3.378  24.880  1.00  0.00     0.117 A 
HETATM   22  N   UNL     1       8.452  -4.169  25.836  1.00  0.00    -0.373 N 
HETATM   23  C   UNL     1       7.700  -5.064  25.197  1.00  0.00     0.088 A 
ATOM     24  HN  UNL     1       8.892  -4.145  26.756  1.00  0.00     0.164 HD
HETATM   25  C   UNL     1       7.192  -5.048  24.076  1.00  0.00     0.030 A 
HETATM   26  C   UNL     1       7.179  -4.158  23.148  1.00  0.00    -0.016 A 
HETATM   27  C   UNL     1       6.601  -4.148  21.953  1.00  0.00     0.026 C 
ENDBRANCH  18  20
ENDBRANCH  15  16
ENDBRANCH   1  15
TORSDOF 7
ENDMDL
MODEL 8
REMARK VINA RESULT:    -6.202      3.039      6.482
REMARK INTER + INTRA:          -9.895
REMARK INTER:                  -9.066
REMARK INTRA:                  -0.829
REMARK UNBOUND:                -1.155
REMARK  7 active torsions:
REMARK  status: ('A' for Active; 'I' for Inactive)
REMARK    1  A    between atoms: S_2  and  N_5 
REMARK    2  A    between atoms: N_5  and  C_7 
REMARK    3  A    between atoms: C_7  and  C_8 
REMARK    4  A    between atoms: C_8  and  C_9 
REMARK    5  A    between atoms: C_9  and  C_15 
REMARK    6  A    between atoms: C_15  and  C_16 
REMARK       I    between atoms: C_16  and  N_18 
REMARK    7  A    between atoms: N_18  and  C_20 
ROOT
HETATM    1  C   UNL     1       7.516   0.410  20.782  1.00  0.00     0.068 C 
HETATM    2  C   UNL     1       6.185   1.278  20.912  1.00  0.00     0.000 C 
HETATM    3  C   UNL     1       5.315   1.424  20.142  1.00  0.00    -0.002 C 
HETATM    4  C   UNL     1       5.297   0.973  18.908  1.00  0.00    -0.001 C 
HETATM    5  C   UNL     1       6.456   0.306  18.536  1.00  0.00    -0.002 C 
HETATM    6  C   UNL     1       7.335   0.076  19.059  1.00  0.00     0.000 C 
ENDROOT
BRANCH   1   7
HETATM    7  C   UNL     1       8.690   0.681  21.180  1.00  0.00     0.135 C 
BRANCH   7   8
HETATM    8  C   UNL     1       9.528   1.318  21.725  1.00  0.00    -0.058 C 
BRANCH   8   9
HETATM    9  N   UNL     1      10.124   2.276  22.163  1.00  0.00    -0.254 N 
ATOM     10  HN  UNL     1      10.271   3.018  21.479  1.00  0.00     0.188 HD
BRANCH   9  11
HETATM   11  S   UNL     1      10.728   2.604  23.623  1.00  0.00     0.233 S 
HETATM   12  C   UNL     1      11.595   1.365  24.063  1.00  0.00     0.186 C 
HETATM   13  O   UNL     1      11.601   3.773  23.551  1.00  0.00    -0.206 OA
HETATM   14  O   UNL     1       9.655   2.859  24.566  1.00  0.00    -0.206 OA
ENDBRANCH   9  11
ENDBRANCH   8   9
ENDBRANCH   7   8
ENDBRANCH   1   7
BRANCH   1  15
HETATM   15  C   UNL     1       7.431  -0.719  21.300  1.00  0.00    -0.064 C 
BRANCH  15  16
HETATM   16  C   UNL     1       7.269  -1.911  21.811  1.00  0.00     0.290 C 
HETATM   17  O   UNL     1       8.237  -2.406  22.178  1.00  0.00    -0.259 OA
HETATM   18  N   UNL     1       5.979  -2.278  21.782  1.00  0.00    -0.315 N 
ATOM     19  HN  UNL     1       5.267  -1.680  21.361  1.00  0.00     0.170 HD
BRANCH  18  20
HETATM   20  C   UNL     1       5.684  -3.374  22.288  1.00  0.00     0.060 A 
HETATM   21  C   UNL     1       5.605  -4.628  21.989  1.00  0.00     0.117 A 
HETATM   22  N   UNL     1       5.410  -5.840  22.176  1.00  0.00    -0.373 N 
HETATM   23  C   UNL     1       5.103  -5.648  23.457  1.00  0.00     0.088 A 
ATOM     24  HN  UNL     1       5.465  -6.665  21.578  1.00  0.00     0.164 HD
HETATM   25  C   UNL     1       5.049  -4.624  24.137  1.00  0.00     0.030 A 
HETATM   26  C   UNL     1       5.299  -3.393  23.862  1.00  0.00    -0.016 A 
HETATM   27  C   UNL     1       5.261  -2.302  24.618  1.00  0.00     0.026 C 
ENDBRANCH  18  20
ENDBRANCH  15  16
ENDBRANCH   1  15
TORSDOF 7
ENDMDL
MODEL 9
REMARK VINA RESULT:    -6.177     14.780     16.300
REMARK INTER + INTRA:          -9.860
REMARK INTER:                  -8.959
REMARK INTRA:                  -0.900
REMARK UNBOUND:                -1.155
REMARK  7 active torsions:
REMARK  status: ('A' for Active; 'I' for Inactive)
REMARK    1  A    between atoms: S_2  and  N_5 
REMARK    2  A    between atoms: N_5  and  C_7 
REMARK    3  A    between atoms: C_7  and  C_8 
REMARK    4  A    between atoms: C_8  and  C_9 
REMARK    5  A    between atoms: C_9  and  C_15 
REMARK    6  A    between atoms: C_15  and  C_16 
REMARK       I    between atoms: C_16  and  N_18 
REMARK    7  A    between atoms: N_18  and  C_20 
ROOT
HETATM    1  C   UNL     1      23.153  -2.039  23.811  1.00  0.00     0.068 C 
HETATM    2  C   UNL     1      21.589  -1.986  24.114  1.00  0.00     0.000 C 
HETATM    3  C   UNL     1      20.950  -1.118  24.570  1.00  0.00    -0.002 C 
HETATM    4  C   UNL     1      21.419   0.009  25.056  1.00  0.00    -0.001 C 
HETATM    5  C   UNL     1      22.803   0.101  25.028  1.00  0.00    -0.002 C 
HETATM    6  C   UNL     1      23.545  -0.551  24.675  1.00  0.00     0.000 C 
ENDROOT
BRANCH   1   7
HETATM    7  C   UNL     1      23.964  -3.003  23.959  1.00  0.00     0.135 C 
BRANCH   7   8
HETATM    8  C   UNL     1      24.301  -4.138  23.993  1.00  0.00    -0.058 C 
BRANCH   8   9
HETATM    9  N   UNL     1      24.229  -5.347  24.010  1.00  0.00    -0.254 N 
ATOM     10  HN  UNL     1      24.110  -5.765  23.087  1.00  0.00     0.188 HD
BRANCH   9  11
HETATM   11  S   UNL     1      24.283  -6.421  25.212  1.00  0.00     0.233 S 
HETATM   12  C   UNL     1      25.786  -6.539  25.669  1.00  0.00     0.186 C 
HETATM   13  O   UNL     1      23.494  -5.944  26.345  1.00  0.00    -0.206 OA
HETATM   14  O   UNL     1      23.766  -7.701  24.766  1.00  0.00    -0.206 OA
ENDBRANCH   9  11
ENDBRANCH   8   9
ENDBRANCH   7   8
ENDBRANCH   1   7
BRANCH   1  15
HETATM   15  C   UNL     1      23.445  -1.766  22.631  1.00  0.00    -0.064 C 
BRANCH  15  16
HETATM   16  C   UNL     1      23.776  -1.409  21.418  1.00  0.00     0.290 C 
HETATM   17  O   UNL     1      24.730  -0.776  21.353  1.00  0.00    -0.259 OA
HETATM   18  N   UNL     1      22.896  -1.877  20.521  1.00  0.00    -0.315 N 
ATOM     19  HN  UNL     1      22.070  -2.402  20.812  1.00  0.00     0.170 HD
BRANCH  18  20
HETATM   20  C   UNL     1      23.125  -1.649  19.321  1.00  0.00     0.060 A 
HETATM   21  C   UNL     1      22.910  -0.759  18.410  1.00  0.00     0.117 A 
HETATM   22  N   UNL     1      22.976  -0.227  17.290  1.00  0.00    -0.373 N 
HETATM   23  C   UNL     1      23.712  -1.223  16.800  1.00  0.00     0.088 A 
ATOM     24  HN  UNL     1      22.608   0.639  16.896  1.00  0.00     0.164 HD
HETATM   25  C   UNL     1      24.131  -2.258  17.320  1.00  0.00     0.030 A 
HETATM   26  C   UNL     1      24.036  -2.721  18.516  1.00  0.00    -0.016 A 
HETATM   27  C   UNL     1      24.519  -3.828  19.066  1.00  0.00     0.026 C 
ENDBRANCH  18  20
ENDBRANCH  15  16
ENDBRANCH   1  15
TORSDOF 7
ENDMDL
