REMARK  7 active torsions:
REMARK  status: ('A' for Active; 'I' for Inactive)
REMARK    1  A    between atoms: S_2  and  N_5 
REMARK    2  A    between atoms: N_5  and  C_7 
REMARK    3  A    between atoms: C_7  and  C_8 
REMARK    4  A    between atoms: C_8  and  C_9 
REMARK    5  A    between atoms: C_9  and  C_15 
REMARK    6  A    between atoms: C_15  and  C_16 
REMARK       I    between atoms: C_16  and  N_18 
REMARK    7  A    between atoms: N_18  and  C_20 
ROOT
HETATM    1  C   UNL     1      10.323  -1.106  23.259  1.00  0.00     0.068 C 
HETATM    2  C   UNL     1      11.024  -0.057  24.233  1.00  0.00     0.000 C 
HETATM    3  C   UNL     1      12.132   0.322  24.244  1.00  0.00    -0.002 C 
HETATM    4  C   UNL     1      13.108  -0.136  23.494  1.00  0.00    -0.001 C 
HETATM    5  C   UNL     1      12.736  -1.184  22.664  1.00  0.00    -0.002 C 
HETATM    6  C   UNL     1      11.818  -1.667  22.508  1.00  0.00     0.000 C 
ENDROOT
BRANCH   1   7
HETATM    7  C   UNL     1       9.463  -1.998  23.530  1.00  0.00     0.135 C 
BRANCH   7   8
HETATM    8  C   UNL     1       8.997  -2.904  24.135  1.00  0.00    -0.058 C 
BRANCH   8   9
HETATM    9  N   UNL     1       8.175  -3.600  24.688  1.00  0.00    -0.254 N 
ATOM     10  HN  UNL     1       7.342  -3.779  24.127  1.00  0.00     0.188 HD
BRANCH   9  11
HETATM   11  S   UNL     1       8.145  -4.299  26.142  1.00  0.00     0.233 S 
HETATM   12  C   UNL     1       6.662  -4.755  26.414  1.00  0.00     0.186 C 
HETATM   13  O   UNL     1       8.998  -5.485  26.144  1.00  0.00    -0.206 OA
HETATM   14  O   UNL     1       8.606  -3.369  27.156  1.00  0.00    -0.206 OA
ENDBRANCH   9  11
ENDBRANCH   8   9
ENDBRANCH   7   8
ENDBRANCH   1   7
BRANCH   1  15
HETATM   15  C   UNL     1       9.711  -0.579  22.311  1.00  0.00    -0.064 C 
BRANCH  15  16
HETATM   16  C   UNL     1       9.057   0.037  21.362  1.00  0.00     0.290 C 
HETATM   17  O   UNL     1       9.585   0.967  20.948  1.00  0.00    -0.259 OA
HETATM   18  N   UNL     1       7.896  -0.581  21.096  1.00  0.00    -0.315 N 
ATOM     19  HN  UNL     1       7.596  -1.397  21.630  1.00  0.00     0.170 HD
BRANCH  18  20
HETATM   20  C   UNL     1       7.201  -0.121  20.174  1.00  0.00     0.060 A 
HETATM   21  C   UNL     1       7.190  -0.005  18.888  1.00  0.00     0.117 A 
HETATM   22  N   UNL     1       6.750   0.308  17.770  1.00  0.00    -0.373 N 
HETATM   23  C   UNL     1       5.639   0.825  18.292  1.00  0.00     0.088 A 
ATOM     24  HN  UNL     1       7.103   0.208  16.818  1.00  0.00     0.164 HD
HETATM   25  C   UNL     1       5.257   0.925  19.458  1.00  0.00     0.030 A 
HETATM   26  C   UNL     1       5.775   0.540  20.570  1.00  0.00    -0.016 A 
HETATM   27  C   UNL     1       5.334   0.633  21.819  1.00  0.00     0.026 C 
ENDBRANCH  18  20
ENDBRANCH  15  16
ENDBRANCH   1  15
TORSDOF 7
