stable:False satoms:8 tatoms:24 sratio:0.3333333333333333
  -OEChem-07092417453D

 24 25  0     1  0  0  0  0  0999 V2000
    6.6624   -4.7549   26.4141 C   0  0  0  0  0  0  0  0  0  0  0  0
    8.1454   -4.2992   26.1415 S   0  0  0  0  0  0  0  0  0  0  0  0
    8.9982   -5.4854   26.1444 O   0  0  0  0  0  0  0  0  0  0  0  0
    8.6062   -3.3692   27.1557 O   0  0  0  0  0  0  0  0  0  0  0  0
    8.1755   -3.6004   24.6881 N   0  0  0  0  0  0  0  0  0  0  0  0
    8.9973   -2.9039   24.1346 C   0  0  0  0  0  0  0  0  0  0  0  0
    9.4635   -1.9975   23.5303 C   0  0  0  0  0  0  0  0  0  0  0  0
   10.3230   -1.1064   23.2586 C   0  0  1  0  0  0  0  0  0  0  0  0
   11.0235   -0.0573   24.2332 C   0  0  0  0  0  0  0  0  0  0  0  0
   12.1322    0.3224   24.2439 C   0  0  0  0  0  0  0  0  0  0  0  0
   13.1077   -0.1362   23.4939 C   0  0  0  0  0  0  0  0  0  0  0  0
   12.7360   -1.1844   22.6640 C   0  0  0  0  0  0  0  0  0  0  0  0
   11.8175   -1.6670   22.5083 C   0  0  0  0  0  0  0  0  0  0  0  0
    9.7112   -0.5791   22.3110 C   0  0  0  0  0  0  0  0  0  0  0  0
    9.0571    0.0374   21.3616 C   0  0  0  0  0  0  0  0  0  0  0  0
    9.5845    0.9669   20.9481 O   0  0  0  0  0  0  0  0  0  0  0  0
    7.8962   -0.5811   21.0957 N   0  0  0  0  0  0  0  0  0  0  0  0
    7.2009   -0.1214   20.1738 C   0  0  0  0  0  0  0  0  0  0  0  0
    7.1904   -0.0049   18.8879 C   0  0  0  0  0  0  0  0  0  0  0  0
    6.7505    0.3078   17.7701 N   0  0  0  0  0  0  0  0  0  0  0  0
    5.6393    0.8253   18.2917 C   0  0  0  0  0  0  0  0  0  0  0  0
    5.2569    0.9253   19.4576 C   0  0  0  0  0  0  0  0  0  0  0  0
    5.7751    0.5397   20.5698 C   0  0  0  0  0  0  0  0  0  0  0  0
    5.3336    0.6334   21.8189 C   0  0  0  0  0  0  0  0  0  0  0  0
 20 21  2  0  0  0  0
 19 20  1  0  0  0  0
 21 22  1  0  0  0  0
 18 19  2  0  0  0  0
 22 23  2  0  0  0  0
 18 23  1  0  0  0  0
 17 18  1  0  0  0  0
 23 24  1  0  0  0  0
 15 16  2  0  0  0  0
 15 17  1  0  0  0  0
 14 15  1  0  0  0  0
  8 14  1  0  0  0  0
 12 13  1  0  0  0  0
  8 13  1  0  0  0  0
 11 12  2  0  0  0  0
  7  8  1  0  0  0  0
  8  9  1  0  0  0  0
 10 11  1  0  0  0  0
  6  7  3  0  0  0  0
  5  6  1  0  0  0  0
  9 10  2  0  0  0  0
  2  5  1  0  0  0  0
  2  3  2  0  0  0  0
  1  2  1  0  0  0  0
  2  4  2  0  0  0  0
M  END
> <Shapegauss>
-286.696930

$$$$
