
 OpenBabel07202414163D

 37 39  0  0  0  0  0  0  0  0999 V2000
    1.9699   -5.3017    1.2909 C   0  0  0  0  0  0  0  0  0  0  0  0
    0.7260   -4.5734    1.7108 C   0  0  0  0  0  0  0  0  0  0  0  0
    0.3209   -4.5745    3.0474 C   0  0  0  0  0  0  0  0  0  0  0  0
   -0.8063   -3.8533    3.4396 C   0  0  0  0  0  0  0  0  0  0  0  0
   -1.5540   -3.1416    2.4978 C   0  0  0  0  0  0  0  0  0  0  0  0
   -1.2052   -3.1727    1.1416 C   0  0  0  0  0  0  0  0  0  0  0  0
   -1.9841   -2.4231    0.0819 C   0  0  0  0  0  0  0  0  0  0  0  0
   -3.4659   -2.2317    0.3507 C   0  0  0  0  0  0  0  0  0  0  0  0
   -3.8983   -1.1893    0.8450 O   0  0  0  0  0  0  0  0  0  0  0  0
   -4.2548   -3.3181    0.0204 N   0  0  0  0  0  0  0  0  0  0  0  0
   -5.6629   -3.2906    0.2046 C   0  0  0  0  0  0  0  0  0  0  0  0
   -6.4315   -2.2470   -0.3173 C   0  0  0  0  0  0  0  0  0  0  0  0
   -7.7798   -2.1746   -0.2345 N   0  0  0  0  0  0  0  0  0  0  0  0
   -8.3928   -3.1779    0.4277 C   0  0  0  0  0  0  0  0  0  0  0  0
   -7.7309   -4.2673    1.0107 C   0  0  0  0  0  0  0  0  0  0  0  0
   -8.4317   -5.2569    1.7200 C   0  0  0  0  0  0  0  0  0  0  0  0
   -7.7481   -6.3052    2.3355 C   0  0  0  0  0  0  0  0  0  0  0  0
   -6.3623   -6.3697    2.2536 C   0  0  0  0  0  0  0  0  0  0  0  0
   -5.6593   -5.3961    1.5433 C   0  0  0  0  0  0  0  0  0  0  0  0
   -6.3250   -4.3293    0.8950 C   0  0  0  0  0  0  0  0  0  0  0  0
   -0.0387   -3.8676    0.7682 C   0  0  0  0  0  0  0  0  0  0  0  0
    2.4205   -5.8414    2.1309 H   0  0  0  0  0  0  0  0  0  0  0  0
    2.7147   -4.5950    0.9104 H   0  0  0  0  0  0  0  0  0  0  0  0
    1.7355   -6.0350    0.5131 H   0  0  0  0  0  0  0  0  0  0  0  0
    0.8888   -5.1233    3.7955 H   0  0  0  0  0  0  0  0  0  0  0  0
   -1.0970   -3.8387    4.4871 H   0  0  0  0  0  0  0  0  0  0  0  0
   -2.4049   -2.5580    2.8460 H   0  0  0  0  0  0  0  0  0  0  0  0
   -1.8926   -2.9445   -0.8795 H   0  0  0  0  0  0  0  0  0  0  0  0
   -1.5418   -1.4292   -0.0524 H   0  0  0  0  0  0  0  0  0  0  0  0
   -3.7972   -4.2196    0.0673 H   0  0  0  0  0  0  0  0  0  0  0  0
   -5.9740   -1.4302   -0.8693 H   0  0  0  0  0  0  0  0  0  0  0  0
   -9.4730   -3.0759    0.4953 H   0  0  0  0  0  0  0  0  0  0  0  0
   -9.5146   -5.2092    1.8150 H   0  0  0  0  0  0  0  0  0  0  0  0
   -8.2978   -7.0607    2.8914 H   0  0  0  0  0  0  0  0  0  0  0  0
   -5.8223   -7.1692    2.7541 H   0  0  0  0  0  0  0  0  0  0  0  0
   -4.5742   -5.4641    1.5426 H   0  0  0  0  0  0  0  0  0  0  0  0
    0.2873   -3.8541   -0.2714 H   0  0  0  0  0  0  0  0  0  0  0  0
  1  2  1  0  0  0  0
  1 22  1  0  0  0  0
  1 23  1  0  0  0  0
  1 24  1  0  0  0  0
  2  3  1  0  0  0  0
  2 21  2  0  0  0  0
  3  4  2  0  0  0  0
  3 25  1  0  0  0  0
  4  5  1  0  0  0  0
  4 26  1  0  0  0  0
  5  6  2  0  0  0  0
  5 27  1  0  0  0  0
  6  7  1  0  0  0  0
  6 21  1  0  0  0  0
  7  8  1  0  0  0  0
  7 28  1  0  0  0  0
  7 29  1  0  0  0  0
  8  9  2  0  0  0  0
  8 10  1  0  0  0  0
 10 11  1  0  0  0  0
 10 30  1  0  0  0  0
 11 12  1  0  0  0  0
 11 20  2  0  0  0  0
 12 13  2  0  0  0  0
 12 31  1  0  0  0  0
 13 14  1  0  0  0  0
 14 15  2  0  0  0  0
 14 32  1  0  0  0  0
 15 16  1  0  0  0  0
 15 20  1  0  0  0  0
 16 17  2  0  0  0  0
 16 33  1  0  0  0  0
 17 18  1  0  0  0  0
 17 34  1  0  0  0  0
 18 19  2  0  0  0  0
 18 35  1  0  0  0  0
 19 20  1  0  0  0  0
 19 36  1  0  0  0  0
 21 37  1  0  0  0  0
M  END
$$$$
