
 OpenBabel07202414163D

 56 59  0  0  0  0  0  0  0  0999 V2000
   -5.1893    2.1892   -4.5890 C   0  0  0  0  0  0  0  0  0  0  0  0
   -3.8637    2.8714   -4.7736 C   0  0  0  0  0  0  0  0  0  0  0  0
   -3.3232    2.8033   -6.0753 C   0  0  0  0  0  0  0  0  0  0  0  0
   -2.0937    3.3658   -6.3459 C   0  0  0  0  0  0  0  0  0  0  0  0
   -1.3615    4.0041   -5.4175 N   0  0  0  0  0  0  0  0  0  0  0  0
   -1.8955    4.0717   -4.1738 C   0  0  0  0  0  0  0  0  0  0  0  0
   -3.1161    3.5279   -3.7709 C   0  0  0  0  0  0  0  0  0  0  0  0
   -3.5146    3.6079   -2.4026 N   0  0  0  0  0  0  0  0  0  0  0  0
   -2.6123    3.8445   -1.3525 C   0  0  0  0  0  0  0  0  0  0  0  0
   -1.4122    3.9814   -1.4730 O   0  0  0  0  0  0  0  0  0  0  0  0
   -3.2308    3.8791    0.0644 C   0  0  0  0  0  0  0  0  0  0  0  0
   -4.7229    3.6483    0.1609 C   0  0  0  0  0  0  0  0  0  0  0  0
   -5.6120    4.7250    0.0842 C   0  0  0  0  0  0  0  0  0  0  0  0
   -6.9910    4.4905    0.0650 C   0  0  0  0  0  0  0  0  0  0  0  0
   -8.0712    5.8286   -0.0124 Cl  0  0  0  0  0  0  0  0  0  0  0  0
   -7.5055    3.1920    0.0875 C   0  0  0  0  0  0  0  0  0  0  0  0
   -6.6382    2.1062    0.1877 C   0  0  0  0  0  0  0  0  0  0  0  0
   -7.2271    0.8588    0.1999 O   0  0  0  0  0  0  0  0  0  0  0  0
   -6.4958   -0.1448    0.9204 C   0  0  0  0  0  0  0  0  0  0  0  0
   -7.4098   -1.1918    1.4559 C   0  0  0  0  0  0  0  0  0  0  0  0
   -7.3619   -2.4855    1.2196 N   0  0  0  0  0  0  0  0  0  0  0  0
   -8.3514   -3.0673    1.9774 N   0  0  0  0  0  0  0  0  0  0  0  0
   -8.9264   -2.0940    2.6466 C   0  0  0  0  0  0  0  0  0  0  0  0
  -10.0677   -2.1699    3.6039 C   0  0  0  0  0  0  0  0  0  0  0  0
   -9.7392   -3.1053    4.7773 C   0  0  0  0  0  0  0  0  0  0  0  0
  -10.9116   -3.2228    5.7491 C   0  0  0  0  0  0  0  0  0  0  0  0
  -12.1853   -3.6639    5.0351 C   0  0  0  0  0  0  0  0  0  0  0  0
  -12.5257   -2.7325    3.8756 C   0  0  0  0  0  0  0  0  0  0  0  0
  -11.3601   -2.6040    2.8943 C   0  0  0  0  0  0  0  0  0  0  0  0
   -8.3666   -0.8616    2.3899 O   0  0  0  0  0  0  0  0  0  0  0  0
   -5.2553    2.3419    0.2359 C   0  0  0  0  0  0  0  0  0  0  0  0
   -5.4193    1.5346   -5.4434 H   0  0  0  0  0  0  0  0  0  0  0  0
   -5.9990    2.9222   -4.5361 H   0  0  0  0  0  0  0  0  0  0  0  0
   -5.1738    1.5455   -3.7074 H   0  0  0  0  0  0  0  0  0  0  0  0
   -3.8490    2.2912   -6.8789 H   0  0  0  0  0  0  0  0  0  0  0  0
   -1.6536    3.3200   -7.3333 H   0  0  0  0  0  0  0  0  0  0  0  0
   -1.2581    4.6117   -3.4850 H   0  0  0  0  0  0  0  0  0  0  0  0
   -4.4046    3.2086   -2.1468 H   0  0  0  0  0  0  0  0  0  0  0  0
   -2.9851    4.8764    0.4696 H   0  0  0  0  0  0  0  0  0  0  0  0
   -2.6936    3.1566    0.6960 H   0  0  0  0  0  0  0  0  0  0  0  0
   -5.2374    5.7461    0.0332 H   0  0  0  0  0  0  0  0  0  0  0  0
   -8.5793    3.0266    0.0427 H   0  0  0  0  0  0  0  0  0  0  0  0
   -5.9666    0.3107    1.7652 H   0  0  0  0  0  0  0  0  0  0  0  0
   -5.7833   -0.6335    0.2458 H   0  0  0  0  0  0  0  0  0  0  0  0
  -10.2340   -1.1641    4.0122 H   0  0  0  0  0  0  0  0  0  0  0  0
   -8.8584   -2.7347    5.3159 H   0  0  0  0  0  0  0  0  0  0  0  0
   -9.4796   -4.1075    4.4086 H   0  0  0  0  0  0  0  0  0  0  0  0
  -11.0811   -2.2546    6.2362 H   0  0  0  0  0  0  0  0  0  0  0  0
  -10.6643   -3.9394    6.5405 H   0  0  0  0  0  0  0  0  0  0  0  0
  -13.0180   -3.6884    5.7471 H   0  0  0  0  0  0  0  0  0  0  0  0
  -12.0568   -4.6855    4.6570 H   0  0  0  0  0  0  0  0  0  0  0  0
  -12.7826   -1.7408    4.2685 H   0  0  0  0  0  0  0  0  0  0  0  0
  -13.4124   -3.1061    3.3507 H   0  0  0  0  0  0  0  0  0  0  0  0
  -11.6235   -1.8763    2.1163 H   0  0  0  0  0  0  0  0  0  0  0  0
  -11.2148   -3.5659    2.3828 H   0  0  0  0  0  0  0  0  0  0  0  0
   -4.5612    1.5126    0.3303 H   0  0  0  0  0  0  0  0  0  0  0  0
  1  2  1  0  0  0  0
  1 32  1  0  0  0  0
  1 33  1  0  0  0  0
  1 34  1  0  0  0  0
  2  3  1  0  0  0  0
  2  7  2  0  0  0  0
  3  4  2  0  0  0  0
  3 35  1  0  0  0  0
  4  5  1  0  0  0  0
  4 36  1  0  0  0  0
  5  6  2  0  0  0  0
  6  7  1  0  0  0  0
  6 37  1  0  0  0  0
  7  8  1  0  0  0  0
  8  9  1  0  0  0  0
  8 38  1  0  0  0  0
  9 10  2  0  0  0  0
  9 11  1  0  0  0  0
 11 12  1  0  0  0  0
 11 39  1  0  0  0  0
 11 40  1  0  0  0  0
 12 13  1  0  0  0  0
 12 31  2  0  0  0  0
 13 14  2  0  0  0  0
 13 41  1  0  0  0  0
 14 15  1  0  0  0  0
 14 16  1  0  0  0  0
 16 17  2  0  0  0  0
 16 42  1  0  0  0  0
 17 18  1  0  0  0  0
 17 31  1  0  0  0  0
 18 19  1  0  0  0  0
 19 20  1  0  0  0  0
 19 43  1  0  0  0  0
 19 44  1  0  0  0  0
 20 21  2  0  0  0  0
 20 30  1  0  0  0  0
 21 22  1  0  0  0  0
 22 23  2  0  0  0  0
 23 24  1  0  0  0  0
 23 30  1  0  0  0  0
 24 25  1  0  0  0  0
 24 29  1  0  0  0  0
 24 45  1  0  0  0  0
 25 26  1  0  0  0  0
 25 46  1  0  0  0  0
 25 47  1  0  0  0  0
 26 27  1  0  0  0  0
 26 48  1  0  0  0  0
 26 49  1  0  0  0  0
 27 28  1  0  0  0  0
 27 50  1  0  0  0  0
 27 51  1  0  0  0  0
 28 29  1  0  0  0  0
 28 52  1  0  0  0  0
 28 53  1  0  0  0  0
 29 54  1  0  0  0  0
 29 55  1  0  0  0  0
 31 56  1  0  0  0  0
M  END
$$$$
