stable:False satoms:8 tatoms:24 sratio:0.3333333333333333
  -OEChem-07092417493D

 24 26  0     1  0  0  0  0  0999 V2000
    6.5353   -4.8452   26.4914 C   0  0  0  0  0  0  0  0  0  0  0  0
    8.2400   -4.3100   26.1229 S   0  0  0  0  0  0  0  0  0  0  0  0
    9.0452   -5.4933   26.0288 O   0  0  0  0  0  0  0  0  0  0  0  0
    8.6112   -3.4473   27.1735 O   0  0  0  0  0  0  0  0  0  0  0  0
    8.1489   -3.5445   24.6814 N   0  0  0  0  0  0  0  0  0  0  0  0
    8.9757   -2.9345   24.1307 C   0  0  0  0  0  0  0  0  0  0  0  0
    9.4101   -1.9767   23.4652 C   0  0  0  0  0  0  0  0  0  0  0  0
   10.3462   -1.1094   23.2642 C   0  0  1  0  0  0  0  0  0  0  0  0
   11.0403   -0.0006   24.3288 C   0  0  0  0  0  0  0  0  0  0  0  0
   12.0212    0.2911   24.2930 C   0  0  0  0  0  0  0  0  0  0  0  0
   13.1802   -0.1375   23.4460 C   0  0  0  0  0  0  0  0  0  0  0  0
   12.7065   -1.2912   22.6468 C   0  0  0  0  0  0  0  0  0  0  0  0
   11.8236   -1.7655   22.5135 C   0  0  0  0  0  0  0  0  0  0  0  0
    9.7134   -0.6286   22.4011 C   0  0  2  0  0  0  0  0  0  0  0  0
    9.0555    0.0611   21.4052 C   0  0  0  0  0  0  0  0  0  0  0  0
    9.5449    1.0258   21.0221 O   0  0  0  0  0  0  0  0  0  0  0  0
    7.9590   -0.5418   21.0696 N   0  0  0  0  0  0  0  0  0  0  0  0
    7.1922   -0.0718   20.1609 C   0  0  0  0  0  0  0  0  0  0  0  0
    7.2103    0.0009   18.8243 C   0  0  0  0  0  0  0  0  0  0  0  0
    6.7559    0.3260   17.7709 N   0  0  0  0  0  0  0  0  0  0  0  0
    5.6167    0.9164   18.1709 C   0  0  0  0  0  0  0  0  0  0  0  0
    5.2458    1.0045   19.4051 C   0  0  0  0  0  0  0  0  0  0  0  0
    5.8582    0.5418   20.5041 C   0  0  0  0  0  0  0  0  0  0  0  0
    5.3477    0.6401   21.9762 C   0  0  0  0  0  0  0  0  0  0  0  0
 20 21  2  0  0  0  0
 19 20  1  0  0  0  0
 21 22  1  0  0  0  0
 18 19  2  0  0  0  0
 22 23  2  0  0  0  0
 18 23  1  0  0  0  0
 17 18  1  0  0  0  0
 23 24  1  0  0  0  0
 15 16  2  0  0  0  0
 15 17  1  0  0  0  0
 14 15  1  0  0  0  0
  8 14  1  0  0  0  0
  7 14  1  0  0  0  0
 12 13  1  0  0  0  0
  8 13  1  0  0  0  0
 11 12  2  0  0  0  0
  7  8  1  0  0  0  0
  8  9  1  0  0  0  0
 10 11  1  0  0  0  0
  6  7  2  3  0  0  0
  5  6  1  0  0  0  0
  9 10  2  0  0  0  0
  2  5  1  0  0  0  0
  2  3  2  0  0  0  0
  1  2  1  0  0  0  0
  2  4  2  0  0  0  0
M  END
> <Shapegauss>
-285.682526

$$$$
