stable:False satoms:8 tatoms:24 sratio:0.3333333333333333
  -OEChem-08062418113D

 43 45  0     1  0  0  0  0  0999 V2000
    6.5955   -5.2311   26.1073 C   0  0  0  0  0  0  0  0  0  0  0  0
    8.3037   -4.6519   25.8336 S   0  0  0  0  0  0  0  0  0  0  0  0
    9.1231   -5.8158   25.6567 O   0  0  0  0  0  0  0  0  0  0  0  0
    8.6386   -3.8832   26.9662 O   0  0  0  0  0  0  0  0  0  0  0  0
    8.2424   -3.7621   24.4637 N   0  0  0  0  0  0  0  0  0  0  0  0
    9.0770   -3.0991   23.9917 C   0  0  0  0  0  0  0  0  0  0  0  0
    9.5188   -2.0825   23.4257 C   0  0  0  0  0  0  0  0  0  0  0  0
   10.4509   -1.1934   23.3276 C   0  0  1  0  0  0  0  0  0  0  0  0
   11.1057   -0.1783   24.5045 C   0  0  0  0  0  0  0  0  0  0  0  0
   12.0842    0.1232   24.5211 C   0  0  0  0  0  0  0  0  0  0  0  0
   13.2692   -0.2193   23.6709 C   0  0  0  0  0  0  0  0  0  0  0  0
   12.8283   -1.3011   22.7602 C   0  0  0  0  0  0  0  0  0  0  0  0
   11.9540   -1.7686   22.5616 C   0  0  0  0  0  0  0  0  0  0  0  0
    9.8360   -0.6428   22.4938 C   0  0  2  0  0  0  0  0  0  0  0  0
    9.1973    0.1275   21.5456 C   0  0  0  0  0  0  0  0  0  0  0  0
    9.6866    1.1262   21.2629 O   0  0  0  0  0  0  0  0  0  0  0  0
    8.1161   -0.4518   21.1286 N   0  0  0  0  0  0  0  0  0  0  0  0
    7.3685    0.0911   20.2448 C   0  0  0  0  0  0  0  0  0  0  0  0
    7.4207    0.2825   18.9209 C   0  0  0  0  0  0  0  0  0  0  0  0
    6.9906    0.6963   17.8886 N   0  0  0  0  0  0  0  0  0  0  0  0
    5.8354    1.2399   18.3086 C   0  0  0  0  0  0  0  0  0  0  0  0
    5.4316    1.2150   19.5354 C   0  0  0  0  0  0  0  0  0  0  0  0
    6.0198    0.6613   20.6051 C   0  0  0  0  0  0  0  0  0  0  0  0
    5.4701    0.6243   22.0659 C   0  0  0  0  0  0  0  0  0  0  0  0
    6.5571   -5.8429   27.0206 H   0  0  0  0  0  0  0  0  0  0  0  0
    5.9279   -4.3640   26.2186 H   0  0  0  0  0  0  0  0  0  0  0  0
    6.2713   -5.8356   25.2473 H   0  0  0  0  0  0  0  0  0  0  0  0
    7.4749   -3.1368   24.6048 H   0  0  0  0  0  0  0  0  0  0  0  0
    9.9614   -3.7068   24.1140 H   0  0  0  0  0  0  0  0  0  0  0  0
   10.4529    0.1756   25.2888 H   0  0  0  0  0  0  0  0  0  0  0  0
   12.3061    0.8285   25.3083 H   0  0  0  0  0  0  0  0  0  0  0  0
   14.2493    0.2323   23.7136 H   0  0  0  0  0  0  0  0  0  0  0  0
   13.6405   -1.6849   22.1606 H   0  0  0  0  0  0  0  0  0  0  0  0
   11.8006   -1.7096   21.4740 H   0  0  0  0  0  0  0  0  0  0  0  0
   12.0805   -2.8205   22.8575 H   0  0  0  0  0  0  0  0  0  0  0  0
   10.3229   -1.2399   21.7087 H   0  0  0  0  0  0  0  0  0  0  0  0
    7.8610   -1.3421   21.5057 H   0  0  0  0  0  0  0  0  0  0  0  0
    8.3482   -0.1913   18.6349 H   0  0  0  0  0  0  0  0  0  0  0  0
    5.2074    1.7264   17.5770 H   0  0  0  0  0  0  0  0  0  0  0  0
    4.4899    1.7085   19.7254 H   0  0  0  0  0  0  0  0  0  0  0  0
    4.8842   -0.2947   22.2145 H   0  0  0  0  0  0  0  0  0  0  0  0
    6.3112    0.6414   22.7745 H   0  0  0  0  0  0  0  0  0  0  0  0
    4.8277    1.5005   22.2380 H   0  0  0  0  0  0  0  0  0  0  0  0
 20 21  2  0  0  0  0
 19 20  1  0  0  0  0
 21 22  1  0  0  0  0
 18 19  2  0  0  0  0
 22 23  2  0  0  0  0
 18 23  1  0  0  0  0
 17 18  1  0  0  0  0
 23 24  1  0  0  0  0
 15 16  2  0  0  0  0
 15 17  1  0  0  0  0
 14 15  1  0  0  0  0
  8 14  1  0  0  0  0
  7 14  1  0  0  0  0
 12 13  1  0  0  0  0
  8 13  1  0  0  0  0
 11 12  2  0  0  0  0
  7  8  1  0  0  0  0
  8  9  1  0  0  0  0
 10 11  1  0  0  0  0
  6  7  2  3  0  0  0
  5  6  1  0  0  0  0
  9 10  2  0  0  0  0
  2  5  1  0  0  0  0
  2  3  2  0  0  0  0
  1  2  1  0  0  0  0
  2  4  2  0  0  0  0
  1 25  1  0  0  0  0
  1 26  1  0  0  0  0
  1 27  1  0  0  0  0
  5 28  1  0  0  0  0
  6 29  1  0  0  0  0
  9 30  1  0  0  0  0
 10 31  1  0  0  0  0
 11 32  1  0  0  0  0
 12 33  1  0  0  0  0
 13 34  1  0  0  0  0
 13 35  1  0  0  0  0
 14 36  1  0  0  0  0
 17 37  1  0  0  0  0
 19 38  1  0  0  0  0
 21 39  1  0  0  0  0
 22 40  1  0  0  0  0
 24 41  1  0  0  0  0
 24 42  1  0  0  0  0
 24 43  1  0  0  0  0
M  END
> <Chemgauss4>
-12.700712

$$$$
