stable:False satoms:8 tatoms:24 sratio:0.3333333333333333
  -OEChem-08062418113D

 43 45  0     1  0  0  0  0  0999 V2000
   -6.0029   -5.3595  -25.8272 C   0  0  0  0  0  0  0  0  0  0  0  0
   -7.7413   -4.8204  -25.7024 S   0  0  0  0  0  0  0  0  0  0  0  0
   -8.5460   -6.0033  -25.5988 O   0  0  0  0  0  0  0  0  0  0  0  0
   -7.9941   -4.0558  -26.8588 O   0  0  0  0  0  0  0  0  0  0  0  0
   -7.8199   -3.9338  -24.3312 N   0  0  0  0  0  0  0  0  0  0  0  0
   -8.7074   -3.2916  -23.9327 C   0  0  0  0  0  0  0  0  0  0  0  0
   -9.2201   -2.2873  -23.4060 C   0  0  0  0  0  0  0  0  0  0  0  0
  -10.1775   -1.4201  -23.3882 C   0  0  1  0  0  0  0  0  0  0  0  0
  -10.7507   -0.4163  -24.6164 C   0  0  0  0  0  0  0  0  0  0  0  0
  -11.7307   -0.1373  -24.7176 C   0  0  0  0  0  0  0  0  0  0  0  0
  -12.9769   -0.5095  -23.9741 C   0  0  0  0  0  0  0  0  0  0  0  0
  -12.5920   -1.5839  -23.0298 C   0  0  0  0  0  0  0  0  0  0  0  0
  -11.7278   -2.0319  -22.7566 C   0  0  0  0  0  0  0  0  0  0  0  0
   -9.6502   -0.8582  -22.5034 C   0  0  2  0  0  0  0  0  0  0  0  0
   -9.1142   -0.0766  -21.5023 C   0  0  0  0  0  0  0  0  0  0  0  0
   -9.6492    0.9098  -21.2619 O   0  0  0  0  0  0  0  0  0  0  0  0
   -8.0603   -0.6324  -20.9935 N   0  0  0  0  0  0  0  0  0  0  0  0
   -7.4050   -0.0754  -20.0475 C   0  0  0  0  0  0  0  0  0  0  0  0
   -7.5765    0.1104  -18.7329 C   0  0  0  0  0  0  0  0  0  0  0  0
   -7.2474    0.5306  -17.6666 N   0  0  0  0  0  0  0  0  0  0  0  0
   -6.0729    1.1018  -17.9839 C   0  0  0  0  0  0  0  0  0  0  0  0
   -5.5636    1.0902  -19.1709 C   0  0  0  0  0  0  0  0  0  0  0  0
   -6.0437    0.5266  -20.2884 C   0  0  0  0  0  0  0  0  0  0  0  0
   -5.3684    0.5070  -21.6958 C   0  0  0  0  0  0  0  0  0  0  0  0
   -5.8712   -5.9673  -26.7345 H   0  0  0  0  0  0  0  0  0  0  0  0
   -5.3483   -4.4770  -25.8789 H   0  0  0  0  0  0  0  0  0  0  0  0
   -5.7408   -5.9591  -24.9430 H   0  0  0  0  0  0  0  0  0  0  0  0
   -7.0576   -3.2906  -24.4042 H   0  0  0  0  0  0  0  0  0  0  0  0
   -9.5636   -3.9190  -24.1322 H   0  0  0  0  0  0  0  0  0  0  0  0
  -10.0406   -0.0450  -25.3405 H   0  0  0  0  0  0  0  0  0  0  0  0
  -11.8996    0.5653  -25.5202 H   0  0  0  0  0  0  0  0  0  0  0  0
  -13.9597   -0.0803  -24.1012 H   0  0  0  0  0  0  0  0  0  0  0  0
  -13.4442   -1.9881  -22.5036 H   0  0  0  0  0  0  0  0  0  0  0  0
  -11.6708   -1.9729  -21.6596 H   0  0  0  0  0  0  0  0  0  0  0  0
  -11.8037   -3.0855  -23.0637 H   0  0  0  0  0  0  0  0  0  0  0  0
  -10.1895   -1.4688  -21.7643 H   0  0  0  0  0  0  0  0  0  0  0  0
   -7.7529   -1.5154  -21.3482 H   0  0  0  0  0  0  0  0  0  0  0  0
   -8.5141   -0.3853  -18.5292 H   0  0  0  0  0  0  0  0  0  0  0  0
   -5.5223    1.6002  -17.1997 H   0  0  0  0  0  0  0  0  0  0  0  0
   -4.6206    1.6057  -19.2777 H   0  0  0  0  0  0  0  0  0  0  0  0
   -4.7507   -0.3979  -21.7942 H   0  0  0  0  0  0  0  0  0  0  0  0
   -6.1449    0.5072  -22.4750 H   0  0  0  0  0  0  0  0  0  0  0  0
   -4.7339    1.3982  -21.8104 H   0  0  0  0  0  0  0  0  0  0  0  0
 20 21  2  0  0  0  0
 19 20  1  0  0  0  0
 21 22  1  0  0  0  0
 18 19  2  0  0  0  0
 22 23  2  0  0  0  0
 18 23  1  0  0  0  0
 17 18  1  0  0  0  0
 23 24  1  0  0  0  0
 15 16  2  0  0  0  0
 15 17  1  0  0  0  0
 14 15  1  0  0  0  0
  8 14  1  0  0  0  0
  7 14  1  0  0  0  0
 12 13  1  0  0  0  0
  8 13  1  0  0  0  0
 11 12  2  0  0  0  0
  7  8  1  0  0  0  0
  8  9  1  0  0  0  0
 10 11  1  0  0  0  0
  6  7  2  3  0  0  0
  5  6  1  0  0  0  0
  9 10  2  0  0  0  0
  2  5  1  0  0  0  0
  2  3  2  0  0  0  0
  1  2  1  0  0  0  0
  2  4  2  0  0  0  0
  1 25  1  0  0  0  0
  1 26  1  0  0  0  0
  1 27  1  0  0  0  0
  5 28  1  0  0  0  0
  6 29  1  0  0  0  0
  9 30  1  0  0  0  0
 10 31  1  0  0  0  0
 11 32  1  0  0  0  0
 12 33  1  0  0  0  0
 13 34  1  0  0  0  0
 13 35  1  0  0  0  0
 14 36  1  0  0  0  0
 17 37  1  0  0  0  0
 19 38  1  0  0  0  0
 21 39  1  0  0  0  0
 22 40  1  0  0  0  0
 24 41  1  0  0  0  0
 24 42  1  0  0  0  0
 24 43  1  0  0  0  0
M  END
> <Chemgauss4>
-12.933931

$$$$
