MODEL 1
REMARK VINA RESULT:    -6.700      0.000      0.000
REMARK INTER + INTRA:          -9.255
REMARK INTER:                  -8.658
REMARK INTRA:                  -0.597
REMARK UNBOUND:                -0.597
REMARK  5 active torsions:
REMARK  status: ('A' for Active; 'I' for Inactive)
REMARK    1  A    between atoms: S_2  and  N_5 
REMARK    2  A    between atoms: N_5  and  C_7 
REMARK    3  A    between atoms: C_8  and  C_9 
REMARK    4  A    between atoms: C_9  and  C_10 
REMARK    5  A    between atoms: C_12  and  C_13 
REMARK       I    between atoms: C_13  and  N_15 
ROOT
HETATM    1  C   UNL     1      10.147  -1.329  23.379  1.00  0.00     0.024 C 
HETATM    2  C   UNL     1      10.130  -0.752  22.194  1.00  0.00     0.095 C 
ENDROOT
BRANCH   2   3
HETATM    3  C   UNL     1       9.154   0.155  21.405  1.00  0.00     0.248 C 
HETATM    4  O   UNL     1       9.483   1.271  21.150  1.00  0.00    -0.268 OA
HETATM    5  N   UNL     1       7.999  -0.420  20.947  1.00  0.00    -0.308 N 
HETATM    6  C   UNL     1       7.240   0.069  19.984  1.00  0.00     0.122 A 
ATOM      7  HN  UNL     1       7.701  -1.293  21.384  1.00  0.00     0.170 HD
HETATM    8  N   UNL     1       7.552   0.191  18.709  1.00  0.00    -0.286 N 
HETATM    9  C   UNL     1       5.879   0.454  20.292  1.00  0.00     0.051 A 
HETATM   10  N   UNL     1       6.887   0.677  17.880  1.00  0.00    -0.310 N 
ATOM     11  HN  UNL     1       8.460  -0.173  18.419  1.00  0.00     0.188 HD
HETATM   12  C   UNL     1       5.738   1.086  18.100  1.00  0.00     0.107 A 
ATOM     13  HN  UNL     1       7.267   0.766  16.938  1.00  0.00     0.186 HD
HETATM   14  C   UNL     1       5.435   0.927  19.163  1.00  0.00     0.022 A 
ENDBRANCH   2   3
BRANCH   1  15
HETATM   15  C   UNL     1       9.354  -2.394  23.615  1.00  0.00    -0.043 C 
HETATM   16  C   UNL     1       8.720  -3.253  23.667  1.00  0.00     0.027 C 
BRANCH  16  17
HETATM   17  N   UNL     1       8.008  -4.223  24.037  1.00  0.00    -0.229 N 
ATOM     18  HN  UNL     1       8.248  -4.756  24.874  1.00  0.00     0.190 HD
BRANCH  17  19
HETATM   19  S   UNL     1       6.708  -4.608  23.164  1.00  0.00     0.327 S 
HETATM   20 CL   UNL     1       7.343  -6.063  22.130  1.00  0.00     0.042 Cl
HETATM   21  O   UNL     1       5.632  -5.097  23.979  1.00  0.00    -0.188 OA
HETATM   22  O   UNL     1       6.357  -3.590  22.228  1.00  0.00    -0.188 OA
ENDBRANCH  17  19
ENDBRANCH  16  17
ENDBRANCH   1  15
BRANCH   1  23
HETATM   23  C   UNL     1      11.062  -0.749  24.167  1.00  0.00     0.010 C 
HETATM   24  C   UNL     1      12.153  -0.075  24.116  1.00  0.00     0.013 C 
ENDBRANCH   1  23
TORSDOF 5
ENDMDL
MODEL 2
REMARK VINA RESULT:    -6.689      4.077      5.850
REMARK INTER + INTRA:          -9.240
REMARK INTER:                  -8.700
REMARK INTRA:                  -0.541
REMARK UNBOUND:                -0.597
REMARK  5 active torsions:
REMARK  status: ('A' for Active; 'I' for Inactive)
REMARK    1  A    between atoms: S_2  and  N_5 
REMARK    2  A    between atoms: N_5  and  C_7 
REMARK    3  A    between atoms: C_8  and  C_9 
REMARK    4  A    between atoms: C_9  and  C_10 
REMARK    5  A    between atoms: C_12  and  C_13 
REMARK       I    between atoms: C_13  and  N_15 
ROOT
HETATM    1  C   UNL     1       7.489  -4.856  23.529  1.00  0.00     0.024 C 
HETATM    2  C   UNL     1       7.413  -3.589  23.174  1.00  0.00     0.095 C 
ENDROOT
BRANCH   2   3
HETATM    3  C   UNL     1       8.399  -2.402  23.042  1.00  0.00     0.248 C 
HETATM    4  O   UNL     1       7.997  -1.363  22.620  1.00  0.00    -0.268 OA
HETATM    5  N   UNL     1       9.667  -2.587  23.523  1.00  0.00    -0.308 N 
HETATM    6  C   UNL     1      10.512  -1.618  23.821  1.00  0.00     0.122 A 
ATOM      7  HN  UNL     1       9.984  -3.547  23.662  1.00  0.00     0.170 HD
HETATM    8  N   UNL     1      10.396  -0.729  24.787  1.00  0.00    -0.286 N 
HETATM    9  C   UNL     1      11.758  -1.525  23.089  1.00  0.00     0.051 A 
HETATM   10  N   UNL     1      11.128   0.156  25.002  1.00  0.00    -0.310 N 
ATOM     11  HN  UNL     1       9.590  -0.822  25.406  1.00  0.00     0.188 HD
HETATM   12  C   UNL     1      12.176   0.326  24.363  1.00  0.00     0.107 A 
ATOM     13  HN  UNL     1      10.896   0.815  25.745  1.00  0.00     0.186 HD
HETATM   14  C   UNL     1      12.323  -0.461  23.585  1.00  0.00     0.022 A 
ENDBRANCH   2   3
BRANCH   1  15
HETATM   15  C   UNL     1       7.667  -5.176  24.827  1.00  0.00    -0.043 C 
HETATM   16  C   UNL     1       7.920  -5.356  25.849  1.00  0.00     0.027 C 
BRANCH  16  17
HETATM   17  N   UNL     1       7.948  -5.724  27.054  1.00  0.00    -0.229 N 
ATOM     18  HN  UNL     1       8.830  -5.971  27.502  1.00  0.00     0.190 HD
BRANCH  17  19
HETATM   19  S   UNL     1       6.560  -5.797  27.873  1.00  0.00     0.327 S 
HETATM   20 CL   UNL     1       5.793  -4.105  27.501  1.00  0.00     0.042 Cl
HETATM   21  O   UNL     1       5.673  -6.797  27.348  1.00  0.00    -0.188 OA
HETATM   22  O   UNL     1       6.760  -5.832  29.285  1.00  0.00    -0.188 OA
ENDBRANCH  17  19
ENDBRANCH  16  17
ENDBRANCH   1  15
BRANCH   1  23
HETATM   23  C   UNL     1       7.300  -5.650  22.467  1.00  0.00     0.010 C 
HETATM   24  C   UNL     1       6.541  -5.797  21.442  1.00  0.00     0.013 C 
ENDBRANCH   1  23
TORSDOF 5
ENDMDL
MODEL 3
REMARK VINA RESULT:    -6.656      1.768      1.932
REMARK INTER + INTRA:          -9.198
REMARK INTER:                  -8.667
REMARK INTRA:                  -0.531
REMARK UNBOUND:                -0.597
REMARK  5 active torsions:
REMARK  status: ('A' for Active; 'I' for Inactive)
REMARK    1  A    between atoms: S_2  and  N_5 
REMARK    2  A    between atoms: N_5  and  C_7 
REMARK    3  A    between atoms: C_8  and  C_9 
REMARK    4  A    between atoms: C_9  and  C_10 
REMARK    5  A    between atoms: C_12  and  C_13 
REMARK       I    between atoms: C_13  and  N_15 
ROOT
HETATM    1  C   UNL     1      10.403  -1.034  23.474  1.00  0.00     0.024 C 
HETATM    2  C   UNL     1      10.044  -0.885  22.215  1.00  0.00     0.095 C 
ENDROOT
BRANCH   2   3
HETATM    3  C   UNL     1       9.108   0.060  21.422  1.00  0.00     0.248 C 
HETATM    4  O   UNL     1       9.479   1.165  21.177  1.00  0.00    -0.268 OA
HETATM    5  N   UNL     1       7.938  -0.471  20.950  1.00  0.00    -0.308 N 
HETATM    6  C   UNL     1       7.206   0.050  19.983  1.00  0.00     0.122 A 
ATOM      7  HN  UNL     1       7.606  -1.335  21.379  1.00  0.00     0.170 HD
HETATM    8  N   UNL     1       7.535   0.167  18.711  1.00  0.00    -0.286 N 
HETATM    9  C   UNL     1       5.857   0.481  20.280  1.00  0.00     0.051 A 
HETATM   10  N   UNL     1       6.895   0.681  17.879  1.00  0.00    -0.310 N 
ATOM     11  HN  UNL     1       8.432  -0.227  18.427  1.00  0.00     0.188 HD
HETATM   12  C   UNL     1       5.760   1.130  18.090  1.00  0.00     0.107 A 
ATOM     13  HN  UNL     1       7.287   0.762  16.941  1.00  0.00     0.186 HD
HETATM   14  C   UNL     1       5.440   0.976  19.149  1.00  0.00     0.022 A 
ENDBRANCH   2   3
BRANCH   1  15
HETATM   15  C   UNL     1       9.529  -1.554  24.361  1.00  0.00    -0.043 C 
HETATM   16  C   UNL     1       8.846  -2.081  24.991  1.00  0.00     0.027 C 
BRANCH  16  17
HETATM   17  N   UNL     1       8.044  -2.433  25.896  1.00  0.00    -0.229 N 
ATOM     18  HN  UNL     1       7.473  -1.742  26.384  1.00  0.00     0.190 HD
BRANCH  17  19
HETATM   19  S   UNL     1       7.937  -3.999  26.269  1.00  0.00     0.327 S 
HETATM   20 CL   UNL     1       8.063  -4.820  24.566  1.00  0.00     0.042 Cl
HETATM   21  O   UNL     1       9.056  -4.449  27.048  1.00  0.00    -0.188 OA
HETATM   22  O   UNL     1       6.652  -4.353  26.778  1.00  0.00    -0.188 OA
ENDBRANCH  17  19
ENDBRANCH  16  17
ENDBRANCH   1  15
BRANCH   1  23
HETATM   23  C   UNL     1      11.682  -0.674  23.641  1.00  0.00     0.010 C 
HETATM   24  C   UNL     1      12.453  -0.038  24.447  1.00  0.00     0.013 C 
ENDBRANCH   1  23
TORSDOF 5
ENDMDL
MODEL 4
REMARK VINA RESULT:    -6.379      5.492      7.089
REMARK INTER + INTRA:          -8.841
REMARK INTER:                  -8.273
REMARK INTRA:                  -0.568
REMARK UNBOUND:                -0.597
REMARK  5 active torsions:
REMARK  status: ('A' for Active; 'I' for Inactive)
REMARK    1  A    between atoms: S_2  and  N_5 
REMARK    2  A    between atoms: N_5  and  C_7 
REMARK    3  A    between atoms: C_8  and  C_9 
REMARK    4  A    between atoms: C_9  and  C_10 
REMARK    5  A    between atoms: C_12  and  C_13 
REMARK       I    between atoms: C_13  and  N_15 
ROOT
HETATM    1  C   UNL     1      10.961   1.073  24.348  1.00  0.00     0.024 C 
HETATM    2  C   UNL     1      10.273   0.176  25.026  1.00  0.00     0.095 C 
ENDROOT
BRANCH   2   3
HETATM    3  C   UNL     1       9.138  -0.831  24.718  1.00  0.00     0.248 C 
HETATM    4  O   UNL     1       8.049  -0.414  24.475  1.00  0.00    -0.268 OA
HETATM    5  N   UNL     1       9.480  -2.154  24.638  1.00  0.00    -0.308 N 
HETATM    6  C   UNL     1       8.755  -3.088  24.051  1.00  0.00     0.122 A 
ATOM      7  HN  UNL     1      10.362  -2.439  25.064  1.00  0.00     0.170 HD
HETATM    8  N   UNL     1       8.485  -3.196  22.765  1.00  0.00    -0.286 N 
HETATM    9  C   UNL     1       8.246  -4.184  24.849  1.00  0.00     0.051 A 
HETATM   10  N   UNL     1       7.796  -4.001  22.271  1.00  0.00    -0.310 N 
ATOM     11  HN  UNL     1       8.916  -2.512  22.143  1.00  0.00     0.188 HD
HETATM   12  C   UNL     1       7.277  -4.923  22.915  1.00  0.00     0.107 A 
ATOM     13  HN  UNL     1       7.616  -3.942  21.269  1.00  0.00     0.186 HD
HETATM   14  C   UNL     1       7.554  -4.884  23.996  1.00  0.00     0.022 A 
ENDBRANCH   2   3
BRANCH   1  15
HETATM   15  C   UNL     1      10.370   2.228  23.978  1.00  0.00    -0.043 C 
HETATM   16  C   UNL     1       9.844   3.143  23.808  1.00  0.00     0.027 C 
BRANCH  16  17
HETATM   17  N   UNL     1       9.376   4.211  23.334  1.00  0.00    -0.229 N 
ATOM     18  HN  UNL     1       8.812   4.200  22.484  1.00  0.00     0.190 HD
BRANCH  17  19
HETATM   19  S   UNL     1       9.688   5.599  24.095  1.00  0.00     0.327 S 
HETATM   20 CL   UNL     1      11.583   5.623  24.111  1.00  0.00     0.042 Cl
HETATM   21  O   UNL     1       9.250   6.740  23.342  1.00  0.00    -0.188 OA
HETATM   22  O   UNL     1       9.288   5.574  25.464  1.00  0.00    -0.188 OA
ENDBRANCH  17  19
ENDBRANCH  16  17
ENDBRANCH   1  15
BRANCH   1  23
HETATM   23  C   UNL     1      12.229   0.671  24.196  1.00  0.00     0.010 C 
HETATM   24  C   UNL     1      12.984  -0.357  24.338  1.00  0.00     0.013 C 
ENDBRANCH   1  23
TORSDOF 5
ENDMDL
MODEL 5
REMARK VINA RESULT:    -6.361     20.783     23.310
REMARK INTER + INTRA:          -8.817
REMARK INTER:                  -8.231
REMARK INTRA:                  -0.586
REMARK UNBOUND:                -0.597
REMARK  5 active torsions:
REMARK  status: ('A' for Active; 'I' for Inactive)
REMARK    1  A    between atoms: S_2  and  N_5 
REMARK    2  A    between atoms: N_5  and  C_7 
REMARK    3  A    between atoms: C_8  and  C_9 
REMARK    4  A    between atoms: C_9  and  C_10 
REMARK    5  A    between atoms: C_12  and  C_13 
REMARK       I    between atoms: C_13  and  N_15 
ROOT
HETATM    1  C   UNL     1       5.777  12.759   2.809  1.00  0.00     0.024 C 
HETATM    2  C   UNL     1       5.327  11.763   2.072  1.00  0.00     0.095 C 
ENDROOT
BRANCH   2   3
HETATM    3  C   UNL     1       5.174  10.231   2.235  1.00  0.00     0.248 C 
HETATM    4  O   UNL     1       5.762   9.511   1.490  1.00  0.00    -0.268 OA
HETATM    5  N   UNL     1       4.448   9.786   3.306  1.00  0.00    -0.308 N 
HETATM    6  C   UNL     1       4.503   8.564   3.803  1.00  0.00     0.122 A 
ATOM      7  HN  UNL     1       3.815  10.448   3.754  1.00  0.00     0.170 HD
HETATM    8  N   UNL     1       5.529   7.996   4.405  1.00  0.00    -0.286 N 
HETATM    9  C   UNL     1       3.310   7.744   3.782  1.00  0.00     0.051 A 
HETATM   10  N   UNL     1       5.577   6.894   4.791  1.00  0.00    -0.310 N 
ATOM     11  HN  UNL     1       6.359   8.572   4.548  1.00  0.00     0.188 HD
HETATM   12  C   UNL     1       4.608   6.124   4.738  1.00  0.00     0.107 A 
ATOM     13  HN  UNL     1       6.453   6.552   5.188  1.00  0.00     0.186 HD
HETATM   14  C   UNL     1       3.710   6.614   4.292  1.00  0.00     0.022 A 
ENDBRANCH   2   3
BRANCH   1  15
HETATM   15  C   UNL     1       7.104  12.894   3.012  1.00  0.00    -0.043 C 
HETATM   16  C   UNL     1       8.170  12.915   3.070  1.00  0.00     0.027 C 
BRANCH  16  17
HETATM   17  N   UNL     1       9.372  13.148   3.364  1.00  0.00    -0.229 N 
ATOM     18  HN  UNL     1       9.962  12.417   3.763  1.00  0.00     0.190 HD
BRANCH  17  19
HETATM   19  S   UNL     1       9.962  14.626   3.100  1.00  0.00     0.327 S 
HETATM   20 CL   UNL     1       8.850  15.697   4.199  1.00  0.00     0.042 Cl
HETATM   21  O   UNL     1      11.307  14.768   3.581  1.00  0.00    -0.188 OA
HETATM   22  O   UNL     1       9.736  15.075   1.764  1.00  0.00    -0.188 OA
ENDBRANCH  17  19
ENDBRANCH  16  17
ENDBRANCH   1  15
BRANCH   1  23
HETATM   23  C   UNL     1       4.765  13.547   3.196  1.00  0.00     0.010 C 
HETATM   24  C   UNL     1       3.554  13.496   3.619  1.00  0.00     0.013 C 
ENDBRANCH   1  23
TORSDOF 5
ENDMDL
MODEL 6
REMARK VINA RESULT:    -6.317     25.552     28.006
REMARK INTER + INTRA:          -8.761
REMARK INTER:                  -8.054
REMARK INTRA:                  -0.706
REMARK UNBOUND:                -0.597
REMARK  5 active torsions:
REMARK  status: ('A' for Active; 'I' for Inactive)
REMARK    1  A    between atoms: S_2  and  N_5 
REMARK    2  A    between atoms: N_5  and  C_7 
REMARK    3  A    between atoms: C_8  and  C_9 
REMARK    4  A    between atoms: C_9  and  C_10 
REMARK    5  A    between atoms: C_12  and  C_13 
REMARK       I    between atoms: C_13  and  N_15 
ROOT
HETATM    1  C   UNL     1      10.076  20.261   0.977  1.00  0.00     0.024 C 
HETATM    2  C   UNL     1       9.699  19.115   0.447  1.00  0.00     0.095 C 
ENDROOT
BRANCH   2   3
HETATM    3  C   UNL     1       8.686  17.998   0.800  1.00  0.00     0.248 C 
HETATM    4  O   UNL     1       7.633  17.979   0.244  1.00  0.00    -0.268 OA
HETATM    5  N   UNL     1       9.108  17.023   1.663  1.00  0.00    -0.308 N 
HETATM    6  C   UNL     1       8.543  15.838   1.799  1.00  0.00     0.122 A 
ATOM      7  HN  UNL     1       9.920  17.228   2.245  1.00  0.00     0.170 HD
HETATM    8  N   UNL     1       8.498  14.870   0.905  1.00  0.00    -0.286 N 
HETATM    9  C   UNL     1       7.967  15.479   3.078  1.00  0.00     0.051 A 
HETATM   10  N   UNL     1       7.946  13.847   1.025  1.00  0.00    -0.310 N 
ATOM     11  HN  UNL     1       8.990  15.029   0.026  1.00  0.00     0.188 HD
HETATM   12  C   UNL     1       7.376  13.513   2.074  1.00  0.00     0.107 A 
ATOM     13  HN  UNL     1       7.933  13.202   0.235  1.00  0.00     0.186 HD
HETATM   14  C   UNL     1       7.466  14.296   2.864  1.00  0.00     0.022 A 
ENDBRANCH   2   3
BRANCH   1  15
HETATM   15  C   UNL     1      10.836  20.263   2.092  1.00  0.00    -0.043 C 
HETATM   16  C   UNL     1      11.544  20.261   2.892  1.00  0.00     0.027 C 
BRANCH  16  17
HETATM   17  N   UNL     1      12.121  20.281   4.011  1.00  0.00    -0.229 N 
ATOM     18  HN  UNL     1      12.472  21.156   4.400  1.00  0.00     0.190 HD
BRANCH  17  19
HETATM   19  S   UNL     1      12.295  18.895   4.818  1.00  0.00     0.327 S 
HETATM   20 CL   UNL     1      10.505  18.287   4.949  1.00  0.00     0.042 Cl
HETATM   21  O   UNL     1      13.027  17.917   4.064  1.00  0.00    -0.188 OA
HETATM   22  O   UNL     1      12.737  19.094   6.160  1.00  0.00    -0.188 OA
ENDBRANCH  17  19
ENDBRANCH  16  17
ENDBRANCH   1  15
BRANCH   1  23
HETATM   23  C   UNL     1       9.659  21.285   0.222  1.00  0.00     0.010 C 
HETATM   24  C   UNL     1       8.590  21.847  -0.212  1.00  0.00     0.013 C 
ENDBRANCH   1  23
TORSDOF 5
ENDMDL
MODEL 7
REMARK VINA RESULT:    -6.282      3.092      4.477
REMARK INTER + INTRA:          -8.716
REMARK INTER:                  -8.284
REMARK INTRA:                  -0.432
REMARK UNBOUND:                -0.597
REMARK  5 active torsions:
REMARK  status: ('A' for Active; 'I' for Inactive)
REMARK    1  A    between atoms: S_2  and  N_5 
REMARK    2  A    between atoms: N_5  and  C_7 
REMARK    3  A    between atoms: C_8  and  C_9 
REMARK    4  A    between atoms: C_9  and  C_10 
REMARK    5  A    between atoms: C_12  and  C_13 
REMARK       I    between atoms: C_13  and  N_15 
ROOT
HETATM    1  C   UNL     1       8.258  -2.902  23.298  1.00  0.00     0.024 C 
HETATM    2  C   UNL     1       7.191  -2.240  22.895  1.00  0.00     0.095 C 
ENDROOT
BRANCH   2   3
HETATM    3  C   UNL     1       6.600  -1.789  21.537  1.00  0.00     0.248 C 
HETATM    4  O   UNL     1       5.729  -2.434  21.045  1.00  0.00    -0.268 OA
HETATM    5  N   UNL     1       7.046  -0.600  21.026  1.00  0.00    -0.308 N 
HETATM    6  C   UNL     1       6.425   0.106  20.100  1.00  0.00     0.122 A 
ATOM      7  HN  UNL     1       7.925  -0.230  21.389  1.00  0.00     0.170 HD
HETATM    8  N   UNL     1       5.263   0.718  20.211  1.00  0.00    -0.286 N 
HETATM    9  C   UNL     1       7.085   0.332  18.831  1.00  0.00     0.051 A 
HETATM   10  N   UNL     1       4.703   1.294  19.362  1.00  0.00    -0.310 N 
ATOM     11  HN  UNL     1       4.809   0.686  21.124  1.00  0.00     0.188 HD
HETATM   12  C   UNL     1       5.189   1.461  18.235  1.00  0.00     0.107 A 
ATOM     13  HN  UNL     1       3.777   1.675  19.557  1.00  0.00     0.186 HD
HETATM   14  C   UNL     1       6.205   1.005  18.147  1.00  0.00     0.022 A 
ENDBRANCH   2   3
BRANCH   1  15
HETATM   15  C   UNL     1       9.469  -2.310  23.245  1.00  0.00    -0.043 C 
HETATM   16  C   UNL     1      10.472  -1.943  23.285  1.00  0.00     0.027 C 
BRANCH  16  17
HETATM   17  N   UNL     1      11.540  -1.293  23.134  1.00  0.00    -0.229 N 
ATOM     18  HN  UNL     1      12.301  -1.667  22.567  1.00  0.00     0.190 HD
BRANCH  17  19
HETATM   19  S   UNL     1      11.681   0.143  23.854  1.00  0.00     0.327 S 
HETATM   20 CL   UNL     1      10.460  -0.015  25.294  1.00  0.00     0.042 Cl
HETATM   21  O   UNL     1      12.987   0.342  24.417  1.00  0.00    -0.188 OA
HETATM   22  O   UNL     1      11.192   1.212  23.045  1.00  0.00    -0.188 OA
ENDBRANCH  17  19
ENDBRANCH  16  17
ENDBRANCH   1  15
BRANCH   1  23
HETATM   23  C   UNL     1       7.909  -4.102  23.778  1.00  0.00     0.010 C 
HETATM   24  C   UNL     1       8.202  -4.940  24.706  1.00  0.00     0.013 C 
ENDBRANCH   1  23
TORSDOF 5
ENDMDL
MODEL 8
REMARK VINA RESULT:    -6.041      4.261      5.636
REMARK INTER + INTRA:          -8.404
REMARK INTER:                  -7.990
REMARK INTRA:                  -0.415
REMARK UNBOUND:                -0.597
REMARK  5 active torsions:
REMARK  status: ('A' for Active; 'I' for Inactive)
REMARK    1  A    between atoms: S_2  and  N_5 
REMARK    2  A    between atoms: N_5  and  C_7 
REMARK    3  A    between atoms: C_8  and  C_9 
REMARK    4  A    between atoms: C_9  and  C_10 
REMARK    5  A    between atoms: C_12  and  C_13 
REMARK       I    between atoms: C_13  and  N_15 
ROOT
HETATM    1  C   UNL     1       8.727  -0.706  22.825  1.00  0.00     0.024 C 
HETATM    2  C   UNL     1       9.838  -0.071  22.510  1.00  0.00     0.095 C 
ENDROOT
BRANCH   2   3
HETATM    3  C   UNL     1      10.277   1.405  22.348  1.00  0.00     0.248 C 
HETATM    4  O   UNL     1      10.450   1.837  21.251  1.00  0.00    -0.268 OA
HETATM    5  N   UNL     1      10.337   2.167  23.483  1.00  0.00    -0.308 N 
HETATM    6  C   UNL     1      10.338   3.487  23.510  1.00  0.00     0.122 A 
ATOM      7  HN  UNL     1      10.386   1.678  24.377  1.00  0.00     0.170 HD
HETATM    8  N   UNL     1       9.353   4.290  23.157  1.00  0.00    -0.286 N 
HETATM    9  C   UNL     1      11.489   4.176  24.052  1.00  0.00     0.051 A 
HETATM   10  N   UNL     1       9.391   5.458  23.137  1.00  0.00    -0.310 N 
ATOM     11  HN  UNL     1       8.476   3.852  22.876  1.00  0.00     0.188 HD
HETATM   12  C   UNL     1      10.376   6.102  23.524  1.00  0.00     0.107 A 
ATOM     13  HN  UNL     1       8.580   5.968  22.786  1.00  0.00     0.186 HD
HETATM   14  C   UNL     1      11.193   5.435  23.890  1.00  0.00     0.022 A 
ENDBRANCH   2   3
BRANCH   1  15
HETATM   15  C   UNL     1       7.712  -0.757  21.937  1.00  0.00    -0.043 C 
HETATM   16  C   UNL     1       6.883  -0.922  21.284  1.00  0.00     0.027 C 
BRANCH  16  17
HETATM   17  N   UNL     1       5.971  -0.823  20.421  1.00  0.00    -0.229 N 
ATOM     18  HN  UNL     1       5.029  -1.164  20.618  1.00  0.00     0.190 HD
BRANCH  17  19
HETATM   19  S   UNL     1       6.319  -0.148  18.999  1.00  0.00     0.327 S 
HETATM   20 CL   UNL     1       5.150   1.343  18.972  1.00  0.00     0.042 Cl
HETATM   21  O   UNL     1       7.662   0.357  18.953  1.00  0.00    -0.188 OA
HETATM   22  O   UNL     1       5.932  -0.966  17.895  1.00  0.00    -0.188 OA
ENDBRANCH  17  19
ENDBRANCH  16  17
ENDBRANCH   1  15
BRANCH   1  23
HETATM   23  C   UNL     1       8.842  -1.278  24.030  1.00  0.00     0.010 C 
HETATM   24  C   UNL     1       8.247  -1.366  25.164  1.00  0.00     0.013 C 
ENDBRANCH   1  23
TORSDOF 5
ENDMDL
MODEL 9
REMARK VINA RESULT:    -5.976      4.537      5.933
REMARK INTER + INTRA:          -8.320
REMARK INTER:                  -7.726
REMARK INTRA:                  -0.594
REMARK UNBOUND:                -0.597
REMARK  5 active torsions:
REMARK  status: ('A' for Active; 'I' for Inactive)
REMARK    1  A    between atoms: S_2  and  N_5 
REMARK    2  A    between atoms: N_5  and  C_7 
REMARK    3  A    between atoms: C_8  and  C_9 
REMARK    4  A    between atoms: C_9  and  C_10 
REMARK    5  A    between atoms: C_12  and  C_13 
REMARK       I    between atoms: C_13  and  N_15 
ROOT
HETATM    1  C   UNL     1      11.402   0.445  24.153  1.00  0.00     0.024 C 
HETATM    2  C   UNL     1      10.516  -0.530  24.192  1.00  0.00     0.095 C 
ENDROOT
BRANCH   2   3
HETATM    3  C   UNL     1       9.660  -1.307  23.162  1.00  0.00     0.248 C 
HETATM    4  O   UNL     1      10.124  -1.546  22.091  1.00  0.00    -0.268 OA
HETATM    5  N   UNL     1       8.443  -1.771  23.583  1.00  0.00    -0.308 N 
HETATM    6  C   UNL     1       7.752  -2.727  22.991  1.00  0.00     0.122 A 
ATOM      7  HN  UNL     1       8.040  -1.347  24.419  1.00  0.00     0.170 HD
HETATM    8  N   UNL     1       8.079  -4.001  22.892  1.00  0.00    -0.286 N 
HETATM    9  C   UNL     1       6.448  -2.414  22.446  1.00  0.00     0.051 A 
HETATM   10  N   UNL     1       7.479  -4.823  22.317  1.00  0.00    -0.310 N 
ATOM     11  HN  UNL     1       8.935  -4.297  23.360  1.00  0.00     0.188 HD
HETATM   12  C   UNL     1       6.390  -4.597  21.772  1.00  0.00     0.107 A 
ATOM     13  HN  UNL     1       7.868  -5.764  22.262  1.00  0.00     0.186 HD
HETATM   14  C   UNL     1       6.067  -3.537  21.907  1.00  0.00     0.022 A 
ENDBRANCH   2   3
BRANCH   1  15
HETATM   15  C   UNL     1      10.996   1.707  23.905  1.00  0.00    -0.043 C 
HETATM   16  C   UNL     1      10.748   2.700  23.596  1.00  0.00     0.027 C 
BRANCH  16  17
HETATM   17  N   UNL     1      10.279   3.863  23.490  1.00  0.00    -0.229 N 
ATOM     18  HN  UNL     1      10.898   4.674  23.458  1.00  0.00     0.190 HD
BRANCH  17  19
HETATM   19  S   UNL     1       8.679   4.049  23.406  1.00  0.00     0.327 S 
HETATM   20 CL   UNL     1       8.119   3.423  25.105  1.00  0.00     0.042 Cl
HETATM   21  O   UNL     1       8.297   5.429  23.308  1.00  0.00    -0.188 OA
HETATM   22  O   UNL     1       8.076   3.175  22.452  1.00  0.00    -0.188 OA
ENDBRANCH  17  19
ENDBRANCH  16  17
ENDBRANCH   1  15
BRANCH   1  23
HETATM   23  C   UNL     1      12.622  -0.021  24.450  1.00  0.00     0.010 C 
HETATM   24  C   UNL     1      13.501  -0.868  24.053  1.00  0.00     0.013 C 
ENDBRANCH   1  23
TORSDOF 5
ENDMDL
