stable:False satoms:18 tatoms:24 sratio:0.75
  -OEChem-07092417323D

 24 24  0     1  0  0  0  0  0999 V2000
    7.8051   -3.4476   22.3272 S   0  0  0  0  0  0  0  0  0  0  0  0
    7.5589   -2.7245   26.3738 N   0  0  0  0  0  1  0  0  0  0  0  0
    8.7868    0.8353   23.3610 H   0  0  0  0  0  0  0  0  0  0  0  0
    7.9060   -2.9005   25.4931 H   0  0  0  0  0  0  0  0  0  0  0  0
    8.1391   -1.4317   24.0765 N   0  0  0  0  0  0  0  0  0  0  0  0
    9.5799   -2.8567   20.8803 H   0  0  0  0  0  0  0  0  0  0  0  0
    8.8147   -2.3998   23.5574 C   0  0  2  0  0  0  0  0  0  0  0  0
   11.0255    0.0123   22.6219 H   0  0  0  0  0  0  0  0  0  0  0  0
    9.4595   -1.1560   23.6451 C   0  0  1  0  0  0  0  0  0  0  0  0
   10.0217   -0.7912   24.4980 H   0  0  0  0  0  0  0  0  0  0  0  0
   11.0861   -1.7070   22.3466 H   0  0  0  0  0  0  0  0  0  0  0  0
    9.4381   -3.2001   23.9825 H   0  0  0  0  0  0  0  0  0  0  0  0
   10.4148   -0.8680   22.4184 C   0  0  0  0  0  0  0  0  0  0  0  0
    7.3112   -1.0396   23.8157 H   0  0  0  0  0  0  0  0  0  0  0  0
    9.2879    1.5197   21.9629 H   0  0  0  0  0  0  0  0  0  0  0  0
    9.7997   -0.6124   21.1731 O   0  0  0  0  0  0  0  0  0  0  0  0
    7.6859    0.3916   21.6091 C   0  0  0  0  0  0  0  0  0  0  0  0
    8.4563   -0.9113   20.9153 C   0  0  2  0  0  0  0  0  0  0  0  0
    8.5324   -2.5442   20.8843 C   0  0  0  0  0  0  0  0  0  0  0  0
    7.3603    0.9656   20.7369 H   0  0  0  0  0  0  0  0  0  0  0  0
    7.9882   -2.8408   20.0065 H   0  0  0  0  0  0  0  0  0  0  0  0
    7.8803   -0.8245   19.9978 H   0  0  0  0  0  0  0  0  0  0  0  0
    8.4514    1.2027   22.4703 N   0  0  0  0  0  0  0  0  0  0  0  0
    6.7941    0.0386   22.1431 H   0  0  0  0  0  0  0  0  0  0  0  0
 18 22  1  0  0  0  0
 19 21  1  0  0  0  0
 17 20  1  0  0  0  0
  6 19  1  0  0  0  0
 18 19  1  0  0  0  0
  1 19  1  0  0  0  0
 16 18  1  0  0  0  0
 17 18  1  0  0  0  0
 13 16  1  0  0  0  0
 17 24  1  0  0  0  0
 17 23  1  0  0  0  0
 15 23  1  0  0  0  0
  1  7  1  0  0  0  0
 11 13  1  0  0  0  0
  8 13  1  0  0  0  0
  9 13  1  0  0  0  0
  3 23  1  0  0  0  0
  7  9  1  0  0  0  0
  7 12  1  0  0  0  0
  5  7  1  0  0  0  0
  5  9  1  0  0  0  0
  9 10  1  0  0  0  0
  5 14  1  0  0  0  0
  2  4  1  0  0  0  0
M  END
> <Shapegauss>
-97.249969

$$$$
