stable:False satoms:15 tatoms:24 sratio:0.625
  -OEChem-07092417343D

 24 24  0     0  0  0  0  0  0999 V2000
    7.2868   -4.6126   25.8422 H   0  0  0  0  0  0  0  0  0  0  0  0
    8.1623   -4.2342   25.4423 N   0  0  0  0  0  0  0  0  0  0  0  0
    8.9306   -3.8926   26.3261 C   0  0  0  0  0  0  0  0  0  0  0  0
    9.3758   -3.3747   27.4864 S   0  0  0  0  0  0  0  0  0  0  0  0
    8.0392   -3.7936   24.1884 N   0  0  0  0  0  0  0  0  0  0  0  0
    8.9889   -3.0110   23.5919 C   0  0  0  0  0  0  0  0  0  0  0  0
    9.2708   -2.3388   22.4387 N   0  0  0  0  0  0  0  0  0  0  0  0
   10.9414   -0.1128   22.7457 C   0  0  0  0  0  0  0  0  0  0  0  0
   10.4821    0.1819   23.6533 H   0  0  0  0  0  0  0  0  0  0  0  0
   10.8474   -2.0549   24.1235 H   0  0  0  0  0  0  0  0  0  0  0  0
   11.8524   -0.7426   23.0943 H   0  0  0  0  0  0  0  0  0  0  0  0
   11.4960    0.5466   22.1579 H   0  0  0  0  0  0  0  0  0  0  0  0
    9.9436   -2.3547   23.4549 C   0  0  0  0  0  0  0  0  0  0  0  0
    9.3934    1.6636   21.6917 O   0  0  0  0  0  0  0  0  0  0  0  0
    8.9599    0.6348   21.5910 C   0  0  0  0  0  0  0  0  0  0  0  0
    9.7067   -0.3435   21.8217 O   0  0  0  0  0  0  0  0  0  0  0  0
    8.3706    0.1240   19.3134 H   0  0  0  0  0  0  0  0  0  0  0  0
    6.5578   -0.6249   20.3390 C   0  0  0  0  0  0  0  0  0  0  0  0
    7.0030   -1.5768   20.3422 H   0  0  0  0  0  0  0  0  0  0  0  0
    6.9202    1.0538   18.9167 H   0  0  0  0  0  0  0  0  0  0  0  0
    7.3460    0.5666   20.9978 C   0  0  0  0  0  0  0  0  0  0  0  0
    5.5126   -0.5121   20.2759 H   0  0  0  0  0  0  0  0  0  0  0  0
    6.7988    1.0480   21.7595 H   0  0  0  0  0  0  0  0  0  0  0  0
    7.3979    0.4702   19.7022 C   0  0  0  0  0  0  0  0  0  0  0  0
 20 24  1  0  0  0  0
 17 24  1  0  0  0  0
 18 24  1  0  0  0  0
 21 24  1  0  0  0  0
 18 22  1  0  0  0  0
 18 19  1  0  0  0  0
 18 21  1  0  0  0  0
 15 21  1  0  0  0  0
 21 23  1  0  0  0  0
 14 15  2  0  0  0  0
 15 16  1  0  0  0  0
  8 16  1  0  0  0  0
  8 12  1  0  0  0  0
  7 13  1  0  0  0  0
  6  7  1  0  0  0  0
  8 11  1  0  0  0  0
  8  9  1  0  0  0  0
  6 13  2  0  0  0  0
 10 13  1  0  0  0  0
  5  6  1  0  0  0  0
  2  5  1  0  0  0  0
  1  2  1  0  0  0  0
  2  3  1  0  0  0  0
  3  4  2  0  0  0  0
M  END
> <Shapegauss>
-142.039215

$$$$
