stable:False satoms:7 tatoms:24 sratio:0.2916666666666667
  -OEChem-07092417463D

 24 27  0     1  0  0  0  0  0999 V2000
    6.6807   -4.8125   26.3973 C   0  0  0  0  0  0  0  0  0  0  0  0
    8.1733   -4.3035   26.1021 S   0  0  0  0  0  0  0  0  0  0  0  0
    9.0282   -5.4745   26.0907 O   0  0  0  0  0  0  0  0  0  0  0  0
    8.5752   -3.3598   27.1131 O   0  0  0  0  0  0  0  0  0  0  0  0
    8.1294   -3.6025   24.6181 N   0  0  0  0  0  0  0  0  0  0  0  0
    8.9168   -2.8916   24.1219 C   0  0  0  0  0  0  0  0  0  0  0  0
    9.4068   -1.9717   23.4849 C   0  0  0  0  0  0  0  0  0  0  0  0
   10.3875   -1.1420   23.2017 C   0  0  1  0  0  0  0  0  0  0  0  0
   11.0636   -0.0309   24.2660 C   0  0  0  0  0  0  0  0  0  0  0  0
   12.0595    0.2656   24.2673 C   0  0  0  0  0  0  0  0  0  0  0  0
   13.2022   -0.2000   23.4066 C   0  0  0  0  0  0  0  0  0  0  0  0
   12.7795   -1.1926   22.7258 C   0  0  0  0  0  0  0  0  0  0  0  0
   11.7850   -1.7287   22.5646 C   0  0  0  0  0  0  0  0  0  0  0  0
    9.7005   -0.6268   22.3786 C   0  0  3  0  0  0  0  0  0  0  0  0
    9.0227    0.0396   21.3647 C   0  0  0  0  0  0  0  0  0  0  0  0
    9.4879    1.0252   20.9351 O   0  0  0  0  0  0  0  0  0  0  0  0
    7.9152   -0.5830   21.1095 N   0  0  0  0  0  0  0  0  0  0  0  0
    7.1527   -0.1049   20.1965 C   0  0  0  0  0  0  0  0  0  0  0  0
    7.1967    0.0252   18.9391 C   0  0  0  0  0  0  0  0  0  0  0  0
    6.8102    0.3207   17.7292 N   0  0  0  0  0  0  0  0  0  0  0  0
    5.7195    0.8539   18.3109 C   0  0  0  0  0  0  0  0  0  0  0  0
    5.2629    0.9661   19.3908 C   0  0  0  0  0  0  0  0  0  0  0  0
    5.7853    0.5527   20.5488 C   0  0  0  0  0  0  0  0  0  0  0  0
    5.3425    0.6860   22.0333 Cl  0  0  0  0  0  0  0  0  0  0  0  0
 20 21  2  0  0  0  0
 19 20  1  0  0  0  0
 19 21  1  0  0  0  0
 21 22  1  0  0  0  0
 18 19  2  0  0  0  0
 22 23  2  0  0  0  0
 18 23  1  0  0  0  0
 17 18  1  0  0  0  0
 23 24  1  0  0  0  0
 15 16  2  0  0  0  0
 15 17  1  0  0  0  0
 14 15  1  0  0  0  0
  8 14  1  0  0  0  0
  7 14  1  0  0  0  0
 12 13  1  0  0  0  0
  8 13  1  0  0  0  0
 11 12  2  0  0  0  0
  7  8  1  0  0  0  0
  8  9  1  0  0  0  0
 10 11  1  0  0  0  0
  6  7  2  0  0  0  0
  5  6  1  0  0  0  0
  9 10  2  0  0  0  0
  2  5  1  0  0  0  0
  2  3  2  0  0  0  0
  1  2  1  0  0  0  0
  2  4  2  0  0  0  0
M  END
> <Shapegauss>
-286.753571

$$$$
