MODEL 1
REMARK VINA RESULT:    -7.914      0.000      0.000
REMARK INTER + INTRA:         -10.814
REMARK INTER:                 -10.227
REMARK INTRA:                  -0.587
REMARK UNBOUND:                -0.587
REMARK  5 active torsions:
REMARK  status: ('A' for Active; 'I' for Inactive)
REMARK    1  A    between atoms: S_2  and  N_5 
REMARK    2  A    between atoms: N_5  and  C_7 
REMARK    3  A    between atoms: C_7  and  C_8 
REMARK    4  A    between atoms: C_15  and  C_16 
REMARK       I    between atoms: C_16  and  N_18 
REMARK    5  A    between atoms: N_18  and  C_20 
ROOT
HETATM    1  C   UNL     1       8.908  -2.490  23.419  1.00  0.00     0.040 A 
HETATM    2  C   UNL     1       9.697  -1.438  23.420  1.00  0.00     0.066 A 
HETATM    3  C   UNL     1       9.836  -0.323  24.670  1.00  0.00    -0.003 C 
HETATM    4  C   UNL     1      10.705   0.186  24.923  1.00  0.00    -0.002 C 
HETATM    5  C   UNL     1      12.087   0.080  24.336  1.00  0.00    -0.001 C 
HETATM    6  C   UNL     1      12.076  -0.905  23.525  1.00  0.00    -0.002 C 
HETATM    7  C   UNL     1      11.300  -1.629  23.105  1.00  0.00    -0.003 C 
HETATM    8  C   UNL     1       9.104  -1.005  22.485  1.00  0.00     0.049 A 
ENDROOT
BRANCH   8   9
HETATM    9  C   UNL     1       8.525  -0.402  21.374  1.00  0.00     0.255 C 
HETATM   10  O   UNL     1       9.203   0.241  20.669  1.00  0.00    -0.268 OA
HETATM   11  N   UNL     1       7.254  -0.657  21.365  1.00  0.00    -0.323 N 
ATOM     12  HN  UNL     1       6.826  -1.224  22.096  1.00  0.00     0.169 HD
BRANCH  11  13
HETATM   13  C   UNL     1       6.551  -0.174  20.407  1.00  0.00     0.058 A 
HETATM   14  C   UNL     1       6.159  -0.565  19.269  1.00  0.00     0.155 A 
HETATM   15  N   UNL     1       5.538  -0.551  18.122  1.00  0.00    -0.400 N 
HETATM   16  C   UNL     1       5.195   0.713  18.431  1.00  0.00     0.130 A 
ATOM     17  HN  UNL     1       5.383  -1.199  17.349  1.00  0.00     0.154 HD
HETATM   18  C   UNL     1       5.322   1.467  19.328  1.00  0.00     0.026 A 
HETATM   19  C   UNL     1       5.968   1.269  20.480  1.00  0.00     0.057 A 
HETATM   20 CL   UNL     1       6.275   2.172  21.707  1.00  0.00    -0.082 Cl
ENDBRANCH  11  13
ENDBRANCH   8   9
BRANCH   1  21
HETATM   21  C   UNL     1       8.527  -3.558  23.874  1.00  0.00    -0.022 C 
BRANCH  21  22
HETATM   22  N   UNL     1       8.446  -4.511  24.550  1.00  0.00    -0.249 N 
ATOM     23  HN  UNL     1       8.692  -5.394  24.103  1.00  0.00     0.188 HD
BRANCH  22  24
HETATM   24  S   UNL     1       7.987  -4.614  26.123  1.00  0.00     0.233 S 
HETATM   25  C   UNL     1       6.971  -3.398  26.369  1.00  0.00     0.186 C 
HETATM   26  O   UNL     1       7.250  -5.840  26.363  1.00  0.00    -0.205 OA
HETATM   27  O   UNL     1       9.118  -4.491  27.006  1.00  0.00    -0.205 OA
ENDBRANCH  22  24
ENDBRANCH  21  22
ENDBRANCH   1  21
TORSDOF 5
ENDMDL
MODEL 2
REMARK VINA RESULT:    -7.816      2.744      6.343
REMARK INTER + INTRA:         -10.688
REMARK INTER:                  -9.796
REMARK INTRA:                  -0.892
REMARK UNBOUND:                -0.587
REMARK  5 active torsions:
REMARK  status: ('A' for Active; 'I' for Inactive)
REMARK    1  A    between atoms: S_2  and  N_5 
REMARK    2  A    between atoms: N_5  and  C_7 
REMARK    3  A    between atoms: C_7  and  C_8 
REMARK    4  A    between atoms: C_15  and  C_16 
REMARK       I    between atoms: C_16  and  N_18 
REMARK    5  A    between atoms: N_18  and  C_20 
ROOT
HETATM    1  C   UNL     1       9.226   0.036  23.046  1.00  0.00     0.040 A 
HETATM    2  C   UNL     1      10.291  -0.508  23.594  1.00  0.00     0.066 A 
HETATM    3  C   UNL     1      11.424  -1.457  22.795  1.00  0.00    -0.003 C 
HETATM    4  C   UNL     1      12.438  -1.494  23.019  1.00  0.00    -0.002 C 
HETATM    5  C   UNL     1      13.226  -0.718  24.039  1.00  0.00    -0.001 C 
HETATM    6  C   UNL     1      12.444   0.165  24.526  1.00  0.00    -0.002 C 
HETATM    7  C   UNL     1      11.340   0.439  24.436  1.00  0.00    -0.003 C 
HETATM    8  C   UNL     1       9.586  -1.143  24.310  1.00  0.00     0.049 A 
ENDROOT
BRANCH   8   9
HETATM    9  C   UNL     1       8.885  -1.914  25.230  1.00  0.00     0.255 C 
HETATM   10  O   UNL     1       8.637  -1.451  26.276  1.00  0.00    -0.268 OA
HETATM   11  N   UNL     1       8.667  -3.088  24.724  1.00  0.00    -0.323 N 
ATOM     12  HN  UNL     1       8.991  -3.324  23.786  1.00  0.00     0.169 HD
BRANCH  11  13
HETATM   13  C   UNL     1       8.030  -3.941  25.437  1.00  0.00     0.058 A 
HETATM   14  C   UNL     1       8.327  -4.839  26.278  1.00  0.00     0.155 A 
HETATM   15  N   UNL     1       8.164  -5.783  27.163  1.00  0.00    -0.400 N 
HETATM   16  C   UNL     1       6.853  -5.699  26.871  1.00  0.00     0.130 A 
ATOM     17  HN  UNL     1       8.756  -6.332  27.787  1.00  0.00     0.154 HD
HETATM   18  C   UNL     1       6.141  -5.051  26.192  1.00  0.00     0.026 A 
HETATM   19  C   UNL     1       6.479  -4.065  25.356  1.00  0.00     0.057 A 
HETATM   20 CL   UNL     1       5.677  -3.181  24.361  1.00  0.00    -0.082 Cl
ENDBRANCH  11  13
ENDBRANCH   8   9
BRANCH   1  21
HETATM   21  C   UNL     1       8.681   0.774  22.240  1.00  0.00    -0.022 C 
BRANCH  21  22
HETATM   22  N   UNL     1       7.961   1.165  21.402  1.00  0.00    -0.249 N 
ATOM     23  HN  UNL     1       7.844   2.177  21.356  1.00  0.00     0.188 HD
BRANCH  22  24
HETATM   24  S   UNL     1       7.117   0.299  20.292  1.00  0.00     0.233 S 
HETATM   25  C   UNL     1       5.812   1.166  19.951  1.00  0.00     0.186 C 
HETATM   26  O   UNL     1       7.874   0.167  19.062  1.00  0.00    -0.205 OA
HETATM   27  O   UNL     1       6.727  -0.984  20.817  1.00  0.00    -0.205 OA
ENDBRANCH  22  24
ENDBRANCH  21  22
ENDBRANCH   1  21
TORSDOF 5
ENDMDL
MODEL 3
REMARK VINA RESULT:    -7.559      3.734      5.559
REMARK INTER + INTRA:         -10.356
REMARK INTER:                  -9.740
REMARK INTRA:                  -0.616
REMARK UNBOUND:                -0.587
REMARK  5 active torsions:
REMARK  status: ('A' for Active; 'I' for Inactive)
REMARK    1  A    between atoms: S_2  and  N_5 
REMARK    2  A    between atoms: N_5  and  C_7 
REMARK    3  A    between atoms: C_7  and  C_8 
REMARK    4  A    between atoms: C_15  and  C_16 
REMARK       I    between atoms: C_16  and  N_18 
REMARK    5  A    between atoms: N_18  and  C_20 
ROOT
HETATM    1  C   UNL     1       7.951  -4.579  25.316  1.00  0.00     0.040 A 
HETATM    2  C   UNL     1       7.478  -4.484  24.093  1.00  0.00     0.066 A 
HETATM    3  C   UNL     1       7.558  -5.684  22.918  1.00  0.00    -0.003 C 
HETATM    4  C   UNL     1       6.844  -5.849  22.183  1.00  0.00    -0.002 C 
HETATM    5  C   UNL     1       5.530  -5.155  21.946  1.00  0.00    -0.001 C 
HETATM    6  C   UNL     1       5.331  -4.378  22.938  1.00  0.00    -0.002 C 
HETATM    7  C   UNL     1       5.910  -4.044  23.864  1.00  0.00    -0.003 C 
HETATM    8  C   UNL     1       8.231  -3.587  23.882  1.00  0.00     0.049 A 
ENDROOT
BRANCH   8   9
HETATM    9  C   UNL     1       9.028  -2.510  23.514  1.00  0.00     0.255 C 
HETATM   10  O   UNL     1       9.192  -2.299  22.374  1.00  0.00    -0.268 OA
HETATM   11  N   UNL     1       9.495  -1.940  24.581  1.00  0.00    -0.323 N 
ATOM     12  HN  UNL     1       9.261  -2.291  25.509  1.00  0.00     0.169 HD
BRANCH  11  13
HETATM   13  C   UNL     1      10.260  -0.922  24.433  1.00  0.00     0.058 A 
HETATM   14  C   UNL     1      11.499  -0.719  24.278  1.00  0.00     0.155 A 
HETATM   15  N   UNL     1      12.613  -0.071  24.078  1.00  0.00    -0.400 N 
HETATM   16  C   UNL     1      11.868   1.046  24.167  1.00  0.00     0.130 A 
ATOM     17  HN  UNL     1      13.595  -0.304  23.925  1.00  0.00     0.154 HD
HETATM   18  C   UNL     1      10.735   1.342  24.300  1.00  0.00     0.026 A 
HETATM   19  C   UNL     1       9.687   0.527  24.449  1.00  0.00     0.057 A 
HETATM   20 CL   UNL     1       8.172   0.764  24.699  1.00  0.00    -0.082 Cl
ENDBRANCH  11  13
ENDBRANCH   8   9
BRANCH   1  21
HETATM   21  C   UNL     1       7.996  -5.096  26.422  1.00  0.00    -0.022 C 
BRANCH  21  22
HETATM   22  N   UNL     1       7.843  -5.858  27.299  1.00  0.00    -0.249 N 
ATOM     23  HN  UNL     1       8.628  -6.482  27.484  1.00  0.00     0.188 HD
BRANCH  22  24
HETATM   24  S   UNL     1       6.533  -6.055  28.268  1.00  0.00     0.233 S 
HETATM   25  C   UNL     1       5.284  -6.272  27.286  1.00  0.00     0.186 C 
HETATM   26  O   UNL     1       6.663  -7.259  29.065  1.00  0.00    -0.205 OA
HETATM   27  O   UNL     1       6.312  -4.894  29.090  1.00  0.00    -0.205 OA
ENDBRANCH  22  24
ENDBRANCH  21  22
ENDBRANCH   1  21
TORSDOF 5
ENDMDL
MODEL 4
REMARK VINA RESULT:    -7.151      3.385      6.659
REMARK INTER + INTRA:          -9.829
REMARK INTER:                  -8.999
REMARK INTRA:                  -0.830
REMARK UNBOUND:                -0.587
REMARK  5 active torsions:
REMARK  status: ('A' for Active; 'I' for Inactive)
REMARK    1  A    between atoms: S_2  and  N_5 
REMARK    2  A    between atoms: N_5  and  C_7 
REMARK    3  A    between atoms: C_7  and  C_8 
REMARK    4  A    between atoms: C_15  and  C_16 
REMARK       I    between atoms: C_16  and  N_18 
REMARK    5  A    between atoms: N_18  and  C_20 
ROOT
HETATM    1  C   UNL     1       8.402   0.293  21.168  1.00  0.00     0.040 A 
HETATM    2  C   UNL     1       9.040   0.770  22.215  1.00  0.00     0.066 A 
HETATM    3  C   UNL     1      10.502   1.597  22.173  1.00  0.00    -0.003 C 
HETATM    4  C   UNL     1      10.778   2.356  22.826  1.00  0.00    -0.002 C 
HETATM    5  C   UNL     1       9.999   2.993  23.944  1.00  0.00    -0.001 C 
HETATM    6  C   UNL     1       8.808   2.541  23.878  1.00  0.00    -0.002 C 
HETATM    7  C   UNL     1       8.247   1.760  23.262  1.00  0.00    -0.003 C 
HETATM    8  C   UNL     1       9.151  -0.335  22.638  1.00  0.00     0.049 A 
ENDROOT
BRANCH   8   9
HETATM    9  C   UNL     1       9.319  -1.564  23.266  1.00  0.00     0.255 C 
HETATM   10  O   UNL     1      10.335  -2.129  23.127  1.00  0.00    -0.268 OA
HETATM   11  N   UNL     1       8.226  -1.878  23.888  1.00  0.00    -0.323 N 
ATOM     12  HN  UNL     1       7.416  -1.260  23.871  1.00  0.00     0.169 HD
BRANCH  11  13
HETATM   13  C   UNL     1       8.196  -2.990  24.526  1.00  0.00     0.058 A 
HETATM   14  C   UNL     1       8.503  -3.392  25.686  1.00  0.00     0.155 A 
HETATM   15  N   UNL     1       8.634  -4.199  26.702  1.00  0.00    -0.400 N 
HETATM   16  C   UNL     1       8.208  -5.165  25.867  1.00  0.00     0.130 A 
ATOM     17  HN  UNL     1       8.925  -4.130  27.677  1.00  0.00     0.154 HD
HETATM   18  C   UNL     1       7.827  -5.266  24.757  1.00  0.00     0.026 A 
HETATM   19  C   UNL     1       7.708  -4.302  23.840  1.00  0.00     0.057 A 
HETATM   20 CL   UNL     1       7.294  -4.291  22.342  1.00  0.00    -0.082 Cl
ENDBRANCH  11  13
ENDBRANCH   8   9
BRANCH   1  21
HETATM   21  C   UNL     1       7.836   0.422  20.093  1.00  0.00    -0.022 C 
BRANCH  21  22
HETATM   22  N   UNL     1       7.521   0.254  18.977  1.00  0.00    -0.249 N 
ATOM     23  HN  UNL     1       8.270  -0.024  18.343  1.00  0.00     0.188 HD
BRANCH  22  24
HETATM   24  S   UNL     1       6.034   0.407  18.299  1.00  0.00     0.233 S 
HETATM   25  C   UNL     1       5.033   0.760  19.502  1.00  0.00     0.186 C 
HETATM   26  O   UNL     1       6.004   1.526  17.378  1.00  0.00    -0.205 OA
HETATM   27  O   UNL     1       5.621  -0.817  17.664  1.00  0.00    -0.205 OA
ENDBRANCH  22  24
ENDBRANCH  21  22
ENDBRANCH   1  21
TORSDOF 5
ENDMDL
MODEL 5
REMARK VINA RESULT:    -7.127      3.418      6.381
REMARK INTER + INTRA:          -9.797
REMARK INTER:                  -9.000
REMARK INTRA:                  -0.797
REMARK UNBOUND:                -0.587
REMARK  5 active torsions:
REMARK  status: ('A' for Active; 'I' for Inactive)
REMARK    1  A    between atoms: S_2  and  N_5 
REMARK    2  A    between atoms: N_5  and  C_7 
REMARK    3  A    between atoms: C_7  and  C_8 
REMARK    4  A    between atoms: C_15  and  C_16 
REMARK       I    between atoms: C_16  and  N_18 
REMARK    5  A    between atoms: N_18  and  C_20 
ROOT
HETATM    1  C   UNL     1       8.312   0.857  21.465  1.00  0.00     0.040 A 
HETATM    2  C   UNL     1       7.317   0.453  20.706  1.00  0.00     0.066 A 
HETATM    3  C   UNL     1       5.795   1.163  20.631  1.00  0.00    -0.003 C 
HETATM    4  C   UNL     1       5.197   1.206  19.783  1.00  0.00    -0.002 C 
HETATM    5  C   UNL     1       5.476   0.727  18.385  1.00  0.00    -0.001 C 
HETATM    6  C   UNL     1       6.700   0.370  18.346  1.00  0.00    -0.002 C 
HETATM    7  C   UNL     1       7.558   0.259  19.091  1.00  0.00    -0.003 C 
HETATM    8  C   UNL     1       7.309  -0.585  21.286  1.00  0.00     0.049 A 
ENDROOT
BRANCH   8   9
HETATM    9  C   UNL     1       7.213  -1.851  21.852  1.00  0.00     0.255 C 
HETATM   10  O   UNL     1       8.184  -2.348  22.279  1.00  0.00    -0.268 OA
HETATM   11  N   UNL     1       5.992  -2.274  21.749  1.00  0.00    -0.323 N 
ATOM     12  HN  UNL     1       5.273  -1.700  21.308  1.00  0.00     0.169 HD
BRANCH  11  13
HETATM   13  C   UNL     1       5.716  -3.434  22.217  1.00  0.00     0.058 A 
HETATM   14  C   UNL     1       5.693  -4.621  21.778  1.00  0.00     0.155 A 
HETATM   15  N   UNL     1       5.567  -5.919  21.776  1.00  0.00    -0.400 N 
HETATM   16  C   UNL     1       5.152  -5.784  23.050  1.00  0.00     0.130 A 
ATOM     17  HN  UNL     1       5.714  -6.683  21.116  1.00  0.00     0.154 HD
HETATM   18  C   UNL     1       5.014  -4.926  23.845  1.00  0.00     0.026 A 
HETATM   19  C   UNL     1       5.240  -3.619  23.690  1.00  0.00     0.057 A 
HETATM   20 CL   UNL     1       5.043  -2.380  24.606  1.00  0.00    -0.082 Cl
ENDBRANCH  11  13
ENDBRANCH   8   9
BRANCH   1  21
HETATM   21  C   UNL     1       9.128   1.691  21.828  1.00  0.00    -0.022 C 
BRANCH  21  22
HETATM   22  N   UNL     1      10.147   2.220  22.057  1.00  0.00    -0.249 N 
ATOM     23  HN  UNL     1      10.729   2.429  21.246  1.00  0.00     0.188 HD
BRANCH  22  24
HETATM   24  S   UNL     1      10.764   2.670  23.510  1.00  0.00     0.233 S 
HETATM   25  C   UNL     1      11.645   1.431  24.021  1.00  0.00     0.186 C 
HETATM   26  O   UNL     1      11.662   3.798  23.359  1.00  0.00    -0.205 OA
HETATM   27  O   UNL     1       9.717   2.946  24.459  1.00  0.00    -0.205 OA
ENDBRANCH  22  24
ENDBRANCH  21  22
ENDBRANCH   1  21
TORSDOF 5
ENDMDL
MODEL 6
REMARK VINA RESULT:    -7.084      3.142      6.940
REMARK INTER + INTRA:          -9.742
REMARK INTER:                  -8.941
REMARK INTRA:                  -0.801
REMARK UNBOUND:                -0.587
REMARK  5 active torsions:
REMARK  status: ('A' for Active; 'I' for Inactive)
REMARK    1  A    between atoms: S_2  and  N_5 
REMARK    2  A    between atoms: N_5  and  C_7 
REMARK    3  A    between atoms: C_7  and  C_8 
REMARK    4  A    between atoms: C_15  and  C_16 
REMARK       I    between atoms: C_16  and  N_18 
REMARK    5  A    between atoms: N_18  and  C_20 
ROOT
HETATM    1  C   UNL     1       7.468  -1.758  22.131  1.00  0.00     0.040 A 
HETATM    2  C   UNL     1       8.459  -1.762  22.996  1.00  0.00     0.066 A 
HETATM    3  C   UNL     1      10.092  -1.848  22.609  1.00  0.00    -0.003 C 
HETATM    4  C   UNL     1      10.858  -1.396  23.145  1.00  0.00    -0.002 C 
HETATM    5  C   UNL     1      10.789  -0.510  24.358  1.00  0.00    -0.001 C 
HETATM    6  C   UNL     1       9.557  -0.247  24.563  1.00  0.00    -0.002 C 
HETATM    7  C   UNL     1       8.554  -0.567  24.122  1.00  0.00    -0.003 C 
HETATM    8  C   UNL     1       8.043  -2.778  23.453  1.00  0.00     0.049 A 
ENDROOT
BRANCH   8   9
HETATM    9  C   UNL     1       7.649  -3.940  24.105  1.00  0.00     0.255 C 
HETATM   10  O   UNL     1       7.926  -4.972  23.626  1.00  0.00    -0.268 OA
HETATM   11  N   UNL     1       6.970  -3.626  25.164  1.00  0.00    -0.323 N 
ATOM     12  HN  UNL     1       6.801  -2.651  25.410  1.00  0.00     0.169 HD
BRANCH  11  13
HETATM   13  C   UNL     1       6.520  -4.579  25.894  1.00  0.00     0.058 A 
HETATM   14  C   UNL     1       6.941  -5.268  26.868  1.00  0.00     0.155 A 
HETATM   15  N   UNL     1       6.937  -6.144  27.834  1.00  0.00    -0.400 N 
HETATM   16  C   UNL     1       5.723  -6.501  27.377  1.00  0.00     0.130 A 
ATOM     17  HN  UNL     1       7.564  -6.427  28.588  1.00  0.00     0.154 HD
HETATM   18  C   UNL     1       4.962  -6.167  26.542  1.00  0.00     0.026 A 
HETATM   19  C   UNL     1       5.110  -5.193  25.640  1.00  0.00     0.057 A 
HETATM   20 CL   UNL     1       4.241  -4.688  24.454  1.00  0.00    -0.082 Cl
ENDBRANCH  11  13
ENDBRANCH   8   9
BRANCH   1  21
HETATM   21  C   UNL     1       6.855  -1.281  21.188  1.00  0.00    -0.022 C 
BRANCH  21  22
HETATM   22  N   UNL     1       6.030  -0.732  20.564  1.00  0.00    -0.249 N 
ATOM     23  HN  UNL     1       5.101  -0.710  20.982  1.00  0.00     0.188 HD
BRANCH  22  24
HETATM   24  S   UNL     1       6.173   0.007  19.105  1.00  0.00     0.233 S 
HETATM   25  C   UNL     1       5.109   1.207  19.109  1.00  0.00     0.186 C 
HETATM   26  O   UNL     1       7.486   0.603  18.958  1.00  0.00    -0.205 OA
HETATM   27  O   UNL     1       5.878  -0.902  18.028  1.00  0.00    -0.205 OA
ENDBRANCH  22  24
ENDBRANCH  21  22
ENDBRANCH   1  21
TORSDOF 5
ENDMDL
MODEL 7
REMARK VINA RESULT:    -7.046      3.158      5.095
REMARK INTER + INTRA:          -9.693
REMARK INTER:                  -8.924
REMARK INTRA:                  -0.769
REMARK UNBOUND:                -0.587
REMARK  5 active torsions:
REMARK  status: ('A' for Active; 'I' for Inactive)
REMARK    1  A    between atoms: S_2  and  N_5 
REMARK    2  A    between atoms: N_5  and  C_7 
REMARK    3  A    between atoms: C_7  and  C_8 
REMARK    4  A    between atoms: C_15  and  C_16 
REMARK       I    between atoms: C_16  and  N_18 
REMARK    5  A    between atoms: N_18  and  C_20 
ROOT
HETATM    1  C   UNL     1       6.973  -4.731  25.363  1.00  0.00     0.040 A 
HETATM    2  C   UNL     1       6.857  -4.705  24.053  1.00  0.00     0.066 A 
HETATM    3  C   UNL     1       7.654  -5.725  22.981  1.00  0.00    -0.003 C 
HETATM    4  C   UNL     1       7.270  -6.059  22.076  1.00  0.00    -0.002 C 
HETATM    5  C   UNL     1       5.922  -5.813  21.455  1.00  0.00    -0.001 C 
HETATM    6  C   UNL     1       5.208  -5.217  22.328  1.00  0.00    -0.002 C 
HETATM    7  C   UNL     1       5.362  -4.783  23.373  1.00  0.00    -0.003 C 
HETATM    8  C   UNL     1       7.297  -3.600  24.046  1.00  0.00     0.049 A 
ENDROOT
BRANCH   8   9
HETATM    9  C   UNL     1       7.760  -2.298  23.896  1.00  0.00     0.255 C 
HETATM   10  O   UNL     1       7.671  -1.564  24.803  1.00  0.00    -0.268 OA
HETATM   11  N   UNL     1       8.191  -2.136  22.684  1.00  0.00    -0.323 N 
ATOM     12  HN  UNL     1       8.160  -2.900  22.009  1.00  0.00     0.169 HD
BRANCH  11  13
HETATM   13  C   UNL     1       8.656  -0.987  22.360  1.00  0.00     0.058 A 
HETATM   14  C   UNL     1       8.186   0.107  21.931  1.00  0.00     0.155 A 
HETATM   15  N   UNL     1       8.153   1.352  21.543  1.00  0.00    -0.400 N 
HETATM   16  C   UNL     1       9.493   1.324  21.658  1.00  0.00     0.130 A 
ATOM     17  HN  UNL     1       7.440   2.032  21.277  1.00  0.00     0.154 HD
HETATM   18  C   UNL     1      10.333   0.572  22.001  1.00  0.00     0.026 A 
HETATM   19  C   UNL     1      10.184  -0.686  22.424  1.00  0.00     0.057 A 
HETATM   20 CL   UNL     1      11.181  -1.804  22.838  1.00  0.00    -0.082 Cl
ENDBRANCH  11  13
ENDBRANCH   8   9
BRANCH   1  21
HETATM   21  C   UNL     1       6.877  -5.284  26.448  1.00  0.00    -0.022 C 
BRANCH  21  22
HETATM   22  N   UNL     1       7.028  -6.051  27.321  1.00  0.00    -0.249 N 
ATOM     23  HN  UNL     1       7.828  -6.676  27.226  1.00  0.00     0.188 HD
BRANCH  22  24
HETATM   24  S   UNL     1       6.123  -6.252  28.675  1.00  0.00     0.233 S 
HETATM   25  C   UNL     1       4.596  -6.076  28.219  1.00  0.00     0.186 C 
HETATM   26  O   UNL     1       6.262  -7.601  29.188  1.00  0.00    -0.205 OA
HETATM   27  O   UNL     1       6.450  -5.267  29.673  1.00  0.00    -0.205 OA
ENDBRANCH  22  24
ENDBRANCH  21  22
ENDBRANCH   1  21
TORSDOF 5
ENDMDL
MODEL 8
REMARK VINA RESULT:    -6.926      3.255      6.075
REMARK INTER + INTRA:          -9.538
REMARK INTER:                  -8.889
REMARK INTRA:                  -0.650
REMARK UNBOUND:                -0.587
REMARK  5 active torsions:
REMARK  status: ('A' for Active; 'I' for Inactive)
REMARK    1  A    between atoms: S_2  and  N_5 
REMARK    2  A    between atoms: N_5  and  C_7 
REMARK    3  A    between atoms: C_7  and  C_8 
REMARK    4  A    between atoms: C_15  and  C_16 
REMARK       I    between atoms: C_16  and  N_18 
REMARK    5  A    between atoms: N_18  and  C_20 
ROOT
HETATM    1  C   UNL     1       8.211  -0.061  21.128  1.00  0.00     0.040 A 
HETATM    2  C   UNL     1       7.056   0.100  20.521  1.00  0.00     0.066 A 
HETATM    3  C   UNL     1       5.986   1.371  20.778  1.00  0.00    -0.003 C 
HETATM    4  C   UNL     1       5.367   1.786  20.055  1.00  0.00    -0.002 C 
HETATM    5  C   UNL     1       5.244   1.459  18.592  1.00  0.00    -0.001 C 
HETATM    6  C   UNL     1       6.184   0.644  18.308  1.00  0.00    -0.002 C 
HETATM    7  C   UNL     1       6.995   0.079  18.878  1.00  0.00    -0.003 C 
HETATM    8  C   UNL     1       6.675  -0.921  20.998  1.00  0.00     0.049 A 
ENDROOT
BRANCH   8   9
HETATM    9  C   UNL     1       6.116  -2.109  21.455  1.00  0.00     0.255 C 
HETATM   10  O   UNL     1       5.583  -2.810  20.683  1.00  0.00    -0.268 OA
HETATM   11  N   UNL     1       6.273  -2.187  22.739  1.00  0.00    -0.323 N 
ATOM     12  HN  UNL     1       6.747  -1.448  23.257  1.00  0.00     0.169 HD
BRANCH  11  13
HETATM   13  C   UNL     1       5.813  -3.223  23.339  1.00  0.00     0.058 A 
HETATM   14  C   UNL     1       4.672  -3.676  23.645  1.00  0.00     0.155 A 
HETATM   15  N   UNL     1       3.769  -4.496  24.107  1.00  0.00    -0.400 N 
HETATM   16  C   UNL     1       4.803  -5.235  24.549  1.00  0.00     0.130 A 
ATOM     17  HN  UNL     1       2.750  -4.551  24.126  1.00  0.00     0.154 HD
HETATM   18  C   UNL     1       5.980  -5.218  24.505  1.00  0.00     0.026 A 
HETATM   19  C   UNL     1       6.767  -4.301  23.935  1.00  0.00     0.057 A 
HETATM   20 CL   UNL     1       8.307  -4.109  23.855  1.00  0.00    -0.082 Cl
ENDBRANCH  11  13
ENDBRANCH   8   9
BRANCH   1  21
HETATM   21  C   UNL     1       9.342   0.300  21.417  1.00  0.00    -0.022 C 
BRANCH  21  22
HETATM   22  N   UNL     1      10.428   0.303  21.856  1.00  0.00    -0.249 N 
ATOM     23  HN  UNL     1      11.076   0.966  21.429  1.00  0.00     0.188 HD
BRANCH  22  24
HETATM   24  S   UNL     1      11.046  -0.618  23.065  1.00  0.00     0.233 S 
HETATM   25  C   UNL     1       9.854  -0.829  24.116  1.00  0.00     0.186 C 
HETATM   26  O   UNL     1      11.416  -1.931  22.572  1.00  0.00    -0.205 OA
HETATM   27  O   UNL     1      12.153   0.039  23.710  1.00  0.00    -0.205 OA
ENDBRANCH  22  24
ENDBRANCH  21  22
ENDBRANCH   1  21
TORSDOF 5
ENDMDL
MODEL 9
REMARK VINA RESULT:    -6.888     14.368     15.667
REMARK INTER + INTRA:          -9.489
REMARK INTER:                  -8.726
REMARK INTRA:                  -0.763
REMARK UNBOUND:                -0.587
REMARK  5 active torsions:
REMARK  status: ('A' for Active; 'I' for Inactive)
REMARK    1  A    between atoms: S_2  and  N_5 
REMARK    2  A    between atoms: N_5  and  C_7 
REMARK    3  A    between atoms: C_7  and  C_8 
REMARK    4  A    between atoms: C_15  and  C_16 
REMARK       I    between atoms: C_16  and  N_18 
REMARK    5  A    between atoms: N_18  and  C_20 
ROOT
HETATM    1  C   UNL     1      23.862  -3.016  23.495  1.00  0.00     0.040 A 
HETATM    2  C   UNL     1      23.279  -1.837  23.528  1.00  0.00     0.066 A 
HETATM    3  C   UNL     1      21.642  -1.564  23.790  1.00  0.00    -0.003 C 
HETATM    4  C   UNL     1      21.245  -0.738  24.278  1.00  0.00    -0.002 C 
HETATM    5  C   UNL     1      21.946   0.419  24.936  1.00  0.00    -0.001 C 
HETATM    6  C   UNL     1      23.193   0.149  24.943  1.00  0.00    -0.002 C 
HETATM    7  C   UNL     1      23.869  -0.672  24.527  1.00  0.00    -0.003 C 
HETATM    8  C   UNL     1      23.597  -1.660  22.395  1.00  0.00     0.049 A 
ENDROOT
BRANCH   8   9
HETATM    9  C   UNL     1      23.933  -1.307  21.094  1.00  0.00     0.255 C 
HETATM   10  O   UNL     1      24.807  -0.546  20.928  1.00  0.00    -0.268 OA
HETATM   11  N   UNL     1      23.128  -1.901  20.269  1.00  0.00    -0.323 N 
ATOM     12  HN  UNL     1      22.390  -2.519  20.608  1.00  0.00     0.169 HD
BRANCH  11  13
HETATM   13  C   UNL     1      23.288  -1.689  19.015  1.00  0.00     0.058 A 
HETATM   14  C   UNL     1      22.971  -0.784  18.189  1.00  0.00     0.155 A 
HETATM   15  N   UNL     1      22.899  -0.134  17.061  1.00  0.00    -0.400 N 
HETATM   16  C   UNL     1      23.524  -1.195  16.519  1.00  0.00     0.130 A 
ATOM     17  HN  UNL     1      22.536   0.764  16.739  1.00  0.00     0.154 HD
HETATM   18  C   UNL     1      23.990  -2.218  16.871  1.00  0.00     0.026 A 
HETATM   19  C   UNL     1      24.018  -2.724  18.107  1.00  0.00     0.057 A 
HETATM   20 CL   UNL     1      24.525  -4.065  18.706  1.00  0.00    -0.082 Cl
ENDBRANCH  11  13
ENDBRANCH   8   9
BRANCH   1  21
HETATM   21  C   UNL     1      24.178  -4.082  24.001  1.00  0.00    -0.022 C 
BRANCH  21  22
HETATM   22  N   UNL     1      24.265  -5.233  24.202  1.00  0.00    -0.249 N 
ATOM     23  HN  UNL     1      24.476  -5.809  23.387  1.00  0.00     0.188 HD
BRANCH  22  24
HETATM   24  S   UNL     1      24.093  -6.040  25.620  1.00  0.00     0.233 S 
HETATM   25  C   UNL     1      25.495  -5.896  26.386  1.00  0.00     0.186 C 
HETATM   26  O   UNL     1      23.088  -5.407  26.451  1.00  0.00    -0.205 OA
HETATM   27  O   UNL     1      23.800  -7.432  25.397  1.00  0.00    -0.205 OA
ENDBRANCH  22  24
ENDBRANCH  21  22
ENDBRANCH   1  21
TORSDOF 5
ENDMDL
