
 OpenBabel07202414163D

 43 46  0  0  1  0  0  0  0  0999 V2000
   -2.1702   -0.0699   -1.3718 C   0  0  0  0  0  0  0  0  0  0  0  0
   -0.8075   -0.2600   -0.8072 C   0  0  0  0  0  0  0  0  0  0  0  0
   -0.1404   -1.3936   -0.8388 N   0  0  0  0  0  0  0  0  0  0  0  0
    1.0513   -1.2636   -0.1329 C   0  0  0  0  0  0  0  0  0  0  0  0
    1.9918   -2.4283   -0.0061 C   0  0  2  0  0  0  0  0  0  0  0  0
    2.0033   -3.3381   -1.2405 C   0  0  0  0  0  0  0  0  0  0  0  0
    2.6501   -4.6126   -0.7231 C   0  0  0  0  0  0  0  0  0  0  0  0
    2.1714   -4.7048    0.7180 C   0  0  0  0  0  0  0  0  0  0  0  0
    1.7019   -3.3739    1.0798 N   0  0  0  0  0  0  0  0  0  0  0  0
    1.3378   -3.0047    2.3614 C   0  0  0  0  0  0  0  0  0  0  0  0
    1.0955   -1.8434    2.6912 O   0  0  0  0  0  0  0  0  0  0  0  0
    1.3140   -4.1016    3.4232 C   0  0  0  0  0  0  0  0  0  0  0  0
    2.6049   -4.2489    4.2069 C   0  0  0  0  0  0  0  0  0  0  0  0
    3.6203   -3.2931    4.1117 C   0  0  0  0  0  0  0  0  0  0  0  0
    4.7941   -3.3449    4.7772 N   0  0  0  0  0  0  0  0  0  0  0  0
    4.9680   -4.3889    5.6039 C   0  0  0  0  0  0  0  0  0  0  0  0
    4.0363   -5.4109    5.8039 C   0  0  0  0  0  0  0  0  0  0  0  0
    4.2909   -6.4728    6.6850 C   0  0  0  0  0  0  0  0  0  0  0  0
    3.3560   -7.4911    6.8600 C   0  0  0  0  0  0  0  0  0  0  0  0
    2.1560   -7.4503    6.1630 C   0  0  0  0  0  0  0  0  0  0  0  0
    1.8877   -6.3895    5.2925 C   0  0  0  0  0  0  0  0  0  0  0  0
    2.8190   -5.3453    5.0851 C   0  0  0  0  0  0  0  0  0  0  0  0
    1.2845    0.0093    0.3648 C   0  0  0  0  0  0  0  0  0  0  0  0
   -0.0198    1.0468   -0.0200 S   0  0  0  0  0  0  0  0  0  0  0  0
   -2.5087   -0.9851   -1.8674 H   0  0  0  0  0  0  0  0  0  0  0  0
   -2.1899    0.7414   -2.1064 H   0  0  0  0  0  0  0  0  0  0  0  0
   -2.8811    0.1616   -0.5721 H   0  0  0  0  0  0  0  0  0  0  0  0
    3.0096   -2.0527    0.1745 H   0  0  0  0  0  0  0  0  0  0  0  0
    2.5427   -2.9048   -2.0883 H   0  0  0  0  0  0  0  0  0  0  0  0
    0.9843   -3.5727   -1.5768 H   0  0  0  0  0  0  0  0  0  0  0  0
    3.7416   -4.5223   -0.7552 H   0  0  0  0  0  0  0  0  0  0  0  0
    2.3679   -5.4972   -1.3019 H   0  0  0  0  0  0  0  0  0  0  0  0
    2.9917   -5.0017    1.3800 H   0  0  0  0  0  0  0  0  0  0  0  0
    1.3467   -5.4146    0.8258 H   0  0  0  0  0  0  0  0  0  0  0  0
    1.0485   -5.0537    2.9550 H   0  0  0  0  0  0  0  0  0  0  0  0
    0.4992   -3.8666    4.1189 H   0  0  0  0  0  0  0  0  0  0  0  0
    3.5334   -2.4173    3.4727 H   0  0  0  0  0  0  0  0  0  0  0  0
    5.9178   -4.3890    6.1330 H   0  0  0  0  0  0  0  0  0  0  0  0
    5.2247   -6.5153    7.2418 H   0  0  0  0  0  0  0  0  0  0  0  0
    3.5637   -8.3097    7.5436 H   0  0  0  0  0  0  0  0  0  0  0  0
    1.4250   -8.2440    6.2936 H   0  0  0  0  0  0  0  0  0  0  0  0
    0.9294   -6.3942    4.7797 H   0  0  0  0  0  0  0  0  0  0  0  0
    2.1293    0.3545    0.9484 H   0  0  0  0  0  0  0  0  0  0  0  0
  1  2  1  0  0  0  0
  1 25  1  0  0  0  0
  1 26  1  0  0  0  0
  1 27  1  0  0  0  0
  2  3  2  0  0  0  0
  2 24  1  0  0  0  0
  3  4  1  0  0  0  0
  4  5  1  0  0  0  0
  4 23  2  0  0  0  0
  5  6  1  0  0  0  0
  5  9  1  0  0  0  0
  5 28  1  1  0  0  0
  6  7  1  0  0  0  0
  6 29  1  0  0  0  0
  6 30  1  0  0  0  0
  7  8  1  0  0  0  0
  7 31  1  0  0  0  0
  7 32  1  0  0  0  0
  8  9  1  0  0  0  0
  8 33  1  0  0  0  0
  8 34  1  0  0  0  0
  9 10  1  0  0  0  0
 10 11  2  0  0  0  0
 10 12  1  0  0  0  0
 12 13  1  0  0  0  0
 12 35  1  0  0  0  0
 12 36  1  0  0  0  0
 13 14  1  0  0  0  0
 13 22  2  0  0  0  0
 14 15  2  0  0  0  0
 14 37  1  0  0  0  0
 15 16  1  0  0  0  0
 16 17  2  0  0  0  0
 16 38  1  0  0  0  0
 17 18  1  0  0  0  0
 17 22  1  0  0  0  0
 18 19  2  0  0  0  0
 18 39  1  0  0  0  0
 19 20  1  0  0  0  0
 19 40  1  0  0  0  0
 20 21  2  0  0  0  0
 20 41  1  0  0  0  0
 21 22  1  0  0  0  0
 21 42  1  0  0  0  0
 23 24  1  0  0  0  0
 23 43  1  0  0  0  0
M  END
$$$$
