MODEL 1
REMARK VINA RESULT:    -4.626      0.000      0.000
REMARK INTER + INTRA:          -6.968
REMARK INTER:                  -6.383
REMARK INTRA:                  -0.584
REMARK UNBOUND:                -0.584
REMARK  7 active torsions:
REMARK  status: ('A' for Active; 'I' for Inactive)
REMARK    1  A    between atoms: C_2  and  C_5 
REMARK    2  A    between atoms: C_2  and  O_3 
REMARK    3  A    between atoms: S_6  and  C_15 
REMARK    4  A    between atoms: S_6  and  C_8 
REMARK    5  A    between atoms: C_7  and  C_10 
REMARK    6  A    between atoms: C_8  and  O_11 
REMARK    7  A    between atoms: C_10  and  O_11 
ROOT
HETATM    1  O   UNL     1       8.919  -1.119  21.539  1.00  0.00    -0.260 OA
HETATM    2  C   UNL     1       8.651  -0.124  20.988  1.00  0.00     0.283 C 
ENDROOT
BRANCH   2   3
HETATM    3  C   UNL     1       7.395   0.253  20.003  1.00  0.00     0.089 C 
HETATM    4  C   UNL     1       6.331   1.104  19.675  1.00  0.00     0.087 C 
BRANCH   4   5
HETATM    5  C   UNL     1       5.084   0.691  18.934  1.00  0.00     0.165 C 
HETATM    6  O   UNL     1       4.036   1.017  19.376  1.00  0.00    -0.647 OA
BRANCH   5   7
HETATM    7  O   UNL     1       5.182  -0.068  17.812  1.00  0.00    -0.773 OA
HETATM    8  H   UNL     1       4.707   0.411  17.058  1.00  0.00     0.167 HD
ENDBRANCH   5   7
ENDBRANCH   4   5
ENDBRANCH   2   3
BRANCH   2   9
HETATM    9  O   UNL     1       9.075   1.041  21.149  1.00  0.00    -0.308 OA
BRANCH   9  10
HETATM   10  C   UNL     1       8.767   1.825  22.271  1.00  0.00     0.255 C 
BRANCH  10  11
HETATM   11  S   UNL     1      10.105   2.753  23.139  1.00  0.00    -0.107 SA
BRANCH  11  12
HETATM   12  C   UNL     1      10.902   1.177  23.753  1.00  0.00     0.285 C 
HETATM   13  N   UNL     1      11.341   0.391  23.019  1.00  0.00     0.097 N 
HETATM   14  H   UNL     1      10.649   0.012  22.373  1.00  0.00     0.317 HD
HETATM   15  C   UNL     1      12.288  -0.253  24.421  1.00  0.00     0.274 C 
HETATM   16  C   UNL     1      11.158   0.463  25.023  1.00  0.00     0.076 C 
ENDBRANCH  11  12
ENDBRANCH  10  11
ENDBRANCH   9  10
ENDBRANCH   2   9
TORSDOF 7
ENDMDL
MODEL 2
REMARK VINA RESULT:    -4.623      1.690      2.085
REMARK INTER + INTRA:          -6.964
REMARK INTER:                  -6.632
REMARK INTRA:                  -0.332
REMARK UNBOUND:                -0.584
REMARK  7 active torsions:
REMARK  status: ('A' for Active; 'I' for Inactive)
REMARK    1  A    between atoms: C_2  and  C_5 
REMARK    2  A    between atoms: C_2  and  O_3 
REMARK    3  A    between atoms: S_6  and  C_15 
REMARK    4  A    between atoms: S_6  and  C_8 
REMARK    5  A    between atoms: C_7  and  C_10 
REMARK    6  A    between atoms: C_8  and  O_11 
REMARK    7  A    between atoms: C_10  and  O_11 
ROOT
HETATM    1  O   UNL     1       9.857   0.689  21.336  1.00  0.00    -0.260 OA
HETATM    2  C   UNL     1       9.001  -0.076  21.122  1.00  0.00     0.283 C 
ENDROOT
BRANCH   2   3
HETATM    3  C   UNL     1       7.756  -0.024  20.054  1.00  0.00     0.089 C 
HETATM    4  C   UNL     1       7.257   0.350  18.800  1.00  0.00     0.087 C 
BRANCH   4   5
HETATM    5  C   UNL     1       5.811   0.652  18.495  1.00  0.00     0.165 C 
HETATM    6  O   UNL     1       5.316   1.596  19.009  1.00  0.00    -0.647 OA
BRANCH   5   7
HETATM    7  O   UNL     1       5.103  -0.172  17.679  1.00  0.00    -0.773 OA
HETATM    8  H   UNL     1       5.697  -0.946  17.412  1.00  0.00     0.167 HD
ENDBRANCH   5   7
ENDBRANCH   4   5
ENDBRANCH   2   3
BRANCH   2   9
HETATM    9  O   UNL     1       8.877  -1.277  21.444  1.00  0.00    -0.308 OA
BRANCH   9  10
HETATM   10  C   UNL     1       9.696  -1.909  22.392  1.00  0.00     0.255 C 
BRANCH  10  11
HETATM   11  S   UNL     1       9.302  -1.767  24.188  1.00  0.00    -0.107 SA
BRANCH  11  12
HETATM   12  C   UNL     1      10.577  -0.423  24.439  1.00  0.00     0.285 C 
HETATM   13  N   UNL     1      11.712  -0.630  24.310  1.00  0.00     0.097 N 
HETATM   14  H   UNL     1      12.065  -1.345  24.946  1.00  0.00     0.317 HD
HETATM   15  C   UNL     1      11.924   1.159  24.135  1.00  0.00     0.274 C 
HETATM   16  C   UNL     1      10.654   0.996  24.851  1.00  0.00     0.076 C 
ENDBRANCH  11  12
ENDBRANCH  10  11
ENDBRANCH   9  10
ENDBRANCH   2   9
TORSDOF 7
ENDMDL
MODEL 3
REMARK VINA RESULT:    -4.384     22.892     24.429
REMARK INTER + INTRA:          -6.634
REMARK INTER:                  -6.204
REMARK INTRA:                  -0.430
REMARK UNBOUND:                -0.584
REMARK  7 active torsions:
REMARK  status: ('A' for Active; 'I' for Inactive)
REMARK    1  A    between atoms: C_2  and  C_5 
REMARK    2  A    between atoms: C_2  and  O_3 
REMARK    3  A    between atoms: S_6  and  C_15 
REMARK    4  A    between atoms: S_6  and  C_8 
REMARK    5  A    between atoms: C_7  and  C_10 
REMARK    6  A    between atoms: C_8  and  O_11 
REMARK    7  A    between atoms: C_10  and  O_11 
ROOT
HETATM    1  O   UNL     1      11.452  14.927   3.479  1.00  0.00    -0.260 OA
HETATM    2  C   UNL     1      10.329  14.928   3.158  1.00  0.00     0.283 C 
ENDROOT
BRANCH   2   3
HETATM    3  C   UNL     1       9.189  13.750   3.231  1.00  0.00     0.089 C 
HETATM    4  C   UNL     1       7.986  13.266   3.761  1.00  0.00     0.087 C 
BRANCH   4   5
HETATM    5  C   UNL     1       7.622  11.809   3.902  1.00  0.00     0.165 C 
HETATM    6  O   UNL     1       6.544  11.465   3.553  1.00  0.00    -0.647 OA
BRANCH   5   7
HETATM    7  O   UNL     1       8.508  10.939   4.451  1.00  0.00    -0.773 OA
HETATM    8  H   UNL     1       8.276  10.005   4.139  1.00  0.00     0.167 HD
ENDBRANCH   5   7
ENDBRANCH   4   5
ENDBRANCH   2   3
BRANCH   2   9
HETATM    9  O   UNL     1       9.556  15.873   2.887  1.00  0.00    -0.308 OA
BRANCH   9  10
HETATM   10  C   UNL     1       8.972  16.050   1.623  1.00  0.00     0.255 C 
BRANCH  10  11
HETATM   11  S   UNL     1       7.795  17.443   1.343  1.00  0.00    -0.107 SA
BRANCH  11  12
HETATM   12  C   UNL     1       9.098  18.723   1.741  1.00  0.00     0.285 C 
HETATM   13  N   UNL     1      10.211  18.570   1.447  1.00  0.00     0.097 N 
HETATM   14  H   UNL     1      10.628  17.740   1.868  1.00  0.00     0.317 HD
HETATM   15  C   UNL     1      10.413  20.358   1.645  1.00  0.00     0.274 C 
HETATM   16  C   UNL     1       9.229  20.019   2.442  1.00  0.00     0.076 C 
ENDBRANCH  11  12
ENDBRANCH  10  11
ENDBRANCH   9  10
ENDBRANCH   2   9
TORSDOF 7
ENDMDL
MODEL 4
REMARK VINA RESULT:    -4.295     15.503     17.586
REMARK INTER + INTRA:          -6.511
REMARK INTER:                  -6.075
REMARK INTRA:                  -0.436
REMARK UNBOUND:                -0.584
REMARK  7 active torsions:
REMARK  status: ('A' for Active; 'I' for Inactive)
REMARK    1  A    between atoms: C_2  and  C_5 
REMARK    2  A    between atoms: C_2  and  O_3 
REMARK    3  A    between atoms: S_6  and  C_15 
REMARK    4  A    between atoms: S_6  and  C_8 
REMARK    5  A    between atoms: C_7  and  C_10 
REMARK    6  A    between atoms: C_8  and  O_11 
REMARK    7  A    between atoms: C_10  and  O_11 
ROOT
HETATM    1  O   UNL     1      24.019  -7.547  25.660  1.00  0.00    -0.260 OA
HETATM    2  C   UNL     1      24.069  -6.719  24.838  1.00  0.00     0.283 C 
ENDROOT
BRANCH   2   3
HETATM    3  C   UNL     1      23.560  -5.159  24.852  1.00  0.00     0.089 C 
HETATM    4  C   UNL     1      23.136  -4.034  25.572  1.00  0.00     0.087 C 
BRANCH   4   5
HETATM    5  C   UNL     1      22.230  -2.952  25.040  1.00  0.00     0.165 C 
HETATM    6  O   UNL     1      22.330  -2.650  23.899  1.00  0.00    -0.647 OA
BRANCH   5   7
HETATM    7  O   UNL     1      21.357  -2.328  25.872  1.00  0.00    -0.773 OA
HETATM    8  H   UNL     1      21.855  -1.608  26.378  1.00  0.00     0.167 HD
ENDBRANCH   5   7
ENDBRANCH   4   5
ENDBRANCH   2   3
BRANCH   2   9
HETATM    9  O   UNL     1      24.731  -6.654  23.779  1.00  0.00    -0.308 OA
BRANCH   9  10
HETATM   10  C   UNL     1      25.303  -7.776  23.160  1.00  0.00     0.255 C 
BRANCH  10  11
HETATM   11  S   UNL     1      26.681  -7.556  21.954  1.00  0.00    -0.107 SA
BRANCH  11  12
HETATM   12  C   UNL     1      25.565  -6.704  20.720  1.00  0.00     0.285 C 
HETATM   13  N   UNL     1      24.434  -6.959  20.645  1.00  0.00     0.097 N 
HETATM   14  H   UNL     1      24.256  -7.936  20.416  1.00  0.00     0.317 HD
HETATM   15  C   UNL     1      24.229  -5.375  19.792  1.00  0.00     0.274 C 
HETATM   16  C   UNL     1      25.645  -5.719  19.619  1.00  0.00     0.076 C 
ENDBRANCH  11  12
ENDBRANCH  10  11
ENDBRANCH   9  10
ENDBRANCH   2   9
TORSDOF 7
ENDMDL
MODEL 5
REMARK VINA RESULT:    -4.205     14.313     16.693
REMARK INTER + INTRA:          -6.387
REMARK INTER:                  -5.588
REMARK INTRA:                  -0.798
REMARK UNBOUND:                -0.584
REMARK  7 active torsions:
REMARK  status: ('A' for Active; 'I' for Inactive)
REMARK    1  A    between atoms: C_2  and  C_5 
REMARK    2  A    between atoms: C_2  and  O_3 
REMARK    3  A    between atoms: S_6  and  C_15 
REMARK    4  A    between atoms: S_6  and  C_8 
REMARK    5  A    between atoms: C_7  and  C_10 
REMARK    6  A    between atoms: C_8  and  O_11 
REMARK    7  A    between atoms: C_10  and  O_11 
ROOT
HETATM    1  O   UNL     1      23.929  -5.349  26.970  1.00  0.00    -0.260 OA
HETATM    2  C   UNL     1      23.476  -5.173  25.908  1.00  0.00     0.283 C 
ENDROOT
BRANCH   2   3
HETATM    3  C   UNL     1      22.908  -3.808  25.196  1.00  0.00     0.089 C 
HETATM    4  C   UNL     1      22.115  -2.655  25.259  1.00  0.00     0.087 C 
BRANCH   4   5
HETATM    5  C   UNL     1      21.490  -1.965  24.072  1.00  0.00     0.165 C 
HETATM    6  O   UNL     1      22.128  -1.872  23.079  1.00  0.00    -0.647 OA
BRANCH   5   7
HETATM    7  O   UNL     1      20.242  -1.438  24.173  1.00  0.00    -0.773 OA
HETATM    8  H   UNL     1      19.854  -1.701  25.069  1.00  0.00     0.167 HD
ENDBRANCH   5   7
ENDBRANCH   4   5
ENDBRANCH   2   3
BRANCH   2   9
HETATM    9  O   UNL     1      23.495  -5.885  24.881  1.00  0.00    -0.308 OA
BRANCH   9  10
HETATM   10  C   UNL     1      24.107  -7.147  24.830  1.00  0.00     0.255 C 
BRANCH  10  11
HETATM   11  S   UNL     1      25.805  -7.317  24.131  1.00  0.00    -0.107 SA
BRANCH  11  12
HETATM   12  C   UNL     1      25.571  -5.842  23.007  1.00  0.00     0.285 C 
HETATM   13  N   UNL     1      24.812  -5.861  22.128  1.00  0.00     0.097 N 
HETATM   14  H   UNL     1      25.007  -6.592  21.443  1.00  0.00     0.317 HD
HETATM   15  C   UNL     1      24.889  -4.053  22.145  1.00  0.00     0.274 C 
HETATM   16  C   UNL     1      26.132  -4.491  22.786  1.00  0.00     0.076 C 
ENDBRANCH  11  12
ENDBRANCH  10  11
ENDBRANCH   9  10
ENDBRANCH   2   9
TORSDOF 7
ENDMDL
MODEL 6
REMARK VINA RESULT:    -4.162      3.295      6.051
REMARK INTER + INTRA:          -6.328
REMARK INTER:                  -5.652
REMARK INTRA:                  -0.677
REMARK UNBOUND:                -0.584
REMARK  7 active torsions:
REMARK  status: ('A' for Active; 'I' for Inactive)
REMARK    1  A    between atoms: C_2  and  C_5 
REMARK    2  A    between atoms: C_2  and  O_3 
REMARK    3  A    between atoms: S_6  and  C_15 
REMARK    4  A    between atoms: S_6  and  C_8 
REMARK    5  A    between atoms: C_7  and  C_10 
REMARK    6  A    between atoms: C_8  and  O_11 
REMARK    7  A    between atoms: C_10  and  O_11 
ROOT
HETATM    1  O   UNL     1       8.632   2.785  25.065  1.00  0.00    -0.260 OA
HETATM    2  C   UNL     1       9.224   2.158  24.276  1.00  0.00     0.283 C 
ENDROOT
BRANCH   2   3
HETATM    3  C   UNL     1      10.590   1.261  24.424  1.00  0.00     0.089 C 
HETATM    4  C   UNL     1      11.915   1.010  24.043  1.00  0.00     0.087 C 
BRANCH   4   5
HETATM    5  C   UNL     1      12.594  -0.336  24.097  1.00  0.00     0.165 C 
HETATM    6  O   UNL     1      12.052  -1.257  23.587  1.00  0.00    -0.647 OA
BRANCH   5   7
HETATM    7  O   UNL     1      13.776  -0.475  24.751  1.00  0.00    -0.773 OA
HETATM    8  H   UNL     1      14.523  -0.217  24.120  1.00  0.00     0.167 HD
ENDBRANCH   5   7
ENDBRANCH   4   5
ENDBRANCH   2   3
BRANCH   2   9
HETATM    9  O   UNL     1       8.899   1.756  23.138  1.00  0.00    -0.308 OA
BRANCH   9  10
HETATM   10  C   UNL     1       8.059   2.479  22.277  1.00  0.00     0.255 C 
BRANCH  10  11
HETATM   11  S   UNL     1       6.807   1.591  21.254  1.00  0.00    -0.107 SA
BRANCH  11  12
HETATM   12  C   UNL     1       7.769  -0.010  21.333  1.00  0.00     0.285 C 
HETATM   13  N   UNL     1       8.796  -0.130  20.805  1.00  0.00     0.097 N 
HETATM   14  H   UNL     1       8.748   0.011  19.796  1.00  0.00     0.317 HD
HETATM   15  C   UNL     1       9.090  -1.542  21.898  1.00  0.00     0.274 C 
HETATM   16  C   UNL     1       7.632  -1.383  21.867  1.00  0.00     0.076 C 
ENDBRANCH  11  12
ENDBRANCH  10  11
ENDBRANCH   9  10
ENDBRANCH   2   9
TORSDOF 7
ENDMDL
MODEL 7
REMARK VINA RESULT:    -4.155      2.462      2.975
REMARK INTER + INTRA:          -6.319
REMARK INTER:                  -5.877
REMARK INTRA:                  -0.441
REMARK UNBOUND:                -0.584
REMARK  7 active torsions:
REMARK  status: ('A' for Active; 'I' for Inactive)
REMARK    1  A    between atoms: C_2  and  C_5 
REMARK    2  A    between atoms: C_2  and  O_3 
REMARK    3  A    between atoms: S_6  and  C_15 
REMARK    4  A    between atoms: S_6  and  C_8 
REMARK    5  A    between atoms: C_7  and  C_10 
REMARK    6  A    between atoms: C_8  and  O_11 
REMARK    7  A    between atoms: C_10  and  O_11 
ROOT
HETATM    1  O   UNL     1       6.277   2.084  22.933  1.00  0.00    -0.260 OA
HETATM    2  C   UNL     1       6.953   1.776  22.032  1.00  0.00     0.283 C 
ENDROOT
BRANCH   2   3
HETATM    3  C   UNL     1       6.579   1.065  20.601  1.00  0.00     0.089 C 
HETATM    4  C   UNL     1       6.994   0.526  19.377  1.00  0.00     0.087 C 
BRANCH   4   5
HETATM    5  C   UNL     1       6.161   0.482  18.120  1.00  0.00     0.165 C 
HETATM    6  O   UNL     1       6.037   1.480  17.495  1.00  0.00    -0.647 OA
BRANCH   5   7
HETATM    7  O   UNL     1       5.547  -0.672  17.753  1.00  0.00    -0.773 OA
HETATM    8  H   UNL     1       5.621  -0.770  16.749  1.00  0.00     0.167 HD
ENDBRANCH   5   7
ENDBRANCH   4   5
ENDBRANCH   2   3
BRANCH   2   9
HETATM    9  O   UNL     1       8.127   2.093  21.743  1.00  0.00    -0.308 OA
BRANCH   9  10
HETATM   10  C   UNL     1       9.252   1.541  22.375  1.00  0.00     0.255 C 
BRANCH  10  11
HETATM   11  S   UNL     1       9.634   1.983  24.124  1.00  0.00    -0.107 SA
BRANCH  11  12
HETATM   12  C   UNL     1      10.352   3.636  23.628  1.00  0.00     0.285 C 
HETATM   13  N   UNL     1       9.683   4.490  23.210  1.00  0.00     0.097 N 
HETATM   14  H   UNL     1       9.192   4.233  22.354  1.00  0.00     0.317 HD
HETATM   15  C   UNL     1      11.026   5.625  23.637  1.00  0.00     0.274 C 
HETATM   16  C   UNL     1      11.664   4.310  23.521  1.00  0.00     0.076 C 
ENDBRANCH  11  12
ENDBRANCH  10  11
ENDBRANCH   9  10
ENDBRANCH   2   9
TORSDOF 7
ENDMDL
MODEL 8
REMARK VINA RESULT:    -4.145      7.001      8.540
REMARK INTER + INTRA:          -6.304
REMARK INTER:                  -5.447
REMARK INTRA:                  -0.857
REMARK UNBOUND:                -0.584
REMARK  7 active torsions:
REMARK  status: ('A' for Active; 'I' for Inactive)
REMARK    1  A    between atoms: C_2  and  C_5 
REMARK    2  A    between atoms: C_2  and  O_3 
REMARK    3  A    between atoms: S_6  and  C_15 
REMARK    4  A    between atoms: S_6  and  C_8 
REMARK    5  A    between atoms: C_7  and  C_10 
REMARK    6  A    between atoms: C_8  and  O_11 
REMARK    7  A    between atoms: C_10  and  O_11 
ROOT
HETATM    1  O   UNL     1       3.585  -6.901  24.591  1.00  0.00    -0.260 OA
HETATM    2  C   UNL     1       4.405  -6.077  24.695  1.00  0.00     0.283 C 
ENDROOT
BRANCH   2   3
HETATM    3  C   UNL     1       5.496  -5.790  25.887  1.00  0.00     0.089 C 
HETATM    4  C   UNL     1       6.493  -4.976  26.440  1.00  0.00     0.087 C 
BRANCH   4   5
HETATM    5  C   UNL     1       7.616  -5.456  27.325  1.00  0.00     0.165 C 
HETATM    6  O   UNL     1       7.344  -6.139  28.253  1.00  0.00    -0.647 OA
BRANCH   5   7
HETATM    7  O   UNL     1       8.893  -5.074  27.068  1.00  0.00    -0.773 OA
HETATM    8  H   UNL     1       9.135  -4.321  27.699  1.00  0.00     0.167 HD
ENDBRANCH   5   7
ENDBRANCH   4   5
ENDBRANCH   2   3
BRANCH   2   9
HETATM    9  O   UNL     1       4.895  -5.298  23.848  1.00  0.00    -0.308 OA
BRANCH   9  10
HETATM   10  C   UNL     1       5.291  -5.706  22.565  1.00  0.00     0.255 C 
BRANCH  10  11
HETATM   11  S   UNL     1       7.085  -5.827  22.153  1.00  0.00    -0.107 SA
BRANCH  11  12
HETATM   12  C   UNL     1       7.433  -4.120  22.830  1.00  0.00     0.285 C 
HETATM   13  N   UNL     1       6.744  -3.217  22.588  1.00  0.00     0.097 N 
HETATM   14  H   UNL     1       6.682  -3.015  21.590  1.00  0.00     0.317 HD
HETATM   15  C   UNL     1       7.470  -2.396  24.029  1.00  0.00     0.274 C 
HETATM   16  C   UNL     1       8.451  -3.413  23.637  1.00  0.00     0.076 C 
ENDBRANCH  11  12
ENDBRANCH  10  11
ENDBRANCH   9  10
ENDBRANCH   2   9
TORSDOF 7
ENDMDL
MODEL 9
REMARK VINA RESULT:    -4.029     23.488     24.971
REMARK INTER + INTRA:          -6.144
REMARK INTER:                  -5.375
REMARK INTRA:                  -0.769
REMARK UNBOUND:                -0.584
REMARK  7 active torsions:
REMARK  status: ('A' for Active; 'I' for Inactive)
REMARK    1  A    between atoms: C_2  and  C_5 
REMARK    2  A    between atoms: C_2  and  O_3 
REMARK    3  A    between atoms: S_6  and  C_15 
REMARK    4  A    between atoms: S_6  and  C_8 
REMARK    5  A    between atoms: C_7  and  C_10 
REMARK    6  A    between atoms: C_8  and  O_11 
REMARK    7  A    between atoms: C_10  and  O_11 
ROOT
HETATM    1  O   UNL     1       9.765  18.052   6.036  1.00  0.00    -0.260 OA
HETATM    2  C   UNL     1      10.106  17.487   5.073  1.00  0.00     0.283 C 
ENDROOT
BRANCH   2   3
HETATM    3  C   UNL     1       9.904  15.924   4.615  1.00  0.00     0.089 C 
HETATM    4  C   UNL     1      10.297  14.838   3.822  1.00  0.00     0.087 C 
BRANCH   4   5
HETATM    5  C   UNL     1       9.394  13.715   3.378  1.00  0.00     0.165 C 
HETATM    6  O   UNL     1       9.394  12.714   4.010  1.00  0.00    -0.647 OA
BRANCH   5   7
HETATM    7  O   UNL     1       8.637  13.854   2.259  1.00  0.00    -0.773 OA
HETATM    8  H   UNL     1       8.837  14.756   1.847  1.00  0.00     0.167 HD
ENDBRANCH   5   7
ENDBRANCH   4   5
ENDBRANCH   2   3
BRANCH   2   9
HETATM    9  O   UNL     1      10.515  17.917   3.972  1.00  0.00    -0.308 OA
BRANCH   9  10
HETATM   10  C   UNL     1      10.921  19.245   3.767  1.00  0.00     0.255 C 
BRANCH  10  11
HETATM   11  S   UNL     1       9.942  20.343   2.655  1.00  0.00    -0.107 SA
BRANCH  11  12
HETATM   12  C   UNL     1       9.388  18.905   1.597  1.00  0.00     0.285 C 
HETATM   13  N   UNL     1      10.095  18.416   0.816  1.00  0.00     0.097 N 
HETATM   14  H   UNL     1      10.413  19.066   0.098  1.00  0.00     0.317 HD
HETATM   15  C   UNL     1       8.998  16.977   0.861  1.00  0.00     0.274 C 
HETATM   16  C   UNL     1       8.177  18.095   1.339  1.00  0.00     0.076 C 
ENDBRANCH  11  12
ENDBRANCH  10  11
ENDBRANCH   9  10
ENDBRANCH   2   9
TORSDOF 7
ENDMDL
