REMARK  7 active torsions:
REMARK  status: ('A' for Active; 'I' for Inactive)
REMARK    1  A    between atoms: C_2  and  C_5 
REMARK    2  A    between atoms: C_2  and  O_3 
REMARK    3  A    between atoms: S_6  and  C_15 
REMARK    4  A    between atoms: S_6  and  C_8 
REMARK    5  A    between atoms: C_7  and  C_10 
REMARK    6  A    between atoms: C_8  and  O_11 
REMARK    7  A    between atoms: C_10  and  O_11 
ROOT
HETATM    1  O   UNL     1      12.859  -1.314  23.321  1.00  0.00    -0.260 OA
HETATM    2  C   UNL     1      11.712  -1.218  23.520  1.00  0.00     0.283 C 
ENDROOT
BRANCH   2   3
HETATM    3  C   UNL     1      10.664  -2.231  24.274  1.00  0.00     0.089 C 
HETATM    4  C   UNL     1       9.457  -2.942  24.267  1.00  0.00     0.087 C 
BRANCH   4   5
HETATM    5  C   UNL     1       8.669  -3.328  25.494  1.00  0.00     0.165 C 
HETATM    6  O   UNL     1       8.468  -2.498  26.314  1.00  0.00    -0.647 OA
BRANCH   5   7
HETATM    7  O   UNL     1       8.243  -4.608  25.652  1.00  0.00    -0.773 OA
HETATM    8  H   UNL     1       7.335  -4.591  26.097  1.00  0.00     0.167 HD
ENDBRANCH   5   7
ENDBRANCH   4   5
ENDBRANCH   2   3
BRANCH   2   9
HETATM    9  O   UNL     1      10.949  -0.230  23.453  1.00  0.00    -0.308 OA
BRANCH   9  10
HETATM   10  C   UNL     1       9.938  -0.102  22.488  1.00  0.00     0.255 C 
BRANCH  10  11
HETATM   11  S   UNL     1       8.367  -1.051  22.672  1.00  0.00    -0.107 SA
BRANCH  11  12
HETATM   12  C   UNL     1       7.622  -0.258  21.152  1.00  0.00     0.285 C 
HETATM   13  N   UNL     1       8.275   0.038  20.238  1.00  0.00     0.097 N 
HETATM   14  H   UNL     1       9.003   0.715  20.466  1.00  0.00     0.317 HD
HETATM   15  C   UNL     1       6.745   0.064  19.271  1.00  0.00     0.274 C 
HETATM   16  C   UNL     1       6.317   0.238  20.663  1.00  0.00     0.076 C 
ENDBRANCH  11  12
ENDBRANCH  10  11
ENDBRANCH   9  10
ENDBRANCH   2   9
TORSDOF 7
