stable:False satoms:17 tatoms:24 sratio:0.7083333333333334
  -OEChem-07092417363D

 24 24  0     1  0  0  0  0  0999 V2000
    7.3355   -4.5910   26.0972 H   0  0  0  0  0  0  0  0  0  0  0  0
    8.6694   -3.3275   25.4940 C   0  0  0  0  0  0  0  0  0  0  0  0
    8.2428   -4.6080   25.6524 O   0  0  0  0  0  0  0  0  0  0  0  0
    8.4683   -2.4983   26.3135 O   0  0  0  0  0  0  0  0  0  0  0  0
    8.8994   -3.2303   23.4125 H   0  0  0  0  0  0  0  0  0  0  0  0
    9.4569   -2.9420   24.2674 C   0  0  0  0  0  0  0  0  0  0  0  0
    8.3667   -1.0509   22.6723 S   0  0  0  0  0  0  0  0  0  0  0  0
   10.6638   -2.2314   24.2743 C   0  0  0  0  0  0  0  0  0  0  0  0
    9.9385   -0.1018   22.4875 C   0  0  0  0  0  0  0  0  0  0  0  0
   11.2533   -2.2131   25.1725 H   0  0  0  0  0  0  0  0  0  0  0  0
   12.8591   -1.3140   23.3208 O   0  0  0  0  0  0  0  0  0  0  0  0
   11.7120   -1.2185   23.5197 C   0  0  0  0  0  0  0  0  0  0  0  0
   10.9490   -0.2303   23.4529 O   0  0  0  0  0  0  0  0  0  0  0  0
    9.6370    0.9126   22.5678 H   0  0  0  0  0  0  0  0  0  0  0  0
    9.0029    0.7145   20.4660 H   0  0  0  0  0  0  0  0  0  0  0  0
   10.3116   -0.3318   21.4915 H   0  0  0  0  0  0  0  0  0  0  0  0
    8.2748    0.0383   20.2384 N   0  0  0  0  0  0  0  0  0  0  0  0
    6.3169    0.2383   20.6627 C   0  0  0  0  0  0  0  0  0  0  0  0
    7.6217   -0.2584   21.1520 C   0  0  3  0  0  0  0  0  0  0  0  0
    6.8864    0.8306   18.5419 H   0  0  0  0  0  0  0  0  0  0  0  0
    6.7455    0.0638   19.2708 C   0  0  0  0  0  0  0  0  0  0  0  0
    6.4562   -0.8931   18.8677 H   0  0  0  0  0  0  0  0  0  0  0  0
    5.3880   -0.2982   20.8566 H   0  0  0  0  0  0  0  0  0  0  0  0
    6.1286    1.2503   21.0444 H   0  0  0  0  0  0  0  0  0  0  0  0
 20 21  1  0  0  0  0
 21 22  1  0  0  0  0
 17 21  1  0  0  0  0
 18 21  1  0  0  0  0
 15 17  1  0  0  0  0
 17 19  1  0  0  0  0
 18 23  1  0  0  0  0
 18 24  1  0  0  0  0
 18 19  1  0  0  0  0
  7 19  1  0  0  0  0
  9 16  1  0  0  0  0
  9 14  1  0  0  0  0
  7  9  1  0  0  0  0
  9 13  1  0  0  0  0
 11 12  2  0  0  0  0
  5  6  1  0  0  0  0
 12 13  1  0  0  0  0
  8 12  1  0  0  0  0
  6  8  2  0  0  0  0
  2  6  1  0  0  0  0
  8 10  1  0  0  0  0
  2  3  1  0  0  0  0
  2  4  2  0  0  0  0
  1  3  1  0  0  0  0
M  END
> <Shapegauss>
-155.812408

$$$$
