REMARK  6 active torsions:
REMARK  status: ('A' for Active; 'I' for Inactive)
REMARK    1  A    between atoms: C_1  and  N_16 
REMARK    2  A    between atoms: C_4  and  C_15 
REMARK    3  A    between atoms: C_5  and  C_9 
REMARK    4  A    between atoms: N_8  and  C_10 
REMARK    5  A    between atoms: C_9  and  N_16 
REMARK    6  A    between atoms: C_10  and  C_15 
ROOT
HETATM    1  C   UNL     1       7.952  -1.253  22.403  1.00  0.00     0.041 A 
HETATM    2  C   UNL     1       7.540  -2.079  23.121  1.00  0.00     0.076 A 
HETATM    3  N   UNL     1       8.890  -1.937  23.076  1.00  0.00    -0.248 NA
HETATM    4  C   UNL     1       9.938  -1.721  23.939  1.00  0.00     0.123 C 
ENDROOT
BRANCH   1   5
HETATM    5  C   UNL     1       7.352  -0.250  21.355  1.00  0.00     0.037 C 
BRANCH   5   6
HETATM    6  C   UNL     1       8.246   0.501  20.886  1.00  0.00     0.067 C 
BRANCH   6   7
HETATM    7  N   UNL     1       9.523   0.374  21.335  1.00  0.00    -0.226 N 
HETATM    8  C   UNL     1      10.514   1.398  20.834  1.00  0.00     0.193 A 
HETATM    9  C   UNL     1      10.600   0.002  21.405  1.00  0.00     0.304 A 
HETATM   10  O   UNL     1      11.572  -0.582  22.436  1.00  0.00    -0.174 OA
HETATM   11  O   UNL     1      11.907  -0.678  21.023  1.00  0.00    -0.174 OA
ENDBRANCH   6   7
ENDBRANCH   5   6
ENDBRANCH   1   5
BRANCH   2  12
HETATM   12  C   UNL     1       6.210  -2.515  23.290  1.00  0.00     0.129 C 
HETATM   13 CL   UNL     1       5.003  -2.191  22.076  1.00  0.00    -0.062 Cl
BRANCH  12  14
HETATM   14  N   UNL     1       5.982  -3.192  24.271  1.00  0.00    -0.323 N 
ATOM     15  HN  UNL     1       5.053  -3.147  24.690  1.00  0.00     0.169 HD
BRANCH  14  16
HETATM   16  C   UNL     1       6.926  -4.021  24.844  1.00  0.00     0.354 C 
HETATM   17  O   UNL     1       6.717  -4.801  25.726  1.00  0.00    -0.283 OA
ENDBRANCH  14  16
ENDBRANCH  12  14
ENDBRANCH   2  12
TORSDOF 6
