stable:False satoms:19 tatoms:24 sratio:0.7916666666666666
  -OEChem-07092417313D

 24 26  0     1  0  0  0  0  0999 V2000
    6.9258   -4.0207   24.8436 C   0  0  0  0  0  0  0  0  0  0  0  0
    6.7174   -4.8008   25.7255 O   0  0  0  0  0  0  0  0  0  0  0  0
    9.8183   -2.2819   24.8580 H   0  0  0  0  0  0  0  0  0  0  0  0
   11.5725   -0.5822   22.4359 O   0  0  0  0  0  0  0  0  0  0  0  0
    7.9522   -1.2533   22.4030 C   0  0  0  0  0  0  0  0  0  0  0  0
    7.9302   -3.9351   24.4137 H   0  0  0  0  0  0  0  0  0  0  0  0
    7.5398   -2.0788   23.1206 C   0  0  0  0  0  0  0  0  0  0  0  0
    8.8897   -1.9369   23.0762 N   0  0  0  0  0  0  0  0  0  0  0  0
   10.7828   -2.1082   23.3938 H   0  0  0  0  0  0  0  0  0  0  0  0
   10.1422   -0.6846   24.1483 H   0  0  0  0  0  0  0  0  0  0  0  0
   11.0711    2.0774   21.4527 H   0  0  0  0  0  0  0  0  0  0  0  0
   11.9070   -0.6777   21.0226 O   0  0  0  0  0  0  0  0  0  0  0  0
    9.5229    0.3743   21.3353 N   0  0  1  0  0  0  0  0  0  0  0  0
    6.2095   -2.5150   23.2904 C   0  0  3  0  0  0  0  0  0  0  0  0
    8.2461    0.5007   20.8862 C   0  0  0  0  0  0  0  0  0  0  0  0
   10.5870    1.5704   19.8057 H   0  0  0  0  0  0  0  0  0  0  0  0
    9.9378   -1.7207   23.9393 C   0  0  0  0  0  0  0  0  0  0  0  0
   10.5996    0.0016   21.4047 C   0  0  0  0  0  0  0  0  0  0  0  0
   10.5137    1.3984   20.8342 C   0  0  0  0  0  0  0  0  0  0  0  0
    6.3425   -0.2518   21.0344 H   0  0  0  0  0  0  0  0  0  0  0  0
    5.0027   -2.1912   22.0762 Cl  0  0  0  0  0  0  0  0  0  0  0  0
    7.3518   -0.2504   21.3545 C   0  0  0  0  0  0  0  0  0  0  0  0
    8.0392    1.2688   20.1710 H   0  0  0  0  0  0  0  0  0  0  0  0
    5.9821   -3.1925   24.2711 N   0  0  0  0  0  0  0  0  0  0  0  0
 16 19  1  0  0  0  0
 15 23  1  0  0  0  0
 13 19  1  0  0  0  0
 18 19  1  0  0  0  0
 11 19  1  0  0  0  0
 13 15  1  0  0  0  0
 15 22  2  0  0  0  0
 12 18  1  0  0  0  0
  4 12  1  0  0  0  0
 20 22  1  0  0  0  0
 13 18  1  0  0  0  0
  5 22  1  0  0  0  0
  4 18  1  0  0  0  0
 14 21  1  0  0  0  0
  5  8  1  0  0  0  0
  5  7  2  0  0  0  0
  7  8  1  0  0  0  0
  8 17  1  0  0  0  0
  7 14  1  0  0  0  0
 14 24  1  0  0  0  0
  9 17  1  0  0  0  0
 10 17  1  0  0  0  0
  3 17  1  0  0  0  0
  1 24  1  0  0  0  0
  1  6  1  0  0  0  0
  1  2  2  0  0  0  0
M  END
> <Shapegauss>
-123.869827

$$$$
