MODEL 1
REMARK VINA RESULT:    -5.086      0.000      0.000
REMARK INTER + INTRA:          -7.669
REMARK INTER:                  -6.870
REMARK INTRA:                  -0.799
REMARK UNBOUND:                -0.799
REMARK  6 active torsions:
REMARK  status: ('A' for Active; 'I' for Inactive)
REMARK    1  A    between atoms: C_1  and  N_16 
REMARK    2  A    between atoms: C_4  and  C_15 
REMARK    3  A    between atoms: C_5  and  C_9 
REMARK    4  A    between atoms: N_8  and  C_10 
REMARK    5  A    between atoms: C_9  and  N_16 
REMARK    6  A    between atoms: C_10  and  C_15 
ROOT
HETATM    1  C   UNL     1       9.973  -1.016  24.275  1.00  0.00     0.041 A 
HETATM    2  C   UNL     1      10.530  -0.127  24.792  1.00  0.00     0.076 A 
HETATM    3  N   UNL     1       9.334  -0.483  25.328  1.00  0.00    -0.248 NA
HETATM    4  C   UNL     1       8.815  -0.854  26.546  1.00  0.00     0.123 C 
ENDROOT
BRANCH   1   5
HETATM    5  C   UNL     1      10.195  -1.921  23.013  1.00  0.00     0.037 C 
BRANCH   5   6
HETATM    6  C   UNL     1       9.131  -2.045  22.353  1.00  0.00     0.067 C 
BRANCH   6   7
HETATM    7  N   UNL     1       8.586  -0.948  21.762  1.00  0.00    -0.226 N 
HETATM    8  C   UNL     1       7.112  -1.025  21.440  1.00  0.00     0.193 A 
HETATM    9  C   UNL     1       8.285  -0.214  20.941  1.00  0.00     0.304 A 
HETATM   10  O   UNL     1       8.382   1.280  20.613  1.00  0.00    -0.174 OA
HETATM   11  O   UNL     1       8.022   0.351  19.552  1.00  0.00    -0.174 OA
ENDBRANCH   6   7
ENDBRANCH   5   6
ENDBRANCH   1   5
BRANCH   2  12
HETATM   12  C   UNL     1      11.719   0.518  24.393  1.00  0.00     0.129 C 
HETATM   13 CL   UNL     1      13.211  -0.371  24.248  1.00  0.00    -0.062 Cl
BRANCH  12  14
HETATM   14  N   UNL     1      11.623   1.686  24.079  1.00  0.00    -0.323 N 
ATOM     15  HN  UNL     1      12.145   2.380  24.615  1.00  0.00     0.169 HD
BRANCH  14  16
HETATM   16  C   UNL     1      10.839   2.116  23.028  1.00  0.00     0.354 C 
HETATM   17  O   UNL     1       9.924   2.882  23.116  1.00  0.00    -0.283 OA
ENDBRANCH  14  16
ENDBRANCH  12  14
ENDBRANCH   2  12
TORSDOF 6
ENDMDL
MODEL 2
REMARK VINA RESULT:    -4.963      1.866      3.178
REMARK INTER + INTRA:          -7.503
REMARK INTER:                  -6.705
REMARK INTRA:                  -0.799
REMARK UNBOUND:                -0.799
REMARK  6 active torsions:
REMARK  status: ('A' for Active; 'I' for Inactive)
REMARK    1  A    between atoms: C_1  and  N_16 
REMARK    2  A    between atoms: C_4  and  C_15 
REMARK    3  A    between atoms: C_5  and  C_9 
REMARK    4  A    between atoms: N_8  and  C_10 
REMARK    5  A    between atoms: C_9  and  N_16 
REMARK    6  A    between atoms: C_10  and  C_15 
ROOT
HETATM    1  C   UNL     1      10.753   2.252  22.979  1.00  0.00     0.041 A 
HETATM    2  C   UNL     1      11.293   2.038  23.994  1.00  0.00     0.076 A 
HETATM    3  N   UNL     1      11.390   3.305  23.514  1.00  0.00    -0.248 NA
HETATM    4  C   UNL     1      11.138   4.591  23.929  1.00  0.00     0.123 C 
ENDROOT
BRANCH   1   5
HETATM    5  C   UNL     1       9.963   1.418  21.909  1.00  0.00     0.037 C 
BRANCH   5   6
HETATM    6  C   UNL     1       8.727   1.644  21.984  1.00  0.00     0.067 C 
BRANCH   6   7
HETATM    7  N   UNL     1       7.887   1.039  21.102  1.00  0.00    -0.226 N 
HETATM    8  C   UNL     1       8.076  -0.447  20.910  1.00  0.00     0.193 A 
HETATM    9  C   UNL     1       7.462   0.676  20.107  1.00  0.00     0.304 A 
HETATM   10  O   UNL     1       6.154   0.715  19.309  1.00  0.00    -0.174 OA
HETATM   11  O   UNL     1       7.380   0.326  18.628  1.00  0.00    -0.174 OA
ENDBRANCH   6   7
ENDBRANCH   5   6
ENDBRANCH   1   5
BRANCH   2  12
HETATM   12  C   UNL     1      11.448   0.808  24.666  1.00  0.00     0.129 C 
HETATM   13 CL   UNL     1      12.864  -0.175  24.414  1.00  0.00    -0.062 Cl
BRANCH  12  14
HETATM   14  N   UNL     1      10.594   0.525  25.481  1.00  0.00    -0.323 N 
ATOM     15  HN  UNL     1      10.553   1.057  26.350  1.00  0.00     0.169 HD
BRANCH  14  16
HETATM   16  C   UNL     1       9.677  -0.488  25.282  1.00  0.00     0.354 C 
HETATM   17  O   UNL     1       9.590  -1.158  24.296  1.00  0.00    -0.283 OA
ENDBRANCH  14  16
ENDBRANCH  12  14
ENDBRANCH   2  12
TORSDOF 6
ENDMDL
MODEL 3
REMARK VINA RESULT:    -4.952      3.974      5.634
REMARK INTER + INTRA:          -7.488
REMARK INTER:                  -6.676
REMARK INTRA:                  -0.813
REMARK UNBOUND:                -0.799
REMARK  6 active torsions:
REMARK  status: ('A' for Active; 'I' for Inactive)
REMARK    1  A    between atoms: C_1  and  N_16 
REMARK    2  A    between atoms: C_4  and  C_15 
REMARK    3  A    between atoms: C_5  and  C_9 
REMARK    4  A    between atoms: N_8  and  C_10 
REMARK    5  A    between atoms: C_9  and  N_16 
REMARK    6  A    between atoms: C_10  and  C_15 
ROOT
HETATM    1  C   UNL     1       8.194  -2.959  23.485  1.00  0.00     0.041 A 
HETATM    2  C   UNL     1       7.851  -3.464  24.483  1.00  0.00     0.076 A 
HETATM    3  N   UNL     1       7.414  -4.040  23.333  1.00  0.00    -0.248 NA
HETATM    4  C   UNL     1       7.424  -5.272  22.723  1.00  0.00     0.123 C 
ENDROOT
BRANCH   1   5
HETATM    5  C   UNL     1       9.006  -1.680  23.074  1.00  0.00     0.037 C 
BRANCH   5   6
HETATM    6  C   UNL     1      10.239  -1.925  23.022  1.00  0.00     0.067 C 
BRANCH   6   7
HETATM    7  N   UNL     1      11.088  -1.231  23.824  1.00  0.00    -0.226 N 
HETATM    8  C   UNL     1      10.450  -0.306  24.835  1.00  0.00     0.193 A 
HETATM    9  C   UNL     1      11.803  -0.410  24.169  1.00  0.00     0.304 A 
HETATM   10  O   UNL     1      13.207  -0.253  24.763  1.00  0.00    -0.174 OA
HETATM   11  O   UNL     1      12.546   0.918  24.207  1.00  0.00    -0.174 OA
ENDBRANCH   6   7
ENDBRANCH   5   6
ENDBRANCH   1   5
BRANCH   2  12
HETATM   12  C   UNL     1       8.062  -3.029  25.807  1.00  0.00     0.129 C 
HETATM   13 CL   UNL     1       7.351  -1.546  26.383  1.00  0.00    -0.062 Cl
BRANCH  12  14
HETATM   14  N   UNL     1       8.683  -3.778  26.532  1.00  0.00    -0.323 N 
ATOM     15  HN  UNL     1       9.565  -3.454  26.929  1.00  0.00     0.169 HD
BRANCH  14  16
HETATM   16  C   UNL     1       8.247  -5.051  26.842  1.00  0.00     0.354 C 
HETATM   17  O   UNL     1       7.579  -5.340  27.791  1.00  0.00    -0.283 OA
ENDBRANCH  14  16
ENDBRANCH  12  14
ENDBRANCH   2  12
TORSDOF 6
ENDMDL
MODEL 4
REMARK VINA RESULT:    -4.819      4.810      6.373
REMARK INTER + INTRA:          -7.309
REMARK INTER:                  -6.588
REMARK INTRA:                  -0.721
REMARK UNBOUND:                -0.799
REMARK  6 active torsions:
REMARK  status: ('A' for Active; 'I' for Inactive)
REMARK    1  A    between atoms: C_1  and  N_16 
REMARK    2  A    between atoms: C_4  and  C_15 
REMARK    3  A    between atoms: C_5  and  C_9 
REMARK    4  A    between atoms: N_8  and  C_10 
REMARK    5  A    between atoms: C_9  and  N_16 
REMARK    6  A    between atoms: C_10  and  C_15 
ROOT
HETATM    1  C   UNL     1       7.218  -4.266  24.715  1.00  0.00     0.041 A 
HETATM    2  C   UNL     1       6.501  -5.183  24.610  1.00  0.00     0.076 A 
HETATM    3  N   UNL     1       7.402  -5.235  25.624  1.00  0.00    -0.248 NA
HETATM    4  C   UNL     1       7.418  -5.415  26.987  1.00  0.00     0.123 C 
ENDROOT
BRANCH   1   5
HETATM    5  C   UNL     1       7.501  -2.942  23.920  1.00  0.00     0.037 C 
BRANCH   5   6
HETATM    6  C   UNL     1       8.450  -3.098  23.108  1.00  0.00     0.067 C 
BRANCH   6   7
HETATM    7  N   UNL     1       9.508  -2.245  23.151  1.00  0.00    -0.226 N 
HETATM    8  C   UNL     1       9.623  -1.263  22.009  1.00  0.00     0.193 A 
HETATM    9  C   UNL     1      10.573  -1.856  23.023  1.00  0.00     0.304 A 
HETATM   10  O   UNL     1      11.681  -1.187  23.843  1.00  0.00    -0.174 OA
HETATM   11  O   UNL     1      12.018  -1.768  22.552  1.00  0.00    -0.174 OA
ENDBRANCH   6   7
ENDBRANCH   5   6
ENDBRANCH   1   5
BRANCH   2  12
HETATM   12  C   UNL     1       5.552  -5.447  23.601  1.00  0.00     0.129 C 
HETATM   13 CL   UNL     1       4.068  -4.538  23.511  1.00  0.00    -0.062 Cl
BRANCH  12  14
HETATM   14  N   UNL     1       5.864  -6.269  22.764  1.00  0.00    -0.323 N 
ATOM     15  HN  UNL     1       5.729  -7.258  22.977  1.00  0.00     0.169 HD
BRANCH  14  16
HETATM   16  C   UNL     1       6.395  -5.923  21.537  1.00  0.00     0.354 C 
HETATM   17  O   UNL     1       5.853  -5.242  20.717  1.00  0.00    -0.283 OA
ENDBRANCH  14  16
ENDBRANCH  12  14
ENDBRANCH   2  12
TORSDOF 6
ENDMDL
MODEL 5
REMARK VINA RESULT:    -4.801      1.820      2.286
REMARK INTER + INTRA:          -7.285
REMARK INTER:                  -6.577
REMARK INTRA:                  -0.708
REMARK UNBOUND:                -0.799
REMARK  6 active torsions:
REMARK  status: ('A' for Active; 'I' for Inactive)
REMARK    1  A    between atoms: C_1  and  N_16 
REMARK    2  A    between atoms: C_4  and  C_15 
REMARK    3  A    between atoms: C_5  and  C_9 
REMARK    4  A    between atoms: N_8  and  C_10 
REMARK    5  A    between atoms: C_9  and  N_16 
REMARK    6  A    between atoms: C_10  and  C_15 
ROOT
HETATM    1  C   UNL     1      10.917  -0.432  24.340  1.00  0.00     0.041 A 
HETATM    2  C   UNL     1      11.245   0.688  24.265  1.00  0.00     0.076 A 
HETATM    3  N   UNL     1      12.219  -0.207  24.575  1.00  0.00    -0.248 NA
HETATM    4  C   UNL     1      13.456  -0.591  24.116  1.00  0.00     0.123 C 
ENDROOT
BRANCH   1   5
HETATM    5  C   UNL     1       9.571  -1.235  24.251  1.00  0.00     0.037 C 
BRANCH   5   6
HETATM    6  C   UNL     1       9.333  -1.587  23.067  1.00  0.00     0.067 C 
BRANCH   6   7
HETATM    7  N   UNL     1       8.751  -0.701  22.215  1.00  0.00    -0.226 N 
HETATM    8  C   UNL     1       7.393  -1.084  21.675  1.00  0.00     0.193 A 
HETATM    9  C   UNL     1       8.505  -0.157  21.242  1.00  0.00     0.304 A 
HETATM   10  O   UNL     1       8.437   1.268  20.682  1.00  0.00    -0.174 OA
HETATM   11  O   UNL     1       8.428   0.148  19.753  1.00  0.00    -0.174 OA
ENDBRANCH   6   7
ENDBRANCH   5   6
ENDBRANCH   1   5
BRANCH   2  12
HETATM   12  C   UNL     1      10.441   1.829  24.067  1.00  0.00     0.129 C 
HETATM   13 CL   UNL     1       8.983   2.066  24.991  1.00  0.00    -0.062 Cl
BRANCH  12  14
HETATM   14  N   UNL     1      10.864   2.662  23.292  1.00  0.00    -0.323 N 
ATOM     15  HN  UNL     1      10.583   2.605  22.313  1.00  0.00     0.169 HD
BRANCH  14  16
HETATM   16  C   UNL     1      11.709   3.683  23.679  1.00  0.00     0.354 C 
HETATM   17  O   UNL     1      11.732   4.780  23.202  1.00  0.00    -0.283 OA
ENDBRANCH  14  16
ENDBRANCH  12  14
ENDBRANCH   2  12
TORSDOF 6
ENDMDL
MODEL 6
REMARK VINA RESULT:    -4.738      2.097      2.496
REMARK INTER + INTRA:          -7.200
REMARK INTER:                  -6.544
REMARK INTRA:                  -0.655
REMARK UNBOUND:                -0.799
REMARK  6 active torsions:
REMARK  status: ('A' for Active; 'I' for Inactive)
REMARK    1  A    between atoms: C_1  and  N_16 
REMARK    2  A    between atoms: C_4  and  C_15 
REMARK    3  A    between atoms: C_5  and  C_9 
REMARK    4  A    between atoms: N_8  and  C_10 
REMARK    5  A    between atoms: C_9  and  N_16 
REMARK    6  A    between atoms: C_10  and  C_15 
ROOT
HETATM    1  C   UNL     1       8.151  -1.844  24.557  1.00  0.00     0.041 A 
HETATM    2  C   UNL     1       9.139  -1.538  25.103  1.00  0.00     0.076 A 
HETATM    3  N   UNL     1       8.338  -2.423  25.752  1.00  0.00    -0.248 NA
HETATM    4  C   UNL     1       8.422  -3.673  26.318  1.00  0.00     0.123 C 
ENDROOT
BRANCH   1   5
HETATM    5  C   UNL     1       7.406  -1.438  23.236  1.00  0.00     0.037 C 
BRANCH   5   6
HETATM    6  C   UNL     1       8.015  -1.870  22.223  1.00  0.00     0.067 C 
BRANCH   6   7
HETATM    7  N   UNL     1       8.211  -1.043  21.163  1.00  0.00    -0.226 N 
HETATM    8  C   UNL     1       9.182   0.096  21.373  1.00  0.00     0.193 A 
HETATM    9  C   UNL     1       8.037  -0.187  20.428  1.00  0.00     0.304 A 
HETATM   10  O   UNL     1       7.924   0.056  18.919  1.00  0.00    -0.174 OA
HETATM   11  O   UNL     1       7.476   1.097  19.832  1.00  0.00    -0.174 OA
ENDBRANCH   6   7
ENDBRANCH   5   6
ENDBRANCH   1   5
BRANCH   2  12
HETATM   12  C   UNL     1      10.093  -0.574  24.722  1.00  0.00     0.129 C 
HETATM   13 CL   UNL     1       9.790   1.125  24.959  1.00  0.00    -0.062 Cl
BRANCH  12  14
HETATM   14  N   UNL     1      11.154  -0.995  24.307  1.00  0.00    -0.323 N 
ATOM     15  HN  UNL     1      11.245  -1.994  24.128  1.00  0.00     0.169 HD
BRANCH  14  16
HETATM   16  C   UNL     1      12.241  -0.178  24.068  1.00  0.00     0.354 C 
HETATM   17  O   UNL     1      13.264  -0.190  24.687  1.00  0.00    -0.283 OA
ENDBRANCH  14  16
ENDBRANCH  12  14
ENDBRANCH   2  12
TORSDOF 6
ENDMDL
MODEL 7
REMARK VINA RESULT:    -4.733      5.464      6.610
REMARK INTER + INTRA:          -7.193
REMARK INTER:                  -6.416
REMARK INTRA:                  -0.777
REMARK UNBOUND:                -0.799
REMARK  6 active torsions:
REMARK  status: ('A' for Active; 'I' for Inactive)
REMARK    1  A    between atoms: C_1  and  N_16 
REMARK    2  A    between atoms: C_4  and  C_15 
REMARK    3  A    between atoms: C_5  and  C_9 
REMARK    4  A    between atoms: N_8  and  C_10 
REMARK    5  A    between atoms: C_9  and  N_16 
REMARK    6  A    between atoms: C_10  and  C_15 
ROOT
HETATM    1  C   UNL     1       6.518  -5.212  24.548  1.00  0.00     0.041 A 
HETATM    2  C   UNL     1       6.495  -5.275  25.716  1.00  0.00     0.076 A 
HETATM    3  N   UNL     1       5.292  -5.309  25.085  1.00  0.00    -0.248 NA
HETATM    4  C   UNL     1       4.175  -6.109  25.028  1.00  0.00     0.123 C 
ENDROOT
BRANCH   1   5
HETATM    5  C   UNL     1       7.610  -5.011  23.439  1.00  0.00     0.037 C 
BRANCH   5   6
HETATM    6  C   UNL     1       7.473  -3.898  22.868  1.00  0.00     0.067 C 
BRANCH   6   7
HETATM    7  N   UNL     1       8.348  -2.896  23.148  1.00  0.00    -0.226 N 
HETATM    8  C   UNL     1       8.502  -1.826  22.092  1.00  0.00     0.193 A 
HETATM    9  C   UNL     1       9.338  -2.336  23.243  1.00  0.00     0.304 A 
HETATM   10  O   UNL     1      10.151  -1.563  24.288  1.00  0.00    -0.174 OA
HETATM   11  O   UNL     1      10.809  -1.988  23.062  1.00  0.00    -0.174 OA
ENDBRANCH   6   7
ENDBRANCH   5   6
ENDBRANCH   1   5
BRANCH   2  12
HETATM   12  C   UNL     1       7.566  -5.158  26.625  1.00  0.00     0.129 C 
HETATM   13 CL   UNL     1       8.634  -3.782  26.575  1.00  0.00    -0.062 Cl
BRANCH  12  14
HETATM   14  N   UNL     1       7.644  -6.012  27.484  1.00  0.00    -0.323 N 
ATOM     15  HN  UNL     1       8.474  -6.603  27.511  1.00  0.00     0.169 HD
BRANCH  14  16
HETATM   16  C   UNL     1       6.656  -6.217  28.427  1.00  0.00     0.354 C 
HETATM   17  O   UNL     1       6.002  -7.212  28.539  1.00  0.00    -0.283 OA
ENDBRANCH  14  16
ENDBRANCH  12  14
ENDBRANCH   2  12
TORSDOF 6
ENDMDL
MODEL 8
REMARK VINA RESULT:    -4.728      3.983      5.536
REMARK INTER + INTRA:          -7.185
REMARK INTER:                  -6.482
REMARK INTRA:                  -0.704
REMARK UNBOUND:                -0.799
REMARK  6 active torsions:
REMARK  status: ('A' for Active; 'I' for Inactive)
REMARK    1  A    between atoms: C_1  and  N_16 
REMARK    2  A    between atoms: C_4  and  C_15 
REMARK    3  A    between atoms: C_5  and  C_9 
REMARK    4  A    between atoms: N_8  and  C_10 
REMARK    5  A    between atoms: C_9  and  N_16 
REMARK    6  A    between atoms: C_10  and  C_15 
ROOT
HETATM    1  C   UNL     1       7.967  -3.625  24.145  1.00  0.00     0.041 A 
HETATM    2  C   UNL     1       7.556  -4.719  24.200  1.00  0.00     0.076 A 
HETATM    3  N   UNL     1       8.444  -4.358  25.162  1.00  0.00    -0.248 NA
HETATM    4  C   UNL     1       8.530  -4.330  26.534  1.00  0.00     0.123 C 
ENDROOT
BRANCH   1   5
HETATM    5  C   UNL     1       7.829  -2.403  23.169  1.00  0.00     0.037 C 
BRANCH   5   6
HETATM    6  C   UNL     1       8.906  -2.196  22.551  1.00  0.00     0.067 C 
BRANCH   6   7
HETATM    7  N   UNL     1       8.943  -1.241  21.584  1.00  0.00    -0.226 N 
HETATM    8  C   UNL     1       9.902  -0.096  21.810  1.00  0.00     0.193 A 
HETATM    9  C   UNL     1       8.654  -0.313  20.986  1.00  0.00     0.304 A 
HETATM   10  O   UNL     1       8.343   0.100  19.543  1.00  0.00    -0.174 OA
HETATM   11  O   UNL     1       7.987   1.006  20.624  1.00  0.00    -0.174 OA
ENDBRANCH   6   7
ENDBRANCH   5   6
ENDBRANCH   1   5
BRANCH   2  12
HETATM   12  C   UNL     1       6.718  -5.391  23.287  1.00  0.00     0.129 C 
HETATM   13 CL   UNL     1       7.249  -5.718  21.660  1.00  0.00    -0.062 Cl
BRANCH  12  14
HETATM   14  N   UNL     1       5.660  -5.797  23.721  1.00  0.00    -0.323 N 
ATOM     15  HN  UNL     1       5.650  -6.675  24.240  1.00  0.00     0.169 HD
BRANCH  14  16
HETATM   16  C   UNL     1       4.469  -5.122  23.543  1.00  0.00     0.354 C 
HETATM   17  O   UNL     1       4.234  -4.357  22.655  1.00  0.00    -0.283 OA
ENDBRANCH  14  16
ENDBRANCH  12  14
ENDBRANCH   2  12
TORSDOF 6
ENDMDL
MODEL 9
REMARK VINA RESULT:    -4.652      3.340      5.762
REMARK INTER + INTRA:          -7.083
REMARK INTER:                  -6.559
REMARK INTRA:                  -0.524
REMARK UNBOUND:                -0.799
REMARK  6 active torsions:
REMARK  status: ('A' for Active; 'I' for Inactive)
REMARK    1  A    between atoms: C_1  and  N_16 
REMARK    2  A    between atoms: C_4  and  C_15 
REMARK    3  A    between atoms: C_5  and  C_9 
REMARK    4  A    between atoms: N_8  and  C_10 
REMARK    5  A    between atoms: C_9  and  N_16 
REMARK    6  A    between atoms: C_10  and  C_15 
ROOT
HETATM    1  C   UNL     1       8.357   1.991  21.841  1.00  0.00     0.041 A 
HETATM    2  C   UNL     1       7.315   1.660  21.428  1.00  0.00     0.076 A 
HETATM    3  N   UNL     1       7.327   2.763  22.220  1.00  0.00    -0.248 NA
HETATM    4  C   UNL     1       6.919   4.075  22.174  1.00  0.00     0.123 C 
ENDROOT
BRANCH   1   5
HETATM    5  C   UNL     1       9.828   1.444  21.798  1.00  0.00     0.037 C 
BRANCH   5   6
HETATM    6  C   UNL     1      10.413   1.636  22.895  1.00  0.00     0.067 C 
BRANCH   6   7
HETATM    7  N   UNL     1      11.154   0.632  23.437  1.00  0.00    -0.226 N 
HETATM    8  C   UNL     1      10.874   0.299  24.883  1.00  0.00     0.193 A 
HETATM    9  C   UNL     1      12.033   0.101  23.935  1.00  0.00     0.304 A 
HETATM   10  O   UNL     1      12.935  -1.120  23.723  1.00  0.00    -0.174 OA
HETATM   11  O   UNL     1      13.341  -0.107  24.686  1.00  0.00    -0.174 OA
ENDBRANCH   6   7
ENDBRANCH   5   6
ENDBRANCH   1   5
BRANCH   2  12
HETATM   12  C   UNL     1       6.989   0.509  20.681  1.00  0.00     0.129 C 
HETATM   13 CL   UNL     1       7.126  -1.080  21.384  1.00  0.00    -0.062 Cl
BRANCH  12  14
HETATM   14  N   UNL     1       6.534   0.694  19.572  1.00  0.00    -0.323 N 
ATOM     15  HN  UNL     1       6.785   1.550  19.078  1.00  0.00     0.169 HD
BRANCH  14  16
HETATM   16  C   UNL     1       5.692  -0.206  18.949  1.00  0.00     0.354 C 
HETATM   17  O   UNL     1       5.612  -0.375  17.768  1.00  0.00    -0.283 OA
ENDBRANCH  14  16
ENDBRANCH  12  14
ENDBRANCH   2  12
TORSDOF 6
ENDMDL
