stable:False satoms:19 tatoms:24 sratio:0.7916666666666666
  -OEChem-08052417493D

 24 24  0     0  0  0  0  0  0999 V2000
    9.8702   -2.1678   24.5751 C   0  0  0  0  0  0  0  0  0  0  0  0
    7.8787   -1.6098   23.5492 C   0  0  0  0  0  0  0  0  0  0  0  0
   10.2807    2.0851   24.6088 H   0  0  0  0  0  0  0  0  0  0  0  0
   11.0541    2.3344   23.8783 C   0  0  0  0  0  0  0  0  0  0  0  0
   12.5463   -1.3476   22.6191 O   0  0  0  0  0  0  0  0  0  0  0  0
   10.5318   -2.2997   25.4057 H   0  0  0  0  0  0  0  0  0  0  0  0
   12.5347    1.3936   22.9363 H   0  0  0  0  0  0  0  0  0  0  0  0
   12.8720   -0.9432   23.9579 C   0  0  0  0  0  0  0  0  0  0  0  0
    8.8977   -1.2353   22.7822 C   0  0  0  0  0  0  0  0  0  0  0  0
    8.6244   -4.5771   26.1300 Cl  0  0  0  0  0  0  0  0  0  0  0  0
   10.5903    2.8610   23.0566 H   0  0  0  0  0  0  0  0  0  0  0  0
    7.9426   -3.3054   25.3560 C   0  0  0  0  0  0  0  0  0  0  0  0
   12.6841   -1.7989   24.6368 H   0  0  0  0  0  0  0  0  0  0  0  0
    6.8447   -1.3965   23.4274 H   0  0  0  0  0  0  0  0  0  0  0  0
   13.9386   -0.7125   23.9831 H   0  0  0  0  0  0  0  0  0  0  0  0
    8.7118   -0.3542   21.3443 Cl  0  0  0  0  0  0  0  0  0  0  0  0
   11.2756   -1.6813   22.4215 C   0  0  0  0  0  2  0  0  0  0  0  0
   11.7041    1.1204   23.4216 N   0  3  0  0  0  0  0  0  0  0  0  0
   10.1743   -1.6917   23.2861 C   0  0  0  0  0  0  0  0  0  0  0  0
   12.0591    0.2128   24.3329 C   0  0  0  0  0  2  0  0  0  0  0  0
   11.7910    2.9852   24.3450 H   0  0  0  0  0  0  0  0  0  0  0  0
    8.4462   -2.4130   24.6051 C   0  0  0  0  0  0  0  0  0  0  0  0
    6.8782   -3.2083   25.5111 H   0  0  0  0  0  0  0  0  0  0  0  0
   11.0782    0.6710   22.7842 H   0  0  0  0  0  0  0  0  0  0  0  0
  8 15  1  0  0  0  0
  5  8  1  0  0  0  0
  8 13  1  0  0  0  0
  8 20  1  0  0  0  0
  5 17  1  0  0  0  0
  7 18  1  0  0  0  0
 18 20  1  0  0  0  0
  4 18  1  0  0  0  0
  4 21  1  0  0  0  0
 17 19  1  0  0  0  0
  4 11  1  0  0  0  0
  3  4  1  0  0  0  0
  1 19  2  0  0  0  0
  9 19  1  0  0  0  0
  1  6  1  0  0  0  0
  1 22  1  0  0  0  0
  9 16  1  0  0  0  0
  2  9  2  0  0  0  0
  2 22  1  0  0  0  0
 12 22  2  0  0  0  0
 10 12  1  0  0  0  0
  2 14  1  0  0  0  0
 12 23  1  0  0  0  0
 18 24  1  0  0  0  0
M  CHG  1  18   1
M  END
> <Chemgauss4>
-6.318382

$$$$
