stable:False satoms:19 tatoms:24 sratio:0.7916666666666666
  -OEChem-08052417493D

 24 24  0     0  0  0  0  0  0999 V2000
   -9.9022   -1.8002  -24.8260 C   0  0  0  0  0  0  0  0  0  0  0  0
   -7.9588   -1.1689  -23.7515 C   0  0  0  0  0  0  0  0  0  0  0  0
  -10.4825    2.4330  -24.8480 H   0  0  0  0  0  0  0  0  0  0  0  0
  -11.2818    2.6467  -24.1344 C   0  0  0  0  0  0  0  0  0  0  0  0
  -12.6532   -1.0995  -22.9284 O   0  0  0  0  0  0  0  0  0  0  0  0
  -10.5387   -1.9535  -25.6723 H   0  0  0  0  0  0  0  0  0  0  0  0
  -12.7446    1.6418  -23.2316 H   0  0  0  0  0  0  0  0  0  0  0  0
  -12.9641   -0.7006  -24.2724 C   0  0  0  0  0  0  0  0  0  0  0  0
   -9.0093   -0.8401  -23.0064 C   0  0  0  0  0  0  0  0  0  0  0  0
   -8.5252   -4.1484  -26.3637 Cl  0  0  0  0  0  0  0  0  0  0  0  0
  -10.8585    3.1866  -23.2996 H   0  0  0  0  0  0  0  0  0  0  0  0
   -7.9130   -2.8550  -25.5678 C   0  0  0  0  0  0  0  0  0  0  0  0
  -12.7265   -1.5440  -24.9510 H   0  0  0  0  0  0  0  0  0  0  0  0
   -6.9372   -0.9151  -23.6047 H   0  0  0  0  0  0  0  0  0  0  0  0
  -14.0383   -0.5127  -24.3211 H   0  0  0  0  0  0  0  0  0  0  0  0
   -8.8921    0.0392  -21.5602 Cl  0  0  0  0  0  0  0  0  0  0  0  0
  -11.3750   -1.3832  -22.7031 C   0  0  0  0  0  2  0  0  0  0  0  0
  -11.8928    1.4050  -23.6989 N   0  3  0  0  0  0  0  0  0  0  0  0
  -10.2547   -1.3443  -23.5421 C   0  0  0  0  0  0  0  0  0  0  0  0
  -12.1900    0.4893  -24.6227 C   0  0  0  0  0  2  0  0  0  0  0  0
  -12.0333    3.2702  -24.6148 H   0  0  0  0  0  0  0  0  0  0  0  0
   -8.4691   -1.9879  -24.8242 C   0  0  0  0  0  0  0  0  0  0  0  0
   -6.8501   -2.7144  -25.6976 H   0  0  0  0  0  0  0  0  0  0  0  0
  -11.2641    0.9773  -23.0494 H   0  0  0  0  0  0  0  0  0  0  0  0
  8 15  1  0  0  0  0
  5  8  1  0  0  0  0
  8 13  1  0  0  0  0
  8 20  1  0  0  0  0
  5 17  1  0  0  0  0
  7 18  1  0  0  0  0
 18 20  1  0  0  0  0
  4 18  1  0  0  0  0
  4 21  1  0  0  0  0
 17 19  1  0  0  0  0
  4 11  1  0  0  0  0
  3  4  1  0  0  0  0
  1 19  2  0  0  0  0
  9 19  1  0  0  0  0
  1  6  1  0  0  0  0
  1 22  1  0  0  0  0
  9 16  1  0  0  0  0
  2  9  2  0  0  0  0
  2 22  1  0  0  0  0
 12 22  2  0  0  0  0
 10 12  1  0  0  0  0
  2 14  1  0  0  0  0
 12 23  1  0  0  0  0
 18 24  1  0  0  0  0
M  CHG  1  18   1
M  END
> <Chemgauss4>
-6.224794

$$$$
