stable:False satoms:20 tatoms:24 sratio:0.8333333333333334
  -OEChem-07092417283D

 24 25  0     1  0  0  0  0  0999 V2000
    6.8303   -1.4629   23.0469 N   0  0  0  0  0  0  0  0  0  0  0  0
    9.1151   -2.9256   22.3361 N   0  0  0  0  0  0  0  0  0  0  0  0
   11.5918    0.7251   23.4355 H   0  0  0  0  0  0  0  0  0  0  0  0
   11.3718   -1.3388   22.1393 H   0  0  0  0  0  0  0  0  0  0  0  0
    8.3605   -4.8749   20.9182 H   0  0  0  0  0  0  0  0  0  0  0  0
    9.5015    0.9066   23.7999 C   0  0  0  0  0  0  0  0  0  0  0  0
    6.3537    1.9434   22.7882 C   0  0  0  0  0  0  0  0  0  0  0  0
    9.4313   -4.9291   21.0695 C   0  0  0  0  0  0  0  0  0  0  0  0
    5.4839    2.2455   23.3622 H   0  0  0  0  0  0  0  0  0  0  0  0
   10.6166    0.2855   23.3093 C   0  0  0  0  0  0  0  0  0  0  0  0
   10.5180   -0.9337   22.6566 C   0  0  0  0  0  0  0  0  0  0  0  0
    9.8968   -5.1494   20.1270 H   0  0  0  0  0  0  0  0  0  0  0  0
   11.2011   -3.4292   21.6048 O   0  0  0  0  0  0  0  0  0  0  0  0
    9.3307   -1.6341   22.6970 C   0  0  0  0  0  0  0  0  0  0  0  0
    8.1739   -3.2428   22.4880 H   0  0  0  0  0  0  0  0  0  0  0  0
    8.2310    0.3248   23.4804 C   0  0  0  0  0  0  0  0  0  0  0  0
    6.9060    0.6924   23.2684 C   0  0  3  0  0  0  0  0  0  0  0  0
    9.6557   -5.7379   21.7502 H   0  0  0  0  0  0  0  0  0  0  0  0
    8.1175   -0.9942   23.1292 C   0  0  0  0  0  0  0  0  0  0  0  0
    6.0551    1.7881   21.7585 H   0  0  0  0  0  0  0  0  0  0  0  0
    9.5895    1.8154   24.3712 H   0  0  0  0  0  0  0  0  0  0  0  0
    7.1033    2.7214   22.8261 H   0  0  0  0  0  0  0  0  0  0  0  0
   10.0301   -3.6784   21.6659 C   0  0  0  0  0  0  0  0  0  0  0  0
    6.1190   -0.4074   23.2683 O   0  0  0  0  0  0  0  0  0  0  0  0
  8 12  1  0  0  0  0
  5  8  1  0  0  0  0
  8 23  1  0  0  0  0
  8 18  1  0  0  0  0
 13 23  2  0  0  0  0
  2 23  1  0  0  0  0
  7 20  1  0  0  0  0
  4 11  1  0  0  0  0
  2 15  1  0  0  0  0
  2 14  1  0  0  0  0
 11 14  1  0  0  0  0
 10 11  2  0  0  0  0
 14 19  2  0  0  0  0
  7 22  1  0  0  0  0
  7 17  1  0  0  0  0
  7  9  1  0  0  0  0
  1 19  1  0  0  0  0
  1 24  1  0  0  0  0
 16 19  1  0  0  0  0
 17 24  1  0  0  0  0
 16 17  1  0  0  0  0
  3 10  1  0  0  0  0
  6 10  1  0  0  0  0
  6 16  2  0  0  0  0
  6 21  1  0  0  0  0
M  END
> <Shapegauss>
-83.289558

$$$$
