stable:False satoms:20 tatoms:24 sratio:0.8333333333333334
  -OEChem-08052416023D

 26 27  0     1  0  0  0  0  0999 V2000
   -9.2207    1.3313  -24.5504 N   0  0  0  0  0  0  0  0  0  0  0  0
   -8.8107   -1.2578  -23.5537 N   0  0  0  0  0  0  0  0  0  0  0  0
  -13.3286   -1.6926  -23.2890 H   0  0  0  0  0  0  0  0  0  0  0  0
  -11.1137   -2.3635  -22.4939 H   0  0  0  0  0  0  0  0  0  0  0  0
   -6.4169   -1.3979  -22.7603 H   0  0  0  0  0  0  0  0  0  0  0  0
  -12.6439    0.1349  -24.1413 C   0  0  0  0  0  0  0  0  0  0  0  0
  -11.8122    3.4819  -23.8049 C   0  0  0  0  0  0  0  0  0  0  0  0
   -6.8971   -2.3605  -22.6372 C   0  0  0  0  0  0  0  0  0  0  0  0
  -11.8396    4.2986  -24.5187 H   0  0  0  0  0  0  0  0  0  0  0  0
  -12.4811   -1.0627  -23.5016 C   0  0  0  0  0  0  0  0  0  0  0  0
  -11.2192   -1.5011  -23.1310 C   0  0  0  0  0  0  0  0  0  0  0  0
   -6.6512   -2.7407  -21.6632 H   0  0  0  0  0  0  0  0  0  0  0  0
   -9.1163   -3.1933  -22.4134 O   0  0  0  0  0  0  0  0  0  0  0  0
  -10.1032   -0.8434  -23.6041 C   0  0  0  0  0  0  0  0  0  0  0  0
   -8.1616   -0.6333  -23.9989 H   0  0  0  0  0  0  0  0  0  0  0  0
  -11.4878    0.9721  -24.2728 C   0  0  0  0  0  0  0  0  0  0  0  0
  -11.1407    2.3174  -24.3466 C   0  0  3  0  0  0  0  0  0  0  0  0
   -6.5089   -3.0504  -23.3729 H   0  0  0  0  0  0  0  0  0  0  0  0
  -10.2209    0.4554  -24.2103 C   0  0  0  0  0  0  0  0  0  0  0  0
  -11.2520    3.7991  -22.9337 H   0  0  0  0  0  0  0  0  0  0  0  0
  -13.6153    0.4378  -24.4942 H   0  0  0  0  0  0  0  0  0  0  0  0
  -12.8189    3.2264  -23.5049 H   0  0  0  0  0  0  0  0  0  0  0  0
   -8.3951   -2.3260  -22.8194 C   0  0  0  0  0  0  0  0  0  0  0  0
   -9.8558    2.4383  -24.7510 O   0  0  0  0  0  0  0  0  0  0  0  0
   -8.5590    1.4269  -23.8068 H   0  0  0  0  0  0  0  0  0  0  0  0
  -11.5571    2.4517  -25.3559 H   0  0  0  0  0  0  0  0  0  0  0  0
  8 12  1  0  0  0  0
  5  8  1  0  0  0  0
  8 23  1  0  0  0  0
  8 18  1  0  0  0  0
 13 23  2  0  0  0  0
  2 23  1  0  0  0  0
  7 20  1  0  0  0  0
  4 11  1  0  0  0  0
  2 15  1  0  0  0  0
  2 14  1  0  0  0  0
 11 14  1  0  0  0  0
 10 11  2  0  0  0  0
 14 19  2  0  0  0  0
  7 22  1  0  0  0  0
  7 17  1  0  0  0  0
  7  9  1  0  0  0  0
  1 19  1  0  0  0  0
  1 24  1  0  0  0  0
 16 19  1  0  0  0  0
 17 24  1  0  0  0  0
 16 17  1  0  0  0  0
  3 10  1  0  0  0  0
  6 10  1  0  0  0  0
  6 16  2  0  0  0  0
  6 21  1  0  0  0  0
  1 25  1  0  0  0  0
 17 26  1  0  0  0  0
M  END
> <Chemgauss4>
-6.599019

$$$$
