stable:False satoms:20 tatoms:24 sratio:0.8333333333333334
  -OEChem-08052416023D

 26 27  0     1  0  0  0  0  0999 V2000
    8.9191    1.2207   24.3838 N   0  0  0  0  0  0  0  0  0  0  0  0
    8.5091   -1.3684   23.3871 N   0  0  0  0  0  0  0  0  0  0  0  0
   13.0270   -1.8032   23.1223 H   0  0  0  0  0  0  0  0  0  0  0  0
   10.8121   -2.4741   22.3272 H   0  0  0  0  0  0  0  0  0  0  0  0
    6.1153   -1.5085   22.5936 H   0  0  0  0  0  0  0  0  0  0  0  0
   12.3423    0.0243   23.9746 C   0  0  0  0  0  0  0  0  0  0  0  0
   11.5106    3.3713   23.6382 C   0  0  0  0  0  0  0  0  0  0  0  0
    6.5955   -2.4712   22.4705 C   0  0  0  0  0  0  0  0  0  0  0  0
   11.5380    4.1880   24.3521 H   0  0  0  0  0  0  0  0  0  0  0  0
   12.1796   -1.1733   23.3349 C   0  0  0  0  0  0  0  0  0  0  0  0
   10.9176   -1.6117   22.9643 C   0  0  0  0  0  0  0  0  0  0  0  0
    6.3496   -2.8513   21.4965 H   0  0  0  0  0  0  0  0  0  0  0  0
    8.8147   -3.3039   22.2468 O   0  0  0  0  0  0  0  0  0  0  0  0
    9.8016   -0.9540   23.4374 C   0  0  0  0  0  0  0  0  0  0  0  0
    7.8600   -0.7439   23.8323 H   0  0  0  0  0  0  0  0  0  0  0  0
   11.1862    0.8615   24.1061 C   0  0  0  0  0  0  0  0  0  0  0  0
   10.8391    2.2068   24.1800 C   0  0  3  0  0  0  0  0  0  0  0  0
    6.2073   -3.1610   23.2062 H   0  0  0  0  0  0  0  0  0  0  0  0
    9.9193    0.3448   24.0436 C   0  0  0  0  0  0  0  0  0  0  0  0
   10.9504    3.6885   22.7670 H   0  0  0  0  0  0  0  0  0  0  0  0
   13.3137    0.3272   24.3275 H   0  0  0  0  0  0  0  0  0  0  0  0
   12.5173    3.1158   23.3382 H   0  0  0  0  0  0  0  0  0  0  0  0
    8.0935   -2.4366   22.6528 C   0  0  0  0  0  0  0  0  0  0  0  0
    9.5542    2.3277   24.5844 O   0  0  0  0  0  0  0  0  0  0  0  0
    8.2574    1.3163   23.6401 H   0  0  0  0  0  0  0  0  0  0  0  0
   11.2555    2.3411   25.1892 H   0  0  0  0  0  0  0  0  0  0  0  0
  8 12  1  0  0  0  0
  5  8  1  0  0  0  0
  8 23  1  0  0  0  0
  8 18  1  0  0  0  0
 13 23  2  0  0  0  0
  2 23  1  0  0  0  0
  7 20  1  0  0  0  0
  4 11  1  0  0  0  0
  2 15  1  0  0  0  0
  2 14  1  0  0  0  0
 11 14  1  0  0  0  0
 10 11  2  0  0  0  0
 14 19  2  0  0  0  0
  7 22  1  0  0  0  0
  7 17  1  0  0  0  0
  7  9  1  0  0  0  0
  1 19  1  0  0  0  0
  1 24  1  0  0  0  0
 16 19  1  0  0  0  0
 17 24  1  0  0  0  0
 16 17  1  0  0  0  0
  3 10  1  0  0  0  0
  6 10  1  0  0  0  0
  6 16  2  0  0  0  0
  6 21  1  0  0  0  0
  1 25  1  0  0  0  0
 17 26  1  0  0  0  0
M  END
> <Chemgauss4>
-6.570300

$$$$
