stable:False satoms:10 tatoms:24 sratio:0.4166666666666667
  -OEChem-07092417493D

 24 25  0     1  0  0  0  0  0999 V2000
    6.6133   -4.8260   26.4667 C   0  0  0  0  0  0  0  0  0  0  0  0
    8.1985   -4.3064   26.1229 S   0  0  0  0  0  0  0  0  0  0  0  0
    9.0180   -5.4791   26.0695 O   0  0  0  0  0  0  0  0  0  0  0  0
    8.6015   -3.4132   27.1781 O   0  0  0  0  0  0  0  0  0  0  0  0
    8.1022   -3.5703   24.6946 N   0  0  0  0  0  0  0  0  0  0  0  0
    8.9743   -2.9181   24.1529 C   0  0  0  0  0  0  0  0  0  0  0  0
    9.4266   -1.9574   23.4997 C   0  0  0  0  0  0  0  0  0  0  0  0
   10.3106   -1.1547   23.2297 C   0  0  1  0  0  0  0  0  0  0  0  0
   11.0588    0.0283   24.3046 C   0  0  0  0  0  0  0  0  0  0  0  0
   12.0848    0.2831   24.2216 C   0  0  0  0  0  0  0  0  0  0  0  0
   13.1525   -0.1800   23.4803 C   0  0  0  0  0  0  0  0  0  0  0  0
   12.7326   -1.3240   22.6044 C   0  0  0  0  0  0  0  0  0  0  0  0
   11.8100   -1.7545   22.5216 C   0  0  0  0  0  0  0  0  0  0  0  0
    9.7388   -0.5768   22.3460 C   0  0  0  0  0  0  0  0  0  0  0  0
    9.0822    0.0644   21.3831 C   0  0  0  0  0  0  0  0  0  0  0  0
    9.5561    1.0204   21.0216 O   0  0  0  0  0  0  0  0  0  0  0  0
    7.9293   -0.5754   21.0704 N   0  0  0  0  0  0  0  0  0  0  0  0
    7.1965   -0.1092   20.1828 C   0  0  0  0  0  0  0  0  0  0  0  0
    7.2170   -0.0207   18.8523 C   0  0  0  0  0  0  0  0  0  0  0  0
    6.7876    0.3114   17.7669 N   0  0  0  0  0  0  0  0  0  0  0  0
    5.6414    0.9034   18.2395 C   0  0  0  0  0  0  0  0  0  0  0  0
    5.2502    1.0095   19.3737 C   0  0  0  0  0  0  0  0  0  0  0  0
    5.7978    0.5759   20.5136 C   0  0  0  0  0  0  0  0  0  0  0  0
    5.3034    0.6792   22.0002 Cl  0  0  0  0  0  0  0  0  0  0  0  0
 20 21  2  0  0  0  0
 19 20  1  0  0  0  0
 21 22  1  0  0  0  0
 18 19  2  0  0  0  0
 22 23  2  0  0  0  0
 18 23  1  0  0  0  0
 17 18  1  0  0  0  0
 23 24  1  0  0  0  0
 15 16  2  0  0  0  0
 15 17  1  0  0  0  0
 14 15  1  0  0  0  0
  8 14  1  0  0  0  0
 12 13  1  0  0  0  0
  8 13  1  0  0  0  0
 11 12  2  0  0  0  0
  7  8  1  0  0  0  0
  8  9  1  0  0  0  0
 10 11  1  0  0  0  0
  6  7  2  3  0  0  0
  5  6  1  0  0  0  0
  9 10  2  0  0  0  0
  2  5  1  0  0  0  0
  2  3  2  0  0  0  0
  1  2  1  0  0  0  0
  2  4  2  0  0  0  0
M  END
> <Shapegauss>
-286.149658

$$$$
