stable:False satoms:10 tatoms:24 sratio:0.4166666666666667
  -OEChem-08062416303D

 42 43  0     1  0  0  0  0  0999 V2000
   -6.6442   -5.2714  -26.3055 C   0  0  0  0  0  0  0  0  0  0  0  0
   -8.2187   -4.6657  -26.0706 S   0  0  0  0  0  0  0  0  0  0  0  0
   -9.0943   -5.7967  -26.0089 O   0  0  0  0  0  0  0  0  0  0  0  0
   -8.5243   -3.8060  -27.1847 O   0  0  0  0  0  0  0  0  0  0  0  0
   -8.1614   -3.8683  -24.6735 N   0  0  0  0  0  0  0  0  0  0  0  0
   -9.0285   -3.1529  -24.2090 C   0  0  0  0  0  0  0  0  0  0  0  0
   -9.4679   -2.1432  -23.6245 C   0  0  0  0  0  0  0  0  0  0  0  0
  -10.3258   -1.2899  -23.4384 C   0  0  1  0  0  0  0  0  0  0  0  0
  -10.9609   -0.1264  -24.6035 C   0  0  0  0  0  0  0  0  0  0  0  0
  -11.9767    0.1777  -24.5871 C   0  0  0  0  0  0  0  0  0  0  0  0
  -13.1018   -0.2017  -23.8841 C   0  0  0  0  0  0  0  0  0  0  0  0
  -12.7820   -1.3209  -22.9368 C   0  0  0  0  0  0  0  0  0  0  0  0
  -11.8863   -1.7879  -22.7855 C   0  0  0  0  0  0  0  0  0  0  0  0
   -9.7735   -0.6972  -22.5520 C   0  0  0  0  0  0  0  0  0  0  0  0
   -9.1378   -0.0415  -21.5849 C   0  0  0  0  0  0  0  0  0  0  0  0
   -9.5840    0.9507  -21.2923 O   0  0  0  0  0  0  0  0  0  0  0  0
   -8.0341   -0.7169  -21.1826 N   0  0  0  0  0  0  0  0  0  0  0  0
   -7.3267   -0.2427  -20.2787 C   0  0  0  0  0  0  0  0  0  0  0  0
   -7.4115   -0.0909  -18.9565 C   0  0  0  0  0  0  0  0  0  0  0  0
   -7.0233    0.2724  -17.8655 N   0  0  0  0  0  0  0  0  0  0  0  0
   -5.8276    0.7895  -18.3020 C   0  0  0  0  0  0  0  0  0  0  0  0
   -5.3740    0.8245  -19.4172 C   0  0  0  0  0  0  0  0  0  0  0  0
   -5.8821    0.3627  -20.5643 C   0  0  0  0  0  0  0  0  0  0  0  0
   -5.3075    0.3737  -22.0254 Cl  0  0  0  0  0  0  0  0  0  0  0  0
   -6.6043   -5.8339  -27.2499 H   0  0  0  0  0  0  0  0  0  0  0  0
   -5.9319   -4.4343  -26.3470 H   0  0  0  0  0  0  0  0  0  0  0  0
   -6.3794   -5.9372  -25.4708 H   0  0  0  0  0  0  0  0  0  0  0  0
   -7.3526   -3.2841  -24.7417 H   0  0  0  0  0  0  0  0  0  0  0  0
   -9.9295   -3.7072  -24.4263 H   0  0  0  0  0  0  0  0  0  0  0  0
   -8.6910   -1.8914  -22.9178 H   0  0  0  0  0  0  0  0  0  0  0  0
  -10.2994    0.2856  -25.3512 H   0  0  0  0  0  0  0  0  0  0  0  0
  -12.1787    0.9744  -25.2876 H   0  0  0  0  0  0  0  0  0  0  0  0
  -14.0782    0.2452  -23.9998 H   0  0  0  0  0  0  0  0  0  0  0  0
  -13.6058   -1.6789  -22.3372 H   0  0  0  0  0  0  0  0  0  0  0  0
  -11.7499   -1.8001  -21.6941 H   0  0  0  0  0  0  0  0  0  0  0  0
  -12.0339   -2.8159  -23.1481 H   0  0  0  0  0  0  0  0  0  0  0  0
  -10.0992   -1.4603  -21.8297 H   0  0  0  0  0  0  0  0  0  0  0  0
  -10.5280    0.1014  -22.6068 H   0  0  0  0  0  0  0  0  0  0  0  0
   -7.7916   -1.5882  -21.6092 H   0  0  0  0  0  0  0  0  0  0  0  0
   -8.3615   -0.5504  -18.7272 H   0  0  0  0  0  0  0  0  0  0  0  0
   -5.2054    1.2273  -17.5354 H   0  0  0  0  0  0  0  0  0  0  0  0
   -4.4091    1.3020  -19.5037 H   0  0  0  0  0  0  0  0  0  0  0  0
 20 21  2  0  0  0  0
 19 20  1  0  0  0  0
 21 22  1  0  0  0  0
 18 19  2  0  0  0  0
 22 23  2  0  0  0  0
 18 23  1  0  0  0  0
 17 18  1  0  0  0  0
 23 24  1  0  0  0  0
 15 16  2  0  0  0  0
 15 17  1  0  0  0  0
 14 15  1  0  0  0  0
  8 14  1  0  0  0  0
 12 13  1  0  0  0  0
  8 13  1  0  0  0  0
 11 12  2  0  0  0  0
  7  8  1  0  0  0  0
  8  9  1  0  0  0  0
 10 11  1  0  0  0  0
  6  7  2  3  0  0  0
  5  6  1  0  0  0  0
  9 10  2  0  0  0  0
  2  5  1  0  0  0  0
  2  3  2  0  0  0  0
  1  2  1  0  0  0  0
  2  4  2  0  0  0  0
  1 25  1  0  0  0  0
  1 26  1  0  0  0  0
  1 27  1  0  0  0  0
  5 28  1  0  0  0  0
  6 29  1  0  0  0  0
  7 30  1  0  0  0  0
  9 31  1  0  0  0  0
 10 32  1  0  0  0  0
 11 33  1  0  0  0  0
 12 34  1  0  0  0  0
 13 35  1  0  0  0  0
 13 36  1  0  0  0  0
 14 37  1  0  0  0  0
 14 38  1  0  0  0  0
 17 39  1  0  0  0  0
 19 40  1  0  0  0  0
 21 41  1  0  0  0  0
 22 42  1  0  0  0  0
M  END
> <Chemgauss4>
-13.098166

$$$$
