stable:False satoms:10 tatoms:24 sratio:0.4166666666666667
  -OEChem-08062416303D

 42 43  0     1  0  0  0  0  0999 V2000
    6.3385   -5.1227   26.2625 C   0  0  0  0  0  0  0  0  0  0  0  0
    7.9320   -4.5603   26.0485 S   0  0  0  0  0  0  0  0  0  0  0  0
    8.7773   -5.7147   25.9998 O   0  0  0  0  0  0  0  0  0  0  0  0
    8.2456   -3.7077   27.1659 O   0  0  0  0  0  0  0  0  0  0  0  0
    7.9153   -3.7634   24.6500 N   0  0  0  0  0  0  0  0  0  0  0  0
    8.8077   -3.0724   24.1966 C   0  0  0  0  0  0  0  0  0  0  0  0
    9.2824   -2.0759   23.6172 C   0  0  0  0  0  0  0  0  0  0  0  0
   10.1655   -1.2464   23.4419 C   0  0  1  0  0  0  0  0  0  0  0  0
   10.8163   -0.0992   24.6146 C   0  0  0  0  0  0  0  0  0  0  0  0
   11.8400    0.1772   24.6116 C   0  0  0  0  0  0  0  0  0  0  0  0
   12.9638   -0.2335   23.9244 C   0  0  0  0  0  0  0  0  0  0  0  0
   12.6266   -1.3448   22.9738 C   0  0  0  0  0  0  0  0  0  0  0  0
   11.7206   -1.7875   22.8109 C   0  0  0  0  0  0  0  0  0  0  0  0
    9.6417   -0.6401   22.5476 C   0  0  0  0  0  0  0  0  0  0  0  0
    9.0372    0.0314   21.5713 C   0  0  0  0  0  0  0  0  0  0  0  0
    9.5142    1.0107   21.2839 O   0  0  0  0  0  0  0  0  0  0  0  0
    7.9210   -0.6143   21.1547 N   0  0  0  0  0  0  0  0  0  0  0  0
    7.2392   -0.1223   20.2408 C   0  0  0  0  0  0  0  0  0  0  0  0
    7.3459    0.0255   18.9198 C   0  0  0  0  0  0  0  0  0  0  0  0
    6.9826    0.3977   17.8233 N   0  0  0  0  0  0  0  0  0  0  0  0
    5.7956    0.9478   18.2430 C   0  0  0  0  0  0  0  0  0  0  0  0
    5.3281    0.9965   19.3519 C   0  0  0  0  0  0  0  0  0  0  0  0
    5.8078    0.5226   20.5062 C   0  0  0  0  0  0  0  0  0  0  0  0
    5.2140    0.5511   21.9594 Cl  0  0  0  0  0  0  0  0  0  0  0  0
    6.2705   -5.6826   27.2069 H   0  0  0  0  0  0  0  0  0  0  0  0
    5.6487   -4.2664   26.2936 H   0  0  0  0  0  0  0  0  0  0  0  0
    6.0670   -5.7821   25.4250 H   0  0  0  0  0  0  0  0  0  0  0  0
    7.1219   -3.1574   24.7066 H   0  0  0  0  0  0  0  0  0  0  0  0
    9.6903   -3.6508   24.4267 H   0  0  0  0  0  0  0  0  0  0  0  0
    8.5223   -1.8040   22.8998 H   0  0  0  0  0  0  0  0  0  0  0  0
   10.1561    0.3317   25.3527 H   0  0  0  0  0  0  0  0  0  0  0  0
   12.0542    0.9691   25.3141 H   0  0  0  0  0  0  0  0  0  0  0  0
   13.9503    0.1869   24.0528 H   0  0  0  0  0  0  0  0  0  0  0  0
   13.4484   -1.7259   22.3858 H   0  0  0  0  0  0  0  0  0  0  0  0
   11.5987   -1.7974   21.7177 H   0  0  0  0  0  0  0  0  0  0  0  0
   11.8354   -2.8187   23.1764 H   0  0  0  0  0  0  0  0  0  0  0  0
    9.9562   -1.4128   21.8306 H   0  0  0  0  0  0  0  0  0  0  0  0
   10.4168    0.1377   22.6119 H   0  0  0  0  0  0  0  0  0  0  0  0
    7.6492   -1.4781   21.5788 H   0  0  0  0  0  0  0  0  0  0  0  0
    8.2862   -0.4600   18.7039 H   0  0  0  0  0  0  0  0  0  0  0  0
    5.1961    1.4013   17.4676 H   0  0  0  0  0  0  0  0  0  0  0  0
    4.3755    1.5002   19.4249 H   0  0  0  0  0  0  0  0  0  0  0  0
 20 21  2  0  0  0  0
 19 20  1  0  0  0  0
 21 22  1  0  0  0  0
 18 19  2  0  0  0  0
 22 23  2  0  0  0  0
 18 23  1  0  0  0  0
 17 18  1  0  0  0  0
 23 24  1  0  0  0  0
 15 16  2  0  0  0  0
 15 17  1  0  0  0  0
 14 15  1  0  0  0  0
  8 14  1  0  0  0  0
 12 13  1  0  0  0  0
  8 13  1  0  0  0  0
 11 12  2  0  0  0  0
  7  8  1  0  0  0  0
  8  9  1  0  0  0  0
 10 11  1  0  0  0  0
  6  7  2  3  0  0  0
  5  6  1  0  0  0  0
  9 10  2  0  0  0  0
  2  5  1  0  0  0  0
  2  3  2  0  0  0  0
  1  2  1  0  0  0  0
  2  4  2  0  0  0  0
  1 25  1  0  0  0  0
  1 26  1  0  0  0  0
  1 27  1  0  0  0  0
  5 28  1  0  0  0  0
  6 29  1  0  0  0  0
  7 30  1  0  0  0  0
  9 31  1  0  0  0  0
 10 32  1  0  0  0  0
 11 33  1  0  0  0  0
 12 34  1  0  0  0  0
 13 35  1  0  0  0  0
 13 36  1  0  0  0  0
 14 37  1  0  0  0  0
 14 38  1  0  0  0  0
 17 39  1  0  0  0  0
 19 40  1  0  0  0  0
 21 41  1  0  0  0  0
 22 42  1  0  0  0  0
M  END
> <Chemgauss4>
-13.296494

$$$$
