stable:False satoms:16 tatoms:24 sratio:0.6666666666666666
  -OEChem-07092417363D

 24 24  0     1  0  0  0  0  0999 V2000
    7.4473   -4.3132   24.9908 O   0  5  0  0  0  0  0  0  0  0  0  0
    8.6897   -4.5214   24.7584 C   0  0  0  0  0  0  0  0  0  0  0  0
    9.2825   -5.5733   25.1318 O   0  0  0  0  0  0  0  0  0  0  0  0
    8.5664   -0.3431   25.6290 Cl  0  0  0  0  0  0  0  0  0  0  0  0
    7.7268   -1.9358   23.7055 H   0  0  0  0  0  0  0  0  0  0  0  0
    9.4200   -3.5236   24.0149 C   0  0  0  0  0  0  0  0  0  0  0  0
    8.6770   -1.5415   23.2436 C   0  0  1  0  0  0  0  0  0  0  0  0
    9.8259   -2.4205   23.2667 C   0  0  1  0  0  0  0  0  0  0  0  0
   10.1173   -0.0277   23.8504 H   0  0  0  0  0  0  0  0  0  0  0  0
    9.1307    1.7021   22.8245 H   0  0  0  0  0  0  0  0  0  0  0  0
   11.3496   -2.3144   23.1152 C   0  5  0  0  0  0  0  0  0  0  0  0
   12.1089   -1.7232   23.5524 H   0  0  0  0  0  0  0  0  0  0  0  0
   11.6684   -3.0786   22.4224 H   0  0  0  0  0  0  0  0  0  0  0  0
    9.0329   -0.1810   23.7593 C   0  0  1  0  0  0  0  0  0  0  0  0
    8.4031    0.8598   22.7191 C   0  0  0  0  0  0  0  0  0  0  0  0
    9.0233   -0.0734   20.8853 H   0  0  0  0  0  0  0  0  0  0  0  0
    9.0661   -1.9435   22.0500 O   0  0  0  0  0  0  0  0  0  0  0  0
    8.2472    0.5543   21.2768 C   0  3  0  0  0  0  0  0  0  0  0  0
    6.8841    0.3591   19.3582 C   0  0  0  0  0  0  0  0  0  0  0  0
    7.4800    0.5654   18.4448 H   0  0  0  0  0  0  0  0  0  0  0  0
    7.3439    1.1045   20.4483 O   0  0  0  0  0  0  0  0  0  0  0  0
    5.8527    0.7067   19.2094 H   0  0  0  0  0  0  0  0  0  0  0  0
    6.8788   -0.7145   19.5693 H   0  0  0  0  0  0  0  0  0  0  0  0
    7.3612    1.0866   23.0706 H   0  0  0  0  0  0  0  0  0  0  0  0
 19 20  1  0  0  0  0
 19 22  1  0  0  0  0
 19 23  1  0  0  0  0
 19 21  1  0  0  0  0
 18 21  1  0  0  0  0
 16 18  1  0  0  0  0
 15 18  1  0  0  0  0
  7 17  1  0  0  0  0
  8 17  1  0  0  0  0
 11 13  1  0  0  0  0
 10 15  1  0  0  0  0
 15 24  1  0  0  0  0
 14 15  1  0  0  0  0
  8 11  1  0  0  0  0
 11 12  1  0  0  0  0
  7  8  1  0  0  0  0
  5  7  1  0  0  0  0
  7 14  1  0  0  0  0
  6  8  1  0  0  0  0
  9 14  1  0  0  0  0
  4 14  1  0  0  0  0
  2  6  1  0  0  0  0
  1  2  1  0  0  0  0
  2  3  2  0  0  0  0
M  CHG  3   1  -1  11  -1  18   1
M  END
> <Shapegauss>
-130.410904

$$$$
