stable:False satoms:16 tatoms:24 sratio:0.6666666666666666
  -OEChem-08062401213D

 26 26  0     1  0  0  0  0  0999 V2000
   -8.0144   -5.7818  -26.4894 O   0  5  0  0  0  0  0  0  0  0  0  0
   -7.1588   -4.8738  -26.7800 C   0  0  0  0  0  0  0  0  0  0  0  0
   -6.2467   -5.0507  -27.6368 O   0  0  0  0  0  0  0  0  0  0  0  0
   -7.6509   -4.4103  -22.5640 Cl  0  0  0  0  0  0  0  0  0  0  0  0
   -9.1045   -4.0243  -24.7273 H   0  0  0  0  0  0  0  0  0  0  0  0
   -7.2710   -3.5959  -26.1196 C   0  0  0  0  0  0  0  0  0  0  0  0
   -8.7446   -2.9733  -24.5332 C   0  0  1  0  0  0  0  0  0  0  0  0
   -7.6574   -2.4943  -25.3589 C   0  0  1  0  0  0  0  0  0  0  0  0
   -7.6109   -2.0563  -22.9182 H   0  0  0  0  0  0  0  0  0  0  0  0
   -9.3690   -1.4795  -21.6555 H   0  0  0  0  0  0  0  0  0  0  0  0
   -6.6073   -1.3753  -25.3301 C   0  0  0  0  0  0  0  0  0  0  0  0
   -6.7308   -0.7803  -24.4132 H   0  0  0  0  0  0  0  0  0  0  0  0
   -5.5999   -1.8166  -25.3478 H   0  0  0  0  0  0  0  0  0  0  0  0
   -8.4614   -2.7327  -23.0822 C   0  0  1  0  0  0  0  0  0  0  0  0
   -9.8028   -2.1077  -22.4723 C   0  0  0  0  0  0  0  0  0  0  0  0
   -9.0803   -1.9843  -25.3374 O   0  0  0  0  0  0  0  0  0  0  0  0
  -10.7272   -1.2657  -23.2688 C   0  0  0  0  0  2  0  0  0  0  0  0
  -12.8874   -0.8314  -24.1185 C   0  0  0  0  0  0  0  0  0  0  0  0
  -13.0301    0.2606  -24.2568 H   0  0  0  0  0  0  0  0  0  0  0  0
  -12.0411   -1.1042  -23.0393 O   0  0  0  0  0  0  0  0  0  0  0  0
  -13.8432   -1.2931  -23.8354 H   0  0  0  0  0  0  0  0  0  0  0  0
  -12.5262   -1.2841  -25.0468 H   0  0  0  0  0  0  0  0  0  0  0  0
  -10.4371   -2.9662  -22.1241 H   0  0  0  0  0  0  0  0  0  0  0  0
   -7.2008   -3.0211  -27.0548 H   0  0  0  0  0  0  0  0  0  0  0  0
   -6.2762   -3.6633  -25.6551 H   0  0  0  0  0  0  0  0  0  0  0  0
   -6.7388   -0.7266  -26.2087 H   0  0  0  0  0  0  0  0  0  0  0  0
 18 19  1  0  0  0  0
 18 21  1  0  0  0  0
 18 22  1  0  0  0  0
 18 20  1  0  0  0  0
 17 20  1  0  0  0  0
 15 17  1  0  0  0  0
  7 16  1  0  0  0  0
  8 16  1  0  0  0  0
 11 13  1  0  0  0  0
 10 15  1  0  0  0  0
 15 23  1  0  0  0  0
 14 15  1  0  0  0  0
  8 11  1  0  0  0  0
 11 12  1  0  0  0  0
  7  8  1  0  0  0  0
  5  7  1  0  0  0  0
  7 14  1  0  0  0  0
  6  8  1  0  0  0  0
  9 14  1  0  0  0  0
  4 14  1  0  0  0  0
  2  6  1  0  0  0  0
  1  2  1  0  0  0  0
  2  3  2  0  0  0  0
  6 24  1  0  0  0  0
  6 25  1  0  0  0  0
 11 26  1  0  0  0  0
M  CHG  1   1  -1
M  END
> <Chemgauss4>
-5.607063

$$$$
