stable:False satoms:9 tatoms:24 sratio:0.375
  -OEChem-07092417413D

 24 24  0     0  0  0  0  0  0999 V2000
    6.5177   -4.8562   26.5146 Cl  0  0  0  0  0  0  0  0  0  0  0  0
    8.2926   -4.4131   26.1340 S   0  0  0  0  0  0  0  0  0  0  0  0
    9.0065   -5.6485   26.0292 O   0  0  0  0  0  0  0  0  0  0  0  0
    8.7452   -3.5605   27.1620 O   0  0  0  0  0  0  0  0  0  0  0  0
    8.1105   -3.6476   24.7491 N   0  0  0  0  0  0  0  0  0  0  0  0
    8.9824   -2.9359   24.2947 C   0  0  0  0  0  0  0  0  0  0  0  0
    9.5691   -2.1672   23.7281 C   0  0  0  0  0  0  0  0  0  0  0  0
   10.3419   -1.3662   22.9585 C   0  0  0  0  0  0  0  0  0  0  0  0
   11.3605    0.3620   24.3183 C   0  0  0  0  0  0  0  0  0  0  0  0
   12.2588    0.4815   24.4211 N   0  3  0  0  0  0  0  0  0  0  0  0
   13.0129   -0.2485   23.6194 C   0  0  0  0  0  0  0  0  0  0  0  0
   12.6411   -1.0804   23.0183 C   0  0  0  0  0  0  0  0  0  0  0  0
   11.6171   -1.6488   22.7776 C   0  0  0  0  0  0  0  0  0  0  0  0
    9.7898   -0.5014   22.2047 C   0  0  0  0  0  0  0  0  0  0  0  0
    9.0404    0.1124   21.2792 C   0  0  0  0  0  0  0  0  0  0  0  0
    9.4885    1.0736   20.7089 O   0  0  0  0  0  0  0  0  0  0  0  0
    7.8458   -0.4985   21.1294 N   0  0  0  0  0  0  0  0  0  0  0  0
    7.0782   -0.0137   20.1929 C   0  0  0  0  0  0  0  0  0  0  0  0
    7.1688    0.0290   18.8566 C   0  0  0  0  0  0  0  0  0  0  0  0
    6.7010    0.2863   17.7695 N   0  0  0  0  0  0  0  0  0  0  0  0
    5.5836    0.8355   18.1396 C   0  0  0  0  0  0  0  0  0  0  0  0
    5.2777    0.8893   19.3280 C   0  0  0  0  0  0  0  0  0  0  0  0
    5.7684    0.5613   20.4947 C   0  0  0  0  0  0  0  0  0  0  0  0
    5.3855    0.6658   21.4683 H   0  0  0  0  0  0  0  0  0  0  0  0
 20 21  2  0  0  0  0
 19 20  1  0  0  0  0
 21 22  1  0  0  0  0
 18 19  2  0  0  0  0
 22 23  2  0  0  0  0
 18 23  1  0  0  0  0
 17 18  1  0  0  0  0
 23 24  1  0  0  0  0
 15 16  2  0  0  0  0
 15 17  1  0  0  0  0
 14 15  1  0  0  0  0
  8 14  2  3  0  0  0
  8 13  1  0  0  0  0
 12 13  2  0  0  0  0
  7  8  1  0  0  0  0
 11 12  1  0  0  0  0
 10 11  1  0  0  0  0
  6  7  3  0  0  0  0
  5  6  1  0  0  0  0
  9 10  1  0  0  0  0
  2  5  1  0  0  0  0
  2  3  2  0  0  0  0
  1  2  1  0  0  0  0
  2  4  2  0  0  0  0
M  CHG  1  10   1
M  END
> <Shapegauss>
-283.358643

$$$$
