stable:False satoms:9 tatoms:24 sratio:0.375
  -OEChem-08062409243D

 39 39  0     0  0  0  0  0  0999 V2000
    6.4168   -5.5815   26.1577 Cl  0  0  0  0  0  0  0  0  0  0  0  0
    8.1904   -5.0865   25.8401 S   0  0  0  0  0  0  0  0  0  0  0  0
    8.9227   -6.3001   25.6462 O   0  0  0  0  0  0  0  0  0  0  0  0
    8.6172   -4.3143   26.9402 O   0  0  0  0  0  0  0  0  0  0  0  0
    8.0164   -4.2137   24.5191 N   0  0  0  0  0  0  0  0  0  0  0  0
    8.8844   -3.4564   24.1365 C   0  0  0  0  0  0  0  0  0  0  0  0
    9.4679   -2.6370   23.6425 C   0  0  0  0  0  0  0  0  0  0  0  0
   10.2399   -1.7665   22.9515 C   0  0  0  0  0  0  0  0  0  0  0  0
   11.2159   -0.1413   24.4612 C   0  0  0  0  0  0  0  0  0  0  0  0
   12.1110   -0.0190   24.5864 N   0  3  0  0  0  0  0  0  0  0  0  0
   12.8859   -0.6720   23.7394 C   0  0  0  0  0  0  0  0  0  0  0  0
   12.5339   -1.4572   23.0677 C   0  0  0  0  0  0  0  0  0  0  0  0
   11.5212   -2.0172   22.7669 C   0  0  0  0  0  0  0  0  0  0  0  0
    9.6860   -0.8505   22.2621 C   0  0  0  0  0  0  0  0  0  0  0  0
    8.9408   -0.1734   21.3784 C   0  0  0  0  0  0  0  0  0  0  0  0
    9.3831    0.8365   20.8943 O   0  0  0  0  0  0  0  0  0  0  0  0
    7.7569   -0.7853   21.1623 N   0  0  0  0  0  0  0  0  0  0  0  0
    6.9953   -0.2360   20.2570 C   0  0  0  0  0  0  0  0  0  0  0  0
    7.1034   -0.0841   18.9300 C   0  0  0  0  0  0  0  0  0  0  0  0
    6.6468    0.2545   17.8605 N   0  0  0  0  0  0  0  0  0  0  0  0
    5.5169    0.7576   18.2575 C   0  0  0  0  0  0  0  0  0  0  0  0
    5.1943    0.7110   19.4417 C   0  0  0  0  0  0  0  0  0  0  0  0
    5.6737    0.2959   20.5851 C   0  0  0  0  0  0  0  0  0  0  0  0
    5.2763    0.3163   21.5583 H   0  0  0  0  0  0  0  0  0  0  0  0
    7.1973   -3.6566   24.6559 H   0  0  0  0  0  0  0  0  0  0  0  0
   10.6577    0.4395   25.2103 H   0  0  0  0  0  0  0  0  0  0  0  0
   10.9373    0.1977   23.4525 H   0  0  0  0  0  0  0  0  0  0  0  0
   10.9731   -1.2086   24.5695 H   0  0  0  0  0  0  0  0  0  0  0  0
   12.3391   -0.3210   25.5121 H   0  0  0  0  0  0  0  0  0  0  0  0
   13.6726   -1.1358   24.3527 H   0  0  0  0  0  0  0  0  0  0  0  0
   13.3318    0.0965   23.0910 H   0  0  0  0  0  0  0  0  0  0  0  0
   13.3597   -1.8522   22.4948 H   0  0  0  0  0  0  0  0  0  0  0  0
   11.6948   -2.9335   22.2222 H   0  0  0  0  0  0  0  0  0  0  0  0
   10.1661   -0.0036   22.7296 H   0  0  0  0  0  0  0  0  0  0  0  0
    7.4819   -1.6058   21.6635 H   0  0  0  0  0  0  0  0  0  0  0  0
    8.0948   -0.4440   18.6976 H   0  0  0  0  0  0  0  0  0  0  0  0
    4.8556    1.2208   17.5402 H   0  0  0  0  0  0  0  0  0  0  0  0
    4.2156    1.1459   19.5812 H   0  0  0  0  0  0  0  0  0  0  0  0
   12.3066    0.9575   24.4967 H   0  0  0  0  0  0  0  0  0  0  0  0
 20 21  2  0  0  0  0
 19 20  1  0  0  0  0
 21 22  1  0  0  0  0
 18 19  2  0  0  0  0
 22 23  2  0  0  0  0
 18 23  1  0  0  0  0
 17 18  1  0  0  0  0
 23 24  1  0  0  0  0
 15 16  2  0  0  0  0
 15 17  1  0  0  0  0
 14 15  1  0  0  0  0
  8 14  2  3  0  0  0
  8 13  1  0  0  0  0
 12 13  2  0  0  0  0
  7  8  1  0  0  0  0
 11 12  1  0  0  0  0
 10 11  1  0  0  0  0
  6  7  3  0  0  0  0
  5  6  1  0  0  0  0
  9 10  1  0  0  0  0
  2  5  1  0  0  0  0
  2  3  2  0  0  0  0
  1  2  1  0  0  0  0
  2  4  2  0  0  0  0
  5 25  1  0  0  0  0
  9 26  1  0  0  0  0
  9 27  1  0  0  0  0
  9 28  1  0  0  0  0
 10 29  1  0  0  0  0
 11 30  1  0  0  0  0
 11 31  1  0  0  0  0
 12 32  1  0  0  0  0
 13 33  1  0  0  0  0
 14 34  1  0  0  0  0
 17 35  1  0  0  0  0
 19 36  1  0  0  0  0
 21 37  1  0  0  0  0
 22 38  1  0  0  0  0
 10 39  1  0  0  0  0
M  CHG  1  10   1
M  END
> <Chemgauss4>
-12.803775

$$$$
