stable:False satoms:9 tatoms:24 sratio:0.375
  -OEChem-08062409243D

 39 39  0     0  0  0  0  0  0999 V2000
   -5.9730   -5.1317  -26.0010 Cl  0  0  0  0  0  0  0  0  0  0  0  0
   -7.7840   -4.6967  -25.8501 S   0  0  0  0  0  0  0  0  0  0  0  0
   -8.4928   -5.9356  -25.7521 O   0  0  0  0  0  0  0  0  0  0  0  0
   -8.1256   -3.9137  -26.9721 O   0  0  0  0  0  0  0  0  0  0  0  0
   -7.7678   -3.8482  -24.5022 N   0  0  0  0  0  0  0  0  0  0  0  0
   -8.6927   -3.1258  -24.1926 C   0  0  0  0  0  0  0  0  0  0  0  0
   -9.3475   -2.3350  -23.7431 C   0  0  0  0  0  0  0  0  0  0  0  0
  -10.2106   -1.5032  -23.1151 C   0  0  0  0  0  0  0  0  0  0  0  0
  -11.0856    0.1247  -24.6827 C   0  0  0  0  0  0  0  0  0  0  0  0
  -11.9676    0.2229  -24.8930 N   0  3  0  0  0  0  0  0  0  0  0  0
  -12.8004   -0.4712  -24.1388 C   0  0  0  0  0  0  0  0  0  0  0  0
  -12.4909   -1.2600  -23.4506 C   0  0  0  0  0  0  0  0  0  0  0  0
  -11.4952   -1.7960  -23.0623 C   0  0  0  0  0  0  0  0  0  0  0  0
   -9.7562   -0.5865  -22.3574 C   0  0  0  0  0  0  0  0  0  0  0  0
   -9.1228    0.0931  -21.3921 C   0  0  0  0  0  0  0  0  0  0  0  0
   -9.6422    1.0785  -20.9349 O   0  0  0  0  0  0  0  0  0  0  0  0
   -7.9468   -0.4879  -21.0722 N   0  0  0  0  0  0  0  0  0  0  0  0
   -7.2953    0.0639  -20.0862 C   0  0  0  0  0  0  0  0  0  0  0  0
   -7.5372    0.1836  -18.7736 C   0  0  0  0  0  0  0  0  0  0  0  0
   -7.1983    0.5121  -17.6582 N   0  0  0  0  0  0  0  0  0  0  0  0
   -6.0517    1.0572  -17.9326 C   0  0  0  0  0  0  0  0  0  0  0  0
   -5.6136    1.0462  -19.0800 C   0  0  0  0  0  0  0  0  0  0  0  0
   -5.9655    0.6420  -20.2726 C   0  0  0  0  0  0  0  0  0  0  0  0
   -5.4757    0.6955  -21.2015 H   0  0  0  0  0  0  0  0  0  0  0  0
   -6.9574   -3.2641  -24.5472 H   0  0  0  0  0  0  0  0  0  0  0  0
  -10.4756    0.7381  -25.3621 H   0  0  0  0  0  0  0  0  0  0  0  0
  -10.9178    0.4497  -23.6453 H   0  0  0  0  0  0  0  0  0  0  0  0
  -10.7995   -0.9323  -24.7866 H   0  0  0  0  0  0  0  0  0  0  0  0
  -12.0944   -0.0654  -25.8421 H   0  0  0  0  0  0  0  0  0  0  0  0
  -13.5082   -0.9447  -24.8351 H   0  0  0  0  0  0  0  0  0  0  0  0
  -13.3318    0.2693  -23.5229 H   0  0  0  0  0  0  0  0  0  0  0  0
  -13.3558   -1.6919  -22.9692 H   0  0  0  0  0  0  0  0  0  0  0  0
  -11.6919   -2.7288  -22.5546 H   0  0  0  0  0  0  0  0  0  0  0  0
  -10.2150    0.2558  -22.8539 H   0  0  0  0  0  0  0  0  0  0  0  0
   -7.5982   -1.2887  -21.5592 H   0  0  0  0  0  0  0  0  0  0  0  0
   -8.5347   -0.2107  -18.6467 H   0  0  0  0  0  0  0  0  0  0  0  0
   -5.4788    1.5241  -17.1451 H   0  0  0  0  0  0  0  0  0  0  0  0
   -4.6403    1.5130  -19.1143 H   0  0  0  0  0  0  0  0  0  0  0  0
  -12.2020    1.1910  -24.8045 H   0  0  0  0  0  0  0  0  0  0  0  0
 20 21  2  0  0  0  0
 19 20  1  0  0  0  0
 21 22  1  0  0  0  0
 18 19  2  0  0  0  0
 22 23  2  0  0  0  0
 18 23  1  0  0  0  0
 17 18  1  0  0  0  0
 23 24  1  0  0  0  0
 15 16  2  0  0  0  0
 15 17  1  0  0  0  0
 14 15  1  0  0  0  0
  8 14  2  3  0  0  0
  8 13  1  0  0  0  0
 12 13  2  0  0  0  0
  7  8  1  0  0  0  0
 11 12  1  0  0  0  0
 10 11  1  0  0  0  0
  6  7  3  0  0  0  0
  5  6  1  0  0  0  0
  9 10  1  0  0  0  0
  2  5  1  0  0  0  0
  2  3  2  0  0  0  0
  1  2  1  0  0  0  0
  2  4  2  0  0  0  0
  5 25  1  0  0  0  0
  9 26  1  0  0  0  0
  9 27  1  0  0  0  0
  9 28  1  0  0  0  0
 10 29  1  0  0  0  0
 11 30  1  0  0  0  0
 11 31  1  0  0  0  0
 12 32  1  0  0  0  0
 13 33  1  0  0  0  0
 14 34  1  0  0  0  0
 17 35  1  0  0  0  0
 19 36  1  0  0  0  0
 21 37  1  0  0  0  0
 22 38  1  0  0  0  0
 10 39  1  0  0  0  0
M  CHG  1  10   1
M  END
> <Chemgauss4>
-13.016045

$$$$
