stable:False satoms:10 tatoms:24 sratio:0.4166666666666667
  -OEChem-07092417513D

 24 25  0     1  0  0  0  0  0999 V2000
    6.6071   -4.8534   26.4688 C   0  0  0  0  0  0  0  0  0  0  0  0
    8.1816   -4.3110   26.1194 S   0  0  0  0  0  0  0  0  0  0  0  0
    9.0319   -5.4850   26.0892 O   0  0  0  0  0  0  0  0  0  0  0  0
    8.5979   -3.4324   27.1853 O   0  0  0  0  0  0  0  0  0  0  0  0
    8.1014   -3.5890   24.6757 N   0  0  0  0  0  0  0  0  0  0  0  0
    8.9716   -2.9336   24.1175 C   0  0  0  0  0  0  0  0  0  0  0  0
    9.4112   -1.9552   23.4790 C   0  0  0  0  0  0  0  0  0  0  0  0
   10.2990   -1.0663   23.3005 C   0  0  2  0  0  0  0  0  0  0  0  0
   11.0258   -0.0245   24.2771 C   0  0  0  0  0  0  0  0  0  0  0  0
   12.1398    0.2638   24.2139 C   0  0  0  0  0  0  0  0  0  0  0  0
   13.1550   -0.0772   23.5101 C   0  0  0  0  0  0  0  0  0  0  0  0
   12.6832   -1.3288   22.5689 C   0  0  0  0  0  0  0  0  0  0  0  0
   11.8581   -1.7439   22.4328 C   0  0  0  0  0  0  0  0  0  0  0  0
    9.7120   -0.5803   22.3573 C   0  0  2  0  0  0  0  0  0  0  0  0
    9.0694    0.0482   21.3799 C   0  0  0  0  0  0  0  0  0  0  0  0
    9.5705    0.9836   20.9739 O   0  0  0  0  0  0  0  0  0  0  0  0
    7.9230   -0.5365   21.0678 N   0  0  0  0  0  0  0  0  0  0  0  0
    7.1999   -0.0639   20.1755 C   0  0  0  0  0  0  0  0  0  0  0  0
    7.2487   -0.0006   18.8648 C   0  0  0  0  0  0  0  0  0  0  0  0
    6.8021    0.2599   17.7919 N   0  0  0  0  0  0  0  0  0  0  0  0
    5.6144    0.8765   18.2509 C   0  0  0  0  0  0  0  0  0  0  0  0
    5.2524    0.9836   19.3884 C   0  0  0  0  0  0  0  0  0  0  0  0
    5.8435    0.5713   20.5542 C   0  0  0  0  0  0  0  0  0  0  0  0
    5.2846    0.7045   22.0540 C   0  0  0  0  0  0  0  0  0  0  0  0
 20 21  2  0  0  0  0
 19 20  1  0  0  0  0
 21 22  1  0  0  0  0
 18 19  2  0  0  0  0
 22 23  2  0  0  0  0
 18 23  1  0  0  0  0
 17 18  1  0  0  0  0
 23 24  1  0  0  0  0
 15 16  2  0  0  0  0
 15 17  1  0  0  0  0
 14 15  1  0  0  0  0
  8 14  1  0  0  0  0
  7 14  1  0  0  0  0
 12 13  2  0  0  0  0
 11 12  1  0  0  0  0
  7  8  1  0  0  0  0
  8  9  1  0  0  0  0
  6  7  2  3  0  0  0
 10 11  1  0  0  0  0
  5  6  1  0  0  0  0
  9 10  2  0  0  0  0
  2  5  1  0  0  0  0
  2  3  2  0  0  0  0
  1  2  1  0  0  0  0
  2  4  2  0  0  0  0
M  END
> <Shapegauss>
-284.371796

$$$$
