stable:False satoms:10 tatoms:24 sratio:0.4166666666666667
  -OEChem-08062416183D

 45 46  0     1  0  0  0  0  0999 V2000
   -5.9819   -5.2462  -25.7408 C   0  0  0  0  0  0  0  0  0  0  0  0
   -7.5897   -4.7020  -25.6209 S   0  0  0  0  0  0  0  0  0  0  0  0
   -8.4300   -5.8830  -25.5860 O   0  0  0  0  0  0  0  0  0  0  0  0
   -7.8868   -3.9244  -26.7992 O   0  0  0  0  0  0  0  0  0  0  0  0
   -7.6803   -3.8584  -24.2454 N   0  0  0  0  0  0  0  0  0  0  0  0
   -8.6130   -3.1722  -23.8485 C   0  0  0  0  0  0  0  0  0  0  0  0
   -9.1294   -2.1503  -23.3512 C   0  0  0  0  0  0  0  0  0  0  0  0
  -10.0376   -1.2641  -23.3524 C   0  0  2  0  0  0  0  0  0  0  0  0
  -10.6545   -0.3215  -24.4917 C   0  0  0  0  0  0  0  0  0  0  0  0
  -11.7703   -0.0472  -24.5807 C   0  0  0  0  0  0  0  0  0  0  0  0
  -12.8572   -0.3436  -23.9700 C   0  0  0  0  0  0  0  0  0  0  0  0
  -12.4882   -1.5025  -22.8765 C   0  0  0  0  0  0  0  0  0  0  0  0
  -11.6814   -1.8909  -22.6121 C   0  0  0  0  0  0  0  0  0  0  0  0
   -9.5659   -0.6899  -22.3942 C   0  0  2  0  0  0  0  0  0  0  0  0
   -9.0437    0.0301  -21.4082 C   0  0  0  0  0  0  0  0  0  0  0  0
   -9.5942    0.9883  -21.1443 O   0  0  0  0  0  0  0  0  0  0  0  0
   -7.9368   -0.5069  -20.9184 N   0  0  0  0  0  0  0  0  0  0  0  0
   -7.3239    0.0519  -19.9940 C   0  0  0  0  0  0  0  0  0  0  0  0
   -7.5231    0.2258  -18.7078 C   0  0  0  0  0  0  0  0  0  0  0  0
   -7.2041    0.5842  -17.6177 N   0  0  0  0  0  0  0  0  0  0  0  0
   -5.9757    1.1788  -17.9904 C   0  0  0  0  0  0  0  0  0  0  0  0
   -5.4864    1.1945  -19.0843 C   0  0  0  0  0  0  0  0  0  0  0  0
   -5.9373    0.6747  -20.2696 C   0  0  0  0  0  0  0  0  0  0  0  0
   -5.2110    0.6888  -21.7021 C   0  0  0  0  0  0  0  0  0  0  0  0
   -5.8601   -5.8308  -26.6646 H   0  0  0  0  0  0  0  0  0  0  0  0
   -5.3028   -4.3812  -25.7622 H   0  0  0  0  0  0  0  0  0  0  0  0
   -5.7433   -5.8785  -24.8729 H   0  0  0  0  0  0  0  0  0  0  0  0
   -6.9004   -3.2333  -24.2783 H   0  0  0  0  0  0  0  0  0  0  0  0
   -9.4684   -3.8059  -24.0307 H   0  0  0  0  0  0  0  0  0  0  0  0
  -10.9348   -1.7782  -22.9771 H   0  0  0  0  0  0  0  0  0  0  0  0
   -9.9772    0.0854  -25.2280 H   0  0  0  0  0  0  0  0  0  0  0  0
  -11.9465    0.6417  -25.3937 H   0  0  0  0  0  0  0  0  0  0  0  0
  -13.6018   -0.7224  -24.6857 H   0  0  0  0  0  0  0  0  0  0  0  0
  -13.2582    0.5443  -23.4592 H   0  0  0  0  0  0  0  0  0  0  0  0
  -13.3490   -1.8970  -22.3570 H   0  0  0  0  0  0  0  0  0  0  0  0
  -11.6750   -2.6584  -21.8523 H   0  0  0  0  0  0  0  0  0  0  0  0
  -10.7546   -1.5726  -23.0660 H   0  0  0  0  0  0  0  0  0  0  0  0
  -10.1564   -1.2943  -21.6900 H   0  0  0  0  0  0  0  0  0  0  0  0
   -7.5926   -1.3670  -21.2949 H   0  0  0  0  0  0  0  0  0  0  0  0
   -8.5154   -0.1725  -18.5559 H   0  0  0  0  0  0  0  0  0  0  0  0
   -5.4200    1.6709  -17.2059 H   0  0  0  0  0  0  0  0  0  0  0  0
   -4.5347    1.7012  -19.1462 H   0  0  0  0  0  0  0  0  0  0  0  0
   -4.5912   -0.2137  -21.8084 H   0  0  0  0  0  0  0  0  0  0  0  0
   -5.9702    0.7078  -22.4978 H   0  0  0  0  0  0  0  0  0  0  0  0
   -4.5742    1.5822  -21.7814 H   0  0  0  0  0  0  0  0  0  0  0  0
 20 21  2  0  0  0  0
 19 20  1  0  0  0  0
 21 22  1  0  0  0  0
 18 19  2  0  0  0  0
 22 23  2  0  0  0  0
 18 23  1  0  0  0  0
 17 18  1  0  0  0  0
 23 24  1  0  0  0  0
 15 16  2  0  0  0  0
 15 17  1  0  0  0  0
 14 15  1  0  0  0  0
  8 14  1  0  0  0  0
  7 14  1  0  0  0  0
 12 13  2  0  0  0  0
 11 12  1  0  0  0  0
  7  8  1  0  0  0  0
  8  9  1  0  0  0  0
  6  7  2  3  0  0  0
 10 11  1  0  0  0  0
  5  6  1  0  0  0  0
  9 10  2  0  0  0  0
  2  5  1  0  0  0  0
  2  3  2  0  0  0  0
  1  2  1  0  0  0  0
  2  4  2  0  0  0  0
  1 25  1  0  0  0  0
  1 26  1  0  0  0  0
  1 27  1  0  0  0  0
  5 28  1  0  0  0  0
  6 29  1  0  0  0  0
  8 30  1  0  0  0  0
  9 31  1  0  0  0  0
 10 32  1  0  0  0  0
 11 33  1  0  0  0  0
 11 34  1  0  0  0  0
 12 35  1  0  0  0  0
 13 36  1  0  0  0  0
 13 37  1  0  0  0  0
 14 38  1  0  0  0  0
 17 39  1  0  0  0  0
 19 40  1  0  0  0  0
 21 41  1  0  0  0  0
 22 42  1  0  0  0  0
 24 43  1  0  0  0  0
 24 44  1  0  0  0  0
 24 45  1  0  0  0  0
M  END
> <Chemgauss4>
-13.068534

$$$$
