stable:False satoms:10 tatoms:24 sratio:0.4166666666666667
  -OEChem-08062416183D

 45 46  0     1  0  0  0  0  0999 V2000
    5.8864   -5.3235   25.8405 C   0  0  0  0  0  0  0  0  0  0  0  0
    7.4941   -4.7793   25.7206 S   0  0  0  0  0  0  0  0  0  0  0  0
    8.3345   -5.9603   25.6857 O   0  0  0  0  0  0  0  0  0  0  0  0
    7.7912   -4.0017   26.8989 O   0  0  0  0  0  0  0  0  0  0  0  0
    7.5847   -3.9356   24.3450 N   0  0  0  0  0  0  0  0  0  0  0  0
    8.5175   -3.2494   23.9482 C   0  0  0  0  0  0  0  0  0  0  0  0
    9.0338   -2.2275   23.4509 C   0  0  0  0  0  0  0  0  0  0  0  0
    9.9421   -1.3414   23.4521 C   0  0  2  0  0  0  0  0  0  0  0  0
   10.5590   -0.3987   24.5914 C   0  0  0  0  0  0  0  0  0  0  0  0
   11.6748   -0.1245   24.6804 C   0  0  0  0  0  0  0  0  0  0  0  0
   12.7617   -0.4209   24.0697 C   0  0  0  0  0  0  0  0  0  0  0  0
   12.3926   -1.5798   22.9762 C   0  0  0  0  0  0  0  0  0  0  0  0
   11.5859   -1.9681   22.7118 C   0  0  0  0  0  0  0  0  0  0  0  0
    9.4703   -0.7672   22.4939 C   0  0  2  0  0  0  0  0  0  0  0  0
    8.9481   -0.0472   21.5079 C   0  0  0  0  0  0  0  0  0  0  0  0
    9.4986    0.9111   21.2440 O   0  0  0  0  0  0  0  0  0  0  0  0
    7.8412   -0.5842   21.0181 N   0  0  0  0  0  0  0  0  0  0  0  0
    7.2283   -0.0254   20.0937 C   0  0  0  0  0  0  0  0  0  0  0  0
    7.4275    0.1486   18.8074 C   0  0  0  0  0  0  0  0  0  0  0  0
    7.1086    0.5069   17.7173 N   0  0  0  0  0  0  0  0  0  0  0  0
    5.8802    1.1016   18.0900 C   0  0  0  0  0  0  0  0  0  0  0  0
    5.3909    1.1173   19.1840 C   0  0  0  0  0  0  0  0  0  0  0  0
    5.8417    0.5974   20.3693 C   0  0  0  0  0  0  0  0  0  0  0  0
    5.1154    0.6115   21.8018 C   0  0  0  0  0  0  0  0  0  0  0  0
    5.7645   -5.9080   26.7643 H   0  0  0  0  0  0  0  0  0  0  0  0
    5.2072   -4.4585   25.8618 H   0  0  0  0  0  0  0  0  0  0  0  0
    5.6477   -5.9557   24.9725 H   0  0  0  0  0  0  0  0  0  0  0  0
    6.8048   -3.3105   24.3780 H   0  0  0  0  0  0  0  0  0  0  0  0
    9.3728   -3.8831   24.1304 H   0  0  0  0  0  0  0  0  0  0  0  0
   10.8392   -1.8555   23.0767 H   0  0  0  0  0  0  0  0  0  0  0  0
    9.8816    0.0082   25.3276 H   0  0  0  0  0  0  0  0  0  0  0  0
   11.8510    0.5644   25.4933 H   0  0  0  0  0  0  0  0  0  0  0  0
   13.5063   -0.7997   24.7853 H   0  0  0  0  0  0  0  0  0  0  0  0
   13.1626    0.4670   23.5589 H   0  0  0  0  0  0  0  0  0  0  0  0
   13.2534   -1.9742   22.4567 H   0  0  0  0  0  0  0  0  0  0  0  0
   11.5794   -2.7357   21.9520 H   0  0  0  0  0  0  0  0  0  0  0  0
   10.6590   -1.6498   23.1657 H   0  0  0  0  0  0  0  0  0  0  0  0
   10.0609   -1.3715   21.7896 H   0  0  0  0  0  0  0  0  0  0  0  0
    7.4970   -1.4443   21.3946 H   0  0  0  0  0  0  0  0  0  0  0  0
    8.4198   -0.2497   18.6555 H   0  0  0  0  0  0  0  0  0  0  0  0
    5.3244    1.5936   17.3055 H   0  0  0  0  0  0  0  0  0  0  0  0
    4.4391    1.6239   19.2459 H   0  0  0  0  0  0  0  0  0  0  0  0
    4.4956   -0.2910   21.9081 H   0  0  0  0  0  0  0  0  0  0  0  0
    5.8747    0.6305   22.5975 H   0  0  0  0  0  0  0  0  0  0  0  0
    4.4787    1.5049   21.8811 H   0  0  0  0  0  0  0  0  0  0  0  0
 20 21  2  0  0  0  0
 19 20  1  0  0  0  0
 21 22  1  0  0  0  0
 18 19  2  0  0  0  0
 22 23  2  0  0  0  0
 18 23  1  0  0  0  0
 17 18  1  0  0  0  0
 23 24  1  0  0  0  0
 15 16  2  0  0  0  0
 15 17  1  0  0  0  0
 14 15  1  0  0  0  0
  8 14  1  0  0  0  0
  7 14  1  0  0  0  0
 12 13  2  0  0  0  0
 11 12  1  0  0  0  0
  7  8  1  0  0  0  0
  8  9  1  0  0  0  0
  6  7  2  3  0  0  0
 10 11  1  0  0  0  0
  5  6  1  0  0  0  0
  9 10  2  0  0  0  0
  2  5  1  0  0  0  0
  2  3  2  0  0  0  0
  1  2  1  0  0  0  0
  2  4  2  0  0  0  0
  1 25  1  0  0  0  0
  1 26  1  0  0  0  0
  1 27  1  0  0  0  0
  5 28  1  0  0  0  0
  6 29  1  0  0  0  0
  8 30  1  0  0  0  0
  9 31  1  0  0  0  0
 10 32  1  0  0  0  0
 11 33  1  0  0  0  0
 11 34  1  0  0  0  0
 12 35  1  0  0  0  0
 13 36  1  0  0  0  0
 13 37  1  0  0  0  0
 14 38  1  0  0  0  0
 17 39  1  0  0  0  0
 19 40  1  0  0  0  0
 21 41  1  0  0  0  0
 22 42  1  0  0  0  0
 24 43  1  0  0  0  0
 24 44  1  0  0  0  0
 24 45  1  0  0  0  0
M  END
> <Chemgauss4>
-13.026250

$$$$
