stable:False satoms:8 tatoms:24 sratio:0.3333333333333333
  -OEChem-07092417493D

 24 25  0     1  0  0  0  0  0999 V2000
    6.6154   -4.8508   26.4712 C   0  0  0  0  0  0  0  0  0  0  0  0
    8.1985   -4.3086   26.1166 S   0  0  0  0  0  0  0  0  0  0  0  0
    9.0491   -5.4639   26.0584 O   0  0  0  0  0  0  0  0  0  0  0  0
    8.6130   -3.4315   27.2000 O   0  0  0  0  0  0  0  0  0  0  0  0
    8.1520   -3.5481   24.6923 N   0  0  0  0  0  0  0  0  0  0  0  0
    8.9679   -2.9248   24.1282 C   0  0  0  0  0  0  0  0  0  0  0  0
    9.4316   -1.9356   23.4614 C   0  0  0  0  0  0  0  0  0  0  0  0
   10.3054   -1.0705   23.2781 C   0  0  2  0  0  0  0  0  0  0  0  0
   11.0336    0.0312   24.2937 C   0  0  0  0  0  0  0  0  0  0  0  0
   12.0697    0.3223   24.2554 C   0  0  0  0  0  0  0  0  0  0  0  0
   13.1541   -0.1658   23.4602 C   0  0  0  0  0  0  0  0  0  0  0  0
   12.7166   -1.2978   22.6305 C   0  0  0  0  0  0  0  0  0  0  0  0
   11.8223   -1.7212   22.5008 C   0  0  0  0  0  0  0  0  0  0  0  0
    9.7119   -0.5617   22.3565 C   0  0  2  0  0  0  0  0  0  0  0  0
    9.0503    0.0559   21.3877 C   0  0  0  0  0  0  0  0  0  0  0  0
    9.5136    1.0096   20.9789 O   0  0  0  0  0  0  0  0  0  0  0  0
    7.9437   -0.5896   21.0758 N   0  0  0  0  0  0  0  0  0  0  0  0
    7.1857   -0.1215   20.1693 C   0  0  0  0  0  0  0  0  0  0  0  0
    7.2866   -0.0378   18.8586 C   0  0  0  0  0  0  0  0  0  0  0  0
    6.7829    0.3288   17.7943 N   0  0  0  0  0  0  0  0  0  0  0  0
    5.6260    0.9132   18.2307 C   0  0  0  0  0  0  0  0  0  0  0  0
    5.2762    0.9463   19.3876 C   0  0  0  0  0  0  0  0  0  0  0  0
    5.8019    0.5054   20.5481 C   0  0  0  0  0  0  0  0  0  0  0  0
    5.2762    0.6263   21.9624 C   0  0  0  0  0  0  0  0  0  0  0  0
 20 21  2  0  0  0  0
 19 20  1  0  0  0  0
 21 22  1  0  0  0  0
 18 19  2  0  0  0  0
 22 23  2  0  0  0  0
 18 23  1  0  0  0  0
 17 18  1  0  0  0  0
 23 24  1  0  0  0  0
 15 16  2  0  0  0  0
 15 17  1  0  0  0  0
 14 15  1  0  0  0  0
  8 14  1  0  0  0  0
  7 14  1  0  0  0  0
 12 13  2  0  0  0  0
 11 12  1  0  0  0  0
  7  8  1  0  0  0  0
  8  9  1  0  0  0  0
 10 11  1  0  0  0  0
  6  7  2  3  0  0  0
  5  6  1  0  0  0  0
  9 10  2  0  0  0  0
  2  5  1  0  0  0  0
  2  3  2  0  0  0  0
  1  2  1  0  0  0  0
  2  4  2  0  0  0  0
M  END
> <Shapegauss>
-285.287048

$$$$
