
 OpenBabel07202414163D

 37 39  0  0  0  0  0  0  0  0999 V2000
   -0.0644   -5.6732    4.1135 C   0  0  0  0  0  0  0  0  0  0  0  0
   -0.7584   -4.8491    3.0671 C   0  0  0  0  0  0  0  0  0  0  0  0
   -1.8291   -4.0180    3.4318 C   0  0  0  0  0  0  0  0  0  0  0  0
   -2.5108   -3.2544    2.4754 C   0  0  0  0  0  0  0  0  0  0  0  0
   -2.1544   -3.3193    1.1236 C   0  0  0  0  0  0  0  0  0  0  0  0
   -1.0541   -4.1161    0.7660 C   0  0  0  0  0  0  0  0  0  0  0  0
   -0.3667   -4.8727    1.7230 C   0  0  0  0  0  0  0  0  0  0  0  0
    0.9723   -5.8249    1.1878 Cl  0  0  0  0  0  0  0  0  0  0  0  0
   -2.8393   -2.4999    0.0518 C   0  0  0  0  0  0  0  0  0  0  0  0
   -4.2980   -2.1596    0.3001 C   0  0  0  0  0  0  0  0  0  0  0  0
   -4.6371   -1.0477    0.6992 O   0  0  0  0  0  0  0  0  0  0  0  0
   -5.1675   -3.2099    0.0667 N   0  0  0  0  0  0  0  0  0  0  0  0
   -6.5731   -3.0756    0.2291 C   0  0  0  0  0  0  0  0  0  0  0  0
   -7.2513   -1.9737   -0.2891 C   0  0  0  0  0  0  0  0  0  0  0  0
   -8.5919   -1.7982   -0.2158 N   0  0  0  0  0  0  0  0  0  0  0  0
   -9.2828   -2.7501    0.4414 C   0  0  0  0  0  0  0  0  0  0  0  0
   -8.7169   -3.8848    1.0257 C   0  0  0  0  0  0  0  0  0  0  0  0
   -7.3174   -4.0700    0.9073 C   0  0  0  0  0  0  0  0  0  0  0  0
   -6.7484   -5.2008    1.5415 C   0  0  0  0  0  0  0  0  0  0  0  0
   -7.5332   -6.1073    2.2515 C   0  0  0  0  0  0  0  0  0  0  0  0
   -8.9073   -5.9184    2.3481 C   0  0  0  0  0  0  0  0  0  0  0  0
   -9.4976   -4.8173    1.7350 C   0  0  0  0  0  0  0  0  0  0  0  0
   -0.5388   -5.5600    5.0948 H   0  0  0  0  0  0  0  0  0  0  0  0
    0.9823   -5.3665    4.2160 H   0  0  0  0  0  0  0  0  0  0  0  0
   -0.1095   -6.7362    3.8548 H   0  0  0  0  0  0  0  0  0  0  0  0
   -2.1382   -3.9511    4.4738 H   0  0  0  0  0  0  0  0  0  0  0  0
   -3.3174   -2.6031    2.8119 H   0  0  0  0  0  0  0  0  0  0  0  0
   -0.7191   -4.1428   -0.2694 H   0  0  0  0  0  0  0  0  0  0  0  0
   -2.7894   -3.0319   -0.9071 H   0  0  0  0  0  0  0  0  0  0  0  0
   -2.2923   -1.5579   -0.0773 H   0  0  0  0  0  0  0  0  0  0  0  0
   -4.7751   -4.1397    0.1318 H   0  0  0  0  0  0  0  0  0  0  0  0
   -6.7307   -1.1937   -0.8349 H   0  0  0  0  0  0  0  0  0  0  0  0
  -10.3551   -2.5625    0.5015 H   0  0  0  0  0  0  0  0  0  0  0  0
   -5.6762   -5.3731    1.5245 H   0  0  0  0  0  0  0  0  0  0  0  0
   -7.0649   -6.9579    2.7473 H   0  0  0  0  0  0  0  0  0  0  0  0
   -9.5154   -6.6201    2.9103 H   0  0  0  0  0  0  0  0  0  0  0  0
  -10.5721   -4.6723    1.8331 H   0  0  0  0  0  0  0  0  0  0  0  0
  1  2  1  0  0  0  0
  1 23  1  0  0  0  0
  1 24  1  0  0  0  0
  1 25  1  0  0  0  0
  2  3  1  0  0  0  0
  2  7  2  0  0  0  0
  3  4  2  0  0  0  0
  3 26  1  0  0  0  0
  4  5  1  0  0  0  0
  4 27  1  0  0  0  0
  5  6  2  0  0  0  0
  5  9  1  0  0  0  0
  6  7  1  0  0  0  0
  6 28  1  0  0  0  0
  7  8  1  0  0  0  0
  9 10  1  0  0  0  0
  9 29  1  0  0  0  0
  9 30  1  0  0  0  0
 10 11  2  0  0  0  0
 10 12  1  0  0  0  0
 12 13  1  0  0  0  0
 12 31  1  0  0  0  0
 13 14  1  0  0  0  0
 13 18  2  0  0  0  0
 14 15  2  0  0  0  0
 14 32  1  0  0  0  0
 15 16  1  0  0  0  0
 16 17  2  0  0  0  0
 16 33  1  0  0  0  0
 17 18  1  0  0  0  0
 17 22  1  0  0  0  0
 18 19  1  0  0  0  0
 19 20  2  0  0  0  0
 19 34  1  0  0  0  0
 20 21  1  0  0  0  0
 20 35  1  0  0  0  0
 21 22  2  0  0  0  0
 21 36  1  0  0  0  0
 22 37  1  0  0  0  0
M  END
$$$$
