stable:False satoms:10 tatoms:24 sratio:0.4166666666666667
  -OEChem-07092417393D

 24 23  0     1  0  0  0  0  0999 V2000
    7.0848   -4.6661   26.1557 O   0  0  0  0  0  0  0  0  0  0  0  0
    8.4949   -4.2231   26.0742 S   0  0  0  0  0  0  0  0  0  0  0  0
    9.3952   -5.3337   25.9531 O   0  0  0  0  0  0  0  0  0  0  0  0
    8.8221   -3.3681   27.1458 O   0  5  0  0  0  0  0  0  0  0  0  0
    8.5805   -3.3944   24.7131 N   0  0  0  0  0  0  0  0  0  0  0  0
    8.2812   -3.6146   23.8311 H   0  0  0  0  0  0  0  0  0  0  0  0
    9.5149   -2.4148   24.4320 N   0  0  0  0  0  0  0  0  0  0  0  0
   10.0557   -1.8452   23.7156 C   0  0  0  0  0  0  0  0  0  0  0  0
   11.9620   -0.4725   23.5592 C   0  0  0  0  0  0  0  0  0  0  0  0
   11.9495   -0.4683   24.6348 H   0  0  0  0  0  0  0  0  0  0  0  0
   12.2586    0.4915   23.2570 H   0  0  0  0  0  0  0  0  0  0  0  0
   12.7242   -1.1127   23.0812 H   0  0  0  0  0  0  0  0  0  0  0  0
   10.7005   -0.9039   23.0426 C   0  0  0  0  0  0  0  0  0  0  0  0
    9.9964   -0.2777   22.1172 N   0  0  0  0  0  0  0  0  0  0  0  0
    8.8768   -0.4770   21.6990 N   0  0  0  0  0  0  0  0  0  0  0  0
    9.0742    1.0676   20.5722 H   0  0  0  0  0  0  0  0  0  0  0  0
    8.3280    0.1806   20.8268 N   0  0  0  0  0  0  0  0  0  0  0  0
    7.2623    0.2890   20.0362 C   0  0  3  0  0  0  0  0  0  0  0  0
    7.2351    0.2557   18.7057 C   0  0  0  0  0  0  0  0  0  0  0  0
    6.7548    0.4416   17.6365 N   0  0  0  0  0  0  0  0  0  0  0  0
    5.6265    0.7498   17.5602 O   0  0  0  0  0  0  0  0  0  0  0  0
    5.1825    0.9263   19.8063 H   0  0  0  0  0  0  0  0  0  0  0  0
    5.9522    0.5457   20.4997 C   0  5  3  0  0  0  0  0  0  0  0  0
    5.4712    0.3342   22.2416 Br  0  0  0  0  0  0  0  0  0  0  0  0
 20 21  1  0  0  0  0
 19 20  2  0  0  0  0
 18 19  1  0  0  0  0
 22 23  1  0  0  0  0
 18 23  1  0  0  0  0
 17 18  1  0  0  0  0
 23 24  1  0  0  0  0
 16 17  1  0  0  0  0
 15 17  1  0  0  0  0
 14 15  2  0  0  0  0
 13 14  1  0  0  0  0
  9 13  1  0  0  0  0
  8 13  2  3  0  0  0
  9 12  1  0  0  0  0
  9 11  1  0  0  0  0
  9 10  1  0  0  0  0
  7  8  1  0  0  0  0
  5  6  1  0  0  0  0
  5  7  1  0  0  0  0
  2  5  1  0  0  0  0
  2  3  2  0  0  0  0
  1  2  2  0  0  0  0
  2  4  1  0  0  0  0
M  CHG  2   4  -1  23  -1
M  END
> <Shapegauss>
-204.306335

$$$$
