stable:False satoms:10 tatoms:24 sratio:0.4166666666666667
  -OEChem-08062404313D

 30 29  0     1  0  0  0  0  0999 V2000
    6.7148   -4.1589   26.2568 O   0  0  0  0  0  0  0  0  0  0  0  0
    8.1732   -4.1244   26.0051 S   0  0  0  0  0  0  0  0  0  0  0  0
    8.7143   -5.4419   25.8318 O   0  0  0  0  0  0  0  0  0  0  0  0
    8.8436   -3.3841   26.9995 O   0  5  0  0  0  0  0  0  0  0  0  0
    8.3250   -3.3637   24.6104 N   0  0  0  0  0  0  0  0  0  0  0  0
    7.8771   -3.5001   23.7757 H   0  0  0  0  0  0  0  0  0  0  0  0
    9.4532   -2.6837   24.1904 N   0  0  0  0  0  0  0  0  0  0  0  0
   10.0430   -2.2924   23.3972 C   0  0  0  0  0  0  0  0  0  0  0  0
   12.2212   -1.5027   22.9797 C   0  0  0  0  0  0  0  0  0  0  0  0
   12.3346   -1.4858   24.0493 H   0  0  0  0  0  0  0  0  0  0  0  0
   12.7338   -0.6612   22.6085 H   0  0  0  0  0  0  0  0  0  0  0  0
   12.7183   -2.3330   22.4480 H   0  0  0  0  0  0  0  0  0  0  0  0
   10.8389   -1.5724   22.6208 C   0  0  0  0  0  0  0  0  0  0  0  0
   10.2316   -0.7838   21.7528 N   0  0  0  0  0  0  0  0  0  0  0  0
    9.0597   -0.6689   21.4669 N   0  0  0  0  0  0  0  0  0  0  0  0
    9.5416    0.7508   20.2640 H   0  0  0  0  0  0  0  0  0  0  0  0
    8.6154    0.1073   20.6336 N   0  0  0  0  0  0  0  0  0  0  0  0
    7.5364    0.4997   19.9596 C   0  0  3  0  0  0  0  0  0  0  0  0
    7.3477    0.4636   18.6423 C   0  0  0  0  0  0  0  0  0  0  0  0
    6.8167    0.7659   17.6249 N   0  0  0  0  0  0  0  0  0  0  0  0
    5.8152    1.3738   17.6591 O   0  0  0  0  0  0  0  0  0  0  0  0
    6.4661    2.1787   20.2843 H   0  0  0  0  0  0  0  0  0  0  0  0
    6.4094    1.1132   20.5518 C   0  0  3  0  0  0  0  0  0  0  0  0
    6.0932    1.0584   22.3427 Br  0  0  0  0  0  0  0  0  0  0  0  0
   10.1474   -3.2539   24.6297 H   0  0  0  0  0  0  0  0  0  0  0  0
    9.8372   -3.0757   22.6827 H   0  0  0  0  0  0  0  0  0  0  0  0
    7.0790   -0.4942   20.0729 H   0  0  0  0  0  0  0  0  0  0  0  0
    8.1045   -0.2339   18.3149 H   0  0  0  0  0  0  0  0  0  0  0  0
    5.5142    1.5392   16.7734 H   0  0  0  0  0  0  0  0  0  0  0  0
    5.5286    0.6611   20.0723 H   0  0  0  0  0  0  0  0  0  0  0  0
 20 21  1  0  0  0  0
 19 20  2  0  0  0  0
 18 19  1  0  0  0  0
 22 23  1  0  0  0  0
 18 23  1  0  0  0  0
 17 18  1  0  0  0  0
 23 24  1  0  0  0  0
 16 17  1  0  0  0  0
 15 17  1  0  0  0  0
 14 15  2  0  0  0  0
 13 14  1  0  0  0  0
  9 13  1  0  0  0  0
  8 13  2  3  0  0  0
  9 12  1  0  0  0  0
  9 11  1  0  0  0  0
  9 10  1  0  0  0  0
  7  8  1  0  0  0  0
  5  6  1  0  0  0  0
  5  7  1  0  0  0  0
  2  5  1  0  0  0  0
  2  3  2  0  0  0  0
  1  2  2  0  0  0  0
  2  4  1  0  0  0  0
  7 25  1  0  0  0  0
  8 26  1  0  0  0  0
 18 27  1  0  0  0  0
 19 28  1  0  0  0  0
 21 29  1  0  0  0  0
 23 30  1  0  0  0  0
M  CHG  1   4  -1
M  END
> <Chemgauss4>
-6.618480

$$$$
