stable:False satoms:12 tatoms:24 sratio:0.5
  -OEChem-08062412343D

 31 31  0     0  0  0  0  0  0999 V2000
  -13.6293    1.0407  -23.1898 O   0  0  0  0  0  0  0  0  0  0  0  0
  -12.7899   -0.1020  -23.9310 S   0  0  0  0  0  0  0  0  0  0  0  0
  -12.8897    0.1537  -25.3522 O   0  0  0  0  0  0  0  0  0  0  0  0
  -13.2595   -1.4147  -23.5892 O   0  5  0  0  0  0  0  0  0  0  0  0
  -11.2378    0.0943  -23.4656 N   0  0  0  0  0  0  0  0  0  0  0  0
  -10.3546   -0.6711  -23.5883 C   0  0  0  0  0  0  0  0  0  0  0  0
   -9.4886   -1.3132  -23.4178 C   0  0  0  0  0  0  0  0  0  0  0  0
   -8.5291   -2.3524  -23.3958 C   0  0  0  0  0  0  0  0  0  0  0  0
   -8.4376   -3.7376  -23.9593 C   0  0  0  0  0  0  0  0  0  0  0  0
   -8.7266   -4.6193  -23.5752 H   0  0  0  0  0  0  0  0  0  0  0  0
   -7.3618   -4.6222  -25.5025 H   0  0  0  0  0  0  0  0  0  0  0  0
   -7.7355   -3.6952  -25.1589 C   0  0  0  0  0  0  0  0  0  0  0  0
   -7.6738   -2.7183  -25.6096 H   0  0  0  0  0  0  0  0  0  0  0  0
   -7.7765   -1.8237  -22.6973 C   0  0  0  0  0  0  0  0  0  0  0  0
   -6.8976   -1.4425  -21.7504 C   0  0  0  0  0  0  0  0  0  0  0  0
   -6.0163   -2.1875  -21.6011 O   0  0  0  0  0  0  0  0  0  0  0  0
   -7.1947   -0.2913  -21.1139 N   0  0  0  0  0  0  0  0  0  0  0  0
   -6.3637    0.2295  -20.2514 C   0  0  0  0  0  0  0  0  0  0  0  0
   -5.1843    0.6354  -20.4724 N   0  0  0  0  0  0  0  0  0  0  0  0
   -3.7640    1.7573  -19.2565 N   0  0  0  0  0  0  0  0  0  0  0  0
   -4.7669    1.2973  -19.1377 C   0  0  0  0  0  0  0  0  0  0  0  0
   -5.8361    1.1075  -18.2308 N   0  3  0  0  0  0  0  0  0  0  0  0
   -6.7730    0.5271  -18.8534 C   0  0  0  0  0  0  0  0  0  0  0  0
   -7.7373    0.2659  -18.4594 H   0  0  0  0  0  0  0  0  0  0  0  0
  -11.2859    0.2745  -22.4831 H   0  0  0  0  0  0  0  0  0  0  0  0
   -7.7811   -0.8820  -23.2261 H   0  0  0  0  0  0  0  0  0  0  0  0
   -8.0617    0.1691  -21.3046 H   0  0  0  0  0  0  0  0  0  0  0  0
   -4.6488    0.5485  -21.3124 H   0  0  0  0  0  0  0  0  0  0  0  0
   -3.5043    2.2158  -18.4066 H   0  0  0  0  0  0  0  0  0  0  0  0
   -3.0943    1.0460  -19.4695 H   0  0  0  0  0  0  0  0  0  0  0  0
   -5.8493    1.3828  -17.2695 H   0  0  0  0  0  0  0  0  0  0  0  0
 20 21  1  0  0  0  0
 19 21  1  0  0  0  0
 21 22  2  0  0  0  0
 18 19  1  0  0  0  0
 22 23  1  0  0  0  0
 18 23  2  0  0  0  0
 17 18  1  0  0  0  0
 23 24  1  0  0  0  0
 15 16  2  0  0  0  0
 15 17  1  0  0  0  0
 14 15  1  0  0  0  0
  8 14  2  3  0  0  0
 12 13  1  0  0  0  0
 11 12  1  0  0  0  0
  9 12  2  0  0  0  0
  7  8  1  0  0  0  0
  8  9  1  0  0  0  0
  6  7  3  0  0  0  0
  9 10  1  0  0  0  0
  5  6  1  0  0  0  0
  2  5  1  0  0  0  0
  2  3  2  0  0  0  0
  1  2  2  0  0  0  0
  2  4  1  0  0  0  0
  5 25  1  0  0  0  0
 14 26  1  0  0  0  0
 17 27  1  0  0  0  0
 19 28  1  0  0  0  0
 20 29  1  0  0  0  0
 20 30  1  0  0  0  0
 22 31  1  0  0  0  0
M  CHG  2   4  -1  22   1
M  END
> <Chemgauss4>
-7.218048

$$$$
