stable:False satoms:12 tatoms:24 sratio:0.5
  -OEChem-08062412343D

 31 31  0     0  0  0  0  0  0999 V2000
   13.6058    0.8156   23.2017 O   0  0  0  0  0  0  0  0  0  0  0  0
   12.7664   -0.3272   23.9430 S   0  0  0  0  0  0  0  0  0  0  0  0
   12.8662   -0.0714   25.3641 O   0  0  0  0  0  0  0  0  0  0  0  0
   13.2360   -1.6398   23.6012 O   0  5  0  0  0  0  0  0  0  0  0  0
   11.2144   -0.1308   23.4775 N   0  0  0  0  0  0  0  0  0  0  0  0
   10.3311   -0.8963   23.6003 C   0  0  0  0  0  0  0  0  0  0  0  0
    9.4652   -1.5383   23.4298 C   0  0  0  0  0  0  0  0  0  0  0  0
    8.5057   -2.5775   23.4077 C   0  0  0  0  0  0  0  0  0  0  0  0
    8.4141   -3.9628   23.9712 C   0  0  0  0  0  0  0  0  0  0  0  0
    8.7032   -4.8444   23.5871 H   0  0  0  0  0  0  0  0  0  0  0  0
    7.3383   -4.8474   25.5145 H   0  0  0  0  0  0  0  0  0  0  0  0
    7.7121   -3.9203   25.1708 C   0  0  0  0  0  0  0  0  0  0  0  0
    7.6503   -2.9434   25.6216 H   0  0  0  0  0  0  0  0  0  0  0  0
    7.7531   -2.0488   22.7092 C   0  0  0  0  0  0  0  0  0  0  0  0
    6.8742   -1.6677   21.7624 C   0  0  0  0  0  0  0  0  0  0  0  0
    5.9928   -2.4127   21.6130 O   0  0  0  0  0  0  0  0  0  0  0  0
    7.1712   -0.5164   21.1258 N   0  0  0  0  0  0  0  0  0  0  0  0
    6.3403    0.0044   20.2634 C   0  0  0  0  0  0  0  0  0  0  0  0
    5.1609    0.4103   20.4843 N   0  0  0  0  0  0  0  0  0  0  0  0
    3.7406    1.5322   19.2684 N   0  0  0  0  0  0  0  0  0  0  0  0
    4.7434    1.0722   19.1496 C   0  0  0  0  0  0  0  0  0  0  0  0
    5.8126    0.8824   18.2427 N   0  3  0  0  0  0  0  0  0  0  0  0
    6.7495    0.3019   18.8653 C   0  0  0  0  0  0  0  0  0  0  0  0
    7.7139    0.0408   18.4713 H   0  0  0  0  0  0  0  0  0  0  0  0
   11.2625    0.0493   22.4951 H   0  0  0  0  0  0  0  0  0  0  0  0
    7.7576   -1.1072   23.2381 H   0  0  0  0  0  0  0  0  0  0  0  0
    8.0382   -0.0560   21.3165 H   0  0  0  0  0  0  0  0  0  0  0  0
    4.6253    0.3234   21.3243 H   0  0  0  0  0  0  0  0  0  0  0  0
    3.4808    1.9907   18.4185 H   0  0  0  0  0  0  0  0  0  0  0  0
    3.0708    0.8208   19.4814 H   0  0  0  0  0  0  0  0  0  0  0  0
    5.8259    1.1576   17.2814 H   0  0  0  0  0  0  0  0  0  0  0  0
 20 21  1  0  0  0  0
 19 21  1  0  0  0  0
 21 22  2  0  0  0  0
 18 19  1  0  0  0  0
 22 23  1  0  0  0  0
 18 23  2  0  0  0  0
 17 18  1  0  0  0  0
 23 24  1  0  0  0  0
 15 16  2  0  0  0  0
 15 17  1  0  0  0  0
 14 15  1  0  0  0  0
  8 14  2  3  0  0  0
 12 13  1  0  0  0  0
 11 12  1  0  0  0  0
  9 12  2  0  0  0  0
  7  8  1  0  0  0  0
  8  9  1  0  0  0  0
  6  7  3  0  0  0  0
  9 10  1  0  0  0  0
  5  6  1  0  0  0  0
  2  5  1  0  0  0  0
  2  3  2  0  0  0  0
  1  2  2  0  0  0  0
  2  4  1  0  0  0  0
  5 25  1  0  0  0  0
 14 26  1  0  0  0  0
 17 27  1  0  0  0  0
 19 28  1  0  0  0  0
 20 29  1  0  0  0  0
 20 30  1  0  0  0  0
 22 31  1  0  0  0  0
M  CHG  2   4  -1  22   1
M  END
> <Chemgauss4>
-7.647535

$$$$
