stable:False satoms:17 tatoms:24 sratio:0.7083333333333334
  -OEChem-07092417393D

 24 23  0     1  0  0  0  0  0999 V2000
    7.0178   -4.9357   26.6634 H   0  0  0  0  0  0  0  0  0  0  0  0
    7.9412   -4.3886   26.3780 C   0  0  0  0  0  0  0  0  0  0  0  0
    8.8059   -5.0669   26.3322 H   0  0  0  0  0  0  0  0  0  0  0  0
    8.1501   -3.5772   27.0720 H   0  0  0  0  0  0  0  0  0  0  0  0
    7.6321   -3.7396   24.7345 S   0  0  0  0  0  0  0  0  0  0  0  0
    8.8309   -2.8411   24.4076 C   0  0  0  0  0  0  0  0  0  0  0  0
    9.4805   -2.0597   23.9610 C   0  0  0  0  0  0  0  0  0  0  0  0
   10.3362   -1.1834   23.4227 C   0  0  3  0  0  0  0  0  0  0  0  0
   11.2999   -0.7334   24.1781 O   0  0  0  0  0  0  0  0  0  0  0  0
   13.2747   -0.6812   24.1032 H   0  0  0  0  0  0  0  0  0  0  0  0
   12.5415    0.2078   22.8249 H   0  0  0  0  0  0  0  0  0  0  0  0
   12.4872   -0.7137   23.3732 C   0  0  0  0  0  0  0  0  0  0  0  0
   12.5351   -1.5572   22.6986 H   0  0  0  0  0  0  0  0  0  0  0  0
   10.1023   -0.8360   22.1937 N   0  0  0  0  0  0  0  0  0  0  0  0
    9.5817   -0.0545   21.5260 C   0  0  0  0  0  0  0  0  0  0  0  0
    9.1300    0.7856   20.9374 O   0  0  0  0  0  0  0  0  0  0  0  0
    7.0900    0.0861   20.2169 N   0  0  0  0  0  0  0  0  0  0  0  0
    7.5437   -0.0502   20.9921 H   0  0  0  0  0  0  0  0  0  0  0  0
    7.4375   -0.1518   18.8266 N   0  0  0  0  0  0  0  0  0  0  0  0
    6.6927    0.3440   18.0742 N   0  0  0  0  0  0  0  0  0  0  0  0
    4.8892    1.3064   18.2308 H   0  0  0  0  0  0  0  0  0  0  0  0
    5.5891    0.8940   18.8701 C   0  0  0  0  0  0  0  0  0  0  0  0
    5.8310    0.7205   20.1709 C   0  0  0  0  0  0  0  0  0  0  0  0
    5.3639    0.9355   21.1088 H   0  0  0  0  0  0  0  0  0  0  0  0
 19 20  2  0  0  0  0
 20 22  1  0  0  0  0
 21 22  1  0  0  0  0
 17 19  1  0  0  0  0
 22 23  2  0  0  0  0
 17 23  1  0  0  0  0
 23 24  1  0  0  0  0
 17 18  1  0  0  0  0
 15 16  2  0  0  0  0
 14 15  1  0  0  0  0
  8 14  1  0  0  0  0
 12 13  1  0  0  0  0
 11 12  1  0  0  0  0
 10 12  1  0  0  0  0
  9 12  1  0  0  0  0
  7  8  1  0  0  0  0
  8  9  1  0  0  0  0
  6  7  3  0  0  0  0
  5  6  1  0  0  0  0
  2  5  1  0  0  0  0
  2  3  1  0  0  0  0
  1  2  1  0  0  0  0
  2  4  1  0  0  0  0
M  END
> <Shapegauss>
-190.195145

$$$$
