stable:False satoms:17 tatoms:24 sratio:0.7083333333333334
  -OEChem-07092417293D

 24 23  0     1  0  0  0  0  0999 V2000
   10.4557   -2.0060   20.1100 N   0  0  0  0  0  0  0  0  0  0  0  0
    7.0815   -1.8667   23.3120 O   0  0  0  0  0  0  0  0  0  0  0  0
    9.7519   -1.7881   20.9609 C   0  0  0  0  0  0  0  0  0  0  0  0
    8.5850    2.4868   25.5329 H   0  0  0  0  0  0  0  0  0  0  0  0
    9.1436   -4.8703   20.4054 H   0  0  0  0  0  0  0  0  0  0  0  0
    9.6460    0.2950   23.3588 C   0  0  0  0  0  0  0  0  0  0  0  0
    9.0885    2.0191   24.7098 C   0  0  0  0  0  0  0  0  0  0  0  0
    7.5970   -1.3606   22.3451 C   0  0  0  0  0  0  0  0  0  0  0  0
    8.1348   -3.4747   20.4827 H   0  0  0  0  0  0  0  0  0  0  0  0
    7.4424   -0.1358   20.7424 H   0  0  0  0  0  0  0  0  0  0  0  0
    8.6161    0.8858   24.0747 C   0  0  0  0  0  0  0  0  0  0  0  0
    8.6307   -5.4125   22.6095 H   0  0  0  0  0  0  0  0  0  0  0  0
    7.5981   -3.9774   22.7237 H   0  0  0  0  0  0  0  0  0  0  0  0
    6.9217   -0.5803   21.4623 N   0  0  0  0  0  0  0  0  0  0  0  0
    9.8397   -0.9565   23.0577 N   0  0  0  0  0  0  0  0  0  0  0  0
    7.6114    0.5270   24.1198 H   0  0  0  0  0  0  0  0  0  0  0  0
    8.5341   -4.2748   20.8999 N   0  0  0  0  0  0  0  0  0  0  0  0
   10.8240    3.3215   24.5190 H   0  0  0  0  0  0  0  0  0  0  0  0
    9.0720   -1.4088   22.1100 C   0  0  3  0  0  0  0  0  0  0  0  0
    9.3500   -3.8227   22.7603 H   0  0  0  0  0  0  0  0  0  0  0  0
   10.9114    1.4738   22.9524 S   0  0  0  0  0  0  0  0  0  0  0  0
    8.5275   -4.3739   22.3144 C   0  0  0  0  0  0  0  0  0  0  0  0
   10.2811    2.4672   24.1971 C   0  0  0  0  0  0  0  0  0  0  0  0
    5.9399   -0.4572   21.5359 H   0  0  0  0  0  0  0  0  0  0  0  0
  1  3  3  0  0  0  0
  5 17  1  0  0  0  0
  9 17  1  0  0  0  0
 10 14  1  0  0  0  0
 17 22  1  0  0  0  0
  3 19  1  0  0  0  0
 14 24  1  0  0  0  0
  8 14  1  0  0  0  0
  8 19  1  0  0  0  0
 15 19  1  0  0  0  0
 12 22  1  0  0  0  0
 13 22  1  0  0  0  0
 20 22  1  0  0  0  0
  2  8  2  0  0  0  0
  6 21  1  0  0  0  0
 21 23  1  0  0  0  0
  6 15  1  0  0  0  0
  6 11  2  0  0  0  0
 11 16  1  0  0  0  0
  7 11  1  0  0  0  0
 18 23  1  0  0  0  0
  7 23  2  0  0  0  0
  4  7  1  0  0  0  0
M  END
> <Shapegauss>
-104.708023

$$$$
