stable:False satoms:9 tatoms:24 sratio:0.375
  -OEChem-07092417453D

 24 25  0     1  0  0  0  0  0999 V2000
    6.5511   -4.8537   26.4635 C   0  0  0  0  0  0  0  0  0  0  0  0
    8.1907   -4.2964   26.0812 S   0  0  0  0  0  0  0  0  0  0  0  0
    9.0488   -5.4407   25.9608 O   0  0  0  0  0  0  0  0  0  0  0  0
    8.6048   -3.4130   27.1168 O   0  0  0  0  0  0  0  0  0  0  0  0
    8.0550   -3.5447   24.6524 N   0  0  0  0  0  0  0  0  0  0  0  0
    8.9064   -2.8576   24.1657 C   0  0  0  0  0  0  0  0  0  0  0  0
    9.4215   -1.9741   23.5777 C   0  0  0  0  0  0  0  0  0  0  0  0
   10.3364   -1.1486   23.2830 C   0  0  1  0  0  0  0  0  0  0  0  0
   11.0507   -0.0475   24.2517 C   0  0  0  0  0  0  0  0  0  0  0  0
   12.1174    0.2712   24.2386 C   0  0  0  0  0  0  0  0  0  0  0  0
   13.1231   -0.1985   23.4238 C   0  0  0  0  0  0  0  0  0  0  0  0
   12.7567   -1.2225   22.6458 C   0  0  0  0  0  0  0  0  0  0  0  0
   11.7783   -1.6995   22.5352 C   0  0  0  0  0  0  0  0  0  0  0  0
    9.7140   -0.5706   22.3671 C   0  0  0  0  0  0  0  0  0  0  0  0
    9.0719    0.0396   21.3997 C   0  0  0  0  0  0  0  0  0  0  0  0
    9.5906    0.9833   20.9985 O   0  0  0  0  0  0  0  0  0  0  0  0
    7.9173   -0.5856   21.1183 N   0  0  0  0  0  0  0  0  0  0  0  0
    7.2101   -0.1016   20.1957 C   0  0  0  0  0  0  0  0  0  0  0  0
    7.2354   -0.0158   18.8968 C   0  0  0  0  0  0  0  0  0  0  0  0
    6.7105    0.2901   17.7860 N   0  0  0  0  0  0  0  0  0  0  0  0
    5.6888    0.8128   18.2812 C   0  0  0  0  0  0  0  0  0  0  0  0
    5.2541    0.9738   19.4470 C   0  0  0  0  0  0  0  0  0  0  0  0
    5.8232    0.5984   20.5996 C   0  0  0  0  0  0  0  0  0  0  0  0
    5.4272    0.7111   21.8108 C   0  0  0  0  0  0  0  0  0  0  0  0
 20 21  2  0  0  0  0
 19 20  1  0  0  0  0
 21 22  1  0  0  0  0
 18 19  2  0  0  0  0
 22 23  2  0  0  0  0
 18 23  1  0  0  0  0
 17 18  1  0  0  0  0
 23 24  1  0  0  0  0
 15 16  2  0  0  0  0
 15 17  1  0  0  0  0
 14 15  1  0  0  0  0
  8 14  1  0  0  0  0
 12 13  1  0  0  0  0
  8 13  1  0  0  0  0
 11 12  2  0  0  0  0
  7  8  1  0  0  0  0
  8  9  1  0  0  0  0
 10 11  1  0  0  0  0
  6  7  3  0  0  0  0
  5  6  1  0  0  0  0
  9 10  2  0  0  0  0
  2  5  1  0  0  0  0
  2  3  2  0  0  0  0
  1  2  1  0  0  0  0
  2  4  2  0  0  0  0
M  END
> <Shapegauss>
-287.707581

$$$$
