REMARK  7 active torsions:
REMARK  status: ('A' for Active; 'I' for Inactive)
REMARK    1  A    between atoms: S_2  and  N_5 
REMARK    2  A    between atoms: N_5  and  C_7 
REMARK    3  A    between atoms: C_7  and  C_8 
REMARK    4  A    between atoms: C_8  and  C_9 
REMARK    5  A    between atoms: C_9  and  C_15 
REMARK    6  A    between atoms: C_15  and  C_16 
REMARK       I    between atoms: C_16  and  N_18 
REMARK    7  A    between atoms: N_18  and  C_20 
ROOT
HETATM    1  C   UNL     1      10.336  -1.149  23.283  1.00  0.00     0.068 C 
HETATM    2  C   UNL     1      11.051  -0.048  24.252  1.00  0.00     0.000 C 
HETATM    3  C   UNL     1      12.117   0.271  24.239  1.00  0.00    -0.002 C 
HETATM    4  C   UNL     1      13.123  -0.199  23.424  1.00  0.00    -0.001 C 
HETATM    5  C   UNL     1      12.757  -1.222  22.646  1.00  0.00    -0.002 C 
HETATM    6  C   UNL     1      11.778  -1.700  22.535  1.00  0.00     0.000 C 
ENDROOT
BRANCH   1   7
HETATM    7  C   UNL     1       9.421  -1.974  23.578  1.00  0.00     0.135 C 
BRANCH   7   8
HETATM    8  C   UNL     1       8.906  -2.858  24.166  1.00  0.00    -0.058 C 
BRANCH   8   9
HETATM    9  N   UNL     1       8.055  -3.545  24.652  1.00  0.00    -0.254 N 
ATOM     10  HN  UNL     1       7.186  -3.666  24.132  1.00  0.00     0.188 HD
BRANCH   9  11
HETATM   11  S   UNL     1       8.191  -4.296  26.081  1.00  0.00     0.233 S 
HETATM   12  C   UNL     1       6.551  -4.854  26.463  1.00  0.00     0.186 C 
HETATM   13  O   UNL     1       9.049  -5.441  25.961  1.00  0.00    -0.206 OA
HETATM   14  O   UNL     1       8.605  -3.413  27.117  1.00  0.00    -0.206 OA
ENDBRANCH   9  11
ENDBRANCH   8   9
ENDBRANCH   7   8
ENDBRANCH   1   7
BRANCH   1  15
HETATM   15  C   UNL     1       9.714  -0.571  22.367  1.00  0.00    -0.064 C 
BRANCH  15  16
HETATM   16  C   UNL     1       9.072   0.040  21.400  1.00  0.00     0.290 C 
HETATM   17  O   UNL     1       9.591   0.983  20.998  1.00  0.00    -0.259 OA
HETATM   18  N   UNL     1       7.917  -0.586  21.118  1.00  0.00    -0.315 N 
ATOM     19  HN  UNL     1       7.625  -1.419  21.630  1.00  0.00     0.170 HD
BRANCH  18  20
HETATM   20  C   UNL     1       7.210  -0.102  20.196  1.00  0.00     0.060 A 
HETATM   21  C   UNL     1       7.235  -0.016  18.897  1.00  0.00     0.117 A 
HETATM   22  N   UNL     1       6.710   0.290  17.786  1.00  0.00    -0.373 N 
HETATM   23  C   UNL     1       5.689   0.813  18.281  1.00  0.00     0.088 A 
ATOM     24  HN  UNL     1       7.015   0.156  16.822  1.00  0.00     0.164 HD
HETATM   25  C   UNL     1       5.254   0.974  19.447  1.00  0.00     0.030 A 
HETATM   26  C   UNL     1       5.823   0.598  20.600  1.00  0.00    -0.016 A 
HETATM   27  C   UNL     1       5.427   0.711  21.811  1.00  0.00     0.026 C 
ENDBRANCH  18  20
ENDBRANCH  15  16
ENDBRANCH   1  15
TORSDOF 7
