MODEL 1
REMARK VINA RESULT:    -8.113      0.000      0.000
REMARK INTER + INTRA:         -10.629
REMARK INTER:                 -10.010
REMARK INTRA:                  -0.619
REMARK UNBOUND:                -0.619
REMARK  4 active torsions:
REMARK  status: ('A' for Active; 'I' for Inactive)
REMARK    1  A    between atoms: S_2  and  N_5 
REMARK    2  A    between atoms: N_5  and  C_7 
REMARK    3  A    between atoms: C_15  and  C_16 
REMARK       I    between atoms: C_16  and  N_18 
REMARK    4  A    between atoms: N_18  and  C_20 
ROOT
HETATM    1  C   UNL     1       5.986  -1.659  20.895  1.00  0.00     0.109 C 
HETATM    2  C   UNL     1       6.568  -2.407  21.724  1.00  0.00    -0.008 A 
HETATM    3  C   UNL     1       6.594  -3.447  22.509  1.00  0.00     0.058 A 
HETATM    4  C   UNL     1       5.613  -3.955  23.597  1.00  0.00    -0.003 C 
HETATM    5  C   UNL     1       5.387  -5.065  23.813  1.00  0.00    -0.002 C 
HETATM    6  C   UNL     1       5.744  -6.081  23.257  1.00  0.00    -0.001 C 
HETATM    7  C   UNL     1       6.560  -5.824  22.081  1.00  0.00    -0.002 C 
HETATM    8  C   UNL     1       6.885  -4.911  21.724  1.00  0.00    -0.003 C 
HETATM    9  C   UNL     1       7.658  -3.007  22.852  1.00  0.00     0.040 A 
ENDROOT
BRANCH   9  10
HETATM   10  C   UNL     1       8.855  -2.743  23.497  1.00  0.00     0.254 C 
HETATM   11  O   UNL     1       9.144  -3.387  24.432  1.00  0.00    -0.268 OA
HETATM   12  N   UNL     1       9.416  -1.768  22.860  1.00  0.00    -0.321 N 
ATOM     13  HN  UNL     1       8.970  -1.340  22.048  1.00  0.00     0.169 HD
BRANCH  12  14
HETATM   14  C   UNL     1      10.543  -1.364  23.283  1.00  0.00     0.056 A 
HETATM   15  C   UNL     1      11.797  -1.649  23.027  1.00  0.00     0.117 A 
HETATM   16  N   UNL     1      13.021  -1.519  23.192  1.00  0.00    -0.373 N 
HETATM   17  C   UNL     1      12.898  -0.540  24.058  1.00  0.00     0.088 A 
ATOM     18  HN  UNL     1      13.830  -2.000  22.797  1.00  0.00     0.164 HD
HETATM   19  C   UNL     1      11.944   0.017  24.528  1.00  0.00     0.026 A 
HETATM   20  C   UNL     1      10.620  -0.211  24.308  1.00  0.00    -0.033 A 
HETATM   21  C   UNL     1       9.447   0.451  24.866  1.00  0.00     0.050 C 
ENDBRANCH  12  14
ENDBRANCH   9  10
BRANCH   1  22
HETATM   22  N   UNL     1       5.636  -0.700  20.374  1.00  0.00    -0.295 N 
ATOM     23  HN  UNL     1       4.887  -0.185  20.839  1.00  0.00     0.177 HD
BRANCH  22  24
HETATM   24  S   UNL     1       6.191  -0.054  18.974  1.00  0.00     0.226 S 
HETATM   25  C   UNL     1       5.264   1.534  18.840  1.00  0.00     0.186 C 
HETATM   26  O   UNL     1       7.599   0.250  19.063  1.00  0.00    -0.206 OA
HETATM   27  O   UNL     1       5.884  -0.844  17.830  1.00  0.00    -0.206 OA
ENDBRANCH  22  24
ENDBRANCH   1  22
TORSDOF 4
ENDMDL
MODEL 2
REMARK VINA RESULT:    -8.105      2.688      6.353
REMARK INTER + INTRA:         -10.618
REMARK INTER:                  -9.935
REMARK INTRA:                  -0.684
REMARK UNBOUND:                -0.619
REMARK  4 active torsions:
REMARK  status: ('A' for Active; 'I' for Inactive)
REMARK    1  A    between atoms: S_2  and  N_5 
REMARK    2  A    between atoms: N_5  and  C_7 
REMARK    3  A    between atoms: C_15  and  C_16 
REMARK       I    between atoms: C_16  and  N_18 
REMARK    4  A    between atoms: N_18  and  C_20 
ROOT
HETATM    1  C   UNL     1       8.507  -3.546  23.794  1.00  0.00     0.109 C 
HETATM    2  C   UNL     1       8.923  -2.451  23.332  1.00  0.00    -0.008 A 
HETATM    3  C   UNL     1       9.645  -1.370  23.420  1.00  0.00     0.058 A 
HETATM    4  C   UNL     1       9.794  -0.306  24.538  1.00  0.00    -0.003 C 
HETATM    5  C   UNL     1      10.778   0.235  24.804  1.00  0.00    -0.002 C 
HETATM    6  C   UNL     1      11.909   0.095  24.393  1.00  0.00    -0.001 C 
HETATM    7  C   UNL     1      12.030  -0.989  23.432  1.00  0.00    -0.002 C 
HETATM    8  C   UNL     1      11.277  -1.584  23.052  1.00  0.00    -0.003 C 
HETATM    9  C   UNL     1       9.086  -1.062  22.402  1.00  0.00     0.040 A 
ENDROOT
BRANCH   9  10
HETATM   10  C   UNL     1       8.589  -0.397  21.293  1.00  0.00     0.254 C 
HETATM   11  O   UNL     1       9.311   0.294  20.682  1.00  0.00    -0.268 OA
HETATM   12  N   UNL     1       7.344  -0.728  21.185  1.00  0.00    -0.321 N 
ATOM     13  HN  UNL     1       6.906  -1.363  21.852  1.00  0.00     0.169 HD
BRANCH  12  14
HETATM   14  C   UNL     1       6.689  -0.232  20.217  1.00  0.00     0.056 A 
HETATM   15  C   UNL     1       6.344  -0.630  19.016  1.00  0.00     0.117 A 
HETATM   16  N   UNL     1       5.797  -0.482  17.911  1.00  0.00    -0.373 N 
HETATM   17  C   UNL     1       5.300   0.698  18.208  1.00  0.00     0.088 A 
ATOM     18  HN  UNL     1       5.751  -1.065  17.075  1.00  0.00     0.164 HD
HETATM   19  C   UNL     1       5.364   1.384  19.191  1.00  0.00     0.026 A 
HETATM   20  C   UNL     1       6.016   1.151  20.362  1.00  0.00    -0.033 A 
HETATM   21  C   UNL     1       6.109   1.970  21.566  1.00  0.00     0.050 C 
ENDBRANCH  12  14
ENDBRANCH   9  10
BRANCH   1  22
HETATM   22  N   UNL     1       7.783  -4.394  24.062  1.00  0.00    -0.295 N 
ATOM     23  HN  UNL     1       8.007  -4.924  24.904  1.00  0.00     0.177 HD
BRANCH  22  24
HETATM   24  S   UNL     1       6.432  -4.855  23.258  1.00  0.00     0.226 S 
HETATM   25  C   UNL     1       7.091  -5.869  21.865  1.00  0.00     0.186 C 
HETATM   26  O   UNL     1       5.599  -5.700  24.078  1.00  0.00    -0.206 OA
HETATM   27  O   UNL     1       5.707  -3.762  22.704  1.00  0.00    -0.206 OA
ENDBRANCH  22  24
ENDBRANCH   1  22
TORSDOF 4
ENDMDL
MODEL 3
REMARK VINA RESULT:    -7.997      2.315      5.512
REMARK INTER + INTRA:         -10.485
REMARK INTER:                  -9.619
REMARK INTRA:                  -0.866
REMARK UNBOUND:                -0.619
REMARK  4 active torsions:
REMARK  status: ('A' for Active; 'I' for Inactive)
REMARK    1  A    between atoms: S_2  and  N_5 
REMARK    2  A    between atoms: N_5  and  C_7 
REMARK    3  A    between atoms: C_15  and  C_16 
REMARK       I    between atoms: C_16  and  N_18 
REMARK    4  A    between atoms: N_18  and  C_20 
ROOT
HETATM    1  C   UNL     1       8.675   0.712  22.234  1.00  0.00     0.109 C 
HETATM    2  C   UNL     1       9.242  -0.045  23.064  1.00  0.00    -0.008 A 
HETATM    3  C   UNL     1      10.296  -0.662  23.521  1.00  0.00     0.058 A 
HETATM    4  C   UNL     1      11.357  -1.560  22.834  1.00  0.00    -0.003 C 
HETATM    5  C   UNL     1      12.477  -1.581  23.106  1.00  0.00    -0.002 C 
HETATM    6  C   UNL     1      13.129  -0.914  23.879  1.00  0.00    -0.001 C 
HETATM    7  C   UNL     1      12.346   0.125  24.528  1.00  0.00    -0.002 C 
HETATM    8  C   UNL     1      11.334   0.305  24.433  1.00  0.00    -0.003 C 
HETATM    9  C   UNL     1       9.517  -1.169  24.283  1.00  0.00     0.040 A 
ENDROOT
BRANCH   9  10
HETATM   10  C   UNL     1       8.892  -1.958  25.234  1.00  0.00     0.254 C 
HETATM   11  O   UNL     1       8.726  -1.520  26.307  1.00  0.00    -0.268 OA
HETATM   12  N   UNL     1       8.616  -3.084  24.662  1.00  0.00    -0.321 N 
ATOM     13  HN  UNL     1       8.863  -3.258  23.687  1.00  0.00     0.169 HD
BRANCH  12  14
HETATM   14  C   UNL     1       8.025  -3.965  25.360  1.00  0.00     0.056 A 
HETATM   15  C   UNL     1       8.387  -4.836  26.272  1.00  0.00     0.117 A 
HETATM   16  N   UNL     1       8.168  -5.752  27.081  1.00  0.00    -0.373 N 
HETATM   17  C   UNL     1       6.870  -5.752  26.877  1.00  0.00     0.088 A 
ATOM     18  HN  UNL     1       8.776  -6.305  27.685  1.00  0.00     0.164 HD
HETATM   19  C   UNL     1       6.159  -5.106  26.157  1.00  0.00     0.026 A 
HETATM   20  C   UNL     1       6.491  -4.127  25.272  1.00  0.00    -0.033 A 
HETATM   21  C   UNL     1       5.646  -3.331  24.389  1.00  0.00     0.050 C 
ENDBRANCH  12  14
ENDBRANCH   9  10
BRANCH   1  22
HETATM   22  N   UNL     1       7.878   1.111  21.513  1.00  0.00    -0.295 N 
ATOM     23  HN  UNL     1       7.514   2.042  21.719  1.00  0.00     0.177 HD
BRANCH  22  24
HETATM   24  S   UNL     1       7.251   0.368  20.194  1.00  0.00     0.226 S 
HETATM   25  C   UNL     1       6.503  -1.169  20.886  1.00  0.00     0.186 C 
HETATM   26  O   UNL     1       6.199   1.156  19.602  1.00  0.00    -0.206 OA
HETATM   27  O   UNL     1       8.238  -0.012  19.241  1.00  0.00    -0.206 OA
ENDBRANCH  22  24
ENDBRANCH   1  22
TORSDOF 4
ENDMDL
MODEL 4
REMARK VINA RESULT:    -7.753      3.827      6.072
REMARK INTER + INTRA:         -10.185
REMARK INTER:                  -9.548
REMARK INTRA:                  -0.637
REMARK UNBOUND:                -0.619
REMARK  4 active torsions:
REMARK  status: ('A' for Active; 'I' for Inactive)
REMARK    1  A    between atoms: S_2  and  N_5 
REMARK    2  A    between atoms: N_5  and  C_7 
REMARK    3  A    between atoms: C_15  and  C_16 
REMARK       I    between atoms: C_16  and  N_18 
REMARK    4  A    between atoms: N_18  and  C_20 
ROOT
HETATM    1  C   UNL     1       7.050  -5.636  26.469  1.00  0.00     0.109 C 
HETATM    2  C   UNL     1       7.028  -4.966  25.403  1.00  0.00    -0.008 A 
HETATM    3  C   UNL     1       6.919  -4.877  24.107  1.00  0.00     0.058 A 
HETATM    4  C   UNL     1       7.616  -5.636  22.949  1.00  0.00    -0.003 C 
HETATM    5  C   UNL     1       7.110  -5.926  21.954  1.00  0.00    -0.002 C 
HETATM    6  C   UNL     1       5.966  -5.816  21.572  1.00  0.00    -0.001 C 
HETATM    7  C   UNL     1       5.083  -5.264  22.586  1.00  0.00    -0.002 C 
HETATM    8  C   UNL     1       5.335  -4.931  23.531  1.00  0.00    -0.003 C 
HETATM    9  C   UNL     1       7.195  -3.721  24.287  1.00  0.00     0.040 A 
ENDROOT
BRANCH   9  10
HETATM   10  C   UNL     1       7.544  -2.388  24.148  1.00  0.00     0.254 C 
HETATM   11  O   UNL     1       6.771  -1.652  23.667  1.00  0.00    -0.268 OA
HETATM   12  N   UNL     1       8.740  -2.263  24.624  1.00  0.00    -0.321 N 
ATOM     13  HN  UNL     1       9.246  -3.064  25.002  1.00  0.00     0.169 HD
BRANCH  12  14
HETATM   14  C   UNL     1       9.259  -1.104  24.602  1.00  0.00     0.056 A 
HETATM   15  C   UNL     1       9.063   0.024  25.242  1.00  0.00     0.117 A 
HETATM   16  N   UNL     1       9.302   1.217  25.488  1.00  0.00    -0.373 N 
HETATM   17  C   UNL     1      10.319   1.284  24.659  1.00  0.00     0.088 A 
ATOM     18  HN  UNL     1       8.866   1.899  26.109  1.00  0.00     0.164 HD
HETATM   19  C   UNL     1      10.823   0.480  23.923  1.00  0.00     0.026 A 
HETATM   20  C   UNL     1      10.475  -0.815  23.694  1.00  0.00    -0.033 A 
HETATM   21  C   UNL     1      11.071  -1.806  22.805  1.00  0.00     0.050 C 
ENDBRANCH  12  14
ENDBRANCH   9  10
BRANCH   1  22
HETATM   22  N   UNL     1       7.377  -5.988  27.510  1.00  0.00    -0.295 N 
ATOM     23  HN  UNL     1       8.379  -6.125  27.642  1.00  0.00     0.177 HD
BRANCH  22  24
HETATM   24  S   UNL     1       6.429  -6.299  28.810  1.00  0.00     0.226 S 
HETATM   25  C   UNL     1       4.740  -6.438  28.082  1.00  0.00     0.186 C 
HETATM   26  O   UNL     1       6.768  -7.565  29.412  1.00  0.00    -0.206 OA
HETATM   27  O   UNL     1       6.414  -5.239  29.761  1.00  0.00    -0.206 OA
ENDBRANCH  22  24
ENDBRANCH   1  22
TORSDOF 4
ENDMDL
MODEL 5
REMARK VINA RESULT:    -7.578      3.966      6.079
REMARK INTER + INTRA:          -9.969
REMARK INTER:                  -9.202
REMARK INTRA:                  -0.767
REMARK UNBOUND:                -0.619
REMARK  4 active torsions:
REMARK  status: ('A' for Active; 'I' for Inactive)
REMARK    1  A    between atoms: S_2  and  N_5 
REMARK    2  A    between atoms: N_5  and  C_7 
REMARK    3  A    between atoms: C_15  and  C_16 
REMARK       I    between atoms: C_16  and  N_18 
REMARK    4  A    between atoms: N_18  and  C_20 
ROOT
HETATM    1  C   UNL     1       7.211  -5.623  26.572  1.00  0.00     0.109 C 
HETATM    2  C   UNL     1       7.335  -4.995  25.488  1.00  0.00    -0.008 A 
HETATM    3  C   UNL     1       7.208  -4.904  24.194  1.00  0.00     0.058 A 
HETATM    4  C   UNL     1       7.630  -5.848  23.038  1.00  0.00    -0.003 C 
HETATM    5  C   UNL     1       7.028  -6.008  22.067  1.00  0.00    -0.002 C 
HETATM    6  C   UNL     1       5.945  -5.595  21.715  1.00  0.00    -0.001 C 
HETATM    7  C   UNL     1       5.283  -4.803  22.739  1.00  0.00    -0.002 C 
HETATM    8  C   UNL     1       5.650  -4.533  23.665  1.00  0.00    -0.003 C 
HETATM    9  C   UNL     1       7.796  -3.865  24.333  1.00  0.00     0.040 A 
ENDROOT
BRANCH   9  10
HETATM   10  C   UNL     1       8.491  -2.682  24.145  1.00  0.00     0.254 C 
HETATM   11  O   UNL     1       9.216  -2.316  24.989  1.00  0.00    -0.268 OA
HETATM   12  N   UNL     1       8.147  -2.227  22.985  1.00  0.00    -0.321 N 
ATOM     13  HN  UNL     1       7.475  -2.722  22.400  1.00  0.00     0.169 HD
BRANCH  12  14
HETATM   14  C   UNL     1       8.679  -1.138  22.604  1.00  0.00     0.056 A 
HETATM   15  C   UNL     1       9.753  -0.806  21.928  1.00  0.00     0.117 A 
HETATM   16  N   UNL     1      10.534   0.012  21.417  1.00  0.00    -0.373 N 
HETATM   17  C   UNL     1       9.799   1.055  21.730  1.00  0.00     0.088 A 
ATOM     18  HN  UNL     1      11.425  -0.088  20.929  1.00  0.00     0.164 HD
HETATM   19  C   UNL     1       8.755   1.170  22.312  1.00  0.00     0.026 A 
HETATM   20  C   UNL     1       7.971   0.209  22.870  1.00  0.00    -0.033 A 
HETATM   21  C   UNL     1       6.703   0.325  23.581  1.00  0.00     0.050 C 
ENDBRANCH  12  14
ENDBRANCH   9  10
BRANCH   1  22
HETATM   22  N   UNL     1       7.466  -6.032  27.612  1.00  0.00    -0.295 N 
ATOM     23  HN  UNL     1       8.452  -6.226  27.788  1.00  0.00     0.177 HD
BRANCH  22  24
HETATM   24  S   UNL     1       6.438  -6.341  28.851  1.00  0.00     0.226 S 
HETATM   25  C   UNL     1       4.799  -6.482  28.018  1.00  0.00     0.186 C 
HETATM   26  O   UNL     1       6.739  -7.606  29.475  1.00  0.00    -0.206 OA
HETATM   27  O   UNL     1       6.363  -5.280  29.797  1.00  0.00    -0.206 OA
ENDBRANCH  22  24
ENDBRANCH   1  22
TORSDOF 4
ENDMDL
MODEL 6
REMARK VINA RESULT:    -7.073     14.716     16.860
REMARK INTER + INTRA:          -9.346
REMARK INTER:                  -8.624
REMARK INTRA:                  -0.722
REMARK UNBOUND:                -0.619
REMARK  4 active torsions:
REMARK  status: ('A' for Active; 'I' for Inactive)
REMARK    1  A    between atoms: S_2  and  N_5 
REMARK    2  A    between atoms: N_5  and  C_7 
REMARK    3  A    between atoms: C_15  and  C_16 
REMARK       I    between atoms: C_16  and  N_18 
REMARK    4  A    between atoms: N_18  and  C_20 
ROOT
HETATM    1  C   UNL     1      24.230  -4.275  23.997  1.00  0.00     0.109 C 
HETATM    2  C   UNL     1      23.916  -3.147  23.535  1.00  0.00    -0.008 A 
HETATM    3  C   UNL     1      23.260  -2.022  23.601  1.00  0.00     0.058 A 
HETATM    4  C   UNL     1      21.765  -1.703  23.862  1.00  0.00    -0.003 C 
HETATM    5  C   UNL     1      21.381  -0.789  24.452  1.00  0.00    -0.002 C 
HETATM    6  C   UNL     1      21.967   0.076  25.066  1.00  0.00    -0.001 C 
HETATM    7  C   UNL     1      23.407  -0.126  25.091  1.00  0.00    -0.002 C 
HETATM    8  C   UNL     1      23.949  -0.868  24.619  1.00  0.00    -0.003 C 
HETATM    9  C   UNL     1      23.705  -1.840  22.500  1.00  0.00     0.040 A 
ENDROOT
BRANCH   9  10
HETATM   10  C   UNL     1      23.992  -1.364  21.231  1.00  0.00     0.254 C 
HETATM   11  O   UNL     1      24.814  -0.538  21.114  1.00  0.00    -0.268 OA
HETATM   12  N   UNL     1      23.222  -2.000  20.411  1.00  0.00    -0.321 N 
ATOM     13  HN  UNL     1      22.556  -2.698  20.742  1.00  0.00     0.169 HD
BRANCH  12  14
HETATM   14  C   UNL     1      23.326  -1.720  19.176  1.00  0.00     0.056 A 
HETATM   15  C   UNL     1      22.985  -0.711  18.411  1.00  0.00     0.117 A 
HETATM   16  N   UNL     1      22.903  -0.122  17.322  1.00  0.00    -0.373 N 
HETATM   17  C   UNL     1      23.560  -1.049  16.662  1.00  0.00     0.088 A 
ATOM     18  HN  UNL     1      22.479   0.763  17.040  1.00  0.00     0.164 HD
HETATM   19  C   UNL     1      24.050  -2.092  16.995  1.00  0.00     0.026 A 
HETATM   20  C   UNL     1      24.070  -2.680  18.222  1.00  0.00    -0.033 A 
HETATM   21  C   UNL     1      24.657  -3.946  18.649  1.00  0.00     0.050 C 
ENDBRANCH  12  14
ENDBRANCH   9  10
BRANCH   1  22
HETATM   22  N   UNL     1      24.470  -5.396  24.026  1.00  0.00    -0.295 N 
ATOM     23  HN  UNL     1      24.894  -5.785  23.184  1.00  0.00     0.177 HD
BRANCH  22  24
HETATM   24  S   UNL     1      24.215  -6.447  25.257  1.00  0.00     0.226 S 
HETATM   25  C   UNL     1      25.907  -6.725  25.937  1.00  0.00     0.186 C 
HETATM   26  O   UNL     1      23.405  -5.852  26.292  1.00  0.00    -0.206 OA
HETATM   27  O   UNL     1      23.700  -7.702  24.827  1.00  0.00    -0.206 OA
ENDBRANCH  22  24
ENDBRANCH   1  22
TORSDOF 4
ENDMDL
MODEL 7
REMARK VINA RESULT:    -6.891      3.563      6.888
REMARK INTER + INTRA:          -9.121
REMARK INTER:                  -8.471
REMARK INTRA:                  -0.650
REMARK UNBOUND:                -0.619
REMARK  4 active torsions:
REMARK  status: ('A' for Active; 'I' for Inactive)
REMARK    1  A    between atoms: S_2  and  N_5 
REMARK    2  A    between atoms: N_5  and  C_7 
REMARK    3  A    between atoms: C_15  and  C_16 
REMARK       I    between atoms: C_16  and  N_18 
REMARK    4  A    between atoms: N_18  and  C_20 
ROOT
HETATM    1  C   UNL     1       8.735  -2.046  25.221  1.00  0.00     0.109 C 
HETATM    2  C   UNL     1       9.370  -1.229  24.504  1.00  0.00    -0.008 A 
HETATM    3  C   UNL     1      10.481  -0.684  24.095  1.00  0.00     0.058 A 
HETATM    4  C   UNL     1      11.687  -0.079  24.860  1.00  0.00    -0.003 C 
HETATM    5  C   UNL     1      12.787  -0.157  24.521  1.00  0.00    -0.002 C 
HETATM    6  C   UNL     1      13.304  -0.748  23.598  1.00  0.00    -0.001 C 
HETATM    7  C   UNL     1      12.354  -1.534  22.828  1.00  0.00    -0.002 C 
HETATM    8  C   UNL     1      11.331  -1.592  22.956  1.00  0.00    -0.003 C 
HETATM    9  C   UNL     1       9.752   0.056  23.491  1.00  0.00     0.040 A 
ENDROOT
BRANCH   9  10
HETATM   10  C   UNL     1       9.207   1.086  22.742  1.00  0.00     0.254 C 
HETATM   11  O   UNL     1       9.361   1.078  21.581  1.00  0.00    -0.268 OA
HETATM   12  N   UNL     1       8.606   1.874  23.572  1.00  0.00    -0.321 N 
ATOM     13  HN  UNL     1       8.601   1.684  24.574  1.00  0.00     0.169 HD
BRANCH  12  14
HETATM   14  C   UNL     1       8.023   2.895  23.090  1.00  0.00     0.056 A 
HETATM   15  C   UNL     1       6.937   3.109  22.387  1.00  0.00     0.117 A 
HETATM   16  N   UNL     1       6.127   3.835  21.789  1.00  0.00    -0.373 N 
HETATM   17  C   UNL     1       6.734   4.952  22.124  1.00  0.00     0.088 A 
ATOM     18  HN  UNL     1       5.292   3.637  21.237  1.00  0.00     0.164 HD
HETATM   19  C   UNL     1       7.721   5.180  22.767  1.00  0.00     0.026 A 
HETATM   20  C   UNL     1       8.575   4.310  23.372  1.00  0.00    -0.033 A 
HETATM   21  C   UNL     1       9.779   4.564  24.155  1.00  0.00     0.050 C 
ENDBRANCH  12  14
ENDBRANCH   9  10
BRANCH   1  22
HETATM   22  N   UNL     1       7.919  -2.464  25.910  1.00  0.00    -0.295 N 
ATOM     23  HN  UNL     1       7.237  -1.789  26.256  1.00  0.00     0.177 HD
BRANCH  22  24
HETATM   24  S   UNL     1       7.717  -4.012  26.406  1.00  0.00     0.226 S 
HETATM   25  C   UNL     1       7.504  -4.940  24.826  1.00  0.00     0.186 C 
HETATM   26  O   UNL     1       8.900  -4.508  27.065  1.00  0.00    -0.206 OA
HETATM   27  O   UNL     1       6.545  -4.203  27.191  1.00  0.00    -0.206 OA
ENDBRANCH  22  24
ENDBRANCH   1  22
TORSDOF 4
ENDMDL
MODEL 8
REMARK VINA RESULT:    -6.865      6.113      9.434
REMARK INTER + INTRA:          -9.089
REMARK INTER:                  -8.444
REMARK INTRA:                  -0.645
REMARK UNBOUND:                -0.619
REMARK  4 active torsions:
REMARK  status: ('A' for Active; 'I' for Inactive)
REMARK    1  A    between atoms: S_2  and  N_5 
REMARK    2  A    between atoms: N_5  and  C_7 
REMARK    3  A    between atoms: C_15  and  C_16 
REMARK       I    between atoms: C_16  and  N_18 
REMARK    4  A    between atoms: N_18  and  C_20 
ROOT
HETATM    1  C   UNL     1       6.733  -5.671  26.425  1.00  0.00     0.109 C 
HETATM    2  C   UNL     1       5.995  -5.744  25.407  1.00  0.00    -0.008 A 
HETATM    3  C   UNL     1       5.595  -5.304  24.247  1.00  0.00     0.058 A 
HETATM    4  C   UNL     1       5.169  -3.896  23.757  1.00  0.00    -0.003 C 
HETATM    5  C   UNL     1       5.386  -3.471  22.707  1.00  0.00    -0.002 C 
HETATM    6  C   UNL     1       6.025  -3.913  21.777  1.00  0.00    -0.001 C 
HETATM    7  C   UNL     1       6.664  -5.182  22.084  1.00  0.00    -0.002 C 
HETATM    8  C   UNL     1       6.589  -5.734  22.954  1.00  0.00    -0.003 C 
HETATM    9  C   UNL     1       4.755  -6.157  24.351  1.00  0.00     0.040 A 
ENDROOT
BRANCH   9  10
HETATM   10  C   UNL     1       3.650  -6.977  24.195  1.00  0.00     0.254 C 
HETATM   11  O   UNL     1       3.568  -7.942  24.855  1.00  0.00    -0.268 OA
HETATM   12  N   UNL     1       2.909  -6.436  23.285  1.00  0.00    -0.321 N 
ATOM     13  HN  UNL     1       3.184  -5.568  22.825  1.00  0.00     0.169 HD
BRANCH  12  14
HETATM   14  C   UNL     1       1.825  -7.028  22.986  1.00  0.00     0.056 A 
HETATM   15  C   UNL     1       1.494  -8.068  22.259  1.00  0.00     0.117 A 
HETATM   16  N   UNL     1       0.679  -8.863  21.765  1.00  0.00    -0.373 N 
HETATM   17  C   UNL     1      -0.355  -8.334  22.378  1.00  0.00     0.088 A 
ATOM     18  HN  UNL     1       0.777  -9.646  21.117  1.00  0.00     0.164 HD
HETATM   19  C   UNL     1      -0.467  -7.407  23.133  1.00  0.00     0.026 A 
HETATM   20  C   UNL     1       0.489  -6.562  23.606  1.00  0.00    -0.033 A 
HETATM   21  C   UNL     1       0.376  -5.431  24.520  1.00  0.00     0.050 C 
ENDBRANCH  12  14
ENDBRANCH   9  10
BRANCH   1  22
HETATM   22  N   UNL     1       7.050  -5.697  27.526  1.00  0.00    -0.295 N 
ATOM     23  HN  UNL     1       8.013  -5.424  27.721  1.00  0.00     0.177 HD
BRANCH  22  24
HETATM   24  S   UNL     1       6.143  -6.117  28.824  1.00  0.00     0.226 S 
HETATM   25  C   UNL     1       4.455  -5.525  28.374  1.00  0.00     0.186 C 
HETATM   26  O   UNL     1       6.092  -7.550  28.983  1.00  0.00    -0.206 OA
HETATM   27  O   UNL     1       6.536  -5.458  30.023  1.00  0.00    -0.206 OA
ENDBRANCH  22  24
ENDBRANCH   1  22
TORSDOF 4
ENDMDL
MODEL 9
REMARK VINA RESULT:    -6.690      4.670      6.904
REMARK INTER + INTRA:          -8.872
REMARK INTER:                  -8.139
REMARK INTRA:                  -0.733
REMARK UNBOUND:                -0.619
REMARK  4 active torsions:
REMARK  status: ('A' for Active; 'I' for Inactive)
REMARK    1  A    between atoms: S_2  and  N_5 
REMARK    2  A    between atoms: N_5  and  C_7 
REMARK    3  A    between atoms: C_15  and  C_16 
REMARK       I    between atoms: C_16  and  N_18 
REMARK    4  A    between atoms: N_18  and  C_20 
ROOT
HETATM    1  C   UNL     1       5.377  -6.705  27.650  1.00  0.00     0.109 C 
HETATM    2  C   UNL     1       5.629  -6.074  26.590  1.00  0.00    -0.008 A 
HETATM    3  C   UNL     1       5.314  -5.678  25.389  1.00  0.00     0.058 A 
HETATM    4  C   UNL     1       4.804  -6.443  24.140  1.00  0.00    -0.003 C 
HETATM    5  C   UNL     1       4.043  -6.028  23.379  1.00  0.00    -0.002 C 
HETATM    6  C   UNL     1       3.403  -4.999  23.362  1.00  0.00    -0.001 C 
HETATM    7  C   UNL     1       3.610  -4.186  24.549  1.00  0.00    -0.002 C 
HETATM    8  C   UNL     1       4.252  -4.369  25.337  1.00  0.00    -0.003 C 
HETATM    9  C   UNL     1       6.431  -5.233  25.376  1.00  0.00     0.040 A 
ENDROOT
BRANCH   9  10
HETATM   10  C   UNL     1       7.648  -4.675  25.023  1.00  0.00     0.254 C 
HETATM   11  O   UNL     1       8.621  -5.309  25.172  1.00  0.00    -0.268 OA
HETATM   12  N   UNL     1       7.399  -3.489  24.573  1.00  0.00    -0.321 N 
ATOM     13  HN  UNL     1       6.446  -3.126  24.535  1.00  0.00     0.169 HD
BRANCH  12  14
HETATM   14  C   UNL     1       8.386  -2.793  24.181  1.00  0.00     0.056 A 
HETATM   15  C   UNL     1       9.064  -2.673  23.064  1.00  0.00     0.117 A 
HETATM   16  N   UNL     1       9.967  -2.194  22.360  1.00  0.00    -0.373 N 
HETATM   17  C   UNL     1      10.372  -1.351  23.283  1.00  0.00     0.088 A 
ATOM     18  HN  UNL     1      10.280  -2.385  21.408  1.00  0.00     0.164 HD
HETATM   19  C   UNL     1      10.005  -1.135  24.405  1.00  0.00     0.026 A 
HETATM   20  C   UNL     1       9.012  -1.735  25.116  1.00  0.00    -0.033 A 
HETATM   21  C   UNL     1       8.551  -1.490  26.478  1.00  0.00     0.050 C 
ENDBRANCH  12  14
ENDBRANCH   9  10
BRANCH   1  22
HETATM   22  N   UNL     1       5.539  -7.377  28.564  1.00  0.00    -0.295 N 
ATOM     23  HN  UNL     1       5.824  -8.337  28.370  1.00  0.00     0.177 HD
BRANCH  22  24
HETATM   24  S   UNL     1       5.369  -6.982  30.145  1.00  0.00     0.226 S 
HETATM   25  C   UNL     1       5.252  -5.142  30.114  1.00  0.00     0.186 C 
HETATM   26  O   UNL     1       4.137  -7.505  30.684  1.00  0.00    -0.206 OA
HETATM   27  O   UNL     1       6.495  -7.339  30.939  1.00  0.00    -0.206 OA
ENDBRANCH  22  24
ENDBRANCH   1  22
TORSDOF 4
ENDMDL
