REMARK  4 active torsions:
REMARK  status: ('A' for Active; 'I' for Inactive)
REMARK    1  A    between atoms: S_2  and  N_5 
REMARK    2  A    between atoms: N_5  and  C_7 
REMARK    3  A    between atoms: C_15  and  C_16 
REMARK       I    between atoms: C_16  and  N_18 
REMARK    4  A    between atoms: N_18  and  C_20 
ROOT
HETATM    1  C   UNL     1       8.930  -2.904  24.135  1.00  0.00     0.109 C 
HETATM    2  C   UNL     1       9.438  -1.960  23.475  1.00  0.00    -0.008 A 
HETATM    3  C   UNL     1      10.373  -1.074  23.274  1.00  0.00     0.058 A 
HETATM    4  C   UNL     1      11.028  -0.022  24.206  1.00  0.00    -0.003 C 
HETATM    5  C   UNL     1      12.139   0.286  24.172  1.00  0.00    -0.002 C 
HETATM    6  C   UNL     1      13.070  -0.134  23.520  1.00  0.00    -0.001 C 
HETATM    7  C   UNL     1      12.706  -1.261  22.677  1.00  0.00    -0.002 C 
HETATM    8  C   UNL     1      11.771  -1.681  22.552  1.00  0.00    -0.003 C 
HETATM    9  C   UNL     1       9.651  -0.693  22.392  1.00  0.00     0.040 A 
ENDROOT
BRANCH   9  10
HETATM   10  C   UNL     1       9.041   0.015  21.370  1.00  0.00     0.254 C 
HETATM   11  O   UNL     1       9.596   0.943  20.920  1.00  0.00    -0.268 OA
HETATM   12  N   UNL     1       7.911  -0.567  21.135  1.00  0.00    -0.321 N 
ATOM     13  HN  UNL     1       7.616  -1.386  21.667  1.00  0.00     0.169 HD
BRANCH  12  14
HETATM   14  C   UNL     1       7.182  -0.079  20.216  1.00  0.00     0.056 A 
HETATM   15  C   UNL     1       7.245  -0.008  18.908  1.00  0.00     0.117 A 
HETATM   16  N   UNL     1       6.819   0.333  17.793  1.00  0.00    -0.373 N 
HETATM   17  C   UNL     1       5.705   0.843  18.268  1.00  0.00     0.088 A 
ATOM     18  HN  UNL     1       7.197   0.248  16.849  1.00  0.00     0.164 HD
HETATM   19  C   UNL     1       5.268   0.949  19.381  1.00  0.00     0.026 A 
HETATM   20  C   UNL     1       5.822   0.566  20.563  1.00  0.00    -0.033 A 
HETATM   21  C   UNL     1       5.311   0.686  21.924  1.00  0.00     0.050 C 
ENDBRANCH  12  14
ENDBRANCH   9  10
BRANCH   1  22
HETATM   22  N   UNL     1       8.135  -3.545  24.656  1.00  0.00    -0.295 N 
ATOM     23  HN  UNL     1       7.259  -3.672  24.149  1.00  0.00     0.177 HD
BRANCH  22  24
HETATM   24  S   UNL     1       8.236  -4.282  26.116  1.00  0.00     0.226 S 
HETATM   25  C   UNL     1       6.516  -4.878  26.412  1.00  0.00     0.186 C 
HETATM   26  O   UNL     1       9.109  -5.429  26.062  1.00  0.00    -0.206 OA
HETATM   27  O   UNL     1       8.583  -3.393  27.172  1.00  0.00    -0.206 OA
ENDBRANCH  22  24
ENDBRANCH   1  22
TORSDOF 4
