stable:False satoms:13 tatoms:24 sratio:0.5416666666666666
  -OEChem-07092417433D

 24 24  0     0  0  0  0  0  0999 V2000
    6.4664   -5.0285   26.3613 Cl  0  0  0  0  0  0  0  0  0  0  0  0
    8.2118   -4.4355   26.1709 S   0  0  0  0  0  0  0  0  0  0  0  0
    9.0392   -5.5807   26.0699 O   0  0  0  0  0  0  0  0  0  0  0  0
    8.5015   -3.5803   27.2427 O   0  0  0  0  0  0  0  0  0  0  0  0
    8.1026   -3.6558   24.7563 N   0  0  0  0  0  0  0  0  0  0  0  0
    8.8782   -2.9267   24.1880 C   0  0  0  0  0  0  0  0  0  0  0  0
    9.3563   -2.1428   23.5744 C   0  0  0  0  0  0  0  0  0  0  0  0
   10.1934   -1.3703   22.9062 C   0  0  0  0  0  0  0  0  0  0  0  0
   11.4836    0.1721   24.4174 H   0  0  0  0  0  0  0  0  0  0  0  0
   12.4150   -0.0604   23.9807 C   0  0  0  0  0  0  0  0  0  0  0  0
   13.3509    0.2900   24.0374 H   0  0  0  0  0  0  0  0  0  0  0  0
   12.3556   -1.1049   23.1067 C   0  0  0  0  0  0  0  0  0  0  0  0
   11.4979   -1.6772   22.6989 C   0  0  0  0  0  0  0  0  0  0  0  0
    9.9445   -0.2934   22.3207 N   0  0  0  0  0  0  0  0  0  0  0  0
    9.1060    0.1580   21.2981 C   0  0  0  0  0  0  0  0  0  0  0  0
    9.4986    1.1046   20.6758 O   0  0  0  0  0  0  0  0  0  0  0  0
    7.9345   -0.5047   21.1476 N   0  0  0  0  0  0  0  0  0  0  0  0
    7.1847   -0.0281   20.2591 C   0  0  0  0  0  0  0  0  0  0  0  0
    7.1160    0.1278   19.0007 C   0  0  0  0  0  0  0  0  0  0  0  0
    6.4511    0.4872   17.3210 N   0  0  0  0  0  0  0  0  0  0  0  0
    6.0329    0.6534   18.2109 C   0  0  0  0  0  0  0  0  0  0  0  0
    5.3640    0.8839   19.4594 C   0  0  0  0  0  0  0  0  0  0  0  0
    5.7478    0.5724   20.5531 C   0  0  0  0  0  0  0  0  0  0  0  0
    5.3515    0.6497   21.5396 H   0  0  0  0  0  0  0  0  0  0  0  0
 20 21  1  0  0  0  0
 19 21  1  0  0  0  0
 21 22  2  0  0  0  0
 18 19  1  0  0  0  0
 22 23  1  0  0  0  0
 18 23  2  0  0  0  0
 17 18  1  0  0  0  0
 23 24  1  0  0  0  0
 15 16  2  0  0  0  0
 15 17  1  0  0  0  0
 14 15  1  0  0  0  0
  8 14  1  0  0  0  0
  8 13  2  3  0  0  0
 12 13  1  0  0  0  0
  7  8  1  0  0  0  0
 10 12  2  0  0  0  0
  6  7  3  0  0  0  0
 10 11  1  0  0  0  0
  9 10  1  0  0  0  0
  5  6  1  0  0  0  0
  2  5  1  0  0  0  0
  2  3  2  0  0  0  0
  1  2  1  0  0  0  0
  2  4  2  0  0  0  0
M  END
> <Shapegauss>
-257.819916

$$$$
