REMARK  7 active torsions:
REMARK  status: ('A' for Active; 'I' for Inactive)
REMARK    1  A    between atoms: S_2  and  N_5 
REMARK    2  A    between atoms: N_5  and  C_7 
REMARK    3  A    between atoms: C_8  and  C_9 
REMARK    4  A    between atoms: C_9  and  C_12 
REMARK    5  A    between atoms: C_11  and  C_12 
REMARK       I    between atoms: N_13  and  C_15 
REMARK       I    between atoms: C_15  and  N_17 
REMARK    6  A    between atoms: N_17  and  C_19 
REMARK    7  A    between atoms: N_21  and  C_24 
ROOT
HETATM    1  C   UNL     1      10.193  -1.370  22.906  1.00  0.00     0.092 C 
HETATM    2  N   UNL     1       9.944  -0.293  22.321  1.00  0.00    -0.301 N 
ATOM      3  HN  UNL     1      10.511   0.468  22.695  1.00  0.00     0.171 HD
HETATM    4  C   UNL     1       9.106   0.158  21.298  1.00  0.00     0.325 C 
HETATM    5  O   UNL     1       9.499   1.105  20.676  1.00  0.00    -0.247 OA
HETATM    6  N   UNL     1       7.934  -0.505  21.148  1.00  0.00    -0.309 N 
ATOM      7  HN  UNL     1       7.682  -1.320  21.708  1.00  0.00     0.170 HD
ENDROOT
BRANCH   1   8
HETATM    8  C   UNL     1       9.356  -2.143  23.574  1.00  0.00    -0.025 C 
HETATM    9  C   UNL     1       8.878  -2.927  24.188  1.00  0.00     0.028 C 
BRANCH   9  10
HETATM   10  N   UNL     1       8.103  -3.656  24.756  1.00  0.00    -0.229 N 
ATOM     11  HN  UNL     1       7.226  -3.808  24.258  1.00  0.00     0.190 HD
BRANCH  10  12
HETATM   12  S   UNL     1       8.212  -4.436  26.171  1.00  0.00     0.327 S 
HETATM   13 CL   UNL     1       6.466  -5.029  26.361  1.00  0.00     0.042 Cl
HETATM   14  O   UNL     1       9.039  -5.581  26.070  1.00  0.00    -0.188 OA
HETATM   15  O   UNL     1       8.502  -3.580  27.243  1.00  0.00    -0.188 OA
ENDBRANCH  10  12
ENDBRANCH   9  10
ENDBRANCH   1   8
BRANCH   1  16
HETATM   16  C   UNL     1      11.498  -1.677  22.699  1.00  0.00     0.038 C 
BRANCH  16  17
HETATM   17  C   UNL     1      12.356  -1.105  23.107  1.00  0.00    -0.007 C 
HETATM   18  C   UNL     1      12.415  -0.060  23.981  1.00  0.00     0.011 C 
ENDBRANCH  16  17
ENDBRANCH   1  16
BRANCH   6  19
HETATM   19  C   UNL     1       7.185  -0.028  20.259  1.00  0.00     0.038 A 
HETATM   20  C   UNL     1       7.116   0.128  19.001  1.00  0.00     0.058 A 
HETATM   21  C   UNL     1       6.033   0.653  18.211  1.00  0.00     0.027 A 
HETATM   22  C   UNL     1       5.364   0.884  19.459  1.00  0.00     0.031 A 
HETATM   23  C   UNL     1       5.748   0.572  20.553  1.00  0.00     0.032 A 
BRANCH  21  24
HETATM   24  N   UNL     1       6.451   0.487  17.321  1.00  0.00    -0.399 N 
ATOM     25  HN2 UNL     1       6.927   0.323  16.434  1.00  0.00     0.156 HD
ATOM     26  HN1 UNL     1       5.684   0.859  16.761  1.00  0.00     0.156 HD
ENDBRANCH  21  24
ENDBRANCH   6  19
TORSDOF 7
