stable:False satoms:13 tatoms:24 sratio:0.5416666666666666
  -OEChem-07092417383D

 24 23  0     1  0  0  0  0  0999 V2000
    7.2100   -4.8705   26.2040 H   0  0  0  0  0  0  0  0  0  0  0  0
    8.2429   -4.4880   26.1221 C   0  0  0  0  0  0  0  0  0  0  0  0
    8.9643   -5.3295   26.1789 H   0  0  0  0  0  0  0  0  0  0  0  0
    8.4510   -3.8041   26.9601 H   0  0  0  0  0  0  0  0  0  0  0  0
    8.3612   -3.8570   24.8688 N   0  0  0  0  0  0  0  0  0  0  0  0
    8.9389   -3.0068   24.3583 C   0  0  0  0  0  0  0  0  0  0  0  0
    9.1588   -2.0599   23.7586 N   0  0  0  0  0  0  0  0  0  0  0  0
   10.1718   -0.3612   22.7757 C   0  0  0  0  0  0  0  0  0  0  0  0
   11.5422   -0.1275   23.8291 C   0  0  0  0  0  0  0  0  0  0  0  0
   11.6478    0.4994   24.6812 H   0  0  0  0  0  0  0  0  0  0  0  0
   13.5194   -0.6934   23.2812 H   0  0  0  0  0  0  0  0  0  0  0  0
   12.4516   -0.8863   23.2959 C   0  0  0  0  0  0  0  0  0  0  0  0
   11.6858   -2.2505   22.7002 S   0  0  0  0  0  0  0  0  0  0  0  0
   10.1318   -1.4430   23.0599 C   0  0  3  0  0  0  0  0  0  0  0  0
    9.0946    0.2120   21.3533 C   0  0  0  0  0  0  0  0  0  0  0  0
    9.6874    1.0265   20.7969 O   0  0  0  0  0  0  0  0  0  0  0  0
    7.8910   -0.3178   21.1275 N   0  0  0  0  0  0  0  0  0  0  0  0
    7.0031    0.1798   20.3744 C   0  0  0  0  0  0  0  0  0  0  0  0
    6.7199    0.3926   18.5924 C   0  5  0  0  0  0  0  0  0  0  0  0
    7.2306    0.1630   17.7302 H   0  0  0  0  0  0  0  0  0  0  0  0
    4.8851    1.4490   18.4541 H   0  0  0  0  0  0  0  0  0  0  0  0
    5.6299    0.9364   19.0511 C   0  0  0  0  0  0  0  0  0  0  0  0
    5.7867    0.6357   20.4018 C   0  0  0  0  0  0  0  0  0  0  0  0
    5.1781    0.7110   21.3406 H   0  0  0  0  0  0  0  0  0  0  0  0
 19 20  1  0  0  0  0
 21 22  1  0  0  0  0
 19 22  2  0  0  0  0
 22 23  1  0  0  0  0
 18 23  2  0  0  0  0
 17 18  1  0  0  0  0
 23 24  1  0  0  0  0
 15 16  2  0  0  0  0
 15 17  1  0  0  0  0
 13 14  1  0  0  0  0
 12 13  1  0  0  0  0
  8 14  1  0  0  0  0
  8  9  1  0  0  0  0
  7 14  1  0  0  0  0
 11 12  1  0  0  0  0
  9 12  2  0  0  0  0
  6  7  2  0  0  0  0
  9 10  1  0  0  0  0
  5  6  1  0  0  0  0
  2  5  1  0  0  0  0
  2  3  1  0  0  0  0
  1  2  1  0  0  0  0
  2  4  1  0  0  0  0
M  CHG  1  19  -1
M  END
> <Shapegauss>
-194.282181

$$$$
