
 OpenBabel07202414163D

 40 42  0  0  0  0  0  0  0  0999 V2000
    1.3048    1.8327    1.6450 C   0  0  0  0  0  0  0  0  0  0  0  0
    0.7742    0.9459    0.5539 C   0  0  0  0  0  0  0  0  0  0  0  0
    1.5582   -0.1610    0.1774 C   0  0  0  0  0  0  0  0  0  0  0  0
    1.1016   -1.0177   -0.8090 C   0  0  0  0  0  0  0  0  0  0  0  0
   -0.0821   -0.8698   -1.4236 N   0  0  0  0  0  0  0  0  0  0  0  0
   -0.8300    0.2003   -1.0519 C   0  0  0  0  0  0  0  0  0  0  0  0
   -0.4619    1.1488   -0.0905 C   0  0  0  0  0  0  0  0  0  0  0  0
   -1.2862    2.2571    0.2436 N   0  0  0  0  0  0  0  0  0  0  0  0
   -2.3638    2.7084   -0.5107 C   0  0  0  0  0  0  0  0  0  0  0  0
   -2.6907    2.2637   -1.6087 O   0  0  0  0  0  0  0  0  0  0  0  0
   -3.1383    3.8692    0.1021 C   0  0  0  0  0  0  0  0  0  0  0  0
   -4.6273    3.5986    0.1705 C   0  0  0  0  0  0  0  0  0  0  0  0
   -5.4627    3.8513   -0.9324 C   0  0  0  0  0  0  0  0  0  0  0  0
   -6.8296    3.5519   -0.8903 C   0  0  0  0  0  0  0  0  0  0  0  0
   -7.3840    3.0191    0.2695 C   0  0  0  0  0  0  0  0  0  0  0  0
   -6.5604    2.7609    1.3654 C   0  0  0  0  0  0  0  0  0  0  0  0
   -5.1931    3.0393    1.3219 C   0  0  0  0  0  0  0  0  0  0  0  0
   -7.2384    2.0840    2.7966 Cl  0  0  0  0  0  0  0  0  0  0  0  0
   -7.5427    3.8394   -2.0295 O   0  0  0  0  0  0  0  0  0  0  0  0
   -8.7749    3.1188   -2.2757 C   0  0  0  0  0  0  0  0  0  0  0  0
   -8.6854    1.6188   -2.5893 C   0  0  0  0  0  0  0  0  0  0  0  0
   -9.3915    1.7835   -3.8411 O   0  0  0  0  0  0  0  0  0  0  0  0
   -9.3332    3.2223   -3.7030 C   0  0  0  0  0  0  0  0  0  0  0  0
    2.3762    1.6634    1.8049 H   0  0  0  0  0  0  0  0  0  0  0  0
    0.7890    1.6219    2.5876 H   0  0  0  0  0  0  0  0  0  0  0  0
    1.1914    2.8903    1.3887 H   0  0  0  0  0  0  0  0  0  0  0  0
    2.5236   -0.3530    0.6358 H   0  0  0  0  0  0  0  0  0  0  0  0
    1.6910   -1.8688   -1.1360 H   0  0  0  0  0  0  0  0  0  0  0  0
   -1.7846    0.2366   -1.5659 H   0  0  0  0  0  0  0  0  0  0  0  0
   -0.9972    2.8238    1.0298 H   0  0  0  0  0  0  0  0  0  0  0  0
   -2.9511    4.7547   -0.5186 H   0  0  0  0  0  0  0  0  0  0  0  0
   -2.7595    4.1133    1.1011 H   0  0  0  0  0  0  0  0  0  0  0  0
   -5.0432    4.2623   -1.8518 H   0  0  0  0  0  0  0  0  0  0  0  0
   -8.4434    2.8031    0.3454 H   0  0  0  0  0  0  0  0  0  0  0  0
   -4.5733    2.8151    2.1862 H   0  0  0  0  0  0  0  0  0  0  0  0
   -9.5474    3.3750   -1.5397 H   0  0  0  0  0  0  0  0  0  0  0  0
   -9.2351    0.9690   -1.9022 H   0  0  0  0  0  0  0  0  0  0  0  0
   -7.6794    1.2209   -2.7497 H   0  0  0  0  0  0  0  0  0  0  0  0
  -10.3282    3.6705   -3.7846 H   0  0  0  0  0  0  0  0  0  0  0  0
   -8.6673    3.6686   -4.4475 H   0  0  0  0  0  0  0  0  0  0  0  0
  1  2  1  0  0  0  0
  1 24  1  0  0  0  0
  1 25  1  0  0  0  0
  1 26  1  0  0  0  0
  2  3  1  0  0  0  0
  2  7  2  0  0  0  0
  3  4  2  0  0  0  0
  3 27  1  0  0  0  0
  4  5  1  0  0  0  0
  4 28  1  0  0  0  0
  5  6  2  0  0  0  0
  6  7  1  0  0  0  0
  6 29  1  0  0  0  0
  7  8  1  0  0  0  0
  8  9  1  0  0  0  0
  8 30  1  0  0  0  0
  9 10  2  0  0  0  0
  9 11  1  0  0  0  0
 11 12  1  0  0  0  0
 11 31  1  0  0  0  0
 11 32  1  0  0  0  0
 12 13  1  0  0  0  0
 12 17  2  0  0  0  0
 13 14  2  0  0  0  0
 13 33  1  0  0  0  0
 14 15  1  0  0  0  0
 14 19  1  0  0  0  0
 15 16  2  0  0  0  0
 15 34  1  0  0  0  0
 16 17  1  0  0  0  0
 16 18  1  0  0  0  0
 17 35  1  0  0  0  0
 19 20  1  0  0  0  0
 20 21  1  0  0  0  0
 20 23  1  0  0  0  0
 20 36  1  0  0  0  0
 21 22  1  0  0  0  0
 21 37  1  0  0  0  0
 21 38  1  0  0  0  0
 22 23  1  0  0  0  0
 23 39  1  0  0  0  0
 23 40  1  0  0  0  0
M  END
$$$$
