stable:False satoms:17 tatoms:24 sratio:0.7083333333333334
  -OEChem-07092417413D

 24 24  0     1  0  0  0  0  0999 V2000
    6.4324   -4.8985   26.6252 Cl  0  0  0  0  0  0  0  0  0  0  0  0
    8.1832   -4.2787   26.2733 S   0  0  0  0  0  0  0  0  0  0  0  0
    9.0096   -5.4623   26.2652 O   0  0  0  0  0  0  0  0  0  0  0  0
    8.5201   -3.3095   27.2591 O   0  0  0  0  0  0  0  0  0  0  0  0
    8.0202   -3.6459   24.7832 N   0  0  0  0  0  0  0  0  0  0  0  0
    8.8403   -2.8551   24.3080 C   0  0  0  0  0  0  0  0  0  0  0  0
    9.4218   -2.0202   23.7925 C   0  0  0  0  0  0  0  0  0  0  0  0
   10.2537   -1.0441   23.2389 C   0  0  3  0  0  0  0  0  0  0  0  0
   11.4384   -0.4538   23.7869 C   0  0  0  0  0  0  0  0  0  0  0  0
   11.6399    0.2480   24.5344 H   0  0  0  0  0  0  0  0  0  0  0  0
   13.4896   -0.5867   23.2423 H   0  0  0  0  0  0  0  0  0  0  0  0
   12.5437   -0.9373   22.9840 C   0  0  0  0  0  0  0  0  0  0  0  0
   12.2961   -1.6302   22.2062 H   0  0  0  0  0  0  0  0  0  0  0  0
    9.9303   -0.6342   22.1345 N   0  0  0  0  0  0  0  0  0  0  0  0
    9.0806    0.1286   21.4196 C   0  0  0  0  0  0  0  0  0  0  0  0
    9.4465    1.1933   20.9900 O   0  0  0  0  0  0  0  0  0  0  0  0
    7.8352   -0.4241   21.2150 N   0  0  0  0  0  0  0  0  0  0  0  0
    7.0702    0.0734   20.2534 C   0  0  0  0  0  0  0  0  0  0  0  0
    7.2992    0.0324   18.9966 N   0  0  0  0  0  0  0  0  0  0  0  0
    6.1902    0.4654   17.2145 N   0  0  0  0  0  0  0  0  0  0  0  0
    6.1131    0.5101   18.2520 C   0  0  0  0  0  0  0  0  0  0  0  0
    5.4626    0.7920   19.3645 C   0  0  0  0  0  0  0  0  0  0  0  0
    5.7628    0.6451   20.5842 C   0  0  0  0  0  0  0  0  0  0  0  0
    5.3044    0.8022   21.5733 H   0  0  0  0  0  0  0  0  0  0  0  0
 20 21  1  0  0  0  0
 19 21  1  0  0  0  0
 21 22  2  0  0  0  0
 18 19  1  0  0  0  0
 22 23  1  0  0  0  0
 18 23  2  0  0  0  0
 17 18  1  0  0  0  0
 23 24  1  0  0  0  0
 15 16  2  0  0  0  0
 15 17  1  0  0  0  0
 14 15  1  0  0  0  0
  8 14  1  0  0  0  0
 12 13  1  0  0  0  0
 11 12  1  0  0  0  0
  9 12  2  0  0  0  0
  8  9  1  0  0  0  0
  7  8  1  0  0  0  0
  9 10  1  0  0  0  0
  6  7  3  0  0  0  0
  5  6  1  0  0  0  0
  2  5  1  0  0  0  0
  2  3  2  0  0  0  0
  1  2  1  0  0  0  0
  2  4  2  0  0  0  0
M  END
> <Shapegauss>
-242.552353

$$$$
