stable:False satoms:22 tatoms:24 sratio:0.9166666666666666
  -OEChem-07092417313D

 24 25  0     1  0  0  0  0  0999 V2000
    8.1151   -3.2285   26.6018 N   0  0  0  0  0  0  0  0  0  0  0  0
    7.4649   -2.0454   26.0661 O   0  0  0  0  0  0  0  0  0  0  0  0
   10.0561   -4.3076   24.0907 H   0  0  0  0  0  0  0  0  0  0  0  0
    8.4885   -2.6148   25.5732 C   0  0  3  0  0  0  0  0  0  0  0  0
    8.5210   -0.8955   20.9440 C   0  0  1  0  0  0  0  0  0  0  0  0
    8.7474    1.3125   23.2292 H   0  0  0  0  0  0  0  0  0  0  0  0
    9.8724    0.5410   21.2236 H   0  0  0  0  0  0  0  0  0  0  0  0
   10.0054   -0.8478   23.2432 H   0  0  0  0  0  0  0  0  0  0  0  0
    9.2923   -2.3807   24.3935 C   0  0  3  0  0  0  0  0  0  0  0  0
   11.2596   -2.9897   23.9132 H   0  0  0  0  0  0  0  0  0  0  0  0
   10.1376   -3.2646   22.6353 H   0  0  0  0  0  0  0  0  0  0  0  0
    8.6262   -1.8636   19.1057 H   0  0  0  0  0  0  0  0  0  0  0  0
    8.8242   -1.9153   21.2457 N   0  3  0  0  0  0  0  0  0  0  0  0
    9.0925   -1.2124   23.7111 C   0  0  0  0  0  0  0  0  0  0  0  0
   10.2299   -3.2801   23.7061 C   0  0  0  0  0  0  0  0  0  0  0  0
    8.0933    0.6841   22.6135 C   0  0  0  0  0  0  0  0  0  0  0  0
    8.8023    0.5899   21.2597 C   0  0  0  0  0  0  0  0  0  0  0  0
    8.4626    1.3778   20.6130 H   0  0  0  0  0  0  0  0  0  0  0  0
    8.2319   -1.1268   19.7611 C   0  0  1  0  0  0  0  0  0  0  0  0
    7.8105    0.4026   18.4174 H   0  0  0  0  0  0  0  0  0  0  0  0
    7.3725   -0.1520   19.0320 O   0  0  0  0  0  0  0  0  0  0  0  0
    7.9556   -0.4815   23.4984 C   0  0  0  0  0  0  0  0  0  0  0  0
    7.0448   -0.6324   24.0244 H   0  0  0  0  0  0  0  0  0  0  0  0
    7.0773    1.0404   22.3948 H   0  0  0  0  0  0  0  0  0  0  0  0
 20 21  1  0  0  0  0
 19 21  1  0  0  0  0
 12 19  1  0  0  0  0
  5 19  1  0  0  0  0
 13 19  1  0  0  0  0
 17 18  1  0  0  0  0
  5 13  1  0  0  0  0
  5 17  1  0  0  0  0
  7 17  1  0  0  0  0
 16 17  1  0  0  0  0
 16 24  1  0  0  0  0
  6 16  1  0  0  0  0
 16 22  1  0  0  0  0
 11 15  1  0  0  0  0
  8 14  1  0  0  0  0
 14 22  2  0  0  0  0
 22 23  1  0  0  0  0
 10 15  1  0  0  0  0
  3 15  1  0  0  0  0
  9 15  1  0  0  0  0
  9 14  1  0  0  0  0
  4  9  1  0  0  0  0
  2  4  1  0  0  0  0
  1  4  1  0  0  0  0
  1  2  1  0  0  0  0
M  CHG  1  13   1
M  END
> <Shapegauss>
-109.176636

$$$$
