REMARK  7 active torsions:
REMARK  status: ('A' for Active; 'I' for Inactive)
REMARK    1  A    between atoms: C_4  and  C_6 
REMARK    2  A    between atoms: CA_5  and  C_12 
REMARK    3  A    between atoms: C_6  and  C_9 
REMARK    4  A    between atoms: C_9  and  C_16 
REMARK    5  A    between atoms: C_11  and  C_12 
REMARK    6  A    between atoms: C_11  and  C_16 
REMARK    7  A    between atoms: C_13  and  O_15 
ROOT
HETATM    1  C   UNL     1       8.093   0.684  22.613  1.00  0.00     0.033 C 
ENDROOT
BRANCH   1   2
HETATM    2  C   UNL     1       8.802   0.590  21.260  1.00  0.00     0.060 C 
BRANCH   2   3
HETATM    3  CA  UNL     1       8.521  -0.895  20.944  1.00  0.00     0.033 A 
HETATM    4  C   UNL     1       8.232  -1.127  19.761  1.00  0.00     0.264 A 
HETATM    5  N   UNL     1       8.824  -1.915  21.246  1.00  0.00    -0.362 N 
ATOM      6  HN  UNL     1       9.157  -2.664  21.853  1.00  0.00     0.162 HD
BRANCH   4   7
HETATM    7  O   UNL     1       7.372  -0.152  19.032  1.00  0.00    -0.371 OA
HETATM    8  H   UNL     1       7.811   0.403  18.417  1.00  0.00     0.212 HD
ENDBRANCH   4   7
ENDBRANCH   2   3
ENDBRANCH   1   2
BRANCH   1   9
HETATM    9  C   UNL     1       7.956  -0.481  23.498  1.00  0.00    -0.026 C 
BRANCH   9  10
HETATM   10  C   UNL     1       9.092  -1.212  23.711  1.00  0.00     0.007 C 
BRANCH  10  11
HETATM   11  C   UNL     1       9.292  -2.381  24.393  1.00  0.00    -0.007 C 
HETATM   12  C   UNL     1      10.230  -3.280  23.706  1.00  0.00     0.052 C 
BRANCH  11  13
HETATM   13  C   UNL     1       8.489  -2.615  25.573  1.00  0.00     0.196 A 
HETATM   14  N   UNL     1       8.115  -3.228  26.602  1.00  0.00    -0.235 N 
HETATM   15  O   UNL     1       7.465  -2.045  26.066  1.00  0.00    -0.215 OA
ATOM     16  HN  UNL     1       8.201  -3.979  27.287  1.00  0.00     0.197 HD
ENDBRANCH  11  13
ENDBRANCH  10  11
ENDBRANCH   9  10
ENDBRANCH   1   9
TORSDOF 7
