REMARK  6 active torsions:
REMARK  status: ('A' for Active; 'I' for Inactive)
REMARK    1  A    between atoms: N_2  and  C_4 
REMARK    2  A    between atoms: C_4  and  N_5 
REMARK    3  A    between atoms: N_5  and  C_7 
REMARK    4  A    between atoms: C_7  and  O_9 
REMARK    5  A    between atoms: C_10  and  C_11 
REMARK       I    between atoms: C_11  and  N_13 
REMARK    6  A    between atoms: N_15  and  C_23 
ROOT
HETATM    1  C   UNL     1       9.198  -0.039  21.309  1.00  0.00     0.263 C 
HETATM    2  O   UNL     1       9.524   1.000  20.747  1.00  0.00    -0.267 OA
HETATM    3  N   UNL     1       8.019  -0.662  21.247  1.00  0.00    -0.265 N 
ATOM      4  HN  UNL     1       8.008  -1.660  21.457  1.00  0.00     0.190 HD
HETATM    5  N   UNL     1       6.983  -0.155  20.969  1.00  0.00    -0.280 N 
ATOM      6  HN  UNL     1       6.311  -0.131  21.736  1.00  0.00     0.188 HD
ENDROOT
BRANCH   1   7
HETATM    7  C   UNL     1      10.001  -0.739  22.174  1.00  0.00     0.132 C 
HETATM    8  C   UNL     1      10.239  -1.407  23.235  1.00  0.00     0.155 C 
BRANCH   8   9
HETATM    9  N   UNL     1       9.137  -1.860  23.870  1.00  0.00    -0.288 N 
ATOM     10  HN  UNL     1       8.449  -1.117  23.988  1.00  0.00     0.179 HD
BRANCH   9  11
HETATM   11  C   UNL     1       8.744  -2.890  24.332  1.00  0.00     0.048 C 
BRANCH  11  12
HETATM   12  N   UNL     1       8.136  -3.817  24.759  1.00  0.00    -0.347 N 
HETATM   13  C   UNL     1       8.178  -4.389  26.071  1.00  0.00     0.157 C 
ATOM     14  HN  UNL     1       7.498  -4.266  24.102  1.00  0.00     0.170 HD
ENDBRANCH  11  12
ENDBRANCH   9  11
ENDBRANCH   8   9
BRANCH   8  15
HETATM   15  O   UNL     1      11.509  -1.741  23.654  1.00  0.00    -0.340 OA
HETATM   16  C   UNL     1      12.245  -0.547  23.570  1.00  0.00     0.211 C 
ENDBRANCH   8  15
ENDBRANCH   1   7
BRANCH   5  17
HETATM   17  C   UNL     1       6.557   0.365  19.887  1.00  0.00     0.158 C 
HETATM   18  N   UNL     1       7.286   0.389  18.718  1.00  0.00    -0.283 N 
HETATM   19  N   UNL     1       6.520   0.694  17.782  1.00  0.00    -0.308 N 
ATOM     20  HN  UNL     1       8.283   0.191  18.633  1.00  0.00     0.188 HD
HETATM   21  C   UNL     1       5.476   0.988  18.385  1.00  0.00     0.135 C 
ATOM     22  HN  UNL     1       6.704   0.700  16.779  1.00  0.00     0.186 HD
HETATM   23  C   UNL     1       5.325   0.912  19.698  1.00  0.00     0.097 C 
HETATM   24 CL   UNL     1       4.483   1.059  21.063  1.00  0.00    -0.079 Cl
ENDBRANCH   5  17
TORSDOF 6
