MODEL 1
REMARK VINA RESULT:    -7.111      0.000      0.000
REMARK INTER + INTRA:         -10.588
REMARK INTER:                  -9.605
REMARK INTRA:                  -0.983
REMARK UNBOUND:                -0.983
REMARK  6 active torsions:
REMARK  status: ('A' for Active; 'I' for Inactive)
REMARK    1  A    between atoms: S_2  and  N_5 
REMARK    2  A    between atoms: N_5  and  C_7 
REMARK    3  A    between atoms: C_7  and  C_8 
REMARK    4  A    between atoms: C_9  and  C_10 
REMARK    5  A    between atoms: C_10  and  C_11 
REMARK    6  A    between atoms: C_15  and  C_16 
REMARK       I    between atoms: C_16  and  N_18 
ROOT
HETATM    1  C   UNL     1       7.311  -4.251  26.205  1.00  0.00     0.035 A 
HETATM    2  C   UNL     1       7.021  -3.749  24.962  1.00  0.00     0.044 A 
HETATM    3  C   UNL     1       5.885  -3.436  24.805  1.00  0.00     0.031 C 
HETATM    4  C   UNL     1       7.819  -2.967  25.360  1.00  0.00     0.044 A 
ENDROOT
BRANCH   4   5
HETATM    5  C   UNL     1       8.729  -1.835  25.465  1.00  0.00     0.255 C 
HETATM    6  O   UNL     1       8.935  -1.361  26.536  1.00  0.00    -0.268 OA
HETATM    7  N   UNL     1       9.213  -1.529  24.279  1.00  0.00    -0.315 N 
HETATM    8  C   UNL     1      10.106  -0.683  24.215  1.00  0.00     0.105 A 
ATOM      9  HN  UNL     1       8.859  -1.980  23.436  1.00  0.00     0.170 HD
HETATM   10  C   UNL     1      11.346  -0.450  24.504  1.00  0.00    -0.011 A 
HETATM   11  C   UNL     1       9.734   0.725  23.484  1.00  0.00    -0.024 A 
HETATM   12  N   UNL     1      12.435   0.098  24.571  1.00  0.00    -0.331 N 
HETATM   13  C   UNL     1      11.935   1.198  23.969  1.00  0.00     0.097 A 
ATOM     14  HN  UNL     1      13.351  -0.167  24.934  1.00  0.00     0.175 HD
HETATM   15  C   UNL     1      10.851   1.444  23.528  1.00  0.00     0.027 A 
HETATM   16  C   UNL     1       8.440   0.998  22.987  1.00  0.00     0.051 C 
ENDBRANCH   4   5
BRANCH   1  17
HETATM   17  C   UNL     1       7.138  -5.082  27.091  1.00  0.00    -0.022 C 
BRANCH  17  18
HETATM   18  N   UNL     1       7.266  -6.044  27.723  1.00  0.00    -0.249 N 
ATOM     19  HN  UNL     1       8.042  -6.642  27.440  1.00  0.00     0.188 HD
BRANCH  18  20
HETATM   20  S   UNL     1       6.403  -6.597  28.997  1.00  0.00     0.233 S 
HETATM   21  C   UNL     1       4.979  -6.789  28.540  1.00  0.00     0.186 C 
HETATM   22  O   UNL     1       6.988  -7.848  29.442  1.00  0.00    -0.205 OA
HETATM   23  O   UNL     1       6.434  -5.620  30.061  1.00  0.00    -0.205 OA
ENDBRANCH  18  20
ENDBRANCH  17  18
ENDBRANCH   1  17
BRANCH   2  24
HETATM   24  C   UNL     1       7.413  -4.455  23.573  1.00  0.00    -0.007 C 
BRANCH  24  25
HETATM   25  C   UNL     1       7.678  -5.303  23.353  1.00  0.00    -0.003 C 
HETATM   26  C   UNL     1       7.103  -5.871  22.298  1.00  0.00    -0.011 C 
HETATM   27  C   UNL     1       6.515  -5.871  21.580  1.00  0.00     0.011 C 
ENDBRANCH  24  25
ENDBRANCH   2  24
TORSDOF 6
ENDMDL
MODEL 2
REMARK VINA RESULT:    -6.920      1.892      2.424
REMARK INTER + INTRA:         -10.330
REMARK INTER:                  -9.268
REMARK INTRA:                  -1.062
REMARK UNBOUND:                -0.983
REMARK  6 active torsions:
REMARK  status: ('A' for Active; 'I' for Inactive)
REMARK    1  A    between atoms: S_2  and  N_5 
REMARK    2  A    between atoms: N_5  and  C_7 
REMARK    3  A    between atoms: C_7  and  C_8 
REMARK    4  A    between atoms: C_9  and  C_10 
REMARK    5  A    between atoms: C_10  and  C_11 
REMARK    6  A    between atoms: C_15  and  C_16 
REMARK       I    between atoms: C_16  and  N_18 
ROOT
HETATM    1  C   UNL     1       5.617  -5.893  25.969  1.00  0.00     0.035 A 
HETATM    2  C   UNL     1       5.334  -5.235  24.800  1.00  0.00     0.044 A 
HETATM    3  C   UNL     1       4.455  -4.438  24.878  1.00  0.00     0.031 C 
HETATM    4  C   UNL     1       6.461  -4.920  24.991  1.00  0.00     0.044 A 
ENDROOT
BRANCH   4   5
HETATM    5  C   UNL     1       7.783  -4.323  24.859  1.00  0.00     0.255 C 
HETATM    6  O   UNL     1       8.742  -5.002  25.042  1.00  0.00    -0.268 OA
HETATM    7  N   UNL     1       7.679  -3.056  24.514  1.00  0.00    -0.315 N 
HETATM    8  C   UNL     1       8.707  -2.444  24.224  1.00  0.00     0.105 A 
ATOM      9  HN  UNL     1       6.770  -2.594  24.487  1.00  0.00     0.170 HD
HETATM   10  C   UNL     1       9.651  -2.345  23.344  1.00  0.00    -0.011 A 
HETATM   11  C   UNL     1       9.161  -1.249  25.235  1.00  0.00    -0.024 A 
HETATM   12  N   UNL     1      10.633  -1.942  22.741  1.00  0.00    -0.331 N 
HETATM   13  C   UNL     1      10.864  -1.023  23.702  1.00  0.00     0.097 A 
ATOM     14  HN  UNL     1      11.092  -2.195  21.866  1.00  0.00     0.175 HD
HETATM   15  C   UNL     1      10.267  -0.744  24.699  1.00  0.00     0.027 A 
HETATM   16  C   UNL     1       8.447  -0.949  26.417  1.00  0.00     0.051 C 
ENDBRANCH   4   5
BRANCH   1  17
HETATM   17  C   UNL     1       5.276  -6.616  26.900  1.00  0.00    -0.022 C 
BRANCH  17  18
HETATM   18  N   UNL     1       5.058  -6.974  27.980  1.00  0.00    -0.249 N 
ATOM     19  HN  UNL     1       4.221  -7.548  28.080  1.00  0.00     0.188 HD
BRANCH  18  20
HETATM   20  S   UNL     1       5.876  -6.707  29.371  1.00  0.00     0.233 S 
HETATM   21  C   UNL     1       4.869  -6.655  30.493  1.00  0.00     0.186 C 
HETATM   22  O   UNL     1       6.825  -7.788  29.562  1.00  0.00    -0.205 OA
HETATM   23  O   UNL     1       6.563  -5.440  29.290  1.00  0.00    -0.205 OA
ENDBRANCH  18  20
ENDBRANCH  17  18
ENDBRANCH   1  17
BRANCH   2  24
HETATM   24  C   UNL     1       5.070  -5.949  23.385  1.00  0.00    -0.007 C 
BRANCH  24  25
HETATM   25  C   UNL     1       4.924  -5.631  22.539  1.00  0.00    -0.003 C 
HETATM   26  C   UNL     1       5.931  -5.703  21.674  1.00  0.00    -0.011 C 
HETATM   27  C   UNL     1       6.798  -5.930  21.436  1.00  0.00     0.011 C 
ENDBRANCH  24  25
ENDBRANCH   2  24
TORSDOF 6
ENDMDL
MODEL 3
REMARK VINA RESULT:    -6.888      3.504      5.713
REMARK INTER + INTRA:         -10.288
REMARK INTER:                  -9.220
REMARK INTRA:                  -1.068
REMARK UNBOUND:                -0.983
REMARK  6 active torsions:
REMARK  status: ('A' for Active; 'I' for Inactive)
REMARK    1  A    between atoms: S_2  and  N_5 
REMARK    2  A    between atoms: N_5  and  C_7 
REMARK    3  A    between atoms: C_7  and  C_8 
REMARK    4  A    between atoms: C_9  and  C_10 
REMARK    5  A    between atoms: C_10  and  C_11 
REMARK    6  A    between atoms: C_15  and  C_16 
REMARK       I    between atoms: C_16  and  N_18 
ROOT
HETATM    1  C   UNL     1       8.832  -2.380  23.465  1.00  0.00     0.035 A 
HETATM    2  C   UNL     1       9.772  -1.383  23.412  1.00  0.00     0.044 A 
HETATM    3  C   UNL     1      10.892  -1.764  23.289  1.00  0.00     0.031 C 
HETATM    4  C   UNL     1       9.105  -1.140  22.463  1.00  0.00     0.044 A 
ENDROOT
BRANCH   4   5
HETATM    5  C   UNL     1       8.563  -0.518  21.262  1.00  0.00     0.255 C 
HETATM    6  O   UNL     1       9.314  -0.146  20.419  1.00  0.00    -0.268 OA
HETATM    7  N   UNL     1       7.247  -0.497  21.314  1.00  0.00    -0.315 N 
HETATM    8  C   UNL     1       6.630  -0.131  20.313  1.00  0.00     0.105 A 
ATOM      9  HN  UNL     1       6.752  -0.776  22.161  1.00  0.00     0.170 HD
HETATM   10  C   UNL     1       6.327  -0.455  19.098  1.00  0.00    -0.011 A 
HETATM   11  C   UNL     1       5.808   1.272  20.427  1.00  0.00    -0.024 A 
HETATM   12  N   UNL     1       5.814  -0.438  17.989  1.00  0.00    -0.331 N 
HETATM   13  C   UNL     1       5.231   0.748  18.261  1.00  0.00     0.097 A 
ATOM     14  HN  UNL     1       5.824  -1.065  17.185  1.00  0.00     0.175 HD
HETATM   15  C   UNL     1       5.225   1.429  19.244  1.00  0.00     0.027 A 
HETATM   16  C   UNL     1       5.832   2.067  21.595  1.00  0.00     0.051 C 
ENDBRANCH   4   5
BRANCH   1  17
HETATM   17  C   UNL     1       8.366  -3.385  23.993  1.00  0.00    -0.022 C 
BRANCH  17  18
HETATM   18  N   UNL     1       8.297  -4.349  24.630  1.00  0.00    -0.249 N 
ATOM     19  HN  UNL     1       8.550  -5.207  24.138  1.00  0.00     0.188 HD
BRANCH  18  20
HETATM   20  S   UNL     1       7.860  -4.560  26.192  1.00  0.00     0.233 S 
HETATM   21  C   UNL     1       6.877  -3.471  26.545  1.00  0.00     0.186 C 
HETATM   22  O   UNL     1       7.263  -5.875  26.331  1.00  0.00    -0.205 OA
HETATM   23  O   UNL     1       9.024  -4.442  27.038  1.00  0.00    -0.205 OA
ENDBRANCH  18  20
ENDBRANCH  17  18
ENDBRANCH   1  17
BRANCH   2  24
HETATM   24  C   UNL     1       9.896  -0.180  24.469  1.00  0.00    -0.007 C 
BRANCH  24  25
HETATM   25  C   UNL     1       9.280   0.322  24.924  1.00  0.00    -0.003 C 
HETATM   26  C   UNL     1       9.310   1.638  24.748  1.00  0.00    -0.011 C 
HETATM   27  C   UNL     1       9.654   2.411  24.368  1.00  0.00     0.011 C 
ENDBRANCH  24  25
ENDBRANCH   2  24
TORSDOF 6
ENDMDL
MODEL 4
REMARK VINA RESULT:    -6.819     13.934     16.246
REMARK INTER + INTRA:         -10.194
REMARK INTER:                  -9.098
REMARK INTRA:                  -1.096
REMARK UNBOUND:                -0.983
REMARK  6 active torsions:
REMARK  status: ('A' for Active; 'I' for Inactive)
REMARK    1  A    between atoms: S_2  and  N_5 
REMARK    2  A    between atoms: N_5  and  C_7 
REMARK    3  A    between atoms: C_7  and  C_8 
REMARK    4  A    between atoms: C_9  and  C_10 
REMARK    5  A    between atoms: C_10  and  C_11 
REMARK    6  A    between atoms: C_15  and  C_16 
REMARK       I    between atoms: C_16  and  N_18 
ROOT
HETATM    1  C   UNL     1      23.977  -3.141  23.479  1.00  0.00     0.035 A 
HETATM    2  C   UNL     1      23.966  -1.771  23.520  1.00  0.00     0.044 A 
HETATM    3  C   UNL     1      25.030  -1.270  23.695  1.00  0.00     0.031 C 
HETATM    4  C   UNL     1      23.565  -1.984  22.425  1.00  0.00     0.044 A 
ENDROOT
BRANCH   4   5
HETATM    5  C   UNL     1      23.057  -1.821  21.070  1.00  0.00     0.255 C 
HETATM    6  O   UNL     1      21.881  -1.749  20.902  1.00  0.00    -0.268 OA
HETATM    7  N   UNL     1      24.055  -1.753  20.213  1.00  0.00    -0.315 N 
HETATM    8  C   UNL     1      23.799  -1.474  19.041  1.00  0.00     0.105 A 
ATOM      9  HN  UNL     1      25.014  -1.928  20.512  1.00  0.00     0.170 HD
HETATM   10  C   UNL     1      23.394  -0.527  18.258  1.00  0.00    -0.011 A 
HETATM   11  C   UNL     1      24.049  -2.645  17.935  1.00  0.00    -0.024 A 
HETATM   12  N   UNL     1      23.103   0.094  17.248  1.00  0.00    -0.331 N 
HETATM   13  C   UNL     1      23.336  -0.999  16.491  1.00  0.00     0.097 A 
ATOM     14  HN  UNL     1      22.804   1.050  17.054  1.00  0.00     0.175 HD
HETATM   15  C   UNL     1      23.722  -2.096  16.770  1.00  0.00     0.027 A 
HETATM   16  C   UNL     1      24.490  -3.939  18.293  1.00  0.00     0.051 C 
ENDBRANCH   4   5
BRANCH   1  17
HETATM   17  C   UNL     1      24.210  -4.226  24.002  1.00  0.00    -0.022 C 
BRANCH  17  18
HETATM   18  N   UNL     1      24.036  -5.272  24.467  1.00  0.00    -0.249 N 
ATOM     19  HN  UNL     1      23.610  -5.954  23.839  1.00  0.00     0.188 HD
BRANCH  18  20
HETATM   20  S   UNL     1      24.363  -5.834  25.968  1.00  0.00     0.233 S 
HETATM   21  C   UNL     1      25.843  -5.669  26.209  1.00  0.00     0.186 C 
HETATM   22  O   UNL     1      23.584  -5.072  26.926  1.00  0.00    -0.205 OA
HETATM   23  O   UNL     1      24.023  -7.236  26.042  1.00  0.00    -0.205 OA
ENDBRANCH  18  20
ENDBRANCH  17  18
ENDBRANCH   1  17
BRANCH   2  24
HETATM   24  C   UNL     1      22.980  -0.888  24.431  1.00  0.00    -0.007 C 
BRANCH  24  25
HETATM   25  C   UNL     1      22.213  -0.419  24.254  1.00  0.00    -0.003 C 
HETATM   26  C   UNL     1      21.068  -0.926  24.699  1.00  0.00    -0.011 C 
HETATM   27  C   UNL     1      20.570  -1.568  25.145  1.00  0.00     0.011 C 
ENDBRANCH  24  25
ENDBRANCH   2  24
TORSDOF 6
ENDMDL
MODEL 5
REMARK VINA RESULT:    -6.808      4.337      8.052
REMARK INTER + INTRA:         -10.180
REMARK INTER:                  -9.218
REMARK INTRA:                  -0.962
REMARK UNBOUND:                -0.983
REMARK  6 active torsions:
REMARK  status: ('A' for Active; 'I' for Inactive)
REMARK    1  A    between atoms: S_2  and  N_5 
REMARK    2  A    between atoms: N_5  and  C_7 
REMARK    3  A    between atoms: C_7  and  C_8 
REMARK    4  A    between atoms: C_9  and  C_10 
REMARK    5  A    between atoms: C_10  and  C_11 
REMARK    6  A    between atoms: C_15  and  C_16 
REMARK       I    between atoms: C_16  and  N_18 
ROOT
HETATM    1  C   UNL     1       7.411  -1.679  22.212  1.00  0.00     0.035 A 
HETATM    2  C   UNL     1       8.350  -1.691  23.211  1.00  0.00     0.044 A 
HETATM    3  C   UNL     1       8.258  -0.798  23.990  1.00  0.00     0.031 C 
HETATM    4  C   UNL     1       7.786  -2.719  23.394  1.00  0.00     0.044 A 
ENDROOT
BRANCH   4   5
HETATM    5  C   UNL     1       7.380  -4.009  23.933  1.00  0.00     0.255 C 
HETATM    6  O   UNL     1       8.065  -4.959  23.727  1.00  0.00    -0.268 OA
HETATM    7  N   UNL     1       6.263  -3.886  24.619  1.00  0.00    -0.315 N 
HETATM    8  C   UNL     1       5.861  -4.858  25.258  1.00  0.00     0.105 A 
ATOM      9  HN  UNL     1       5.745  -3.007  24.622  1.00  0.00     0.170 HD
HETATM   10  C   UNL     1       6.110  -5.612  26.280  1.00  0.00    -0.011 A 
HETATM   11  C   UNL     1       4.473  -5.547  24.753  1.00  0.00    -0.024 A 
HETATM   12  N   UNL     1       5.993  -6.469  27.142  1.00  0.00    -0.331 N 
HETATM   13  C   UNL     1       4.862  -6.920  26.560  1.00  0.00     0.097 A 
ATOM     14  HN  UNL     1       6.531  -6.736  27.967  1.00  0.00     0.175 HD
HETATM   15  C   UNL     1       4.251  -6.543  25.604  1.00  0.00     0.027 A 
HETATM   16  C   UNL     1       3.779  -5.093  23.609  1.00  0.00     0.051 C 
ENDBRANCH   4   5
BRANCH   1  17
HETATM   17  C   UNL     1       6.871  -1.129  21.257  1.00  0.00    -0.022 C 
BRANCH  17  18
HETATM   18  N   UNL     1       6.052  -0.804  20.506  1.00  0.00    -0.249 N 
ATOM     19  HN  UNL     1       5.103  -1.071  20.767  1.00  0.00     0.188 HD
BRANCH  18  20
HETATM   20  S   UNL     1       6.170   0.015  19.096  1.00  0.00     0.233 S 
HETATM   21  C   UNL     1       5.152   1.128  19.123  1.00  0.00     0.186 C 
HETATM   22  O   UNL     1       7.519   0.535  18.975  1.00  0.00    -0.205 OA
HETATM   23  O   UNL     1       5.872  -0.874  17.996  1.00  0.00    -0.205 OA
ENDBRANCH  18  20
ENDBRANCH  17  18
ENDBRANCH   1  17
BRANCH   2  24
HETATM   24  C   UNL     1       9.934  -1.830  22.981  1.00  0.00    -0.007 C 
BRANCH  24  25
HETATM   25  C   UNL     1      10.527  -1.403  22.430  1.00  0.00    -0.003 C 
HETATM   26  C   UNL     1      11.732  -1.130  22.921  1.00  0.00    -0.011 C 
HETATM   27  C   UNL     1      12.370  -1.143  23.594  1.00  0.00     0.011 C 
ENDBRANCH  24  25
ENDBRANCH   2  24
TORSDOF 6
ENDMDL
MODEL 6
REMARK VINA RESULT:    -6.771      5.020      7.036
REMARK INTER + INTRA:         -10.129
REMARK INTER:                  -8.906
REMARK INTRA:                  -1.223
REMARK UNBOUND:                -0.983
REMARK  6 active torsions:
REMARK  status: ('A' for Active; 'I' for Inactive)
REMARK    1  A    between atoms: S_2  and  N_5 
REMARK    2  A    between atoms: N_5  and  C_7 
REMARK    3  A    between atoms: C_7  and  C_8 
REMARK    4  A    between atoms: C_9  and  C_10 
REMARK    5  A    between atoms: C_10  and  C_11 
REMARK    6  A    between atoms: C_15  and  C_16 
REMARK       I    between atoms: C_16  and  N_18 
ROOT
HETATM    1  C   UNL     1       8.660  -0.241  24.322  1.00  0.00     0.035 A 
HETATM    2  C   UNL     1       9.217  -1.294  23.644  1.00  0.00     0.044 A 
HETATM    3  C   UNL     1       8.784  -2.361  23.940  1.00  0.00     0.031 C 
HETATM    4  C   UNL     1       8.735  -0.664  22.762  1.00  0.00     0.044 A 
ENDROOT
BRANCH   4   5
HETATM    5  C   UNL     1       8.313  -0.206  21.446  1.00  0.00     0.255 C 
HETATM    6  O   UNL     1       9.142   0.079  20.643  1.00  0.00    -0.268 OA
HETATM    7  N   UNL     1       6.998  -0.208  21.362  1.00  0.00    -0.315 N 
HETATM    8  C   UNL     1       6.483   0.019  20.267  1.00  0.00     0.105 A 
ATOM      9  HN  UNL     1       6.422  -0.394  22.183  1.00  0.00     0.170 HD
HETATM   10  C   UNL     1       6.309  -0.457  19.077  1.00  0.00    -0.011 A 
HETATM   11  C   UNL     1       5.638   1.405  20.125  1.00  0.00    -0.024 A 
HETATM   12  N   UNL     1       5.913  -0.586  17.929  1.00  0.00    -0.331 N 
HETATM   13  C   UNL     1       5.291   0.610  17.993  1.00  0.00     0.097 A 
ATOM     14  HN  UNL     1       6.011  -1.306  17.213  1.00  0.00     0.175 HD
HETATM   15  C   UNL     1       5.178   1.404  18.879  1.00  0.00     0.027 A 
HETATM   16  C   UNL     1       5.534   2.336  21.183  1.00  0.00     0.051 C 
ENDBRANCH   4   5
BRANCH   1  17
HETATM   17  C   UNL     1       8.407   0.344  25.371  1.00  0.00    -0.022 C 
BRANCH  17  18
HETATM   18  N   UNL     1       8.224   1.206  26.122  1.00  0.00    -0.249 N 
ATOM     19  HN  UNL     1       8.590   1.042  27.059  1.00  0.00     0.188 HD
BRANCH  18  20
HETATM   20  S   UNL     1       7.473   2.645  25.922  1.00  0.00     0.233 S 
HETATM   21  C   UNL     1       6.236   2.407  25.092  1.00  0.00     0.186 C 
HETATM   22  O   UNL     1       7.138   3.176  27.230  1.00  0.00    -0.205 OA
HETATM   23  O   UNL     1       8.349   3.552  25.219  1.00  0.00    -0.205 OA
ENDBRANCH  18  20
ENDBRANCH  17  18
ENDBRANCH   1  17
BRANCH   2  24
HETATM   24  C   UNL     1      10.795  -1.557  23.492  1.00  0.00    -0.007 C 
BRANCH  24  25
HETATM   25  C   UNL     1      11.464  -1.119  23.047  1.00  0.00    -0.003 C 
HETATM   26  C   UNL     1      12.329  -0.420  23.775  1.00  0.00    -0.011 C 
HETATM   27  C   UNL     1      12.661  -0.104  24.581  1.00  0.00     0.011 C 
ENDBRANCH  24  25
ENDBRANCH   2  24
TORSDOF 6
ENDMDL
MODEL 7
REMARK VINA RESULT:    -6.704     24.006     27.208
REMARK INTER + INTRA:         -10.039
REMARK INTER:                  -8.788
REMARK INTRA:                  -1.251
REMARK UNBOUND:                -0.983
REMARK  6 active torsions:
REMARK  status: ('A' for Active; 'I' for Inactive)
REMARK    1  A    between atoms: S_2  and  N_5 
REMARK    2  A    between atoms: N_5  and  C_7 
REMARK    3  A    between atoms: C_7  and  C_8 
REMARK    4  A    between atoms: C_9  and  C_10 
REMARK    5  A    between atoms: C_10  and  C_11 
REMARK    6  A    between atoms: C_15  and  C_16 
REMARK       I    between atoms: C_16  and  N_18 
ROOT
HETATM    1  C   UNL     1       7.309  11.841   2.891  1.00  0.00     0.035 A 
HETATM    2  C   UNL     1       6.237  12.092   2.074  1.00  0.00     0.044 A 
HETATM    3  C   UNL     1       6.518  12.309   0.939  1.00  0.00     0.031 C 
HETATM    4  C   UNL     1       6.009  10.988   2.443  1.00  0.00     0.044 A 
ENDROOT
BRANCH   4   5
HETATM    5  C   UNL     1       5.383   9.690   2.653  1.00  0.00     0.255 C 
HETATM    6  O   UNL     1       5.347   8.917   1.749  1.00  0.00    -0.268 OA
HETATM    7  N   UNL     1       4.960   9.582   3.895  1.00  0.00    -0.315 N 
HETATM    8  C   UNL     1       4.533   8.491   4.273  1.00  0.00     0.105 A 
ATOM      9  HN  UNL     1       4.984  10.382   4.527  1.00  0.00     0.170 HD
HETATM   10  C   UNL     1       4.877   7.275   4.551  1.00  0.00    -0.011 A 
HETATM   11  C   UNL     1       2.944   8.404   4.624  1.00  0.00    -0.024 A 
HETATM   12  N   UNL     1       4.823   6.115   4.929  1.00  0.00    -0.331 N 
HETATM   13  C   UNL     1       3.495   6.228   5.136  1.00  0.00     0.097 A 
ATOM     14  HN  UNL     1       5.506   5.366   5.043  1.00  0.00     0.175 HD
HETATM   15  C   UNL     1       2.744   7.151   5.018  1.00  0.00     0.027 A 
HETATM   16  C   UNL     1       2.074   9.506   4.459  1.00  0.00     0.051 C 
ENDBRANCH   4   5
BRANCH   1  17
HETATM   17  C   UNL     1       8.371  12.186   3.400  1.00  0.00    -0.022 C 
BRANCH  17  18
HETATM   18  N   UNL     1       9.338  12.790   3.601  1.00  0.00    -0.249 N 
ATOM     19  HN  UNL     1      10.156  12.225   3.826  1.00  0.00     0.188 HD
BRANCH  18  20
HETATM   20  S   UNL     1       9.604  14.404   3.580  1.00  0.00     0.233 S 
HETATM   21  C   UNL     1       8.710  15.005   2.524  1.00  0.00     0.186 C 
HETATM   22  O   UNL     1       9.302  14.938   4.895  1.00  0.00    -0.205 OA
HETATM   23  O   UNL     1      10.984  14.660   3.237  1.00  0.00    -0.205 OA
ENDBRANCH  18  20
ENDBRANCH  17  18
ENDBRANCH   1  17
BRANCH   2  24
HETATM   24  C   UNL     1       5.073  13.155   2.384  1.00  0.00    -0.007 C 
BRANCH  24  25
HETATM   25  C   UNL     1       4.464  13.238   3.063  1.00  0.00    -0.003 C 
HETATM   26  C   UNL     1       3.176  13.206   2.739  1.00  0.00    -0.011 C 
HETATM   27  C   UNL     1       2.481  13.132   2.129  1.00  0.00     0.011 C 
ENDBRANCH  24  25
ENDBRANCH   2  24
TORSDOF 6
ENDMDL
MODEL 8
REMARK VINA RESULT:    -6.470      6.383      8.090
REMARK INTER + INTRA:          -9.723
REMARK INTER:                  -8.680
REMARK INTRA:                  -1.043
REMARK UNBOUND:                -0.983
REMARK  6 active torsions:
REMARK  status: ('A' for Active; 'I' for Inactive)
REMARK    1  A    between atoms: S_2  and  N_5 
REMARK    2  A    between atoms: N_5  and  C_7 
REMARK    3  A    between atoms: C_7  and  C_8 
REMARK    4  A    between atoms: C_9  and  C_10 
REMARK    5  A    between atoms: C_10  and  C_11 
REMARK    6  A    between atoms: C_15  and  C_16 
REMARK       I    between atoms: C_16  and  N_18 
ROOT
HETATM    1  C   UNL     1       8.414   1.308  22.537  1.00  0.00     0.035 A 
HETATM    2  C   UNL     1       9.743   1.532  22.788  1.00  0.00     0.044 A 
HETATM    3  C   UNL     1      10.400   1.756  21.822  1.00  0.00     0.031 C 
HETATM    4  C   UNL     1       9.230   2.413  23.393  1.00  0.00     0.044 A 
ENDROOT
BRANCH   4   5
HETATM    5  C   UNL     1       9.006   3.581  24.233  1.00  0.00     0.255 C 
HETATM    6  O   UNL     1       8.495   3.436  25.297  1.00  0.00    -0.268 OA
HETATM    7  N   UNL     1       9.459   4.665  23.637  1.00  0.00    -0.315 N 
HETATM    8  C   UNL     1       9.473   5.719  24.274  1.00  0.00     0.105 A 
ATOM      9  HN  UNL     1       9.790   4.632  22.672  1.00  0.00     0.170 HD
HETATM   10  C   UNL     1      10.037   6.332  25.264  1.00  0.00    -0.011 A 
HETATM   11  C   UNL     1       8.465   6.896  23.771  1.00  0.00    -0.024 A 
HETATM   12  N   UNL     1      10.348   7.207  26.057  1.00  0.00    -0.331 N 
HETATM   13  C   UNL     1       9.433   8.040  25.519  1.00  0.00     0.097 A 
ATOM     14  HN  UNL     1      11.025   7.280  26.816  1.00  0.00     0.175 HD
HETATM   15  C   UNL     1       8.682   7.914  24.597  1.00  0.00     0.027 A 
HETATM   16  C   UNL     1       7.575   6.715  22.688  1.00  0.00     0.051 C 
ENDBRANCH   4   5
BRANCH   1  17
HETATM   17  C   UNL     1       7.520   0.668  21.992  1.00  0.00    -0.022 C 
BRANCH  17  18
HETATM   18  N   UNL     1       6.582   0.429  21.357  1.00  0.00    -0.249 N 
ATOM     19  HN  UNL     1       5.734   0.253  21.896  1.00  0.00     0.188 HD
BRANCH  18  20
HETATM   20  S   UNL     1       6.396   0.328  19.735  1.00  0.00     0.233 S 
HETATM   21  C   UNL     1       5.725  -0.988  19.430  1.00  0.00     0.186 C 
HETATM   22  O   UNL     1       5.587   1.449  19.293  1.00  0.00    -0.205 OA
HETATM   23  O   UNL     1       7.693   0.360  19.099  1.00  0.00    -0.205 OA
ENDBRANCH  18  20
ENDBRANCH  17  18
ENDBRANCH   1  17
BRANCH   2  24
HETATM   24  C   UNL     1      10.685   0.575  23.671  1.00  0.00    -0.007 C 
BRANCH  24  25
HETATM   25  C   UNL     1      11.153   0.699  24.448  1.00  0.00    -0.003 C 
HETATM   26  C   UNL     1      12.357   0.143  24.535  1.00  0.00    -0.011 C 
HETATM   27  C   UNL     1      13.061  -0.356  24.194  1.00  0.00     0.011 C 
ENDBRANCH  24  25
ENDBRANCH   2  24
TORSDOF 6
ENDMDL
MODEL 9
REMARK VINA RESULT:    -6.338     23.437     26.026
REMARK INTER + INTRA:          -9.545
REMARK INTER:                  -8.148
REMARK INTRA:                  -1.396
REMARK UNBOUND:                -0.983
REMARK  6 active torsions:
REMARK  status: ('A' for Active; 'I' for Inactive)
REMARK    1  A    between atoms: S_2  and  N_5 
REMARK    2  A    between atoms: N_5  and  C_7 
REMARK    3  A    between atoms: C_7  and  C_8 
REMARK    4  A    between atoms: C_9  and  C_10 
REMARK    5  A    between atoms: C_10  and  C_11 
REMARK    6  A    between atoms: C_15  and  C_16 
REMARK       I    between atoms: C_16  and  N_18 
ROOT
HETATM    1  C   UNL     1       6.718  11.299   3.485  1.00  0.00     0.035 A 
HETATM    2  C   UNL     1       5.399  11.606   3.700  1.00  0.00     0.044 A 
HETATM    3  C   UNL     1       4.915  12.318   2.879  1.00  0.00     0.031 C 
HETATM    4  C   UNL     1       5.359  10.426   3.583  1.00  0.00     0.044 A 
ENDROOT
BRANCH   4   5
HETATM    5  C   UNL     1       4.895   9.048   3.509  1.00  0.00     0.255 C 
HETATM    6  O   UNL     1       4.824   8.521   2.445  1.00  0.00    -0.268 OA
HETATM    7  N   UNL     1       4.639   8.588   4.716  1.00  0.00    -0.315 N 
HETATM    8  C   UNL     1       4.372   7.392   4.840  1.00  0.00     0.105 A 
ATOM      9  HN  UNL     1       4.663   9.205   5.528  1.00  0.00     0.170 HD
HETATM   10  C   UNL     1       4.865   6.198   4.762  1.00  0.00    -0.011 A 
HETATM   11  C   UNL     1       2.854   7.023   5.304  1.00  0.00    -0.024 A 
HETATM   12  N   UNL     1       4.972   4.984   4.833  1.00  0.00    -0.331 N 
HETATM   13  C   UNL     1       3.675   4.875   5.186  1.00  0.00     0.097 A 
ATOM     14  HN  UNL     1       5.734   4.322   4.686  1.00  0.00     0.175 HD
HETATM   15  C   UNL     1       2.828   5.697   5.380  1.00  0.00     0.027 A 
HETATM   16  C   UNL     1       1.866   8.012   5.511  1.00  0.00     0.051 C 
ENDBRANCH   4   5
BRANCH   1  17
HETATM   17  C   UNL     1       7.887  11.643   3.341  1.00  0.00    -0.022 C 
BRANCH  17  18
HETATM   18  N   UNL     1       8.861  12.261   3.436  1.00  0.00    -0.249 N 
ATOM     19  HN  UNL     1       9.714  11.708   3.514  1.00  0.00     0.188 HD
BRANCH  18  20
HETATM   20  S   UNL     1       9.091  13.880   3.466  1.00  0.00     0.233 S 
HETATM   21  C   UNL     1       8.438  14.460   2.236  1.00  0.00     0.186 C 
HETATM   22  O   UNL     1       8.495  14.409   4.679  1.00  0.00    -0.205 OA
HETATM   23  O   UNL     1      10.506  14.167   3.432  1.00  0.00    -0.205 OA
ENDBRANCH  18  20
ENDBRANCH  17  18
ENDBRANCH   1  17
BRANCH   2  24
HETATM   24  C   UNL     1       4.798  12.161   5.083  1.00  0.00    -0.007 C 
BRANCH  24  25
HETATM   25  C   UNL     1       5.170  12.347   5.898  1.00  0.00    -0.003 C 
HETATM   26  C   UNL     1       4.746  11.641   6.941  1.00  0.00    -0.011 C 
HETATM   27  C   UNL     1       4.220  10.986   7.334  1.00  0.00     0.011 C 
ENDBRANCH  24  25
ENDBRANCH   2  24
TORSDOF 6
ENDMDL
