stable:False satoms:6 tatoms:24 sratio:0.25
  -OEChem-07092417453D

 24 25  0     1  0  0  0  0  0999 V2000
    6.7379   -4.7818   26.3987 C   0  0  0  0  0  0  0  0  0  0  0  0
    8.1401   -4.3064   26.1103 S   0  0  0  0  0  0  0  0  0  0  0  0
    9.0658   -5.4190   26.0117 O   0  0  0  0  0  0  0  0  0  0  0  0
    8.5565   -3.3944   27.1497 O   0  0  0  0  0  0  0  0  0  0  0  0
    8.1153   -3.5220   24.6750 N   0  0  0  0  0  0  0  0  0  0  0  0
    8.9241   -2.8743   24.1591 C   0  0  0  0  0  0  0  0  0  0  0  0
    9.4370   -1.9765   23.4987 C   0  0  0  0  0  0  0  0  0  0  0  0
   10.5267   -1.2200   23.1507 C   0  0  1  0  0  0  0  0  0  0  0  0
   11.2315   -0.1328   24.1005 C   0  0  0  0  0  0  0  0  0  0  0  0
   12.0805    0.2068   24.1431 C   0  0  0  0  0  0  0  0  0  0  0  0
   12.9964   -0.3265   23.3415 C   0  0  0  0  0  0  0  0  0  0  0  0
   13.2696   -0.9230   22.6848 C   0  0  0  0  0  0  0  0  0  0  0  0
   11.4408   -1.8399   22.7098 C   0  0  0  0  0  0  0  0  0  0  0  0
    9.6880   -0.7807   22.4368 C   0  0  3  0  0  0  0  0  0  0  0  0
    8.9813    0.0091   21.4390 C   0  0  0  0  0  0  0  0  0  0  0  0
    9.4905    0.9996   21.0226 O   0  0  0  0  0  0  0  0  0  0  0  0
    7.8341   -0.5616   21.1336 N   0  0  0  0  0  0  0  0  0  0  0  0
    7.1786   -0.0943   20.2018 C   0  0  0  0  0  0  0  0  0  0  0  0
    7.1550    0.0620   18.9184 C   0  0  0  0  0  0  0  0  0  0  0  0
    6.7726    0.3489   17.7935 N   0  0  0  0  0  0  0  0  0  0  0  0
    5.6551    0.9095   18.3007 C   0  0  0  0  0  0  0  0  0  0  0  0
    5.2468    1.0041   19.4206 C   0  0  0  0  0  0  0  0  0  0  0  0
    5.7557    0.6038   20.5808 C   0  0  0  0  0  0  0  0  0  0  0  0
    5.3041    0.7190   21.9153 C   0  0  0  0  0  0  0  0  0  0  0  0
 20 21  2  0  0  0  0
 19 20  1  0  0  0  0
 21 22  1  0  0  0  0
 18 19  2  0  0  0  0
 22 23  2  0  0  0  0
 18 23  1  0  0  0  0
 17 18  1  0  0  0  0
 23 24  1  0  0  0  0
 15 16  2  0  0  0  0
 15 17  1  0  0  0  0
 14 15  1  0  0  0  0
  8 14  1  0  0  0  0
  7 14  1  0  0  0  0
 11 12  2  0  0  0  0
  8 13  1  0  0  0  0
  7  8  1  0  0  0  0
  8  9  1  0  0  0  0
 10 11  1  0  0  0  0
  6  7  2  0  0  0  0
  9 10  2  0  0  0  0
  5  6  1  0  0  0  0
  2  5  1  0  0  0  0
  2  3  2  0  0  0  0
  1  2  1  0  0  0  0
  2  4  2  0  0  0  0
M  END
> <Shapegauss>
-286.147125

$$$$
