stable:False satoms:5 tatoms:24 sratio:0.20833333333333334
  -OEChem-07092417453D

 24 26  0     1  0  0  0  0  0999 V2000
    6.7228   -4.7433   26.4226 C   0  0  0  0  0  0  0  0  0  0  0  0
    8.1472   -4.2967   26.1220 S   0  0  0  0  0  0  0  0  0  0  0  0
    9.0028   -5.4334   25.9974 O   0  0  0  0  0  0  0  0  0  0  0  0
    8.6256   -3.3835   27.1079 O   0  0  0  0  0  0  0  0  0  0  0  0
    8.1106   -3.5281   24.6488 N   0  0  0  0  0  0  0  0  0  0  0  0
    8.9533   -2.9176   24.1448 C   0  0  0  0  0  0  0  0  0  0  0  0
    9.4351   -1.9601   23.4697 C   0  0  0  0  0  0  0  0  0  0  0  0
   10.3685   -1.0675   23.3025 C   0  0  1  0  0  0  0  0  0  0  0  0
   11.0383   -0.0536   24.2459 C   0  0  0  0  0  0  0  0  0  0  0  0
   12.0983    0.2640   24.2200 C   0  0  0  0  0  0  0  0  0  0  0  0
   13.1089   -0.1691   23.4831 C   0  0  0  0  0  0  0  0  0  0  0  0
   12.7543   -1.2245   22.6789 C   0  0  0  0  0  0  0  0  0  0  0  0
   11.8309   -1.7348   22.5277 C   0  0  0  0  0  0  0  0  0  0  0  0
    9.6222   -0.7778   22.4000 C   0  0  2  0  0  0  0  0  0  0  0  0
    9.0158    0.0316   21.3965 C   0  0  0  0  0  0  0  0  0  0  0  0
    9.5593    0.9589   21.0034 O   0  0  0  0  0  0  0  0  0  0  0  0
    7.8700   -0.5363   21.1835 N   0  0  0  0  0  0  0  0  0  0  0  0
    7.1513   -0.0760   20.2571 C   0  0  0  0  0  0  0  0  0  0  0  0
    7.2224    0.0457   18.9499 C   0  0  0  0  0  0  0  0  0  0  0  0
    6.7914    0.2931   17.8126 N   0  0  0  0  0  0  0  0  0  0  0  0
    5.6895    0.8495   18.2332 C   0  0  0  0  0  0  0  0  0  0  0  0
    5.3014    0.9606   19.4201 C   0  0  0  0  0  0  0  0  0  0  0  0
    5.7924    0.5605   20.5928 C   0  0  0  0  0  0  0  0  0  0  0  0
    5.3718    0.6483   21.6763 C   0  0  0  0  0  0  0  0  0  0  0  0
 20 21  2  0  0  0  0
 19 20  1  0  0  0  0
 21 22  1  0  0  0  0
 18 19  2  0  0  0  0
 22 23  2  0  0  0  0
 18 23  1  0  0  0  0
 17 18  1  0  0  0  0
 23 24  1  0  0  0  0
 15 16  2  0  0  0  0
 15 17  1  0  0  0  0
 14 15  1  0  0  0  0
  8 14  1  0  0  0  0
  7 14  1  0  0  0  0
 12 13  1  0  0  0  0
  8 13  1  0  0  0  0
 11 12  2  0  0  0  0
  7  8  1  0  0  0  0
  8  9  1  0  0  0  0
  6  7  2  3  0  0  0
 10 11  1  0  0  0  0
  5  6  1  0  0  0  0
  9 10  2  0  0  0  0
  2  5  1  0  0  0  0
  2  3  2  0  0  0  0
  1  2  1  0  0  0  0
  2  4  2  0  0  0  0
M  END
> <Shapegauss>
-287.826416

$$$$
