stable:False satoms:18 tatoms:24 sratio:0.75
  -OEChem-07092417313D

 24 24  0     1  0  0  0  0  0999 V2000
    8.4876   -3.5472   23.7707 H   0  0  0  0  0  0  0  0  0  0  0  0
    7.2987   -0.2180   22.9707 N   0  0  0  0  0  0  0  0  0  0  0  0
   10.3803   -2.3722   23.4719 C   0  0  2  0  0  0  0  0  0  0  0  0
    8.3006    0.6201   24.5970 H   0  0  0  0  0  0  0  0  0  0  0  0
    7.9054   -3.4495   21.4115 H   0  0  0  0  0  0  0  0  0  0  0  0
   10.7319   -1.1932   21.7092 H   0  0  0  0  0  0  0  0  0  0  0  0
    9.0258   -1.2802   24.6797 H   0  0  0  0  0  0  0  0  0  0  0  0
    9.1585   -3.1010   23.0634 C   0  5  3  0  0  0  0  0  0  0  0  0
   11.0724   -1.4587   24.4106 O   0  0  0  0  0  0  0  0  0  0  0  0
    9.9092   -1.1723   23.9930 C   0  0  1  0  0  0  0  0  0  0  0  0
    8.4004    0.5436   23.4826 C   0  0  1  0  0  0  0  0  0  0  0  0
    9.6785   -0.0086   23.1530 O   0  0  0  0  0  0  0  0  0  0  0  0
   11.2213   -2.8537   22.9423 H   0  0  0  0  0  0  0  0  0  0  0  0
    9.6294   -3.9831   21.2506 H   0  0  0  0  0  0  0  0  0  0  0  0
    9.2482   -2.0602   20.8266 O   0  0  0  0  0  0  0  0  0  0  0  0
    8.3794    1.8110   22.9194 O   0  0  0  0  0  0  0  0  0  0  0  0
    8.9515   -3.2024   21.6142 C   0  0  0  0  0  0  0  0  0  0  0  0
    7.0888   -1.1255   21.0641 H   0  0  0  0  0  0  0  0  0  0  0  0
   10.1380   -1.2112   20.9076 O   0  0  0  0  0  0  0  0  0  0  0  0
    7.6015    1.1147   20.5357 S   0  0  0  0  0  0  0  0  0  0  0  0
    6.8251   -0.1717   21.5493 C   0  0  0  0  0  0  0  0  0  0  0  0
    5.7461    0.0054   21.4962 H   0  0  0  0  0  0  0  0  0  0  0  0
    7.6495    1.9228   22.0045 H   0  0  0  0  0  0  0  0  0  0  0  0
    6.7560   -0.8988   23.4733 H   0  0  0  0  0  0  0  0  0  0  0  0
 20 21  1  0  0  0  0
 15 19  1  0  0  0  0
 15 17  1  0  0  0  0
  6 19  1  0  0  0  0
 18 21  1  0  0  0  0
 14 17  1  0  0  0  0
  5 17  1  0  0  0  0
 21 22  1  0  0  0  0
  2 21  1  0  0  0  0
  8 17  1  0  0  0  0
 16 23  1  0  0  0  0
 11 16  1  0  0  0  0
  3 13  1  0  0  0  0
  2 24  1  0  0  0  0
  2 11  1  0  0  0  0
  3  8  1  0  0  0  0
  1  8  1  0  0  0  0
 11 12  1  0  0  0  0
 10 12  1  0  0  0  0
  3 10  1  0  0  0  0
  3  9  1  0  0  0  0
  4 11  1  0  0  0  0
  9 10  1  0  0  0  0
  7 10  1  0  0  0  0
M  CHG  1   8  -1
M  END
> <Shapegauss>
-98.698959

$$$$
