stable:False satoms:18 tatoms:24 sratio:0.75
  -OEChem-08052418263D

 27 27  0     1  0  0  0  0  0999 V2000
   11.8235    1.1661   22.6648 H   0  0  0  0  0  0  0  0  0  0  0  0
   10.3177   -0.7027   21.6216 N   0  3  0  0  0  0  0  0  0  0  0  0
   12.1010    0.6535   24.6824 C   0  0  2  0  0  0  0  0  0  0  0  0
   11.6877   -2.1795   22.1630 H   0  0  0  0  0  0  0  0  0  0  0  0
   10.1545    2.7269   22.8269 H   0  0  0  0  0  0  0  0  0  0  0  0
   10.1269    0.0888   25.3185 H   0  0  0  0  0  0  0  0  0  0  0  0
   12.5738   -0.5528   23.0070 H   0  0  0  0  0  0  0  0  0  0  0  0
   11.7683    1.6578   23.6472 C   0  0  3  0  0  0  0  0  0  0  0  0
   12.7584   -0.6163   25.0697 O   0  0  0  0  0  0  0  0  0  0  0  0
   12.0645   -0.5624   24.0090 C   0  0  1  0  0  0  0  0  0  0  0  0
   10.7118   -1.7531   22.5144 C   0  0  1  0  0  0  0  0  0  0  0  0
   10.8368   -1.3292   23.8752 O   0  0  0  0  0  0  0  0  0  0  0  0
   11.9390    1.1465   25.6573 H   0  0  0  0  0  0  0  0  0  0  0  0
   10.5074    3.0080   24.5817 H   0  0  0  0  0  0  0  0  0  0  0  0
    9.3622    1.4201   24.1459 O   0  0  0  0  0  0  0  0  0  0  0  0
    9.7383   -2.7412   22.5141 O   0  0  0  0  0  0  0  0  0  0  0  0
   10.4395    2.2666   23.7773 C   0  0  0  0  0  0  0  0  0  0  0  0
    8.8578    0.8085   21.9178 H   0  0  0  0  0  0  0  0  0  0  0  0
    9.2922    0.4648   24.9216 O   0  0  0  0  0  0  0  0  0  0  0  0
    7.6637   -1.1791   22.3472 S   0  0  0  0  0  0  0  0  0  0  0  0
    8.9136   -0.1989   21.4743 C   0  0  0  0  0  0  0  0  0  0  0  0
    8.6080   -0.1777   20.4233 H   0  0  0  0  0  0  0  0  0  0  0  0
    8.7290   -2.4269   21.9995 H   0  0  0  0  0  0  0  0  0  0  0  0
   10.5915   -1.0077   20.7095 H   0  0  0  0  0  0  0  0  0  0  0  0
   12.5180    2.4611   23.6979 H   0  0  0  0  0  0  0  0  0  0  0  0
    6.5691   -0.5397   22.0590 H   0  0  0  0  0  0  0  0  0  0  0  0
   10.8631    0.0931   21.8847 H   0  0  0  0  0  0  0  0  0  0  0  0
 20 21  1  0  0  0  0
 15 19  1  0  0  0  0
 15 17  1  0  0  0  0
  6 19  1  0  0  0  0
 18 21  1  0  0  0  0
 14 17  1  0  0  0  0
  5 17  1  0  0  0  0
 21 22  1  0  0  0  0
  2 21  1  0  0  0  0
  8 17  1  0  0  0  0
 16 23  1  0  0  0  0
 11 16  1  0  0  0  0
  3 13  1  0  0  0  0
  2 24  1  0  0  0  0
  2 11  1  0  0  0  0
  3  8  1  0  0  0  0
  1  8  1  0  0  0  0
 11 12  1  0  0  0  0
 10 12  1  0  0  0  0
  3 10  1  0  0  0  0
  3  9  1  0  0  0  0
  4 11  1  0  0  0  0
  9 10  1  0  0  0  0
  7 10  1  0  0  0  0
  8 25  1  0  0  0  0
 20 26  1  0  0  0  0
  2 27  1  0  0  0  0
M  CHG  1   2   1
M  END
> <Chemgauss4>
-5.801372

$$$$
