stable:False satoms:18 tatoms:24 sratio:0.75
  -OEChem-08052418263D

 27 27  0     1  0  0  0  0  0999 V2000
  -11.3988    1.4301  -22.8110 H   0  0  0  0  0  0  0  0  0  0  0  0
  -10.4999   -0.7807  -21.7376 N   0  3  0  0  0  0  0  0  0  0  0  0
  -12.0833    0.9269  -24.7317 C   0  0  2  0  0  0  0  0  0  0  0  0
  -12.3463   -1.7163  -21.9951 H   0  0  0  0  0  0  0  0  0  0  0  0
   -9.3328    2.2979  -23.2873 H   0  0  0  0  0  0  0  0  0  0  0  0
  -10.5142   -0.3280  -25.4958 H   0  0  0  0  0  0  0  0  0  0  0  0
  -12.7249    0.0638  -22.9071 H   0  0  0  0  0  0  0  0  0  0  0  0
  -11.3028    1.8120  -23.8381 C   0  0  3  0  0  0  0  0  0  0  0  0
  -13.1758   -0.0545  -24.9259 O   0  0  0  0  0  0  0  0  0  0  0  0
  -12.3784   -0.1827  -23.9476 C   0  0  1  0  0  0  0  0  0  0  0  0
  -11.3356   -1.6790  -22.4795 C   0  0  1  0  0  0  0  0  0  0  0  0
  -11.4778   -1.3202  -23.8573 O   0  0  0  0  0  0  0  0  0  0  0  0
  -11.8864    1.2732  -25.7617 H   0  0  0  0  0  0  0  0  0  0  0  0
   -9.7852    2.5790  -25.0191 H   0  0  0  0  0  0  0  0  0  0  0  0
   -9.2028    0.7205  -24.5403 O   0  0  0  0  0  0  0  0  0  0  0  0
  -10.7637   -2.9427  -22.4749 O   0  0  0  0  0  0  0  0  0  0  0  0
   -9.8735    1.9100  -24.1554 C   0  0  0  0  0  0  0  0  0  0  0  0
   -8.6624    0.1056  -22.3215 H   0  0  0  0  0  0  0  0  0  0  0  0
   -9.5588   -0.2438  -25.2205 O   0  0  0  0  0  0  0  0  0  0  0  0
   -8.2782   -2.1955  -22.6646 S   0  0  0  0  0  0  0  0  0  0  0  0
   -9.0015   -0.7906  -21.7769 C   0  0  0  0  0  0  0  0  0  0  0  0
   -8.5782   -0.8146  -20.7676 H   0  0  0  0  0  0  0  0  0  0  0  0
   -9.6518   -2.9701  -22.0938 H   0  0  0  0  0  0  0  0  0  0  0  0
  -10.7449   -0.9159  -20.7775 H   0  0  0  0  0  0  0  0  0  0  0  0
  -11.7351    2.8218  -23.8958 H   0  0  0  0  0  0  0  0  0  0  0  0
   -7.0046   -1.9622  -22.5481 H   0  0  0  0  0  0  0  0  0  0  0  0
  -10.7707    0.1381  -22.0245 H   0  0  0  0  0  0  0  0  0  0  0  0
 20 21  1  0  0  0  0
 15 19  1  0  0  0  0
 15 17  1  0  0  0  0
  6 19  1  0  0  0  0
 18 21  1  0  0  0  0
 14 17  1  0  0  0  0
  5 17  1  0  0  0  0
 21 22  1  0  0  0  0
  2 21  1  0  0  0  0
  8 17  1  0  0  0  0
 16 23  1  0  0  0  0
 11 16  1  0  0  0  0
  3 13  1  0  0  0  0
  2 24  1  0  0  0  0
  2 11  1  0  0  0  0
  3  8  1  0  0  0  0
  1  8  1  0  0  0  0
 11 12  1  0  0  0  0
 10 12  1  0  0  0  0
  3 10  1  0  0  0  0
  3  9  1  0  0  0  0
  4 11  1  0  0  0  0
  9 10  1  0  0  0  0
  7 10  1  0  0  0  0
  8 25  1  0  0  0  0
 20 26  1  0  0  0  0
  2 27  1  0  0  0  0
M  CHG  1   2   1
M  END
> <Chemgauss4>
-6.369357

$$$$
