stable:False satoms:19 tatoms:24 sratio:0.7916666666666666
  -OEChem-07092417283D

 24 24  0     0  0  0  0  0  0999 V2000
    8.6689   -5.1120   21.0650 C   0  0  0  0  0  0  0  0  0  0  0  0
    7.6034   -1.8338   22.0583 H   0  0  0  0  0  0  0  0  0  0  0  0
    8.9645   -2.3917   23.5562 C   0  0  0  0  0  0  0  0  0  0  0  0
    8.3578   -4.4211   23.8665 H   0  0  0  0  0  0  0  0  0  0  0  0
    8.5411    0.1575   21.4085 N   0  0  0  0  0  0  0  0  0  0  0  0
    8.7590    0.6471   24.7339 H   0  0  0  0  0  0  0  0  0  0  0  0
    8.6312    0.9923   23.7119 C   0  0  0  0  0  0  0  0  0  0  0  0
    8.5287   -3.9515   21.8349 O   0  0  0  0  0  0  0  0  0  0  0  0
    8.4984   -0.0473   22.7025 C   0  0  0  0  0  0  0  0  0  0  0  0
    7.7296   -5.6676   21.0809 H   0  0  0  0  0  0  0  0  0  0  0  0
   10.0082   -4.2540   23.2336 H   0  0  0  0  0  0  0  0  0  0  0  0
    8.5963    2.9799   24.4440 H   0  0  0  0  0  0  0  0  0  0  0  0
    8.9837   -3.8490   23.1511 C   0  0  0  0  0  0  0  0  0  0  0  0
    8.7172    3.0947   20.2248 H   0  0  0  0  0  0  0  0  0  0  0  0
    8.5958    2.3919   23.5450 C   0  0  0  0  0  0  0  0  0  0  0  0
    9.4849   -5.7797   21.3940 H   0  0  0  0  0  0  0  0  0  0  0  0
    8.3130   -1.4637   22.7994 C   0  0  0  0  0  0  0  0  0  0  0  0
    8.5335    3.0922   22.3561 C   0  0  0  0  0  0  0  0  0  0  0  0
    9.8319   -2.9240   25.0969 H   0  0  0  0  0  0  0  0  0  0  0  0
    8.6688    1.2305   20.8647 N   0  0  0  0  0  0  0  0  0  0  0  0
    9.6619   -2.0750   24.6365 O   0  0  0  0  0  0  0  0  0  0  0  0
    8.8688   -4.7855   20.0435 H   0  0  0  0  0  0  0  0  0  0  0  0
    8.3920    4.1852   22.3802 H   0  0  0  0  0  0  0  0  0  0  0  0
    8.6454    2.4946   21.1082 C   0  3  0  0  0  0  0  0  0  0  0  0
  1 22  1  0  0  0  0
 14 24  1  0  0  0  0
 20 24  1  0  0  0  0
  5 20  2  0  0  0  0
  1 10  1  0  0  0  0
  1 16  1  0  0  0  0
  1  8  1  0  0  0  0
 18 24  1  0  0  0  0
  5  9  1  0  0  0  0
  8 13  1  0  0  0  0
  2 17  1  0  0  0  0
 18 23  1  0  0  0  0
 15 18  2  0  0  0  0
  9 17  1  0  0  0  0
  7  9  2  0  0  0  0
  3 17  2  0  0  0  0
 11 13  1  0  0  0  0
  3 13  1  0  0  0  0
  4 13  1  0  0  0  0
  7 15  1  0  0  0  0
 12 15  1  0  0  0  0
  3 21  1  0  0  0  0
  6  7  1  0  0  0  0
 19 21  1  0  0  0  0
M  CHG  1  24   1
M  END
> <Shapegauss>
-91.464073

$$$$
