stable:False satoms:19 tatoms:24 sratio:0.7916666666666666
  -OEChem-08052415433D

 24 24  0     0  0  0  0  0  0999 V2000
   12.7601   -0.5041   24.0245 C   0  0  0  0  0  0  0  0  0  0  0  0
    9.4608   -1.5540   24.9632 H   0  0  0  0  0  0  0  0  0  0  0  0
    9.6518   -2.2200   22.9814 C   0  0  0  0  0  0  0  0  0  0  0  0
   10.5832   -0.5032   22.1051 H   0  0  0  0  0  0  0  0  0  0  0  0
    8.9001   -3.5326   25.9818 N   0  0  0  0  0  0  0  0  0  0  0  0
    6.8193   -3.8032   23.3470 H   0  0  0  0  0  0  0  0  0  0  0  0
    7.0906   -3.9678   24.3858 C   0  0  0  0  0  0  0  0  0  0  0  0
   11.4713   -1.0405   23.9216 O   0  0  0  0  0  0  0  0  0  0  0  0
    8.3010   -3.2996   24.8394 C   0  0  0  0  0  0  0  0  0  0  0  0
   12.6891    0.5798   24.1300 H   0  0  0  0  0  0  0  0  0  0  0  0
   11.5983   -1.9598   22.0843 H   0  0  0  0  0  0  0  0  0  0  0  0
    5.3061   -5.0852   24.6195 H   0  0  0  0  0  0  0  0  0  0  0  0
   10.8840   -1.3879   22.7033 C   0  0  0  0  0  0  0  0  0  0  0  0
    7.6294   -5.4995   28.1209 H   0  0  0  0  0  0  0  0  0  0  0  0
    6.2082   -4.7862   25.1203 C   0  0  0  0  0  0  0  0  0  0  0  0
   13.4190   -0.7378   23.1694 H   0  0  0  0  0  0  0  0  0  0  0  0
    9.1298   -2.2988   24.2383 C   0  0  0  0  0  0  0  0  0  0  0  0
    6.3600   -5.2254   26.4211 C   0  0  0  0  0  0  0  0  0  0  0  0
    9.5688   -2.5041   21.1588 H   0  0  0  0  0  0  0  0  0  0  0  0
    8.5277   -4.3084   26.8320 N   0  0  0  0  0  0  0  0  0  0  0  0
    9.1631   -2.9031   21.9575 O   0  0  0  0  0  0  0  0  0  0  0  0
   13.1984   -0.9195   24.9330 H   0  0  0  0  0  0  0  0  0  0  0  0
    5.5314   -5.7644   26.9090 H   0  0  0  0  0  0  0  0  0  0  0  0
    7.5156   -5.0311   27.1653 C   0  3  0  0  0  0  0  0  0  0  0  0
  1 22  1  0  0  0  0
 14 24  1  0  0  0  0
 20 24  1  0  0  0  0
  5 20  2  0  0  0  0
  1 10  1  0  0  0  0
  1 16  1  0  0  0  0
  1  8  1  0  0  0  0
 18 24  1  0  0  0  0
  5  9  1  0  0  0  0
  8 13  1  0  0  0  0
  2 17  1  0  0  0  0
 18 23  1  0  0  0  0
 15 18  2  0  0  0  0
  9 17  1  0  0  0  0
  7  9  2  0  0  0  0
  3 17  2  0  0  0  0
 11 13  1  0  0  0  0
  3 13  1  0  0  0  0
  4 13  1  0  0  0  0
  7 15  1  0  0  0  0
 12 15  1  0  0  0  0
  3 21  1  0  0  0  0
  6  7  1  0  0  0  0
 19 21  1  0  0  0  0
M  CHG  1  24   1
M  END
> <Chemgauss4>
-6.863108

$$$$
