stable:False satoms:19 tatoms:24 sratio:0.7916666666666666
  -OEChem-08052415433D

 24 24  0     0  0  0  0  0  0999 V2000
  -12.8984   -0.4036  -24.1610 C   0  0  0  0  0  0  0  0  0  0  0  0
   -9.5992   -1.4535  -25.0997 H   0  0  0  0  0  0  0  0  0  0  0  0
   -9.7901   -2.1195  -23.1179 C   0  0  0  0  0  0  0  0  0  0  0  0
  -10.7216   -0.4027  -22.2416 H   0  0  0  0  0  0  0  0  0  0  0  0
   -9.0385   -3.4321  -26.1183 N   0  0  0  0  0  0  0  0  0  0  0  0
   -6.9576   -3.7027  -23.4835 H   0  0  0  0  0  0  0  0  0  0  0  0
   -7.2290   -3.8673  -24.5224 C   0  0  0  0  0  0  0  0  0  0  0  0
  -11.6097   -0.9400  -24.0581 O   0  0  0  0  0  0  0  0  0  0  0  0
   -8.4394   -3.1991  -24.9759 C   0  0  0  0  0  0  0  0  0  0  0  0
  -12.8274    0.6804  -24.2665 H   0  0  0  0  0  0  0  0  0  0  0  0
  -11.7367   -1.8592  -22.2208 H   0  0  0  0  0  0  0  0  0  0  0  0
   -5.4444   -4.9847  -24.7561 H   0  0  0  0  0  0  0  0  0  0  0  0
  -11.0224   -1.2873  -22.8398 C   0  0  0  0  0  0  0  0  0  0  0  0
   -7.7678   -5.3990  -28.2575 H   0  0  0  0  0  0  0  0  0  0  0  0
   -6.3465   -4.6857  -25.2568 C   0  0  0  0  0  0  0  0  0  0  0  0
  -13.5574   -0.6372  -23.3059 H   0  0  0  0  0  0  0  0  0  0  0  0
   -9.2682   -2.1982  -24.3748 C   0  0  0  0  0  0  0  0  0  0  0  0
   -6.4984   -5.1248  -26.5576 C   0  0  0  0  0  0  0  0  0  0  0  0
   -9.7071   -2.4036  -21.2953 H   0  0  0  0  0  0  0  0  0  0  0  0
   -8.6660   -4.2078  -26.9685 N   0  0  0  0  0  0  0  0  0  0  0  0
   -9.3015   -2.8025  -22.0940 O   0  0  0  0  0  0  0  0  0  0  0  0
  -13.3368   -0.8189  -25.0695 H   0  0  0  0  0  0  0  0  0  0  0  0
   -5.6698   -5.6639  -27.0455 H   0  0  0  0  0  0  0  0  0  0  0  0
   -7.6539   -4.9306  -27.3018 C   0  3  0  0  0  0  0  0  0  0  0  0
  1 22  1  0  0  0  0
 14 24  1  0  0  0  0
 20 24  1  0  0  0  0
  5 20  2  0  0  0  0
  1 10  1  0  0  0  0
  1 16  1  0  0  0  0
  1  8  1  0  0  0  0
 18 24  1  0  0  0  0
  5  9  1  0  0  0  0
  8 13  1  0  0  0  0
  2 17  1  0  0  0  0
 18 23  1  0  0  0  0
 15 18  2  0  0  0  0
  9 17  1  0  0  0  0
  7  9  2  0  0  0  0
  3 17  2  0  0  0  0
 11 13  1  0  0  0  0
  3 13  1  0  0  0  0
  4 13  1  0  0  0  0
  7 15  1  0  0  0  0
 12 15  1  0  0  0  0
  3 21  1  0  0  0  0
  6  7  1  0  0  0  0
 19 21  1  0  0  0  0
M  CHG  1  24   1
M  END
> <Chemgauss4>
-6.717330

$$$$
