stable:False satoms:18 tatoms:24 sratio:0.75
  -OEChem-07092417303D

 24 23  0     0  0  0  0  0  0999 V2000
    7.8447   -0.4956   23.9802 N   0  3  0  0  0  0  0  0  0  0  0  0
    9.5778   -1.4651   22.7159 C   0  0  0  0  0  0  0  0  0  0  0  0
   10.4184   -2.1289   23.5166 N   0  0  0  0  0  0  0  0  0  0  0  0
    7.6048    1.7783   23.7143 H   0  0  0  0  0  0  0  0  0  0  0  0
    8.8711   -0.5265   23.2177 N   0  3  0  0  0  0  0  0  0  0  0  0
    5.5369   -1.6881   23.6379 H   0  0  0  0  0  0  0  0  0  0  0  0
    5.9507    1.9731   23.4312 H   0  0  0  0  0  0  0  0  0  0  0  0
   10.9749   -2.8861   23.1165 H   0  0  0  0  0  0  0  0  0  0  0  0
    4.6543   -0.2622   23.3949 H   0  0  0  0  0  0  0  0  0  0  0  0
    8.5611   -2.5190   18.9778 H   0  0  0  0  0  0  0  0  0  0  0  0
    8.5128   -1.5439   19.2754 N   0  0  0  0  0  0  0  0  0  0  0  0
   11.0763   -1.4259   24.5976 C   0  0  0  0  0  0  0  0  0  0  0  0
   10.2938   -2.7160   20.6926 N   0  0  0  0  0  0  0  0  0  0  0  0
    7.9271   -1.0135   18.6473 H   0  0  0  0  0  0  0  0  0  0  0  0
   11.3618   -2.1390   25.3766 H   0  0  0  0  0  0  0  0  0  0  0  0
    8.5215   -1.2543   20.5745 N   0  0  0  0  0  0  0  0  0  0  0  0
    6.6967    0.0306   23.6797 C   0  0  0  0  0  0  0  0  0  0  0  0
    9.8591   -3.4025   20.0926 H   0  0  0  0  0  0  0  0  0  0  0  0
    5.5380   -0.6837   23.6146 N   0  0  0  0  0  0  0  0  0  0  0  0
    9.4590   -1.8106   21.2617 C   0  0  0  0  0  0  0  0  0  0  0  0
   10.3976   -0.6918   25.0202 H   0  0  0  0  0  0  0  0  0  0  0  0
   11.9849   -0.9432   24.2382 H   0  0  0  0  0  0  0  0  0  0  0  0
    6.7043    1.3424   23.6011 N   0  0  0  0  0  0  0  0  0  0  0  0
   11.2565   -2.8184   20.9217 H   0  0  0  0  0  0  0  0  0  0  0  0
 11 14  1  0  0  0  0
 10 11  1  0  0  0  0
 11 16  1  0  0  0  0
 13 18  1  0  0  0  0
 16 20  2  0  0  0  0
 13 24  1  0  0  0  0
 13 20  1  0  0  0  0
  2 20  1  0  0  0  0
  2  5  2  0  0  0  0
  2  3  1  0  0  0  0
  3  8  1  0  0  0  0
  1  5  2  0  0  0  0
  9 19  1  0  0  0  0
  7 23  1  0  0  0  0
  3 12  1  0  0  0  0
 17 23  1  0  0  0  0
  4 23  1  0  0  0  0
  6 19  1  0  0  0  0
 17 19  1  0  0  0  0
  1 17  2  0  0  0  0
 12 22  1  0  0  0  0
 12 21  1  0  0  0  0
 12 15  1  0  0  0  0
M  CHG  2   1   1   5   1
M  END
> <Shapegauss>
-72.307953

$$$$
