stable:False satoms:18 tatoms:24 sratio:0.75
  -OEChem-08052417003D

 25 24  0     0  0  0  0  0  0999 V2000
    9.1742    0.2953   23.9261 N   0  3  0  0  0  0  0  0  0  0  0  0
   10.3551   -1.2426   22.5910 C   0  0  0  0  0  0  0  0  0  0  0  0
    9.6556   -1.5297   21.4880 N   0  0  0  0  0  0  0  0  0  0  0  0
    8.7936   -0.3906   26.0902 H   0  0  0  0  0  0  0  0  0  0  0  0
    9.7261   -0.8167   23.6182 N   0  3  0  0  0  0  0  0  0  0  0  0
   10.2396    2.6890   23.9169 H   0  0  0  0  0  0  0  0  0  0  0  0
    9.2829    0.9334   27.0187 H   0  0  0  0  0  0  0  0  0  0  0  0
   10.1610   -1.8598   20.6641 H   0  0  0  0  0  0  0  0  0  0  0  0
   10.1969    2.8898   25.5989 H   0  0  0  0  0  0  0  0  0  0  0  0
   14.2361   -0.6880   24.3924 H   0  0  0  0  0  0  0  0  0  0  0  0
   13.7940   -1.2111   23.6637 N   0  3  0  0  0  0  0  0  0  0  0  0
    8.3201   -2.0738   21.6135 C   0  0  0  0  0  0  0  0  0  0  0  0
   12.5053   -1.9812   21.5899 N   0  0  0  0  0  0  0  0  0  0  0  0
   13.9061   -2.1912   23.8275 H   0  0  0  0  0  0  0  0  0  0  0  0
    7.7497   -1.8548   20.7060 H   0  0  0  0  0  0  0  0  0  0  0  0
   12.4855   -0.9671   23.6546 N   0  0  0  0  0  0  0  0  0  0  0  0
    9.4961    1.0434   24.9368 C   0  0  0  0  0  0  0  0  0  0  0  0
   13.3459   -1.5096   21.2878 H   0  0  0  0  0  0  0  0  0  0  0  0
    9.9648    2.3166   24.8087 N   0  0  0  0  0  0  0  0  0  0  0  0
   11.8446   -1.4108   22.6284 C   0  0  0  0  0  0  0  0  0  0  0  0
    7.8211   -1.6203   22.4642 H   0  0  0  0  0  0  0  0  0  0  0  0
    8.3613   -3.1568   21.7282 H   0  0  0  0  0  0  0  0  0  0  0  0
    9.1815    0.5384   26.1086 N   0  0  0  0  0  0  0  0  0  0  0  0
   12.1568   -2.7381   21.0464 H   0  0  0  0  0  0  0  0  0  0  0  0
   14.1963   -0.9614   22.7829 H   0  0  0  0  0  0  0  0  0  0  0  0
 11 14  1  0  0  0  0
 10 11  1  0  0  0  0
 11 16  1  0  0  0  0
 13 18  1  0  0  0  0
 16 20  2  0  0  0  0
 13 24  1  0  0  0  0
 13 20  1  0  0  0  0
  2 20  1  0  0  0  0
  2  5  2  0  0  0  0
  2  3  1  0  0  0  0
  3  8  1  0  0  0  0
  1  5  2  0  0  0  0
  9 19  1  0  0  0  0
  7 23  1  0  0  0  0
  3 12  1  0  0  0  0
 17 23  1  0  0  0  0
  4 23  1  0  0  0  0
  6 19  1  0  0  0  0
 17 19  1  0  0  0  0
  1 17  2  0  0  0  0
 12 22  1  0  0  0  0
 12 21  1  0  0  0  0
 12 15  1  0  0  0  0
 11 25  1  0  0  0  0
M  CHG  3   1   1   5   1  11   1
M  END
> <Chemgauss4>
-5.160577

$$$$
