stable:False satoms:18 tatoms:24 sratio:0.75
  -OEChem-08052417003D

 25 24  0     0  0  0  0  0  0999 V2000
   -9.1913    0.0842  -24.0764 N   0  3  0  0  0  0  0  0  0  0  0  0
  -10.3722   -1.4536  -22.7413 C   0  0  0  0  0  0  0  0  0  0  0  0
   -9.6727   -1.7407  -21.6383 N   0  0  0  0  0  0  0  0  0  0  0  0
   -8.8107   -0.6016  -26.2406 H   0  0  0  0  0  0  0  0  0  0  0  0
   -9.7432   -1.0278  -23.7685 N   0  3  0  0  0  0  0  0  0  0  0  0
  -10.2567    2.4779  -24.0673 H   0  0  0  0  0  0  0  0  0  0  0  0
   -9.3000    0.7223  -27.1690 H   0  0  0  0  0  0  0  0  0  0  0  0
  -10.1780   -2.0709  -20.8144 H   0  0  0  0  0  0  0  0  0  0  0  0
  -10.2139    2.6787  -25.7492 H   0  0  0  0  0  0  0  0  0  0  0  0
  -14.2532   -0.8991  -24.5427 H   0  0  0  0  0  0  0  0  0  0  0  0
  -13.8111   -1.4221  -23.8140 N   0  3  0  0  0  0  0  0  0  0  0  0
   -8.3371   -2.2849  -21.7639 C   0  0  0  0  0  0  0  0  0  0  0  0
  -12.5224   -2.1923  -21.7403 N   0  0  0  0  0  0  0  0  0  0  0  0
  -13.9232   -2.4022  -23.9778 H   0  0  0  0  0  0  0  0  0  0  0  0
   -7.7668   -2.0659  -20.8563 H   0  0  0  0  0  0  0  0  0  0  0  0
  -12.5026   -1.1782  -23.8049 N   0  0  0  0  0  0  0  0  0  0  0  0
   -9.5132    0.8324  -25.0872 C   0  0  0  0  0  0  0  0  0  0  0  0
  -13.3630   -1.7207  -21.4381 H   0  0  0  0  0  0  0  0  0  0  0  0
   -9.9819    2.1056  -24.9590 N   0  0  0  0  0  0  0  0  0  0  0  0
  -11.8617   -1.6218  -22.7788 C   0  0  0  0  0  0  0  0  0  0  0  0
   -7.8382   -1.8314  -22.6145 H   0  0  0  0  0  0  0  0  0  0  0  0
   -8.3784   -3.3679  -21.8785 H   0  0  0  0  0  0  0  0  0  0  0  0
   -9.1986    0.3273  -26.2589 N   0  0  0  0  0  0  0  0  0  0  0  0
  -12.1739   -2.9491  -21.1967 H   0  0  0  0  0  0  0  0  0  0  0  0
  -14.2134   -1.1725  -22.9332 H   0  0  0  0  0  0  0  0  0  0  0  0
 11 14  1  0  0  0  0
 10 11  1  0  0  0  0
 11 16  1  0  0  0  0
 13 18  1  0  0  0  0
 16 20  2  0  0  0  0
 13 24  1  0  0  0  0
 13 20  1  0  0  0  0
  2 20  1  0  0  0  0
  2  5  2  0  0  0  0
  2  3  1  0  0  0  0
  3  8  1  0  0  0  0
  1  5  2  0  0  0  0
  9 19  1  0  0  0  0
  7 23  1  0  0  0  0
  3 12  1  0  0  0  0
 17 23  1  0  0  0  0
  4 23  1  0  0  0  0
  6 19  1  0  0  0  0
 17 19  1  0  0  0  0
  1 17  2  0  0  0  0
 12 22  1  0  0  0  0
 12 21  1  0  0  0  0
 12 15  1  0  0  0  0
 11 25  1  0  0  0  0
M  CHG  3   1   1   5   1  11   1
M  END
> <Chemgauss4>
-5.382458

$$$$
