MODEL 1
REMARK VINA RESULT:    -6.482      0.000      0.000
REMARK INTER + INTRA:          -9.925
REMARK INTER:                  -8.945
REMARK INTRA:                  -0.980
REMARK UNBOUND:                -0.980
REMARK  7 active torsions:
REMARK  status: ('A' for Active; 'I' for Inactive)
REMARK    1  A    between atoms: S_2  and  N_5 
REMARK    2  A    between atoms: N_5  and  C_7 
REMARK    3  A    between atoms: C_7  and  C_8 
REMARK    4  A    between atoms: C_16  and  C_17 
REMARK       I    between atoms: C_17  and  N_19 
REMARK    5  A    between atoms: N_19  and  C_21 
REMARK    6  A    between atoms: C_21  and  S_22 
REMARK    7  A    between atoms: S_22  and  N_23 
ROOT
HETATM    1  C   UNL     1       7.974  -4.708  25.399  1.00  0.00     0.053 A 
HETATM    2  C   UNL     1       7.540  -4.664  24.031  1.00  0.00     0.100 A 
HETATM    3  N   UNL     1       7.842  -5.682  23.090  1.00  0.00    -0.384 N 
ATOM      4  HN  UNL     1       8.594  -6.353  23.242  1.00  0.00     0.160 HD
HETATM    5  C   UNL     1       7.156  -5.704  22.102  1.00  0.00     0.057 C 
HETATM    6  C   UNL     1       6.262  -5.292  21.695  1.00  0.00     0.044 C 
HETATM    7  C   UNL     1       5.528  -4.329  22.779  1.00  0.00     0.008 C 
HETATM    8  C   UNL     1       6.037  -4.229  23.599  1.00  0.00     0.042 C 
HETATM    9  C   UNL     1       8.276  -3.772  24.523  1.00  0.00     0.062 A 
ENDROOT
BRANCH   9  10
HETATM   10  C   UNL     1       9.050  -2.439  24.240  1.00  0.00     0.256 C 
HETATM   11  O   UNL     1       9.103  -1.613  25.079  1.00  0.00    -0.267 OA
HETATM   12  N   UNL     1       9.500  -2.466  23.037  1.00  0.00    -0.317 N 
ATOM     13  HN  UNL     1       9.283  -3.269  22.447  1.00  0.00     0.169 HD
BRANCH  12  14
HETATM   14  C   UNL     1      10.242  -1.477  22.536  1.00  0.00     0.083 C 
HETATM   15  C   UNL     1       9.694  -0.489  21.759  1.00  0.00     0.052 C 
BRANCH  14  16
HETATM   16  S   UNL     1      11.917  -1.510  22.914  1.00  0.00    -0.004 SA
BRANCH  16  17
HETATM   17  N   UNL     1      11.977  -0.488  24.180  1.00  0.00    -0.369 N 
HETATM   18  H   UNL     1      11.852  -0.370  25.083  1.00  0.00     0.164 HD
ATOM     19  HN  UNL     1      12.285   0.412  23.811  1.00  0.00     0.164 HD
ENDBRANCH  16  17
ENDBRANCH  14  16
ENDBRANCH  12  14
ENDBRANCH   9  10
BRANCH   1  20
HETATM   20  C   UNL     1       7.908  -5.415  26.513  1.00  0.00    -0.020 C 
BRANCH  20  21
HETATM   21  N   UNL     1       7.638  -6.059  27.412  1.00  0.00    -0.236 N 
ATOM     22  HN  UNL     1       8.352  -6.743  27.660  1.00  0.00     0.189 HD
BRANCH  21  23
HETATM   23  S   UNL     1       6.338  -6.094  28.369  1.00  0.00     0.327 S 
HETATM   24 CL   UNL     1       4.932  -5.522  27.189  1.00  0.00     0.042 Cl
HETATM   25  O   UNL     1       6.003  -7.425  28.731  1.00  0.00    -0.188 OA
HETATM   26  O   UNL     1       6.414  -5.149  29.443  1.00  0.00    -0.188 OA
ENDBRANCH  21  23
ENDBRANCH  20  21
ENDBRANCH   1  20
TORSDOF 7
ENDMDL
MODEL 2
REMARK VINA RESULT:    -6.299      4.023      7.134
REMARK INTER + INTRA:          -9.673
REMARK INTER:                  -8.856
REMARK INTRA:                  -0.817
REMARK UNBOUND:                -0.980
REMARK  7 active torsions:
REMARK  status: ('A' for Active; 'I' for Inactive)
REMARK    1  A    between atoms: S_2  and  N_5 
REMARK    2  A    between atoms: N_5  and  C_7 
REMARK    3  A    between atoms: C_7  and  C_8 
REMARK    4  A    between atoms: C_16  and  C_17 
REMARK       I    between atoms: C_17  and  N_19 
REMARK    5  A    between atoms: N_19  and  C_21 
REMARK    6  A    between atoms: C_21  and  S_22 
REMARK    7  A    between atoms: S_22  and  N_23 
ROOT
HETATM    1  C   UNL     1       7.468  -2.040  22.252  1.00  0.00     0.053 A 
HETATM    2  C   UNL     1       8.775  -1.910  22.832  1.00  0.00     0.100 A 
HETATM    3  N   UNL     1       9.969  -1.970  22.069  1.00  0.00    -0.384 N 
ATOM      4  HN  UNL     1       9.994  -2.371  21.132  1.00  0.00     0.160 HD
HETATM    5  C   UNL     1      10.952  -1.517  22.596  1.00  0.00     0.057 C 
HETATM    6  C   UNL     1      11.258  -0.934  23.433  1.00  0.00     0.044 C 
HETATM    7  C   UNL     1       9.971  -0.436  24.290  1.00  0.00     0.008 C 
HETATM    8  C   UNL     1       9.133  -0.788  23.949  1.00  0.00     0.042 C 
HETATM    9  C   UNL     1       7.986  -2.828  23.173  1.00  0.00     0.062 A 
ENDROOT
BRANCH   9  10
HETATM   10  C   UNL     1       7.789  -4.085  24.087  1.00  0.00     0.256 C 
HETATM   11  O   UNL     1       8.632  -4.907  24.128  1.00  0.00    -0.267 OA
HETATM   12  N   UNL     1       6.638  -4.010  24.654  1.00  0.00    -0.317 N 
ATOM     13  HN  UNL     1       6.026  -3.227  24.428  1.00  0.00     0.169 HD
BRANCH  12  14
HETATM   14  C   UNL     1       6.219  -4.926  25.529  1.00  0.00     0.083 C 
HETATM   15  C   UNL     1       5.365  -5.934  25.162  1.00  0.00     0.052 C 
BRANCH  14  16
HETATM   16  S   UNL     1       6.804  -4.774  27.137  1.00  0.00    -0.004 SA
BRANCH  16  17
HETATM   17  N   UNL     1       7.981  -5.898  27.154  1.00  0.00    -0.369 N 
HETATM   18  H   UNL     1       8.194  -6.792  27.171  1.00  0.00     0.164 HD
ATOM     19  HN  UNL     1       8.866  -5.391  27.141  1.00  0.00     0.164 HD
ENDBRANCH  16  17
ENDBRANCH  14  16
ENDBRANCH  12  14
ENDBRANCH   9  10
BRANCH   1  20
HETATM   20  C   UNL     1       6.639  -1.513  21.370  1.00  0.00    -0.020 C 
BRANCH  20  21
HETATM   21  N   UNL     1       6.014  -0.862  20.675  1.00  0.00    -0.236 N 
ATOM     22  HN  UNL     1       5.058  -0.712  20.998  1.00  0.00     0.189 HD
BRANCH  21  23
HETATM   23  S   UNL     1       6.354  -0.133  19.276  1.00  0.00     0.327 S 
HETATM   24 CL   UNL     1       5.296   1.469  19.367  1.00  0.00     0.042 Cl
HETATM   25  O   UNL     1       7.703   0.311  19.244  1.00  0.00    -0.188 OA
HETATM   26  O   UNL     1       5.911  -0.882  18.137  1.00  0.00    -0.188 OA
ENDBRANCH  21  23
ENDBRANCH  20  21
ENDBRANCH   1  20
TORSDOF 7
ENDMDL
MODEL 3
REMARK VINA RESULT:    -6.251      4.076      5.895
REMARK INTER + INTRA:          -9.607
REMARK INTER:                  -8.903
REMARK INTRA:                  -0.704
REMARK UNBOUND:                -0.980
REMARK  7 active torsions:
REMARK  status: ('A' for Active; 'I' for Inactive)
REMARK    1  A    between atoms: S_2  and  N_5 
REMARK    2  A    between atoms: N_5  and  C_7 
REMARK    3  A    between atoms: C_7  and  C_8 
REMARK    4  A    between atoms: C_16  and  C_17 
REMARK       I    between atoms: C_17  and  N_19 
REMARK    5  A    between atoms: N_19  and  C_21 
REMARK    6  A    between atoms: C_21  and  S_22 
REMARK    7  A    between atoms: S_22  and  N_23 
ROOT
HETATM    1  C   UNL     1       8.411  -2.186  22.565  1.00  0.00     0.053 A 
HETATM    2  C   UNL     1       9.460  -1.331  23.044  1.00  0.00     0.100 A 
HETATM    3  N   UNL     1       9.593  -0.958  24.407  1.00  0.00    -0.384 N 
ATOM      4  HN  UNL     1       8.822  -1.042  25.069  1.00  0.00     0.160 HD
HETATM    5  C   UNL     1      10.672  -0.536  24.733  1.00  0.00     0.057 C 
HETATM    6  C   UNL     1      11.674  -0.446  24.384  1.00  0.00     0.044 C 
HETATM    7  C   UNL     1      11.844  -1.151  22.930  1.00  0.00     0.008 C 
HETATM    8  C   UNL     1      11.006  -1.490  22.576  1.00  0.00     0.042 C 
HETATM    9  C   UNL     1       8.635  -0.947  22.177  1.00  0.00     0.062 A 
ENDROOT
BRANCH   9  10
HETATM   10  C   UNL     1       8.184   0.245  21.265  1.00  0.00     0.256 C 
HETATM   11  O   UNL     1       8.941   1.119  21.042  1.00  0.00    -0.267 OA
HETATM   12  N   UNL     1       6.960   0.062  20.918  1.00  0.00    -0.317 N 
ATOM     13  HN  UNL     1       6.459  -0.749  21.281  1.00  0.00     0.169 HD
BRANCH  12  14
HETATM   14  C   UNL     1       6.324   0.900  20.098  1.00  0.00     0.083 C 
HETATM   15  C   UNL     1       5.600   1.963  20.575  1.00  0.00     0.052 C 
BRANCH  14  16
HETATM   16  S   UNL     1       6.458   0.576  18.417  1.00  0.00    -0.004 SA
BRANCH  16  17
HETATM   17  N   UNL     1       5.605  -0.805  18.290  1.00  0.00    -0.369 N 
HETATM   18  H   UNL     1       5.437  -1.565  17.802  1.00  0.00     0.164 HD
ATOM     19  HN  UNL     1       4.993  -0.843  19.105  1.00  0.00     0.164 HD
ENDBRANCH  16  17
ENDBRANCH  14  16
ENDBRANCH  12  14
ENDBRANCH   9  10
BRANCH   1  20
HETATM   20  C   UNL     1       7.879  -3.388  22.690  1.00  0.00    -0.020 C 
BRANCH  20  21
HETATM   21  N   UNL     1       7.529  -4.469  22.607  1.00  0.00    -0.236 N 
ATOM     22  HN  UNL     1       8.207  -5.151  22.947  1.00  0.00     0.189 HD
BRANCH  21  23
HETATM   23  S   UNL     1       6.163  -5.126  22.051  1.00  0.00     0.327 S 
HETATM   24 CL   UNL     1       5.493  -6.066  23.588  1.00  0.00     0.042 Cl
HETATM   25  O   UNL     1       5.193  -4.129  21.769  1.00  0.00    -0.188 OA
HETATM   26  O   UNL     1       6.393  -6.093  21.018  1.00  0.00    -0.188 OA
ENDBRANCH  21  23
ENDBRANCH  20  21
ENDBRANCH   1  20
TORSDOF 7
ENDMDL
MODEL 4
REMARK VINA RESULT:    -6.024     28.108     29.876
REMARK INTER + INTRA:          -9.294
REMARK INTER:                  -8.616
REMARK INTRA:                  -0.677
REMARK UNBOUND:                -0.980
REMARK  7 active torsions:
REMARK  status: ('A' for Active; 'I' for Inactive)
REMARK    1  A    between atoms: S_2  and  N_5 
REMARK    2  A    between atoms: N_5  and  C_7 
REMARK    3  A    between atoms: C_7  and  C_8 
REMARK    4  A    between atoms: C_16  and  C_17 
REMARK       I    between atoms: C_17  and  N_19 
REMARK    5  A    between atoms: N_19  and  C_21 
REMARK    6  A    between atoms: C_21  and  S_22 
REMARK    7  A    between atoms: S_22  and  N_23 
ROOT
HETATM    1  C   UNL     1       8.725  15.325   2.479  1.00  0.00     0.053 A 
HETATM    2  C   UNL     1       8.794  16.624   1.871  1.00  0.00     0.100 A 
HETATM    3  N   UNL     1       9.425  16.861   0.622  1.00  0.00    -0.384 N 
ATOM      4  HN  UNL     1      10.090  16.202   0.218  1.00  0.00     0.160 HD
HETATM    5  C   UNL     1       9.126  17.887   0.069  1.00  0.00     0.057 C 
HETATM    6  C   UNL     1       8.422  18.685   0.111  1.00  0.00     0.044 C 
HETATM    7  C   UNL     1       7.338  18.434   1.295  1.00  0.00     0.008 C 
HETATM    8  C   UNL     1       7.527  17.637   1.817  1.00  0.00     0.042 C 
HETATM    9  C   UNL     1       9.296  16.393   3.000  1.00  0.00     0.062 A 
ENDROOT
BRANCH   9  10
HETATM   10  C   UNL     1      10.093  16.999   4.205  1.00  0.00     0.256 C 
HETATM   11  O   UNL     1      10.330  16.323   5.140  1.00  0.00    -0.267 OA
HETATM   12  N   UNL     1      10.342  18.236   3.958  1.00  0.00    -0.317 N 
ATOM     13  HN  UNL     1       9.985  18.649   3.097  1.00  0.00     0.169 HD
BRANCH  12  14
HETATM   14  C   UNL     1      11.051  18.996   4.794  1.00  0.00     0.083 C 
HETATM   15  C   UNL     1      10.447  19.812   5.715  1.00  0.00     0.052 C 
BRANCH  14  16
HETATM   16  S   UNL     1      12.760  18.899   4.652  1.00  0.00    -0.004 SA
BRANCH  16  17
HETATM   17  N   UNL     1      12.971  19.288   3.085  1.00  0.00    -0.369 N 
HETATM   18  H   UNL     1      13.039  19.959   2.459  1.00  0.00     0.164 HD
ATOM     19  HN  UNL     1      13.073  18.409   2.580  1.00  0.00     0.164 HD
ENDBRANCH  16  17
ENDBRANCH  14  16
ENDBRANCH  12  14
ENDBRANCH   9  10
BRANCH   1  20
HETATM   20  C   UNL     1       8.290  14.091   2.304  1.00  0.00    -0.020 C 
BRANCH  20  21
HETATM   21  N   UNL     1       7.855  13.040   2.370  1.00  0.00    -0.236 N 
ATOM     22  HN  UNL     1       7.649  12.621   1.463  1.00  0.00     0.189 HD
BRANCH  21  23
HETATM   23  S   UNL     1       7.502  12.090   3.626  1.00  0.00     0.327 S 
HETATM   24 CL   UNL     1       6.569  10.627   2.798  1.00  0.00     0.042 Cl
HETATM   25  O   UNL     1       8.677  11.518   4.181  1.00  0.00    -0.188 OA
HETATM   26  O   UNL     1       6.602  12.708   4.555  1.00  0.00    -0.188 OA
ENDBRANCH  21  23
ENDBRANCH  20  21
ENDBRANCH   1  20
TORSDOF 7
ENDMDL
MODEL 5
REMARK VINA RESULT:    -5.995      4.502      7.743
REMARK INTER + INTRA:          -9.254
REMARK INTER:                  -8.389
REMARK INTRA:                  -0.865
REMARK UNBOUND:                -0.980
REMARK  7 active torsions:
REMARK  status: ('A' for Active; 'I' for Inactive)
REMARK    1  A    between atoms: S_2  and  N_5 
REMARK    2  A    between atoms: N_5  and  C_7 
REMARK    3  A    between atoms: C_7  and  C_8 
REMARK    4  A    between atoms: C_16  and  C_17 
REMARK       I    between atoms: C_17  and  N_19 
REMARK    5  A    between atoms: N_19  and  C_21 
REMARK    6  A    between atoms: C_21  and  S_22 
REMARK    7  A    between atoms: S_22  and  N_23 
ROOT
HETATM    1  C   UNL     1       8.121  -0.551  20.964  1.00  0.00     0.053 A 
HETATM    2  C   UNL     1       9.116  -0.601  21.999  1.00  0.00     0.100 A 
HETATM    3  N   UNL     1      10.483  -0.882  21.745  1.00  0.00    -0.384 N 
ATOM      4  HN  UNL     1      10.793  -1.326  20.881  1.00  0.00     0.160 HD
HETATM    5  C   UNL     1      11.254  -0.565  22.613  1.00  0.00     0.057 C 
HETATM    6  C   UNL     1      11.312   0.000  23.514  1.00  0.00     0.044 C 
HETATM    7  C   UNL     1       9.897   0.733  23.826  1.00  0.00     0.008 C 
HETATM    8  C   UNL     1       9.204   0.502  23.187  1.00  0.00     0.042 C 
HETATM    9  C   UNL     1       8.119  -1.366  21.999  1.00  0.00     0.062 A 
ENDROOT
BRANCH   9  10
HETATM   10  C   UNL     1       7.390  -2.533  22.749  1.00  0.00     0.256 C 
HETATM   11  O   UNL     1       6.385  -2.312  23.323  1.00  0.00    -0.267 OA
HETATM   12  N   UNL     1       8.086  -3.607  22.623  1.00  0.00    -0.317 N 
ATOM     13  HN  UNL     1       8.976  -3.563  22.126  1.00  0.00     0.169 HD
BRANCH  12  14
HETATM   14  C   UNL     1       7.682  -4.775  23.124  1.00  0.00     0.083 C 
HETATM   15  C   UNL     1       7.108  -5.737  22.333  1.00  0.00     0.052 C 
BRANCH  14  16
HETATM   16  S   UNL     1       7.915  -5.007  24.810  1.00  0.00    -0.004 SA
BRANCH  16  17
HETATM   17  N   UNL     1       6.405  -4.783  25.374  1.00  0.00    -0.369 N 
HETATM   18  H   UNL     1       5.799  -4.952  26.044  1.00  0.00     0.164 HD
ATOM     19  HN  UNL     1       5.923  -4.203  24.687  1.00  0.00     0.164 HD
ENDBRANCH  16  17
ENDBRANCH  14  16
ENDBRANCH  12  14
ENDBRANCH   9  10
BRANCH   1  20
HETATM   20  C   UNL     1       7.784   0.059  19.842  1.00  0.00    -0.020 C 
BRANCH  20  21
HETATM   21  N   UNL     1       7.479   0.376  18.792  1.00  0.00    -0.236 N 
ATOM     22  HN  UNL     1       8.264   0.527  18.160  1.00  0.00     0.189 HD
BRANCH  21  23
HETATM   23  S   UNL     1       6.036   0.633  18.115  1.00  0.00     0.327 S 
HETATM   24 CL   UNL     1       4.948   1.133  19.618  1.00  0.00     0.042 Cl
HETATM   25  O   UNL     1       6.061   1.778  17.274  1.00  0.00    -0.188 OA
HETATM   26  O   UNL     1       5.470  -0.554  17.546  1.00  0.00    -0.188 OA
ENDBRANCH  21  23
ENDBRANCH  20  21
ENDBRANCH   1  20
TORSDOF 7
ENDMDL
MODEL 6
REMARK VINA RESULT:    -5.933      4.484      7.428
REMARK INTER + INTRA:          -9.168
REMARK INTER:                  -8.243
REMARK INTRA:                  -0.925
REMARK UNBOUND:                -0.980
REMARK  7 active torsions:
REMARK  status: ('A' for Active; 'I' for Inactive)
REMARK    1  A    between atoms: S_2  and  N_5 
REMARK    2  A    between atoms: N_5  and  C_7 
REMARK    3  A    between atoms: C_7  and  C_8 
REMARK    4  A    between atoms: C_16  and  C_17 
REMARK       I    between atoms: C_17  and  N_19 
REMARK    5  A    between atoms: N_19  and  C_21 
REMARK    6  A    between atoms: C_21  and  S_22 
REMARK    7  A    between atoms: S_22  and  N_23 
ROOT
HETATM    1  C   UNL     1       8.340   0.699  21.545  1.00  0.00     0.053 A 
HETATM    2  C   UNL     1       7.166   0.431  20.763  1.00  0.00     0.100 A 
HETATM    3  N   UNL     1       5.997   1.232  20.823  1.00  0.00    -0.384 N 
ATOM      4  HN  UNL     1       5.814   1.866  21.601  1.00  0.00     0.160 HD
HETATM    5  C   UNL     1       5.233   1.118  19.900  1.00  0.00     0.057 C 
HETATM    6  C   UNL     1       5.160   0.701  18.923  1.00  0.00     0.044 C 
HETATM    7  C   UNL     1       6.564   0.010  18.485  1.00  0.00     0.008 C 
HETATM    8  C   UNL     1       7.230   0.029  19.192  1.00  0.00     0.042 C 
HETATM    9  C   UNL     1       7.618  -0.403  21.588  1.00  0.00     0.062 A 
ENDROOT
BRANCH   9  10
HETATM   10  C   UNL     1       7.417  -1.816  22.234  1.00  0.00     0.256 C 
HETATM   11  O   UNL     1       8.314  -2.323  22.806  1.00  0.00    -0.267 OA
HETATM   12  N   UNL     1       6.224  -2.222  21.981  1.00  0.00    -0.317 N 
ATOM     13  HN  UNL     1       5.616  -1.641  21.404  1.00  0.00     0.169 HD
BRANCH  12  14
HETATM   14  C   UNL     1       5.757  -3.381  22.450  1.00  0.00     0.083 C 
HETATM   15  C   UNL     1       5.056  -3.451  23.626  1.00  0.00     0.052 C 
BRANCH  14  16
HETATM   16  S   UNL     1       6.081  -4.776  21.503  1.00  0.00    -0.004 SA
BRANCH  16  17
HETATM   17  N   UNL     1       7.506  -5.258  22.125  1.00  0.00    -0.369 N 
HETATM   18  H   UNL     1       8.162  -5.903  22.144  1.00  0.00     0.164 HD
ATOM     19  HN  UNL     1       7.800  -4.529  22.775  1.00  0.00     0.164 HD
ENDBRANCH  16  17
ENDBRANCH  14  16
ENDBRANCH  12  14
ENDBRANCH   9  10
BRANCH   1  20
HETATM   20  C   UNL     1       9.270   1.603  21.791  1.00  0.00    -0.020 C 
BRANCH  20  21
HETATM   21  N   UNL     1      10.165   2.221  22.128  1.00  0.00    -0.236 N 
ATOM     22  HN  UNL     1      10.588   2.777  21.385  1.00  0.00     0.189 HD
BRANCH  21  23
HETATM   23  S   UNL     1      10.892   2.384  23.561  1.00  0.00     0.327 S 
HETATM   24 CL   UNL     1       9.413   2.354  24.788  1.00  0.00     0.042 Cl
HETATM   25  O   UNL     1      11.664   1.235  23.877  1.00  0.00    -0.188 OA
HETATM   26  O   UNL     1      11.552   3.647  23.708  1.00  0.00    -0.188 OA
ENDBRANCH  21  23
ENDBRANCH  20  21
ENDBRANCH   1  20
TORSDOF 7
ENDMDL
MODEL 7
REMARK VINA RESULT:    -5.750      4.402      7.115
REMARK INTER + INTRA:          -8.915
REMARK INTER:                  -8.045
REMARK INTRA:                  -0.870
REMARK UNBOUND:                -0.980
REMARK  7 active torsions:
REMARK  status: ('A' for Active; 'I' for Inactive)
REMARK    1  A    between atoms: S_2  and  N_5 
REMARK    2  A    between atoms: N_5  and  C_7 
REMARK    3  A    between atoms: C_7  and  C_8 
REMARK    4  A    between atoms: C_16  and  C_17 
REMARK       I    between atoms: C_17  and  N_19 
REMARK    5  A    between atoms: N_19  and  C_21 
REMARK    6  A    between atoms: C_21  and  S_22 
REMARK    7  A    between atoms: S_22  and  N_23 
ROOT
HETATM    1  C   UNL     1       7.752  -0.340  21.658  1.00  0.00     0.053 A 
HETATM    2  C   UNL     1       6.696   0.065  20.773  1.00  0.00     0.100 A 
HETATM    3  N   UNL     1       5.835   1.159  21.046  1.00  0.00    -0.384 N 
ATOM      4  HN  UNL     1       5.732   1.546  21.984  1.00  0.00     0.160 HD
HETATM    5  C   UNL     1       5.235   1.603  20.103  1.00  0.00     0.057 C 
HETATM    6  C   UNL     1       5.197   1.558  19.039  1.00  0.00     0.044 C 
HETATM    7  C   UNL     1       6.373   0.597  18.462  1.00  0.00     0.008 C 
HETATM    8  C   UNL     1       6.888   0.168  19.165  1.00  0.00     0.042 C 
HETATM    9  C   UNL     1       6.731  -1.083  21.283  1.00  0.00     0.062 A 
ENDROOT
BRANCH   9  10
HETATM   10  C   UNL     1       6.003  -2.467  21.393  1.00  0.00     0.256 C 
HETATM   11  O   UNL     1       5.485  -2.925  20.440  1.00  0.00    -0.267 OA
HETATM   12  N   UNL     1       6.077  -2.879  22.609  1.00  0.00    -0.317 N 
ATOM     13  HN  UNL     1       6.528  -2.286  23.305  1.00  0.00     0.169 HD
BRANCH  12  14
HETATM   14  C   UNL     1       5.582  -4.059  22.987  1.00  0.00     0.083 C 
HETATM   15  C   UNL     1       4.350  -4.166  23.579  1.00  0.00     0.052 C 
BRANCH  14  16
HETATM   16  S   UNL     1       6.571  -5.433  22.696  1.00  0.00    -0.004 SA
BRANCH  16  17
HETATM   17  N   UNL     1       5.867  -6.055  21.367  1.00  0.00    -0.369 N 
HETATM   18  H   UNL     1       5.980  -6.504  20.572  1.00  0.00     0.164 HD
ATOM     19  HN  UNL     1       4.869  -5.863  21.451  1.00  0.00     0.164 HD
ENDBRANCH  16  17
ENDBRANCH  14  16
ENDBRANCH  12  14
ENDBRANCH   9  10
BRANCH   1  20
HETATM   20  C   UNL     1       8.862   0.068  22.246  1.00  0.00    -0.020 C 
BRANCH  20  21
HETATM   21  N   UNL     1       9.766   0.620  22.664  1.00  0.00    -0.236 N 
ATOM     22  HN  UNL     1       9.848   1.583  22.341  1.00  0.00     0.189 HD
BRANCH  21  23
HETATM   23  S   UNL     1      10.943   0.165  23.671  1.00  0.00     0.327 S 
HETATM   24 CL   UNL     1       9.989  -0.186  25.302  1.00  0.00     0.042 Cl
HETATM   25  O   UNL     1      11.494  -1.085  23.284  1.00  0.00    -0.188 OA
HETATM   26  O   UNL     1      11.883   1.213  23.935  1.00  0.00    -0.188 OA
ENDBRANCH  21  23
ENDBRANCH  20  21
ENDBRANCH   1  20
TORSDOF 7
ENDMDL
MODEL 8
REMARK VINA RESULT:    -5.714     27.862     29.950
REMARK INTER + INTRA:          -8.865
REMARK INTER:                  -8.055
REMARK INTRA:                  -0.810
REMARK UNBOUND:                -0.980
REMARK  7 active torsions:
REMARK  status: ('A' for Active; 'I' for Inactive)
REMARK    1  A    between atoms: S_2  and  N_5 
REMARK    2  A    between atoms: N_5  and  C_7 
REMARK    3  A    between atoms: C_7  and  C_8 
REMARK    4  A    between atoms: C_16  and  C_17 
REMARK       I    between atoms: C_17  and  N_19 
REMARK    5  A    between atoms: N_19  and  C_21 
REMARK    6  A    between atoms: C_21  and  S_22 
REMARK    7  A    between atoms: S_22  and  N_23 
ROOT
HETATM    1  C   UNL     1       8.483  15.267   1.854  1.00  0.00     0.053 A 
HETATM    2  C   UNL     1       8.719  16.669   1.646  1.00  0.00     0.100 A 
HETATM    3  N   UNL     1       9.341  17.183   0.479  1.00  0.00    -0.384 N 
ATOM      4  HN  UNL     1       9.894  16.595  -0.143  1.00  0.00     0.160 HD
HETATM    5  C   UNL     1       9.176  18.356   0.270  1.00  0.00     0.057 C 
HETATM    6  C   UNL     1       8.594  19.189   0.591  1.00  0.00     0.044 C 
HETATM    7  C   UNL     1       7.519  18.738   1.723  1.00  0.00     0.008 C 
HETATM    8  C   UNL     1       7.608  17.805   1.976  1.00  0.00     0.042 C 
HETATM    9  C   UNL     1       9.215  16.050   2.621  1.00  0.00     0.062 A 
ENDROOT
BRANCH   9  10
HETATM   10  C   UNL     1      10.124  16.164   3.893  1.00  0.00     0.256 C 
HETATM   11  O   UNL     1      11.236  15.777   3.844  1.00  0.00    -0.267 OA
HETATM   12  N   UNL     1       9.435  16.671   4.852  1.00  0.00    -0.317 N 
ATOM     13  HN  UNL     1       8.450  16.883   4.694  1.00  0.00     0.169 HD
BRANCH  12  14
HETATM   14  C   UNL     1       9.968  16.928   6.047  1.00  0.00     0.083 C 
HETATM   15  C   UNL     1       9.971  15.994   7.050  1.00  0.00     0.052 C 
BRANCH  14  16
HETATM   16  S   UNL     1      10.648  18.491   6.262  1.00  0.00    -0.004 SA
BRANCH  16  17
HETATM   17  N   UNL     1      12.194  18.228   5.825  1.00  0.00    -0.369 N 
HETATM   18  H   UNL     1      12.905  18.497   5.308  1.00  0.00     0.164 HD
ATOM     19  HN  UNL     1      12.509  17.414   6.351  1.00  0.00     0.164 HD
ENDBRANCH  16  17
ENDBRANCH  14  16
ENDBRANCH  12  14
ENDBRANCH   9  10
BRANCH   1  20
HETATM   20  C   UNL     1       7.872  14.207   1.359  1.00  0.00    -0.020 C 
BRANCH  20  21
HETATM   21  N   UNL     1       7.490  13.315   0.762  1.00  0.00    -0.236 N 
ATOM     22  HN  UNL     1       7.673  13.379  -0.239  1.00  0.00     0.189 HD
BRANCH  21  23
HETATM   23  S   UNL     1       6.714  11.969   1.201  1.00  0.00     0.327 S 
HETATM   24 CL   UNL     1       7.533  11.542   2.886  1.00  0.00     0.042 Cl
HETATM   25  O   UNL     1       5.353  12.238   1.504  1.00  0.00    -0.188 OA
HETATM   26  O   UNL     1       6.956  10.873   0.310  1.00  0.00    -0.188 OA
ENDBRANCH  21  23
ENDBRANCH  20  21
ENDBRANCH   1  20
TORSDOF 7
ENDMDL
MODEL 9
REMARK VINA RESULT:    -5.618      4.032      6.447
REMARK INTER + INTRA:          -8.733
REMARK INTER:                  -8.050
REMARK INTRA:                  -0.682
REMARK UNBOUND:                -0.980
REMARK  7 active torsions:
REMARK  status: ('A' for Active; 'I' for Inactive)
REMARK    1  A    between atoms: S_2  and  N_5 
REMARK    2  A    between atoms: N_5  and  C_7 
REMARK    3  A    between atoms: C_7  and  C_8 
REMARK    4  A    between atoms: C_16  and  C_17 
REMARK       I    between atoms: C_17  and  N_19 
REMARK    5  A    between atoms: N_19  and  C_21 
REMARK    6  A    between atoms: C_21  and  S_22 
REMARK    7  A    between atoms: S_22  and  N_23 
ROOT
HETATM    1  C   UNL     1       5.342  -6.102  25.325  1.00  0.00     0.053 A 
HETATM    2  C   UNL     1       5.304  -5.636  23.966  1.00  0.00     0.100 A 
HETATM    3  N   UNL     1       5.179  -4.265  23.622  1.00  0.00    -0.384 N 
ATOM      4  HN  UNL     1       4.840  -3.569  24.286  1.00  0.00     0.160 HD
HETATM    5  C   UNL     1       5.497  -3.975  22.499  1.00  0.00     0.057 C 
HETATM    6  C   UNL     1       5.989  -4.370  21.641  1.00  0.00     0.044 C 
HETATM    7  C   UNL     1       6.553  -5.865  21.938  1.00  0.00     0.008 C 
HETATM    8  C   UNL     1       6.309  -6.191  22.819  1.00  0.00     0.042 C 
HETATM    9  C   UNL     1       4.448  -6.438  24.417  1.00  0.00     0.062 A 
ENDROOT
BRANCH   9  10
HETATM   10  C   UNL     1       3.157  -7.265  24.089  1.00  0.00     0.256 C 
HETATM   11  O   UNL     1       2.911  -8.227  24.722  1.00  0.00    -0.267 OA
HETATM   12  N   UNL     1       2.562  -6.724  23.086  1.00  0.00    -0.317 N 
ATOM     13  HN  UNL     1       2.987  -5.913  22.638  1.00  0.00     0.169 HD
BRANCH  12  14
HETATM   14  C   UNL     1       1.405  -7.191  22.614  1.00  0.00     0.083 C 
HETATM   15  C   UNL     1       1.353  -8.288  21.793  1.00  0.00     0.052 C 
BRANCH  14  16
HETATM   16  S   UNL     1      -0.013  -6.345  23.088  1.00  0.00    -0.004 SA
BRANCH  16  17
HETATM   17  N   UNL     1      -0.438  -5.630  21.690  1.00  0.00    -0.369 N 
HETATM   18  H   UNL     1      -0.472  -4.852  21.200  1.00  0.00     0.164 HD
ATOM     19  HN  UNL     1      -0.842  -6.359  21.102  1.00  0.00     0.164 HD
ENDBRANCH  16  17
ENDBRANCH  14  16
ENDBRANCH  12  14
ENDBRANCH   9  10
BRANCH   1  20
HETATM   20  C   UNL     1       6.006  -6.009  26.462  1.00  0.00    -0.020 C 
BRANCH  20  21
HETATM   21  N   UNL     1       6.613  -6.150  27.415  1.00  0.00    -0.236 N 
ATOM     22  HN  UNL     1       7.620  -6.074  27.279  1.00  0.00     0.189 HD
BRANCH  21  23
HETATM   23  S   UNL     1       6.180  -6.447  28.942  1.00  0.00     0.327 S 
HETATM   24 CL   UNL     1       4.294  -6.782  28.787  1.00  0.00     0.042 Cl
HETATM   25  O   UNL     1       6.740  -7.667  29.405  1.00  0.00    -0.188 OA
HETATM   26  O   UNL     1       6.350  -5.311  29.798  1.00  0.00    -0.188 OA
ENDBRANCH  21  23
ENDBRANCH  20  21
ENDBRANCH   1  20
TORSDOF 7
ENDMDL
