REMARK  7 active torsions:
REMARK  status: ('A' for Active; 'I' for Inactive)
REMARK    1  A    between atoms: S_2  and  N_5 
REMARK    2  A    between atoms: N_5  and  C_7 
REMARK    3  A    between atoms: C_7  and  C_8 
REMARK    4  A    between atoms: C_16  and  C_17 
REMARK       I    between atoms: C_17  and  N_19 
REMARK    5  A    between atoms: N_19  and  C_21 
REMARK    6  A    between atoms: C_21  and  S_22 
REMARK    7  A    between atoms: S_22  and  N_23 
ROOT
HETATM    1  C   UNL     1       9.380  -1.853  23.474  1.00  0.00     0.053 A 
HETATM    2  C   UNL     1      10.572  -1.062  23.347  1.00  0.00     0.100 A 
HETATM    3  N   UNL     1      11.114  -0.303  24.416  1.00  0.00    -0.384 N 
ATOM      4  HN  UNL     1      10.563  -0.054  25.237  1.00  0.00     0.160 HD
HETATM    5  C   UNL     1      12.264   0.029  24.294  1.00  0.00     0.057 C 
HETATM    6  C   UNL     1      13.127  -0.151  23.696  1.00  0.00     0.044 C 
HETATM    7  C   UNL     1      12.828  -1.296  22.583  1.00  0.00     0.008 C 
HETATM    8  C   UNL     1      11.905  -1.597  22.591  1.00  0.00     0.042 C 
HETATM    9  C   UNL     1       9.556  -0.850  22.638  1.00  0.00     0.062 A 
ENDROOT
BRANCH   9  10
HETATM   10  C   UNL     1       8.933   0.047  21.514  1.00  0.00     0.256 C 
HETATM   11  O   UNL     1       9.527   0.990  21.132  1.00  0.00    -0.267 OA
HETATM   12  N   UNL     1       7.777  -0.421  21.202  1.00  0.00    -0.317 N 
ATOM     13  HN  UNL     1       7.418  -1.229  21.710  1.00  0.00     0.169 HD
BRANCH  12  14
HETATM   14  C   UNL     1       7.033   0.118  20.235  1.00  0.00     0.083 C 
HETATM   15  C   UNL     1       5.777   0.609  20.482  1.00  0.00     0.052 C 
BRANCH  14  16
HETATM   16  S   UNL     1       7.731   0.161  18.666  1.00  0.00    -0.004 SA
BRANCH  16  17
HETATM   17  N   UNL     1       6.437   0.537  17.753  1.00  0.00    -0.369 N 
HETATM   18  H   UNL     1       5.634   0.982  17.699  1.00  0.00     0.164 HD
ATOM     19  HN  UNL     1       6.577   0.083  16.851  1.00  0.00     0.164 HD
ENDBRANCH  16  17
ENDBRANCH  14  16
ENDBRANCH  12  14
ENDBRANCH   9  10
BRANCH   1  20
HETATM   20  C   UNL     1       8.836  -2.857  24.137  1.00  0.00    -0.020 C 
BRANCH  20  21
HETATM   21  N   UNL     1       8.172  -3.627  24.650  1.00  0.00    -0.236 N 
ATOM     22  HN  UNL     1       7.357  -3.901  24.102  1.00  0.00     0.189 HD
BRANCH  21  23
HETATM   23  S   UNL     1       8.277  -4.367  26.081  1.00  0.00     0.327 S 
HETATM   24 CL   UNL     1       6.477  -4.974  26.374  1.00  0.00     0.042 Cl
HETATM   25  O   UNL     1       9.060  -5.548  25.991  1.00  0.00    -0.188 OA
HETATM   26  O   UNL     1       8.611  -3.469  27.147  1.00  0.00    -0.188 OA
ENDBRANCH  21  23
ENDBRANCH  20  21
ENDBRANCH   1  20
TORSDOF 7
