stable:True satoms:24 tatoms:24 sratio:1.0
  -OEChem-07092417323D

 24 24  0     1  0  0  0  0  0999 V2000
    8.6948   -0.7554   24.0494 C   0  0  0  0  0  0  0  0  0  0  0  0
    8.6581   -0.8844   25.2650 O   0  0  0  0  0  0  0  0  0  0  0  0
    8.8460   -3.2393   24.8134 H   0  0  0  0  0  0  0  0  0  0  0  0
    6.7596   -2.6029   24.0465 H   0  0  0  0  0  0  0  0  0  0  0  0
   10.5645   -2.1734   22.2577 H   0  0  0  0  0  0  0  0  0  0  0  0
    8.6235   -1.9657   23.1741 C   0  0  2  0  0  0  0  0  0  0  0  0
    9.1581   -3.0948   23.8537 N   0  0  0  0  0  0  0  0  0  0  0  0
    9.9557    0.6340   22.5393 C   0  0  0  0  0  0  0  0  0  0  0  0
   10.8796    0.4194   23.0898 H   0  0  0  0  0  0  0  0  0  0  0  0
   10.0260    1.6692   22.1915 H   0  0  0  0  0  0  0  0  0  0  0  0
   10.1681   -3.1590   23.7833 H   0  0  0  0  0  0  0  0  0  0  0  0
    9.5975   -1.7756   21.9333 C   0  0  0  0  0  0  0  0  0  0  0  0
   10.6493   -0.2987   20.7288 H   0  0  0  0  0  0  0  0  0  0  0  0
    9.7594   -0.3461   21.3796 C   0  0  1  0  0  0  0  0  0  0  0  0
    7.8003   -0.5605   21.0423 H   0  0  0  0  0  0  0  0  0  0  0  0
    8.8110    0.4726   23.3891 N   0  0  0  0  0  0  0  0  0  0  0  0
    9.2176   -2.3679   21.0982 H   0  0  0  0  0  0  0  0  0  0  0  0
    7.9695    0.9202   23.0144 H   0  0  0  0  0  0  0  0  0  0  0  0
    8.5810   -0.0953   20.5682 N   0  0  0  0  0  0  0  0  0  0  0  0
    6.4038   -3.0327   20.8265 N   0  0  0  0  0  0  0  0  0  0  0  0
    8.3403    0.7971   20.1734 H   0  0  0  0  0  0  0  0  0  0  0  0
    7.0038   -2.0717   23.1078 C   0  0  0  0  0  0  0  0  0  0  0  0
    6.4752   -1.1096   23.0779 H   0  0  0  0  0  0  0  0  0  0  0  0
    6.6413   -2.6696   21.8935 C   0  0  0  0  0  0  0  0  0  0  0  0
 19 21  1  0  0  0  0
 15 19  1  0  0  0  0
 14 19  1  0  0  0  0
 13 14  1  0  0  0  0
 20 24  3  0  0  0  0
 12 17  1  0  0  0  0
 12 14  1  0  0  0  0
  8 14  1  0  0  0  0
 22 24  1  0  0  0  0
  5 12  1  0  0  0  0
  6 12  1  0  0  0  0
  8 10  1  0  0  0  0
  8  9  1  0  0  0  0
  8 16  1  0  0  0  0
 16 18  1  0  0  0  0
 22 23  1  0  0  0  0
  6 22  1  0  0  0  0
  4 22  1  0  0  0  0
  6  7  1  0  0  0  0
  1  6  1  0  0  0  0
  1 16  1  0  0  0  0
  7 11  1  0  0  0  0
  3  7  1  0  0  0  0
  1  2  2  0  0  0  0
M  END
> <Shapegauss>
-103.139206

$$$$
