stable:True satoms:24 tatoms:24 sratio:1.0
  -OEChem-08052421353D

 25 25  0     1  0  0  0  0  0999 V2000
   -9.8284   -1.5214  -22.1542 C   0  0  0  0  0  0  0  0  0  0  0  0
   -9.5762   -2.7178  -22.1791 O   0  0  0  0  0  0  0  0  0  0  0  0
   -9.8020   -2.5050  -24.5642 H   0  0  0  0  0  0  0  0  0  0  0  0
  -11.9177   -2.1853  -23.6879 H   0  0  0  0  0  0  0  0  0  0  0  0
   -8.6569    0.4883  -23.9723 H   0  0  0  0  0  0  0  0  0  0  0  0
  -10.2662   -0.8309  -23.4062 C   0  0  2  0  0  0  0  0  0  0  0  0
   -9.7239   -1.4887  -24.5445 N   0  0  0  0  0  0  0  0  0  0  0  0
   -8.8214    0.3915  -21.0922 C   0  0  0  0  0  0  0  0  0  0  0  0
   -7.8235    0.0540  -21.3972 H   0  0  0  0  0  0  0  0  0  0  0  0
   -8.7117    0.8612  -20.1100 H   0  0  0  0  0  0  0  0  0  0  0  0
   -8.7796   -1.1895  -24.7635 H   0  0  0  0  0  0  0  0  0  0  0  0
   -9.6170    0.6181  -23.4623 C   0  0  0  0  0  0  0  0  0  0  0  0
   -8.7236    2.1966  -22.2587 H   0  0  0  0  0  0  0  0  0  0  0  0
   -9.4216    1.3530  -22.1214 C   0  0  1  0  0  0  0  0  0  0  0  0
  -10.7625    2.0290  -20.7746 H   0  0  0  0  0  0  0  0  0  0  0  0
   -9.7286   -0.7173  -21.0136 N   0  0  0  0  0  0  0  0  0  0  0  0
  -10.2641    1.2671  -24.0562 H   0  0  0  0  0  0  0  0  0  0  0  0
  -10.5745   -0.5036  -20.4771 H   0  0  0  0  0  0  0  0  0  0  0  0
  -10.7245    1.8863  -21.7637 N   0  3  0  0  0  0  0  0  0  0  0  0
  -13.1168    0.7893  -24.3149 N   0  0  0  0  0  0  0  0  0  0  0  0
  -10.8817    2.7572  -22.2292 H   0  0  0  0  0  0  0  0  0  0  0  0
  -11.8513   -1.1615  -23.2753 C   0  0  0  0  0  0  0  0  0  0  0  0
  -12.2465   -1.1482  -22.2508 H   0  0  0  0  0  0  0  0  0  0  0  0
  -12.5771   -0.1431  -23.9074 C   0  0  0  0  0  0  0  0  0  0  0  0
  -11.4334    1.2348  -22.0340 H   0  0  0  0  0  0  0  0  0  0  0  0
 19 21  1  0  0  0  0
 15 19  1  0  0  0  0
 14 19  1  0  0  0  0
 13 14  1  0  0  0  0
 20 24  3  0  0  0  0
 12 17  1  0  0  0  0
 12 14  1  0  0  0  0
  8 14  1  0  0  0  0
 22 24  1  0  0  0  0
  5 12  1  0  0  0  0
  6 12  1  0  0  0  0
  8 10  1  0  0  0  0
  8  9  1  0  0  0  0
  8 16  1  0  0  0  0
 16 18  1  0  0  0  0
 22 23  1  0  0  0  0
  6 22  1  0  0  0  0
  4 22  1  0  0  0  0
  6  7  1  0  0  0  0
  1  6  1  0  0  0  0
  1 16  1  0  0  0  0
  7 11  1  0  0  0  0
  3  7  1  0  0  0  0
  1  2  2  0  0  0  0
 19 25  1  0  0  0  0
M  CHG  1  19   1
M  END
> <Chemgauss4>
-5.157219

$$$$
