stable:True satoms:24 tatoms:24 sratio:1.0
  -OEChem-08052421363D

 25 25  0     1  0  0  0  0  0999 V2000
    9.7941   -1.5894   22.1919 C   0  0  0  0  0  0  0  0  0  0  0  0
    9.5419   -2.7858   22.2169 O   0  0  0  0  0  0  0  0  0  0  0  0
    9.7677   -2.5730   24.6019 H   0  0  0  0  0  0  0  0  0  0  0  0
   11.8834   -2.2533   23.7256 H   0  0  0  0  0  0  0  0  0  0  0  0
    8.6226    0.4203   24.0101 H   0  0  0  0  0  0  0  0  0  0  0  0
   10.2319   -0.8989   23.4440 C   0  0  2  0  0  0  0  0  0  0  0  0
    9.6896   -1.5567   24.5822 N   0  0  0  0  0  0  0  0  0  0  0  0
    8.7871    0.3235   21.1300 C   0  0  0  0  0  0  0  0  0  0  0  0
    7.7892   -0.0140   21.4350 H   0  0  0  0  0  0  0  0  0  0  0  0
    8.6774    0.7932   20.1477 H   0  0  0  0  0  0  0  0  0  0  0  0
    8.7453   -1.2575   24.8012 H   0  0  0  0  0  0  0  0  0  0  0  0
    9.5827    0.5501   23.5001 C   0  0  0  0  0  0  0  0  0  0  0  0
    8.6893    2.1286   22.2965 H   0  0  0  0  0  0  0  0  0  0  0  0
    9.3873    1.2850   22.1592 C   0  0  1  0  0  0  0  0  0  0  0  0
   10.7282    1.9610   20.8124 H   0  0  0  0  0  0  0  0  0  0  0  0
    9.6943   -0.7853   21.0513 N   0  0  0  0  0  0  0  0  0  0  0  0
   10.2298    1.1991   24.0939 H   0  0  0  0  0  0  0  0  0  0  0  0
   10.5402   -0.5716   20.5149 H   0  0  0  0  0  0  0  0  0  0  0  0
   10.6902    1.8183   21.8014 N   0  3  0  0  0  0  0  0  0  0  0  0
   13.0825    0.7214   24.3527 N   0  0  0  0  0  0  0  0  0  0  0  0
   10.8474    2.6892   22.2669 H   0  0  0  0  0  0  0  0  0  0  0  0
   11.8170   -1.2294   23.3130 C   0  0  0  0  0  0  0  0  0  0  0  0
   12.2122   -1.2162   22.2885 H   0  0  0  0  0  0  0  0  0  0  0  0
   12.5428   -0.2111   23.9451 C   0  0  0  0  0  0  0  0  0  0  0  0
   11.3991    1.1668   22.0717 H   0  0  0  0  0  0  0  0  0  0  0  0
 19 21  1  0  0  0  0
 15 19  1  0  0  0  0
 14 19  1  0  0  0  0
 13 14  1  0  0  0  0
 20 24  3  0  0  0  0
 12 17  1  0  0  0  0
 12 14  1  0  0  0  0
  8 14  1  0  0  0  0
 22 24  1  0  0  0  0
  5 12  1  0  0  0  0
  6 12  1  0  0  0  0
  8 10  1  0  0  0  0
  8  9  1  0  0  0  0
  8 16  1  0  0  0  0
 16 18  1  0  0  0  0
 22 23  1  0  0  0  0
  6 22  1  0  0  0  0
  4 22  1  0  0  0  0
  6  7  1  0  0  0  0
  1  6  1  0  0  0  0
  1 16  1  0  0  0  0
  7 11  1  0  0  0  0
  3  7  1  0  0  0  0
  1  2  2  0  0  0  0
 19 25  1  0  0  0  0
M  CHG  1  19   1
M  END
> <Chemgauss4>
-5.328589

$$$$
