
 OpenBabel07202414153D

 48 51  0  0  0  0  0  0  0  0999 V2000
    0.9250   -0.0163    0.2005 C   0  0  0  0  0  0  0  0  0  0  0  0
    2.4085   -0.0444    0.3202 C   0  0  0  0  0  0  0  0  0  0  0  0
    3.2396    1.0619    0.4687 C   0  0  0  0  0  0  0  0  0  0  0  0
    4.5349    0.6046    0.5220 N   0  0  0  0  0  0  0  0  0  0  0  0
    4.5614   -0.7539    0.4077 C   0  0  0  0  0  0  0  0  0  0  0  0
    3.2588   -1.2128    0.2911 C   0  0  0  0  0  0  0  0  0  0  0  0
    3.1115   -2.6115    0.1684 C   0  0  0  0  0  0  0  0  0  0  0  0
    4.2212   -3.3817    0.1581 N   0  0  0  0  0  0  0  0  0  0  0  0
    5.4206   -2.7911    0.2786 C   0  0  0  0  0  0  0  0  0  0  0  0
    5.6845   -1.4844    0.4121 N   0  0  0  0  0  0  0  0  0  0  0  0
    1.8377   -3.1808    0.0668 N   0  0  0  0  0  0  0  0  0  0  0  0
    1.5454   -4.5203   -0.1061 C   0  0  0  0  0  0  0  0  0  0  0  0
    2.3524   -5.4411   -0.1726 O   0  0  0  0  0  0  0  0  0  0  0  0
    0.0289   -4.7751   -0.1728 C   0  0  0  0  0  0  0  0  0  0  0  0
   -0.3036   -6.2680   -0.3171 C   0  0  0  0  0  0  0  0  0  0  0  0
   -0.0231   -6.8181   -1.7199 C   0  0  0  0  0  0  0  0  0  0  0  0
   -0.6128   -5.9489   -2.7351 N   0  0  0  0  0  0  0  0  0  0  0  0
   -0.2662   -4.5341   -2.6687 C   0  0  0  0  0  0  0  0  0  0  0  0
   -0.6546   -3.9834   -1.2992 C   0  0  0  0  0  0  0  0  0  0  0  0
   -1.5683   -6.3726   -3.6336 C   0  0  0  0  0  0  0  0  0  0  0  0
   -1.6537   -7.7082   -4.0340 C   0  0  0  0  0  0  0  0  0  0  0  0
   -2.6329   -8.1246   -4.9400 C   0  0  0  0  0  0  0  0  0  0  0  0
   -3.5161   -7.1906   -5.4465 C   0  0  0  0  0  0  0  0  0  0  0  0
   -3.3749   -5.8812   -5.0291 C   0  0  0  0  0  0  0  0  0  0  0  0
   -2.4298   -5.4616   -4.1456 N   0  0  0  0  0  0  0  0  0  0  0  0
   -4.7351   -7.6469   -6.5616 Cl  0  0  0  0  0  0  0  0  0  0  0  0
    2.9565    2.5198    0.5603 C   0  0  0  0  0  0  0  0  0  0  0  0
    0.5227    0.9998    0.2420 H   0  0  0  0  0  0  0  0  0  0  0  0
    0.4639   -0.5842    1.0156 H   0  0  0  0  0  0  0  0  0  0  0  0
    0.6134   -0.4529   -0.7544 H   0  0  0  0  0  0  0  0  0  0  0  0
    5.3660    1.1697    0.6217 H   0  0  0  0  0  0  0  0  0  0  0  0
    6.2795   -3.4561    0.2686 H   0  0  0  0  0  0  0  0  0  0  0  0
    1.0688   -2.5372    0.1470 H   0  0  0  0  0  0  0  0  0  0  0  0
   -0.3736   -4.4375    0.7921 H   0  0  0  0  0  0  0  0  0  0  0  0
   -1.3717   -6.4038   -0.0987 H   0  0  0  0  0  0  0  0  0  0  0  0
    0.2427   -6.8658    0.4221 H   0  0  0  0  0  0  0  0  0  0  0  0
   -0.4282   -7.8352   -1.7438 H   0  0  0  0  0  0  0  0  0  0  0  0
    1.0529   -6.9060   -1.9019 H   0  0  0  0  0  0  0  0  0  0  0  0
   -0.7350   -3.9276   -3.4512 H   0  0  0  0  0  0  0  0  0  0  0  0
    0.8151   -4.4270   -2.8220 H   0  0  0  0  0  0  0  0  0  0  0  0
   -1.7428   -4.0573   -1.1727 H   0  0  0  0  0  0  0  0  0  0  0  0
   -0.4108   -2.9176   -1.2558 H   0  0  0  0  0  0  0  0  0  0  0  0
   -0.9414   -8.4449   -3.6795 H   0  0  0  0  0  0  0  0  0  0  0  0
   -2.6839   -9.1663   -5.2412 H   0  0  0  0  0  0  0  0  0  0  0  0
   -4.0331   -5.0996   -5.3961 H   0  0  0  0  0  0  0  0  0  0  0  0
    1.8874    2.7337    0.4971 H   0  0  0  0  0  0  0  0  0  0  0  0
    3.4535    3.0573   -0.2537 H   0  0  0  0  0  0  0  0  0  0  0  0
    3.3213    2.9198    1.5117 H   0  0  0  0  0  0  0  0  0  0  0  0
  1  2  1  0  0  0  0
  1 28  1  0  0  0  0
  1 29  1  0  0  0  0
  1 30  1  0  0  0  0
  2  3  2  0  0  0  0
  2  6  1  0  0  0  0
  3  4  1  0  0  0  0
  3 27  1  0  0  0  0
  4  5  1  0  0  0  0
  4 31  1  0  0  0  0
  5  6  1  0  0  0  0
  5 10  2  0  0  0  0
  6  7  2  0  0  0  0
  7  8  1  0  0  0  0
  7 11  1  0  0  0  0
  8  9  2  0  0  0  0
  9 10  1  0  0  0  0
  9 32  1  0  0  0  0
 11 12  1  0  0  0  0
 11 33  1  0  0  0  0
 12 13  2  0  0  0  0
 12 14  1  0  0  0  0
 14 15  1  0  0  0  0
 14 19  1  0  0  0  0
 14 34  1  0  0  0  0
 15 16  1  0  0  0  0
 15 35  1  0  0  0  0
 15 36  1  0  0  0  0
 16 17  1  0  0  0  0
 16 37  1  0  0  0  0
 16 38  1  0  0  0  0
 17 18  1  0  0  0  0
 17 20  1  0  0  0  0
 18 19  1  0  0  0  0
 18 39  1  0  0  0  0
 18 40  1  0  0  0  0
 19 41  1  0  0  0  0
 19 42  1  0  0  0  0
 20 21  1  0  0  0  0
 20 25  2  0  0  0  0
 21 22  2  0  0  0  0
 21 43  1  0  0  0  0
 22 23  1  0  0  0  0
 22 44  1  0  0  0  0
 23 24  2  0  0  0  0
 23 26  1  0  0  0  0
 24 25  1  0  0  0  0
 24 45  1  0  0  0  0
 27 46  1  0  0  0  0
 27 47  1  0  0  0  0
 27 48  1  0  0  0  0
M  END
$$$$
