stable:False satoms:17 tatoms:24 sratio:0.7083333333333334
  -OEChem-07092417333D

 24 24  0     1  0  0  0  0  0999 V2000
    9.6899   -0.8676   24.2355 C   0  0  1  0  0  0  0  0  0  0  0  0
    9.6123   -2.0464   24.9135 O   0  0  0  0  0  0  0  0  0  0  0  0
   10.0953   -2.7761   24.4883 H   0  0  0  0  0  0  0  0  0  0  0  0
    8.4124   -3.0091   23.2736 H   0  0  0  0  0  0  0  0  0  0  0  0
    9.5474   -1.7258   21.7866 C   0  0  0  0  0  0  0  0  0  0  0  0
    6.7106   -3.0199   22.0608 H   0  0  0  0  0  0  0  0  0  0  0  0
   11.5255   -0.0516   24.8140 H   0  0  0  0  0  0  0  0  0  0  0  0
   10.6088   -2.0575   21.8450 H   0  0  0  0  0  0  0  0  0  0  0  0
    9.2191   -0.0738   24.8149 H   0  0  0  0  0  0  0  0  0  0  0  0
   11.1052   -0.3898   23.8797 C   0  0  0  0  0  0  0  0  0  0  0  0
   11.7906   -1.1381   23.4841 H   0  0  0  0  0  0  0  0  0  0  0  0
    9.0077   -0.9541   22.8209 C   0  0  1  0  0  0  0  0  0  0  0  0
    8.6400   -2.1401   22.5848 C   0  5  2  0  0  0  0  0  0  0  0  0
    8.4493    1.0163   22.7360 H   0  0  0  0  0  0  0  0  0  0  0  0
    7.1933   -0.1771   21.4031 C   0  0  0  0  0  0  0  0  0  0  0  0
    8.0554    0.1815   22.3359 N   0  0  0  0  0  0  0  0  0  0  0  0
   11.0077    0.3782   23.1263 H   0  0  0  0  0  0  0  0  0  0  0  0
    6.7630   -1.6669   19.6957 H   0  0  0  0  0  0  0  0  0  0  0  0
    9.3551   -1.4713   20.7144 H   0  0  0  0  0  0  0  0  0  0  0  0
    7.5577    0.1177   20.3681 H   0  0  0  0  0  0  0  0  0  0  0  0
    5.9590   -1.5519   22.3782 H   0  0  0  0  0  0  0  0  0  0  0  0
    6.6010   -1.8741   21.6024 C   0  0  0  0  0  0  0  0  0  0  0  0
    6.1985    0.2531   21.5024 H   0  0  0  0  0  0  0  0  0  0  0  0
    6.4791   -2.2458   20.4326 O   0  0  0  0  0  0  0  0  0  0  0  0
 18 24  1  0  0  0  0
 15 20  1  0  0  0  0
 22 24  1  0  0  0  0
  5 19  1  0  0  0  0
 15 23  1  0  0  0  0
 15 22  1  0  0  0  0
 15 16  1  0  0  0  0
  6 22  1  0  0  0  0
 21 22  1  0  0  0  0
  5  8  1  0  0  0  0
  5 13  1  0  0  0  0
  5 12  1  0  0  0  0
 14 16  1  0  0  0  0
 12 16  1  0  0  0  0
 12 13  1  0  0  0  0
  4 13  1  0  0  0  0
  1 12  1  0  0  0  0
 10 17  1  0  0  0  0
 10 11  1  0  0  0  0
  1 10  1  0  0  0  0
  7 10  1  0  0  0  0
  1  9  1  0  0  0  0
  1  2  1  0  0  0  0
  2  3  1  0  0  0  0
M  CHG  1  13  -1
M  END
> <Shapegauss>
-90.102692

$$$$
