stable:False satoms:17 tatoms:24 sratio:0.7083333333333334
  -OEChem-08052419383D

 26 26  0     1  0  0  0  0  0999 V2000
  -11.8511   -0.7453  -23.5794 C   0  0  1  0  0  0  0  0  0  0  0  0
  -11.7012   -0.7209  -24.9330 O   0  0  0  0  0  0  0  0  0  0  0  0
  -11.5288   -1.5947  -25.3245 H   0  0  0  0  0  0  0  0  0  0  0  0
   -8.6357   -1.1699  -23.5845 H   0  0  0  0  0  0  0  0  0  0  0  0
  -10.0492   -2.5056  -22.9405 C   0  0  0  0  0  0  0  0  0  0  0  0
   -7.6114   -0.8987  -24.0685 H   0  0  0  0  0  0  0  0  0  0  0  0
  -13.8387   -1.3214  -23.2839 H   0  0  0  0  0  0  0  0  0  0  0  0
  -10.7260   -3.3190  -23.2874 H   0  0  0  0  0  0  0  0  0  0  0  0
  -12.1433    0.2410  -23.2199 H   0  0  0  0  0  0  0  0  0  0  0  0
  -12.8793   -1.7480  -23.0359 C   0  0  0  0  0  0  0  0  0  0  0  0
  -12.8640   -2.7483  -23.4665 H   0  0  0  0  0  0  0  0  0  0  0  0
  -10.5341   -1.1969  -22.8476 C   0  0  1  0  0  0  0  0  0  0  0  0
   -9.6628   -1.5483  -23.6931 C   0  0  2  0  0  0  0  0  0  0  0  0
  -10.5244   -0.7426  -20.7996 H   0  0  0  0  0  0  0  0  0  0  0  0
   -8.7305   -0.5488  -21.3533 C   0  0  0  0  0  0  0  0  0  0  0  0
  -10.0204   -0.4161  -21.5993 N   0  3  0  0  0  0  0  0  0  0  0  0
  -12.6960   -1.8576  -21.9770 H   0  0  0  0  0  0  0  0  0  0  0  0
   -6.8776   -1.8923  -21.6392 H   0  0  0  0  0  0  0  0  0  0  0  0
   -9.4158   -2.9464  -22.1306 H   0  0  0  0  0  0  0  0  0  0  0  0
   -8.5410   -1.3300  -20.5504 H   0  0  0  0  0  0  0  0  0  0  0  0
   -7.8211    0.3736  -22.9924 H   0  0  0  0  0  0  0  0  0  0  0  0
   -7.7329   -0.6712  -22.8567 C   0  0  0  0  0  0  0  0  0  0  0  0
   -8.2289    0.3554  -21.0136 H   0  0  0  0  0  0  0  0  0  0  0  0
   -6.8480   -1.4608  -22.5177 O   0  0  0  0  0  0  0  0  0  0  0  0
   -9.9355   -1.5682  -24.7585 H   0  0  0  0  0  0  0  0  0  0  0  0
  -10.2116    0.5553  -21.7401 H   0  0  0  0  0  0  0  0  0  0  0  0
 18 24  1  0  0  0  0
 15 20  1  0  0  0  0
 22 24  1  0  0  0  0
  5 19  1  0  0  0  0
 15 23  1  0  0  0  0
 15 22  1  0  0  0  0
 15 16  1  0  0  0  0
  6 22  1  0  0  0  0
 21 22  1  0  0  0  0
  5  8  1  0  0  0  0
  5 13  1  0  0  0  0
  5 12  1  0  0  0  0
 14 16  1  0  0  0  0
 12 16  1  0  0  0  0
 12 13  1  0  0  0  0
  4 13  1  0  0  0  0
  1 12  1  0  0  0  0
 10 17  1  0  0  0  0
 10 11  1  0  0  0  0
  1 10  1  0  0  0  0
  7 10  1  0  0  0  0
  1  9  1  0  0  0  0
  1  2  1  0  0  0  0
  2  3  1  0  0  0  0
 13 25  1  0  0  0  0
 16 26  1  0  0  0  0
M  CHG  1  16   1
M  END
> <Chemgauss4>
-5.211696

$$$$
