stable:False satoms:17 tatoms:24 sratio:0.7083333333333334
  -OEChem-08052419383D

 26 26  0     1  0  0  0  0  0999 V2000
   12.1924   -0.8522   23.3964 C   0  0  1  0  0  0  0  0  0  0  0  0
   12.0425   -0.8277   24.7500 O   0  0  0  0  0  0  0  0  0  0  0  0
   11.8701   -1.7016   25.1415 H   0  0  0  0  0  0  0  0  0  0  0  0
    8.9769   -1.2767   23.4015 H   0  0  0  0  0  0  0  0  0  0  0  0
   10.3904   -2.6125   22.7575 C   0  0  0  0  0  0  0  0  0  0  0  0
    7.9527   -1.0056   23.8855 H   0  0  0  0  0  0  0  0  0  0  0  0
   14.1800   -1.4283   23.1008 H   0  0  0  0  0  0  0  0  0  0  0  0
   11.0673   -3.4258   23.1044 H   0  0  0  0  0  0  0  0  0  0  0  0
   12.4845    0.1342   23.0369 H   0  0  0  0  0  0  0  0  0  0  0  0
   13.2206   -1.8548   22.8529 C   0  0  0  0  0  0  0  0  0  0  0  0
   13.2053   -2.8551   23.2835 H   0  0  0  0  0  0  0  0  0  0  0  0
   10.8754   -1.3038   22.6646 C   0  0  1  0  0  0  0  0  0  0  0  0
   10.0041   -1.6551   23.5101 C   0  0  2  0  0  0  0  0  0  0  0  0
   10.8656   -0.8494   20.6166 H   0  0  0  0  0  0  0  0  0  0  0  0
    9.0718   -0.6556   21.1703 C   0  0  0  0  0  0  0  0  0  0  0  0
   10.3617   -0.5230   21.4163 N   0  3  0  0  0  0  0  0  0  0  0  0
   13.0373   -1.9645   21.7940 H   0  0  0  0  0  0  0  0  0  0  0  0
    7.2189   -1.9991   21.4562 H   0  0  0  0  0  0  0  0  0  0  0  0
    9.7571   -3.0533   21.9476 H   0  0  0  0  0  0  0  0  0  0  0  0
    8.8823   -1.4368   20.3674 H   0  0  0  0  0  0  0  0  0  0  0  0
    8.1624    0.2667   22.8094 H   0  0  0  0  0  0  0  0  0  0  0  0
    8.0742   -0.7781   22.6737 C   0  0  0  0  0  0  0  0  0  0  0  0
    8.5701    0.2485   20.8306 H   0  0  0  0  0  0  0  0  0  0  0  0
    7.1892   -1.5677   22.3346 O   0  0  0  0  0  0  0  0  0  0  0  0
   10.2768   -1.6750   24.5755 H   0  0  0  0  0  0  0  0  0  0  0  0
   10.5528    0.4484   21.5571 H   0  0  0  0  0  0  0  0  0  0  0  0
 18 24  1  0  0  0  0
 15 20  1  0  0  0  0
 22 24  1  0  0  0  0
  5 19  1  0  0  0  0
 15 23  1  0  0  0  0
 15 22  1  0  0  0  0
 15 16  1  0  0  0  0
  6 22  1  0  0  0  0
 21 22  1  0  0  0  0
  5  8  1  0  0  0  0
  5 13  1  0  0  0  0
  5 12  1  0  0  0  0
 14 16  1  0  0  0  0
 12 16  1  0  0  0  0
 12 13  1  0  0  0  0
  4 13  1  0  0  0  0
  1 12  1  0  0  0  0
 10 17  1  0  0  0  0
 10 11  1  0  0  0  0
  1 10  1  0  0  0  0
  7 10  1  0  0  0  0
  1  9  1  0  0  0  0
  1  2  1  0  0  0  0
  2  3  1  0  0  0  0
 13 25  1  0  0  0  0
 16 26  1  0  0  0  0
M  CHG  1  16   1
M  END
> <Chemgauss4>
-5.159307

$$$$
