REMARK  7 active torsions:
REMARK  status: ('A' for Active; 'I' for Inactive)
REMARK    1  A    between atoms: S_2  and  N_5 
REMARK    2  A    between atoms: N_5  and  C_7 
REMARK    3  A    between atoms: C_7  and  C_8 
REMARK    4  A    between atoms: C_9  and  C_13 
REMARK    5  A    between atoms: C_9  and  C_10 
REMARK    6  A    between atoms: C_13  and  C_14 
REMARK       I    between atoms: C_14  and  N_16 
REMARK    7  A    between atoms: N_16  and  C_18 
ROOT
HETATM    1  C   UNL     1       9.685  -0.369  22.326  1.00  0.00    -0.068 C 
ENDROOT
BRANCH   1   2
HETATM    2  C   UNL     1      10.510  -1.096  23.164  1.00  0.00     0.054 A 
HETATM    3  C   UNL     1       9.732  -2.271  23.739  1.00  0.00     0.101 A 
HETATM    4  C   UNL     1      11.151  -1.963  22.802  1.00  0.00     0.047 A 
BRANCH   3   5
HETATM    5  C   UNL     1       9.053  -2.924  24.294  1.00  0.00    -0.053 C 
BRANCH   5   6
HETATM    6  N   UNL     1       8.112  -3.501  24.781  1.00  0.00    -0.240 N 
ATOM      7  HN  UNL     1       7.212  -3.475  24.301  1.00  0.00     0.189 HD
BRANCH   6   8
HETATM    8  S   UNL     1       8.235  -4.303  26.155  1.00  0.00     0.326 S 
HETATM    9 CL   UNL     1       6.447  -4.910  26.443  1.00  0.00     0.042 Cl
HETATM   10  O   UNL     1       9.043  -5.468  25.987  1.00  0.00    -0.188 OA
HETATM   11  O   UNL     1       8.613  -3.507  27.264  1.00  0.00    -0.188 OA
ENDBRANCH   6   8
ENDBRANCH   5   6
ENDBRANCH   3   5
BRANCH   2  12
HETATM   12  C   UNL     1      11.328  -0.295  23.933  1.00  0.00    -0.014 C 
HETATM   13  C   UNL     1      12.636  -0.210  23.707  1.00  0.00     0.008 C 
ENDBRANCH   2  12
ENDBRANCH   1   2
BRANCH   1  14
HETATM   14  C   UNL     1       8.986   0.201  21.385  1.00  0.00     0.291 C 
HETATM   15  O   UNL     1       9.432   1.162  20.829  1.00  0.00    -0.259 OA
HETATM   16  N   UNL     1       7.772  -0.432  21.117  1.00  0.00    -0.302 N 
ATOM     17  HN  UNL     1       7.473  -1.211  21.704  1.00  0.00     0.171 HD
BRANCH  16  18
HETATM   18  C   UNL     1       6.997  -0.038  20.109  1.00  0.00     0.125 A 
HETATM   19  N   UNL     1       7.277  -0.119  18.779  1.00  0.00    -0.271 N 
HETATM   20  N   UNL     1       6.553   0.293  17.886  1.00  0.00    -0.242 N 
ATOM     21  HN  UNL     1       8.158  -0.557  18.508  1.00  0.00     0.190 HD
HETATM   22  N   UNL     1       5.512   0.913  18.125  1.00  0.00    -0.297 N 
ATOM     23  HN  UNL     1       6.815   0.120  16.916  1.00  0.00     0.208 HD
HETATM   24  C   UNL     1       5.340   0.864  19.316  1.00  0.00     0.112 A 
ATOM     25  HN  UNL     1       4.912   1.378  17.444  1.00  0.00     0.187 HD
HETATM   26  C   UNL     1       5.743   0.505  20.454  1.00  0.00     0.068 A 
ENDBRANCH  16  18
ENDBRANCH   1  14
TORSDOF 7
