MODEL 1
REMARK VINA RESULT:    -6.538      0.000      0.000
REMARK INTER + INTRA:         -10.264
REMARK INTER:                  -9.214
REMARK INTRA:                  -1.050
REMARK UNBOUND:                -1.050
REMARK  7 active torsions:
REMARK  status: ('A' for Active; 'I' for Inactive)
REMARK    1  A    between atoms: S_2  and  N_5 
REMARK    2  A    between atoms: N_5  and  C_7 
REMARK    3  A    between atoms: C_7  and  C_8 
REMARK    4  A    between atoms: C_9  and  C_13 
REMARK    5  A    between atoms: C_9  and  C_10 
REMARK    6  A    between atoms: C_13  and  C_14 
REMARK       I    between atoms: C_14  and  N_16 
REMARK    7  A    between atoms: N_16  and  C_18 
ROOT
HETATM    1  C   UNL     1       9.689   0.015  22.211  1.00  0.00    -0.068 C 
ENDROOT
BRANCH   1   2
HETATM    2  C   UNL     1      10.417  -0.788  23.069  1.00  0.00     0.054 A 
HETATM    3  C   UNL     1       9.680  -2.104  23.273  1.00  0.00     0.101 A 
HETATM    4  C   UNL     1      11.207  -1.523  22.709  1.00  0.00     0.047 A 
BRANCH   3   5
HETATM    5  C   UNL     1       8.986  -2.897  23.563  1.00  0.00    -0.053 C 
BRANCH   5   6
HETATM    6  N   UNL     1       8.035  -3.610  23.770  1.00  0.00    -0.240 N 
ATOM      7  HN  UNL     1       8.027  -4.197  24.605  1.00  0.00     0.189 HD
BRANCH   6   8
HETATM    8  S   UNL     1       6.789  -3.663  22.774  1.00  0.00     0.326 S 
HETATM    9 CL   UNL     1       7.109  -5.271  21.794  1.00  0.00     0.042 Cl
HETATM   10  O   UNL     1       5.574  -3.857  23.498  1.00  0.00    -0.188 OA
HETATM   11  O   UNL     1       6.733  -2.590  21.851  1.00  0.00    -0.188 OA
ENDBRANCH   6   8
ENDBRANCH   5   6
ENDBRANCH   3   5
BRANCH   2  12
HETATM   12  C   UNL     1      10.983  -0.081  24.110  1.00  0.00    -0.014 C 
HETATM   13  C   UNL     1      12.301  -0.017  24.277  1.00  0.00     0.008 C 
ENDBRANCH   2  12
ENDBRANCH   1   2
BRANCH   1  14
HETATM   14  C   UNL     1       8.864   0.619  21.403  1.00  0.00     0.291 C 
HETATM   15  O   UNL     1       8.960   1.802  21.251  1.00  0.00    -0.259 OA
HETATM   16  N   UNL     1       7.959  -0.235  20.772  1.00  0.00    -0.302 N 
ATOM     17  HN  UNL     1       7.936  -1.221  21.033  1.00  0.00     0.171 HD
BRANCH  16  18
HETATM   18  C   UNL     1       7.127   0.213  19.835  1.00  0.00     0.125 A 
HETATM   19  N   UNL     1       7.334   0.218  18.489  1.00  0.00    -0.271 N 
HETATM   20  N   UNL     1       6.559   0.678  17.665  1.00  0.00    -0.242 N 
ATOM     21  HN  UNL     1       8.201  -0.193  18.143  1.00  0.00     0.190 HD
HETATM   22  N   UNL     1       5.529   1.271  17.999  1.00  0.00    -0.297 N 
ATOM     23  HN  UNL     1       6.768   0.568  16.673  1.00  0.00     0.208 HD
HETATM   24  C   UNL     1       5.423   1.147  19.192  1.00  0.00     0.112 A 
ATOM     25  HN  UNL     1       4.889   1.772  17.382  1.00  0.00     0.187 HD
HETATM   26  C   UNL     1       5.891   0.721  20.281  1.00  0.00     0.068 A 
ENDBRANCH  16  18
ENDBRANCH   1  14
TORSDOF 7
ENDMDL
MODEL 2
REMARK VINA RESULT:    -6.461     19.913     21.453
REMARK INTER + INTRA:         -10.155
REMARK INTER:                  -9.310
REMARK INTRA:                  -0.844
REMARK UNBOUND:                -1.050
REMARK  7 active torsions:
REMARK  status: ('A' for Active; 'I' for Inactive)
REMARK    1  A    between atoms: S_2  and  N_5 
REMARK    2  A    between atoms: N_5  and  C_7 
REMARK    3  A    between atoms: C_7  and  C_8 
REMARK    4  A    between atoms: C_9  and  C_13 
REMARK    5  A    between atoms: C_9  and  C_10 
REMARK    6  A    between atoms: C_13  and  C_14 
REMARK       I    between atoms: C_14  and  N_16 
REMARK    7  A    between atoms: N_16  and  C_18 
ROOT
HETATM    1  C   UNL     1      -0.713 -16.485  12.079  1.00  0.00    -0.068 C 
ENDROOT
BRANCH   1   2
HETATM    2  C   UNL     1      -1.078 -16.564  10.748  1.00  0.00     0.054 A 
HETATM    3  C   UNL     1      -0.029 -17.360   9.985  1.00  0.00     0.101 A 
HETATM    4  C   UNL     1      -1.721 -17.404  10.331  1.00  0.00     0.047 A 
BRANCH   3   5
HETATM    5  C   UNL     1       0.871 -17.711   9.474  1.00  0.00    -0.053 C 
BRANCH   5   6
HETATM    6  N   UNL     1       1.983 -17.896   9.043  1.00  0.00    -0.240 N 
ATOM      7  HN  UNL     1       2.624 -17.106   8.970  1.00  0.00     0.189 HD
BRANCH   6   8
HETATM    8  S   UNL     1       2.478 -19.342   8.582  1.00  0.00     0.326 S 
HETATM    9 CL   UNL     1       1.247 -20.504   9.467  1.00  0.00     0.042 Cl
HETATM   10  O   UNL     1       2.276 -19.519   7.179  1.00  0.00    -0.188 OA
HETATM   11  O   UNL     1       3.785 -19.676   9.012  1.00  0.00    -0.188 OA
ENDBRANCH   6   8
ENDBRANCH   5   6
ENDBRANCH   3   5
BRANCH   2  12
HETATM   12  C   UNL     1      -1.612 -15.385  10.272  1.00  0.00    -0.014 C 
HETATM   13  C   UNL     1      -2.844 -15.327   9.774  1.00  0.00     0.008 C 
ENDBRANCH   2  12
ENDBRANCH   1   2
BRANCH   1  14
HETATM   14  C   UNL     1      -0.479 -16.583  13.358  1.00  0.00     0.291 C 
HETATM   15  O   UNL     1       0.650 -16.703  13.736  1.00  0.00    -0.259 OA
HETATM   16  N   UNL     1      -1.623 -16.498  14.152  1.00  0.00    -0.302 N 
ATOM     17  HN  UNL     1      -2.540 -16.459  13.707  1.00  0.00     0.171 HD
BRANCH  16  18
HETATM   18  C   UNL     1      -1.539 -16.468  15.480  1.00  0.00     0.125 A 
HETATM   19  N   UNL     1      -0.550 -16.998  16.252  1.00  0.00    -0.271 N 
HETATM   20  N   UNL     1      -0.533 -16.984  17.473  1.00  0.00    -0.242 N 
ATOM     21  HN  UNL     1       0.235 -17.441  15.774  1.00  0.00     0.190 HD
HETATM   22  N   UNL     1      -1.482 -16.548  18.133  1.00  0.00    -0.297 N 
ATOM     23  HN  UNL     1       0.287 -17.341  17.961  1.00  0.00     0.208 HD
HETATM   24  C   UNL     1      -2.255 -16.054  17.352  1.00  0.00     0.112 A 
ATOM     25  HN  UNL     1      -1.590 -16.597  19.146  1.00  0.00     0.187 HD
HETATM   26  C   UNL     1      -2.576 -15.799  16.161  1.00  0.00     0.068 A 
ENDBRANCH  16  18
ENDBRANCH   1  14
TORSDOF 7
ENDMDL
MODEL 3
REMARK VINA RESULT:    -6.336      1.210      1.339
REMARK INTER + INTRA:          -9.979
REMARK INTER:                  -8.937
REMARK INTRA:                  -1.042
REMARK UNBOUND:                -1.050
REMARK  7 active torsions:
REMARK  status: ('A' for Active; 'I' for Inactive)
REMARK    1  A    between atoms: S_2  and  N_5 
REMARK    2  A    between atoms: N_5  and  C_7 
REMARK    3  A    between atoms: C_7  and  C_8 
REMARK    4  A    between atoms: C_9  and  C_13 
REMARK    5  A    between atoms: C_9  and  C_10 
REMARK    6  A    between atoms: C_13  and  C_14 
REMARK       I    between atoms: C_14  and  N_16 
REMARK    7  A    between atoms: N_16  and  C_18 
ROOT
HETATM    1  C   UNL     1       8.696  -0.450  22.358  1.00  0.00    -0.068 C 
ENDROOT
BRANCH   1   2
HETATM    2  C   UNL     1       9.238  -1.340  23.267  1.00  0.00     0.054 A 
HETATM    3  C   UNL     1       8.549  -2.690  23.120  1.00  0.00     0.101 A 
HETATM    4  C   UNL     1      10.132  -2.002  23.028  1.00  0.00     0.047 A 
BRANCH   3   5
HETATM    5  C   UNL     1       7.851  -3.531  23.130  1.00  0.00    -0.053 C 
BRANCH   5   6
HETATM    6  N   UNL     1       7.000  -4.350  23.375  1.00  0.00    -0.240 N 
ATOM      7  HN  UNL     1       7.081  -4.911  24.224  1.00  0.00     0.189 HD
BRANCH   6   8
HETATM    8  S   UNL     1       5.752  -4.583  22.408  1.00  0.00     0.326 S 
HETATM    9 CL   UNL     1       6.414  -5.890  21.182  1.00  0.00     0.042 Cl
HETATM   10  O   UNL     1       4.674  -5.194  23.117  1.00  0.00    -0.188 OA
HETATM   11  O   UNL     1       5.367  -3.440  21.667  1.00  0.00    -0.188 OA
ENDBRANCH   6   8
ENDBRANCH   5   6
ENDBRANCH   3   5
BRANCH   2  12
HETATM   12  C   UNL     1       9.492  -0.761  24.493  1.00  0.00    -0.014 C 
HETATM   13  C   UNL     1       8.849   0.331  24.897  1.00  0.00     0.008 C 
ENDBRANCH   2  12
ENDBRANCH   1   2
BRANCH   1  14
HETATM   14  C   UNL     1       8.278   0.273  21.357  1.00  0.00     0.291 C 
HETATM   15  O   UNL     1       8.971   1.159  20.950  1.00  0.00    -0.259 OA
HETATM   16  N   UNL     1       7.039  -0.119  20.852  1.00  0.00    -0.302 N 
ATOM     17  HN  UNL     1       6.514  -0.854  21.327  1.00  0.00     0.171 HD
BRANCH  16  18
HETATM   18  C   UNL     1       6.528   0.448  19.761  1.00  0.00     0.125 A 
HETATM   19  N   UNL     1       7.088   0.491  18.521  1.00  0.00    -0.271 N 
HETATM   20  N   UNL     1       6.603   1.059  17.554  1.00  0.00    -0.242 N 
ATOM     21  HN  UNL     1       7.980   0.013  18.389  1.00  0.00     0.190 HD
HETATM   22  N   UNL     1       5.573   1.734  17.645  1.00  0.00    -0.297 N 
ATOM     23  HN  UNL     1       7.061   0.973  16.648  1.00  0.00     0.208 HD
HETATM   24  C   UNL     1       5.141   1.568  18.757  1.00  0.00     0.112 A 
ATOM     25  HN  UNL     1       5.166   2.320  16.917  1.00  0.00     0.187 HD
HETATM   26  C   UNL     1       5.263   1.053  19.899  1.00  0.00     0.068 A 
ENDBRANCH  16  18
ENDBRANCH   1  14
TORSDOF 7
ENDMDL
MODEL 4
REMARK VINA RESULT:    -6.303     19.973     22.130
REMARK INTER + INTRA:          -9.932
REMARK INTER:                  -8.991
REMARK INTRA:                  -0.941
REMARK UNBOUND:                -1.050
REMARK  7 active torsions:
REMARK  status: ('A' for Active; 'I' for Inactive)
REMARK    1  A    between atoms: S_2  and  N_5 
REMARK    2  A    between atoms: N_5  and  C_7 
REMARK    3  A    between atoms: C_7  and  C_8 
REMARK    4  A    between atoms: C_9  and  C_13 
REMARK    5  A    between atoms: C_9  and  C_10 
REMARK    6  A    between atoms: C_13  and  C_14 
REMARK       I    between atoms: C_14  and  N_16 
REMARK    7  A    between atoms: N_16  and  C_18 
ROOT
HETATM    1  C   UNL     1       5.686  10.758   3.598  1.00  0.00    -0.068 C 
ENDROOT
BRANCH   1   2
HETATM    2  C   UNL     1       5.819  12.131   3.686  1.00  0.00     0.054 A 
HETATM    3  C   UNL     1       7.243  12.523   3.318  1.00  0.00     0.101 A 
HETATM    4  C   UNL     1       5.620  12.830   2.810  1.00  0.00     0.047 A 
BRANCH   3   5
HETATM    5  C   UNL     1       8.322  12.697   3.292  1.00  0.00    -0.053 C 
BRANCH   5   6
HETATM    6  N   UNL     1       9.451  13.104   3.413  1.00  0.00    -0.240 N 
ATOM      7  HN  UNL     1      10.172  12.470   3.758  1.00  0.00     0.189 HD
BRANCH   6   8
HETATM    8  S   UNL     1       9.848  14.607   3.052  1.00  0.00     0.326 S 
HETATM    9 CL   UNL     1       8.737  15.623   4.227  1.00  0.00     0.042 Cl
HETATM   10  O   UNL     1      11.198  14.875   3.429  1.00  0.00    -0.188 OA
HETATM   11  O   UNL     1       9.545  14.987   1.722  1.00  0.00    -0.188 OA
ENDBRANCH   6   8
ENDBRANCH   5   6
ENDBRANCH   3   5
BRANCH   2  12
HETATM   12  C   UNL     1       5.156  12.662   4.772  1.00  0.00    -0.014 C 
HETATM   13  C   UNL     1       5.481  12.333   6.019  1.00  0.00     0.008 C 
ENDBRANCH   2  12
ENDBRANCH   1   2
BRANCH   1  14
HETATM   14  C   UNL     1       5.361   9.497   3.551  1.00  0.00     0.291 C 
HETATM   15  O   UNL     1       5.240   8.966   2.486  1.00  0.00    -0.259 OA
HETATM   16  N   UNL     1       5.224   8.899   4.804  1.00  0.00    -0.302 N 
ATOM     17  HN  UNL     1       5.293   9.474   5.644  1.00  0.00     0.171 HD
BRANCH  16  18
HETATM   18  C   UNL     1       5.006   7.591   4.924  1.00  0.00     0.125 A 
HETATM   19  N   UNL     1       5.931   6.595   4.849  1.00  0.00    -0.271 N 
HETATM   20  N   UNL     1       5.682   5.402   4.924  1.00  0.00    -0.242 N 
ATOM     21  HN  UNL     1       6.907   6.866   4.721  1.00  0.00     0.190 HD
HETATM   22  N   UNL     1       4.522   4.982   4.991  1.00  0.00    -0.297 N 
ATOM     23  HN  UNL     1       6.452   4.734   4.931  1.00  0.00     0.208 HD
HETATM   24  C   UNL     1       3.807   5.943   5.114  1.00  0.00     0.112 A 
ATOM     25  HN  UNL     1       4.226   4.007   4.950  1.00  0.00     0.187 HD
HETATM   26  C   UNL     1       3.677   7.195   5.173  1.00  0.00     0.068 A 
ENDBRANCH  16  18
ENDBRANCH   1  14
TORSDOF 7
ENDMDL
MODEL 5
REMARK VINA RESULT:    -6.291     21.831     23.773
REMARK INTER + INTRA:          -9.915
REMARK INTER:                  -8.960
REMARK INTRA:                  -0.955
REMARK UNBOUND:                -1.050
REMARK  7 active torsions:
REMARK  status: ('A' for Active; 'I' for Inactive)
REMARK    1  A    between atoms: S_2  and  N_5 
REMARK    2  A    between atoms: N_5  and  C_7 
REMARK    3  A    between atoms: C_7  and  C_8 
REMARK    4  A    between atoms: C_9  and  C_13 
REMARK    5  A    between atoms: C_9  and  C_10 
REMARK    6  A    between atoms: C_13  and  C_14 
REMARK       I    between atoms: C_14  and  N_16 
REMARK    7  A    between atoms: N_16  and  C_18 
ROOT
HETATM    1  C   UNL     1       6.902  11.041   3.138  1.00  0.00    -0.068 C 
ENDROOT
BRANCH   1   2
HETATM    2  C   UNL     1       5.765  10.318   2.828  1.00  0.00     0.054 A 
HETATM    3  C   UNL     1       4.709  11.258   2.265  1.00  0.00     0.101 A 
HETATM    4  C   UNL     1       5.592   9.844   1.809  1.00  0.00     0.047 A 
BRANCH   3   5
HETATM    5  C   UNL     1       3.935  12.015   2.114  1.00  0.00    -0.053 C 
BRANCH   5   6
HETATM    6  N   UNL     1       3.123  12.797   1.685  1.00  0.00    -0.240 N 
ATOM      7  HN  UNL     1       3.448  13.664   1.255  1.00  0.00     0.189 HD
BRANCH   6   8
HETATM    8  S   UNL     1       1.554  12.516   1.772  1.00  0.00     0.326 S 
HETATM    9 CL   UNL     1       0.804  14.117   1.049  1.00  0.00     0.042 Cl
HETATM   10  O   UNL     1       1.184  11.454   0.892  1.00  0.00    -0.188 OA
HETATM   11  O   UNL     1       1.062  12.356   3.090  1.00  0.00    -0.188 OA
ENDBRANCH   6   8
ENDBRANCH   5   6
ENDBRANCH   3   5
BRANCH   2  12
HETATM   12  C   UNL     1       5.477   9.350   3.767  1.00  0.00    -0.014 C 
HETATM   13  C   UNL     1       5.650   9.564   5.068  1.00  0.00     0.008 C 
ENDBRANCH   2  12
ENDBRANCH   1   2
BRANCH   1  14
HETATM   14  C   UNL     1       7.843  11.869   3.495  1.00  0.00     0.291 C 
HETATM   15  O   UNL     1       8.639  11.524   4.320  1.00  0.00    -0.259 OA
HETATM   16  N   UNL     1       7.817  13.087   2.816  1.00  0.00    -0.302 N 
ATOM     17  HN  UNL     1       7.048  13.287   2.176  1.00  0.00     0.171 HD
BRANCH  16  18
HETATM   18  C   UNL     1       8.778  13.992   2.987  1.00  0.00     0.125 A 
HETATM   19  N   UNL     1      10.121  13.772   2.990  1.00  0.00    -0.271 N 
HETATM   20  N   UNL     1      10.969  14.628   3.193  1.00  0.00    -0.242 N 
ATOM     21  HN  UNL     1      10.444  12.821   2.810  1.00  0.00     0.190 HD
HETATM   22  N   UNL     1      10.667  15.784   3.504  1.00  0.00    -0.297 N 
ATOM     23  HN  UNL     1      11.954  14.381   3.101  1.00  0.00     0.208 HD
HETATM   24  C   UNL     1       9.470  15.872   3.406  1.00  0.00     0.112 A 
ATOM     25  HN  UNL     1      11.308  16.523   3.790  1.00  0.00     0.187 HD
HETATM   26  C   UNL     1       8.360  15.327   3.166  1.00  0.00     0.068 A 
ENDBRANCH  16  18
ENDBRANCH   1  14
TORSDOF 7
ENDMDL
MODEL 6
REMARK VINA RESULT:    -6.104      2.048      2.253
REMARK INTER + INTRA:          -9.652
REMARK INTER:                  -8.784
REMARK INTRA:                  -0.868
REMARK UNBOUND:                -1.050
REMARK  7 active torsions:
REMARK  status: ('A' for Active; 'I' for Inactive)
REMARK    1  A    between atoms: S_2  and  N_5 
REMARK    2  A    between atoms: N_5  and  C_7 
REMARK    3  A    between atoms: C_7  and  C_8 
REMARK    4  A    between atoms: C_9  and  C_13 
REMARK    5  A    between atoms: C_9  and  C_10 
REMARK    6  A    between atoms: C_13  and  C_14 
REMARK       I    between atoms: C_14  and  N_16 
REMARK    7  A    between atoms: N_16  and  C_18 
ROOT
HETATM    1  C   UNL     1       9.522  -0.126  22.327  1.00  0.00    -0.068 C 
ENDROOT
BRANCH   1   2
HETATM    2  C   UNL     1      10.327  -0.772  23.248  1.00  0.00     0.054 A 
HETATM    3  C   UNL     1       9.666  -2.079  23.663  1.00  0.00     0.101 A 
HETATM    4  C   UNL     1      11.136  -1.514  22.950  1.00  0.00     0.047 A 
BRANCH   3   5
HETATM    5  C   UNL     1       9.026  -2.855  24.091  1.00  0.00    -0.053 C 
BRANCH   5   6
HETATM    6  N   UNL     1       8.500  -3.878  24.454  1.00  0.00    -0.240 N 
ATOM      7  HN  UNL     1       8.446  -4.664  23.805  1.00  0.00     0.189 HD
BRANCH   6   8
HETATM    8  S   UNL     1       7.886  -4.037  25.918  1.00  0.00     0.326 S 
HETATM    9 CL   UNL     1       7.287  -2.267  26.311  1.00  0.00     0.042 Cl
HETATM   10  O   UNL     1       6.725  -4.868  25.889  1.00  0.00    -0.188 OA
HETATM   11  O   UNL     1       8.827  -4.413  26.908  1.00  0.00    -0.188 OA
ENDBRANCH   6   8
ENDBRANCH   5   6
ENDBRANCH   3   5
BRANCH   2  12
HETATM   12  C   UNL     1      10.902   0.094  24.154  1.00  0.00    -0.014 C 
HETATM   13  C   UNL     1      12.170   0.480  24.045  1.00  0.00     0.008 C 
ENDBRANCH   2  12
ENDBRANCH   1   2
BRANCH   1  14
HETATM   14  C   UNL     1       8.614   0.459  21.599  1.00  0.00     0.291 C 
HETATM   15  O   UNL     1       8.680   1.641  21.425  1.00  0.00    -0.259 OA
HETATM   16  N   UNL     1       7.662  -0.412  21.069  1.00  0.00    -0.302 N 
ATOM     17  HN  UNL     1       7.677  -1.395  21.341  1.00  0.00     0.171 HD
BRANCH  16  18
HETATM   18  C   UNL     1       6.736   0.015  20.214  1.00  0.00     0.125 A 
HETATM   19  N   UNL     1       5.533   0.574  20.520  1.00  0.00    -0.271 N 
HETATM   20  N   UNL     1       4.693   0.916  19.703  1.00  0.00    -0.242 N 
ATOM     21  HN  UNL     1       5.317   0.718  21.507  1.00  0.00     0.190 HD
HETATM   22  N   UNL     1       4.833   0.700  18.495  1.00  0.00    -0.297 N 
ATOM     23  HN  UNL     1       3.852   1.394  20.026  1.00  0.00     0.208 HD
HETATM   24  C   UNL     1       5.947   0.268  18.343  1.00  0.00     0.112 A 
ATOM     25  HN  UNL     1       4.138   0.857  17.765  1.00  0.00     0.187 HD
HETATM   26  C   UNL     1       7.040  -0.106  18.843  1.00  0.00     0.068 A 
ENDBRANCH  16  18
ENDBRANCH   1  14
TORSDOF 7
ENDMDL
MODEL 7
REMARK VINA RESULT:    -6.003      3.291      4.195
REMARK INTER + INTRA:          -9.510
REMARK INTER:                  -8.654
REMARK INTRA:                  -0.856
REMARK UNBOUND:                -1.050
REMARK  7 active torsions:
REMARK  status: ('A' for Active; 'I' for Inactive)
REMARK    1  A    between atoms: S_2  and  N_5 
REMARK    2  A    between atoms: N_5  and  C_7 
REMARK    3  A    between atoms: C_7  and  C_8 
REMARK    4  A    between atoms: C_9  and  C_13 
REMARK    5  A    between atoms: C_9  and  C_10 
REMARK    6  A    between atoms: C_13  and  C_14 
REMARK       I    between atoms: C_14  and  N_16 
REMARK    7  A    between atoms: N_16  and  C_18 
ROOT
HETATM    1  C   UNL     1       7.421  -1.193  22.835  1.00  0.00    -0.068 C 
ENDROOT
BRANCH   1   2
HETATM    2  C   UNL     1       7.463  -1.399  24.201  1.00  0.00     0.054 A 
HETATM    3  C   UNL     1       8.587  -0.566  24.800  1.00  0.00     0.101 A 
HETATM    4  C   UNL     1       6.876  -0.766  24.941  1.00  0.00     0.047 A 
BRANCH   3   5
HETATM    5  C   UNL     1       9.548  -0.148  25.111  1.00  0.00    -0.053 C 
BRANCH   5   6
HETATM    6  N   UNL     1      10.708   0.149  25.263  1.00  0.00    -0.240 N 
ATOM      7  HN  UNL     1      11.109   0.118  26.200  1.00  0.00     0.189 HD
BRANCH   6   8
HETATM    8  S   UNL     1      11.631   0.591  24.038  1.00  0.00     0.326 S 
HETATM    9 CL   UNL     1      13.241  -0.386  24.359  1.00  0.00     0.042 Cl
HETATM   10  O   UNL     1      11.096   0.109  22.806  1.00  0.00    -0.188 OA
HETATM   11  O   UNL     1      11.951   1.971  24.016  1.00  0.00    -0.188 OA
ENDBRANCH   6   8
ENDBRANCH   5   6
ENDBRANCH   3   5
BRANCH   2  12
HETATM   12  C   UNL     1       7.245  -2.716  24.548  1.00  0.00    -0.014 C 
HETATM   13  C   UNL     1       8.158  -3.658  24.326  1.00  0.00     0.008 C 
ENDBRANCH   2  12
ENDBRANCH   1   2
BRANCH   1  14
HETATM   14  C   UNL     1       7.384  -0.797  21.593  1.00  0.00     0.291 C 
HETATM   15  O   UNL     1       8.401  -0.752  20.965  1.00  0.00    -0.259 OA
HETATM   16  N   UNL     1       6.102  -0.497  21.131  1.00  0.00    -0.302 N 
ATOM     17  HN  UNL     1       5.317  -0.515  21.784  1.00  0.00     0.171 HD
BRANCH  16  18
HETATM   18  C   UNL     1       5.884  -0.188  19.855  1.00  0.00     0.125 A 
HETATM   19  N   UNL     1       5.796  -1.051  18.806  1.00  0.00    -0.271 N 
HETATM   20  N   UNL     1       5.635  -0.721  17.641  1.00  0.00    -0.242 N 
ATOM     21  HN  UNL     1       5.871  -2.049  19.007  1.00  0.00     0.190 HD
HETATM   22  N   UNL     1       5.622   0.465  17.295  1.00  0.00    -0.297 N 
ATOM     23  HN  UNL     1       5.508  -1.444  16.934  1.00  0.00     0.208 HD
HETATM   24  C   UNL     1       5.642   1.124  18.303  1.00  0.00     0.112 A 
ATOM     25  HN  UNL     1       5.599   0.819  16.339  1.00  0.00     0.187 HD
HETATM   26  C   UNL     1       5.705   1.179  19.560  1.00  0.00     0.068 A 
ENDBRANCH  16  18
ENDBRANCH   1  14
TORSDOF 7
ENDMDL
MODEL 8
REMARK VINA RESULT:    -5.804     20.291     21.961
REMARK INTER + INTRA:          -9.229
REMARK INTER:                  -8.260
REMARK INTRA:                  -0.969
REMARK UNBOUND:                -1.050
REMARK  7 active torsions:
REMARK  status: ('A' for Active; 'I' for Inactive)
REMARK    1  A    between atoms: S_2  and  N_5 
REMARK    2  A    between atoms: N_5  and  C_7 
REMARK    3  A    between atoms: C_7  and  C_8 
REMARK    4  A    between atoms: C_9  and  C_13 
REMARK    5  A    between atoms: C_9  and  C_10 
REMARK    6  A    between atoms: C_13  and  C_14 
REMARK       I    between atoms: C_14  and  N_16 
REMARK    7  A    between atoms: N_16  and  C_18 
ROOT
HETATM    1  C   UNL     1      -2.100 -16.558  10.660  1.00  0.00    -0.068 C 
ENDROOT
BRANCH   1   2
HETATM    2  C   UNL     1      -1.882 -16.255   9.329  1.00  0.00     0.054 A 
HETATM    3  C   UNL     1      -0.496 -16.738   8.925  1.00  0.00     0.101 A 
HETATM    4  C   UNL     1      -2.151 -16.963   8.480  1.00  0.00     0.047 A 
BRANCH   3   5
HETATM    5  C   UNL     1       0.579 -16.879   8.784  1.00  0.00    -0.053 C 
BRANCH   5   6
HETATM    6  N   UNL     1       1.733 -17.230   8.813  1.00  0.00    -0.240 N 
ATOM      7  HN  UNL     1       2.450 -16.555   9.081  1.00  0.00     0.189 HD
BRANCH   6   8
HETATM    8  S   UNL     1       2.170 -18.720   8.444  1.00  0.00     0.326 S 
HETATM    9 CL   UNL     1       0.932 -19.775   9.446  1.00  0.00     0.042 Cl
HETATM   10  O   UNL     1       1.920 -18.991   7.065  1.00  0.00    -0.188 OA
HETATM   11  O   UNL     1       3.479 -19.064   8.861  1.00  0.00    -0.188 OA
ENDBRANCH   6   8
ENDBRANCH   5   6
ENDBRANCH   3   5
BRANCH   2  12
HETATM   12  C   UNL     1      -2.371 -15.014   8.977  1.00  0.00    -0.014 C 
HETATM   13  C   UNL     1      -3.376 -14.877   8.117  1.00  0.00     0.008 C 
ENDBRANCH   2  12
ENDBRANCH   1   2
BRANCH   1  14
HETATM   14  C   UNL     1      -2.118 -16.767  11.946  1.00  0.00     0.291 C 
HETATM   15  O   UNL     1      -3.075 -17.290  12.438  1.00  0.00    -0.259 OA
HETATM   16  N   UNL     1      -0.955 -16.364  12.603  1.00  0.00    -0.302 N 
ATOM     17  HN  UNL     1      -0.231 -15.870  12.081  1.00  0.00     0.171 HD
BRANCH  16  18
HETATM   18  C   UNL     1      -0.774 -16.611  13.898  1.00  0.00     0.125 A 
HETATM   19  N   UNL     1      -1.739 -16.780  14.844  1.00  0.00    -0.271 N 
HETATM   20  N   UNL     1      -1.529 -16.965  16.032  1.00  0.00    -0.242 N 
ATOM     21  HN  UNL     1      -2.712 -16.749  14.536  1.00  0.00     0.190 HD
HETATM   22  N   UNL     1      -0.388 -16.931  16.505  1.00  0.00    -0.297 N 
ATOM     23  HN  UNL     1      -2.316 -17.155  16.652  1.00  0.00     0.208 HD
HETATM   24  C   UNL     1       0.374 -16.842  15.577  1.00  0.00     0.112 A 
ATOM     25  HN  UNL     1      -0.139 -16.970  17.493  1.00  0.00     0.187 HD
HETATM   26  C   UNL     1       0.560 -16.731  14.336  1.00  0.00     0.068 A 
ENDBRANCH  16  18
ENDBRANCH   1  14
TORSDOF 7
ENDMDL
MODEL 9
REMARK VINA RESULT:    -5.782      4.482      5.515
REMARK INTER + INTRA:          -9.199
REMARK INTER:                  -8.238
REMARK INTRA:                  -0.960
REMARK UNBOUND:                -1.050
REMARK  7 active torsions:
REMARK  status: ('A' for Active; 'I' for Inactive)
REMARK    1  A    between atoms: S_2  and  N_5 
REMARK    2  A    between atoms: N_5  and  C_7 
REMARK    3  A    between atoms: C_7  and  C_8 
REMARK    4  A    between atoms: C_9  and  C_13 
REMARK    5  A    between atoms: C_9  and  C_10 
REMARK    6  A    between atoms: C_13  and  C_14 
REMARK       I    between atoms: C_14  and  N_16 
REMARK    7  A    between atoms: N_16  and  C_18 
ROOT
HETATM    1  C   UNL     1       9.583   0.667  22.623  1.00  0.00    -0.068 C 
ENDROOT
BRANCH   1   2
HETATM    2  C   UNL     1      10.336   1.223  23.640  1.00  0.00     0.054 A 
HETATM    3  C   UNL     1      10.024   2.709  23.741  1.00  0.00     0.101 A 
HETATM    4  C   UNL     1       9.974   1.284  24.717  1.00  0.00     0.047 A 
BRANCH   3   5
HETATM    5  C   UNL     1       9.940   3.788  23.587  1.00  0.00    -0.053 C 
BRANCH   5   6
HETATM    6  N   UNL     1       9.726   4.974  23.658  1.00  0.00    -0.240 N 
ATOM      7  HN  UNL     1      10.263   5.611  23.069  1.00  0.00     0.189 HD
BRANCH   6   8
HETATM    8  S   UNL     1       8.628   5.573  24.648  1.00  0.00     0.326 S 
HETATM    9 CL   UNL     1       8.614   7.425  24.181  1.00  0.00     0.042 Cl
HETATM   10  O   UNL     1       7.333   5.060  24.334  1.00  0.00    -0.188 OA
HETATM   11  O   UNL     1       8.960   5.468  26.021  1.00  0.00    -0.188 OA
ENDBRANCH   6   8
ENDBRANCH   5   6
ENDBRANCH   3   5
BRANCH   2  12
HETATM   12  C   UNL     1      11.622   0.726  23.684  1.00  0.00    -0.014 C 
HETATM   13  C   UNL     1      11.917  -0.392  24.342  1.00  0.00     0.008 C 
ENDBRANCH   2  12
ENDBRANCH   1   2
BRANCH   1  14
HETATM   14  C   UNL     1       8.881  -0.031  21.775  1.00  0.00     0.291 C 
HETATM   15  O   UNL     1       9.080  -1.207  21.682  1.00  0.00    -0.259 OA
HETATM   16  N   UNL     1       7.926   0.713  21.081  1.00  0.00    -0.302 N 
ATOM     17  HN  UNL     1       7.894   1.726  21.203  1.00  0.00     0.171 HD
BRANCH  16  18
HETATM   18  C   UNL     1       7.056   0.126  20.263  1.00  0.00     0.125 A 
HETATM   19  N   UNL     1       6.105  -0.789  20.597  1.00  0.00    -0.271 N 
HETATM   20  N   UNL     1       5.352  -1.335  19.805  1.00  0.00    -0.242 N 
ATOM     21  HN  UNL     1       6.015  -1.038  21.582  1.00  0.00     0.190 HD
HETATM   22  N   UNL     1       5.449  -1.160  18.587  1.00  0.00    -0.297 N 
ATOM     23  HN  UNL     1       4.622  -1.952  20.161  1.00  0.00     0.208 HD
HETATM   24  C   UNL     1       6.268  -0.294  18.421  1.00  0.00     0.112 A 
ATOM     25  HN  UNL     1       4.933  -1.655  17.859  1.00  0.00     0.187 HD
HETATM   26  C   UNL     1       7.112   0.506  18.907  1.00  0.00     0.068 A 
ENDBRANCH  16  18
ENDBRANCH   1  14
TORSDOF 7
ENDMDL
