REMARK  6 active torsions:
REMARK  status: ('A' for Active; 'I' for Inactive)
REMARK    1  A    between atoms: C_1  and  C_6 
REMARK    2  A    between atoms: C_1  and  O_2 
REMARK    3  A    between atoms: C_6  and  N_10 
REMARK    4  A    between atoms: C_9  and  C_12 
REMARK    5  A    between atoms: C_9  and  N_10 
REMARK    6  A    between atoms: C_12  and  O_13 
ROOT
HETATM    1  C   UNL     1       9.547  -1.726  21.787  1.00  0.00     0.036 A 
HETATM    2  C   UNL     1       9.008  -0.954  22.821  1.00  0.00     0.051 A 
HETATM    3  C   UNL     1       8.640  -2.140  22.585  1.00  0.00     0.036 A 
ENDROOT
BRANCH   2   4
HETATM    4  C   UNL     1       9.690  -0.868  24.235  1.00  0.00     0.141 C 
HETATM    5  C   UNL     1      11.105  -0.390  23.880  1.00  0.00     0.042 C 
BRANCH   4   6
HETATM    6  O   UNL     1       9.612  -2.046  24.913  1.00  0.00    -0.393 OA
HETATM    7  H   UNL     1      10.095  -2.776  24.488  1.00  0.00     0.210 HD
ENDBRANCH   4   6
ENDBRANCH   2   4
BRANCH   2   8
HETATM    8  N   UNL     1       8.055   0.181  22.336  1.00  0.00    -0.408 N 
HETATM    9  H   UNL     1       8.449   1.016  22.736  1.00  0.00     0.154 HD
BRANCH   8  10
HETATM   10  C   UNL     1       7.193  -0.177  21.403  1.00  0.00     0.140 C 
BRANCH  10  11
HETATM   11  C   UNL     1       6.601  -1.874  21.602  1.00  0.00     0.183 C 
BRANCH  11  12
HETATM   12  O   UNL     1       6.479  -2.246  20.433  1.00  0.00    -0.399 OA
HETATM   13  H   UNL     1       6.763  -1.667  19.696  1.00  0.00     0.209 HD
ENDBRANCH  11  12
ENDBRANCH  10  11
ENDBRANCH   8  10
ENDBRANCH   2   8
TORSDOF 6
