MODEL 1
REMARK VINA RESULT:    -4.570      0.000      0.000
REMARK INTER + INTRA:          -5.397
REMARK INTER:                  -5.372
REMARK INTRA:                  -0.026
REMARK UNBOUND:                -0.026
REMARK  6 active torsions:
REMARK  status: ('A' for Active; 'I' for Inactive)
REMARK    1  A    between atoms: C_1  and  C_6 
REMARK    2  A    between atoms: C_1  and  O_2 
REMARK    3  A    between atoms: C_6  and  N_10 
REMARK    4  A    between atoms: C_9  and  C_12 
REMARK    5  A    between atoms: C_9  and  N_10 
REMARK    6  A    between atoms: C_12  and  O_13 
ROOT
HETATM    1  C   UNL     1       9.004  13.776   3.079  1.00  0.00     0.036 A 
HETATM    2  C   UNL     1       8.462  14.541   2.041  1.00  0.00     0.051 A 
HETATM    3  C   UNL     1       7.874  14.368   3.147  1.00  0.00     0.036 A 
ENDROOT
BRANCH   2   4
HETATM    4  C   UNL     1       8.826  16.058   1.851  1.00  0.00     0.141 C 
HETATM    5  C   UNL     1       7.482  16.747   2.127  1.00  0.00     0.042 C 
BRANCH   4   6
HETATM    6  O   UNL     1       9.381  16.302   0.632  1.00  0.00    -0.393 OA
HETATM    7  H   UNL     1      10.280  15.943   0.531  1.00  0.00     0.210 HD
ENDBRANCH   4   6
ENDBRANCH   2   4
BRANCH   2   8
HETATM    8  N   UNL     1       7.942  13.698   0.837  1.00  0.00    -0.408 N 
HETATM    9  H   UNL     1       8.753  13.582   0.253  1.00  0.00     0.154 HD
BRANCH   8  10
HETATM   10  C   UNL     1       6.736  13.186   0.995  1.00  0.00     0.140 C 
BRANCH  10  11
HETATM   11  C   UNL     1       6.752  11.387   1.178  1.00  0.00     0.183 C 
BRANCH  11  12
HETATM   12  O   UNL     1       7.128  11.015   0.064  1.00  0.00    -0.399 OA
HETATM   13  H   UNL     1       7.895  10.414  -0.025  1.00  0.00     0.209 HD
ENDBRANCH  11  12
ENDBRANCH  10  11
ENDBRANCH   8  10
ENDBRANCH   2   8
TORSDOF 6
ENDMDL
MODEL 2
REMARK VINA RESULT:    -4.488      2.275      4.161
REMARK INTER + INTRA:          -5.301
REMARK INTER:                  -5.651
REMARK INTRA:                   0.350
REMARK UNBOUND:                -0.026
REMARK  6 active torsions:
REMARK  status: ('A' for Active; 'I' for Inactive)
REMARK    1  A    between atoms: C_1  and  C_6 
REMARK    2  A    between atoms: C_1  and  O_2 
REMARK    3  A    between atoms: C_6  and  N_10 
REMARK    4  A    between atoms: C_9  and  C_12 
REMARK    5  A    between atoms: C_9  and  N_10 
REMARK    6  A    between atoms: C_12  and  O_13 
ROOT
HETATM    1  C   UNL     1       7.234  13.754   4.042  1.00  0.00     0.036 A 
HETATM    2  C   UNL     1       7.889  13.360   2.871  1.00  0.00     0.051 A 
HETATM    3  C   UNL     1       7.319  12.542   3.648  1.00  0.00     0.036 A 
ENDROOT
BRANCH   2   4
HETATM    4  C   UNL     1       7.168  13.374   1.473  1.00  0.00     0.141 C 
HETATM    5  C   UNL     1       6.638  11.937   1.372  1.00  0.00     0.042 C 
BRANCH   4   6
HETATM    6  O   UNL     1       8.001  13.773   0.473  1.00  0.00    -0.393 OA
HETATM    7  H   UNL     1       8.350  13.040  -0.063  1.00  0.00     0.210 HD
ENDBRANCH   4   6
ENDBRANCH   2   4
BRANCH   2   8
HETATM    8  N   UNL     1       9.444  13.435   2.956  1.00  0.00    -0.408 N 
HETATM    9  H   UNL     1       9.739  12.481   2.834  1.00  0.00     0.154 HD
BRANCH   8  10
HETATM   10  C   UNL     1       9.945  14.655   2.920  1.00  0.00     0.140 C 
BRANCH  10  11
HETATM   11  C   UNL     1      10.802  15.111   4.446  1.00  0.00     0.183 C 
BRANCH  11  12
HETATM   12  O   UNL     1      11.987  15.002   4.122  1.00  0.00    -0.399 OA
HETATM   13  H   UNL     1      12.240  14.954   3.177  1.00  0.00     0.209 HD
ENDBRANCH  11  12
ENDBRANCH  10  11
ENDBRANCH   8  10
ENDBRANCH   2   8
TORSDOF 6
ENDMDL
MODEL 3
REMARK VINA RESULT:    -4.329      2.323      4.069
REMARK INTER + INTRA:          -5.113
REMARK INTER:                  -5.010
REMARK INTRA:                  -0.104
REMARK UNBOUND:                -0.026
REMARK  6 active torsions:
REMARK  status: ('A' for Active; 'I' for Inactive)
REMARK    1  A    between atoms: C_1  and  C_6 
REMARK    2  A    between atoms: C_1  and  O_2 
REMARK    3  A    between atoms: C_6  and  N_10 
REMARK    4  A    between atoms: C_9  and  C_12 
REMARK    5  A    between atoms: C_9  and  N_10 
REMARK    6  A    between atoms: C_12  and  O_13 
ROOT
HETATM    1  C   UNL     1       7.414  13.779   1.919  1.00  0.00     0.036 A 
HETATM    2  C   UNL     1       8.471  14.649   2.205  1.00  0.00     0.051 A 
HETATM    3  C   UNL     1       7.360  14.696   2.807  1.00  0.00     0.036 A 
ENDROOT
BRANCH   2   4
HETATM    4  C   UNL     1       9.617  14.260   3.209  1.00  0.00     0.141 C 
HETATM    5  C   UNL     1       9.244  15.079   4.453  1.00  0.00     0.042 C 
BRANCH   4   6
HETATM    6  O   UNL     1      10.853  14.494   2.690  1.00  0.00    -0.393 OA
HETATM    7  H   UNL     1      10.867  15.184   2.005  1.00  0.00     0.210 HD
ENDBRANCH   4   6
ENDBRANCH   2   4
BRANCH   2   8
HETATM    8  N   UNL     1       8.718  15.731   1.110  1.00  0.00    -0.408 N 
HETATM    9  H   UNL     1       8.984  15.200   0.299  1.00  0.00     0.154 HD
BRANCH   8  10
HETATM   10  C   UNL     1       8.310  16.946   1.427  1.00  0.00     0.140 C 
BRANCH  10  11
HETATM   11  C   UNL     1       8.860  18.205   0.252  1.00  0.00     0.183 C 
BRANCH  11  12
HETATM   12  O   UNL     1      10.074  18.244   0.461  1.00  0.00    -0.399 OA
HETATM   13  H   UNL     1      10.461  17.768   1.224  1.00  0.00     0.209 HD
ENDBRANCH  11  12
ENDBRANCH  10  11
ENDBRANCH   8  10
ENDBRANCH   2   8
TORSDOF 6
ENDMDL
MODEL 4
REMARK VINA RESULT:    -4.325      2.035      4.210
REMARK INTER + INTRA:          -5.109
REMARK INTER:                  -4.899
REMARK INTRA:                  -0.211
REMARK UNBOUND:                -0.026
REMARK  6 active torsions:
REMARK  status: ('A' for Active; 'I' for Inactive)
REMARK    1  A    between atoms: C_1  and  C_6 
REMARK    2  A    between atoms: C_1  and  O_2 
REMARK    3  A    between atoms: C_6  and  N_10 
REMARK    4  A    between atoms: C_9  and  C_12 
REMARK    5  A    between atoms: C_9  and  N_10 
REMARK    6  A    between atoms: C_12  and  O_13 
ROOT
HETATM    1  C   UNL     1       5.564  12.446   1.549  1.00  0.00     0.036 A 
HETATM    2  C   UNL     1       6.748  12.553   2.286  1.00  0.00     0.051 A 
HETATM    3  C   UNL     1       5.671  13.120   2.628  1.00  0.00     0.036 A 
ENDROOT
BRANCH   2   4
HETATM    4  C   UNL     1       7.160  11.478   3.357  1.00  0.00     0.141 C 
HETATM    5  C   UNL     1       6.747  12.158   4.669  1.00  0.00     0.042 C 
BRANCH   4   6
HETATM    6  O   UNL     1       8.472  11.130   3.253  1.00  0.00    -0.393 OA
HETATM    7  H   UNL     1       8.789  11.063   2.336  1.00  0.00     0.210 HD
ENDBRANCH   4   6
ENDBRANCH   2   4
BRANCH   2   8
HETATM    8  N   UNL     1       7.830  13.457   1.620  1.00  0.00    -0.408 N 
HETATM    9  H   UNL     1       7.938  13.067   0.699  1.00  0.00     0.154 HD
BRANCH   8  10
HETATM   10  C   UNL     1       8.124  14.557   2.288  1.00  0.00     0.140 C 
BRANCH  10  11
HETATM   11  C   UNL     1       9.713  14.459   3.146  1.00  0.00     0.183 C 
BRANCH  11  12
HETATM   12  O   UNL     1      10.501  14.840   2.278  1.00  0.00    -0.399 OA
HETATM   13  H   UNL     1      11.034  14.191   1.773  1.00  0.00     0.209 HD
ENDBRANCH  11  12
ENDBRANCH  10  11
ENDBRANCH   8  10
ENDBRANCH   2   8
TORSDOF 6
ENDMDL
MODEL 5
REMARK VINA RESULT:    -4.282     24.070     25.056
REMARK INTER + INTRA:          -5.059
REMARK INTER:                  -4.560
REMARK INTRA:                  -0.499
REMARK UNBOUND:                -0.026
REMARK  6 active torsions:
REMARK  status: ('A' for Active; 'I' for Inactive)
REMARK    1  A    between atoms: C_1  and  C_6 
REMARK    2  A    between atoms: C_1  and  O_2 
REMARK    3  A    between atoms: C_6  and  N_10 
REMARK    4  A    between atoms: C_9  and  C_12 
REMARK    5  A    between atoms: C_9  and  N_10 
REMARK    6  A    between atoms: C_12  and  O_13 
ROOT
HETATM    1  C   UNL     1      12.209   0.325  24.152  1.00  0.00     0.036 A 
HETATM    2  C   UNL     1      11.161   0.759  23.334  1.00  0.00     0.051 A 
HETATM    3  C   UNL     1      11.013   0.502  24.562  1.00  0.00     0.036 A 
ENDROOT
BRANCH   2   4
HETATM    4  C   UNL     1      10.898   2.285  23.061  1.00  0.00     0.141 C 
HETATM    5  C   UNL     1       9.693   2.569  23.969  1.00  0.00     0.042 C 
BRANCH   4   6
HETATM    6  O   UNL     1      10.720   2.545  21.737  1.00  0.00    -0.393 OA
HETATM    7  H   UNL     1      11.215   3.320  21.420  1.00  0.00     0.210 HD
ENDBRANCH   4   6
ENDBRANCH   2   4
BRANCH   2   8
HETATM    8  N   UNL     1      10.650  -0.320  22.330  1.00  0.00    -0.408 N 
HETATM    9  H   UNL     1      11.491  -0.758  21.995  1.00  0.00     0.154 HD
BRANCH   8  10
HETATM   10  C   UNL     1       9.347  -0.533  22.358  1.00  0.00     0.140 C 
BRANCH  10  11
HETATM   11  C   UNL     1       8.541  -0.188  20.777  1.00  0.00     0.183 C 
BRANCH  11  12
HETATM   12  O   UNL     1       8.508   1.044  20.765  1.00  0.00    -0.399 OA
HETATM   13  H   UNL     1       8.295   1.526  19.939  1.00  0.00     0.209 HD
ENDBRANCH  11  12
ENDBRANCH  10  11
ENDBRANCH   8  10
ENDBRANCH   2   8
TORSDOF 6
ENDMDL
MODEL 6
REMARK VINA RESULT:    -4.230     23.175     24.160
REMARK INTER + INTRA:          -4.998
REMARK INTER:                  -4.923
REMARK INTRA:                  -0.075
REMARK UNBOUND:                -0.026
REMARK  6 active torsions:
REMARK  status: ('A' for Active; 'I' for Inactive)
REMARK    1  A    between atoms: C_1  and  C_6 
REMARK    2  A    between atoms: C_1  and  O_2 
REMARK    3  A    between atoms: C_6  and  N_10 
REMARK    4  A    between atoms: C_9  and  C_12 
REMARK    5  A    between atoms: C_9  and  N_10 
REMARK    6  A    between atoms: C_12  and  O_13 
ROOT
HETATM    1  C   UNL     1      10.552  -1.305  22.343  1.00  0.00     0.036 A 
HETATM    2  C   UNL     1       9.919  -0.128  21.932  1.00  0.00     0.051 A 
HETATM    3  C   UNL     1       9.520  -0.816  22.914  1.00  0.00     0.036 A 
ENDROOT
BRANCH   2   4
HETATM    4  C   UNL     1      10.400   1.287  22.421  1.00  0.00     0.141 C 
HETATM    5  C   UNL     1       9.343   1.637  23.478  1.00  0.00     0.042 C 
BRANCH   4   6
HETATM    6  O   UNL     1      10.527   2.168  21.391  1.00  0.00    -0.393 OA
HETATM    7  H   UNL     1       9.756   2.750  21.275  1.00  0.00     0.210 HD
ENDBRANCH   4   6
ENDBRANCH   2   4
BRANCH   2   8
HETATM    8  N   UNL     1       9.111  -0.270  20.606  1.00  0.00    -0.408 N 
HETATM    9  H   UNL     1       9.641  -0.937  20.070  1.00  0.00     0.154 HD
BRANCH   8  10
HETATM   10  C   UNL     1       7.913   0.283  20.622  1.00  0.00     0.140 C 
BRANCH  10  11
HETATM   11  C   UNL     1       6.942  -0.093  19.144  1.00  0.00     0.183 C 
BRANCH  11  12
HETATM   12  O   UNL     1       7.497   0.595  18.285  1.00  0.00    -0.399 OA
HETATM   13  H   UNL     1       8.326   1.073  18.492  1.00  0.00     0.209 HD
ENDBRANCH  11  12
ENDBRANCH  10  11
ENDBRANCH   8  10
ENDBRANCH   2   8
TORSDOF 6
ENDMDL
MODEL 7
REMARK VINA RESULT:    -4.191     31.347     32.495
REMARK INTER + INTRA:          -4.952
REMARK INTER:                  -4.803
REMARK INTRA:                  -0.149
REMARK UNBOUND:                -0.026
REMARK  6 active torsions:
REMARK  status: ('A' for Active; 'I' for Inactive)
REMARK    1  A    between atoms: C_1  and  C_6 
REMARK    2  A    between atoms: C_1  and  O_2 
REMARK    3  A    between atoms: C_6  and  N_10 
REMARK    4  A    between atoms: C_9  and  C_12 
REMARK    5  A    between atoms: C_9  and  N_10 
REMARK    6  A    between atoms: C_12  and  O_13 
ROOT
HETATM    1  C   UNL     1      20.689  -1.200  24.561  1.00  0.00     0.036 A 
HETATM    2  C   UNL     1      21.560  -1.435  25.630  1.00  0.00     0.051 A 
HETATM    3  C   UNL     1      21.937  -0.928  24.535  1.00  0.00     0.036 A 
ENDROOT
BRANCH   2   4
HETATM    4  C   UNL     1      21.738  -0.399  26.799  1.00  0.00     0.141 C 
HETATM    5  C   UNL     1      23.158   0.127  26.547  1.00  0.00     0.042 C 
BRANCH   4   6
HETATM    6  O   UNL     1      21.519  -0.961  28.019  1.00  0.00    -0.393 OA
HETATM    7  H   UNL     1      20.788  -0.551  28.514  1.00  0.00     0.210 HD
ENDBRANCH   4   6
ENDBRANCH   2   4
BRANCH   2   8
HETATM    8  N   UNL     1      21.898  -2.941  25.854  1.00  0.00    -0.408 N 
HETATM    9  H   UNL     1      21.004  -3.400  25.802  1.00  0.00     0.154 HD
BRANCH   8  10
HETATM   10  C   UNL     1      23.183  -3.235  25.812  1.00  0.00     0.140 C 
BRANCH  10  11
HETATM   11  C   UNL     1      23.499  -4.969  25.407  1.00  0.00     0.183 C 
BRANCH  11  12
HETATM   12  O   UNL     1      23.438  -4.964  24.176  1.00  0.00    -0.399 OA
HETATM   13  H   UNL     1      24.015  -5.554  23.648  1.00  0.00     0.209 HD
ENDBRANCH  11  12
ENDBRANCH  10  11
ENDBRANCH   8  10
ENDBRANCH   2   8
TORSDOF 6
ENDMDL
MODEL 8
REMARK VINA RESULT:    -4.122     30.349     31.559
REMARK INTER + INTRA:          -4.871
REMARK INTER:                  -4.350
REMARK INTRA:                  -0.521
REMARK UNBOUND:                -0.026
REMARK  6 active torsions:
REMARK  status: ('A' for Active; 'I' for Inactive)
REMARK    1  A    between atoms: C_1  and  C_6 
REMARK    2  A    between atoms: C_1  and  O_2 
REMARK    3  A    between atoms: C_6  and  N_10 
REMARK    4  A    between atoms: C_9  and  C_12 
REMARK    5  A    between atoms: C_9  and  N_10 
REMARK    6  A    between atoms: C_12  and  O_13 
ROOT
HETATM    1  C   UNL     1      22.688   0.995  24.903  1.00  0.00     0.036 A 
HETATM    2  C   UNL     1      22.491  -0.376  24.706  1.00  0.00     0.051 A 
HETATM    3  C   UNL     1      22.200   0.212  25.786  1.00  0.00     0.036 A 
ENDROOT
BRANCH   2   4
HETATM    4  C   UNL     1      21.191  -0.938  24.025  1.00  0.00     0.141 C 
HETATM    5  C   UNL     1      20.436  -1.536  25.221  1.00  0.00     0.042 C 
BRANCH   4   6
HETATM    6  O   UNL     1      21.476  -1.799  23.010  1.00  0.00    -0.393 OA
HETATM    7  H   UNL     1      22.351  -2.219  23.086  1.00  0.00     0.210 HD
ENDBRANCH   4   6
ENDBRANCH   2   4
BRANCH   2   8
HETATM    8  N   UNL     1      23.808  -1.212  24.701  1.00  0.00    -0.408 N 
HETATM    9  H   UNL     1      24.415  -0.704  24.079  1.00  0.00     0.154 HD
BRANCH   8  10
HETATM   10  C   UNL     1      23.873  -2.153  25.623  1.00  0.00     0.140 C 
BRANCH  10  11
HETATM   11  C   UNL     1      24.024  -3.815  24.928  1.00  0.00     0.183 C 
BRANCH  11  12
HETATM   12  O   UNL     1      22.929  -3.970  24.383  1.00  0.00    -0.399 OA
HETATM   13  H   UNL     1      22.837  -3.859  23.414  1.00  0.00     0.209 HD
ENDBRANCH  11  12
ENDBRANCH  10  11
ENDBRANCH   8  10
ENDBRANCH   2   8
TORSDOF 6
ENDMDL
MODEL 9
REMARK VINA RESULT:    -4.085     25.562     26.897
REMARK INTER + INTRA:          -4.827
REMARK INTER:                  -4.385
REMARK INTRA:                  -0.442
REMARK UNBOUND:                -0.026
REMARK  6 active torsions:
REMARK  status: ('A' for Active; 'I' for Inactive)
REMARK    1  A    between atoms: C_1  and  C_6 
REMARK    2  A    between atoms: C_1  and  O_2 
REMARK    3  A    between atoms: C_6  and  N_10 
REMARK    4  A    between atoms: C_9  and  C_12 
REMARK    5  A    between atoms: C_9  and  N_10 
REMARK    6  A    between atoms: C_12  and  O_13 
ROOT
HETATM    1  C   UNL     1      22.694  -1.169  18.863  1.00  0.00     0.036 A 
HETATM    2  C   UNL     1      23.303  -1.375  17.621  1.00  0.00     0.051 A 
HETATM    3  C   UNL     1      23.957  -1.137  18.676  1.00  0.00     0.036 A 
ENDROOT
BRANCH   2   4
HETATM    4  C   UNL     1      23.636  -2.816  17.088  1.00  0.00     0.141 C 
HETATM    5  C   UNL     1      25.171  -2.811  17.087  1.00  0.00     0.042 C 
BRANCH   4   6
HETATM    6  O   UNL     1      23.040  -3.069  15.890  1.00  0.00    -0.393 OA
HETATM    7  H   UNL     1      22.126  -2.743  15.830  1.00  0.00     0.210 HD
ENDBRANCH   4   6
ENDBRANCH   2   4
BRANCH   2   8
HETATM    8  N   UNL     1      23.131  -0.187  16.624  1.00  0.00    -0.408 N 
HETATM    9  H   UNL     1      22.189   0.129  16.784  1.00  0.00     0.154 HD
BRANCH   8  10
HETATM   10  C   UNL     1      24.247   0.224  16.052  1.00  0.00     0.140 C 
BRANCH  10  11
HETATM   11  C   UNL     1      24.182   0.154  14.246  1.00  0.00     0.183 C 
BRANCH  11  12
HETATM   12  O   UNL     1      23.897  -1.028  14.042  1.00  0.00    -0.399 OA
HETATM   13  H   UNL     1      24.450  -1.743  14.418  1.00  0.00     0.209 HD
ENDBRANCH  11  12
ENDBRANCH  10  11
ENDBRANCH   8  10
ENDBRANCH   2   8
TORSDOF 6
ENDMDL
