REMARK  2 active torsions:
REMARK  status: ('A' for Active; 'I' for Inactive)
REMARK    1  A    between atoms: S_2  and  C_10 
REMARK    2  A    between atoms: S_2  and  C_7 
REMARK       I    between atoms: N_9  and  C_10 
ROOT
HETATM    1  C   UNL     1       7.943  -3.547  25.626  1.00  0.00     0.000 C 
ENDROOT
TORSDOF 2
