MODEL 1
REMARK VINA RESULT:    -5.217      0.000      0.000
REMARK INTER + INTRA:          -5.815
REMARK INTER:                  -5.522
REMARK INTRA:                  -0.293
REMARK UNBOUND:                -0.293
REMARK  1 active torsions:
REMARK  status: ('A' for Active; 'I' for Inactive)
REMARK    1  A    between atoms: C_12  and  N_17 
ROOT
HETATM    1  O   UNL     1       6.803  13.177   5.348  1.00  0.00    -0.227 OA
HETATM    2  C   UNL     1       8.195  15.343   5.164  1.00  0.00     0.261 C 
HETATM    3  C   UNL     1       8.217  13.403   3.041  1.00  0.00     0.161 C 
HETATM    4  C   UNL     1       8.667  14.421   2.011  1.00  0.00     0.140 C 
HETATM    5  N   UNL     1       9.382  15.128   4.524  1.00  0.00    -0.131 NA
HETATM    6  O   UNL     1       6.057  14.794   3.608  1.00  0.00    -0.227 OA
HETATM    7  N   UNL     1      10.058  14.667   2.096  1.00  0.00    -0.340 N 
HETATM    8  O   UNL     1      11.633  14.806   3.796  1.00  0.00    -0.244 OA
HETATM    9  H   UNL     1      10.796  14.111   1.706  1.00  0.00     0.164 HD
HETATM   10  S   UNL     1       7.109  14.123   4.321  1.00  0.00     0.160 S 
HETATM   11  C   UNL     1      10.411  15.129   3.556  1.00  0.00     0.307 A 
HETATM   12  N   UNL     1       9.834  16.265   3.716  1.00  0.00    -0.105 NA
ENDROOT
BRANCH  12  13
HETATM   13  C   UNL     1       9.911  17.498   3.956  1.00  0.00     0.100 A 
HETATM   14  C   UNL     1       9.119  18.620   3.638  1.00  0.00     0.070 A 
HETATM   15  C   UNL     1       9.915  19.467   4.086  1.00  0.00     0.077 A 
HETATM   16 CL   UNL     1       7.555  18.792   2.839  1.00  0.00    -0.081 Cl
HETATM   17  S   UNL     1      11.096  18.404   4.723  1.00  0.00    -0.085 SA
ENDBRANCH  12  13
TORSDOF 1
ENDMDL
MODEL 2
REMARK VINA RESULT:    -5.144     29.197     30.637
REMARK INTER + INTRA:          -5.737
REMARK INTER:                  -5.427
REMARK INTRA:                  -0.310
REMARK UNBOUND:                -0.293
REMARK  1 active torsions:
REMARK  status: ('A' for Active; 'I' for Inactive)
REMARK    1  A    between atoms: C_12  and  N_17 
ROOT
HETATM    1  O   UNL     1       4.450  -2.604  28.936  1.00  0.00    -0.227 OA
HETATM    2  C   UNL     1       5.600  -3.181  26.698  1.00  0.00     0.261 C 
HETATM    3  C   UNL     1       5.755  -4.986  28.932  1.00  0.00     0.161 C 
HETATM    4  C   UNL     1       6.060  -6.179  28.047  1.00  0.00     0.140 C 
HETATM    5  N   UNL     1       6.781  -3.838  26.892  1.00  0.00    -0.131 NA
HETATM    6  O   UNL     1       3.481  -4.530  27.691  1.00  0.00    -0.227 OA
HETATM    7  N   UNL     1       7.421  -6.200  27.654  1.00  0.00    -0.340 N 
HETATM    8  O   UNL     1       9.028  -4.620  27.098  1.00  0.00    -0.244 OA
HETATM    9  H   UNL     1       8.199  -6.537  28.188  1.00  0.00     0.164 HD
HETATM   10  S   UNL     1       4.621  -3.776  28.136  1.00  0.00     0.160 S 
HETATM   11  C   UNL     1       7.771  -4.846  26.939  1.00  0.00     0.307 A 
HETATM   12  N   UNL     1       7.083  -4.830  25.855  1.00  0.00    -0.105 NA
ENDROOT
BRANCH  12  13
HETATM   13  C   UNL     1       7.038  -4.783  24.597  1.00  0.00     0.100 A 
HETATM   14  C   UNL     1       7.731  -4.057  23.609  1.00  0.00     0.070 A 
HETATM   15  C   UNL     1       7.031  -4.443  22.654  1.00  0.00     0.077 A 
HETATM   16 CL   UNL     1       9.098  -2.942  23.682  1.00  0.00    -0.081 Cl
HETATM   17  S   UNL     1       6.020  -5.536  23.497  1.00  0.00    -0.085 SA
ENDBRANCH  12  13
TORSDOF 1
ENDMDL
MODEL 3
REMARK VINA RESULT:    -5.054     29.939     31.428
REMARK INTER + INTRA:          -5.642
REMARK INTER:                  -5.358
REMARK INTRA:                  -0.285
REMARK UNBOUND:                -0.293
REMARK  1 active torsions:
REMARK  status: ('A' for Active; 'I' for Inactive)
REMARK    1  A    between atoms: C_12  and  N_17 
ROOT
HETATM    1  O   UNL     1       4.432  -2.954  29.600  1.00  0.00    -0.227 OA
HETATM    2  C   UNL     1       5.268  -3.556  27.234  1.00  0.00     0.261 C 
HETATM    3  C   UNL     1       5.938  -5.211  29.488  1.00  0.00     0.161 C 
HETATM    4  C   UNL     1       6.213  -6.421  28.617  1.00  0.00     0.140 C 
HETATM    5  N   UNL     1       6.521  -4.097  27.263  1.00  0.00    -0.131 NA
HETATM    6  O   UNL     1       3.466  -5.023  28.609  1.00  0.00    -0.227 OA
HETATM    7  N   UNL     1       7.491  -6.348  28.013  1.00  0.00    -0.340 N 
HETATM    8  O   UNL     1       8.837  -4.669  27.140  1.00  0.00    -0.244 OA
HETATM    9  H   UNL     1       8.371  -6.586  28.429  1.00  0.00     0.164 HD
HETATM   10  S   UNL     1       4.585  -4.150  28.833  1.00  0.00     0.160 S 
HETATM   11  C   UNL     1       7.597  -5.011  27.194  1.00  0.00     0.307 A 
HETATM   12  N   UNL     1       6.750  -5.117  26.234  1.00  0.00    -0.105 NA
ENDROOT
BRANCH  12  13
HETATM   13  C   UNL     1       6.506  -5.145  24.999  1.00  0.00     0.100 A 
HETATM   14  C   UNL     1       5.604  -5.858  24.185  1.00  0.00     0.070 A 
HETATM   15  C   UNL     1       6.066  -5.456  23.101  1.00  0.00     0.077 A 
HETATM   16 CL   UNL     1       4.290  -6.978  24.552  1.00  0.00    -0.081 Cl
HETATM   17  S   UNL     1       7.245  -4.372  23.707  1.00  0.00    -0.085 SA
ENDBRANCH  12  13
TORSDOF 1
ENDMDL
MODEL 4
REMARK VINA RESULT:    -4.970     28.072     29.681
REMARK INTER + INTRA:          -5.553
REMARK INTER:                  -5.295
REMARK INTRA:                  -0.258
REMARK UNBOUND:                -0.293
REMARK  1 active torsions:
REMARK  status: ('A' for Active; 'I' for Inactive)
REMARK    1  A    between atoms: C_12  and  N_17 
ROOT
HETATM    1  O   UNL     1       6.797  -1.644  22.639  1.00  0.00    -0.227 OA
HETATM    2  C   UNL     1       5.824  -3.364  24.299  1.00  0.00     0.261 C 
HETATM    3  C   UNL     1       6.820  -4.204  21.736  1.00  0.00     0.161 C 
HETATM    4  C   UNL     1       7.033  -5.632  22.199  1.00  0.00     0.140 C 
HETATM    5  N   UNL     1       5.141  -4.356  23.656  1.00  0.00    -0.131 NA
HETATM    6  O   UNL     1       8.429  -3.264  23.593  1.00  0.00    -0.227 OA
HETATM    7  N   UNL     1       5.819  -6.361  22.211  1.00  0.00    -0.340 N 
HETATM    8  O   UNL     1       3.595  -5.903  22.696  1.00  0.00    -0.244 OA
HETATM    9  H   UNL     1       5.369  -6.799  21.430  1.00  0.00     0.164 HD
HETATM   10  S   UNL     1       7.126  -2.968  23.063  1.00  0.00     0.160 S 
HETATM   11  C   UNL     1       4.777  -5.610  23.115  1.00  0.00     0.307 A 
HETATM   12  N   UNL     1       5.241  -5.665  24.311  1.00  0.00    -0.105 NA
ENDROOT
BRANCH  12  13
HETATM   13  C   UNL     1       5.114  -6.024  25.511  1.00  0.00     0.100 A 
HETATM   14  C   UNL     1       5.973  -6.070  26.627  1.00  0.00     0.070 A 
HETATM   15  C   UNL     1       5.177  -6.668  27.375  1.00  0.00     0.077 A 
HETATM   16 CL   UNL     1       7.628  -5.516  26.886  1.00  0.00    -0.081 Cl
HETATM   17  S   UNL     1       3.826  -6.725  26.325  1.00  0.00    -0.085 SA
ENDBRANCH  12  13
TORSDOF 1
ENDMDL
MODEL 5
REMARK VINA RESULT:    -4.839     31.647     32.535
REMARK INTER + INTRA:          -5.414
REMARK INTER:                  -5.089
REMARK INTRA:                  -0.325
REMARK UNBOUND:                -0.293
REMARK  1 active torsions:
REMARK  status: ('A' for Active; 'I' for Inactive)
REMARK    1  A    between atoms: C_12  and  N_17 
ROOT
HETATM    1  O   UNL     1      26.694  -3.531  27.692  1.00  0.00    -0.227 OA
HETATM    2  C   UNL     1      24.811  -2.568  26.212  1.00  0.00     0.261 C 
HETATM    3  C   UNL     1      25.093  -5.409  26.560  1.00  0.00     0.161 C 
HETATM    4  C   UNL     1      23.649  -5.678  26.182  1.00  0.00     0.140 C 
HETATM    5  N   UNL     1      24.568  -3.360  25.126  1.00  0.00    -0.131 NA
HETATM    6  O   UNL     1      24.379  -3.846  28.552  1.00  0.00    -0.227 OA
HETATM    7  N   UNL     1      23.465  -5.647  24.779  1.00  0.00    -0.340 N 
HETATM    8  O   UNL     1      24.328  -4.426  23.002  1.00  0.00    -0.244 OA
HETATM    9  H   UNL     1      23.656  -6.384  24.127  1.00  0.00     0.164 HD
HETATM   10  S   UNL     1      25.314  -3.820  27.461  1.00  0.00     0.160 S 
HETATM   11  C   UNL     1      23.959  -4.262  24.225  1.00  0.00     0.307 A 
HETATM   12  N   UNL     1      23.162  -3.382  24.712  1.00  0.00    -0.105 NA
ENDROOT
BRANCH  12  13
HETATM   13  C   UNL     1      22.315  -2.466  24.536  1.00  0.00     0.100 A 
HETATM   14  C   UNL     1      22.003  -1.600  23.469  1.00  0.00     0.070 A 
HETATM   15  C   UNL     1      21.182  -0.910  24.103  1.00  0.00     0.077 A 
HETATM   16 CL   UNL     1      22.592  -1.485  21.809  1.00  0.00    -0.081 Cl
HETATM   17  S   UNL     1      21.193  -1.781  25.577  1.00  0.00    -0.085 SA
ENDBRANCH  12  13
TORSDOF 1
ENDMDL
MODEL 6
REMARK VINA RESULT:    -4.817     27.024     28.115
REMARK INTER + INTRA:          -5.392
REMARK INTER:                  -5.144
REMARK INTRA:                  -0.248
REMARK UNBOUND:                -0.293
REMARK  1 active torsions:
REMARK  status: ('A' for Active; 'I' for Inactive)
REMARK    1  A    between atoms: C_12  and  N_17 
ROOT
HETATM    1  O   UNL     1       3.695  -4.026  23.948  1.00  0.00    -0.227 OA
HETATM    2  C   UNL     1       5.790  -2.649  24.561  1.00  0.00     0.261 C 
HETATM    3  C   UNL     1       6.037  -5.377  23.686  1.00  0.00     0.161 C 
HETATM    4  C   UNL     1       7.481  -5.193  23.262  1.00  0.00     0.140 C 
HETATM    5  N   UNL     1       6.741  -3.418  25.169  1.00  0.00    -0.131 NA
HETATM    6  O   UNL     1       5.219  -3.481  22.056  1.00  0.00    -0.227 OA
HETATM    7  N   UNL     1       8.358  -5.239  24.373  1.00  0.00    -0.340 N 
HETATM    8  O   UNL     1       8.295  -4.547  26.588  1.00  0.00    -0.244 OA
HETATM    9  H   UNL     1       8.713  -6.058  24.829  1.00  0.00     0.164 HD
HETATM   10  S   UNL     1       5.016  -3.869  23.425  1.00  0.00     0.160 S 
HETATM   11  C   UNL     1       7.921  -4.154  25.420  1.00  0.00     0.307 A 
HETATM   12  N   UNL     1       8.116  -3.018  24.855  1.00  0.00    -0.105 NA
ENDROOT
BRANCH  12  13
HETATM   13  C   UNL     1       8.690  -1.897  24.838  1.00  0.00     0.100 A 
HETATM   14  C   UNL     1       9.448  -1.188  23.885  1.00  0.00     0.070 A 
HETATM   15  C   UNL     1       9.776  -0.261  24.649  1.00  0.00     0.077 A 
HETATM   16 CL   UNL     1       9.847  -1.508  22.195  1.00  0.00    -0.081 Cl
HETATM   17  S   UNL     1       8.887  -0.736  26.032  1.00  0.00    -0.085 SA
ENDBRANCH  12  13
TORSDOF 1
ENDMDL
MODEL 7
REMARK VINA RESULT:    -4.794     24.726     26.289
REMARK INTER + INTRA:          -5.366
REMARK INTER:                  -5.032
REMARK INTRA:                  -0.334
REMARK UNBOUND:                -0.293
REMARK  1 active torsions:
REMARK  status: ('A' for Active; 'I' for Inactive)
REMARK    1  A    between atoms: C_12  and  N_17 
ROOT
HETATM    1  O   UNL     1      12.358  -0.283  24.463  1.00  0.00    -0.227 OA
HETATM    2  C   UNL     1      10.001  -1.334  24.403  1.00  0.00     0.261 C 
HETATM    3  C   UNL     1      10.784   0.619  22.443  1.00  0.00     0.161 C 
HETATM    4  C   UNL     1       9.733   0.160  21.451  1.00  0.00     0.140 C 
HETATM    5  N   UNL     1       9.056  -0.432  24.005  1.00  0.00    -0.131 NA
HETATM    6  O   UNL     1      11.888  -1.767  22.520  1.00  0.00    -0.227 OA
HETATM    7  N   UNL     1       8.454   0.675  21.773  1.00  0.00    -0.340 N 
HETATM    8  O   UNL     1       7.275   1.133  23.720  1.00  0.00    -0.244 OA
HETATM    9  H   UNL     1       8.098   1.586  21.559  1.00  0.00     0.164 HD
HETATM   10  S   UNL     1      11.466  -0.759  23.453  1.00  0.00     0.160 S 
HETATM   11  C   UNL     1       8.085   0.255  23.241  1.00  0.00     0.307 A 
HETATM   12  N   UNL     1       7.965  -1.024  23.224  1.00  0.00    -0.105 NA
ENDROOT
BRANCH  12  13
HETATM   13  C   UNL     1       7.258  -2.051  23.398  1.00  0.00     0.100 A 
HETATM   14  C   UNL     1       6.151  -2.365  24.212  1.00  0.00     0.070 A 
HETATM   15  C   UNL     1       6.128  -3.578  23.932  1.00  0.00     0.077 A 
HETATM   16 CL   UNL     1       5.152  -1.396  25.297  1.00  0.00    -0.081 Cl
HETATM   17  S   UNL     1       7.386  -3.602  22.771  1.00  0.00    -0.085 SA
ENDBRANCH  12  13
TORSDOF 1
ENDMDL
MODEL 8
REMARK VINA RESULT:    -4.789     31.457     32.357
REMARK INTER + INTRA:          -5.362
REMARK INTER:                  -5.070
REMARK INTRA:                  -0.292
REMARK UNBOUND:                -0.293
REMARK  1 active torsions:
REMARK  status: ('A' for Active; 'I' for Inactive)
REMARK    1  A    between atoms: C_12  and  N_17 
ROOT
HETATM    1  O   UNL     1      24.046  -7.167  26.196  1.00  0.00    -0.227 OA
HETATM    2  C   UNL     1      24.281  -5.465  24.270  1.00  0.00     0.261 C 
HETATM    3  C   UNL     1      23.834  -4.572  26.966  1.00  0.00     0.161 C 
HETATM    4  C   UNL     1      24.398  -3.193  26.686  1.00  0.00     0.140 C 
HETATM    5  N   UNL     1      23.461  -4.388  24.445  1.00  0.00    -0.131 NA
HETATM    6  O   UNL     1      26.084  -5.738  26.263  1.00  0.00    -0.227 OA
HETATM    7  N   UNL     1      23.455  -2.369  26.024  1.00  0.00    -0.340 N 
HETATM    8  O   UNL     1      21.801  -2.671  24.424  1.00  0.00    -0.244 OA
HETATM    9  H   UNL     1      22.704  -1.855  26.441  1.00  0.00     0.164 HD
HETATM   10  S   UNL     1      24.678  -5.898  26.012  1.00  0.00     0.160 S 
HETATM   11  C   UNL     1      22.988  -3.081  24.704  1.00  0.00     0.307 A 
HETATM   12  N   UNL     1      24.022  -3.129  23.943  1.00  0.00    -0.105 NA
ENDROOT
BRANCH  12  13
HETATM   13  C   UNL     1      24.589  -2.825  22.861  1.00  0.00     0.100 A 
HETATM   14  C   UNL     1      24.150  -2.318  21.621  1.00  0.00     0.070 A 
HETATM   15  C   UNL     1      25.247  -2.433  21.042  1.00  0.00     0.077 A 
HETATM   16 CL   UNL     1      22.580  -1.750  21.050  1.00  0.00    -0.081 Cl
HETATM   17  S   UNL     1      26.184  -2.984  22.365  1.00  0.00    -0.085 SA
ENDBRANCH  12  13
TORSDOF 1
ENDMDL
MODEL 9
REMARK VINA RESULT:    -4.717     25.462     26.879
REMARK INTER + INTRA:          -5.286
REMARK INTER:                  -5.266
REMARK INTRA:                  -0.020
REMARK UNBOUND:                -0.293
REMARK  1 active torsions:
REMARK  status: ('A' for Active; 'I' for Inactive)
REMARK    1  A    between atoms: C_12  and  N_17 
ROOT
HETATM    1  O   UNL     1       4.743  -4.845  22.190  1.00  0.00    -0.227 OA
HETATM    2  C   UNL     1       6.375  -2.853  22.022  1.00  0.00     0.261 C 
HETATM    3  C   UNL     1       6.696  -4.840  24.077  1.00  0.00     0.161 C 
HETATM    4  C   UNL     1       8.162  -4.509  24.277  1.00  0.00     0.140 C 
HETATM    5  N   UNL     1       6.774  -2.422  23.255  1.00  0.00    -0.131 NA
HETATM    6  O   UNL     1       7.077  -5.417  21.538  1.00  0.00    -0.227 OA
HETATM    7  N   UNL     1       8.329  -3.347  25.069  1.00  0.00    -0.340 N 
HETATM    8  O   UNL     1       7.222  -1.323  25.328  1.00  0.00    -0.244 OA
HETATM    9  H   UNL     1       8.294  -3.287  26.068  1.00  0.00     0.164 HD
HETATM   10  S   UNL     1       6.152  -4.652  22.329  1.00  0.00     0.160 S 
HETATM   11  C   UNL     1       7.554  -2.155  24.402  1.00  0.00     0.307 A 
HETATM   12  N   UNL     1       8.152  -1.922  23.290  1.00  0.00    -0.105 NA
ENDROOT
BRANCH  12  13
HETATM   13  C   UNL     1       8.787  -1.132  22.542  1.00  0.00     0.100 A 
HETATM   14  C   UNL     1      10.152  -0.895  22.285  1.00  0.00     0.070 A 
HETATM   15  C   UNL     1       9.973   0.108  21.568  1.00  0.00     0.077 A 
HETATM   16 CL   UNL     1      11.627  -1.704  22.818  1.00  0.00    -0.081 Cl
HETATM   17  S   UNL     1       8.262   0.108  21.542  1.00  0.00    -0.085 SA
ENDBRANCH  12  13
TORSDOF 1
ENDMDL
