stable:False satoms:7 tatoms:24 sratio:0.2916666666666667
  -OEChem-08062409173D

 32 32  0     1  0  0  0  0  0999 V2000
   -6.2068   -5.0202  -25.7917 O   0  0  0  0  0  0  0  0  0  0  0  0
   -7.6866   -4.6866  -25.8321 S   0  0  0  0  0  0  0  0  0  0  0  0
   -8.4884   -5.8937  -25.8139 O   0  0  0  0  0  0  0  0  0  0  0  0
   -7.9719   -3.8862  -26.9509 O   0  5  0  0  0  0  0  0  0  0  0  0
   -7.9328   -3.8876  -24.4424 N   0  0  0  0  0  0  0  0  0  0  0  0
   -8.6908   -3.1929  -24.0568 C   0  0  0  0  0  0  0  0  0  0  0  0
   -9.2168   -2.3281  -23.6465 C   0  0  0  0  0  0  0  0  0  0  0  0
   -9.9664   -1.3129  -23.5329 C   0  0  2  0  0  0  0  0  0  0  0  0
  -10.6048   -0.4699  -24.9532 S   0  0  0  0  0  0  0  0  0  0  0  0
  -11.9982   -0.5709  -24.3834 C   0  0  0  0  0  0  0  0  0  0  0  0
  -13.6572   -0.8713  -23.4884 H   0  0  0  0  0  0  0  0  0  0  0  0
  -12.7190   -1.1447  -23.4627 C   0  0  0  0  0  0  0  0  0  0  0  0
  -12.2790   -1.8538  -22.7933 H   0  0  0  0  0  0  0  0  0  0  0  0
   -9.7142   -0.9019  -22.4597 C   0  0  0  0  0  0  0  0  0  0  0  0
   -9.2961   -0.1795  -21.4315 C   0  0  0  0  0  0  0  0  0  0  0  0
   -9.9353    0.7471  -21.1707 O   0  0  0  0  0  0  0  0  0  0  0  0
   -8.1597   -0.6490  -20.8872 N   0  0  0  0  0  0  0  0  0  0  0  0
   -7.5392   -0.0779  -19.9406 C   0  0  0  0  0  0  0  0  0  0  0  0
   -7.8707   -0.0174  -18.6870 N   0  0  0  0  0  0  0  0  0  0  0  0
   -7.3700    0.4045  -17.6867 N   0  0  0  0  0  0  0  0  0  0  0  0
   -6.4039    0.8790  -18.0457 C   0  0  0  0  0  0  0  0  0  0  0  0
   -5.8495    0.9532  -19.1581 C   0  0  0  0  0  0  0  0  0  0  0  0
   -6.1978    0.5426  -20.2513 C   0  0  0  0  0  0  0  0  0  0  0  0
   -5.7483    0.5776  -21.2128 H   0  0  0  0  0  0  0  0  0  0  0  0
   -7.0868   -3.3642  -24.3403 H   0  0  0  0  0  0  0  0  0  0  0  0
  -10.9008   -1.8403  -23.2906 H   0  0  0  0  0  0  0  0  0  0  0  0
  -12.6425    0.0794  -24.9565 H   0  0  0  0  0  0  0  0  0  0  0  0
   -9.1711   -1.8071  -22.1505 H   0  0  0  0  0  0  0  0  0  0  0  0
  -10.7534   -0.9582  -22.1036 H   0  0  0  0  0  0  0  0  0  0  0  0
   -7.7812   -1.5001  -21.2511 H   0  0  0  0  0  0  0  0  0  0  0  0
   -5.8496    1.3682  -17.2583 H   0  0  0  0  0  0  0  0  0  0  0  0
   -4.9001    1.4682  -19.1534 H   0  0  0  0  0  0  0  0  0  0  0  0
 20 21  2  0  0  0  0
 19 20  1  0  0  0  0
 21 22  1  0  0  0  0
 18 19  2  0  0  0  0
 22 23  2  0  0  0  0
 18 23  1  0  0  0  0
 17 18  1  0  0  0  0
 23 24  1  0  0  0  0
 15 17  1  0  0  0  0
 15 16  2  0  0  0  0
 14 15  1  0  0  0  0
  8 14  1  0  0  0  0
 12 13  1  0  0  0  0
 11 12  1  0  0  0  0
 10 12  2  0  0  0  0
  7  8  1  0  0  0  0
  8  9  1  0  0  0  0
  6  7  3  0  0  0  0
  9 10  1  0  0  0  0
  5  6  1  0  0  0  0
  2  5  1  0  0  0  0
  2  3  2  0  0  0  0
  1  2  2  0  0  0  0
  2  4  1  0  0  0  0
  5 25  1  0  0  0  0
  8 26  1  0  0  0  0
 10 27  1  0  0  0  0
 14 28  1  0  0  0  0
 14 29  1  0  0  0  0
 17 30  1  0  0  0  0
 21 31  1  0  0  0  0
 22 32  1  0  0  0  0
M  CHG  1   4  -1
M  END
> <Chemgauss4>
-10.387411

$$$$
