stable:False satoms:15 tatoms:24 sratio:0.625
  -OEChem-07092417283D

 24 24  0     1  0  0  0  0  0999 V2000
   12.5791    0.0773   23.2806 N   0  0  0  0  0  0  0  0  0  0  0  0
    5.7103   -0.9254   21.3318 H   0  0  0  0  0  0  0  0  0  0  0  0
    8.1028   -2.1051   24.4275 C   0  0  0  0  0  0  0  0  0  0  0  0
    8.9669    1.0113   19.8662 O   0  0  0  0  0  0  0  0  0  0  0  0
    6.6848   -0.2645   23.0098 O   0  0  0  0  0  0  0  0  0  0  0  0
    7.9427   -3.3140   21.3415 O   0  0  0  0  0  0  0  0  0  0  0  0
    7.7104   -0.5025   20.9607 N   0  0  0  0  0  0  0  0  0  0  0  0
   12.6487   -0.8910   23.4637 H   0  0  0  0  0  0  0  0  0  0  0  0
   12.1697    0.5086   24.0812 H   0  0  0  0  0  0  0  0  0  0  0  0
   12.2733    0.3691   22.4086 H   0  0  0  0  0  0  0  0  0  0  0  0
    5.5350   -3.4190   21.7192 O   0  0  0  0  0  0  0  0  0  0  0  0
    6.6926   -0.9825   21.8272 C   0  0  1  0  0  0  0  0  0  0  0  0
    9.6486   -0.5347   22.6677 C   0  0  2  0  0  0  0  0  0  0  0  0
   10.9970   -1.3973   24.7575 O   0  0  0  0  0  0  0  0  0  0  0  0
    8.4874   -3.9496   21.0144 H   0  0  0  0  0  0  0  0  0  0  0  0
    7.0693   -3.3113   23.9542 S   0  0  0  0  0  0  0  0  0  0  0  0
    8.2118   -1.8820   25.4259 H   0  0  0  0  0  0  0  0  0  0  0  0
   10.1853   -1.1234   23.8379 C   0  0  0  0  0  0  0  0  0  0  0  0
    6.7158   -2.7910   22.0762 S   0  5  2  0  0  0  0  0  0  0  0  0
    7.4080   -0.6106   19.9869 H   0  0  0  0  0  0  0  0  0  0  0  0
    9.8420    0.3343   21.7581 N   0  0  0  0  0  0  0  0  0  0  0  0
    9.0537   -1.3377   23.5746 C   0  0  0  0  0  0  0  0  0  0  0  0
    8.8842    0.3188   20.8662 C   0  0  0  0  0  0  0  0  0  0  0  0
    6.0646   -0.5681   23.6590 H   0  0  0  0  0  0  0  0  0  0  0  0
  4 23  2  0  0  0  0
  7 20  1  0  0  0  0
  7 23  1  0  0  0  0
 21 23  1  0  0  0  0
  7 12  1  0  0  0  0
  6 15  1  0  0  0  0
  2 12  1  0  0  0  0
  6 19  1  0  0  0  0
 11 19  2  0  0  0  0
 13 21  1  0  0  0  0
 12 19  1  0  0  0  0
  5 12  1  0  0  0  0
 16 19  1  0  0  0  0
  1 10  1  0  0  0  0
 13 22  1  0  0  0  0
 13 18  1  0  0  0  0
  5 24  1  0  0  0  0
  1  8  1  0  0  0  0
  1  9  1  0  0  0  0
 18 22  1  0  0  0  0
  3 22  2  3  0  0  0
 14 18  2  0  0  0  0
  3 16  1  0  0  0  0
  3 17  1  0  0  0  0
M  CHG  1  19  -1
M  END
> <Shapegauss>
-142.113373

$$$$
