stable:False satoms:20 tatoms:24 sratio:0.8333333333333334
  -OEChem-07092417313D

 24 23  0     1  0  0  0  0  0999 V2000
    8.0695   -3.1004   22.8655 C   0  0  0  0  0  0  0  0  0  0  0  0
    9.7938   -2.2538   21.7657 N   0  0  0  0  0  0  0  0  0  0  0  0
    9.0342   -3.8518   24.8826 O   0  0  0  0  0  0  0  0  0  0  0  0
    7.9403   -0.6590   25.5927 H   0  0  0  0  0  0  0  0  0  0  0  0
    7.0118   -3.1315   23.0642 H   0  0  0  0  0  0  0  0  0  0  0  0
    8.4950   -2.0862   21.8469 C   0  0  3  0  0  0  0  0  0  0  0  0
   10.1749   -1.3814   24.5385 H   0  0  0  0  0  0  0  0  0  0  0  0
    8.4111   -4.0591   22.4876 H   0  0  0  0  0  0  0  0  0  0  0  0
   11.9206   -0.0258   22.9410 O   0  0  0  0  0  0  0  0  0  0  0  0
    9.2200   -1.6272   24.3905 N   0  0  0  0  0  0  0  0  0  0  0  0
   11.2500   -0.4543   22.0526 N   0  0  0  0  0  0  0  0  0  0  0  0
   10.6933   -1.6278   22.1007 C   0  0  0  0  0  0  0  0  0  0  0  0
    8.8544   -2.9067   24.1546 C   0  0  0  0  0  0  0  0  0  0  0  0
    8.7798   -0.0923   19.5003 H   0  0  0  0  0  0  0  0  0  0  0  0
    6.7598   -1.4894   20.7780 H   0  0  0  0  0  0  0  0  0  0  0  0
    8.1229   -0.6946   24.5020 C   0  0  0  0  0  0  0  0  0  0  0  0
   10.7916    0.0885   21.0478 O   0  0  0  0  0  0  0  0  0  0  0  0
    7.7603   -1.2363   20.9949 C   0  5  3  0  0  0  0  0  0  0  0  0
    7.2113   -1.0531   24.0067 H   0  0  0  0  0  0  0  0  0  0  0  0
    8.1417   -0.0437   20.3517 C   0  0  0  0  0  0  0  0  0  0  0  0
    8.4098    1.7886   21.3195 H   0  0  0  0  0  0  0  0  0  0  0  0
    7.7174    1.0822   20.9360 C   0  0  0  0  0  0  0  0  0  0  0  0
    8.3326    0.2605   24.0485 H   0  0  0  0  0  0  0  0  0  0  0  0
    6.6877    1.2644   21.1282 H   0  0  0  0  0  0  0  0  0  0  0  0
 14 20  1  0  0  0  0
 20 22  2  0  0  0  0
 18 20  1  0  0  0  0
 15 18  1  0  0  0  0
 22 24  1  0  0  0  0
 21 22  1  0  0  0  0
  6 18  1  0  0  0  0
 11 17  2  0  0  0  0
  2  6  1  0  0  0  0
  2 12  2  3  0  0  0
  1  6  1  0  0  0  0
 11 12  1  0  0  0  0
  9 11  2  0  0  0  0
  1  8  1  0  0  0  0
  1  5  1  0  0  0  0
  1 13  1  0  0  0  0
 16 19  1  0  0  0  0
 16 23  1  0  0  0  0
 10 13  1  0  0  0  0
  3 13  2  0  0  0  0
 10 16  1  0  0  0  0
  7 10  1  0  0  0  0
  4 16  1  0  0  0  0
M  CHG  1  18  -1
M  END
> <Shapegauss>
-123.577820

$$$$
