stable:False satoms:20 tatoms:24 sratio:0.8333333333333334
  -OEChem-08052419133D

 28 27  0     1  0  0  0  0  0999 V2000
   11.3889   -2.0598   22.9999 C   0  0  0  0  0  0  0  0  0  0  0  0
   10.2403   -0.8857   21.5160 N   0  3  0  0  0  0  0  0  0  0  0  0
   13.1865   -0.6316   23.5411 O   0  0  0  0  0  0  0  0  0  0  0  0
   10.7911    0.0653   25.9225 H   0  0  0  0  0  0  0  0  0  0  0  0
   11.4284   -2.8167   23.7645 H   0  0  0  0  0  0  0  0  0  0  0  0
   10.0288   -1.8129   22.4200 C   0  0  3  0  0  0  0  0  0  0  0  0
   11.0289    1.0615   23.5608 H   0  0  0  0  0  0  0  0  0  0  0  0
   12.0210   -2.3364   22.1617 H   0  0  0  0  0  0  0  0  0  0  0  0
    9.1880    2.2135   21.9112 O   0  0  0  0  0  0  0  0  0  0  0  0
   11.0717    0.1398   23.9385 N   0  0  0  0  0  0  0  0  0  0  0  0
    9.0121    1.0972   21.5295 N   0  0  0  0  0  0  0  0  0  0  0  0
    9.9738    0.2267   21.4484 C   0  0  0  0  0  0  0  0  0  0  0  0
   11.9869   -0.7541   23.5029 C   0  0  0  0  0  0  0  0  0  0  0  0
    7.1216   -1.9274   21.3720 H   0  0  0  0  0  0  0  0  0  0  0  0
    8.7965   -2.7707   23.6513 H   0  0  0  0  0  0  0  0  0  0  0  0
   10.2520   -0.3186   25.0357 C   0  0  0  0  0  0  0  0  0  0  0  0
    7.9771    0.4682   21.3112 O   0  0  0  0  0  0  0  0  0  0  0  0
    8.7937   -2.4706   22.5931 C   0  0  3  0  0  0  0  0  0  0  0  0
   10.2070   -1.4134   25.1012 H   0  0  0  0  0  0  0  0  0  0  0  0
    7.4812   -2.0127   22.3709 C   0  0  0  0  0  0  0  0  0  0  0  0
    6.4860   -0.6378   23.5894 H   0  0  0  0  0  0  0  0  0  0  0  0
    6.8122   -1.6399   23.4674 C   0  0  0  0  0  0  0  0  0  0  0  0
    9.2256    0.0012   24.9586 H   0  0  0  0  0  0  0  0  0  0  0  0
    6.6717   -2.2956   24.2925 H   0  0  0  0  0  0  0  0  0  0  0  0
    9.7896   -1.0686   23.1940 H   0  0  0  0  0  0  0  0  0  0  0  0
   10.8836    0.7665   21.2306 H   0  0  0  0  0  0  0  0  0  0  0  0
    8.8759   -3.3650   21.9581 H   0  0  0  0  0  0  0  0  0  0  0  0
   10.7398   -1.2208   20.7171 H   0  0  0  0  0  0  0  0  0  0  0  0
 14 20  1  0  0  0  0
 20 22  2  0  0  0  0
 18 20  1  0  0  0  0
 15 18  1  0  0  0  0
 22 24  1  0  0  0  0
 21 22  1  0  0  0  0
  6 18  1  0  0  0  0
 11 17  2  0  0  0  0
  2  6  1  0  0  0  0
  2 12  2  3  0  0  0
  1  6  1  0  0  0  0
 11 12  1  0  0  0  0
  9 11  2  0  0  0  0
  1  8  1  0  0  0  0
  1  5  1  0  0  0  0
  1 13  1  0  0  0  0
 16 19  1  0  0  0  0
 16 23  1  0  0  0  0
 10 13  1  0  0  0  0
  3 13  2  0  0  0  0
 10 16  1  0  0  0  0
  7 10  1  0  0  0  0
  4 16  1  0  0  0  0
  6 25  1  0  0  0  0
 12 26  1  0  0  0  0
 18 27  1  0  0  0  0
  2 28  1  0  0  0  0
M  CHG  1   2   1
M  END
> <Chemgauss4>
-6.495012

$$$$
