stable:False satoms:20 tatoms:24 sratio:0.8333333333333334
  -OEChem-08052419133D

 28 27  0     1  0  0  0  0  0999 V2000
  -11.2683   -1.9508  -22.9999 C   0  0  0  0  0  0  0  0  0  0  0  0
  -10.1197   -0.7767  -21.5160 N   0  3  0  0  0  0  0  0  0  0  0  0
  -13.0659   -0.5226  -23.5411 O   0  0  0  0  0  0  0  0  0  0  0  0
  -10.6704    0.1743  -25.9225 H   0  0  0  0  0  0  0  0  0  0  0  0
  -11.3078   -2.7077  -23.7645 H   0  0  0  0  0  0  0  0  0  0  0  0
   -9.9081   -1.7039  -22.4200 C   0  0  3  0  0  0  0  0  0  0  0  0
  -10.9082    1.1705  -23.5608 H   0  0  0  0  0  0  0  0  0  0  0  0
  -11.9004   -2.2274  -22.1617 H   0  0  0  0  0  0  0  0  0  0  0  0
   -9.0673    2.3224  -21.9112 O   0  0  0  0  0  0  0  0  0  0  0  0
  -10.9510    0.2488  -23.9385 N   0  0  0  0  0  0  0  0  0  0  0  0
   -8.8914    1.2062  -21.5295 N   0  0  0  0  0  0  0  0  0  0  0  0
   -9.8532    0.3357  -21.4484 C   0  0  0  0  0  0  0  0  0  0  0  0
  -11.8663   -0.6451  -23.5029 C   0  0  0  0  0  0  0  0  0  0  0  0
   -7.0009   -1.8184  -21.3720 H   0  0  0  0  0  0  0  0  0  0  0  0
   -8.6759   -2.6617  -23.6513 H   0  0  0  0  0  0  0  0  0  0  0  0
  -10.1314   -0.2096  -25.0357 C   0  0  0  0  0  0  0  0  0  0  0  0
   -7.8565    0.5772  -21.3112 O   0  0  0  0  0  0  0  0  0  0  0  0
   -8.6730   -2.3616  -22.5931 C   0  0  3  0  0  0  0  0  0  0  0  0
  -10.0863   -1.3044  -25.1012 H   0  0  0  0  0  0  0  0  0  0  0  0
   -7.3606   -1.9037  -22.3709 C   0  0  0  0  0  0  0  0  0  0  0  0
   -6.3653   -0.5288  -23.5894 H   0  0  0  0  0  0  0  0  0  0  0  0
   -6.6916   -1.5309  -23.4674 C   0  0  0  0  0  0  0  0  0  0  0  0
   -9.1049    0.1102  -24.9586 H   0  0  0  0  0  0  0  0  0  0  0  0
   -6.5510   -2.1866  -24.2925 H   0  0  0  0  0  0  0  0  0  0  0  0
   -9.6690   -0.9596  -23.1940 H   0  0  0  0  0  0  0  0  0  0  0  0
  -10.7629    0.8755  -21.2307 H   0  0  0  0  0  0  0  0  0  0  0  0
   -8.7552   -3.2560  -21.9581 H   0  0  0  0  0  0  0  0  0  0  0  0
  -10.6191   -1.1118  -20.7171 H   0  0  0  0  0  0  0  0  0  0  0  0
 14 20  1  0  0  0  0
 20 22  2  0  0  0  0
 18 20  1  0  0  0  0
 15 18  1  0  0  0  0
 22 24  1  0  0  0  0
 21 22  1  0  0  0  0
  6 18  1  0  0  0  0
 11 17  2  0  0  0  0
  2  6  1  0  0  0  0
  2 12  2  3  0  0  0
  1  6  1  0  0  0  0
 11 12  1  0  0  0  0
  9 11  2  0  0  0  0
  1  8  1  0  0  0  0
  1  5  1  0  0  0  0
  1 13  1  0  0  0  0
 16 19  1  0  0  0  0
 16 23  1  0  0  0  0
 10 13  1  0  0  0  0
  3 13  2  0  0  0  0
 10 16  1  0  0  0  0
  7 10  1  0  0  0  0
  4 16  1  0  0  0  0
  6 25  1  0  0  0  0
 12 26  1  0  0  0  0
 18 27  1  0  0  0  0
  2 28  1  0  0  0  0
M  CHG  1   2   1
M  END
> <Chemgauss4>
-6.546220

$$$$
