stable:False satoms:7 tatoms:24 sratio:0.2916666666666667
  -OEChem-07092417443D

 24 25  0     1  0  0  0  0  0999 V2000
    6.7329   -4.7942   26.3704 C   0  0  0  0  0  0  0  0  0  0  0  0
    8.1444   -4.3186   26.0879 S   0  0  0  0  0  0  0  0  0  0  0  0
    9.0382   -5.4527   25.9787 O   0  0  0  0  0  0  0  0  0  0  0  0
    8.6465   -3.4309   27.1102 O   0  0  0  0  0  0  0  0  0  0  0  0
    8.0820   -3.5180   24.6784 N   0  0  0  0  0  0  0  0  0  0  0  0
    8.9618   -2.8809   24.1335 C   0  0  0  0  0  0  0  0  0  0  0  0
    9.4456   -1.9849   23.5236 C   0  0  0  0  0  0  0  0  0  0  0  0
   10.3386   -1.1624   23.2057 C   0  0  1  0  0  0  0  0  0  0  0  0
   11.0566   -0.0210   24.3253 C   0  0  0  0  0  0  0  0  0  0  0  0
   12.0467    0.2460   24.2881 C   0  0  0  0  0  0  0  0  0  0  0  0
   13.0977   -0.2305   23.4510 C   0  0  0  0  0  0  0  0  0  0  0  0
   12.7338   -1.2566   22.6791 C   0  0  0  0  0  0  0  0  0  0  0  0
   11.7798   -1.7541   22.5111 C   0  0  0  0  0  0  0  0  0  0  0  0
    9.7097   -0.5910   22.3404 C   0  0  0  0  0  0  0  0  0  0  0  0
    9.0713    0.0321   21.3728 C   0  0  0  0  0  0  0  0  0  0  0  0
    9.5996    0.9478   20.9352 O   0  0  0  0  0  0  0  0  0  0  0  0
    7.9076   -0.5559   21.1080 N   0  0  0  0  0  0  0  0  0  0  0  0
    7.1613   -0.0824   20.2090 C   0  0  0  0  0  0  0  0  0  0  0  0
    7.1726   -0.0214   18.9084 C   0  0  0  0  0  0  0  0  0  0  0  0
    6.8104    0.2646   17.7820 N   0  0  0  0  0  0  0  0  0  0  0  0
    5.6485    0.8567   18.2864 C   0  0  0  0  0  0  0  0  0  0  0  0
    5.2960    0.9871   19.3876 C   0  0  0  0  0  0  0  0  0  0  0  0
    5.8183    0.6171   20.5791 C   0  0  0  0  0  0  0  0  0  0  0  0
    5.2841    0.8140   22.0449 Cl  0  0  0  0  0  0  0  0  0  0  0  0
 20 21  2  0  0  0  0
 19 20  1  0  0  0  0
 21 22  1  0  0  0  0
 18 19  2  0  0  0  0
 22 23  2  0  0  0  0
 18 23  1  0  0  0  0
 17 18  1  0  0  0  0
 23 24  1  0  0  0  0
 15 16  2  0  0  0  0
 15 17  1  0  0  0  0
 14 15  1  0  0  0  0
  8 14  1  0  0  0  0
 12 13  1  0  0  0  0
  8 13  1  0  0  0  0
 11 12  2  0  0  0  0
  7  8  1  0  0  0  0
  8  9  1  0  0  0  0
 10 11  1  0  0  0  0
  6  7  3  0  0  0  0
  5  6  1  0  0  0  0
  9 10  2  0  0  0  0
  2  5  1  0  0  0  0
  2  3  2  0  0  0  0
  1  2  1  0  0  0  0
  2  4  2  0  0  0  0
M  END
> <Shapegauss>
-287.104309

$$$$
