stable:False satoms:6 tatoms:24 sratio:0.25
  -OEChem-08062415153D

 44 44  0     1  0  0  0  0  0999 V2000
   -6.3254   -5.2513  -25.9140 C   0  0  0  0  0  0  0  0  0  0  0  0
   -7.7586   -4.8040  -25.8061 S   0  0  0  0  0  0  0  0  0  0  0  0
   -8.6513   -5.9325  -25.6649 O   0  0  0  0  0  0  0  0  0  0  0  0
   -8.1248   -3.9940  -26.9496 O   0  0  0  0  0  0  0  0  0  0  0  0
   -7.7873   -3.8416  -24.4569 N   0  0  0  0  0  0  0  0  0  0  0  0
   -8.6516   -3.2035  -24.0616 C   0  0  0  0  0  0  0  0  0  0  0  0
   -9.1789   -2.2423  -23.5371 C   0  0  0  0  0  0  0  0  0  0  0  0
  -10.0813   -1.3374  -23.4228 C   0  0  2  0  0  0  0  0  0  0  0  0
  -10.7278   -0.3710  -24.5442 C   0  0  0  0  0  0  0  0  0  0  0  0
  -11.8271   -0.0831  -24.5656 C   0  0  0  0  0  0  0  0  0  0  0  0
  -12.8473   -0.3954  -23.9936 C   0  0  0  0  0  0  0  0  0  0  0  0
  -12.5669   -1.5644  -22.9889 C   0  0  0  0  0  0  0  0  0  0  0  0
  -11.6965   -2.0049  -22.7609 C   0  0  0  0  0  0  0  0  0  0  0  0
   -9.5567   -0.7804  -22.5177 C   0  0  0  0  0  0  0  0  0  0  0  0
   -8.9994   -0.0085  -21.5299 C   0  0  0  0  0  0  0  0  0  0  0  0
   -9.5264    0.9725  -21.2280 O   0  0  0  0  0  0  0  0  0  0  0  0
   -7.8853   -0.5799  -21.1241 N   0  0  0  0  0  0  0  0  0  0  0  0
   -7.2301   -0.0468  -20.1913 C   0  0  0  0  0  0  0  0  0  0  0  0
   -7.3769    0.1695  -18.8749 C   0  0  0  0  0  0  0  0  0  0  0  0
   -7.0700    0.5257  -17.7883 N   0  0  0  0  0  0  0  0  0  0  0  0
   -5.8463    1.1178  -18.2216 C   0  0  0  0  0  0  0  0  0  0  0  0
   -5.3846    1.0739  -19.3154 C   0  0  0  0  0  0  0  0  0  0  0  0
   -5.8379    0.5703  -20.4825 C   0  0  0  0  0  0  0  0  0  0  0  0
   -5.1875    0.6145  -21.9123 Cl  0  0  0  0  0  0  0  0  0  0  0  0
   -6.2093   -5.9031  -26.7924 H   0  0  0  0  0  0  0  0  0  0  0  0
   -5.6740   -4.3715  -26.0218 H   0  0  0  0  0  0  0  0  0  0  0  0
   -6.0452   -5.8060  -25.0064 H   0  0  0  0  0  0  0  0  0  0  0  0
   -7.0372   -3.1943  -24.5926 H   0  0  0  0  0  0  0  0  0  0  0  0
   -9.5052   -3.8240  -24.2910 H   0  0  0  0  0  0  0  0  0  0  0  0
   -8.5237   -2.0341  -22.7042 H   0  0  0  0  0  0  0  0  0  0  0  0
  -10.9653   -1.8499  -23.0155 H   0  0  0  0  0  0  0  0  0  0  0  0
  -10.0811    0.0226  -25.3145 H   0  0  0  0  0  0  0  0  0  0  0  0
  -12.0139    0.6839  -25.3027 H   0  0  0  0  0  0  0  0  0  0  0  0
  -13.5931   -0.7226  -24.7330 H   0  0  0  0  0  0  0  0  0  0  0  0
  -13.2351    0.4734  -23.4414 H   0  0  0  0  0  0  0  0  0  0  0  0
  -13.4324   -1.9490  -22.4699 H   0  0  0  0  0  0  0  0  0  0  0  0
  -11.6703   -2.8073  -22.0385 H   0  0  0  0  0  0  0  0  0  0  0  0
  -10.7843   -1.6773  -23.2374 H   0  0  0  0  0  0  0  0  0  0  0  0
   -8.5889   -1.2520  -22.7433 H   0  0  0  0  0  0  0  0  0  0  0  0
  -10.0997   -1.3916  -21.7817 H   0  0  0  0  0  0  0  0  0  0  0  0
   -7.5642   -1.4253  -21.5509 H   0  0  0  0  0  0  0  0  0  0  0  0
   -8.3741   -0.2084  -18.7042 H   0  0  0  0  0  0  0  0  0  0  0  0
   -5.2817    1.6619  -17.4789 H   0  0  0  0  0  0  0  0  0  0  0  0
   -4.4074    1.5274  -19.3908 H   0  0  0  0  0  0  0  0  0  0  0  0
 20 21  2  0  0  0  0
 19 20  1  0  0  0  0
 21 22  1  0  0  0  0
 18 19  2  0  0  0  0
 22 23  2  0  0  0  0
 18 23  1  0  0  0  0
 17 18  1  0  0  0  0
 23 24  1  0  0  0  0
 15 16  2  0  0  0  0
 15 17  1  0  0  0  0
 14 15  1  0  0  0  0
  8 14  1  0  0  0  0
 12 13  2  0  0  0  0
 11 12  1  0  0  0  0
  7  8  1  0  0  0  0
  8  9  1  0  0  0  0
 10 11  1  0  0  0  0
  6  7  2  3  0  0  0
  9 10  2  0  0  0  0
  5  6  1  0  0  0  0
  2  5  1  0  0  0  0
  2  3  2  0  0  0  0
  1  2  1  0  0  0  0
  2  4  2  0  0  0  0
  1 25  1  0  0  0  0
  1 26  1  0  0  0  0
  1 27  1  0  0  0  0
  5 28  1  0  0  0  0
  6 29  1  0  0  0  0
  7 30  1  0  0  0  0
  8 31  1  0  0  0  0
  9 32  1  0  0  0  0
 10 33  1  0  0  0  0
 11 34  1  0  0  0  0
 11 35  1  0  0  0  0
 12 36  1  0  0  0  0
 13 37  1  0  0  0  0
 13 38  1  0  0  0  0
 14 39  1  0  0  0  0
 14 40  1  0  0  0  0
 17 41  1  0  0  0  0
 19 42  1  0  0  0  0
 21 43  1  0  0  0  0
 22 44  1  0  0  0  0
M  END
> <Chemgauss4>
-13.413492

$$$$
