stable:False satoms:6 tatoms:24 sratio:0.25
  -OEChem-08062415153D

 44 44  0     1  0  0  0  0  0999 V2000
    6.6005   -5.3476   25.9810 C   0  0  0  0  0  0  0  0  0  0  0  0
    8.0337   -4.9004   25.8731 S   0  0  0  0  0  0  0  0  0  0  0  0
    8.9264   -6.0289   25.7318 O   0  0  0  0  0  0  0  0  0  0  0  0
    8.3999   -4.0904   27.0166 O   0  0  0  0  0  0  0  0  0  0  0  0
    8.0624   -3.9379   24.5239 N   0  0  0  0  0  0  0  0  0  0  0  0
    8.9267   -3.2998   24.1286 C   0  0  0  0  0  0  0  0  0  0  0  0
    9.4540   -2.3387   23.6041 C   0  0  0  0  0  0  0  0  0  0  0  0
   10.3564   -1.4338   23.4898 C   0  0  2  0  0  0  0  0  0  0  0  0
   11.0029   -0.4673   24.6112 C   0  0  0  0  0  0  0  0  0  0  0  0
   12.1022   -0.1795   24.6326 C   0  0  0  0  0  0  0  0  0  0  0  0
   13.1224   -0.4918   24.0606 C   0  0  0  0  0  0  0  0  0  0  0  0
   12.8420   -1.6608   23.0559 C   0  0  0  0  0  0  0  0  0  0  0  0
   11.9716   -2.1013   22.8279 C   0  0  0  0  0  0  0  0  0  0  0  0
    9.8318   -0.8768   22.5847 C   0  0  0  0  0  0  0  0  0  0  0  0
    9.2745   -0.1048   21.5969 C   0  0  0  0  0  0  0  0  0  0  0  0
    9.8015    0.8762   21.2950 O   0  0  0  0  0  0  0  0  0  0  0  0
    8.1604   -0.6762   21.1911 N   0  0  0  0  0  0  0  0  0  0  0  0
    7.5052   -0.1431   20.2583 C   0  0  0  0  0  0  0  0  0  0  0  0
    7.6520    0.0732   18.9419 C   0  0  0  0  0  0  0  0  0  0  0  0
    7.3451    0.4294   17.8553 N   0  0  0  0  0  0  0  0  0  0  0  0
    6.1214    1.0215   18.2886 C   0  0  0  0  0  0  0  0  0  0  0  0
    5.6597    0.9775   19.3824 C   0  0  0  0  0  0  0  0  0  0  0  0
    6.1131    0.4739   20.5495 C   0  0  0  0  0  0  0  0  0  0  0  0
    5.4627    0.5182   21.9793 Cl  0  0  0  0  0  0  0  0  0  0  0  0
    6.4844   -5.9995   26.8594 H   0  0  0  0  0  0  0  0  0  0  0  0
    5.9491   -4.4678   26.0888 H   0  0  0  0  0  0  0  0  0  0  0  0
    6.3203   -5.9024   25.0733 H   0  0  0  0  0  0  0  0  0  0  0  0
    7.3123   -3.2907   24.6596 H   0  0  0  0  0  0  0  0  0  0  0  0
    9.7803   -3.9204   24.3580 H   0  0  0  0  0  0  0  0  0  0  0  0
    8.7988   -2.1305   22.7712 H   0  0  0  0  0  0  0  0  0  0  0  0
   11.2404   -1.9462   23.0825 H   0  0  0  0  0  0  0  0  0  0  0  0
   10.3562   -0.0738   25.3815 H   0  0  0  0  0  0  0  0  0  0  0  0
   12.2890    0.5875   25.3697 H   0  0  0  0  0  0  0  0  0  0  0  0
   13.8682   -0.8189   24.8000 H   0  0  0  0  0  0  0  0  0  0  0  0
   13.5102    0.3770   23.5084 H   0  0  0  0  0  0  0  0  0  0  0  0
   13.7075   -2.0453   22.5369 H   0  0  0  0  0  0  0  0  0  0  0  0
   11.9454   -2.9037   22.1055 H   0  0  0  0  0  0  0  0  0  0  0  0
   11.0594   -1.7737   23.3044 H   0  0  0  0  0  0  0  0  0  0  0  0
    8.8640   -1.3484   22.8102 H   0  0  0  0  0  0  0  0  0  0  0  0
   10.3748   -1.4879   21.8487 H   0  0  0  0  0  0  0  0  0  0  0  0
    7.8393   -1.5217   21.6179 H   0  0  0  0  0  0  0  0  0  0  0  0
    8.6492   -0.3047   18.7712 H   0  0  0  0  0  0  0  0  0  0  0  0
    5.5568    1.5655   17.5459 H   0  0  0  0  0  0  0  0  0  0  0  0
    4.6825    1.4311   19.4578 H   0  0  0  0  0  0  0  0  0  0  0  0
 20 21  2  0  0  0  0
 19 20  1  0  0  0  0
 21 22  1  0  0  0  0
 18 19  2  0  0  0  0
 22 23  2  0  0  0  0
 18 23  1  0  0  0  0
 17 18  1  0  0  0  0
 23 24  1  0  0  0  0
 15 16  2  0  0  0  0
 15 17  1  0  0  0  0
 14 15  1  0  0  0  0
  8 14  1  0  0  0  0
 12 13  2  0  0  0  0
 11 12  1  0  0  0  0
  7  8  1  0  0  0  0
  8  9  1  0  0  0  0
 10 11  1  0  0  0  0
  6  7  2  3  0  0  0
  9 10  2  0  0  0  0
  5  6  1  0  0  0  0
  2  5  1  0  0  0  0
  2  3  2  0  0  0  0
  1  2  1  0  0  0  0
  2  4  2  0  0  0  0
  1 25  1  0  0  0  0
  1 26  1  0  0  0  0
  1 27  1  0  0  0  0
  5 28  1  0  0  0  0
  6 29  1  0  0  0  0
  7 30  1  0  0  0  0
  8 31  1  0  0  0  0
  9 32  1  0  0  0  0
 10 33  1  0  0  0  0
 11 34  1  0  0  0  0
 11 35  1  0  0  0  0
 12 36  1  0  0  0  0
 13 37  1  0  0  0  0
 13 38  1  0  0  0  0
 14 39  1  0  0  0  0
 14 40  1  0  0  0  0
 17 41  1  0  0  0  0
 19 42  1  0  0  0  0
 21 43  1  0  0  0  0
 22 44  1  0  0  0  0
M  END
> <Chemgauss4>
-13.104265

$$$$
