stable:False satoms:18 tatoms:24 sratio:0.75
  -OEChem-07092417393D

 24 26  0     1  0  0  0  0  0999 V2000
    7.1028   -4.4011   26.2524 H   0  0  0  0  0  0  0  0  0  0  0  0
    8.6056   -5.1329   25.7004 H   0  0  0  0  0  0  0  0  0  0  0  0
    8.1607   -4.1976   25.9168 C   0  0  0  0  0  0  0  0  0  0  0  0
    8.6926   -3.6928   26.7175 H   0  0  0  0  0  0  0  0  0  0  0  0
    8.1388   -3.4050   24.7237 N   0  0  0  0  0  0  0  0  0  0  0  0
    8.9060   -2.7910   24.0171 N   0  0  0  0  0  0  0  0  0  0  0  0
    8.9781   -1.8820   23.0628 C   0  0  0  0  0  0  0  0  0  0  0  0
   10.1920   -1.3454   22.8471 N   0  0  0  0  0  0  0  0  0  0  0  0
   11.7019   -0.2825   24.2628 H   0  0  0  0  0  0  0  0  0  0  0  0
   12.5522    0.7397   23.1192 H   0  0  0  0  0  0  0  0  0  0  0  0
   13.3837   -0.7067   23.6762 H   0  0  0  0  0  0  0  0  0  0  0  0
   12.4122   -0.2939   23.4285 C   0  0  0  0  0  0  0  0  0  0  0  0
   11.6775   -1.4223   22.0844 S   0  3  2  0  0  0  0  0  0  0  0  0
   10.2755   -0.5781   22.0543 C   0  0  3  0  0  0  0  0  0  0  0  0
    8.3173   -0.2773   21.4337 C   0  0  3  0  0  0  0  0  0  0  0  0
    9.4306    0.4007   21.4207 N   0  3  0  0  0  0  0  0  0  0  0  0
    8.0386   -1.3201   22.1443 N   0  0  0  0  0  0  0  0  0  0  0  0
    7.1531    0.1065   20.5332 C   0  0  0  0  0  0  0  0  0  0  0  0
    7.2675    0.0498   19.2254 N   0  0  0  0  0  0  0  0  0  0  0  0
    6.0262    0.6504   17.6738 H   0  0  0  0  0  0  0  0  0  0  0  0
    6.1273    0.5337   18.7377 C   0  0  0  0  0  0  0  0  0  0  0  0
    5.2147    0.7537   19.6736 O   0  0  0  0  0  0  0  0  0  0  0  0
    5.8520    0.5256   20.8077 C   0  0  0  0  0  0  0  0  0  0  0  0
    5.3769    0.6784   21.7834 H   0  0  0  0  0  0  0  0  0  0  0  0
 20 21  1  0  0  0  0
 19 21  2  0  0  0  0
 21 22  1  0  0  0  0
 18 19  1  0  0  0  0
 22 23  1  0  0  0  0
 18 23  2  0  0  0  0
 15 18  1  0  0  0  0
 23 24  1  0  0  0  0
 15 16  1  0  0  0  0
 14 16  1  0  0  0  0
 15 17  1  0  0  0  0
 13 14  1  0  0  0  0
  8 14  1  0  0  0  0
  8 13  1  0  0  0  0
 12 13  1  0  0  0  0
  7 17  2  0  0  0  0
  7  8  1  0  0  0  0
  6  7  1  0  0  0  0
 10 12  1  0  0  0  0
 11 12  1  0  0  0  0
  9 12  1  0  0  0  0
  5  6  2  0  0  0  0
  3  5  1  0  0  0  0
  2  3  1  0  0  0  0
  1  3  1  0  0  0  0
  3  4  1  0  0  0  0
M  CHG  2  13   1  16   1
M  END
> <Shapegauss>
-190.524811

$$$$
