stable:False satoms:18 tatoms:24 sratio:0.75
  -OEChem-08062406353D

 27 29  0     1  0  0  0  0  0999 V2000
   -7.1661   -4.7364  -25.9726 H   0  0  0  0  0  0  0  0  0  0  0  0
   -8.7037   -5.4803  -25.5471 H   0  0  0  0  0  0  0  0  0  0  0  0
   -8.2623   -4.5480  -25.7825 C   0  0  0  0  0  0  0  0  0  0  0  0
   -8.7069   -4.1253  -26.6784 H   0  0  0  0  0  0  0  0  0  0  0  0
   -8.4079   -3.6674  -24.6620 N   0  0  0  0  0  0  0  0  0  0  0  0
   -9.2723   -3.0311  -24.1027 N   0  0  0  0  0  0  0  0  0  0  0  0
   -9.4855   -2.0561  -23.2390 C   0  0  0  0  0  0  0  0  0  0  0  0
  -10.7312   -1.5506  -23.2126 N   0  0  0  0  0  0  0  0  0  0  0  0
  -12.0871   -0.6549  -24.8779 H   0  0  0  0  0  0  0  0  0  0  0  0
  -13.0986    0.4180  -23.9284 H   0  0  0  0  0  0  0  0  0  0  0  0
  -13.8152   -1.0965  -24.4638 H   0  0  0  0  0  0  0  0  0  0  0  0
  -12.8930   -0.6300  -24.1358 C   0  0  0  0  0  0  0  0  0  0  0  0
  -12.2957   -1.6255  -22.6285 S   0  3  2  0  0  0  0  0  0  0  0  0
  -10.9321   -0.7294  -22.4988 C   0  0  3  0  0  0  0  0  0  0  0  0
   -9.0731   -0.3094  -21.6754 C   0  0  3  0  0  0  0  0  0  0  0  0
  -10.1984    0.3254  -21.8489 N   0  0  0  0  0  0  0  0  0  0  0  0
   -8.6808   -1.3916  -22.2627 N   0  0  0  0  0  0  0  0  0  0  0  0
   -8.0383    0.1846  -20.6761 C   0  0  0  0  0  0  0  0  0  0  0  0
   -8.3092    0.2225  -19.3909 N   0  0  0  0  0  0  0  0  0  0  0  0
   -7.2832    0.9845  -17.7551 H   0  0  0  0  0  0  0  0  0  0  0  0
   -7.2509    0.7842  -18.8109 C   0  0  0  0  0  0  0  0  0  0  0  0
   -6.2378    0.9671  -19.6460 O   0  0  0  0  0  0  0  0  0  0  0  0
   -6.7258    0.6303  -20.8262 C   0  0  0  0  0  0  0  0  0  0  0  0
   -6.1401    0.7268  -21.7474 H   0  0  0  0  0  0  0  0  0  0  0  0
  -11.2637   -0.0527  -23.3002 H   0  0  0  0  0  0  0  0  0  0  0  0
   -8.6045    0.2953  -22.4659 H   0  0  0  0  0  0  0  0  0  0  0  0
  -10.6161    0.5978  -20.9821 H   0  0  0  0  0  0  0  0  0  0  0  0
 20 21  1  0  0  0  0
 19 21  2  0  0  0  0
 21 22  1  0  0  0  0
 18 19  1  0  0  0  0
 22 23  1  0  0  0  0
 18 23  2  0  0  0  0
 15 18  1  0  0  0  0
 23 24  1  0  0  0  0
 15 16  1  0  0  0  0
 14 16  1  0  0  0  0
 15 17  1  0  0  0  0
 13 14  1  0  0  0  0
  8 14  1  0  0  0  0
  8 13  1  0  0  0  0
 12 13  1  0  0  0  0
  7 17  2  0  0  0  0
  7  8  1  0  0  0  0
  6  7  1  0  0  0  0
 10 12  1  0  0  0  0
 11 12  1  0  0  0  0
  9 12  1  0  0  0  0
  5  6  2  0  0  0  0
  3  5  1  0  0  0  0
  2  3  1  0  0  0  0
  1  3  1  0  0  0  0
  3  4  1  0  0  0  0
 14 25  1  0  0  0  0
 15 26  1  0  0  0  0
 16 27  1  0  0  0  0
M  CHG  1  13   1
M  END
> <Chemgauss4>
-6.508339

$$$$
