stable:False satoms:18 tatoms:24 sratio:0.75
  -OEChem-08062406353D

 27 29  0     1  0  0  0  0  0999 V2000
    7.1971   -4.8548   25.6512 H   0  0  0  0  0  0  0  0  0  0  0  0
    8.7346   -5.5987   25.2257 H   0  0  0  0  0  0  0  0  0  0  0  0
    8.2932   -4.6664   25.4611 C   0  0  0  0  0  0  0  0  0  0  0  0
    8.7378   -4.2437   26.3570 H   0  0  0  0  0  0  0  0  0  0  0  0
    8.4389   -3.7858   24.3406 N   0  0  0  0  0  0  0  0  0  0  0  0
    9.3033   -3.1494   23.7814 N   0  0  0  0  0  0  0  0  0  0  0  0
    9.5164   -2.1744   22.9176 C   0  0  0  0  0  0  0  0  0  0  0  0
   10.7622   -1.6690   22.8912 N   0  0  0  0  0  0  0  0  0  0  0  0
   12.1181   -0.7733   24.5565 H   0  0  0  0  0  0  0  0  0  0  0  0
   13.1295    0.2996   23.6070 H   0  0  0  0  0  0  0  0  0  0  0  0
   13.8461   -1.2148   24.1424 H   0  0  0  0  0  0  0  0  0  0  0  0
   12.9239   -0.7484   23.8144 C   0  0  0  0  0  0  0  0  0  0  0  0
   12.3266   -1.7438   22.3071 S   0  3  2  0  0  0  0  0  0  0  0  0
   10.9630   -0.8478   22.1774 C   0  0  3  0  0  0  0  0  0  0  0  0
    9.1041   -0.4278   21.3540 C   0  0  3  0  0  0  0  0  0  0  0  0
   10.2293    0.2070   21.5275 N   0  0  0  0  0  0  0  0  0  0  0  0
    8.7118   -1.5100   21.9414 N   0  0  0  0  0  0  0  0  0  0  0  0
    8.0692    0.0663   20.3547 C   0  0  0  0  0  0  0  0  0  0  0  0
    8.3402    0.1041   19.0695 N   0  0  0  0  0  0  0  0  0  0  0  0
    7.3141    0.8662   17.4338 H   0  0  0  0  0  0  0  0  0  0  0  0
    7.2818    0.6658   18.4895 C   0  0  0  0  0  0  0  0  0  0  0  0
    6.2687    0.8487   19.3246 O   0  0  0  0  0  0  0  0  0  0  0  0
    6.7567    0.5120   20.5048 C   0  0  0  0  0  0  0  0  0  0  0  0
    6.1710    0.6085   21.4260 H   0  0  0  0  0  0  0  0  0  0  0  0
   11.2946   -0.1711   22.9788 H   0  0  0  0  0  0  0  0  0  0  0  0
    8.6355    0.1769   22.1445 H   0  0  0  0  0  0  0  0  0  0  0  0
   10.6471    0.4794   20.6607 H   0  0  0  0  0  0  0  0  0  0  0  0
 20 21  1  0  0  0  0
 19 21  2  0  0  0  0
 21 22  1  0  0  0  0
 18 19  1  0  0  0  0
 22 23  1  0  0  0  0
 18 23  2  0  0  0  0
 15 18  1  0  0  0  0
 23 24  1  0  0  0  0
 15 16  1  0  0  0  0
 14 16  1  0  0  0  0
 15 17  1  0  0  0  0
 13 14  1  0  0  0  0
  8 14  1  0  0  0  0
  8 13  1  0  0  0  0
 12 13  1  0  0  0  0
  7 17  2  0  0  0  0
  7  8  1  0  0  0  0
  6  7  1  0  0  0  0
 10 12  1  0  0  0  0
 11 12  1  0  0  0  0
  9 12  1  0  0  0  0
  5  6  2  0  0  0  0
  3  5  1  0  0  0  0
  2  3  1  0  0  0  0
  1  3  1  0  0  0  0
  3  4  1  0  0  0  0
 14 25  1  0  0  0  0
 15 26  1  0  0  0  0
 16 27  1  0  0  0  0
M  CHG  1  13   1
M  END
> <Chemgauss4>
-6.378209

$$$$
