stable:False satoms:5 tatoms:24 sratio:0.20833333333333334
  -OEChem-07092417463D

 24 26  0     1  0  0  0  0  0999 V2000
    6.5395   -4.8853   26.3719 C   0  0  0  0  0  0  0  0  0  0  0  0
    8.2149   -4.2749   26.0664 S   0  0  0  0  0  0  0  0  0  0  0  0
    9.1027   -5.4095   26.0454 O   0  0  0  0  0  0  0  0  0  0  0  0
    8.5140   -3.3737   27.1278 O   0  0  0  0  0  0  0  0  0  0  0  0
    8.0922   -3.5576   24.6605 N   0  0  0  0  0  0  0  0  0  0  0  0
    8.9157   -2.8978   24.1406 C   0  0  0  0  0  0  0  0  0  0  0  0
    9.4013   -1.9799   23.5200 C   0  0  0  0  0  0  0  0  0  0  0  0
   10.3704   -1.1670   23.2045 C   0  0  1  0  0  0  0  0  0  0  0  0
   11.1071   -0.0744   24.2761 C   0  0  0  0  0  0  0  0  0  0  0  0
   12.1362    0.2245   24.2680 C   0  0  0  0  0  0  0  0  0  0  0  0
   13.1830   -0.2236   23.4542 C   0  0  0  0  0  0  0  0  0  0  0  0
   12.7783   -1.2201   22.6547 C   0  0  0  0  0  0  0  0  0  0  0  0
   11.7928   -1.6889   22.5043 C   0  0  0  0  0  0  0  0  0  0  0  0
    9.6986   -0.6336   22.3709 C   0  0  3  0  0  0  0  0  0  0  0  0
    9.0611    0.0720   21.3998 C   0  0  0  0  0  0  0  0  0  0  0  0
    9.5558    1.0181   21.0023 O   0  0  0  0  0  0  0  0  0  0  0  0
    7.9114   -0.5201   21.1176 N   0  0  0  0  0  0  0  0  0  0  0  0
    7.2030   -0.0668   20.1877 C   0  0  0  0  0  0  0  0  0  0  0  0
    7.2368    0.0428   18.8787 C   0  0  0  0  0  0  0  0  0  0  0  0
    6.7909    0.3349   17.7998 N   0  0  0  0  0  0  0  0  0  0  0  0
    5.6726    0.8647   18.2842 C   0  0  0  0  0  0  0  0  0  0  0  0
    5.2759    0.9325   19.4053 C   0  0  0  0  0  0  0  0  0  0  0  0
    5.8061    0.5383   20.5542 C   0  0  0  0  0  0  0  0  0  0  0  0
    5.2239    0.6555   22.0018 Cl  0  0  0  0  0  0  0  0  0  0  0  0
 20 21  2  0  0  0  0
 19 20  1  0  0  0  0
 21 22  1  0  0  0  0
 18 19  2  0  0  0  0
 22 23  2  0  0  0  0
 18 23  1  0  0  0  0
 17 18  1  0  0  0  0
 23 24  1  0  0  0  0
 15 16  2  0  0  0  0
 15 17  1  0  0  0  0
 14 15  1  0  0  0  0
  8 14  1  0  0  0  0
  7 14  1  0  0  0  0
 12 13  1  0  0  0  0
  8 13  1  0  0  0  0
 11 12  2  0  0  0  0
  7  8  1  0  0  0  0
  8  9  1  0  0  0  0
 10 11  1  0  0  0  0
  6  7  2  3  0  0  0
  5  6  1  0  0  0  0
  9 10  2  0  0  0  0
  2  5  1  0  0  0  0
  2  3  2  0  0  0  0
  1  2  1  0  0  0  0
  2  4  2  0  0  0  0
M  END
> <Shapegauss>
-286.656250

$$$$
