stable:False satoms:5 tatoms:24 sratio:0.20833333333333334
  -OEChem-08062412463D

 40 42  0     1  0  0  0  0  0999 V2000
   -6.2641   -5.2579  -25.9634 C   0  0  0  0  0  0  0  0  0  0  0  0
   -7.9498   -4.6108  -25.8507 S   0  0  0  0  0  0  0  0  0  0  0  0
   -8.8539   -5.7323  -25.8254 O   0  0  0  0  0  0  0  0  0  0  0  0
   -8.1415   -3.7872  -26.9966 O   0  0  0  0  0  0  0  0  0  0  0  0
   -7.9379   -3.7933  -24.4951 N   0  0  0  0  0  0  0  0  0  0  0  0
   -8.7928   -3.0893  -24.0984 C   0  0  0  0  0  0  0  0  0  0  0  0
   -9.3157   -2.1237  -23.5907 C   0  0  0  0  0  0  0  0  0  0  0  0
  -10.2954   -1.2807  -23.4209 C   0  0  1  0  0  0  0  0  0  0  0  0
  -10.9191   -0.2628  -24.6292 C   0  0  0  0  0  0  0  0  0  0  0  0
  -11.9402    0.0456  -24.7328 C   0  0  0  0  0  0  0  0  0  0  0  0
  -13.0605   -0.3315  -23.9835 C   0  0  0  0  0  0  0  0  0  0  0  0
  -12.7424   -1.2704  -23.0816 C   0  0  0  0  0  0  0  0  0  0  0  0
  -11.7812   -1.7362  -22.8120 C   0  0  0  0  0  0  0  0  0  0  0  0
   -9.6900   -0.6939  -22.5725 C   0  0  3  0  0  0  0  0  0  0  0  0
   -9.1278    0.0751  -21.6030 C   0  0  0  0  0  0  0  0  0  0  0  0
   -9.6400    1.0525  -21.3198 O   0  0  0  0  0  0  0  0  0  0  0  0
   -8.0164   -0.5056  -21.1791 N   0  0  0  0  0  0  0  0  0  0  0  0
   -7.3841    0.0081  -20.2260 C   0  0  0  0  0  0  0  0  0  0  0  0
   -7.5294    0.2139  -18.9364 C   0  0  0  0  0  0  0  0  0  0  0  0
   -7.1741    0.5803  -17.8466 N   0  0  0  0  0  0  0  0  0  0  0  0
   -6.0097    1.0624  -18.2683 C   0  0  0  0  0  0  0  0  0  0  0  0
   -5.5164    1.0438  -19.3523 C   0  0  0  0  0  0  0  0  0  0  0  0
   -5.9513    0.5713  -20.5117 C   0  0  0  0  0  0  0  0  0  0  0  0
   -5.2441    0.5763  -21.9074 Cl  0  0  0  0  0  0  0  0  0  0  0  0
   -6.1594   -5.8515  -26.8835 H   0  0  0  0  0  0  0  0  0  0  0  0
   -5.5508   -4.4208  -25.9841 H   0  0  0  0  0  0  0  0  0  0  0  0
   -6.0569   -5.8948  -25.0908 H   0  0  0  0  0  0  0  0  0  0  0  0
   -7.1255   -3.2126  -24.5480 H   0  0  0  0  0  0  0  0  0  0  0  0
   -9.6636   -3.6799  -24.3420 H   0  0  0  0  0  0  0  0  0  0  0  0
  -10.2197    0.1092  -25.3632 H   0  0  0  0  0  0  0  0  0  0  0  0
  -12.1323    0.7484  -25.5300 H   0  0  0  0  0  0  0  0  0  0  0  0
  -14.0505    0.0797  -24.1147 H   0  0  0  0  0  0  0  0  0  0  0  0
  -13.5843   -1.6384  -22.5140 H   0  0  0  0  0  0  0  0  0  0  0  0
  -11.6976   -1.6267  -21.7207 H   0  0  0  0  0  0  0  0  0  0  0  0
  -11.8891   -2.8009  -23.0664 H   0  0  0  0  0  0  0  0  0  0  0  0
  -10.1227   -1.3515  -21.8042 H   0  0  0  0  0  0  0  0  0  0  0  0
   -7.6853   -1.3432  -21.6135 H   0  0  0  0  0  0  0  0  0  0  0  0
   -8.5289   -0.1501  -18.7496 H   0  0  0  0  0  0  0  0  0  0  0  0
   -5.4167    1.5481  -17.5075 H   0  0  0  0  0  0  0  0  0  0  0  0
   -4.5359    1.4942  -19.3990 H   0  0  0  0  0  0  0  0  0  0  0  0
 20 21  2  0  0  0  0
 19 20  1  0  0  0  0
 21 22  1  0  0  0  0
 18 19  2  0  0  0  0
 22 23  2  0  0  0  0
 18 23  1  0  0  0  0
 17 18  1  0  0  0  0
 23 24  1  0  0  0  0
 15 16  2  0  0  0  0
 15 17  1  0  0  0  0
 14 15  1  0  0  0  0
  8 14  1  0  0  0  0
  7 14  1  0  0  0  0
 12 13  1  0  0  0  0
  8 13  1  0  0  0  0
 11 12  2  0  0  0  0
  7  8  1  0  0  0  0
  8  9  1  0  0  0  0
 10 11  1  0  0  0  0
  6  7  2  3  0  0  0
  5  6  1  0  0  0  0
  9 10  2  0  0  0  0
  2  5  1  0  0  0  0
  2  3  2  0  0  0  0
  1  2  1  0  0  0  0
  2  4  2  0  0  0  0
  1 25  1  0  0  0  0
  1 26  1  0  0  0  0
  1 27  1  0  0  0  0
  5 28  1  0  0  0  0
  6 29  1  0  0  0  0
  9 30  1  0  0  0  0
 10 31  1  0  0  0  0
 11 32  1  0  0  0  0
 12 33  1  0  0  0  0
 13 34  1  0  0  0  0
 13 35  1  0  0  0  0
 14 36  1  0  0  0  0
 17 37  1  0  0  0  0
 19 38  1  0  0  0  0
 21 39  1  0  0  0  0
 22 40  1  0  0  0  0
M  END
> <Chemgauss4>
-13.326030

$$$$
