stable:False satoms:16 tatoms:24 sratio:0.6666666666666666
  -OEChem-07092417383D

 24 24  0     0  0  0  0  0  0999 V2000
    7.0490   -4.8180   26.3197 H   0  0  0  0  0  0  0  0  0  0  0  0
    8.1132   -4.5268   26.1755 C   0  0  0  0  0  0  0  0  0  0  0  0
    8.7694   -5.4162   26.2127 H   0  0  0  0  0  0  0  0  0  0  0  0
    8.4110   -3.8557   27.0159 H   0  0  0  0  0  0  0  0  0  0  0  0
    8.2355   -3.9109   24.9070 N   0  0  0  0  0  0  0  0  0  0  0  0
    8.8302   -3.0484   24.3689 C   0  0  0  0  0  0  0  0  0  0  0  0
    9.0191   -2.2015   23.6648 N   0  0  0  0  0  0  0  0  0  0  0  0
   10.5737   -0.7724   22.9949 C   0  0  0  0  0  0  0  0  0  0  0  0
   11.9592   -0.4541   23.5285 C   0  0  0  0  0  0  0  0  0  0  0  0
   11.8969   -0.1761   24.5558 H   0  0  0  0  0  0  0  0  0  0  0  0
   12.4415    0.3607   23.0377 H   0  0  0  0  0  0  0  0  0  0  0  0
   12.6014   -1.2843   23.3519 H   0  0  0  0  0  0  0  0  0  0  0  0
    9.9737   -1.7593   23.3923 C   0  0  0  0  0  0  0  0  0  0  0  0
    9.6381   -0.1352   22.0948 C   0  3  0  0  0  0  0  0  0  0  0  0
   10.0256    0.6418   21.5173 H   0  0  0  0  0  0  0  0  0  0  0  0
    8.6311    0.8004   19.5826 S   0  0  0  0  0  0  0  0  0  0  0  0
    8.3416   -0.2737   21.7924 N   0  0  0  0  0  0  0  0  0  0  0  0
    7.6564    0.2157   20.8166 C   0  0  0  0  0  0  0  0  0  0  0  0
    7.1969    0.5066   18.5146 C   0  0  0  0  0  0  0  0  0  0  0  0
    7.2960    0.4306   17.4450 H   0  0  0  0  0  0  0  0  0  0  0  0
    6.0248    0.5918   19.1964 C   0  0  0  0  0  0  0  0  0  0  0  0
    5.0625    0.7967   18.8145 H   0  0  0  0  0  0  0  0  0  0  0  0
    6.2729    0.4488   20.6024 C   0  0  0  0  0  0  0  0  0  0  0  0
    5.5643    0.5496   21.3949 H   0  0  0  0  0  0  0  0  0  0  0  0
 19 20  1  0  0  0  0
 19 21  2  0  0  0  0
 16 19  1  0  0  0  0
 21 22  1  0  0  0  0
 21 23  1  0  0  0  0
 16 18  1  0  0  0  0
 18 23  2  0  0  0  0
 23 24  1  0  0  0  0
 17 18  1  0  0  0  0
 14 15  1  0  0  0  0
 14 17  1  0  0  0  0
  8 14  1  0  0  0  0
  8 13  2  3  0  0  0
  8  9  1  0  0  0  0
  9 11  1  0  0  0  0
  9 12  1  0  0  0  0
  7 13  1  0  0  0  0
  9 10  1  0  0  0  0
  6  7  2  0  0  0  0
  5  6  1  0  0  0  0
  2  5  1  0  0  0  0
  2  3  1  0  0  0  0
  1  2  1  0  0  0  0
  2  4  1  0  0  0  0
M  CHG  1  14   1
M  END
> <Shapegauss>
-165.325974

$$$$
