stable:False satoms:16 tatoms:24 sratio:0.6666666666666666
  -OEChem-08062408383D

 28 28  0     0  0  0  0  0  0999 V2000
   10.6563    5.5105   22.9089 H   0  0  0  0  0  0  0  0  0  0  0  0
   11.4648    4.8977   23.3660 C   0  0  0  0  0  0  0  0  0  0  0  0
   11.8963    5.4136   24.2439 H   0  0  0  0  0  0  0  0  0  0  0  0
   12.2810    4.7759   22.6148 H   0  0  0  0  0  0  0  0  0  0  0  0
   10.9058    3.6647   23.7790 N   0  0  0  0  0  0  0  0  0  0  0  0
   11.1834    2.5231   23.8614 C   0  0  0  0  0  0  0  0  0  0  0  0
   11.0366    1.4156   23.8378 N   0  3  0  0  0  0  0  0  0  0  0  0
   12.0823   -0.5134   24.1432 C   0  0  0  0  0  0  0  0  0  0  0  0
   13.5467   -0.8526   24.3587 C   0  0  0  0  0  0  0  0  0  0  0  0
   14.1309   -0.4617   23.5572 H   0  0  0  0  0  0  0  0  0  0  0  0
   13.7552   -1.8981   24.3848 H   0  0  0  0  0  0  0  0  0  0  0  0
   13.8502   -0.5002   25.3160 H   0  0  0  0  0  0  0  0  0  0  0  0
   11.7023    0.6450   24.2174 C   0  0  0  0  0  0  0  0  0  0  0  0
   10.8914   -1.2477   23.7770 C   0  0  0  0  0  2  0  0  0  0  0  0
    8.7444   -3.1113   24.1203 S   0  0  0  0  0  0  0  0  0  0  0  0
    9.6567   -0.9404   23.3616 N   0  0  0  0  0  0  0  0  0  0  0  0
    8.6033   -1.6764   23.2625 C   0  0  0  0  0  0  0  0  0  0  0  0
    6.9333   -3.0821   24.1736 C   0  0  0  0  0  0  0  0  0  0  0  0
    6.3805   -3.6630   24.8923 H   0  0  0  0  0  0  0  0  0  0  0  0
    6.4004   -2.4206   23.1132 C   0  0  0  0  0  0  0  0  0  0  0  0
    5.4328   -2.5189   22.7035 H   0  0  0  0  0  0  0  0  0  0  0  0
    7.3989   -1.5793   22.5180 C   0  0  0  0  0  0  0  0  0  0  0  0
    7.3045   -1.0001   21.6258 H   0  0  0  0  0  0  0  0  0  0  0  0
    9.9725    3.8100   24.1074 H   0  0  0  0  0  0  0  0  0  0  0  0
   12.2298    2.5852   24.1213 H   0  0  0  0  0  0  0  0  0  0  0  0
   12.2812    1.1047   25.0048 H   0  0  0  0  0  0  0  0  0  0  0  0
    9.7931   -0.5860   22.4365 H   0  0  0  0  0  0  0  0  0  0  0  0
   10.1890    1.0942   23.4156 H   0  0  0  0  0  0  0  0  0  0  0  0
 18 19  1  0  0  0  0
 18 20  2  0  0  0  0
 15 18  1  0  0  0  0
 20 21  1  0  0  0  0
 20 22  1  0  0  0  0
 15 17  1  0  0  0  0
 17 22  2  0  0  0  0
 22 23  1  0  0  0  0
 16 17  1  0  0  0  0
 14 16  1  0  0  0  0
  8 14  1  0  0  0  0
  8 13  2  3  0  0  0
  8  9  1  0  0  0  0
  9 11  1  0  0  0  0
  9 12  1  0  0  0  0
  7 13  1  0  0  0  0
  9 10  1  0  0  0  0
  6  7  2  0  0  0  0
  5  6  1  0  0  0  0
  2  5  1  0  0  0  0
  2  3  1  0  0  0  0
  1  2  1  0  0  0  0
  2  4  1  0  0  0  0
  5 24  1  0  0  0  0
  6 25  1  0  0  0  0
 13 26  1  0  0  0  0
 16 27  1  0  0  0  0
  7 28  1  0  0  0  0
M  CHG  1   7   1
M  END
> <Chemgauss4>
-7.045320

$$$$
