
 OpenBabel07202414173D

 55 57  0  0  1  0  0  0  0  0999 V2000
    1.4777   -1.3554    1.1643 Cl  0  0  0  0  0  0  0  0  0  0  0  0
    3.1328   -1.0948    0.5807 C   0  0  0  0  0  0  0  0  0  0  0  0
    3.3439    0.3222    0.0641 C   0  0  0  0  0  0  0  0  0  0  0  0
    2.4231    1.1307   -0.0664 O   0  0  0  0  0  0  0  0  0  0  0  0
    4.6558    0.6728   -0.2479 N   0  0  0  0  0  0  0  0  0  0  0  0
    5.7771   -0.2632   -0.3380 C   0  0  0  0  0  0  0  0  0  0  0  0
    7.0344    0.3229    0.3317 C   0  0  0  0  0  0  0  0  0  0  0  0
    7.4391    1.6514   -0.1835 N   0  0  0  0  0  0  0  0  0  0  0  0
    7.9250    1.6494   -1.5787 C   0  0  0  0  0  0  0  0  0  0  0  0
    9.1055    0.7278   -1.8438 C   0  0  0  0  0  0  0  0  0  0  0  0
    8.8245   -0.6089   -2.2068 C   0  0  0  0  0  0  0  0  0  0  0  0
    9.8347   -1.5486   -2.3725 C   0  0  0  0  0  0  0  0  0  0  0  0
    9.4251   -3.1861   -2.7018 Cl  0  0  0  0  0  0  0  0  0  0  0  0
   11.1606   -1.1679   -2.2485 C   0  0  0  0  0  0  0  0  0  0  0  0
   11.4677    0.1613   -1.9455 C   0  0  0  0  0  0  0  0  0  0  0  0
   10.4579    1.1208   -1.7180 C   0  0  0  0  0  0  0  0  0  0  0  0
   10.8889    2.5310   -1.3803 C   0  0  0  0  0  0  0  0  0  0  0  0
   11.1308    3.3097   -2.5793 N   0  0  0  0  0  0  0  0  0  0  0  0
   11.7193    4.5558   -2.5063 C   0  0  0  0  0  0  0  0  0  0  0  0
   12.0821    5.0570   -1.4474 O   0  0  0  0  0  0  0  0  0  0  0  0
   11.8897    5.2443   -3.8545 C   0  0  2  0  0  0  0  0  0  0  0  0
   12.9016    4.5009   -4.7341 C   0  0  0  0  0  0  0  0  0  0  0  0
   13.1595    5.2612   -6.0332 C   0  0  0  0  0  0  0  0  0  0  0  0
   13.4724    6.7290   -5.7699 C   0  0  0  0  0  0  0  0  0  0  0  0
   12.4585    7.3284   -4.9637 O   0  0  0  0  0  0  0  0  0  0  0  0
   12.3452    6.6940   -3.6837 C   0  0  0  0  0  0  0  0  0  0  0  0
    6.2664    2.5596   -0.0417 C   0  0  0  0  0  0  0  0  0  0  0  0
    4.9597    2.0390   -0.6888 C   0  0  0  0  0  0  0  0  0  0  0  0
    3.3233   -1.8149   -0.2197 H   0  0  0  0  0  0  0  0  0  0  0  0
    3.7991   -1.2805    1.4277 H   0  0  0  0  0  0  0  0  0  0  0  0
    5.9347   -0.4467   -1.4049 H   0  0  0  0  0  0  0  0  0  0  0  0
    5.5445   -1.2306    0.1102 H   0  0  0  0  0  0  0  0  0  0  0  0
    7.8614   -0.3923    0.2918 H   0  0  0  0  0  0  0  0  0  0  0  0
    6.8209    0.4325    1.4047 H   0  0  0  0  0  0  0  0  0  0  0  0
    8.2148    2.6708   -1.8535 H   0  0  0  0  0  0  0  0  0  0  0  0
    7.1285    1.3880   -2.2863 H   0  0  0  0  0  0  0  0  0  0  0  0
    7.7960   -0.9326   -2.3362 H   0  0  0  0  0  0  0  0  0  0  0  0
   11.9563   -1.8953   -2.3821 H   0  0  0  0  0  0  0  0  0  0  0  0
   12.5167    0.4461   -1.8676 H   0  0  0  0  0  0  0  0  0  0  0  0
   11.8182    2.5049   -0.7961 H   0  0  0  0  0  0  0  0  0  0  0  0
   10.1551    3.0496   -0.7573 H   0  0  0  0  0  0  0  0  0  0  0  0
   10.7280    2.9928   -3.4515 H   0  0  0  0  0  0  0  0  0  0  0  0
   10.9155    5.2473   -4.3636 H   0  0  0  0  0  0  0  0  0  0  0  0
   12.5495    3.4890   -4.9649 H   0  0  0  0  0  0  0  0  0  0  0  0
   13.8474    4.3843   -4.1883 H   0  0  0  0  0  0  0  0  0  0  0  0
   12.2590    5.1959   -6.6559 H   0  0  0  0  0  0  0  0  0  0  0  0
   13.9786    4.7941   -6.5902 H   0  0  0  0  0  0  0  0  0  0  0  0
   13.5110    7.2753   -6.7182 H   0  0  0  0  0  0  0  0  0  0  0  0
   14.4461    6.8493   -5.2812 H   0  0  0  0  0  0  0  0  0  0  0  0
   11.6140    7.2629   -3.0995 H   0  0  0  0  0  0  0  0  0  0  0  0
   13.3062    6.7673   -3.1577 H   0  0  0  0  0  0  0  0  0  0  0  0
    6.5076    3.5570   -0.4263 H   0  0  0  0  0  0  0  0  0  0  0  0
    6.0793    2.6935    1.0331 H   0  0  0  0  0  0  0  0  0  0  0  0
    5.0480    2.0189   -1.7814 H   0  0  0  0  0  0  0  0  0  0  0  0
    4.1369    2.7186   -0.4459 H   0  0  0  0  0  0  0  0  0  0  0  0
  1  2  1  0  0  0  0
  2  3  1  0  0  0  0
  2 29  1  0  0  0  0
  2 30  1  0  0  0  0
  3  4  2  0  0  0  0
  3  5  1  0  0  0  0
  5  6  1  0  0  0  0
  5 28  1  0  0  0  0
  6  7  1  0  0  0  0
  6 31  1  0  0  0  0
  6 32  1  0  0  0  0
  7  8  1  0  0  0  0
  7 33  1  0  0  0  0
  7 34  1  0  0  0  0
  8  9  1  0  0  0  0
  8 27  1  0  0  0  0
  9 10  1  0  0  0  0
  9 35  1  0  0  0  0
  9 36  1  0  0  0  0
 10 11  1  0  0  0  0
 10 16  2  0  0  0  0
 11 12  2  0  0  0  0
 11 37  1  0  0  0  0
 12 13  1  0  0  0  0
 12 14  1  0  0  0  0
 14 15  2  0  0  0  0
 14 38  1  0  0  0  0
 15 16  1  0  0  0  0
 15 39  1  0  0  0  0
 16 17  1  0  0  0  0
 17 18  1  0  0  0  0
 17 40  1  0  0  0  0
 17 41  1  0  0  0  0
 18 19  1  0  0  0  0
 18 42  1  0  0  0  0
 19 20  2  0  0  0  0
 19 21  1  0  0  0  0
 21 22  1  0  0  0  0
 21 26  1  0  0  0  0
 21 43  1  6  0  0  0
 22 23  1  0  0  0  0
 22 44  1  0  0  0  0
 22 45  1  0  0  0  0
 23 24  1  0  0  0  0
 23 46  1  0  0  0  0
 23 47  1  0  0  0  0
 24 25  1  0  0  0  0
 24 48  1  0  0  0  0
 24 49  1  0  0  0  0
 25 26  1  0  0  0  0
 26 50  1  0  0  0  0
 26 51  1  0  0  0  0
 27 28  1  0  0  0  0
 27 52  1  0  0  0  0
 27 53  1  0  0  0  0
 28 54  1  0  0  0  0
 28 55  1  0  0  0  0
M  END
$$$$
