REMARK  5 active torsions:
REMARK  status: ('A' for Active; 'I' for Inactive)
REMARK    1  A    between atoms: N_2  and  C_4 
REMARK    2  A    between atoms: C_5  and  C_6 
REMARK    3  A    between atoms: C_6  and  O_8 
REMARK    4  A    between atoms: C_14  and  C_17 
REMARK    5  A    between atoms: C_16  and  C_17 
ROOT
HETATM    1  C   UNL     1      10.334  -1.329  23.193  1.00  0.00     0.158 C 
HETATM    2  C   UNL     1       9.912  -0.334  22.291  1.00  0.00     0.150 A 
HETATM    3  C   UNL     1       8.597  -0.261  21.221  1.00  0.00     0.214 A 
HETATM    4  O   UNL     1      10.041   0.597  21.703  1.00  0.00    -0.307 OA
HETATM    5  N   UNL     1       7.949  -0.629  20.801  1.00  0.00    -0.371 N 
ATOM      6  HN  UNL     1       7.887  -1.647  20.776  1.00  0.00     0.157 HD
HETATM    7  C   UNL     1       7.150  -0.009  20.267  1.00  0.00     0.166 A 
ENDROOT
BRANCH   1   8
HETATM    8  C   UNL     1       9.552  -2.146  23.849  1.00  0.00    -0.016 C 
HETATM    9  C   UNL     1       8.961  -3.052  24.360  1.00  0.00     0.013 C 
BRANCH   9  10
HETATM   10  N   UNL     1       8.232  -3.949  24.656  1.00  0.00    -0.354 N 
HETATM   11  C   UNL     1       8.106  -4.370  26.003  1.00  0.00     0.157 C 
ATOM     12  HN  UNL     1       7.692  -4.419  23.929  1.00  0.00     0.169 HD
ENDBRANCH   9  10
ENDBRANCH   1   8
BRANCH   1  13
HETATM   13  O   UNL     1      11.639  -1.590  23.214  1.00  0.00    -0.345 OA
HETATM   14  C   UNL     1      12.223  -0.371  23.654  1.00  0.00     0.211 C 
ENDBRANCH   1  13
BRANCH   7  15
HETATM   15  C   UNL     1       5.973   0.531  20.415  1.00  0.00     0.002 C 
BRANCH  15  16
HETATM   16  C   UNL     1       5.636   0.779  19.004  1.00  0.00    -0.012 C 
HETATM   17  C   UNL     1       6.660   0.308  18.498  1.00  0.00     0.011 C 
ENDBRANCH  15  16
ENDBRANCH   7  15
TORSDOF 5
