MODEL 1
REMARK VINA RESULT:    -5.107      0.000      0.000
REMARK INTER + INTRA:          -6.890
REMARK INTER:                  -6.600
REMARK INTRA:                  -0.290
REMARK UNBOUND:                -0.290
REMARK  5 active torsions:
REMARK  status: ('A' for Active; 'I' for Inactive)
REMARK    1  A    between atoms: N_2  and  C_4 
REMARK    2  A    between atoms: C_5  and  C_6 
REMARK    3  A    between atoms: C_6  and  O_8 
REMARK    4  A    between atoms: C_14  and  C_17 
REMARK    5  A    between atoms: C_16  and  C_17 
ROOT
HETATM    1  C   UNL     1       6.004  -2.601  21.776  1.00  0.00     0.158 C 
HETATM    2  C   UNL     1       7.013  -2.507  22.753  1.00  0.00     0.150 A 
HETATM    3  C   UNL     1       8.674  -2.182  22.636  1.00  0.00     0.214 A 
HETATM    4  O   UNL     1       7.428  -2.642  23.772  1.00  0.00    -0.307 OA
HETATM    5  N   UNL     1       9.392  -2.093  22.179  1.00  0.00    -0.371 N 
ATOM      6  HN  UNL     1       9.405  -2.407  21.209  1.00  0.00     0.157 HD
HETATM    7  C   UNL     1      10.337  -1.631  22.629  1.00  0.00     0.166 A 
ENDROOT
BRANCH   1   8
HETATM    8  C   UNL     1       5.952  -1.916  20.663  1.00  0.00    -0.016 C 
HETATM    9  C   UNL     1       5.707  -1.383  19.621  1.00  0.00     0.013 C 
BRANCH   9  10
HETATM   10  N   UNL     1       5.571  -1.059  18.480  1.00  0.00    -0.354 N 
HETATM   11  C   UNL     1       5.546   0.308  18.110  1.00  0.00     0.157 C 
ATOM     12  HN  UNL     1       5.471  -1.778  17.762  1.00  0.00     0.169 HD
ENDBRANCH   9  10
ENDBRANCH   1   8
BRANCH   1  13
HETATM   13  O   UNL     1       5.154  -3.617  21.903  1.00  0.00    -0.345 OA
HETATM   14  C   UNL     1       5.927  -4.755  21.544  1.00  0.00     0.211 C 
ENDBRANCH   1  13
BRANCH   7  15
HETATM   15  C   UNL     1      10.987  -0.511  22.770  1.00  0.00     0.002 C 
BRANCH  15  16
HETATM   16  C   UNL     1      12.057  -0.960  23.676  1.00  0.00    -0.012 C 
HETATM   17  C   UNL     1      12.156   0.071  24.349  1.00  0.00     0.011 C 
ENDBRANCH  15  16
ENDBRANCH   7  15
TORSDOF 5
ENDMDL
MODEL 2
REMARK VINA RESULT:    -5.098      2.544      4.706
REMARK INTER + INTRA:          -6.877
REMARK INTER:                  -6.528
REMARK INTRA:                  -0.350
REMARK UNBOUND:                -0.290
REMARK  5 active torsions:
REMARK  status: ('A' for Active; 'I' for Inactive)
REMARK    1  A    between atoms: N_2  and  C_4 
REMARK    2  A    between atoms: C_5  and  C_6 
REMARK    3  A    between atoms: C_6  and  O_8 
REMARK    4  A    between atoms: C_14  and  C_17 
REMARK    5  A    between atoms: C_16  and  C_17 
ROOT
HETATM    1  C   UNL     1       9.095  -0.021  21.111  1.00  0.00     0.158 C 
HETATM    2  C   UNL     1       9.393  -1.125  21.931  1.00  0.00     0.150 A 
HETATM    3  C   UNL     1       8.442  -2.422  22.474  1.00  0.00     0.214 A 
HETATM    4  O   UNL     1      10.023  -1.695  22.644  1.00  0.00    -0.307 OA
HETATM    5  N   UNL     1       7.684  -2.800  22.589  1.00  0.00    -0.371 N 
ATOM      6  HN  UNL     1       6.831  -2.256  22.456  1.00  0.00     0.157 HD
HETATM    7  C   UNL     1       7.602  -3.902  22.886  1.00  0.00     0.166 A 
ENDROOT
BRANCH   1   8
HETATM    8  C   UNL     1       8.240  -0.014  20.122  1.00  0.00    -0.016 C 
HETATM    9  C   UNL     1       7.633   0.042  19.092  1.00  0.00     0.013 C 
BRANCH   9  10
HETATM   10  N   UNL     1       7.005   0.344  18.124  1.00  0.00    -0.354 N 
HETATM   11  C   UNL     1       5.608   0.118  18.064  1.00  0.00     0.157 C 
ATOM     12  HN  UNL     1       7.481   0.771  17.329  1.00  0.00     0.169 HD
ENDBRANCH   9  10
ENDBRANCH   1   8
BRANCH   1  13
HETATM   13  O   UNL     1       9.567   1.157  21.513  1.00  0.00    -0.345 OA
HETATM   14  C   UNL     1       8.549   1.658  22.369  1.00  0.00     0.211 C 
ENDBRANCH   1  13
BRANCH   7  15
HETATM   15  C   UNL     1       7.470  -5.107  22.409  1.00  0.00     0.002 C 
BRANCH  15  16
HETATM   16  C   UNL     1       6.018  -5.120  22.169  1.00  0.00    -0.012 C 
HETATM   17  C   UNL     1       6.028  -5.725  21.091  1.00  0.00     0.011 C 
ENDBRANCH  15  16
ENDBRANCH   7  15
TORSDOF 5
ENDMDL
MODEL 3
REMARK VINA RESULT:    -5.018      3.696      6.734
REMARK INTER + INTRA:          -6.775
REMARK INTER:                  -6.540
REMARK INTRA:                  -0.235
REMARK UNBOUND:                -0.290
REMARK  5 active torsions:
REMARK  status: ('A' for Active; 'I' for Inactive)
REMARK    1  A    between atoms: N_2  and  C_4 
REMARK    2  A    between atoms: C_5  and  C_6 
REMARK    3  A    between atoms: C_6  and  O_8 
REMARK    4  A    between atoms: C_14  and  C_17 
REMARK    5  A    between atoms: C_16  and  C_17 
ROOT
HETATM    1  C   UNL     1      10.891   0.953  23.832  1.00  0.00     0.158 C 
HETATM    2  C   UNL     1      10.535   1.278  22.509  1.00  0.00     0.150 A 
HETATM    3  C   UNL     1       9.490   0.529  21.402  1.00  0.00     0.214 A 
HETATM    4  O   UNL     1      10.652   1.826  21.552  1.00  0.00    -0.307 OA
HETATM    5  N   UNL     1       9.010  -0.133  21.152  1.00  0.00    -0.371 N 
ATOM      6  HN  UNL     1       9.105  -1.026  21.636  1.00  0.00     0.157 HD
HETATM    7  C   UNL     1       8.265  -0.044  20.289  1.00  0.00     0.166 A 
ENDROOT
BRANCH   1   8
HETATM    8  C   UNL     1      10.112   0.381  24.713  1.00  0.00    -0.016 C 
HETATM    9  C   UNL     1       9.531  -0.045  25.668  1.00  0.00     0.013 C 
BRANCH   9  10
HETATM   10  N   UNL     1       9.118  -0.661  26.602  1.00  0.00    -0.354 N 
HETATM   11  C   UNL     1       8.369  -1.850  26.417  1.00  0.00     0.157 C 
ATOM     12  HN  UNL     1       9.308  -0.328  27.548  1.00  0.00     0.169 HD
ENDBRANCH   9  10
ENDBRANCH   1   8
BRANCH   1  13
HETATM   13  O   UNL     1      12.183   1.048  24.135  1.00  0.00    -0.345 OA
HETATM   14  C   UNL     1      12.658  -0.288  24.024  1.00  0.00     0.211 C 
ENDBRANCH   1  13
BRANCH   7  15
HETATM   15  C   UNL     1       7.019   0.209  20.005  1.00  0.00     0.002 C 
BRANCH  15  16
HETATM   16  C   UNL     1       7.095   0.210  18.535  1.00  0.00    -0.012 C 
HETATM   17  C   UNL     1       6.022  -0.357  18.307  1.00  0.00     0.011 C 
ENDBRANCH  15  16
ENDBRANCH   7  15
TORSDOF 5
ENDMDL
MODEL 4
REMARK VINA RESULT:    -4.988      3.085      6.256
REMARK INTER + INTRA:          -6.735
REMARK INTER:                  -6.395
REMARK INTRA:                  -0.340
REMARK UNBOUND:                -0.290
REMARK  5 active torsions:
REMARK  status: ('A' for Active; 'I' for Inactive)
REMARK    1  A    between atoms: N_2  and  C_4 
REMARK    2  A    between atoms: C_5  and  C_6 
REMARK    3  A    between atoms: C_6  and  O_8 
REMARK    4  A    between atoms: C_14  and  C_17 
REMARK    5  A    between atoms: C_16  and  C_17 
ROOT
HETATM    1  C   UNL     1      10.719  -0.603  23.115  1.00  0.00     0.158 C 
HETATM    2  C   UNL     1      10.237   0.271  22.122  1.00  0.00     0.150 A 
HETATM    3  C   UNL     1       9.035   0.085  20.938  1.00  0.00     0.214 A 
HETATM    4  O   UNL     1      10.277   1.183  21.493  1.00  0.00    -0.307 OA
HETATM    5  N   UNL     1       8.495  -0.399  20.486  1.00  0.00    -0.371 N 
ATOM      6  HN  UNL     1       8.593  -1.414  20.517  1.00  0.00     0.157 HD
HETATM    7  C   UNL     1       7.665   0.061  19.848  1.00  0.00     0.166 A 
ENDROOT
BRANCH   1   8
HETATM    8  C   UNL     1      10.012  -1.503  23.748  1.00  0.00    -0.016 C 
HETATM    9  C   UNL     1       9.263  -2.353  24.133  1.00  0.00     0.013 C 
BRANCH   9  10
HETATM   10  N   UNL     1       8.363  -3.002  24.570  1.00  0.00    -0.354 N 
HETATM   11  C   UNL     1       8.235  -4.377  24.249  1.00  0.00     0.157 C 
ATOM     12  HN  UNL     1       7.676  -2.562  25.182  1.00  0.00     0.169 HD
ENDBRANCH   9  10
ENDBRANCH   1   8
BRANCH   1  13
HETATM   13  O   UNL     1      12.040  -0.652  23.266  1.00  0.00    -0.345 OA
HETATM   14  C   UNL     1      12.275   0.086  24.458  1.00  0.00     0.211 C 
ENDBRANCH   1  13
BRANCH   7  15
HETATM   15  C   UNL     1       6.410   0.414  19.860  1.00  0.00     0.002 C 
BRANCH  15  16
HETATM   16  C   UNL     1       5.985  -0.143  18.565  1.00  0.00    -0.012 C 
HETATM   17  C   UNL     1       5.970   0.912  17.922  1.00  0.00     0.011 C 
ENDBRANCH  15  16
ENDBRANCH   7  15
TORSDOF 5
ENDMDL
MODEL 5
REMARK VINA RESULT:    -4.795      1.212      5.320
REMARK INTER + INTRA:          -6.486
REMARK INTER:                  -6.131
REMARK INTRA:                  -0.355
REMARK UNBOUND:                -0.290
REMARK  5 active torsions:
REMARK  status: ('A' for Active; 'I' for Inactive)
REMARK    1  A    between atoms: N_2  and  C_4 
REMARK    2  A    between atoms: C_5  and  C_6 
REMARK    3  A    between atoms: C_6  and  O_8 
REMARK    4  A    between atoms: C_14  and  C_17 
REMARK    5  A    between atoms: C_16  and  C_17 
ROOT
HETATM    1  C   UNL     1       7.200  -3.320  23.121  1.00  0.00     0.158 C 
HETATM    2  C   UNL     1       6.248  -3.211  22.088  1.00  0.00     0.150 A 
HETATM    3  C   UNL     1       5.917  -1.969  20.981  1.00  0.00     0.214 A 
HETATM    4  O   UNL     1       5.341  -3.524  21.533  1.00  0.00    -0.307 OA
HETATM    5  N   UNL     1       6.004  -1.163  20.709  1.00  0.00    -0.371 N 
ATOM      6  HN  UNL     1       6.423  -0.470  21.330  1.00  0.00     0.157 HD
HETATM    7  C   UNL     1       5.664  -0.841  19.665  1.00  0.00     0.166 A 
ENDROOT
BRANCH   1   8
HETATM    8  C   UNL     1       8.395  -2.791  23.116  1.00  0.00    -0.016 C 
HETATM    9  C   UNL     1       9.442  -2.251  22.903  1.00  0.00     0.013 C 
BRANCH   9  10
HETATM   10  N   UNL     1      10.557  -1.945  22.610  1.00  0.00    -0.354 N 
HETATM   11  C   UNL     1      11.339  -1.135  23.471  1.00  0.00     0.157 C 
ATOM     12  HN  UNL     1      10.953  -2.270  21.728  1.00  0.00     0.169 HD
ENDBRANCH   9  10
ENDBRANCH   1   8
BRANCH   1  13
HETATM   13  O   UNL     1       6.764  -3.824  24.273  1.00  0.00    -0.345 OA
HETATM   14  C   UNL     1       6.138  -2.720  24.912  1.00  0.00     0.211 C 
ENDBRANCH   1  13
BRANCH   7  15
HETATM   15  C   UNL     1       6.068  -0.678  18.437  1.00  0.00     0.002 C 
BRANCH  15  16
HETATM   16  C   UNL     1       6.629   0.678  18.540  1.00  0.00    -0.012 C 
HETATM   17  C   UNL     1       5.636   1.305  18.156  1.00  0.00     0.011 C 
ENDBRANCH  15  16
ENDBRANCH   7  15
TORSDOF 5
ENDMDL
MODEL 6
REMARK VINA RESULT:    -4.746      3.389      5.003
REMARK INTER + INTRA:          -6.423
REMARK INTER:                  -6.175
REMARK INTRA:                  -0.247
REMARK UNBOUND:                -0.290
REMARK  5 active torsions:
REMARK  status: ('A' for Active; 'I' for Inactive)
REMARK    1  A    between atoms: N_2  and  C_4 
REMARK    2  A    between atoms: C_5  and  C_6 
REMARK    3  A    between atoms: C_6  and  O_8 
REMARK    4  A    between atoms: C_14  and  C_17 
REMARK    5  A    between atoms: C_16  and  C_17 
ROOT
HETATM    1  C   UNL     1       7.861  -4.195  23.687  1.00  0.00     0.158 C 
HETATM    2  C   UNL     1       8.460  -3.041  23.147  1.00  0.00     0.150 A 
HETATM    3  C   UNL     1       9.108  -1.655  23.879  1.00  0.00     0.214 A 
HETATM    4  O   UNL     1       8.722  -2.348  22.322  1.00  0.00    -0.307 OA
HETATM    5  N   UNL     1       9.224  -1.148  24.558  1.00  0.00    -0.371 N 
ATOM      6  HN  UNL     1       8.656  -1.299  25.393  1.00  0.00     0.157 HD
HETATM    7  C   UNL     1       9.999  -0.307  24.556  1.00  0.00     0.166 A 
ENDROOT
BRANCH   1   8
HETATM    8  C   UNL     1       8.167  -4.750  24.831  1.00  0.00    -0.016 C 
HETATM    9  C   UNL     1       8.233  -5.311  25.885  1.00  0.00     0.013 C 
BRANCH   9  10
HETATM   10  N   UNL     1       8.241  -5.642  27.031  1.00  0.00    -0.354 N 
HETATM   11  C   UNL     1       7.045  -5.667  27.790  1.00  0.00     0.157 C 
ATOM     12  HN  UNL     1       9.122  -5.909  27.471  1.00  0.00     0.169 HD
ENDBRANCH   9  10
ENDBRANCH   1   8
BRANCH   1  13
HETATM   13  O   UNL     1       6.758  -4.626  23.079  1.00  0.00    -0.345 OA
HETATM   14  C   UNL     1       7.226  -5.648  22.209  1.00  0.00     0.211 C 
ENDBRANCH   1  13
BRANCH   7  15
HETATM   15  C   UNL     1      11.230  -0.019  24.871  1.00  0.00     0.002 C 
BRANCH  15  16
HETATM   16  C   UNL     1      11.566   0.880  23.754  1.00  0.00    -0.012 C 
HETATM   17  C   UNL     1      10.980   1.887  24.163  1.00  0.00     0.011 C 
ENDBRANCH  15  16
ENDBRANCH   7  15
TORSDOF 5
ENDMDL
MODEL 7
REMARK VINA RESULT:    -4.729     14.819     17.018
REMARK INTER + INTRA:          -6.401
REMARK INTER:                  -6.059
REMARK INTRA:                  -0.342
REMARK UNBOUND:                -0.290
REMARK  5 active torsions:
REMARK  status: ('A' for Active; 'I' for Inactive)
REMARK    1  A    between atoms: N_2  and  C_4 
REMARK    2  A    between atoms: C_5  and  C_6 
REMARK    3  A    between atoms: C_6  and  O_8 
REMARK    4  A    between atoms: C_14  and  C_17 
REMARK    5  A    between atoms: C_16  and  C_17 
ROOT
HETATM    1  C   UNL     1      24.133  -5.321  26.406  1.00  0.00     0.158 C 
HETATM    2  C   UNL     1      23.665  -4.814  25.178  1.00  0.00     0.150 A 
HETATM    3  C   UNL     1      22.725  -3.453  24.801  1.00  0.00     0.214 A 
HETATM    4  O   UNL     1      23.455  -4.874  24.092  1.00  0.00    -0.307 OA
HETATM    5  N   UNL     1      22.214  -2.806  25.029  1.00  0.00    -0.371 N 
ATOM      6  HN  UNL     1      21.821  -2.792  25.971  1.00  0.00     0.157 HD
HETATM    7  C   UNL     1      21.960  -1.957  24.307  1.00  0.00     0.166 A 
ENDROOT
BRANCH   1   8
HETATM    8  C   UNL     1      24.463  -4.607  27.450  1.00  0.00    -0.016 C 
HETATM    9  C   UNL     1      24.610  -3.815  28.335  1.00  0.00     0.013 C 
BRANCH   9  10
HETATM   10  N   UNL     1      24.922  -2.917  29.056  1.00  0.00    -0.354 N 
HETATM   11  C   UNL     1      23.941  -2.088  29.653  1.00  0.00     0.157 C 
ATOM     12  HN  UNL     1      25.910  -2.744  29.244  1.00  0.00     0.169 HD
ENDBRANCH   9  10
ENDBRANCH   1   8
BRANCH   1  13
HETATM   13  O   UNL     1      24.029  -6.636  26.578  1.00  0.00    -0.345 OA
HETATM   14  C   UNL     1      25.342  -7.118  26.324  1.00  0.00     0.211 C 
ENDBRANCH   1  13
BRANCH   7  15
HETATM   15  C   UNL     1      22.321  -0.763  23.929  1.00  0.00     0.002 C 
BRANCH  15  16
HETATM   16  C   UNL     1      21.507   0.045  24.852  1.00  0.00    -0.012 C 
HETATM   17  C   UNL     1      22.340   0.926  25.089  1.00  0.00     0.011 C 
ENDBRANCH  15  16
ENDBRANCH   7  15
TORSDOF 5
ENDMDL
MODEL 8
REMARK VINA RESULT:    -4.721      2.795      4.173
REMARK INTER + INTRA:          -6.390
REMARK INTER:                  -6.045
REMARK INTRA:                  -0.345
REMARK UNBOUND:                -0.290
REMARK  5 active torsions:
REMARK  status: ('A' for Active; 'I' for Inactive)
REMARK    1  A    between atoms: N_2  and  C_4 
REMARK    2  A    between atoms: C_5  and  C_6 
REMARK    3  A    between atoms: C_6  and  O_8 
REMARK    4  A    between atoms: C_14  and  C_17 
REMARK    5  A    between atoms: C_16  and  C_17 
ROOT
HETATM    1  C   UNL     1       8.710  -0.303  21.168  1.00  0.00     0.158 C 
HETATM    2  C   UNL     1       9.411  -1.245  21.945  1.00  0.00     0.150 A 
HETATM    3  C   UNL     1       8.906  -2.298  23.176  1.00  0.00     0.214 A 
HETATM    4  O   UNL     1      10.330  -1.722  22.343  1.00  0.00    -0.307 OA
HETATM    5  N   UNL     1       8.326  -2.564  23.745  1.00  0.00    -0.371 N 
ATOM      6  HN  UNL     1       7.521  -1.972  23.949  1.00  0.00     0.157 HD
HETATM    7  C   UNL     1       8.429  -3.568  24.284  1.00  0.00     0.166 A 
ENDROOT
BRANCH   1   8
HETATM    8  C   UNL     1       7.464  -0.406  20.785  1.00  0.00    -0.016 C 
HETATM    9  C   UNL     1       6.386  -0.369  20.269  1.00  0.00     0.013 C 
BRANCH   9  10
HETATM   10  N   UNL     1       5.277  -0.126  19.901  1.00  0.00    -0.354 N 
HETATM   11  C   UNL     1       4.994   1.059  19.177  1.00  0.00     0.157 C 
ATOM     12  HN  UNL     1       4.523  -0.780  20.110  1.00  0.00     0.169 HD
ENDBRANCH   9  10
ENDBRANCH   1   8
BRANCH   1  13
HETATM   13  O   UNL     1       9.304   0.875  20.992  1.00  0.00    -0.345 OA
HETATM   14  C   UNL     1       8.966   1.604  22.165  1.00  0.00     0.211 C 
ENDBRANCH   1  13
BRANCH   7  15
HETATM   15  C   UNL     1       8.087  -4.825  24.229  1.00  0.00     0.002 C 
BRANCH  15  16
HETATM   16  C   UNL     1       8.618  -5.282  25.523  1.00  0.00    -0.012 C 
HETATM   17  C   UNL     1       7.580  -5.167  26.184  1.00  0.00     0.011 C 
ENDBRANCH  15  16
ENDBRANCH   7  15
TORSDOF 5
ENDMDL
MODEL 9
REMARK VINA RESULT:    -4.586      2.523      3.864
REMARK INTER + INTRA:          -6.217
REMARK INTER:                  -6.066
REMARK INTRA:                  -0.151
REMARK UNBOUND:                -0.290
REMARK  5 active torsions:
REMARK  status: ('A' for Active; 'I' for Inactive)
REMARK    1  A    between atoms: N_2  and  C_4 
REMARK    2  A    between atoms: C_5  and  C_6 
REMARK    3  A    between atoms: C_6  and  O_8 
REMARK    4  A    between atoms: C_14  and  C_17 
REMARK    5  A    between atoms: C_16  and  C_17 
ROOT
HETATM    1  C   UNL     1       7.393  -0.389  21.320  1.00  0.00     0.158 C 
HETATM    2  C   UNL     1       8.283   0.698  21.408  1.00  0.00     0.150 A 
HETATM    3  C   UNL     1       9.302   1.226  22.658  1.00  0.00     0.214 A 
HETATM    4  O   UNL     1       8.718   1.659  21.069  1.00  0.00    -0.307 OA
HETATM    5  N   UNL     1       9.562   1.210  23.473  1.00  0.00    -0.371 N 
ATOM      6  HN  UNL     1       8.985   0.738  24.170  1.00  0.00     0.157 HD
HETATM    7  C   UNL     1      10.541   1.702  23.801  1.00  0.00     0.166 A 
ENDROOT
BRANCH   1   8
HETATM    8  C   UNL     1       7.546  -1.551  21.900  1.00  0.00    -0.016 C 
HETATM    9  C   UNL     1       7.846  -2.644  22.282  1.00  0.00     0.013 C 
BRANCH   9  10
HETATM   10  N   UNL     1       7.975  -3.812  22.490  1.00  0.00    -0.354 N 
HETATM   11  C   UNL     1       6.975  -4.736  22.097  1.00  0.00     0.157 C 
ATOM     12  HN  UNL     1       8.817  -4.150  22.958  1.00  0.00     0.169 HD
ENDBRANCH   9  10
ENDBRANCH   1   8
BRANCH   1  13
HETATM   13  O   UNL     1       6.206  -0.136  20.773  1.00  0.00    -0.345 OA
HETATM   14  C   UNL     1       6.422  -0.332  19.382  1.00  0.00     0.211 C 
ENDBRANCH   1  13
BRANCH   7  15
HETATM   15  C   UNL     1      11.808   1.476  24.007  1.00  0.00     0.002 C 
BRANCH  15  16
HETATM   16  C   UNL     1      11.714   0.216  24.760  1.00  0.00    -0.012 C 
HETATM   17  C   UNL     1      12.778  -0.287  24.385  1.00  0.00     0.011 C 
ENDBRANCH  15  16
ENDBRANCH   7  15
TORSDOF 5
ENDMDL
