stable:False satoms:17 tatoms:24 sratio:0.7083333333333334
  -OEChem-07092417403D

 24 25  0     1  0  0  0  0  0999 V2000
    7.0795   -4.7674   26.1915 H   0  0  0  0  0  0  0  0  0  0  0  0
    8.1057   -4.3703   26.0029 C   0  0  0  0  0  0  0  0  0  0  0  0
    8.8306   -5.1805   26.1931 H   0  0  0  0  0  0  0  0  0  0  0  0
    8.2954   -3.5335   26.7112 H   0  0  0  0  0  0  0  0  0  0  0  0
    8.2317   -3.9486   24.6560 N   0  3  0  0  0  0  0  0  0  0  0  0
    8.9613   -3.0521   24.3603 C   0  0  0  0  0  0  0  0  0  0  0  0
    9.5522   -2.1464   23.8489 C   0  0  0  0  0  0  0  0  0  0  0  0
   10.3342   -1.3287   23.1933 C   0  0  3  0  0  0  0  0  0  0  0  0
   11.4851    0.3743   24.0506 H   0  0  0  0  0  0  0  0  0  0  0  0
   12.8458   -0.5207   24.5011 H   0  0  0  0  0  0  0  0  0  0  0  0
   12.7719    0.0523   22.8569 H   0  0  0  0  0  0  0  0  0  0  0  0
   12.2235   -0.3714   23.6540 C   0  0  0  0  0  0  0  0  0  0  0  0
   11.6388   -1.5904   23.2138 O   0  0  0  0  0  0  0  0  0  0  0  0
    9.9119   -0.3336   22.2911 C   0  0  3  0  0  0  0  0  0  0  0  0
    8.5974   -0.2613   21.2209 C   0  0  1  0  0  0  0  0  0  0  0  0
   10.0406    0.5966   21.7027 O   0  0  0  0  0  0  0  0  0  0  0  0
    7.9493   -0.6289   20.8006 N   0  3  0  0  0  0  0  0  0  0  0  0
    7.1499   -0.0094   20.2669 C   0  0  1  0  0  0  0  0  0  0  0  0
    6.6603    0.3081   18.4984 C   0  5  0  0  0  0  0  0  0  0  0  0
    7.0831    0.1486   17.5424 H   0  0  0  0  0  0  0  0  0  0  0  0
    5.6356    0.7793   19.0039 C   0  0  0  0  0  0  0  0  0  0  0  0
    4.7518    1.2565   18.7234 H   0  0  0  0  0  0  0  0  0  0  0  0
    5.9729    0.5314   20.4151 C   0  5  3  0  0  0  0  0  0  0  0  0
    5.4756    0.7058   21.3976 H   0  0  0  0  0  0  0  0  0  0  0  0
 19 20  1  0  0  0  0
 19 21  2  0  0  0  0
 21 22  1  0  0  0  0
 21 23  1  0  0  0  0
 18 23  1  0  0  0  0
 17 18  1  0  0  0  0
 15 18  1  0  0  0  0
 23 24  1  0  0  0  0
 15 17  1  0  0  0  0
 15 16  1  0  0  0  0
 14 15  1  0  0  0  0
 14 16  1  0  0  0  0
  8 14  1  0  0  0  0
 11 12  1  0  0  0  0
  8 13  1  0  0  0  0
  7  8  1  0  0  0  0
 12 13  1  0  0  0  0
  9 12  1  0  0  0  0
 10 12  1  0  0  0  0
  6  7  3  0  0  0  0
  5  6  1  0  0  0  0
  2  5  1  0  0  0  0
  1  2  1  0  0  0  0
  2  3  1  0  0  0  0
  2  4  1  0  0  0  0
M  CHG  4   5   1  17   1  19  -1  23  -1
M  END
> <Shapegauss>
-186.248199

$$$$
