stable:False satoms:18 tatoms:24 sratio:0.75
  -OEChem-07092417283D

 24 24  0     1  0  0  0  0  0999 V2000
    7.2427   -2.0542   23.2583 O   0  5  0  0  0  0  0  0  0  0  0  0
   10.7479   -4.0682   22.3279 O   0  0  0  0  0  0  0  0  0  0  0  0
    8.8655   -0.1064   22.9922 O   0  0  0  0  0  0  0  0  0  0  0  0
    7.4480   -3.4889   20.7015 C   0  0  0  0  0  0  0  0  0  0  0  0
    6.7814   -1.5097   22.2288 C   0  0  0  0  0  0  0  0  0  0  0  0
   10.3887   -1.7950   23.3663 N   0  0  0  0  0  0  0  0  0  0  0  0
    6.6956   -2.3398   20.9716 C   0  0  3  0  0  0  0  0  0  0  0  0
   10.6665    1.3757   24.2952 C   0  0  0  0  0  0  0  0  0  0  0  0
    9.3411    1.8751   24.0991 C   0  0  0  0  0  0  0  0  0  0  0  0
    5.7220   -1.9571   20.1243 O   0  0  0  0  0  0  0  0  0  0  0  0
    8.5228   -4.0569   21.3426 C   0  0  0  0  0  0  0  0  0  0  0  0
    6.8029   -4.4444   19.3711 Cl  0  0  0  0  0  0  0  0  0  0  0  0
    8.6626   -5.1436   21.1975 H   0  0  0  0  0  0  0  0  0  0  0  0
   12.4442    1.8150   25.0740 H   0  0  0  0  0  0  0  0  0  0  0  0
    7.4111    1.3099   23.2976 H   0  0  0  0  0  0  0  0  0  0  0  0
   11.4770    1.8796   25.1997 N   0  5  0  0  0  0  0  0  0  0  0  0
    9.6480   -3.5750   22.2223 C   0  0  0  0  0  0  0  0  0  0  0  0
    6.3592   -0.3617   22.1699 O   0  0  0  0  0  0  0  0  0  0  0  0
   11.0761    0.3409   23.5295 N   0  0  0  0  0  0  0  0  0  0  0  0
    8.4562    1.0955   23.4661 C   0  3  0  0  0  0  0  0  0  0  0  0
    9.0890    2.8403   24.4890 H   0  0  0  0  0  0  0  0  0  0  0  0
    9.4620   -2.5472   22.9764 N   0  0  0  0  0  0  0  0  0  0  0  0
    6.1585   -1.8679   19.2679 H   0  0  0  0  0  0  0  0  0  0  0  0
   10.1153   -0.5060   23.3278 C   0  0  3  0  0  0  0  0  0  0  0  0
 10 23  1  0  0  0  0
  4 12  1  0  0  0  0
  7 10  1  0  0  0  0
  4  7  1  0  0  0  0
  4 11  2  0  0  0  0
  5  7  1  0  0  0  0
 11 13  1  0  0  0  0
 11 17  1  0  0  0  0
  5 18  2  0  0  0  0
  2 17  2  0  0  0  0
 17 22  1  0  0  0  0
  1  5  1  0  0  0  0
  6 22  2  3  0  0  0
  3 24  1  0  0  0  0
  3 20  1  0  0  0  0
 15 20  1  0  0  0  0
  6 24  1  0  0  0  0
 19 24  1  0  0  0  0
  9 20  1  0  0  0  0
  8 19  1  0  0  0  0
  8  9  2  0  0  0  0
  9 21  1  0  0  0  0
  8 16  1  0  0  0  0
 14 16  1  0  0  0  0
M  CHG  3   1  -1  16  -1  20   1
M  END
> <Shapegauss>
-129.986862

$$$$
