MODEL 1
REMARK VINA RESULT:    -6.819      0.000      0.000
REMARK INTER + INTRA:          -9.408
REMARK INTER:                  -8.613
REMARK INTRA:                  -0.795
REMARK UNBOUND:                -0.795
REMARK  5 active torsions:
REMARK  status: ('A' for Active; 'I' for Inactive)
REMARK    1  A    between atoms: C_4  and  C_12 
REMARK    2  A    between atoms: C_5  and  C_8 
REMARK    3  A    between atoms: N_6  and  C_25 
REMARK    4  A    between atoms: C_8  and  O_11 
REMARK    5  A    between atoms: C_12  and  C_17 
REMARK       I    between atoms: C_17  and  N_22 
ROOT
HETATM    1  O   UNL     1       8.161  18.477   0.966  1.00  0.00    -0.267 OA
HETATM    2  N   UNL     1      10.348  19.484   1.727  1.00  0.00    -0.262 N 
ATOM      3  HN  UNL     1       9.999  20.033   0.942  1.00  0.00     0.190 HD
HETATM    4  C   UNL     1       8.822  17.841   1.756  1.00  0.00     0.261 C 
HETATM    5  N   UNL     1      10.022  18.285   1.908  1.00  0.00    -0.263 N 
ATOM      6  HN  UNL     1      10.748  17.626   2.191  1.00  0.00     0.190 HD
ENDROOT
BRANCH   2   7
HETATM    7  C   UNL     1      11.173  19.980   2.628  1.00  0.00     0.244 C 
HETATM    8  O   UNL     1      10.828  21.111   3.288  1.00  0.00    -0.290 OA
HETATM    9  C   UNL     1      11.365  21.294   4.518  1.00  0.00     0.149 C 
HETATM   10  C   UNL     1      12.308  20.444   4.943  1.00  0.00     0.073 C 
HETATM   11  C   UNL     1      12.661  19.346   4.099  1.00  0.00     0.103 C 
HETATM   12  N   UNL     1      12.329  19.416   2.791  1.00  0.00    -0.307 N 
HETATM   13  N   UNL     1      13.276  18.278   4.560  1.00  0.00    -0.385 N 
ATOM     14  HN  UNL     1      12.912  19.070   2.030  1.00  0.00     0.171 HD
HETATM   15  H   UNL     1      13.834  17.744   3.961  1.00  0.00     0.157 HD
ATOM     16  HN  UNL     1      13.171  18.009   5.538  1.00  0.00     0.157 HD
ENDBRANCH   2   7
BRANCH   4  17
HETATM   17  C   UNL     1       8.387  16.616   2.518  1.00  0.00     0.102 C 
BRANCH  17  18
HETATM   18  C   UNL     1       8.718  15.282   2.530  1.00  0.00     0.079 C 
HETATM   19 CL   UNL     1       7.950  14.327   1.267  1.00  0.00    -0.081 Cl
HETATM   20  C   UNL     1       9.637  14.552   3.293  1.00  0.00     0.165 C 
BRANCH  20  21
HETATM   21  C   UNL     1      10.684  15.140   4.207  1.00  0.00     0.235 C 
HETATM   22  O   UNL     1      11.001  16.339   4.037  1.00  0.00    -0.642 OA
HETATM   23  O   UNL     1      11.182  14.392   5.039  1.00  0.00    -0.642 OA
ENDBRANCH  20  21
BRANCH  20  24
HETATM   24  O   UNL     1       9.712  13.214   3.158  1.00  0.00    -0.353 OA
HETATM   25  H   UNL     1       9.069  12.865   3.787  1.00  0.00     0.218 HD
ENDBRANCH  20  24
ENDBRANCH  17  18
ENDBRANCH   4  17
TORSDOF 5
ENDMDL
MODEL 2
REMARK VINA RESULT:    -6.354     25.658     27.894
REMARK INTER + INTRA:          -8.821
REMARK INTER:                  -8.027
REMARK INTRA:                  -0.794
REMARK UNBOUND:                -0.795
REMARK  5 active torsions:
REMARK  status: ('A' for Active; 'I' for Inactive)
REMARK    1  A    between atoms: C_4  and  C_12 
REMARK    2  A    between atoms: C_5  and  C_8 
REMARK    3  A    between atoms: N_6  and  C_25 
REMARK    4  A    between atoms: C_8  and  O_11 
REMARK    5  A    between atoms: C_12  and  C_17 
REMARK       I    between atoms: C_17  and  N_22 
ROOT
HETATM    1  O   UNL     1       6.442  -0.101  20.145  1.00  0.00    -0.267 OA
HETATM    2  N   UNL     1       5.860  -2.145  21.507  1.00  0.00    -0.262 N 
ATOM      3  HN  UNL     1       5.004  -1.789  21.083  1.00  0.00     0.190 HD
HETATM    4  C   UNL     1       7.295  -0.540  20.882  1.00  0.00     0.261 C 
HETATM    5  N   UNL     1       6.860  -1.416  21.721  1.00  0.00    -0.263 N 
ATOM      6  HN  UNL     1       7.355  -1.523  22.606  1.00  0.00     0.190 HD
ENDROOT
BRANCH   2   7
HETATM    7  C   UNL     1       6.000  -3.405  21.871  1.00  0.00     0.244 C 
HETATM    8  O   UNL     1       5.576  -4.384  21.038  1.00  0.00    -0.290 OA
HETATM    9  C   UNL     1       6.185  -5.589  21.145  1.00  0.00     0.149 C 
HETATM   10  C   UNL     1       7.047  -5.790  22.149  1.00  0.00     0.073 C 
HETATM   11  C   UNL     1       7.327  -4.699  23.030  1.00  0.00     0.103 C 
HETATM   12  N   UNL     1       6.461  -3.663  23.055  1.00  0.00    -0.307 N 
HETATM   13  N   UNL     1       8.400  -4.672  23.791  1.00  0.00    -0.385 N 
ATOM     14  HN  UNL     1       6.202  -3.150  23.898  1.00  0.00     0.171 HD
HETATM   15  H   UNL     1       8.391  -4.160  24.623  1.00  0.00     0.157 HD
ATOM     16  HN  UNL     1       9.238  -5.185  23.514  1.00  0.00     0.157 HD
ENDBRANCH   2   7
BRANCH   4  17
HETATM   17  C   UNL     1       8.750  -0.147  20.916  1.00  0.00     0.102 C 
BRANCH  17  18
HETATM   18  C   UNL     1       9.595   0.461  21.814  1.00  0.00     0.079 C 
HETATM   19 CL   UNL     1       9.224   2.151  22.138  1.00  0.00    -0.081 Cl
HETATM   20  C   UNL     1      10.636  -0.038  22.605  1.00  0.00     0.165 C 
BRANCH  20  21
HETATM   21  C   UNL     1      10.964  -1.496  22.809  1.00  0.00     0.235 C 
HETATM   22  O   UNL     1      12.110  -1.888  22.490  1.00  0.00    -0.642 OA
HETATM   23  O   UNL     1      10.072  -2.214  23.244  1.00  0.00    -0.642 OA
ENDBRANCH  20  21
BRANCH  20  24
HETATM   24  O   UNL     1      11.373   0.803  23.357  1.00  0.00    -0.353 OA
HETATM   25  H   UNL     1      12.058   0.248  23.751  1.00  0.00     0.218 HD
ENDBRANCH  20  24
ENDBRANCH  17  18
ENDBRANCH   4  17
TORSDOF 5
ENDMDL
MODEL 3
REMARK VINA RESULT:    -6.282      3.993      6.927
REMARK INTER + INTRA:          -8.730
REMARK INTER:                  -8.147
REMARK INTRA:                  -0.584
REMARK UNBOUND:                -0.795
REMARK  5 active torsions:
REMARK  status: ('A' for Active; 'I' for Inactive)
REMARK    1  A    between atoms: C_4  and  C_12 
REMARK    2  A    between atoms: C_5  and  C_8 
REMARK    3  A    between atoms: N_6  and  C_25 
REMARK    4  A    between atoms: C_8  and  O_11 
REMARK    5  A    between atoms: C_12  and  C_17 
REMARK       I    between atoms: C_17  and  N_22 
ROOT
HETATM    1  O   UNL     1      10.609  15.202   3.025  1.00  0.00    -0.267 OA
HETATM    2  N   UNL     1       9.321  13.044   3.264  1.00  0.00    -0.262 N 
ATOM      3  HN  UNL     1      10.279  12.879   3.570  1.00  0.00     0.190 HD
HETATM    4  C   UNL     1       9.510  15.151   2.521  1.00  0.00     0.261 C 
HETATM    5  N   UNL     1       9.018  13.962   2.462  1.00  0.00    -0.263 N 
ATOM      6  HN  UNL     1       8.345  13.755   1.724  1.00  0.00     0.190 HD
ENDROOT
BRANCH   2   7
HETATM    7  C   UNL     1       8.308  12.310   3.680  1.00  0.00     0.244 C 
HETATM    8  O   UNL     1       7.617  12.699   4.777  1.00  0.00    -0.290 OA
HETATM    9  C   UNL     1       6.328  12.292   4.869  1.00  0.00     0.149 C 
HETATM   10  C   UNL     1       5.861  11.419   3.968  1.00  0.00     0.073 C 
HETATM   11  C   UNL     1       6.733  11.001   2.915  1.00  0.00     0.103 C 
HETATM   12  N   UNL     1       8.061  11.190   3.075  1.00  0.00    -0.307 N 
HETATM   13  N   UNL     1       6.279  10.462   1.804  1.00  0.00    -0.385 N 
ATOM     14  HN  UNL     1       8.777  10.536   2.760  1.00  0.00     0.171 HD
HETATM   15  H   UNL     1       6.849   9.854   1.292  1.00  0.00     0.157 HD
ATOM     16  HN  UNL     1       5.336  10.676   1.477  1.00  0.00     0.157 HD
ENDBRANCH   2   7
BRANCH   4  17
HETATM   17  C   UNL     1       8.720  16.305   1.960  1.00  0.00     0.102 C 
BRANCH  17  18
HETATM   18  C   UNL     1       8.969  17.617   1.634  1.00  0.00     0.079 C 
HETATM   19 CL   UNL     1       8.184  18.164   0.156  1.00  0.00    -0.081 Cl
HETATM   20  C   UNL     1       9.644  18.638   2.312  1.00  0.00     0.165 C 
BRANCH  20  21
HETATM   21  C   UNL     1      10.120  18.579   3.742  1.00  0.00     0.235 C 
HETATM   22  O   UNL     1      11.327  18.314   3.945  1.00  0.00    -0.642 OA
HETATM   23  O   UNL     1       9.284  18.760   4.618  1.00  0.00    -0.642 OA
ENDBRANCH  20  21
BRANCH  20  24
HETATM   24  O   UNL     1       9.815  19.838   1.724  1.00  0.00    -0.353 OA
HETATM   25  H   UNL     1       9.551  20.482   2.393  1.00  0.00     0.218 HD
ENDBRANCH  20  24
ENDBRANCH  17  18
ENDBRANCH   4  17
TORSDOF 5
ENDMDL
MODEL 4
REMARK VINA RESULT:    -6.183      2.822      5.828
REMARK INTER + INTRA:          -8.604
REMARK INTER:                  -7.444
REMARK INTRA:                  -1.160
REMARK UNBOUND:                -0.795
REMARK  5 active torsions:
REMARK  status: ('A' for Active; 'I' for Inactive)
REMARK    1  A    between atoms: C_4  and  C_12 
REMARK    2  A    between atoms: C_5  and  C_8 
REMARK    3  A    between atoms: N_6  and  C_25 
REMARK    4  A    between atoms: C_8  and  O_11 
REMARK    5  A    between atoms: C_12  and  C_17 
REMARK       I    between atoms: C_17  and  N_22 
ROOT
HETATM    1  O   UNL     1      11.396  18.897   5.095  1.00  0.00    -0.267 OA
HETATM    2  N   UNL     1      10.957  16.534   4.324  1.00  0.00    -0.262 N 
ATOM      3  HN  UNL     1      11.621  16.499   5.097  1.00  0.00     0.190 HD
HETATM    4  C   UNL     1      10.790  18.753   4.058  1.00  0.00     0.261 C 
HETATM    5  N   UNL     1      10.818  17.550   3.599  1.00  0.00    -0.263 N 
ATOM      6  HN  UNL     1      10.721  17.414   2.593  1.00  0.00     0.190 HD
ENDROOT
BRANCH   2   7
HETATM    7  C   UNL     1      10.180  15.515   4.012  1.00  0.00     0.244 C 
HETATM    8  O   UNL     1       9.281  15.067   4.921  1.00  0.00    -0.290 OA
HETATM    9  C   UNL     1       8.180  14.442   4.440  1.00  0.00     0.149 C 
HETATM   10  C   UNL     1       8.112  14.169   3.131  1.00  0.00     0.073 C 
HETATM   11  C   UNL     1       9.184  14.604   2.292  1.00  0.00     0.103 C 
HETATM   12  N   UNL     1      10.361  14.919   2.875  1.00  0.00    -0.307 N 
HETATM   13  N   UNL     1       9.049  14.720   0.988  1.00  0.00    -0.385 N 
ATOM     14  HN  UNL     1      11.276  14.714   2.473  1.00  0.00     0.171 HD
HETATM   15  H   UNL     1       9.833  14.637   0.411  1.00  0.00     0.157 HD
ATOM     16  HN  UNL     1       8.130  14.897   0.582  1.00  0.00     0.157 HD
ENDBRANCH   2   7
BRANCH   4  17
HETATM   17  C   UNL     1      10.063  19.821   3.281  1.00  0.00     0.102 C 
BRANCH  17  18
HETATM   18  C   UNL     1      10.113  20.332   2.006  1.00  0.00     0.079 C 
HETATM   19 CL   UNL     1      11.099  21.780   1.838  1.00  0.00    -0.081 Cl
HETATM   20  C   UNL     1       9.613  19.859   0.787  1.00  0.00     0.165 C 
BRANCH  20  21
HETATM   21  C   UNL     1       9.030  18.488   0.549  1.00  0.00     0.235 C 
HETATM   22  O   UNL     1       9.748  17.495   0.809  1.00  0.00    -0.642 OA
HETATM   23  O   UNL     1       7.899  18.435   0.083  1.00  0.00    -0.642 OA
ENDBRANCH  20  21
BRANCH  20  24
HETATM   24  O   UNL     1       9.735  20.607  -0.326  1.00  0.00    -0.353 OA
HETATM   25  H   UNL     1       9.799  21.516  -0.009  1.00  0.00     0.218 HD
ENDBRANCH  20  24
ENDBRANCH  17  18
ENDBRANCH   4  17
TORSDOF 5
ENDMDL
MODEL 5
REMARK VINA RESULT:    -6.063     31.539     33.613
REMARK INTER + INTRA:          -8.453
REMARK INTER:                  -7.250
REMARK INTRA:                  -1.202
REMARK UNBOUND:                -0.795
REMARK  5 active torsions:
REMARK  status: ('A' for Active; 'I' for Inactive)
REMARK    1  A    between atoms: C_4  and  C_12 
REMARK    2  A    between atoms: C_5  and  C_8 
REMARK    3  A    between atoms: N_6  and  C_25 
REMARK    4  A    between atoms: C_8  and  O_11 
REMARK    5  A    between atoms: C_12  and  C_17 
REMARK       I    between atoms: C_17  and  N_22 
ROOT
HETATM    1  O   UNL     1      25.513  -3.877  28.415  1.00  0.00    -0.267 OA
HETATM    2  N   UNL     1      23.911  -1.930  28.296  1.00  0.00    -0.262 N 
ATOM      3  HN  UNL     1      24.639  -1.703  28.973  1.00  0.00     0.190 HD
HETATM    4  C   UNL     1      24.475  -4.045  27.816  1.00  0.00     0.261 C 
HETATM    5  N   UNL     1      23.607  -3.112  28.003  1.00  0.00    -0.263 N 
ATOM      6  HN  UNL     1      22.619  -3.347  27.908  1.00  0.00     0.190 HD
ENDROOT
BRANCH   2   7
HETATM    7  C   UNL     1      23.218  -1.003  27.664  1.00  0.00     0.244 C 
HETATM    8  O   UNL     1      23.861   0.086  27.180  1.00  0.00    -0.290 OA
HETATM    9  C   UNL     1      23.296   0.714  26.120  1.00  0.00     0.149 C 
HETATM   10  C   UNL     1      22.082   0.326  25.713  1.00  0.00     0.073 C 
HETATM   11  C   UNL     1      21.461  -0.774  26.383  1.00  0.00     0.103 C 
HETATM   12  N   UNL     1      21.929  -1.123  27.602  1.00  0.00    -0.307 N 
HETATM   13  N   UNL     1      20.474  -1.456  25.843  1.00  0.00    -0.385 N 
ATOM     14  HN  UNL     1      21.343  -1.439  28.374  1.00  0.00     0.171 HD
HETATM   15  H   UNL     1      19.831  -1.915  26.418  1.00  0.00     0.157 HD
ATOM     16  HN  UNL     1      20.380  -1.505  24.828  1.00  0.00     0.157 HD
ENDBRANCH   2   7
BRANCH   4  17
HETATM   17  C   UNL     1      24.122  -5.214  26.932  1.00  0.00     0.102 C 
BRANCH  17  18
HETATM   18  C   UNL     1      24.183  -5.500  25.589  1.00  0.00     0.079 C 
HETATM   19 CL   UNL     1      24.333  -7.213  25.212  1.00  0.00    -0.081 Cl
HETATM   20  C   UNL     1      24.040  -4.695  24.453  1.00  0.00     0.165 C 
BRANCH  20  21
HETATM   21  C   UNL     1      23.562  -3.264  24.444  1.00  0.00     0.235 C 
HETATM   22  O   UNL     1      24.364  -2.378  24.818  1.00  0.00    -0.642 OA
HETATM   23  O   UNL     1      22.404  -3.064  24.102  1.00  0.00    -0.642 OA
ENDBRANCH  20  21
BRANCH  20  24
HETATM   24  O   UNL     1      24.225  -5.221  23.227  1.00  0.00    -0.353 OA
HETATM   25  H   UNL     1      23.368  -5.141  22.790  1.00  0.00     0.218 HD
ENDBRANCH  20  24
ENDBRANCH  17  18
ENDBRANCH   4  17
TORSDOF 5
ENDMDL
MODEL 6
REMARK VINA RESULT:    -6.051      4.141      7.458
REMARK INTER + INTRA:          -8.438
REMARK INTER:                  -7.937
REMARK INTRA:                  -0.502
REMARK UNBOUND:                -0.795
REMARK  5 active torsions:
REMARK  status: ('A' for Active; 'I' for Inactive)
REMARK    1  A    between atoms: C_4  and  C_12 
REMARK    2  A    between atoms: C_5  and  C_8 
REMARK    3  A    between atoms: N_6  and  C_25 
REMARK    4  A    between atoms: C_8  and  O_11 
REMARK    5  A    between atoms: C_12  and  C_17 
REMARK       I    between atoms: C_17  and  N_22 
ROOT
HETATM    1  O   UNL     1      10.487  14.176   4.591  1.00  0.00    -0.267 OA
HETATM    2  N   UNL     1       8.987  12.309   3.793  1.00  0.00    -0.262 N 
ATOM      3  HN  UNL     1       9.583  11.944   4.535  1.00  0.00     0.190 HD
HETATM    4  C   UNL     1       9.853  14.366   3.579  1.00  0.00     0.261 C 
HETATM    5  N   UNL     1       9.310  13.302   3.096  1.00  0.00    -0.263 N 
ATOM      6  HN  UNL     1       9.132  13.264   2.092  1.00  0.00     0.190 HD
ENDROOT
BRANCH   2   7
HETATM    7  C   UNL     1       7.819  11.774   3.495  1.00  0.00     0.244 C 
HETATM    8  O   UNL     1       6.738  12.086   4.248  1.00  0.00    -0.290 OA
HETATM    9  C   UNL     1       5.526  11.994   3.651  1.00  0.00     0.149 C 
HETATM   10  C   UNL     1       5.449  11.465   2.424  1.00  0.00     0.073 C 
HETATM   11  C   UNL     1       6.662  11.073   1.777  1.00  0.00     0.103 C 
HETATM   12  N   UNL     1       7.762  10.897   2.542  1.00  0.00    -0.307 N 
HETATM   13  N   UNL     1       6.737  10.901   0.475  1.00  0.00    -0.385 N 
ATOM     14  HN  UNL     1       8.458  10.167   2.389  1.00  0.00     0.171 HD
HETATM   15  H   UNL     1       7.406  10.291   0.105  1.00  0.00     0.157 HD
ATOM     16  HN  UNL     1       6.100  11.401  -0.146  1.00  0.00     0.157 HD
ENDBRANCH   2   7
BRANCH   4  17
HETATM   17  C   UNL     1       9.676  15.676   2.856  1.00  0.00     0.102 C 
BRANCH  17  18
HETATM   18  C   UNL     1       9.285  16.952   3.189  1.00  0.00     0.079 C 
HETATM   19 CL   UNL     1       9.437  17.340   4.899  1.00  0.00    -0.081 Cl
HETATM   20  C   UNL     1       8.886  18.043   2.408  1.00  0.00     0.165 C 
BRANCH  20  21
HETATM   21  C   UNL     1       8.987  18.131   0.905  1.00  0.00     0.235 C 
HETATM   22  O   UNL     1       7.923  18.111   0.246  1.00  0.00    -0.642 OA
HETATM   23  O   UNL     1      10.112  18.182   0.423  1.00  0.00    -0.642 OA
ENDBRANCH  20  21
BRANCH  20  24
HETATM   24  O   UNL     1       8.472  19.179   3.000  1.00  0.00    -0.353 OA
HETATM   25  H   UNL     1       8.538  19.004   3.946  1.00  0.00     0.218 HD
ENDBRANCH  20  24
ENDBRANCH  17  18
ENDBRANCH   4  17
TORSDOF 5
ENDMDL
MODEL 7
REMARK VINA RESULT:    -5.975     27.082     29.159
REMARK INTER + INTRA:          -8.342
REMARK INTER:                  -7.797
REMARK INTRA:                  -0.544
REMARK UNBOUND:                -0.795
REMARK  5 active torsions:
REMARK  status: ('A' for Active; 'I' for Inactive)
REMARK    1  A    between atoms: C_4  and  C_12 
REMARK    2  A    between atoms: C_5  and  C_8 
REMARK    3  A    between atoms: N_6  and  C_25 
REMARK    4  A    between atoms: C_8  and  O_11 
REMARK    5  A    between atoms: C_12  and  C_17 
REMARK       I    between atoms: C_17  and  N_22 
ROOT
HETATM    1  O   UNL     1       4.507  -4.155  22.786  1.00  0.00    -0.267 OA
HETATM    2  N   UNL     1       5.609  -2.640  21.093  1.00  0.00    -0.262 N 
ATOM      3  HN  UNL     1       4.920  -3.213  20.608  1.00  0.00     0.190 HD
HETATM    4  C   UNL     1       5.492  -3.547  23.140  1.00  0.00     0.261 C 
HETATM    5  N   UNL     1       6.142  -2.996  22.173  1.00  0.00    -0.263 N 
ATOM      6  HN  UNL     1       7.142  -2.841  22.292  1.00  0.00     0.190 HD
ENDROOT
BRANCH   2   7
HETATM    7  C   UNL     1       6.009  -1.471  20.634  1.00  0.00     0.244 C 
HETATM    8  O   UNL     1       7.125  -0.904  21.150  1.00  0.00    -0.290 OA
HETATM    9  C   UNL     1       7.804  -0.045  20.353  1.00  0.00     0.149 C 
HETATM   10  C   UNL     1       7.265   0.310  19.180  1.00  0.00     0.073 C 
HETATM   11  C   UNL     1       6.021  -0.282  18.798  1.00  0.00     0.103 C 
HETATM   12  N   UNL     1       5.269  -0.859  19.762  1.00  0.00    -0.307 N 
HETATM   13  N   UNL     1       5.605  -0.295  17.550  1.00  0.00    -0.385 N 
ATOM     14  HN  UNL     1       4.251  -0.819  19.798  1.00  0.00     0.171 HD
HETATM   15  H   UNL     1       4.648  -0.337  17.359  1.00  0.00     0.157 HD
ATOM     16  HN  UNL     1       6.279  -0.260  16.785  1.00  0.00     0.157 HD
ENDBRANCH   2   7
BRANCH   4  17
HETATM   17  C   UNL     1       6.010  -3.410  24.548  1.00  0.00     0.102 C 
BRANCH  17  18
HETATM   18  C   UNL     1       6.562  -4.244  25.492  1.00  0.00     0.079 C 
HETATM   19 CL   UNL     1       7.962  -3.580  26.326  1.00  0.00    -0.081 Cl
HETATM   20  C   UNL     1       6.156  -5.485  25.995  1.00  0.00     0.165 C 
BRANCH  20  21
HETATM   21  C   UNL     1       4.826  -6.147  25.735  1.00  0.00     0.235 C 
HETATM   22  O   UNL     1       3.848  -5.784  26.428  1.00  0.00    -0.642 OA
HETATM   23  O   UNL     1       4.796  -7.026  24.883  1.00  0.00    -0.642 OA
ENDBRANCH  20  21
BRANCH  20  24
HETATM   24  O   UNL     1       6.934  -6.141  26.878  1.00  0.00    -0.353 OA
HETATM   25  H   UNL     1       6.671  -7.066  26.802  1.00  0.00     0.218 HD
ENDBRANCH  20  24
ENDBRANCH  17  18
ENDBRANCH   4  17
TORSDOF 5
ENDMDL
MODEL 8
REMARK VINA RESULT:    -5.913      2.979      5.683
REMARK INTER + INTRA:          -8.264
REMARK INTER:                  -7.733
REMARK INTRA:                  -0.531
REMARK UNBOUND:                -0.795
REMARK  5 active torsions:
REMARK  status: ('A' for Active; 'I' for Inactive)
REMARK    1  A    between atoms: C_4  and  C_12 
REMARK    2  A    between atoms: C_5  and  C_8 
REMARK    3  A    between atoms: N_6  and  C_25 
REMARK    4  A    between atoms: C_8  and  O_11 
REMARK    5  A    between atoms: C_12  and  C_17 
REMARK       I    between atoms: C_17  and  N_22 
ROOT
HETATM    1  O   UNL     1       9.771  18.573   0.025  1.00  0.00    -0.267 OA
HETATM    2  N   UNL     1       9.000  16.284   0.759  1.00  0.00    -0.262 N 
ATOM      3  HN  UNL     1       9.051  16.292  -0.259  1.00  0.00     0.190 HD
HETATM    4  C   UNL     1       9.458  18.437   1.186  1.00  0.00     0.261 C 
HETATM    5  N   UNL     1       8.846  17.331   1.435  1.00  0.00    -0.263 N 
ATOM      6  HN  UNL     1       8.201  17.304   2.224  1.00  0.00     0.190 HD
ENDROOT
BRANCH   2   7
HETATM    7  C   UNL     1       9.092  15.174   1.464  1.00  0.00     0.244 C 
HETATM    8  O   UNL     1      10.105  15.036   2.351  1.00  0.00    -0.290 OA
HETATM    9  C   UNL     1       9.896  14.206   3.401  1.00  0.00     0.149 C 
HETATM   10  C   UNL     1       8.782  13.463   3.424  1.00  0.00     0.073 C 
HETATM   11  C   UNL     1       7.837  13.626   2.364  1.00  0.00     0.103 C 
HETATM   12  N   UNL     1       8.257  14.211   1.221  1.00  0.00    -0.307 N 
HETATM   13  N   UNL     1       6.584  13.241   2.478  1.00  0.00    -0.385 N 
ATOM     14  HN  UNL     1       7.956  13.933   0.287  1.00  0.00     0.171 HD
HETATM   15  H   UNL     1       6.076  13.001   1.678  1.00  0.00     0.157 HD
ATOM     16  HN  UNL     1       6.145  13.193   3.398  1.00  0.00     0.157 HD
ENDBRANCH   2   7
BRANCH   4  17
HETATM   17  C   UNL     1       9.692  19.418   2.305  1.00  0.00     0.102 C 
BRANCH  17  18
HETATM   18  C   UNL     1      10.768  20.098   2.825  1.00  0.00     0.079 C 
HETATM   19 CL   UNL     1      10.853  21.794   2.364  1.00  0.00    -0.081 Cl
HETATM   20  C   UNL     1      11.756  19.724   3.743  1.00  0.00     0.165 C 
BRANCH  20  21
HETATM   21  C   UNL     1      11.753  18.465   4.574  1.00  0.00     0.235 C 
HETATM   22  O   UNL     1      10.990  18.422   5.566  1.00  0.00    -0.642 OA
HETATM   23  O   UNL     1      12.526  17.575   4.242  1.00  0.00    -0.642 OA
ENDBRANCH  20  21
BRANCH  20  24
HETATM   24  O   UNL     1      12.763  20.571   4.030  1.00  0.00    -0.353 OA
HETATM   25  H   UNL     1      12.367  21.245   4.597  1.00  0.00     0.218 HD
ENDBRANCH  20  24
ENDBRANCH  17  18
ENDBRANCH   4  17
TORSDOF 5
ENDMDL
MODEL 9
REMARK VINA RESULT:    -5.838     25.807     28.255
REMARK INTER + INTRA:          -8.168
REMARK INTER:                  -7.102
REMARK INTRA:                  -1.066
REMARK UNBOUND:                -0.795
REMARK  5 active torsions:
REMARK  status: ('A' for Active; 'I' for Inactive)
REMARK    1  A    between atoms: C_4  and  C_12 
REMARK    2  A    between atoms: C_5  and  C_8 
REMARK    3  A    between atoms: N_6  and  C_25 
REMARK    4  A    between atoms: C_8  and  O_11 
REMARK    5  A    between atoms: C_12  and  C_17 
REMARK       I    between atoms: C_17  and  N_22 
ROOT
HETATM    1  O   UNL     1       8.434  -0.062  26.163  1.00  0.00    -0.267 OA
HETATM    2  N   UNL     1       8.169  -2.273  24.974  1.00  0.00    -0.262 N 
ATOM      3  HN  UNL     1       7.509  -2.247  25.750  1.00  0.00     0.190 HD
HETATM    4  C   UNL     1       9.272  -0.356  25.341  1.00  0.00     0.261 C 
HETATM    5  N   UNL     1       9.220  -1.585  24.959  1.00  0.00    -0.263 N 
ATOM      6  HN  UNL     1      10.079  -2.023  24.626  1.00  0.00     0.190 HD
ENDROOT
BRANCH   2   7
HETATM    7  C   UNL     1       7.984  -3.031  23.911  1.00  0.00     0.244 C 
HETATM    8  O   UNL     1       8.257  -4.355  23.989  1.00  0.00    -0.290 OA
HETATM    9  C   UNL     1       7.584  -5.173  23.144  1.00  0.00     0.149 C 
HETATM   10  C   UNL     1       6.816  -4.627  22.193  1.00  0.00     0.073 C 
HETATM   11  C   UNL     1       6.698  -3.203  22.152  1.00  0.00     0.103 C 
HETATM   12  N   UNL     1       7.629  -2.468  22.799  1.00  0.00    -0.307 N 
HETATM   13  N   UNL     1       5.711  -2.601  21.524  1.00  0.00    -0.385 N 
ATOM     14  HN  UNL     1       8.004  -1.584  22.456  1.00  0.00     0.171 HD
HETATM   15  H   UNL     1       5.837  -1.695  21.179  1.00  0.00     0.157 HD
ATOM     16  HN  UNL     1       4.818  -3.077  21.397  1.00  0.00     0.157 HD
ENDBRANCH   2   7
BRANCH   4  17
HETATM   17  C   UNL     1      10.337   0.547  24.774  1.00  0.00     0.102 C 
BRANCH  17  18
HETATM   18  C   UNL     1      10.494   1.313  23.642  1.00  0.00     0.079 C 
HETATM   19 CL   UNL     1      11.353   2.827  23.898  1.00  0.00    -0.081 Cl
HETATM   20  C   UNL     1      10.194   1.068  22.297  1.00  0.00     0.165 C 
BRANCH  20  21
HETATM   21  C   UNL     1       9.776  -0.261  21.718  1.00  0.00     0.235 C 
HETATM   22  O   UNL     1      10.421  -1.277  22.063  1.00  0.00    -0.642 OA
HETATM   23  O   UNL     1       8.849  -0.255  20.917  1.00  0.00    -0.642 OA
ENDBRANCH  20  21
BRANCH  20  24
HETATM   24  O   UNL     1      10.381   2.035  21.379  1.00  0.00    -0.353 OA
HETATM   25  H   UNL     1      10.743   2.780  21.873  1.00  0.00     0.218 HD
ENDBRANCH  20  24
ENDBRANCH  17  18
ENDBRANCH   4  17
TORSDOF 5
ENDMDL
