stable:False satoms:21 tatoms:24 sratio:0.875
  -OEChem-08052416053D

 25 25  0     1  0  0  0  0  0999 V2000
   -8.6507   -5.5540  -26.8613 C   0  0  0  0  0  0  0  0  0  0  0  0
   -7.6047   -4.7667  -24.0210 C   0  0  0  0  0  0  0  0  0  0  0  0
   -7.8716   -5.5877  -23.3443 H   0  0  0  0  0  0  0  0  0  0  0  0
   -9.7150   -3.2711  -26.3405 H   0  0  0  0  0  0  0  0  0  0  0  0
   -9.7476    0.2305  -25.2196 O   0  0  0  0  0  0  0  0  0  0  0  0
   -8.3292   -3.7645  -24.2794 C   0  0  0  0  0  0  0  0  0  0  0  0
  -11.2446    1.6456  -25.1260 H   0  0  0  0  0  0  0  0  0  0  0  0
   -8.7210   -3.2893  -25.7695 C   0  0  2  0  0  0  0  0  0  0  0  0
   -7.9115   -4.3505  -26.5689 C   0  0  3  0  0  0  0  0  0  0  0  0
  -13.3384   -0.5023  -24.1255 Cl  0  0  0  0  0  0  0  0  0  0  0  0
   -9.2257   -5.4278  -27.7863 H   0  0  0  0  0  0  0  0  0  0  0  0
   -8.5084   -1.7348  -25.5325 C   0  0  0  0  0  0  0  0  0  0  0  0
  -11.6541   -0.4078  -24.3533 C   0  0  0  0  0  0  0  0  0  0  0  0
  -10.9656    0.6388  -24.9233 C   0  0  0  0  0  0  0  0  0  0  0  0
   -7.9836   -6.4098  -27.0243 H   0  0  0  0  0  0  0  0  0  0  0  0
   -9.3621   -5.7865  -26.0696 H   0  0  0  0  0  0  0  0  0  0  0  0
  -10.8606   -2.2086  -23.3682 H   0  0  0  0  0  0  0  0  0  0  0  0
   -7.4898   -1.1942  -25.8315 O   0  0  0  0  0  0  0  0  0  0  0  0
   -6.6489   -4.0792  -26.9276 C   0  0  0  0  0  0  0  0  0  0  0  0
   -8.5678   -3.0561  -23.5201 H   0  0  0  0  0  0  0  0  0  0  0  0
   -5.5528   -3.8603  -27.2049 N   0  0  0  0  0  0  0  0  0  0  0  0
   -6.6016   -4.8490  -24.4309 H   0  0  0  0  0  0  0  0  0  0  0  0
   -9.6474   -1.1268  -24.9588 C   0  0  0  0  0  0  0  0  0  0  0  0
  -10.7512   -1.4242  -24.1038 C   0  0  0  0  0  0  0  0  0  0  0  0
   -7.5541   -4.7932  -25.6275 H   0  0  0  0  0  0  0  0  0  0  0  0
  2  3  1  0  0  0  0
  1 15  1  0  0  0  0
  1 16  1  0  0  0  0
  2 22  1  0  0  0  0
  2  6  2  0  0  0  0
  1 11  1  0  0  0  0
  1  9  1  0  0  0  0
  9 19  1  0  0  0  0
  8  9  1  0  0  0  0
  6 20  1  0  0  0  0
  6  8  1  0  0  0  0
 19 21  3  0  0  0  0
  4  8  1  0  0  0  0
  8 12  1  0  0  0  0
 17 24  1  0  0  0  0
 12 18  2  0  0  0  0
 12 23  1  0  0  0  0
 23 24  2  0  0  0  0
 13 24  1  0  0  0  0
  5 23  1  0  0  0  0
 10 13  1  0  0  0  0
 13 14  2  0  0  0  0
  5 14  1  0  0  0  0
  7 14  1  0  0  0  0
  9 25  1  0  0  0  0
M  END
> <Chemgauss4>
-6.739431

$$$$
