stable:False satoms:21 tatoms:24 sratio:0.875
  -OEChem-08052416053D

 25 25  0     1  0  0  0  0  0999 V2000
    8.3316   -5.0876   26.9422 C   0  0  0  0  0  0  0  0  0  0  0  0
    7.3340   -4.3836   24.0630 C   0  0  0  0  0  0  0  0  0  0  0  0
    7.5056   -5.2705   23.4406 H   0  0  0  0  0  0  0  0  0  0  0  0
    9.6186   -2.9666   26.2637 H   0  0  0  0  0  0  0  0  0  0  0  0
    9.9968    0.4318   24.9121 O   0  0  0  0  0  0  0  0  0  0  0  0
    8.1614   -3.4473   24.2493 C   0  0  0  0  0  0  0  0  0  0  0  0
   11.6304    1.6747   24.7146 H   0  0  0  0  0  0  0  0  0  0  0  0
    8.6203   -2.9188   25.7018 C   0  0  2  0  0  0  0  0  0  0  0  0
    7.7166   -3.8356   26.5754 C   0  0  3  0  0  0  0  0  0  0  0  0
   13.4778   -0.7398   23.8451 Cl  0  0  0  0  0  0  0  0  0  0  0  0
    8.9291   -4.9615   27.8530 H   0  0  0  0  0  0  0  0  0  0  0  0
    8.5660   -1.3695   25.3634 C   0  0  0  0  0  0  0  0  0  0  0  0
   11.8155   -0.4563   24.0774 C   0  0  0  0  0  0  0  0  0  0  0  0
   11.2463    0.6912   24.5811 C   0  0  0  0  0  0  0  0  0  0  0  0
    7.5821   -5.8571   27.1664 H   0  0  0  0  0  0  0  0  0  0  0  0
    9.0045   -5.4440   26.1630 H   0  0  0  0  0  0  0  0  0  0  0  0
   10.8272   -2.2256   23.2197 H   0  0  0  0  0  0  0  0  0  0  0  0
    7.6127   -0.7077   25.6325 O   0  0  0  0  0  0  0  0  0  0  0  0
    6.4937   -3.4118   26.9237 C   0  0  0  0  0  0  0  0  0  0  0  0
    8.4614   -2.8187   23.4429 H   0  0  0  0  0  0  0  0  0  0  0  0
    5.4298   -3.0627   27.1933 N   0  0  0  0  0  0  0  0  0  0  0  0
    6.3334   -4.3343   24.4841 H   0  0  0  0  0  0  0  0  0  0  0  0
    9.7537   -0.9219   24.7429 C   0  0  0  0  0  0  0  0  0  0  0  0
   10.8092   -1.3876   23.9022 C   0  0  0  0  0  0  0  0  0  0  0  0
    7.3027   -4.2995   25.6680 H   0  0  0  0  0  0  0  0  0  0  0  0
  2  3  1  0  0  0  0
  1 15  1  0  0  0  0
  1 16  1  0  0  0  0
  2 22  1  0  0  0  0
  2  6  2  0  0  0  0
  1 11  1  0  0  0  0
  1  9  1  0  0  0  0
  9 19  1  0  0  0  0
  8  9  1  0  0  0  0
  6 20  1  0  0  0  0
  6  8  1  0  0  0  0
 19 21  3  0  0  0  0
  4  8  1  0  0  0  0
  8 12  1  0  0  0  0
 17 24  1  0  0  0  0
 12 18  2  0  0  0  0
 12 23  1  0  0  0  0
 23 24  2  0  0  0  0
 13 24  1  0  0  0  0
  5 23  1  0  0  0  0
 10 13  1  0  0  0  0
 13 14  2  0  0  0  0
  5 14  1  0  0  0  0
  7 14  1  0  0  0  0
  9 25  1  0  0  0  0
M  END
> <Chemgauss4>
-6.894830

$$$$
