
 OpenBabel07202414153D

 36 38  0  0  0  0  0  0  0  0999 V2000
    0.9802    0.2095    0.3853 C   0  0  0  0  0  0  0  0  0  0  0  0
    2.3392    0.0969   -0.0164 O   0  0  0  0  0  0  0  0  0  0  0  0
    2.8749    1.2024   -0.6209 C   0  0  0  0  0  0  0  0  0  0  0  0
    2.4822    2.5176   -0.3781 C   0  0  0  0  0  0  0  0  0  0  0  0
    3.1336    3.5885   -1.0088 C   0  0  0  0  0  0  0  0  0  0  0  0
    4.2003    3.3246   -1.8903 C   0  0  0  0  0  0  0  0  0  0  0  0
    4.5633    2.0069   -2.1362 C   0  0  0  0  0  0  0  0  0  0  0  0
    3.9269    0.9277   -1.4997 C   0  0  0  0  0  0  0  0  0  0  0  0
    5.6136    2.0620   -3.0389 N   0  0  0  0  0  0  0  0  0  0  0  0
    5.9910    3.3455   -3.3093 N   0  0  0  0  0  0  0  0  0  0  0  0
    5.1050    4.0936   -2.6611 C   0  0  0  0  0  0  0  0  0  0  0  0
    5.0800    5.4324   -2.7255 N   0  0  0  0  0  0  0  0  0  0  0  0
    6.2389    0.9744   -3.6779 C   0  0  0  0  0  0  0  0  0  0  0  0
    5.6675   -0.1120   -3.7386 O   0  0  0  0  0  0  0  0  0  0  0  0
    7.6542    1.2084   -4.1453 C   0  0  0  0  0  0  0  0  0  0  0  0
    8.6380    0.7096   -3.1096 C   0  0  0  0  0  0  0  0  0  0  0  0
    9.0238   -0.6407   -3.0824 C   0  0  0  0  0  0  0  0  0  0  0  0
    9.8593   -1.1206   -2.0710 C   0  0  0  0  0  0  0  0  0  0  0  0
   10.3087   -0.2595   -1.0711 C   0  0  0  0  0  0  0  0  0  0  0  0
    9.9290    1.0814   -1.0924 C   0  0  0  0  0  0  0  0  0  0  0  0
    9.1010    1.5697   -2.1039 C   0  0  0  0  0  0  0  0  0  0  0  0
   10.4692    2.1390    0.1531 Cl  0  0  0  0  0  0  0  0  0  0  0  0
    0.6539   -0.7761    0.7308 H   0  0  0  0  0  0  0  0  0  0  0  0
    0.3453    0.4981   -0.4591 H   0  0  0  0  0  0  0  0  0  0  0  0
    0.8659    0.9049    1.2221 H   0  0  0  0  0  0  0  0  0  0  0  0
    1.6890    2.7494    0.3252 H   0  0  0  0  0  0  0  0  0  0  0  0
    2.8329    4.6094   -0.7930 H   0  0  0  0  0  0  0  0  0  0  0  0
    4.2411   -0.0982   -1.6731 H   0  0  0  0  0  0  0  0  0  0  0  0
    5.6209    5.8835   -3.4546 H   0  0  0  0  0  0  0  0  0  0  0  0
    4.2578    5.9521   -2.4435 H   0  0  0  0  0  0  0  0  0  0  0  0
    7.8613    2.2478   -4.4146 H   0  0  0  0  0  0  0  0  0  0  0  0
    7.7889    0.6426   -5.0771 H   0  0  0  0  0  0  0  0  0  0  0  0
    8.6575   -1.3344   -3.8382 H   0  0  0  0  0  0  0  0  0  0  0  0
   10.1442   -2.1704   -2.0535 H   0  0  0  0  0  0  0  0  0  0  0  0
   10.9435   -0.6408   -0.2757 H   0  0  0  0  0  0  0  0  0  0  0  0
    8.8034    2.6168   -2.0975 H   0  0  0  0  0  0  0  0  0  0  0  0
  1  2  1  0  0  0  0
  1 23  1  0  0  0  0
  1 24  1  0  0  0  0
  1 25  1  0  0  0  0
  2  3  1  0  0  0  0
  3  4  1  0  0  0  0
  3  8  2  0  0  0  0
  4  5  2  0  0  0  0
  4 26  1  0  0  0  0
  5  6  1  0  0  0  0
  5 27  1  0  0  0  0
  6  7  2  0  0  0  0
  6 11  1  0  0  0  0
  7  8  1  0  0  0  0
  7  9  1  0  0  0  0
  8 28  1  0  0  0  0
  9 10  1  0  0  0  0
  9 13  1  0  0  0  0
 10 11  2  0  0  0  0
 11 12  1  0  0  0  0
 12 29  1  0  0  0  0
 12 30  1  0  0  0  0
 13 14  2  0  0  0  0
 13 15  1  0  0  0  0
 15 16  1  0  0  0  0
 15 31  1  0  0  0  0
 15 32  1  0  0  0  0
 16 17  1  0  0  0  0
 16 21  2  0  0  0  0
 17 18  2  0  0  0  0
 17 33  1  0  0  0  0
 18 19  1  0  0  0  0
 18 34  1  0  0  0  0
 19 20  2  0  0  0  0
 19 35  1  0  0  0  0
 20 21  1  0  0  0  0
 20 22  1  0  0  0  0
 21 36  1  0  0  0  0
M  END
$$$$
