MODEL 1
REMARK VINA RESULT:    -6.667      0.000      0.000
REMARK INTER + INTRA:         -11.210
REMARK INTER:                 -10.175
REMARK INTRA:                  -1.035
REMARK UNBOUND:                -1.035
REMARK  9 active torsions:
REMARK  status: ('A' for Active; 'I' for Inactive)
REMARK    1  A    between atoms: S_2  and  N_5 
REMARK    2  A    between atoms: N_5  and  C_7 
REMARK    3  A    between atoms: C_7  and  C_8 
REMARK    4  A    between atoms: C_9  and  C_10 
REMARK    5  A    between atoms: C_10  and  C_11 
REMARK    6  A    between atoms: C_11  and  C_12 
REMARK    7  A    between atoms: C_12  and  C_13 
REMARK    8  A    between atoms: C_15  and  C_16 
REMARK       I    between atoms: C_16  and  N_18 
REMARK    9  A    between atoms: N_18  and  C_20 
ROOT
HETATM    1  C   UNL     1       8.913  -2.475  23.330  1.00  0.00     0.030 A 
HETATM    2  C   UNL     1       9.573  -1.367  23.406  1.00  0.00     0.091 A 
HETATM    3  C   UNL     1       9.101  -0.977  22.402  1.00  0.00     0.039 A 
ENDROOT
BRANCH   3   4
HETATM    4  C   UNL     1       8.555  -0.366  21.298  1.00  0.00     0.254 C 
HETATM    5  O   UNL     1       9.234   0.344  20.701  1.00  0.00    -0.268 OA
HETATM    6  N   UNL     1       7.304  -0.720  21.148  1.00  0.00    -0.320 N 
ATOM      7  HN  UNL     1       6.868  -1.365  21.806  1.00  0.00     0.169 HD
BRANCH   6   8
HETATM    8  C   UNL     1       6.638  -0.248  20.170  1.00  0.00     0.072 A 
HETATM    9  C   UNL     1       6.340  -0.631  18.940  1.00  0.00     0.119 A 
HETATM   10  N   UNL     1       5.808  -0.517  17.849  1.00  0.00    -0.373 N 
HETATM   11  C   UNL     1       5.314   0.639  18.060  1.00  0.00     0.089 A 
ATOM     12  HN  UNL     1       5.771  -1.137  17.040  1.00  0.00     0.164 HD
HETATM   13  C   UNL     1       5.364   1.333  19.090  1.00  0.00     0.043 A 
HETATM   14  C   UNL     1       5.922   1.109  20.269  1.00  0.00     0.063 A 
HETATM   15 CL   UNL     1       5.933   2.021  21.561  1.00  0.00    -0.082 Cl
ENDBRANCH   6   8
ENDBRANCH   3   4
BRANCH   1  16
HETATM   16  C   UNL     1       8.545  -3.563  23.696  1.00  0.00    -0.023 C 
BRANCH  16  17
HETATM   17  N   UNL     1       7.913  -4.471  23.996  1.00  0.00    -0.249 N 
ATOM     18  HN  UNL     1       8.280  -5.031  24.765  1.00  0.00     0.188 HD
BRANCH  17  19
HETATM   19  S   UNL     1       6.485  -4.990  23.345  1.00  0.00     0.233 S 
HETATM   20  C   UNL     1       7.053  -6.088  21.968  1.00  0.00     0.186 C 
HETATM   21  O   UNL     1       5.732  -5.817  24.255  1.00  0.00    -0.205 OA
HETATM   22  O   UNL     1       5.728  -3.933  22.736  1.00  0.00    -0.205 OA
ENDBRANCH  17  19
ENDBRANCH  16  17
ENDBRANCH   1  16
BRANCH   2  23
HETATM   23  C   UNL     1       9.697  -0.344  24.631  1.00  0.00    -0.012 C 
BRANCH  23  24
HETATM   24  C   UNL     1      10.486   0.267  24.949  1.00  0.00    -0.003 C 
BRANCH  24  25
HETATM   25  C   UNL     1      11.578   0.681  24.165  1.00  0.00    -0.001 C 
BRANCH  25  26
HETATM   26  C   UNL     1      12.769  -0.006  24.466  1.00  0.00    -0.010 C 
HETATM   27  C   UNL     1      13.237  -0.774  24.006  1.00  0.00     0.011 C 
ENDBRANCH  25  26
ENDBRANCH  24  25
ENDBRANCH  23  24
ENDBRANCH   2  23
TORSDOF 9
ENDMDL
MODEL 2
REMARK VINA RESULT:    -6.468      1.622      1.964
REMARK INTER + INTRA:         -10.906
REMARK INTER:                  -9.645
REMARK INTRA:                  -1.261
REMARK UNBOUND:                -1.035
REMARK  9 active torsions:
REMARK  status: ('A' for Active; 'I' for Inactive)
REMARK    1  A    between atoms: S_2  and  N_5 
REMARK    2  A    between atoms: N_5  and  C_7 
REMARK    3  A    between atoms: C_7  and  C_8 
REMARK    4  A    between atoms: C_9  and  C_10 
REMARK    5  A    between atoms: C_10  and  C_11 
REMARK    6  A    between atoms: C_11  and  C_12 
REMARK    7  A    between atoms: C_12  and  C_13 
REMARK    8  A    between atoms: C_15  and  C_16 
REMARK       I    between atoms: C_16  and  N_18 
REMARK    9  A    between atoms: N_18  and  C_20 
ROOT
HETATM    1  C   UNL     1       9.112  -2.575  23.319  1.00  0.00     0.030 A 
HETATM    2  C   UNL     1      10.097  -1.822  22.958  1.00  0.00     0.091 A 
HETATM    3  C   UNL     1       9.430  -1.272  22.160  1.00  0.00     0.039 A 
ENDROOT
BRANCH   3   4
HETATM    4  C   UNL     1       8.740  -0.492  21.264  1.00  0.00     0.254 C 
HETATM    5  O   UNL     1       9.318   0.365  20.760  1.00  0.00    -0.268 OA
HETATM    6  N   UNL     1       7.497  -0.888  21.169  1.00  0.00    -0.320 N 
ATOM      7  HN  UNL     1       7.164  -1.678  21.721  1.00  0.00     0.169 HD
BRANCH   6   8
HETATM    8  C   UNL     1       6.708  -0.275  20.379  1.00  0.00     0.072 A 
HETATM    9  C   UNL     1       6.191  -0.494  19.181  1.00  0.00     0.119 A 
HETATM   10  N   UNL     1       5.495  -0.228  18.217  1.00  0.00    -0.373 N 
HETATM   11  C   UNL     1       5.109   0.912  18.639  1.00  0.00     0.089 A 
ATOM     12  HN  UNL     1       5.290  -0.742  17.360  1.00  0.00     0.164 HD
HETATM   13  C   UNL     1       5.367   1.472  19.718  1.00  0.00     0.043 A 
HETATM   14  C   UNL     1       6.098   1.085  20.752  1.00  0.00     0.063 A 
HETATM   15 CL   UNL     1       6.372   1.831  22.119  1.00  0.00    -0.082 Cl
ENDBRANCH   6   8
ENDBRANCH   3   4
BRANCH   1  16
HETATM   16  C   UNL     1       8.560  -3.428  23.969  1.00  0.00    -0.023 C 
BRANCH  16  17
HETATM   17  N   UNL     1       8.250  -4.419  24.452  1.00  0.00    -0.249 N 
ATOM     18  HN  UNL     1       8.518  -5.262  23.944  1.00  0.00     0.188 HD
BRANCH  17  19
HETATM   19  S   UNL     1       7.425  -4.662  25.863  1.00  0.00     0.233 S 
HETATM   20  C   UNL     1       5.742  -5.141  25.262  1.00  0.00     0.186 C 
HETATM   21  O   UNL     1       7.934  -5.782  26.615  1.00  0.00    -0.205 OA
HETATM   22  O   UNL     1       7.255  -3.459  26.628  1.00  0.00    -0.205 OA
ENDBRANCH  17  19
ENDBRANCH  16  17
ENDBRANCH   1  16
BRANCH   2  23
HETATM   23  C   UNL     1      11.079  -0.935  23.862  1.00  0.00    -0.012 C 
BRANCH  23  24
HETATM   24  C   UNL     1      10.886  -0.175  24.555  1.00  0.00    -0.003 C 
BRANCH  24  25
HETATM   25  C   UNL     1      11.195   1.188  24.395  1.00  0.00    -0.001 C 
BRANCH  25  26
HETATM   26  C   UNL     1      10.071   1.981  24.099  1.00  0.00    -0.010 C 
HETATM   27  C   UNL     1       9.155   2.032  24.522  1.00  0.00     0.011 C 
ENDBRANCH  25  26
ENDBRANCH  24  25
ENDBRANCH  23  24
ENDBRANCH   2  23
TORSDOF 9
ENDMDL
MODEL 3
REMARK VINA RESULT:    -6.234     14.242     16.000
REMARK INTER + INTRA:         -10.550
REMARK INTER:                  -9.270
REMARK INTRA:                  -1.280
REMARK UNBOUND:                -1.035
REMARK  9 active torsions:
REMARK  status: ('A' for Active; 'I' for Inactive)
REMARK    1  A    between atoms: S_2  and  N_5 
REMARK    2  A    between atoms: N_5  and  C_7 
REMARK    3  A    between atoms: C_7  and  C_8 
REMARK    4  A    between atoms: C_9  and  C_10 
REMARK    5  A    between atoms: C_10  and  C_11 
REMARK    6  A    between atoms: C_11  and  C_12 
REMARK    7  A    between atoms: C_12  and  C_13 
REMARK    8  A    between atoms: C_15  and  C_16 
REMARK       I    between atoms: C_16  and  N_18 
REMARK    9  A    between atoms: N_18  and  C_20 
ROOT
HETATM    1  C   UNL     1      23.985  -3.043  23.683  1.00  0.00     0.030 A 
HETATM    2  C   UNL     1      24.126  -1.768  23.534  1.00  0.00     0.091 A 
HETATM    3  C   UNL     1      23.748  -1.821  22.421  1.00  0.00     0.039 A 
ENDROOT
BRANCH   3   4
HETATM    4  C   UNL     1      23.238  -1.731  21.148  1.00  0.00     0.254 C 
HETATM    5  O   UNL     1      22.107  -1.897  21.022  1.00  0.00    -0.268 OA
HETATM    6  N   UNL     1      24.191  -1.479  20.288  1.00  0.00    -0.320 N 
ATOM      7  HN  UNL     1      25.156  -1.378  20.601  1.00  0.00     0.169 HD
BRANCH   6   8
HETATM    8  C   UNL     1      23.897  -1.361  19.053  1.00  0.00     0.072 A 
HETATM    9  C   UNL     1      23.491  -0.390  18.254  1.00  0.00     0.119 A 
HETATM   10  N   UNL     1      23.159   0.090  17.183  1.00  0.00    -0.373 N 
HETATM   11  C   UNL     1      23.231  -0.997  16.520  1.00  0.00     0.089 A 
ATOM     12  HN  UNL     1      22.909   1.040  16.910  1.00  0.00     0.164 HD
HETATM   13  C   UNL     1      23.583  -2.124  16.907  1.00  0.00     0.043 A 
HETATM   14  C   UNL     1      23.987  -2.557  18.091  1.00  0.00     0.063 A 
HETATM   15 CL   UNL     1      24.450  -4.005  18.523  1.00  0.00    -0.082 Cl
ENDBRANCH   6   8
ENDBRANCH   3   4
BRANCH   1  16
HETATM   16  C   UNL     1      24.010  -4.091  24.280  1.00  0.00    -0.023 C 
BRANCH  16  17
HETATM   17  N   UNL     1      23.728  -5.026  24.878  1.00  0.00    -0.249 N 
ATOM     18  HN  UNL     1      22.752  -5.314  24.819  1.00  0.00     0.188 HD
BRANCH  17  19
HETATM   19  S   UNL     1      24.699  -5.970  25.827  1.00  0.00     0.233 S 
HETATM   20  C   UNL     1      24.914  -4.925  27.338  1.00  0.00     0.186 C 
HETATM   21  O   UNL     1      24.046  -7.185  26.248  1.00  0.00    -0.205 OA
HETATM   22  O   UNL     1      26.010  -6.160  25.275  1.00  0.00    -0.205 OA
ENDBRANCH  17  19
ENDBRANCH  16  17
ENDBRANCH   1  16
BRANCH   2  23
HETATM   23  C   UNL     1      23.589  -0.575  24.458  1.00  0.00    -0.012 C 
BRANCH  23  24
HETATM   24  C   UNL     1      22.877   0.172  24.282  1.00  0.00    -0.003 C 
BRANCH  24  25
HETATM   25  C   UNL     1      21.585   0.231  24.836  1.00  0.00    -0.001 C 
BRANCH  25  26
HETATM   26  C   UNL     1      20.769  -0.851  24.456  1.00  0.00    -0.010 C 
HETATM   27  C   UNL     1      20.477  -1.680  24.953  1.00  0.00     0.011 C 
ENDBRANCH  25  26
ENDBRANCH  24  25
ENDBRANCH  23  24
ENDBRANCH   2  23
TORSDOF 9
ENDMDL
MODEL 4
REMARK VINA RESULT:    -6.134      3.944      6.309
REMARK INTER + INTRA:         -10.396
REMARK INTER:                  -9.095
REMARK INTRA:                  -1.301
REMARK UNBOUND:                -1.035
REMARK  9 active torsions:
REMARK  status: ('A' for Active; 'I' for Inactive)
REMARK    1  A    between atoms: S_2  and  N_5 
REMARK    2  A    between atoms: N_5  and  C_7 
REMARK    3  A    between atoms: C_7  and  C_8 
REMARK    4  A    between atoms: C_9  and  C_10 
REMARK    5  A    between atoms: C_10  and  C_11 
REMARK    6  A    between atoms: C_11  and  C_12 
REMARK    7  A    between atoms: C_12  and  C_13 
REMARK    8  A    between atoms: C_15  and  C_16 
REMARK       I    between atoms: C_16  and  N_18 
REMARK    9  A    between atoms: N_18  and  C_20 
ROOT
HETATM    1  C   UNL     1       9.447   0.333  21.319  1.00  0.00     0.030 A 
HETATM    2  C   UNL     1      10.606   0.066  21.825  1.00  0.00     0.091 A 
HETATM    3  C   UNL     1      10.577   1.037  22.490  1.00  0.00     0.039 A 
ENDROOT
BRANCH   3   4
HETATM    4  C   UNL     1      10.628   2.080  23.383  1.00  0.00     0.254 C 
HETATM    5  O   UNL     1      10.391   1.843  24.483  1.00  0.00    -0.268 OA
HETATM    6  N   UNL     1      10.936   3.195  22.771  1.00  0.00    -0.320 N 
ATOM      7  HN  UNL     1      11.100   3.203  21.765  1.00  0.00     0.169 HD
BRANCH   6   8
HETATM    8  C   UNL     1      11.029   4.270  23.448  1.00  0.00     0.072 A 
HETATM    9  C   UNL     1      12.007   5.003  23.953  1.00  0.00     0.119 A 
HETATM   10  N   UNL     1      12.472   5.956  24.555  1.00  0.00    -0.373 N 
HETATM   11  C   UNL     1      11.351   6.470  24.880  1.00  0.00     0.089 A 
ATOM     12  HN  UNL     1      13.433   6.245  24.737  1.00  0.00     0.164 HD
HETATM   13  C   UNL     1      10.205   6.087  24.592  1.00  0.00     0.043 A 
HETATM   14  C   UNL     1       9.780   5.057  23.876  1.00  0.00     0.063 A 
HETATM   15 CL   UNL     1       8.300   4.629  23.518  1.00  0.00    -0.082 Cl
ENDBRANCH   6   8
ENDBRANCH   3   4
BRANCH   1  16
HETATM   16  C   UNL     1       8.478   0.142  20.627  1.00  0.00    -0.023 C 
BRANCH  16  17
HETATM   17  N   UNL     1       7.774  -0.061  19.747  1.00  0.00    -0.249 N 
ATOM     18  HN  UNL     1       8.139  -0.675  19.020  1.00  0.00     0.188 HD
BRANCH  17  19
HETATM   19  S   UNL     1       6.244   0.514  19.500  1.00  0.00     0.233 S 
HETATM   20  C   UNL     1       6.042   1.714  20.894  1.00  0.00     0.186 C 
HETATM   21  O   UNL     1       6.128   1.270  18.278  1.00  0.00    -0.205 OA
HETATM   22  O   UNL     1       5.232  -0.489  19.678  1.00  0.00    -0.205 OA
ENDBRANCH  17  19
ENDBRANCH  16  17
ENDBRANCH   1  16
BRANCH   2  23
HETATM   23  C   UNL     1      11.132  -1.291  22.491  1.00  0.00    -0.012 C 
BRANCH  23  24
HETATM   24  C   UNL     1      10.776  -1.850  23.301  1.00  0.00    -0.003 C 
BRANCH  24  25
HETATM   25  C   UNL     1       9.474  -2.367  23.441  1.00  0.00    -0.001 C 
BRANCH  25  26
HETATM   26  C   UNL     1       8.845  -1.969  24.636  1.00  0.00    -0.010 C 
HETATM   27  C   UNL     1       9.076  -1.254  25.311  1.00  0.00     0.011 C 
ENDBRANCH  25  26
ENDBRANCH  24  25
ENDBRANCH  23  24
ENDBRANCH   2  23
TORSDOF 9
ENDMDL
MODEL 5
REMARK VINA RESULT:    -6.132      3.455      6.480
REMARK INTER + INTRA:         -10.393
REMARK INTER:                  -9.236
REMARK INTRA:                  -1.158
REMARK UNBOUND:                -1.035
REMARK  9 active torsions:
REMARK  status: ('A' for Active; 'I' for Inactive)
REMARK    1  A    between atoms: S_2  and  N_5 
REMARK    2  A    between atoms: N_5  and  C_7 
REMARK    3  A    between atoms: C_7  and  C_8 
REMARK    4  A    between atoms: C_9  and  C_10 
REMARK    5  A    between atoms: C_10  and  C_11 
REMARK    6  A    between atoms: C_11  and  C_12 
REMARK    7  A    between atoms: C_12  and  C_13 
REMARK    8  A    between atoms: C_15  and  C_16 
REMARK       I    between atoms: C_16  and  N_18 
REMARK    9  A    between atoms: N_18  and  C_20 
ROOT
HETATM    1  C   UNL     1       7.015  -1.444  22.048  1.00  0.00     0.030 A 
HETATM    2  C   UNL     1       7.898  -1.050  22.903  1.00  0.00     0.091 A 
HETATM    3  C   UNL     1       7.712  -1.993  23.582  1.00  0.00     0.039 A 
ENDROOT
BRANCH   3   4
HETATM    4  C   UNL     1       7.660  -3.088  24.411  1.00  0.00     0.254 C 
HETATM    5  O   UNL     1       8.603  -3.742  24.478  1.00  0.00    -0.268 OA
HETATM    6  N   UNL     1       6.483  -3.183  24.974  1.00  0.00    -0.320 N 
ATOM      7  HN  UNL     1       5.757  -2.496  24.772  1.00  0.00     0.169 HD
BRANCH   6   8
HETATM    8  C   UNL     1       6.255  -4.144  25.779  1.00  0.00     0.072 A 
HETATM    9  C   UNL     1       6.388  -4.358  27.077  1.00  0.00     0.119 A 
HETATM   10  N   UNL     1       6.296  -5.014  28.101  1.00  0.00    -0.373 N 
HETATM   11  C   UNL     1       5.857  -6.074  27.543  1.00  0.00     0.089 A 
ATOM     12  HN  UNL     1       6.500  -4.791  29.075  1.00  0.00     0.164 HD
HETATM   13  C   UNL     1       5.592  -6.272  26.346  1.00  0.00     0.043 A 
HETATM   14  C   UNL     1       5.668  -5.477  25.289  1.00  0.00     0.063 A 
HETATM   15 CL   UNL     1       5.290  -5.776  23.783  1.00  0.00    -0.082 Cl
ENDBRANCH   6   8
ENDBRANCH   3   4
BRANCH   1  16
HETATM   16  C   UNL     1       6.362  -1.388  21.035  1.00  0.00    -0.023 C 
BRANCH  16  17
HETATM   17  N   UNL     1       5.714  -1.037  20.159  1.00  0.00    -0.249 N 
ATOM     18  HN  UNL     1       4.779  -1.440  20.110  1.00  0.00     0.188 HD
BRANCH  17  19
HETATM   19  S   UNL     1       6.096   0.040  18.963  1.00  0.00     0.233 S 
HETATM   20  C   UNL     1       5.102   1.527  19.436  1.00  0.00     0.186 C 
HETATM   21  O   UNL     1       7.481   0.435  18.998  1.00  0.00    -0.205 OA
HETATM   22  O   UNL     1       5.626  -0.369  17.669  1.00  0.00    -0.205 OA
ENDBRANCH  17  19
ENDBRANCH  16  17
ENDBRANCH   1  16
BRANCH   2  23
HETATM   23  C   UNL     1       9.410  -0.583  22.658  1.00  0.00    -0.012 C 
BRANCH  23  24
HETATM   24  C   UNL     1      10.234  -1.085  22.253  1.00  0.00    -0.003 C 
BRANCH  24  25
HETATM   25  C   UNL     1      11.342  -1.570  22.973  1.00  0.00    -0.001 C 
BRANCH  25  26
HETATM   26  C   UNL     1      12.021  -0.567  23.689  1.00  0.00    -0.010 C 
HETATM   27  C   UNL     1      12.946  -0.541  24.095  1.00  0.00     0.011 C 
ENDBRANCH  25  26
ENDBRANCH  24  25
ENDBRANCH  23  24
ENDBRANCH   2  23
TORSDOF 9
ENDMDL
MODEL 6
REMARK VINA RESULT:    -5.944      3.999      5.925
REMARK INTER + INTRA:         -10.106
REMARK INTER:                  -8.801
REMARK INTRA:                  -1.305
REMARK UNBOUND:                -1.035
REMARK  9 active torsions:
REMARK  status: ('A' for Active; 'I' for Inactive)
REMARK    1  A    between atoms: S_2  and  N_5 
REMARK    2  A    between atoms: N_5  and  C_7 
REMARK    3  A    between atoms: C_7  and  C_8 
REMARK    4  A    between atoms: C_9  and  C_10 
REMARK    5  A    between atoms: C_10  and  C_11 
REMARK    6  A    between atoms: C_11  and  C_12 
REMARK    7  A    between atoms: C_12  and  C_13 
REMARK    8  A    between atoms: C_15  and  C_16 
REMARK       I    between atoms: C_16  and  N_18 
REMARK    9  A    between atoms: N_18  and  C_20 
ROOT
HETATM    1  C   UNL     1       7.241  -5.071  23.481  1.00  0.00     0.030 A 
HETATM    2  C   UNL     1       8.239  -4.989  24.297  1.00  0.00     0.091 A 
HETATM    3  C   UNL     1       8.499  -3.904  23.923  1.00  0.00     0.039 A 
ENDROOT
BRANCH   3   4
HETATM    4  C   UNL     1       8.850  -2.604  23.646  1.00  0.00     0.254 C 
HETATM    5  O   UNL     1       8.526  -2.178  22.628  1.00  0.00    -0.268 OA
HETATM    6  N   UNL     1       9.531  -2.090  24.637  1.00  0.00    -0.320 N 
ATOM      7  HN  UNL     1       9.732  -2.645  25.468  1.00  0.00     0.169 HD
BRANCH   6   8
HETATM    8  C   UNL     1       9.940  -0.886  24.551  1.00  0.00     0.072 A 
HETATM    9  C   UNL     1       9.511   0.301  24.946  1.00  0.00     0.119 A 
HETATM   10  N   UNL     1       9.582   1.512  25.072  1.00  0.00    -0.373 N 
HETATM   11  C   UNL     1      10.664   1.654  24.412  1.00  0.00     0.089 A 
ATOM     12  HN  UNL     1       8.979   2.185  25.545  1.00  0.00     0.164 HD
HETATM   13  C   UNL     1      11.377   0.782  23.887  1.00  0.00     0.043 A 
HETATM   14  C   UNL     1      11.258  -0.536  23.843  1.00  0.00     0.063 A 
HETATM   15 CL   UNL     1      12.215  -1.605  23.179  1.00  0.00    -0.082 Cl
ENDBRANCH   6   8
ENDBRANCH   3   4
BRANCH   1  16
HETATM   16  C   UNL     1       6.283  -5.590  22.964  1.00  0.00    -0.023 C 
BRANCH  16  17
HETATM   17  N   UNL     1       5.219  -5.901  22.674  1.00  0.00    -0.249 N 
ATOM     18  HN  UNL     1       5.121  -6.351  21.764  1.00  0.00     0.188 HD
BRANCH  17  19
HETATM   19  S   UNL     1       3.822  -5.714  23.538  1.00  0.00     0.233 S 
HETATM   20  C   UNL     1       3.870  -7.162  24.688  1.00  0.00     0.186 C 
HETATM   21  O   UNL     1       3.834  -4.529  24.358  1.00  0.00    -0.205 OA
HETATM   22  O   UNL     1       2.641  -5.871  22.736  1.00  0.00    -0.205 OA
ENDBRANCH  17  19
ENDBRANCH  16  17
ENDBRANCH   1  16
BRANCH   2  23
HETATM   23  C   UNL     1       8.288  -5.277  25.871  1.00  0.00    -0.012 C 
BRANCH  23  24
HETATM   24  C   UNL     1       7.906  -4.744  26.687  1.00  0.00    -0.003 C 
BRANCH  24  25
HETATM   25  C   UNL     1       6.556  -4.687  27.080  1.00  0.00    -0.001 C 
BRANCH  25  26
HETATM   26  C   UNL     1       6.028  -5.943  27.433  1.00  0.00    -0.010 C 
HETATM   27  C   UNL     1       5.366  -6.218  28.145  1.00  0.00     0.011 C 
ENDBRANCH  25  26
ENDBRANCH  24  25
ENDBRANCH  23  24
ENDBRANCH   2  23
TORSDOF 9
ENDMDL
MODEL 7
REMARK VINA RESULT:    -5.756     19.406     23.210
REMARK INTER + INTRA:          -9.819
REMARK INTER:                  -8.829
REMARK INTRA:                  -0.990
REMARK UNBOUND:                -1.035
REMARK  9 active torsions:
REMARK  status: ('A' for Active; 'I' for Inactive)
REMARK    1  A    between atoms: S_2  and  N_5 
REMARK    2  A    between atoms: N_5  and  C_7 
REMARK    3  A    between atoms: C_7  and  C_8 
REMARK    4  A    between atoms: C_9  and  C_10 
REMARK    5  A    between atoms: C_10  and  C_11 
REMARK    6  A    between atoms: C_11  and  C_12 
REMARK    7  A    between atoms: C_12  and  C_13 
REMARK    8  A    between atoms: C_15  and  C_16 
REMARK       I    between atoms: C_16  and  N_18 
REMARK    9  A    between atoms: N_18  and  C_20 
ROOT
HETATM    1  C   UNL     1       7.168  11.404   2.964  1.00  0.00     0.030 A 
HETATM    2  C   UNL     1       6.027  11.068   2.461  1.00  0.00     0.091 A 
HETATM    3  C   UNL     1       5.908  10.186   3.230  1.00  0.00     0.039 A 
ENDROOT
BRANCH   3   4
HETATM    4  C   UNL     1       5.604   9.188   4.124  1.00  0.00     0.254 C 
HETATM    5  O   UNL     1       6.047   9.276   5.181  1.00  0.00    -0.268 OA
HETATM    6  N   UNL     1       4.846   8.281   3.563  1.00  0.00    -0.320 N 
ATOM      7  HN  UNL     1       4.564   8.377   2.587  1.00  0.00     0.169 HD
BRANCH   6   8
HETATM    8  C   UNL     1       4.464   7.278   4.249  1.00  0.00     0.072 A 
HETATM    9  C   UNL     1       4.924   6.066   4.511  1.00  0.00     0.119 A 
HETATM   10  N   UNL     1       4.897   4.968   5.040  1.00  0.00    -0.373 N 
HETATM   11  C   UNL     1       3.766   5.120   5.609  1.00  0.00     0.089 A 
ATOM     12  HN  UNL     1       5.555   4.189   5.030  1.00  0.00     0.164 HD
HETATM   13  C   UNL     1       3.022   6.116   5.612  1.00  0.00     0.043 A 
HETATM   14  C   UNL     1       3.153   7.308   5.050  1.00  0.00     0.063 A 
HETATM   15 CL   UNL     1       2.182   8.554   5.109  1.00  0.00    -0.082 Cl
ENDBRANCH   6   8
ENDBRANCH   3   4
BRANCH   1  16
HETATM   16  C   UNL     1       8.169  12.067   3.075  1.00  0.00    -0.023 C 
BRANCH  16  17
HETATM   17  N   UNL     1       9.031  12.705   3.480  1.00  0.00    -0.249 N 
ATOM     18  HN  UNL     1       9.627  12.256   4.174  1.00  0.00     0.188 HD
BRANCH  17  19
HETATM   19  S   UNL     1       9.433  14.258   3.083  1.00  0.00     0.233 S 
HETATM   20  C   UNL     1       8.513  15.242   4.352  1.00  0.00     0.186 C 
HETATM   21  O   UNL     1      10.835  14.533   3.278  1.00  0.00    -0.205 OA
HETATM   22  O   UNL     1       8.920  14.662   1.805  1.00  0.00    -0.205 OA
ENDBRANCH  17  19
ENDBRANCH  16  17
ENDBRANCH   1  16
BRANCH   2  23
HETATM   23  C   UNL     1       4.747  11.981   2.155  1.00  0.00    -0.012 C 
BRANCH  23  24
HETATM   24  C   UNL     1       3.850  12.117   2.679  1.00  0.00    -0.003 C 
BRANCH  24  25
HETATM   25  C   UNL     1       3.144  13.327   2.809  1.00  0.00    -0.001 C 
BRANCH  25  26
HETATM   26  C   UNL     1       2.132  13.485   1.844  1.00  0.00    -0.010 C 
HETATM   27  C   UNL     1       1.339  14.110   1.798  1.00  0.00     0.011 C 
ENDBRANCH  25  26
ENDBRANCH  24  25
ENDBRANCH  23  24
ENDBRANCH   2  23
TORSDOF 9
ENDMDL
MODEL 8
REMARK VINA RESULT:    -5.736     20.915     23.413
REMARK INTER + INTRA:          -9.789
REMARK INTER:                  -8.215
REMARK INTRA:                  -1.574
REMARK UNBOUND:                -1.035
REMARK  9 active torsions:
REMARK  status: ('A' for Active; 'I' for Inactive)
REMARK    1  A    between atoms: S_2  and  N_5 
REMARK    2  A    between atoms: N_5  and  C_7 
REMARK    3  A    between atoms: C_7  and  C_8 
REMARK    4  A    between atoms: C_9  and  C_10 
REMARK    5  A    between atoms: C_10  and  C_11 
REMARK    6  A    between atoms: C_11  and  C_12 
REMARK    7  A    between atoms: C_12  and  C_13 
REMARK    8  A    between atoms: C_15  and  C_16 
REMARK       I    between atoms: C_16  and  N_18 
REMARK    9  A    between atoms: N_18  and  C_20 
ROOT
HETATM    1  C   UNL     1       6.260  12.648   1.768  1.00  0.00     0.030 A 
HETATM    2  C   UNL     1       4.988  12.563   1.974  1.00  0.00     0.091 A 
HETATM    3  C   UNL     1       5.037  11.389   2.014  1.00  0.00     0.039 A 
ENDROOT
BRANCH   3   4
HETATM    4  C   UNL     1       4.972  10.025   2.176  1.00  0.00     0.254 C 
HETATM    5  O   UNL     1       5.590   9.380   1.453  1.00  0.00    -0.268 OA
HETATM    6  N   UNL     1       4.166   9.717   3.160  1.00  0.00    -0.320 N 
ATOM      7  HN  UNL     1       3.689  10.450   3.685  1.00  0.00     0.169 HD
BRANCH   6   8
HETATM    8  C   UNL     1       3.985   8.491   3.453  1.00  0.00     0.072 A 
HETATM    9  C   UNL     1       3.169   7.524   3.068  1.00  0.00     0.119 A 
HETATM   10  N   UNL     1       2.729   6.387   3.072  1.00  0.00    -0.373 N 
HETATM   11  C   UNL     1       3.489   5.950   3.997  1.00  0.00     0.089 A 
ATOM     12  HN  UNL     1       1.999   5.936   2.520  1.00  0.00     0.164 HD
HETATM   13  C   UNL     1       4.393   6.545   4.609  1.00  0.00     0.043 A 
HETATM   14  C   UNL     1       4.853   7.782   4.505  1.00  0.00     0.063 A 
HETATM   15 CL   UNL     1       6.029   8.483   5.296  1.00  0.00    -0.082 Cl
ENDBRANCH   6   8
ENDBRANCH   3   4
BRANCH   1  16
HETATM   16  C   UNL     1       7.311  13.213   1.595  1.00  0.00    -0.023 C 
BRANCH  16  17
HETATM   17  N   UNL     1       8.225  13.897   1.692  1.00  0.00    -0.249 N 
ATOM     18  HN  UNL     1       8.488  14.407   0.849  1.00  0.00     0.188 HD
BRANCH  17  19
HETATM   19  S   UNL     1       9.172  14.166   3.019  1.00  0.00     0.233 S 
HETATM   20  C   UNL     1       8.096  15.251   4.062  1.00  0.00     0.186 C 
HETATM   21  O   UNL     1       9.414  12.965   3.778  1.00  0.00    -0.205 OA
HETATM   22  O   UNL     1      10.351  14.930   2.722  1.00  0.00    -0.205 OA
ENDBRANCH  17  19
ENDBRANCH  16  17
ENDBRANCH   1  16
BRANCH   2  23
HETATM   23  C   UNL     1       4.084  13.319   3.058  1.00  0.00    -0.012 C 
BRANCH  23  24
HETATM   24  C   UNL     1       4.339  13.874   3.909  1.00  0.00    -0.003 C 
BRANCH  24  25
HETATM   25  C   UNL     1       4.132  13.482   5.244  1.00  0.00    -0.001 C 
BRANCH  25  26
HETATM   26  C   UNL     1       4.785  12.281   5.578  1.00  0.00    -0.010 C 
HETATM   27  C   UNL     1       5.118  11.920   6.461  1.00  0.00     0.011 C 
ENDBRANCH  25  26
ENDBRANCH  24  25
ENDBRANCH  23  24
ENDBRANCH   2  23
TORSDOF 9
ENDMDL
MODEL 9
REMARK VINA RESULT:    -5.689      2.898      3.432
REMARK INTER + INTRA:          -9.717
REMARK INTER:                  -8.275
REMARK INTRA:                  -1.442
REMARK UNBOUND:                -1.035
REMARK  9 active torsions:
REMARK  status: ('A' for Active; 'I' for Inactive)
REMARK    1  A    between atoms: S_2  and  N_5 
REMARK    2  A    between atoms: N_5  and  C_7 
REMARK    3  A    between atoms: C_7  and  C_8 
REMARK    4  A    between atoms: C_9  and  C_10 
REMARK    5  A    between atoms: C_10  and  C_11 
REMARK    6  A    between atoms: C_11  and  C_12 
REMARK    7  A    between atoms: C_12  and  C_13 
REMARK    8  A    between atoms: C_15  and  C_16 
REMARK       I    between atoms: C_16  and  N_18 
REMARK    9  A    between atoms: N_18  and  C_20 
ROOT
HETATM    1  C   UNL     1       7.341  -1.654  22.501  1.00  0.00     0.030 A 
HETATM    2  C   UNL     1       8.559  -1.326  22.776  1.00  0.00     0.091 A 
HETATM    3  C   UNL     1       8.394  -0.236  22.367  1.00  0.00     0.039 A 
ENDROOT
BRANCH   3   4
HETATM    4  C   UNL     1       8.309   1.089  22.011  1.00  0.00     0.254 C 
HETATM    5  O   UNL     1       8.800   1.399  21.018  1.00  0.00    -0.268 OA
HETATM    6  N   UNL     1       7.668   1.771  22.925  1.00  0.00    -0.320 N 
ATOM      7  HN  UNL     1       7.312   1.307  23.760  1.00  0.00     0.169 HD
BRANCH   6   8
HETATM    8  C   UNL     1       7.494   3.022  22.758  1.00  0.00     0.072 A 
HETATM    9  C   UNL     1       6.590   3.795  22.179  1.00  0.00     0.119 A 
HETATM   10  N   UNL     1       6.101   4.862  21.850  1.00  0.00    -0.373 N 
HETATM   11  C   UNL     1       7.037   5.590  22.319  1.00  0.00     0.089 A 
ATOM     12  HN  UNL     1       5.236   5.095  21.363  1.00  0.00     0.164 HD
HETATM   13  C   UNL     1       8.056   5.244  22.941  1.00  0.00     0.043 A 
HETATM   14  C   UNL     1       8.492   4.051  23.312  1.00  0.00     0.063 A 
HETATM   15 CL   UNL     1       9.791   3.669  24.129  1.00  0.00    -0.082 Cl
ENDBRANCH   6   8
ENDBRANCH   3   4
BRANCH   1  16
HETATM   16  C   UNL     1       6.380  -2.383  22.456  1.00  0.00    -0.023 C 
BRANCH  16  17
HETATM   17  N   UNL     1       5.622  -3.192  22.169  1.00  0.00    -0.249 N 
ATOM     18  HN  UNL     1       4.925  -2.920  21.476  1.00  0.00     0.188 HD
BRANCH  17  19
HETATM   19  S   UNL     1       5.509  -4.742  22.731  1.00  0.00     0.233 S 
HETATM   20  C   UNL     1       6.584  -5.673  21.548  1.00  0.00     0.186 C 
HETATM   21  O   UNL     1       6.095  -4.899  24.039  1.00  0.00    -0.205 OA
HETATM   22  O   UNL     1       4.190  -5.292  22.601  1.00  0.00    -0.205 OA
ENDBRANCH  17  19
ENDBRANCH  16  17
ENDBRANCH   1  16
BRANCH   2  23
HETATM   23  C   UNL     1       9.372  -1.506  24.144  1.00  0.00    -0.012 C 
BRANCH  23  24
HETATM   24  C   UNL     1       9.422  -0.913  25.005  1.00  0.00    -0.003 C 
BRANCH  24  25
HETATM   25  C   UNL     1      10.463  -0.028  25.341  1.00  0.00    -0.001 C 
BRANCH  25  26
HETATM   26  C   UNL     1      11.489   0.013  24.378  1.00  0.00    -0.010 C 
HETATM   27  C   UNL     1      12.083   0.766  24.061  1.00  0.00     0.011 C 
ENDBRANCH  25  26
ENDBRANCH  24  25
ENDBRANCH  23  24
ENDBRANCH   2  23
TORSDOF 9
ENDMDL
