stable:False satoms:9 tatoms:24 sratio:0.375
  -OEChem-07092417463D

 24 25  0     1  0  0  0  0  0999 V2000
    6.5124   -4.8575   26.3969 C   0  0  0  0  0  0  0  0  0  0  0  0
    8.2523   -4.2948   26.1161 S   0  0  0  0  0  0  0  0  0  0  0  0
    9.0740   -5.4786   26.0868 O   0  0  0  0  0  0  0  0  0  0  0  0
    8.5610   -3.3823   27.1801 O   0  0  0  0  0  0  0  0  0  0  0  0
    8.1519   -3.5572   24.6404 N   0  0  0  0  0  0  0  0  0  0  0  0
    8.9033   -2.8471   24.1459 C   0  0  0  0  0  0  0  0  0  0  0  0
    9.4189   -1.9438   23.5354 C   0  0  0  0  0  0  0  0  0  0  0  0
   10.3406   -1.0817   23.2617 C   0  0  2  0  0  0  0  0  0  0  0  0
   11.1014   -0.0672   24.2404 C   0  0  0  0  0  0  0  0  0  0  0  0
   12.0961    0.2565   24.2675 C   0  0  0  0  0  0  0  0  0  0  0  0
   13.1587   -0.2717   23.5115 C   0  0  0  0  0  0  0  0  0  0  0  0
   12.7641   -1.3126   22.6513 C   0  0  0  0  0  0  0  0  0  0  0  0
   11.8627   -1.7353   22.4762 C   0  0  0  0  0  0  0  0  0  0  0  0
    9.7072   -0.6320   22.3786 C   0  0  2  0  0  0  0  0  0  0  0  0
    9.0338    0.0432   21.3892 C   0  0  0  0  0  0  0  0  0  0  0  0
    9.5092    1.0149   20.9992 O   0  0  0  0  0  0  0  0  0  0  0  0
    7.9234   -0.5761   21.0827 N   0  0  0  0  0  0  0  0  0  0  0  0
    7.1694   -0.0888   20.1791 C   0  0  0  0  0  0  0  0  0  0  0  0
    7.2128    0.0440   18.8640 C   0  0  0  0  0  0  0  0  0  0  0  0
    6.7771    0.3769   17.7752 N   0  0  0  0  0  0  0  0  0  0  0  0
    5.7087    0.9164   18.2165 C   0  0  0  0  0  0  0  0  0  0  0  0
    5.2994    0.9901   19.3871 C   0  0  0  0  0  0  0  0  0  0  0  0
    5.8128    0.5472   20.5240 C   0  0  0  0  0  0  0  0  0  0  0  0
    5.2325    0.6473   21.9910 Cl  0  0  0  0  0  0  0  0  0  0  0  0
 20 21  2  0  0  0  0
 19 20  1  0  0  0  0
 21 22  1  0  0  0  0
 18 19  2  0  0  0  0
 22 23  2  0  0  0  0
 18 23  1  0  0  0  0
 17 18  1  0  0  0  0
 23 24  1  0  0  0  0
 15 16  2  0  0  0  0
 15 17  1  0  0  0  0
 14 15  1  0  0  0  0
  8 14  1  0  0  0  0
  7 14  1  0  0  0  0
 12 13  2  0  0  0  0
 11 12  1  0  0  0  0
  7  8  1  0  0  0  0
  8  9  1  0  0  0  0
 10 11  1  0  0  0  0
  6  7  2  0  0  0  0
  5  6  1  0  0  0  0
  9 10  2  0  0  0  0
  2  5  1  0  0  0  0
  2  3  2  0  0  0  0
  1  2  1  0  0  0  0
  2  4  2  0  0  0  0
M  END
> <Shapegauss>
-286.350555

$$$$
