
 OpenBabel07202414163D

 63 66  0  0  0  0  0  0  0  0999 V2000
  -12.7675    5.0707   -3.6303 C   0  0  0  0  0  0  0  0  0  0  0  0
  -12.4776    5.4729   -5.0549 C   0  0  0  0  0  0  0  0  0  0  0  0
  -13.5560    5.8100   -5.8991 C   0  0  0  0  0  0  0  0  0  0  0  0
  -13.3138    6.5621   -7.0420 C   0  0  0  0  0  0  0  0  0  0  0  0
  -12.0845    6.9167   -7.4463 N   0  0  0  0  0  0  0  0  0  0  0  0
  -11.0507    6.4543   -6.6999 C   0  0  0  0  0  0  0  0  0  0  0  0
  -11.1758    5.7134   -5.5189 C   0  0  0  0  0  0  0  0  0  0  0  0
  -10.0543    5.2117   -4.8102 N   0  0  0  0  0  0  0  0  0  0  0  0
   -8.8314    4.9538   -5.4149 C   0  0  0  0  0  0  0  0  0  0  0  0
   -8.5415    5.2304   -6.5769 O   0  0  0  0  0  0  0  0  0  0  0  0
   -7.8342    4.1844   -4.5812 C   0  0  0  0  0  0  0  0  0  0  0  0
   -7.1954    5.0079   -3.5021 C   0  0  0  0  0  0  0  0  0  0  0  0
   -7.7561    4.9711   -2.2246 C   0  0  0  0  0  0  0  0  0  0  0  0
   -7.2272    5.7264   -1.1851 C   0  0  0  0  0  0  0  0  0  0  0  0
   -6.0658    6.4689   -1.4024 C   0  0  0  0  0  0  0  0  0  0  0  0
   -5.4916    6.5048   -2.6751 C   0  0  0  0  0  0  0  0  0  0  0  0
   -6.0650    5.7987   -3.7334 C   0  0  0  0  0  0  0  0  0  0  0  0
   -4.0511    7.4109   -2.9397 Cl  0  0  0  0  0  0  0  0  0  0  0  0
   -7.7446    5.7308    0.0787 O   0  0  0  0  0  0  0  0  0  0  0  0
   -9.1733    5.5813    0.1921 C   0  0  0  0  0  0  0  0  0  0  0  0
   -9.8942    6.8928    0.1477 C   0  0  0  0  0  0  0  0  0  0  0  0
   -9.8022    7.8973    1.1376 C   0  0  0  0  0  0  0  0  0  0  0  0
   -9.0995    8.0486    2.3474 C   0  0  0  0  0  0  0  0  0  0  0  0
   -9.2836    9.2103    3.1024 C   0  0  0  0  0  0  0  0  0  0  0  0
  -10.1458   10.2087    2.6639 C   0  0  0  0  0  0  0  0  0  0  0  0
  -10.8413   10.0768    1.4610 C   0  0  0  0  0  0  0  0  0  0  0  0
  -10.6524    8.9051    0.7065 C   0  0  0  0  0  0  0  0  0  0  0  0
  -11.1945    8.4830   -0.5108 N   0  0  0  0  0  0  0  0  0  0  0  0
  -10.7423    7.2163   -0.8447 N   0  0  0  0  0  0  0  0  0  0  0  0
  -12.1098    9.2206   -1.2996 C   0  0  0  0  0  0  0  0  0  0  0  0
  -12.4761   10.3395   -0.9609 O   0  0  0  0  0  0  0  0  0  0  0  0
  -12.5191    8.5514   -2.4099 O   0  0  0  0  0  0  0  0  0  0  0  0
  -13.5009    9.2094   -3.2382 C   0  0  0  0  0  0  0  0  0  0  0  0
  -12.9580   10.4648   -3.9181 C   0  0  0  0  0  0  0  0  0  0  0  0
  -13.7878    8.2501   -4.3587 C   0  0  0  0  0  0  0  0  0  0  0  0
  -14.8363    9.3584   -2.4959 C   0  0  0  0  0  0  0  0  0  0  0  0
  -13.8457    5.0192   -3.4354 H   0  0  0  0  0  0  0  0  0  0  0  0
  -12.3729    5.8391   -2.9526 H   0  0  0  0  0  0  0  0  0  0  0  0
  -12.3271    4.1072   -3.3727 H   0  0  0  0  0  0  0  0  0  0  0  0
  -14.5860    5.6611   -5.5858 H   0  0  0  0  0  0  0  0  0  0  0  0
  -14.1292    6.9992   -7.6123 H   0  0  0  0  0  0  0  0  0  0  0  0
  -10.0832    6.7708   -7.0768 H   0  0  0  0  0  0  0  0  0  0  0  0
  -10.2187    4.8520   -3.8793 H   0  0  0  0  0  0  0  0  0  0  0  0
   -7.0559    3.7985   -5.2507 H   0  0  0  0  0  0  0  0  0  0  0  0
   -8.3238    3.2973   -4.1601 H   0  0  0  0  0  0  0  0  0  0  0  0
   -8.5964    4.3070   -2.0660 H   0  0  0  0  0  0  0  0  0  0  0  0
   -5.6115    7.0204   -0.5837 H   0  0  0  0  0  0  0  0  0  0  0  0
   -5.6185    5.8462   -4.7252 H   0  0  0  0  0  0  0  0  0  0  0  0
   -9.3454    5.1255    1.1747 H   0  0  0  0  0  0  0  0  0  0  0  0
   -9.6093    4.8683   -0.5122 H   0  0  0  0  0  0  0  0  0  0  0  0
   -8.4209    7.2740    2.6927 H   0  0  0  0  0  0  0  0  0  0  0  0
   -8.7496    9.3339    4.0410 H   0  0  0  0  0  0  0  0  0  0  0  0
  -10.2850   11.1084    3.2592 H   0  0  0  0  0  0  0  0  0  0  0  0
  -11.5077   10.8686    1.1330 H   0  0  0  0  0  0  0  0  0  0  0  0
  -12.0519   10.2178   -4.4897 H   0  0  0  0  0  0  0  0  0  0  0  0
  -12.6763   11.2504   -3.2174 H   0  0  0  0  0  0  0  0  0  0  0  0
  -13.6885   10.8757   -4.6248 H   0  0  0  0  0  0  0  0  0  0  0  0
  -12.8392    8.0448   -4.8571 H   0  0  0  0  0  0  0  0  0  0  0  0
  -14.4953    8.6416   -5.0984 H   0  0  0  0  0  0  0  0  0  0  0  0
  -14.2048    7.3274   -3.9478 H   0  0  0  0  0  0  0  0  0  0  0  0
  -14.7967   10.0916   -1.6904 H   0  0  0  0  0  0  0  0  0  0  0  0
  -15.1165    8.3993   -2.0383 H   0  0  0  0  0  0  0  0  0  0  0  0
  -15.6397    9.6448   -3.1838 H   0  0  0  0  0  0  0  0  0  0  0  0
  1  2  1  0  0  0  0
  1 37  1  0  0  0  0
  1 38  1  0  0  0  0
  1 39  1  0  0  0  0
  2  3  1  0  0  0  0
  2  7  2  0  0  0  0
  3  4  2  0  0  0  0
  3 40  1  0  0  0  0
  4  5  1  0  0  0  0
  4 41  1  0  0  0  0
  5  6  2  0  0  0  0
  6  7  1  0  0  0  0
  6 42  1  0  0  0  0
  7  8  1  0  0  0  0
  8  9  1  0  0  0  0
  8 43  1  0  0  0  0
  9 10  2  0  0  0  0
  9 11  1  0  0  0  0
 11 12  1  0  0  0  0
 11 44  1  0  0  0  0
 11 45  1  0  0  0  0
 12 13  1  0  0  0  0
 12 17  2  0  0  0  0
 13 14  2  0  0  0  0
 13 46  1  0  0  0  0
 14 15  1  0  0  0  0
 14 19  1  0  0  0  0
 15 16  2  0  0  0  0
 15 47  1  0  0  0  0
 16 17  1  0  0  0  0
 16 18  1  0  0  0  0
 17 48  1  0  0  0  0
 19 20  1  0  0  0  0
 20 21  1  0  0  0  0
 20 49  1  0  0  0  0
 20 50  1  0  0  0  0
 21 22  1  0  0  0  0
 21 29  2  0  0  0  0
 22 23  1  0  0  0  0
 22 27  2  0  0  0  0
 23 24  2  0  0  0  0
 23 51  1  0  0  0  0
 24 25  1  0  0  0  0
 24 52  1  0  0  0  0
 25 26  2  0  0  0  0
 25 53  1  0  0  0  0
 26 27  1  0  0  0  0
 26 54  1  0  0  0  0
 27 28  1  0  0  0  0
 28 29  1  0  0  0  0
 28 30  1  0  0  0  0
 30 31  2  0  0  0  0
 30 32  1  0  0  0  0
 32 33  1  0  0  0  0
 33 34  1  0  0  0  0
 33 35  1  0  0  0  0
 33 36  1  0  0  0  0
 34 55  1  0  0  0  0
 34 56  1  0  0  0  0
 34 57  1  0  0  0  0
 35 58  1  0  0  0  0
 35 59  1  0  0  0  0
 35 60  1  0  0  0  0
 36 61  1  0  0  0  0
 36 62  1  0  0  0  0
 36 63  1  0  0  0  0
M  END
$$$$
