MODEL 1
REMARK VINA RESULT:    -6.422      0.000      0.000
REMARK INTER + INTRA:         -10.185
REMARK INTER:                  -9.237
REMARK INTRA:                  -0.947
REMARK UNBOUND:                -0.947
REMARK  8 active torsions:
REMARK  status: ('A' for Active; 'I' for Inactive)
REMARK    1  A    between atoms: S_2  and  N_5 
REMARK    2  A    between atoms: N_5  and  C_7 
REMARK    3  A    between atoms: C_8  and  C_9 
REMARK    4  A    between atoms: C_9  and  C_16 
REMARK    5  A    between atoms: N_11  and  C_13 
REMARK    6  A    between atoms: C_13  and  N_14 
REMARK    7  A    between atoms: N_14  and  C_16 
REMARK       I    between atoms: N_17  and  C_19 
REMARK       I    between atoms: C_19  and  N_21 
REMARK    8  A    between atoms: N_21  and  C_23 
ROOT
HETATM    1  C   UNL     1       7.442   0.406  20.822  1.00  0.00     0.156 C 
HETATM    2  N   UNL     1       6.746  -0.462  21.322  1.00  0.00    -0.293 N 
ATOM      3  HN  UNL     1       5.778  -0.139  21.331  1.00  0.00     0.172 HD
HETATM    4  C   UNL     1       6.796  -1.732  21.885  1.00  0.00     0.327 C 
HETATM    5  O   UNL     1       5.830  -2.407  21.750  1.00  0.00    -0.247 OA
HETATM    6  N   UNL     1       7.916  -2.115  22.570  1.00  0.00    -0.292 N 
ATOM      7  HN  UNL     1       8.709  -1.484  22.688  1.00  0.00     0.172 HD
ENDROOT
BRANCH   1   8
HETATM    8  C   UNL     1       8.578   0.903  21.364  1.00  0.00    -0.015 C 
HETATM    9  C   UNL     1       9.483   1.467  21.687  1.00  0.00     0.030 C 
BRANCH   9  10
HETATM   10  N   UNL     1      10.558   1.871  22.168  1.00  0.00    -0.223 N 
ATOM     11  HN  UNL     1      11.330   1.982  21.511  1.00  0.00     0.192 HD
BRANCH  10  12
HETATM   12  S   UNL     1      10.882   2.247  23.729  1.00  0.00     0.216 S 
HETATM   13  O   UNL     1      11.992   1.316  24.098  1.00  0.00    -0.577 OA
HETATM   14  O   UNL     1      11.308   3.619  23.787  1.00  0.00    -0.577 OA
HETATM   15  O   UNL     1       9.727   2.039  24.555  1.00  0.00    -0.577 OA
ENDBRANCH  10  12
ENDBRANCH   9  10
ENDBRANCH   1   8
BRANCH   1  16
HETATM   16  C   UNL     1       6.978   0.667  19.511  1.00  0.00    -0.001 C 
BRANCH  16  17
HETATM   17  N   UNL     1       6.952   0.791  18.452  1.00  0.00    -0.316 N 
ATOM     18  HN  UNL     1       7.656   1.248  17.872  1.00  0.00     0.176 HD
BRANCH  17  19
HETATM   19  C   UNL     1       5.732   0.189  18.007  1.00  0.00     0.181 C 
BRANCH  19  20
HETATM   20  N   UNL     1       5.648  -0.851  17.752  1.00  0.00    -0.395 N 
HETATM   21  H   UNL     1       5.491  -1.733  18.166  1.00  0.00     0.156 HD
ATOM     22  HN  UNL     1       5.774  -0.966  16.747  1.00  0.00     0.156 HD
ENDBRANCH  19  20
ENDBRANCH  17  19
ENDBRANCH  16  17
ENDBRANCH   1  16
BRANCH   6  23
HETATM   23  C   UNL     1       7.926  -3.356  23.082  1.00  0.00     0.147 A 
HETATM   24  N   UNL     1       7.687  -4.527  22.415  1.00  0.00    -0.284 N 
HETATM   25  N   UNL     1       7.819  -5.614  23.142  1.00  0.00    -0.309 N 
ATOM     26  HN  UNL     1       7.428  -4.554  21.429  1.00  0.00     0.188 HD
HETATM   27  C   UNL     1       8.099  -5.207  24.354  1.00  0.00     0.135 A 
ATOM     28  HN  UNL     1       7.723  -6.579  22.826  1.00  0.00     0.186 HD
HETATM   29  C   UNL     1       8.274  -3.633  24.398  1.00  0.00     0.096 A 
HETATM   30 CL   UNL     1       8.765  -2.566  25.618  1.00  0.00    -0.079 Cl
ENDBRANCH   6  23
TORSDOF 8
ENDMDL
MODEL 2
REMARK VINA RESULT:    -6.241     22.986     25.048
REMARK INTER + INTRA:          -9.925
REMARK INTER:                  -9.149
REMARK INTRA:                  -0.776
REMARK UNBOUND:                -0.947
REMARK  8 active torsions:
REMARK  status: ('A' for Active; 'I' for Inactive)
REMARK    1  A    between atoms: S_2  and  N_5 
REMARK    2  A    between atoms: N_5  and  C_7 
REMARK    3  A    between atoms: C_8  and  C_9 
REMARK    4  A    between atoms: C_9  and  C_16 
REMARK    5  A    between atoms: N_11  and  C_13 
REMARK    6  A    between atoms: C_13  and  N_14 
REMARK    7  A    between atoms: N_14  and  C_16 
REMARK       I    between atoms: N_17  and  C_19 
REMARK       I    between atoms: C_19  and  N_21 
REMARK    8  A    between atoms: N_21  and  C_23 
ROOT
HETATM    1  C   UNL     1       9.778  14.279   3.331  1.00  0.00     0.156 C 
HETATM    2  N   UNL     1       9.419  13.118   3.441  1.00  0.00    -0.293 N 
ATOM      3  HN  UNL     1      10.243  12.534   3.587  1.00  0.00     0.172 HD
HETATM    4  C   UNL     1       8.292  12.304   3.439  1.00  0.00     0.327 C 
HETATM    5  O   UNL     1       8.348  11.324   4.105  1.00  0.00    -0.247 OA
HETATM    6  N   UNL     1       7.218  12.652   2.668  1.00  0.00    -0.292 N 
ATOM      7  HN  UNL     1       7.231  13.490   2.085  1.00  0.00     0.172 HD
ENDROOT
BRANCH   1   8
HETATM    8  C   UNL     1       9.414  15.115   2.331  1.00  0.00    -0.015 C 
HETATM    9  C   UNL     1       9.022  15.907   1.651  1.00  0.00     0.030 C 
BRANCH   9  10
HETATM   10  N   UNL     1       8.660  16.627   0.703  1.00  0.00    -0.223 N 
ATOM     11  HN  UNL     1       8.391  16.141  -0.153  1.00  0.00     0.192 HD
BRANCH  10  12
HETATM   12  S   UNL     1       8.565  18.262   0.662  1.00  0.00     0.216 S 
HETATM   13  O   UNL     1       8.131  18.630   2.044  1.00  0.00    -0.577 OA
HETATM   14  O   UNL     1       9.871  18.785   0.367  1.00  0.00    -0.577 OA
HETATM   15  O   UNL     1       7.611  18.694  -0.320  1.00  0.00    -0.577 OA
ENDBRANCH  10  12
ENDBRANCH   9  10
ENDBRANCH   1   8
BRANCH   1  16
HETATM   16  C   UNL     1      10.471  14.658   4.503  1.00  0.00    -0.001 C 
BRANCH  16  17
HETATM   17  N   UNL     1      10.857  15.243   5.307  1.00  0.00    -0.316 N 
ATOM     18  HN  UNL     1      11.145  14.907   6.226  1.00  0.00     0.176 HD
BRANCH  17  19
HETATM   19  C   UNL     1      10.891  16.596   4.839  1.00  0.00     0.181 C 
BRANCH  19  20
HETATM   20  N   UNL     1      11.792  17.086   4.522  1.00  0.00    -0.395 N 
HETATM   21  H   UNL     1      12.140  17.664   3.801  1.00  0.00     0.156 HD
ATOM     22  HN  UNL     1      12.539  16.889   5.189  1.00  0.00     0.156 HD
ENDBRANCH  19  20
ENDBRANCH  17  19
ENDBRANCH  16  17
ENDBRANCH   1  16
BRANCH   6  23
HETATM   23  C   UNL     1       6.146  11.845   2.710  1.00  0.00     0.147 A 
HETATM   24  N   UNL     1       6.101  10.513   2.399  1.00  0.00    -0.284 N 
HETATM   25  N   UNL     1       4.933   9.941   2.583  1.00  0.00    -0.309 N 
ATOM     26  HN  UNL     1       6.913  10.004   2.051  1.00  0.00     0.188 HD
HETATM   27  C   UNL     1       4.122  10.891   2.976  1.00  0.00     0.135 A 
ATOM     28  HN  UNL     1       4.704   8.957   2.448  1.00  0.00     0.186 HD
HETATM   29  C   UNL     1       4.902  12.257   3.173  1.00  0.00     0.096 A 
HETATM   30 CL   UNL     1       4.438  13.766   3.784  1.00  0.00    -0.079 Cl
ENDBRANCH   6  23
TORSDOF 8
ENDMDL
MODEL 3
REMARK VINA RESULT:    -6.238      3.336      6.974
REMARK INTER + INTRA:          -9.920
REMARK INTER:                  -9.323
REMARK INTRA:                  -0.597
REMARK UNBOUND:                -0.947
REMARK  8 active torsions:
REMARK  status: ('A' for Active; 'I' for Inactive)
REMARK    1  A    between atoms: S_2  and  N_5 
REMARK    2  A    between atoms: N_5  and  C_7 
REMARK    3  A    between atoms: C_8  and  C_9 
REMARK    4  A    between atoms: C_9  and  C_16 
REMARK    5  A    between atoms: N_11  and  C_13 
REMARK    6  A    between atoms: C_13  and  N_14 
REMARK    7  A    between atoms: N_14  and  C_16 
REMARK       I    between atoms: N_17  and  C_19 
REMARK       I    between atoms: C_19  and  N_21 
REMARK    8  A    between atoms: N_21  and  C_23 
ROOT
HETATM    1  C   UNL     1       9.721  -1.489  22.729  1.00  0.00     0.156 C 
HETATM    2  N   UNL     1       9.395  -0.394  22.303  1.00  0.00    -0.293 N 
ATOM      3  HN  UNL     1       9.775   0.323  22.922  1.00  0.00     0.172 HD
HETATM    4  C   UNL     1       8.691   0.230  21.279  1.00  0.00     0.327 C 
HETATM    5  O   UNL     1       9.074   1.306  20.955  1.00  0.00    -0.247 OA
HETATM    6  N   UNL     1       7.607  -0.399  20.734  1.00  0.00    -0.292 N 
ATOM      7  HN  UNL     1       7.296  -1.311  21.071  1.00  0.00     0.172 HD
ENDROOT
BRANCH   1   8
HETATM    8  C   UNL     1       8.877  -2.526  22.939  1.00  0.00    -0.015 C 
HETATM    9  C   UNL     1       8.073  -3.298  22.965  1.00  0.00     0.030 C 
BRANCH   9  10
HETATM   10  N   UNL     1       7.292  -4.234  23.219  1.00  0.00    -0.223 N 
ATOM     11  HN  UNL     1       7.263  -4.544  24.190  1.00  0.00     0.192 HD
BRANCH  10  12
HETATM   12  S   UNL     1       6.303  -5.026  22.180  1.00  0.00     0.216 S 
HETATM   13  O   UNL     1       7.233  -5.889  21.389  1.00  0.00    -0.577 OA
HETATM   14  O   UNL     1       5.381  -5.818  22.948  1.00  0.00    -0.577 OA
HETATM   15  O   UNL     1       5.600  -4.101  21.338  1.00  0.00    -0.577 OA
ENDBRANCH  10  12
ENDBRANCH   9  10
ENDBRANCH   1   8
BRANCH   1  16
HETATM   16  C   UNL     1      11.132  -1.559  22.784  1.00  0.00    -0.001 C 
BRANCH  16  17
HETATM   17  N   UNL     1      12.142  -1.413  23.095  1.00  0.00    -0.316 N 
ATOM     18  HN  UNL     1      12.977  -1.818  22.671  1.00  0.00     0.176 HD
BRANCH  17  19
HETATM   19  C   UNL     1      12.092  -0.538  24.227  1.00  0.00     0.181 C 
BRANCH  19  20
HETATM   20  N   UNL     1      12.410   0.487  24.192  1.00  0.00    -0.395 N 
HETATM   21  H   UNL     1      12.118   1.392  24.456  1.00  0.00     0.156 HD
ATOM     22  HN  UNL     1      13.319   0.545  23.731  1.00  0.00     0.156 HD
ENDBRANCH  19  20
ENDBRANCH  17  19
ENDBRANCH  16  17
ENDBRANCH   1  16
BRANCH   6  23
HETATM   23  C   UNL     1       6.968   0.234  19.736  1.00  0.00     0.147 A 
HETATM   24  N   UNL     1       7.041  -0.047  18.399  1.00  0.00    -0.284 N 
HETATM   25  N   UNL     1       6.265   0.690  17.636  1.00  0.00    -0.309 N 
ATOM     26  HN  UNL     1       7.650  -0.774  18.023  1.00  0.00     0.188 HD
HETATM   27  C   UNL     1       5.677   1.544  18.436  1.00  0.00     0.135 A 
ATOM     28  HN  UNL     1       6.146   0.613  16.626  1.00  0.00     0.186 HD
HETATM   29  C   UNL     1       6.047   1.252  19.948  1.00  0.00     0.096 A 
HETATM   30 CL   UNL     1       5.502   1.908  21.411  1.00  0.00    -0.079 Cl
ENDBRANCH   6  23
TORSDOF 8
ENDMDL
MODEL 4
REMARK VINA RESULT:    -6.211      3.786      5.442
REMARK INTER + INTRA:          -9.882
REMARK INTER:                  -8.901
REMARK INTRA:                  -0.981
REMARK UNBOUND:                -0.947
REMARK  8 active torsions:
REMARK  status: ('A' for Active; 'I' for Inactive)
REMARK    1  A    between atoms: S_2  and  N_5 
REMARK    2  A    between atoms: N_5  and  C_7 
REMARK    3  A    between atoms: C_8  and  C_9 
REMARK    4  A    between atoms: C_9  and  C_16 
REMARK    5  A    between atoms: N_11  and  C_13 
REMARK    6  A    between atoms: C_13  and  N_14 
REMARK    7  A    between atoms: N_14  and  C_16 
REMARK       I    between atoms: N_17  and  C_19 
REMARK       I    between atoms: C_19  and  N_21 
REMARK    8  A    between atoms: N_21  and  C_23 
ROOT
HETATM    1  C   UNL     1       8.429  -2.253  22.517  1.00  0.00     0.156 C 
HETATM    2  N   UNL     1       8.340  -3.428  22.832  1.00  0.00    -0.293 N 
ATOM      3  HN  UNL     1       9.237  -3.882  22.657  1.00  0.00     0.172 HD
HETATM    4  C   UNL     1       7.456  -4.372  23.343  1.00  0.00     0.327 C 
HETATM    5  O   UNL     1       7.934  -5.250  23.981  1.00  0.00    -0.247 OA
HETATM    6  N   UNL     1       6.122  -4.256  23.066  1.00  0.00    -0.292 N 
ATOM      7  HN  UNL     1       5.763  -3.500  22.483  1.00  0.00     0.172 HD
ENDROOT
BRANCH   1   8
HETATM    8  C   UNL     1       7.564  -1.595  21.711  1.00  0.00    -0.015 C 
HETATM    9  C   UNL     1       6.781  -0.973  21.217  1.00  0.00     0.030 C 
BRANCH   9  10
HETATM   10  N   UNL     1       5.965  -0.424  20.453  1.00  0.00    -0.223 N 
ATOM     11  HN  UNL     1       5.045  -0.228  20.846  1.00  0.00     0.192 HD
BRANCH  10  12
HETATM   12  S   UNL     1       6.192   0.021  18.893  1.00  0.00     0.216 S 
HETATM   13  O   UNL     1       5.263   1.178  18.712  1.00  0.00    -0.577 OA
HETATM   14  O   UNL     1       7.564   0.421  18.731  1.00  0.00    -0.577 OA
HETATM   15  O   UNL     1       5.870  -1.057  18.002  1.00  0.00    -0.577 OA
ENDBRANCH  10  12
ENDBRANCH   9  10
ENDBRANCH   1   8
BRANCH   1  16
HETATM   16  C   UNL     1       9.461  -1.652  23.274  1.00  0.00    -0.001 C 
BRANCH  16  17
HETATM   17  N   UNL     1      10.153  -1.447  24.059  1.00  0.00    -0.316 N 
ATOM     18  HN  UNL     1       9.995  -1.563  25.060  1.00  0.00     0.176 HD
BRANCH  17  19
HETATM   19  C   UNL     1      11.349  -0.977  23.428  1.00  0.00     0.181 C 
BRANCH  19  20
HETATM   20  N   UNL     1      12.038  -1.624  22.918  1.00  0.00    -0.395 N 
HETATM   21  H   UNL     1      12.881  -2.117  23.064  1.00  0.00     0.156 HD
ATOM     22  HN  UNL     1      11.713  -1.783  21.964  1.00  0.00     0.156 HD
ENDBRANCH  19  20
ENDBRANCH  17  19
ENDBRANCH  16  17
ENDBRANCH   1  16
BRANCH   6  23
HETATM   23  C   UNL     1       5.304  -5.181  23.594  1.00  0.00     0.147 A 
HETATM   24  N   UNL     1       5.330  -6.532  23.372  1.00  0.00    -0.284 N 
HETATM   25  N   UNL     1       4.453  -7.223  24.063  1.00  0.00    -0.309 N 
ATOM     26  HN  UNL     1       5.982  -6.967  22.719  1.00  0.00     0.188 HD
HETATM   27  C   UNL     1       3.756  -6.347  24.743  1.00  0.00     0.135 A 
ATOM     28  HN  UNL     1       4.338  -8.236  24.069  1.00  0.00     0.186 HD
HETATM   29  C   UNL     1       4.331  -4.885  24.541  1.00  0.00     0.096 A 
HETATM   30 CL   UNL     1       3.953  -3.394  25.250  1.00  0.00    -0.079 Cl
ENDBRANCH   6  23
TORSDOF 8
ENDMDL
MODEL 5
REMARK VINA RESULT:    -6.139      4.325      6.936
REMARK INTER + INTRA:          -9.779
REMARK INTER:                  -8.833
REMARK INTRA:                  -0.946
REMARK UNBOUND:                -0.947
REMARK  8 active torsions:
REMARK  status: ('A' for Active; 'I' for Inactive)
REMARK    1  A    between atoms: S_2  and  N_5 
REMARK    2  A    between atoms: N_5  and  C_7 
REMARK    3  A    between atoms: C_8  and  C_9 
REMARK    4  A    between atoms: C_9  and  C_16 
REMARK    5  A    between atoms: N_11  and  C_13 
REMARK    6  A    between atoms: C_13  and  N_14 
REMARK    7  A    between atoms: N_14  and  C_16 
REMARK       I    between atoms: N_17  and  C_19 
REMARK       I    between atoms: C_19  and  N_21 
REMARK    8  A    between atoms: N_21  and  C_23 
ROOT
HETATM    1  C   UNL     1       7.847  -4.489  23.663  1.00  0.00     0.156 C 
HETATM    2  N   UNL     1       8.615  -3.727  23.099  1.00  0.00    -0.293 N 
ATOM      3  HN  UNL     1       8.927  -4.163  22.231  1.00  0.00     0.172 HD
HETATM    4  C   UNL     1       9.219  -2.480  23.214  1.00  0.00     0.327 C 
HETATM    5  O   UNL     1       9.468  -1.920  22.198  1.00  0.00    -0.247 OA
HETATM    6  N   UNL     1       9.512  -1.992  24.457  1.00  0.00    -0.292 N 
ATOM      7  HN  UNL     1       9.308  -2.528  25.301  1.00  0.00     0.172 HD
ENDROOT
BRANCH   1   8
HETATM    8  C   UNL     1       7.936  -4.867  24.960  1.00  0.00    -0.015 C 
HETATM    9  C   UNL     1       7.966  -5.360  25.959  1.00  0.00     0.030 C 
BRANCH   9  10
HETATM   10  N   UNL     1       8.003  -5.665  27.165  1.00  0.00    -0.223 N 
ATOM     11  HN  UNL     1       8.926  -5.669  27.600  1.00  0.00     0.192 HD
BRANCH  10  12
HETATM   12  S   UNL     1       6.747  -6.062  28.140  1.00  0.00     0.216 S 
HETATM   13  O   UNL     1       6.239  -4.743  28.625  1.00  0.00    -0.577 OA
HETATM   14  O   UNL     1       5.759  -6.745  27.350  1.00  0.00    -0.577 OA
HETATM   15  O   UNL     1       7.186  -6.888  29.228  1.00  0.00    -0.577 OA
ENDBRANCH  10  12
ENDBRANCH   9  10
ENDBRANCH   1   8
BRANCH   1  16
HETATM   16  C   UNL     1       6.755  -4.757  22.806  1.00  0.00    -0.001 C 
BRANCH  16  17
HETATM   17  N   UNL     1       5.780  -4.744  22.374  1.00  0.00    -0.316 N 
ATOM     18  HN  UNL     1       5.285  -5.533  21.956  1.00  0.00     0.176 HD
BRANCH  17  19
HETATM   19  C   UNL     1       5.303  -3.400  22.496  1.00  0.00     0.181 C 
BRANCH  19  20
HETATM   20  N   UNL     1       5.528  -2.630  21.781  1.00  0.00    -0.395 N 
HETATM   21  H   UNL     1       6.026  -1.782  21.697  1.00  0.00     0.156 HD
ATOM     22  HN  UNL     1       5.074  -2.846  20.894  1.00  0.00     0.156 HD
ENDBRANCH  19  20
ENDBRANCH  17  19
ENDBRANCH  16  17
ENDBRANCH   1  16
BRANCH   6  23
HETATM   23  C   UNL     1      10.080  -0.777  24.520  1.00  0.00     0.147 A 
HETATM   24  N   UNL     1      11.391  -0.464  24.280  1.00  0.00    -0.284 N 
HETATM   25  N   UNL     1      11.675   0.817  24.352  1.00  0.00    -0.309 N 
ATOM     26  HN  UNL     1      12.093  -1.171  24.063  1.00  0.00     0.188 HD
HETATM   27  C   UNL     1      10.565   1.416  24.702  1.00  0.00     0.135 A 
ATOM     28  HN  UNL     1      12.578   1.256  24.171  1.00  0.00     0.186 HD
HETATM   29  C   UNL     1       9.362   0.386  24.769  1.00  0.00     0.096 A 
HETATM   30 CL   UNL     1       7.699   0.579  25.020  1.00  0.00    -0.079 Cl
ENDBRANCH   6  23
TORSDOF 8
ENDMDL
MODEL 6
REMARK VINA RESULT:    -6.131      3.481      5.177
REMARK INTER + INTRA:          -9.766
REMARK INTER:                  -8.849
REMARK INTRA:                  -0.917
REMARK UNBOUND:                -0.947
REMARK  8 active torsions:
REMARK  status: ('A' for Active; 'I' for Inactive)
REMARK    1  A    between atoms: S_2  and  N_5 
REMARK    2  A    between atoms: N_5  and  C_7 
REMARK    3  A    between atoms: C_8  and  C_9 
REMARK    4  A    between atoms: C_9  and  C_16 
REMARK    5  A    between atoms: N_11  and  C_13 
REMARK    6  A    between atoms: C_13  and  N_14 
REMARK    7  A    between atoms: N_14  and  C_16 
REMARK       I    between atoms: N_17  and  C_19 
REMARK       I    between atoms: C_19  and  N_21 
REMARK    8  A    between atoms: N_21  and  C_23 
ROOT
HETATM    1  C   UNL     1       8.824  -0.424  22.217  1.00  0.00     0.156 C 
HETATM    2  N   UNL     1       9.024  -1.536  22.675  1.00  0.00    -0.293 N 
ATOM      3  HN  UNL     1       9.977  -1.573  23.037  1.00  0.00     0.172 HD
HETATM    4  C   UNL     1       8.422  -2.772  22.881  1.00  0.00     0.327 C 
HETATM    5  O   UNL     1       8.790  -3.387  23.827  1.00  0.00    -0.247 OA
HETATM    6  N   UNL     1       7.483  -3.215  21.991  1.00  0.00    -0.292 N 
ATOM      7  HN  UNL     1       7.225  -2.663  21.173  1.00  0.00     0.172 HD
ENDROOT
BRANCH   1   8
HETATM    8  C   UNL     1       8.321  -0.167  20.987  1.00  0.00    -0.015 C 
HETATM    9  C   UNL     1       8.064  -0.059  19.907  1.00  0.00     0.030 C 
BRANCH   9  10
HETATM   10  N   UNL     1       7.605   0.240  18.789  1.00  0.00    -0.223 N 
ATOM     11  HN  UNL     1       8.291   0.461  18.067  1.00  0.00     0.192 HD
BRANCH  10  12
HETATM   12  S   UNL     1       6.033   0.319  18.338  1.00  0.00     0.216 S 
HETATM   13  O   UNL     1       5.976   1.518  17.447  1.00  0.00    -0.577 OA
HETATM   14  O   UNL     1       5.705  -0.882  17.620  1.00  0.00    -0.577 OA
HETATM   15  O   UNL     1       5.180   0.475  19.482  1.00  0.00    -0.577 OA
ENDBRANCH  10  12
ENDBRANCH   9  10
ENDBRANCH   1   8
BRANCH   1  16
HETATM   16  C   UNL     1       9.019   0.535  23.237  1.00  0.00    -0.001 C 
BRANCH  16  17
HETATM   17  N   UNL     1       8.901   1.093  24.139  1.00  0.00    -0.316 N 
ATOM     18  HN  UNL     1       8.025   1.424  24.543  1.00  0.00     0.176 HD
BRANCH  17  19
HETATM   19  C   UNL     1      10.218   1.284  24.668  1.00  0.00     0.181 C 
BRANCH  19  20
HETATM   20  N   UNL     1      10.687   0.592  25.342  1.00  0.00    -0.395 N 
HETATM   21  H   UNL     1      11.038   0.534  26.263  1.00  0.00     0.156 HD
ATOM     22  HN  UNL     1      10.810  -0.306  24.875  1.00  0.00     0.156 HD
ENDBRANCH  19  20
ENDBRANCH  17  19
ENDBRANCH  16  17
ENDBRANCH   1  16
BRANCH   6  23
HETATM   23  C   UNL     1       6.917  -4.407  22.239  1.00  0.00     0.147 A 
HETATM   24  N   UNL     1       7.378  -5.637  21.856  1.00  0.00    -0.284 N 
HETATM   25  N   UNL     1       6.663  -6.653  22.282  1.00  0.00    -0.309 N 
ATOM     26  HN  UNL     1       8.214  -5.756  21.283  1.00  0.00     0.188 HD
HETATM   27  C   UNL     1       5.648  -6.136  22.929  1.00  0.00     0.135 A 
ATOM     28  HN  UNL     1       6.858  -7.644  22.138  1.00  0.00     0.186 HD
HETATM   29  C   UNL     1       5.780  -4.560  23.022  1.00  0.00     0.096 A 
HETATM   30 CL   UNL     1       4.877  -3.379  23.833  1.00  0.00    -0.079 Cl
ENDBRANCH   6  23
TORSDOF 8
ENDMDL
MODEL 7
REMARK VINA RESULT:    -6.118      5.476      8.008
REMARK INTER + INTRA:          -9.748
REMARK INTER:                  -9.191
REMARK INTRA:                  -0.556
REMARK UNBOUND:                -0.947
REMARK  8 active torsions:
REMARK  status: ('A' for Active; 'I' for Inactive)
REMARK    1  A    between atoms: S_2  and  N_5 
REMARK    2  A    between atoms: N_5  and  C_7 
REMARK    3  A    between atoms: C_8  and  C_9 
REMARK    4  A    between atoms: C_9  and  C_16 
REMARK    5  A    between atoms: N_11  and  C_13 
REMARK    6  A    between atoms: C_13  and  N_14 
REMARK    7  A    between atoms: N_14  and  C_16 
REMARK       I    between atoms: N_17  and  C_19 
REMARK       I    between atoms: C_19  and  N_21 
REMARK    8  A    between atoms: N_21  and  C_23 
ROOT
HETATM    1  C   UNL     1       4.354  -6.832  24.528  1.00  0.00     0.156 C 
HETATM    2  N   UNL     1       5.200  -6.628  23.673  1.00  0.00    -0.293 N 
ATOM      3  HN  UNL     1       5.208  -7.419  23.028  1.00  0.00     0.172 HD
HETATM    4  C   UNL     1       6.156  -5.707  23.261  1.00  0.00     0.327 C 
HETATM    5  O   UNL     1       6.375  -5.660  22.096  1.00  0.00    -0.247 OA
HETATM    6  N   UNL     1       6.798  -4.946  24.198  1.00  0.00    -0.292 N 
ATOM      7  HN  UNL     1       6.599  -5.049  25.193  1.00  0.00     0.172 HD
ENDROOT
BRANCH   1   8
HETATM    8  C   UNL     1       4.557  -6.737  25.863  1.00  0.00    -0.015 C 
HETATM    9  C   UNL     1       4.918  -6.640  26.913  1.00  0.00     0.030 C 
BRANCH   9  10
HETATM   10  N   UNL     1       5.077  -6.610  28.148  1.00  0.00    -0.223 N 
ATOM     11  HN  UNL     1       4.245  -6.781  28.712  1.00  0.00     0.192 HD
BRANCH  10  12
HETATM   12  S   UNL     1       6.463  -6.328  28.975  1.00  0.00     0.216 S 
HETATM   13  O   UNL     1       6.770  -7.642  29.617  1.00  0.00    -0.577 OA
HETATM   14  O   UNL     1       7.484  -5.954  28.034  1.00  0.00    -0.577 OA
HETATM   15  O   UNL     1       6.272  -5.296  29.954  1.00  0.00    -0.577 OA
ENDBRANCH  10  12
ENDBRANCH   9  10
ENDBRANCH   1   8
BRANCH   1  16
HETATM   16  C   UNL     1       3.097  -6.992  23.902  1.00  0.00    -0.001 C 
BRANCH  16  17
HETATM   17  N   UNL     1       2.168  -6.775  23.425  1.00  0.00    -0.316 N 
ATOM     18  HN  UNL     1       1.777  -5.851  23.239  1.00  0.00     0.176 HD
BRANCH  17  19
HETATM   19  C   UNL     1       1.578  -8.037  23.097  1.00  0.00     0.181 C 
BRANCH  19  20
HETATM   20  N   UNL     1       1.504  -8.408  22.092  1.00  0.00    -0.395 N 
HETATM   21  H   UNL     1       1.256  -8.117  21.182  1.00  0.00     0.156 HD
ATOM     22  HN  UNL     1       1.782  -9.390  22.070  1.00  0.00     0.156 HD
ENDBRANCH  19  20
ENDBRANCH  17  19
ENDBRANCH  16  17
ENDBRANCH   1  16
BRANCH   6  23
HETATM   23  C   UNL     1       7.702  -4.059  23.752  1.00  0.00     0.147 A 
HETATM   24  N   UNL     1       7.945  -3.709  22.451  1.00  0.00    -0.284 N 
HETATM   25  N   UNL     1       8.847  -2.767  22.292  1.00  0.00    -0.309 N 
ATOM     26  HN  UNL     1       7.461  -4.145  21.667  1.00  0.00     0.188 HD
HETATM   27  C   UNL     1       9.292  -2.485  23.490  1.00  0.00     0.135 A 
ATOM     28  HN  UNL     1       9.141  -2.342  21.412  1.00  0.00     0.186 HD
HETATM   29  C   UNL     1       8.491  -3.288  24.596  1.00  0.00     0.096 A 
HETATM   30 CL   UNL     1       8.511  -3.241  26.289  1.00  0.00    -0.079 Cl
ENDBRANCH   6  23
TORSDOF 8
ENDMDL
MODEL 8
REMARK VINA RESULT:    -6.096      2.243      5.556
REMARK INTER + INTRA:          -9.716
REMARK INTER:                  -8.765
REMARK INTRA:                  -0.951
REMARK UNBOUND:                -0.947
REMARK  8 active torsions:
REMARK  status: ('A' for Active; 'I' for Inactive)
REMARK    1  A    between atoms: S_2  and  N_5 
REMARK    2  A    between atoms: N_5  and  C_7 
REMARK    3  A    between atoms: C_8  and  C_9 
REMARK    4  A    between atoms: C_9  and  C_16 
REMARK    5  A    between atoms: N_11  and  C_13 
REMARK    6  A    between atoms: C_13  and  N_14 
REMARK    7  A    between atoms: N_14  and  C_16 
REMARK       I    between atoms: N_17  and  C_19 
REMARK       I    between atoms: C_19  and  N_21 
REMARK    8  A    between atoms: N_21  and  C_23 
ROOT
HETATM    1  C   UNL     1       8.136  -2.939  23.265  1.00  0.00     0.156 C 
HETATM    2  N   UNL     1       7.336  -3.011  22.347  1.00  0.00    -0.293 N 
ATOM      3  HN  UNL     1       7.146  -3.995  22.155  1.00  0.00     0.172 HD
HETATM    4  C   UNL     1       6.589  -2.234  21.468  1.00  0.00     0.327 C 
HETATM    5  O   UNL     1       5.556  -2.693  21.107  1.00  0.00    -0.247 OA
HETATM    6  N   UNL     1       7.085  -1.029  21.055  1.00  0.00    -0.292 N 
ATOM      7  HN  UNL     1       7.996  -0.693  21.369  1.00  0.00     0.172 HD
ENDROOT
BRANCH   1   8
HETATM    8  C   UNL     1       9.274  -2.206  23.252  1.00  0.00    -0.015 C 
HETATM    9  C   UNL     1      10.095  -1.456  23.314  1.00  0.00     0.030 C 
BRANCH   9  10
HETATM   10  N   UNL     1      11.147  -0.793  23.239  1.00  0.00    -0.223 N 
ATOM     11  HN  UNL     1      11.715  -0.944  22.405  1.00  0.00     0.192 HD
BRANCH  10  12
HETATM   12  S   UNL     1      11.728   0.292  24.320  1.00  0.00     0.216 S 
HETATM   13  O   UNL     1      11.646   1.597  23.596  1.00  0.00    -0.577 OA
HETATM   14  O   UNL     1      10.876   0.281  25.477  1.00  0.00    -0.577 OA
HETATM   15  O   UNL     1      13.081  -0.023  24.682  1.00  0.00    -0.577 OA
ENDBRANCH  10  12
ENDBRANCH   9  10
ENDBRANCH   1   8
BRANCH   1  16
HETATM   16  C   UNL     1       7.592  -3.585  24.400  1.00  0.00    -0.001 C 
BRANCH  16  17
HETATM   17  N   UNL     1       7.083  -4.292  25.016  1.00  0.00    -0.316 N 
ATOM     18  HN  UNL     1       6.079  -4.468  25.044  1.00  0.00     0.176 HD
BRANCH  17  19
HETATM   19  C   UNL     1       8.091  -4.942  25.797  1.00  0.00     0.181 C 
BRANCH  19  20
HETATM   20  N   UNL     1       8.551  -4.492  26.657  1.00  0.00    -0.395 N 
HETATM   21  H   UNL     1       8.320  -4.015  27.490  1.00  0.00     0.156 HD
ATOM     22  HN  UNL     1       9.564  -4.588  26.591  1.00  0.00     0.156 HD
ENDBRANCH  19  20
ENDBRANCH  17  19
ENDBRANCH  16  17
ENDBRANCH   1  16
BRANCH   6  23
HETATM   23  C   UNL     1       6.322  -0.307  20.219  1.00  0.00     0.147 A 
HETATM   24  N   UNL     1       5.681  -0.750  19.094  1.00  0.00    -0.284 N 
HETATM   25  N   UNL     1       4.947   0.153  18.484  1.00  0.00    -0.309 N 
ATOM     26  HN  UNL     1       5.767  -1.708  18.755  1.00  0.00     0.188 HD
HETATM   27  C   UNL     1       5.113   1.267  19.152  1.00  0.00     0.135 A 
ATOM     28  HN  UNL     1       4.365   0.015  17.658  1.00  0.00     0.186 HD
HETATM   29  C   UNL     1       6.004   1.027  20.441  1.00  0.00     0.096 A 
HETATM   30 CL   UNL     1       6.439   2.026  21.738  1.00  0.00    -0.079 Cl
ENDBRANCH   6  23
TORSDOF 8
ENDMDL
MODEL 9
REMARK VINA RESULT:    -5.899     23.428     26.014
REMARK INTER + INTRA:          -9.434
REMARK INTER:                  -8.548
REMARK INTRA:                  -0.886
REMARK UNBOUND:                -0.947
REMARK  8 active torsions:
REMARK  status: ('A' for Active; 'I' for Inactive)
REMARK    1  A    between atoms: S_2  and  N_5 
REMARK    2  A    between atoms: N_5  and  C_7 
REMARK    3  A    between atoms: C_8  and  C_9 
REMARK    4  A    between atoms: C_9  and  C_16 
REMARK    5  A    between atoms: N_11  and  C_13 
REMARK    6  A    between atoms: C_13  and  N_14 
REMARK    7  A    between atoms: N_14  and  C_16 
REMARK       I    between atoms: N_17  and  C_19 
REMARK       I    between atoms: C_19  and  N_21 
REMARK    8  A    between atoms: N_21  and  C_23 
ROOT
HETATM    1  C   UNL     1      10.862  17.676   4.480  1.00  0.00     0.156 C 
HETATM    2  N   UNL     1      11.069  16.474   4.507  1.00  0.00    -0.293 N 
ATOM      3  HN  UNL     1      12.069  16.318   4.636  1.00  0.00     0.172 HD
HETATM    4  C   UNL     1      10.433  15.240   4.424  1.00  0.00     0.327 C 
HETATM    5  O   UNL     1      10.932  14.349   5.027  1.00  0.00    -0.247 OA
HETATM    6  N   UNL     1       9.313  15.117   3.649  1.00  0.00    -0.292 N 
ATOM      7  HN  UNL     1       8.942  15.907   3.122  1.00  0.00     0.172 HD
ENDROOT
BRANCH   1   8
HETATM    8  C   UNL     1      10.152  18.323   3.527  1.00  0.00    -0.015 C 
HETATM    9  C   UNL     1       9.415  18.742   2.803  1.00  0.00     0.030 C 
BRANCH   9  10
HETATM   10  N   UNL     1       8.804  19.318   1.883  1.00  0.00    -0.223 N 
ATOM     11  HN  UNL     1       8.141  20.039   2.167  1.00  0.00     0.192 HD
BRANCH  10  12
HETATM   12  S   UNL     1       8.938  19.056   0.272  1.00  0.00     0.216 S 
HETATM   13  O   UNL     1       7.523  18.888  -0.182  1.00  0.00    -0.577 OA
HETATM   14  O   UNL     1       9.546  20.213  -0.327  1.00  0.00    -0.577 OA
HETATM   15  O   UNL     1       9.717  17.880   0.008  1.00  0.00    -0.577 OA
ENDBRANCH  10  12
ENDBRANCH   9  10
ENDBRANCH   1   8
BRANCH   1  16
HETATM   16  C   UNL     1      11.315  18.246   5.692  1.00  0.00    -0.001 C 
BRANCH  16  17
HETATM   17  N   UNL     1      11.632  18.353   6.705  1.00  0.00    -0.316 N 
ATOM     18  HN  UNL     1      11.356  17.772   7.497  1.00  0.00     0.176 HD
BRANCH  17  19
HETATM   19  C   UNL     1      12.520  19.476   6.733  1.00  0.00     0.181 C 
BRANCH  19  20
HETATM   20  N   UNL     1      12.562  20.211   5.951  1.00  0.00    -0.395 N 
HETATM   21  H   UNL     1      12.218  20.388   5.043  1.00  0.00     0.156 HD
ATOM     22  HN  UNL     1      13.158  20.985   6.244  1.00  0.00     0.156 HD
ENDBRANCH  19  20
ENDBRANCH  17  19
ENDBRANCH  16  17
ENDBRANCH   1  16
BRANCH   6  23
HETATM   23  C   UNL     1       8.724  13.911   3.613  1.00  0.00     0.147 A 
HETATM   24  N   UNL     1       9.333  12.698   3.430  1.00  0.00    -0.284 N 
HETATM   25  N   UNL     1       8.529  11.661   3.496  1.00  0.00    -0.309 N 
ATOM     26  HN  UNL     1      10.333  12.608   3.256  1.00  0.00     0.188 HD
HETATM   27  C   UNL     1       7.326  12.146   3.671  1.00  0.00     0.135 A 
ATOM     28  HN  UNL     1       8.790  10.678   3.425  1.00  0.00     0.186 HD
HETATM   29  C   UNL     1       7.368  13.720   3.845  1.00  0.00     0.096 A 
HETATM   30 CL   UNL     1       6.181  14.864   4.232  1.00  0.00    -0.079 Cl
ENDBRANCH   6  23
TORSDOF 8
ENDMDL
