stable:False satoms:14 tatoms:24 sratio:0.5833333333333334
  -OEChem-07092417333D

 24 24  0     0  0  0  0  0  0999 V2000
    6.5127   -4.0578   25.9329 H   0  0  0  0  0  0  0  0  0  0  0  0
    7.4019   -3.9548   25.9910 O   0  0  0  0  0  0  0  0  0  0  0  0
    8.4888   -3.7318   25.2714 C   0  0  0  0  0  0  0  0  0  0  0  0
    9.2253   -3.5208   25.9868 H   0  0  0  0  0  0  0  0  0  0  0  0
    8.6353   -4.5054   24.5681 H   0  0  0  0  0  0  0  0  0  0  0  0
    7.8960   -2.5787   23.2080 O   0  0  0  0  0  0  0  0  0  0  0  0
    8.5414   -2.5259   24.1511 C   0  0  0  0  0  0  0  0  0  0  0  0
   12.1098   -0.0089   23.2745 C   0  0  0  0  0  0  0  0  0  0  0  0
    9.2350   -1.5513   23.8986 C   0  0  0  0  0  0  0  0  0  0  0  0
   11.9581    0.0137   24.3249 H   0  0  0  0  0  0  0  0  0  0  0  0
   12.1262    0.9809   22.9213 H   0  0  0  0  0  0  0  0  0  0  0  0
   13.0234   -0.4719   23.0395 H   0  0  0  0  0  0  0  0  0  0  0  0
   11.0030   -0.6365   22.7859 C   0  0  0  0  0  0  0  0  0  0  0  0
    9.8611   -0.8256   22.9125 C   0  0  0  0  0  0  0  0  0  0  0  0
    9.2907   -0.3062   21.9522 C   0  0  0  0  0  0  0  0  0  0  0  0
    8.4219    0.0675   21.1054 C   0  0  0  0  0  0  0  0  0  0  0  0
    8.4703    0.6272   19.9445 O   0  0  0  0  0  0  0  0  0  0  0  0
    5.8155   -1.5193   21.0552 H   0  0  0  0  0  0  0  0  0  0  0  0
    7.2121    0.6122   19.2875 C   0  0  0  0  0  0  0  0  0  0  0  0
    6.5709   -0.5675   19.3957 N   0  3  0  0  0  0  0  0  0  0  0  0
    7.3770    0.8605   18.2355 H   0  0  0  0  0  0  0  0  0  0  0  0
    6.5832    1.4110   19.7059 H   0  0  0  0  0  0  0  0  0  0  0  0
    6.5399   -0.8088   20.7116 C   0  3  0  0  0  0  0  0  0  0  0  0
    7.2846   -0.2921   21.6369 N   0  0  0  0  0  0  0  0  0  0  0  0
 19 21  1  0  0  0  0
 19 20  1  0  0  0  0
 19 22  1  0  0  0  0
 17 19  1  0  0  0  0
 20 23  1  0  0  0  0
 16 17  1  0  0  0  0
 18 23  1  0  0  0  0
 23 24  1  0  0  0  0
 16 24  1  0  0  0  0
 15 16  2  0  0  0  0
 14 15  1  0  0  0  0
 13 14  2  3  0  0  0
  8 13  1  0  0  0  0
  9 14  1  0  0  0  0
  8 11  1  0  0  0  0
  8 12  1  0  0  0  0
  6  7  2  0  0  0  0
  8 10  1  0  0  0  0
  7  9  1  0  0  0  0
  3  7  1  0  0  0  0
  3  5  1  0  0  0  0
  3  4  1  0  0  0  0
  2  3  1  0  0  0  0
  1  2  1  0  0  0  0
M  CHG  2  20   1  23   1
M  END
> <Shapegauss>
-157.016052

$$$$
