stable:False satoms:14 tatoms:24 sratio:0.5833333333333334
  -OEChem-08062401433D

 30 30  0     0  0  0  0  0  0999 V2000
  -10.8225    5.5267  -22.3084 H   0  0  0  0  0  0  0  0  0  0  0  0
  -11.4294    5.2488  -22.9076 O   0  0  0  0  0  0  0  0  0  0  0  0
  -11.6720    4.3118  -23.8088 C   0  0  0  0  0  0  0  0  0  0  0  0
  -12.6856    4.4430  -24.0415 H   0  0  0  0  0  0  0  0  0  0  0  0
  -10.9431    4.3315  -24.5723 H   0  0  0  0  0  0  0  0  0  0  0  0
  -10.4085    2.2981  -23.2731 O   0  0  0  0  0  0  0  0  0  0  0  0
  -11.4562    2.7160  -23.4640 C   0  0  0  0  0  0  0  0  0  0  0  0
  -14.0393   -0.5909  -24.9570 C   0  0  0  0  0  0  0  0  0  0  0  0
  -12.1114    1.6843  -23.4943 C   0  0  0  0  0  0  0  0  0  0  0  0
  -14.6788    0.1404  -24.5291 H   0  0  0  0  0  0  0  0  0  0  0  0
  -14.2340   -1.5133  -24.4923 H   0  0  0  0  0  0  0  0  0  0  0  0
  -14.2158   -0.6829  -25.9888 H   0  0  0  0  0  0  0  0  0  0  0  0
  -12.7836   -0.1808  -24.6213 C   0  0  0  0  0  0  0  0  0  0  0  0
  -12.1174    0.3502  -23.8276 C   0  0  0  0  0  0  0  0  0  0  0  0
  -11.3488   -0.4937  -23.3645 C   0  0  0  0  0  0  0  0  0  0  0  0
  -10.4197   -1.0786  -22.7272 C   0  0  0  0  0  0  0  0  0  0  0  0
   -9.8949   -2.2560  -22.7682 O   0  0  0  0  0  0  0  0  0  0  0  0
   -8.6992   -2.3384  -22.0077 C   0  0  0  0  0  0  0  0  0  0  0  0
   -7.8875   -1.2769  -22.1782 N   0  0  0  0  0  0  0  0  0  0  0  0
   -8.1831   -3.2608  -22.2880 H   0  0  0  0  0  0  0  0  0  0  0  0
   -8.9603   -2.4331  -20.9440 H   0  0  0  0  0  0  0  0  0  0  0  0
   -8.6659   -0.2194  -21.9204 C   0  0  0  0  0  2  0  0  0  0  0  0
   -9.9598   -0.1599  -21.9211 N   0  3  0  0  0  0  0  0  0  0  0  0
  -12.9739    2.0281  -24.0840 H   0  0  0  0  0  0  0  0  0  0  0  0
  -12.3968    1.6132  -22.4343 H   0  0  0  0  0  0  0  0  0  0  0  0
  -12.1326   -0.4701  -25.4331 H   0  0  0  0  0  0  0  0  0  0  0  0
  -11.7667   -1.3619  -23.8522 H   0  0  0  0  0  0  0  0  0  0  0  0
   -7.1179   -1.3138  -21.5409 H   0  0  0  0  0  0  0  0  0  0  0  0
  -10.3047   -0.3202  -20.9963 H   0  0  0  0  0  0  0  0  0  0  0  0
  -10.2553    0.7423  -22.2354 H   0  0  0  0  0  0  0  0  0  0  0  0
 18 20  1  0  0  0  0
 18 19  1  0  0  0  0
 18 21  1  0  0  0  0
 17 18  1  0  0  0  0
 19 22  1  0  0  0  0
 16 17  1  0  0  0  0
 22 23  1  0  0  0  0
 16 23  1  0  0  0  0
 15 16  2  0  0  0  0
 14 15  1  0  0  0  0
 13 14  2  3  0  0  0
  8 13  1  0  0  0  0
  9 14  1  0  0  0  0
  8 11  1  0  0  0  0
  8 12  1  0  0  0  0
  6  7  2  0  0  0  0
  8 10  1  0  0  0  0
  7  9  1  0  0  0  0
  3  7  1  0  0  0  0
  3  5  1  0  0  0  0
  3  4  1  0  0  0  0
  2  3  1  0  0  0  0
  1  2  1  0  0  0  0
  9 24  1  0  0  0  0
  9 25  1  0  0  0  0
 13 26  1  0  0  0  0
 15 27  1  0  0  0  0
 19 28  1  0  0  0  0
 23 29  1  0  0  0  0
 23 30  1  0  0  0  0
M  CHG  1  23   1
M  END
> <Chemgauss4>
-6.422869

$$$$
