stable:False satoms:14 tatoms:24 sratio:0.5833333333333334
  -OEChem-08062401433D

 30 30  0     0  0  0  0  0  0999 V2000
   10.1770    5.6335   22.7960 H   0  0  0  0  0  0  0  0  0  0  0  0
   10.9796    5.2431   22.8867 O   0  0  0  0  0  0  0  0  0  0  0  0
   11.6407    4.3376   23.5880 C   0  0  0  0  0  0  0  0  0  0  0  0
   12.5323    4.2064   23.0526 H   0  0  0  0  0  0  0  0  0  0  0  0
   11.6667    4.6035   24.6094 H   0  0  0  0  0  0  0  0  0  0  0  0
   10.0847    2.7070   24.5146 O   0  0  0  0  0  0  0  0  0  0  0  0
   11.0132    2.8394   23.8596 C   0  0  0  0  0  0  0  0  0  0  0  0
   13.3766   -0.9334   23.9904 C   0  0  0  0  0  0  0  0  0  0  0  0
   11.3408    1.6739   23.6898 C   0  0  0  0  0  0  0  0  0  0  0  0
   13.6333   -0.4313   23.0910 H   0  0  0  0  0  0  0  0  0  0  0  0
   13.0522   -1.9030   23.7469 H   0  0  0  0  0  0  0  0  0  0  0  0
   14.2075   -1.0005   24.6302 H   0  0  0  0  0  0  0  0  0  0  0  0
   12.3236   -0.2239   24.4856 C   0  0  0  0  0  0  0  0  0  0  0  0
   11.3810    0.4126   24.2362 C   0  0  0  0  0  0  0  0  0  0  0  0
   10.3948   -0.2223   24.6127 C   0  0  0  0  0  0  0  0  0  0  0  0
    9.2128   -0.5767   24.9105 C   0  0  0  0  0  0  0  0  0  0  0  0
    8.7003   -1.5641   25.5630 O   0  0  0  0  0  0  0  0  0  0  0  0
    7.3197   -1.3722   25.8315 C   0  0  0  0  0  0  0  0  0  0  0  0
    7.0273   -0.1226   26.2408 N   0  0  0  0  0  0  0  0  0  0  0  0
    7.0181   -2.1010   26.5889 H   0  0  0  0  0  0  0  0  0  0  0  0
    6.7454   -1.6044   24.9233 H   0  0  0  0  0  0  0  0  0  0  0  0
    7.5482    0.6669   25.2942 C   0  0  0  0  0  2  0  0  0  0  0  0
    8.4633    0.3760   24.4249 N   0  3  0  0  0  0  0  0  0  0  0  0
   12.4074    1.8114   23.4588 H   0  0  0  0  0  0  0  0  0  0  0  0
   10.7896    1.4582   22.7626 H   0  0  0  0  0  0  0  0  0  0  0  0
   12.3922   -0.2726   25.5623 H   0  0  0  0  0  0  0  0  0  0  0  0
   10.9000   -1.1365   24.8874 H   0  0  0  0  0  0  0  0  0  0  0  0
    6.0377    0.0066   26.3045 H   0  0  0  0  0  0  0  0  0  0  0  0
    8.0349    0.0675   23.5755 H   0  0  0  0  0  0  0  0  0  0  0  0
    9.0228    1.1843   24.2417 H   0  0  0  0  0  0  0  0  0  0  0  0
 18 20  1  0  0  0  0
 18 19  1  0  0  0  0
 18 21  1  0  0  0  0
 17 18  1  0  0  0  0
 19 22  1  0  0  0  0
 16 17  1  0  0  0  0
 22 23  1  0  0  0  0
 16 23  1  0  0  0  0
 15 16  2  0  0  0  0
 14 15  1  0  0  0  0
 13 14  2  3  0  0  0
  8 13  1  0  0  0  0
  9 14  1  0  0  0  0
  8 11  1  0  0  0  0
  8 12  1  0  0  0  0
  6  7  2  0  0  0  0
  8 10  1  0  0  0  0
  7  9  1  0  0  0  0
  3  7  1  0  0  0  0
  3  5  1  0  0  0  0
  3  4  1  0  0  0  0
  2  3  1  0  0  0  0
  1  2  1  0  0  0  0
  9 24  1  0  0  0  0
  9 25  1  0  0  0  0
 13 26  1  0  0  0  0
 15 27  1  0  0  0  0
 19 28  1  0  0  0  0
 23 29  1  0  0  0  0
 23 30  1  0  0  0  0
M  CHG  1  23   1
M  END
> <Chemgauss4>
-6.279008

$$$$
