stable:False satoms:21 tatoms:24 sratio:0.875
  -OEChem-07092417343D

 24 23  0     0  0  0  0  0  0999 V2000
    7.2171   -4.4167   25.6819 H   0  0  0  0  0  0  0  0  0  0  0  0
    8.0888   -3.7897   25.6489 C   0  0  0  0  0  0  0  0  0  0  0  0
    8.9012   -4.3265   25.1676 H   0  0  0  0  0  0  0  0  0  0  0  0
    8.4092   -3.5151   26.6467 H   0  0  0  0  0  0  0  0  0  0  0  0
    7.8617   -2.8835   25.0893 H   0  0  0  0  0  0  0  0  0  0  0  0
    8.1098   -2.8521   22.8946 F   0  0  0  0  0  0  0  0  0  0  0  0
    8.1715   -1.5563   22.3340 C   0  0  0  0  0  0  0  0  0  0  0  0
   10.2484   -0.8871   23.4884 C   0  0  0  0  0  0  0  0  0  0  0  0
    9.8645   -1.2817   24.5643 O   0  0  0  0  0  0  0  0  0  0  0  0
   11.4821    0.7507   23.7679 H   0  0  0  0  0  0  0  0  0  0  0  0
   12.2755   -0.7431   24.1638 H   0  0  0  0  0  0  0  0  0  0  0  0
   12.1154   -0.3161   22.4856 H   0  0  0  0  0  0  0  0  0  0  0  0
   11.6173   -0.2800   23.4291 C   0  0  0  0  0  0  0  0  0  0  0  0
    9.3422   -0.8233   22.3228 C   0  0  0  0  0  0  0  0  0  0  0  0
    9.5543    0.0193   21.2037 C   0  0  0  0  0  0  0  0  0  0  0  0
   10.4911    0.5267   21.0864 H   0  0  0  0  0  0  0  0  0  0  0  0
    7.3204   -0.2505   20.5071 C   0  0  0  0  0  0  0  0  0  0  0  0
    6.3139    0.0332   19.5068 N   0  0  0  0  0  0  0  0  0  0  0  0
    8.5756    0.2366   20.2281 C   0  0  0  0  0  0  0  0  0  0  0  0
    8.7007    0.7723   19.3030 H   0  0  0  0  0  0  0  0  0  0  0  0
    6.6458    0.0676   18.3386 O   0  0  0  0  0  0  0  0  0  0  0  0
    5.2117    0.3207   19.8708 O   0  0  0  0  0  0  0  0  0  0  0  0
    7.0361   -0.9742   21.6118 C   0  0  0  0  0  0  0  0  0  0  0  0
    6.0298   -1.1214   21.9553 H   0  0  0  0  0  0  0  0  0  0  0  0
 18 21  2  0  0  0  0
 19 20  1  0  0  0  0
 18 22  2  0  0  0  0
 17 18  1  0  0  0  0
 17 19  2  0  0  0  0
 15 19  1  0  0  0  0
 17 23  1  0  0  0  0
 15 16  1  0  0  0  0
 14 15  2  0  0  0  0
 23 24  1  0  0  0  0
  7 23  2  0  0  0  0
  7 14  1  0  0  0  0
  8 14  1  0  0  0  0
  6  7  1  0  0  0  0
 12 13  1  0  0  0  0
  8 13  1  0  0  0  0
 10 13  1  0  0  0  0
 11 13  1  0  0  0  0
  8  9  2  0  0  0  0
  2  5  1  0  0  0  0
  2  3  1  0  0  0  0
  1  2  1  0  0  0  0
  2  4  1  0  0  0  0
M  END
> <Shapegauss>
-150.544891

$$$$
