stable:False satoms:21 tatoms:24 sratio:0.875
  -OEChem-08052414033D

 25 25  0     1  0  0  0  0  0999 V2000
    6.8279   -0.8119   20.9656 H   0  0  0  0  0  0  0  0  0  0  0  0
   11.7717    0.2797   24.3675 C   0  0  0  0  0  0  0  0  0  0  0  0
    5.0064   -2.2024   21.0452 H   0  0  0  0  0  0  0  0  0  0  0  0
    9.7980   -0.3302   23.7980 H   0  0  0  0  0  0  0  0  0  0  0  0
    5.0039   -2.2486   22.7997 H   0  0  0  0  0  0  0  0  0  0  0  0
    8.9743   -2.4254   22.3695 C   0  0  0  0  0  0  0  0  0  0  0  0
   11.4421    1.1580   24.8844 H   0  0  0  0  0  0  0  0  0  0  0  0
   11.3056   -1.5829   22.9146 C   0  0  0  0  0  0  0  0  0  0  0  0
   10.8594   -0.5182   23.7035 C   0  0  0  0  0  0  0  0  0  0  0  0
    6.1239   -3.3037   21.9151 H   0  0  0  0  0  0  0  0  0  0  0  0
    8.1282   -1.3814   22.3603 N   0  0  0  0  0  0  0  0  0  0  0  0
    6.1989   -0.3368   22.9118 O   0  0  0  0  0  0  0  0  0  0  0  0
   13.8225    0.5568   24.9361 H   0  0  0  0  0  0  0  0  0  0  0  0
    5.6378   -2.3325   21.9179 C   0  0  0  0  0  0  0  0  0  0  0  0
   14.6065   -1.3841   23.6702 H   0  0  0  0  0  0  0  0  0  0  0  0
    6.9229    0.0463   23.4516 H   0  0  0  0  0  0  0  0  0  0  0  0
   10.7668   -2.9024   21.4524 H   0  0  0  0  0  0  0  0  0  0  0  0
    8.6039   -3.5644   22.5593 O   0  0  0  0  0  0  0  0  0  0  0  0
    6.7619   -1.2389   21.9842 C   0  0  2  0  0  0  0  0  0  0  0  0
   13.5612   -1.1353   23.6483 C   0  0  0  0  0  0  0  0  0  0  0  0
   12.6694   -1.9050   22.9143 C   0  0  0  0  0  0  0  0  0  0  0  0
   13.1241   -0.0467   24.3785 C   0  0  0  0  0  0  0  0  0  0  0  0
   10.3837   -2.2637   22.1412 N   0  0  0  0  0  0  0  0  0  0  0  0
   13.0305   -2.7558   22.3510 H   0  0  0  0  0  0  0  0  0  0  0  0
    8.5426   -0.5306   22.6837 H   0  0  0  0  0  0  0  0  0  0  0  0
 13 22  1  0  0  0  0
  2  7  1  0  0  0  0
  2 22  2  0  0  0  0
 20 22  1  0  0  0  0
  2  9  1  0  0  0  0
 15 20  1  0  0  0  0
 20 21  2  0  0  0  0
  4  9  1  0  0  0  0
  8  9  2  0  0  0  0
  8 21  1  0  0  0  0
 21 24  1  0  0  0  0
  8 23  1  0  0  0  0
 12 16  1  0  0  0  0
 12 19  1  0  0  0  0
 17 23  1  0  0  0  0
  6 23  1  0  0  0  0
 11 19  1  0  0  0  0
  6 11  1  0  0  0  0
  1 19  1  0  0  0  0
 14 19  1  0  0  0  0
  6 18  2  0  0  0  0
  5 14  1  0  0  0  0
  3 14  1  0  0  0  0
 10 14  1  0  0  0  0
 11 25  1  0  0  0  0
M  END
> <Chemgauss4>
-7.750224

$$$$
