stable:False satoms:13 tatoms:24 sratio:0.5416666666666666
  -OEChem-07092417383D

 24 24  0     0  0  0  0  0  0999 V2000
    7.1641   -4.3395   26.0823 H   0  0  0  0  0  0  0  0  0  0  0  0
    8.2304   -4.3354   26.0796 C   0  3  0  0  0  0  0  0  0  0  0  0
    8.7680   -5.2343   26.2979 H   0  0  0  0  0  0  0  0  0  0  0  0
    8.9311   -3.2342   25.9526 O   0  0  0  0  0  0  0  0  0  0  0  0
    8.0231   -3.1336   24.0735 H   0  0  0  0  0  0  0  0  0  0  0  0
    8.8283   -2.7459   24.6559 C   0  3  0  0  0  0  0  0  0  0  0  0
    9.6494   -1.7331   24.1305 C   0  3  0  0  0  0  0  0  0  0  0  0
    9.6752   -1.4134   22.9244 N   0  0  0  0  0  0  0  0  0  0  0  0
   10.3510   -1.1498   24.7219 H   0  0  0  0  0  0  0  0  0  0  0  0
   12.2882    0.2674   23.9964 H   0  0  0  0  0  0  0  0  0  0  0  0
   13.6347   -0.6895   23.3026 H   0  0  0  0  0  0  0  0  0  0  0  0
   12.6123   -0.4861   23.3120 C   0  0  0  0  0  0  0  0  0  0  0  0
   11.7776   -1.0200   22.5536 C   0  0  0  0  0  0  0  0  0  0  0  0
   10.4977   -0.6481   22.3364 C   0  0  0  0  0  0  0  0  0  0  0  0
    8.9499    0.0253   21.1501 C   0  0  0  0  0  0  0  0  0  0  0  0
   10.1060    0.3697   21.4362 N   0  0  0  0  0  0  0  0  0  0  0  0
    8.0044   -0.4219   21.1018 N   0  0  0  0  0  0  0  0  0  0  0  0
    7.0844    0.0796   20.4720 C   0  0  0  0  0  0  0  0  0  0  0  0
    6.6277    0.1787   19.0967 C   0  0  0  0  0  0  0  0  0  0  0  0
    6.2602   -0.0136   17.5928 N   0  0  0  0  0  0  0  0  0  0  0  0
    5.8088    0.4853   18.4433 C   0  0  0  0  0  0  0  0  0  0  0  0
    4.8403    1.0860   18.7893 H   0  0  0  0  0  0  0  0  0  0  0  0
    6.0445    0.3563   20.9810 C   0  5  0  0  0  0  0  0  0  0  0  0
    5.4267    0.4597   21.8142 H   0  0  0  0  0  0  0  0  0  0  0  0
 20 21  1  0  0  0  0
 19 20  1  0  0  0  0
 21 22  1  0  0  0  0
 19 21  2  0  0  0  0
 18 19  1  0  0  0  0
 18 23  2  0  0  0  0
 17 18  1  0  0  0  0
 23 24  1  0  0  0  0
 15 17  2  0  0  0  0
 15 16  1  0  0  0  0
 14 16  1  0  0  0  0
 13 14  1  0  0  0  0
  8 14  2  3  0  0  0
 12 13  2  0  0  0  0
  7  8  1  0  0  0  0
 11 12  1  0  0  0  0
 10 12  1  0  0  0  0
  5  6  1  0  0  0  0
  6  7  1  0  0  0  0
  7  9  1  0  0  0  0
  4  6  1  0  0  0  0
  2  4  1  0  0  0  0
  1  2  1  0  0  0  0
  2  3  1  0  0  0  0
M  CHG  4   2   1   6   1   7   1  23  -1
M  END
> <Shapegauss>
-195.741943

$$$$
