stable:False satoms:13 tatoms:24 sratio:0.5416666666666666
  -OEChem-08062407563D

 28 28  0     0  0  0  0  0  0999 V2000
    7.5989   -3.2680   21.8404 C   0  0  0  0  0  2  0  0  0  0  0  0
    7.5989   -3.2680   21.8404 H   0  0  0  0  0  0  0  0  0  0  0  0
    8.5663   -3.2850   22.7256 O   0  0  0  0  0  0  0  0  0  0  0  0
    9.3133   -2.1164   22.6439 C   0  0  0  0  0  2  0  0  0  0  0  0
   10.5562   -1.9328   23.2743 C   0  0  0  0  0  2  0  0  0  0  0  0
   11.3052   -0.9566   23.0657 N   0  3  0  0  0  0  0  0  0  0  0  0
   13.3478   -2.8576   24.8023 H   0  0  0  0  0  0  0  0  0  0  0  0
   14.4787   -3.4178   23.5306 H   0  0  0  0  0  0  0  0  0  0  0  0
   13.7257   -2.7526   23.8087 C   0  0  0  0  0  0  0  0  0  0  0  0
   13.2909   -1.8335   23.0854 C   0  0  0  0  0  0  0  0  0  0  0  0
   12.5044   -0.7966   23.4457 C   0  0  0  0  0  0  0  0  0  0  0  0
   12.1044    1.2108   23.7041 C   0  0  0  0  0  0  0  0  0  0  0  0
   12.9812    0.3982   24.0329 N   0  0  0  0  0  0  0  0  0  0  0  0
   11.2388    1.6900   23.3615 N   0  0  0  0  0  0  0  0  0  0  0  0
   10.9936    2.8554   23.6380 C   0  0  0  0  0  0  0  0  0  0  0  0
   11.3786    4.1863   23.2019 C   0  0  0  0  0  0  0  0  0  0  0  0
   11.8102    5.4779   22.4407 N   0  3  0  0  0  0  0  0  0  0  0  0
   11.1649    5.2537   23.2830 C   0  0  0  0  0  0  0  0  0  0  0  0
   10.4038    5.7464   24.0553 H   0  0  0  0  0  0  0  0  0  0  0  0
    9.9894    3.1781   24.1897 C   0  0  0  0  0  0  0  0  0  0  0  0
    9.2591    2.4307   24.4629 H   0  0  0  0  0  0  0  0  0  0  0  0
   13.5785   -1.8718   22.0451 H   0  0  0  0  0  0  0  0  0  0  0  0
   12.6441    2.1035   23.9842 H   0  0  0  0  0  0  0  0  0  0  0  0
   13.8095    0.5485   24.5725 H   0  0  0  0  0  0  0  0  0  0  0  0
   11.4491    5.7123   21.5382 H   0  0  0  0  0  0  0  0  0  0  0  0
    9.8085    4.2183   24.4172 H   0  0  0  0  0  0  0  0  0  0  0  0
   10.9110   -0.2079   22.5328 H   0  0  0  0  0  0  0  0  0  0  0  0
   12.7148    5.8885   22.5548 H   0  0  0  0  0  0  0  0  0  0  0  0
 17 18  1  0  0  0  0
 16 17  1  0  0  0  0
 18 19  1  0  0  0  0
 16 18  2  0  0  0  0
 15 16  1  0  0  0  0
 15 20  2  0  0  0  0
 14 15  1  0  0  0  0
 20 21  1  0  0  0  0
 12 14  2  0  0  0  0
 12 13  1  0  0  0  0
 11 13  1  0  0  0  0
 10 11  1  0  0  0  0
  6 11  2  3  0  0  0
  9 10  2  0  0  0  0
  5  6  1  0  0  0  0
  8  9  1  0  0  0  0
  7  9  1  0  0  0  0
  4  5  1  0  0  0  0
  3  4  1  0  0  0  0
  1  3  1  0  0  0  0
  1  2  1  0  0  0  0
 10 22  1  0  0  0  0
 12 23  1  0  0  0  0
 13 24  1  0  0  0  0
 17 25  1  0  0  0  0
 20 26  1  0  0  0  0
  6 27  1  0  0  0  0
 17 28  1  0  0  0  0
M  CHG  2   6   1  17   1
M  END
> <Chemgauss4>
-7.581358

$$$$
