stable:False satoms:13 tatoms:24 sratio:0.5416666666666666
  -OEChem-08062407563D

 28 28  0     0  0  0  0  0  0999 V2000
   -7.5980   -3.2868  -22.0459 C   0  0  0  0  0  2  0  0  0  0  0  0
   -7.5980   -3.2868  -22.0459 H   0  0  0  0  0  0  0  0  0  0  0  0
   -8.5654   -3.3039  -22.9311 O   0  0  0  0  0  0  0  0  0  0  0  0
   -9.3123   -2.1352  -22.8494 C   0  0  0  0  0  2  0  0  0  0  0  0
  -10.5553   -1.9516  -23.4798 C   0  0  0  0  0  2  0  0  0  0  0  0
  -11.3043   -0.9754  -23.2712 N   0  3  0  0  0  0  0  0  0  0  0  0
  -13.3469   -2.8764  -25.0078 H   0  0  0  0  0  0  0  0  0  0  0  0
  -14.4778   -3.4366  -23.7361 H   0  0  0  0  0  0  0  0  0  0  0  0
  -13.7248   -2.7714  -24.0142 C   0  0  0  0  0  0  0  0  0  0  0  0
  -13.2900   -1.8523  -23.2909 C   0  0  0  0  0  0  0  0  0  0  0  0
  -12.5034   -0.8154  -23.6512 C   0  0  0  0  0  0  0  0  0  0  0  0
  -12.1035    1.1920  -23.9096 C   0  0  0  0  0  0  0  0  0  0  0  0
  -12.9803    0.3794  -24.2384 N   0  0  0  0  0  0  0  0  0  0  0  0
  -11.2379    1.6712  -23.5671 N   0  0  0  0  0  0  0  0  0  0  0  0
  -10.9927    2.8365  -23.8435 C   0  0  0  0  0  0  0  0  0  0  0  0
  -11.3777    4.1675  -23.4074 C   0  0  0  0  0  0  0  0  0  0  0  0
  -11.8092    5.4591  -22.6462 N   0  3  0  0  0  0  0  0  0  0  0  0
  -11.1639    5.2349  -23.4885 C   0  0  0  0  0  0  0  0  0  0  0  0
  -10.4028    5.7276  -24.2608 H   0  0  0  0  0  0  0  0  0  0  0  0
   -9.9884    3.1593  -24.3953 C   0  0  0  0  0  0  0  0  0  0  0  0
   -9.2582    2.4119  -24.6684 H   0  0  0  0  0  0  0  0  0  0  0  0
  -13.5776   -1.8906  -22.2506 H   0  0  0  0  0  0  0  0  0  0  0  0
  -12.6431    2.0846  -24.1897 H   0  0  0  0  0  0  0  0  0  0  0  0
  -13.8086    0.5297  -24.7780 H   0  0  0  0  0  0  0  0  0  0  0  0
  -11.4481    5.6935  -21.7437 H   0  0  0  0  0  0  0  0  0  0  0  0
   -9.8076    4.1995  -24.6227 H   0  0  0  0  0  0  0  0  0  0  0  0
  -10.9100   -0.2267  -22.7383 H   0  0  0  0  0  0  0  0  0  0  0  0
  -12.7139    5.8697  -22.7603 H   0  0  0  0  0  0  0  0  0  0  0  0
 17 18  1  0  0  0  0
 16 17  1  0  0  0  0
 18 19  1  0  0  0  0
 16 18  2  0  0  0  0
 15 16  1  0  0  0  0
 15 20  2  0  0  0  0
 14 15  1  0  0  0  0
 20 21  1  0  0  0  0
 12 14  2  0  0  0  0
 12 13  1  0  0  0  0
 11 13  1  0  0  0  0
 10 11  1  0  0  0  0
  6 11  2  3  0  0  0
  9 10  2  0  0  0  0
  5  6  1  0  0  0  0
  8  9  1  0  0  0  0
  7  9  1  0  0  0  0
  4  5  1  0  0  0  0
  3  4  1  0  0  0  0
  1  3  1  0  0  0  0
  1  2  1  0  0  0  0
 10 22  1  0  0  0  0
 12 23  1  0  0  0  0
 13 24  1  0  0  0  0
 17 25  1  0  0  0  0
 20 26  1  0  0  0  0
  6 27  1  0  0  0  0
 17 28  1  0  0  0  0
M  CHG  2   6   1  17   1
M  END
> <Chemgauss4>
-8.130771

$$$$
