stable:False satoms:12 tatoms:24 sratio:0.5
  -OEChem-07092417433D

 24 27  0     1  0  0  0  0  0999 V2000
    6.4809   -4.9498   26.5121 Cl  0  0  0  0  0  0  0  0  0  0  0  0
    8.2521   -4.2904   26.1140 S   0  0  0  0  0  0  0  0  0  0  0  0
    9.0771   -5.4449   25.9854 O   0  0  0  0  0  0  0  0  0  0  0  0
    8.5894   -3.3998   27.1389 O   0  0  0  0  0  0  0  0  0  0  0  0
    8.1297   -3.5600   24.6643 N   0  0  0  0  0  0  0  0  0  0  0  0
    8.9566   -2.8585   24.1578 C   0  0  0  0  0  0  0  0  0  0  0  0
    9.4630   -2.0518   23.6032 C   0  0  0  0  0  0  0  0  0  0  0  0
   10.6280   -1.0449   23.2681 C   0  0  1  0  0  0  0  0  0  0  0  0
   11.3465   -0.1205   24.1253 C   0  0  0  0  0  0  0  0  0  0  0  0
   12.3242    0.3486   24.3270 N   0  0  0  0  0  0  0  0  0  0  0  0
   13.0468   -0.1868   23.5323 C   0  0  0  0  0  0  0  0  0  0  0  0
   12.9594   -1.1688   22.7420 C   0  0  0  0  0  0  0  0  0  0  0  0
   11.9117   -1.5438   22.7804 C   0  0  0  0  0  0  0  0  0  0  0  0
    9.6816   -0.8197   22.5536 C   0  0  3  0  0  0  0  0  0  0  0  0
    9.0135   -0.0343   21.5295 C   0  0  0  0  0  0  0  0  0  0  0  0
    9.5444    0.9823   21.1569 O   0  0  0  0  0  0  0  0  0  0  0  0
    7.8490   -0.5429   21.1116 N   0  0  0  0  0  0  0  0  0  0  0  0
    7.0933   -0.0704   20.1332 C   0  0  0  0  0  0  0  0  0  0  0  0
    7.3844   -0.1552   18.7965 N   0  0  0  0  0  0  0  0  0  0  0  0
    6.5393    0.4154   18.0468 N   0  0  0  0  0  0  0  0  0  0  0  0
    5.5221    0.7879   18.7972 C   0  0  0  0  0  0  0  0  0  0  0  0
    4.6664    1.2626   18.6527 H   0  0  0  0  0  0  0  0  0  0  0  0
    5.8490    0.5031   20.3139 C   0  0  0  0  0  0  0  0  0  0  0  0
    5.2754    0.6523   21.2540 H   0  0  0  0  0  0  0  0  0  0  0  0
 19 20  1  0  0  0  0
 20 21  2  0  0  0  0
 21 22  1  0  0  0  0
 18 19  1  0  0  0  0
 21 23  1  0  0  0  0
 18 23  2  0  0  0  0
 17 18  1  0  0  0  0
 23 24  1  0  0  0  0
 15 17  1  0  0  0  0
 15 16  2  0  0  0  0
 14 15  1  0  0  0  0
  8 14  1  0  0  0  0
  7 14  1  0  0  0  0
 12 13  1  0  0  0  0
 11 12  2  0  0  0  0
  8 13  1  0  0  0  0
  7  8  1  0  0  0  0
  8  9  1  0  0  0  0
  9 11  1  0  0  0  0
 10 11  1  0  0  0  0
  6  7  2  0  0  0  0
  9 10  2  0  0  0  0
  5  6  1  0  0  0  0
  2  5  1  0  0  0  0
  2  3  2  0  0  0  0
  1  2  1  0  0  0  0
  2  4  2  0  0  0  0
M  END
> <Shapegauss>
-269.866180

$$$$
