MODEL 1
REMARK VINA RESULT:    -7.397      0.000      0.000
REMARK INTER + INTRA:         -10.445
REMARK INTER:                  -9.560
REMARK INTRA:                  -0.885
REMARK UNBOUND:                -0.885
REMARK  5 active torsions:
REMARK  status: ('A' for Active; 'I' for Inactive)
REMARK    1  A    between atoms: S_2  and  N_5 
REMARK    2  A    between atoms: N_5  and  C_7 
REMARK    3  A    between atoms: C_7  and  C_8 
REMARK    4  A    between atoms: C_16  and  C_17 
REMARK       I    between atoms: C_17  and  N_19 
REMARK    5  A    between atoms: N_19  and  C_21 
ROOT
HETATM    1  C   UNL     1       9.071  -2.282  23.376  1.00  0.00     0.038 A 
HETATM    2  C   UNL     1       9.958  -0.996  23.587  1.00  0.00     0.070 A 
HETATM    3  C   UNL     1      10.058  -0.100  24.724  1.00  0.00     0.125 A 
HETATM    4  N   UNL     1      10.739   0.533  25.317  1.00  0.00    -0.404 N 
ATOM      5  HN  UNL     1      10.516   1.147  26.100  1.00  0.00     0.154 HD
HETATM    6  C   UNL     1      11.807   0.322  24.811  1.00  0.00     0.124 A 
HETATM    7  C   UNL     1      12.267  -0.499  23.969  1.00  0.00    -0.003 C 
HETATM    8  C   UNL     1      11.416  -1.101  23.579  1.00  0.00    -0.006 C 
HETATM    9  C   UNL     1       9.290  -0.867  22.591  1.00  0.00     0.047 A 
ENDROOT
BRANCH   9  10
HETATM   10  C   UNL     1       8.826  -0.083  21.457  1.00  0.00     0.256 C 
HETATM   11  N   UNL     1       7.618  -0.432  21.001  1.00  0.00    -0.308 N 
ATOM     12  HN  UNL     1       7.116  -1.148  21.526  1.00  0.00     0.170 HD
HETATM   13  O   UNL     1       9.541   0.793  21.041  1.00  0.00    -0.268 OA
BRANCH  11  14
HETATM   14  C   UNL     1       7.011   0.064  19.933  1.00  0.00     0.123 C 
HETATM   15  N   UNL     1       7.562   0.159  18.682  1.00  0.00    -0.286 N 
HETATM   16  N   UNL     1       6.812   0.716  17.828  1.00  0.00    -0.310 N 
ATOM     17  HN  UNL     1       8.495  -0.188  18.459  1.00  0.00     0.188 HD
HETATM   18  C   UNL     1       5.631   0.893  18.384  1.00  0.00     0.111 C 
ATOM     19  HN  UNL     1       7.075   0.980  16.879  1.00  0.00     0.186 HD
HETATM   20  C   UNL     1       5.693   0.478  19.905  1.00  0.00     0.068 C 
ENDBRANCH  11  14
ENDBRANCH   9  10
BRANCH   1  21
HETATM   21  C   UNL     1       8.647  -3.266  23.632  1.00  0.00    -0.021 C 
BRANCH  21  22
HETATM   22  N   UNL     1       8.213  -4.380  23.572  1.00  0.00    -0.236 N 
ATOM     23  HN  UNL     1       8.843  -5.137  23.839  1.00  0.00     0.189 HD
BRANCH  22  24
HETATM   24  S   UNL     1       6.711  -4.798  23.105  1.00  0.00     0.327 S 
HETATM   25 CL   UNL     1       6.949  -6.038  21.644  1.00  0.00     0.042 Cl
HETATM   26  O   UNL     1       6.090  -5.543  24.150  1.00  0.00    -0.188 OA
HETATM   27  O   UNL     1       5.983  -3.716  22.600  1.00  0.00    -0.188 OA
ENDBRANCH  22  24
ENDBRANCH  21  22
ENDBRANCH   1  21
TORSDOF 5
ENDMDL
MODEL 2
REMARK VINA RESULT:    -7.328      3.261      5.928
REMARK INTER + INTRA:         -10.355
REMARK INTER:                  -9.561
REMARK INTRA:                  -0.794
REMARK UNBOUND:                -0.885
REMARK  5 active torsions:
REMARK  status: ('A' for Active; 'I' for Inactive)
REMARK    1  A    between atoms: S_2  and  N_5 
REMARK    2  A    between atoms: N_5  and  C_7 
REMARK    3  A    between atoms: C_7  and  C_8 
REMARK    4  A    between atoms: C_16  and  C_17 
REMARK       I    between atoms: C_17  and  N_19 
REMARK    5  A    between atoms: N_19  and  C_21 
ROOT
HETATM    1  C   UNL     1       9.455  -0.824  22.444  1.00  0.00     0.038 A 
HETATM    2  C   UNL     1      10.706  -1.008  23.384  1.00  0.00     0.070 A 
HETATM    3  C   UNL     1      11.987  -1.644  23.131  1.00  0.00     0.125 A 
HETATM    4  N   UNL     1      13.068  -1.608  23.340  1.00  0.00    -0.404 N 
ATOM      5  HN  UNL     1      13.794  -2.264  23.050  1.00  0.00     0.154 HD
HETATM    6  C   UNL     1      13.181  -0.606  23.991  1.00  0.00     0.124 A 
HETATM    7  C   UNL     1      12.438   0.370  24.293  1.00  0.00    -0.003 C 
HETATM    8  C   UNL     1      11.421   0.160  23.893  1.00  0.00    -0.006 C 
HETATM    9  C   UNL     1       9.730  -1.479  23.914  1.00  0.00     0.047 A 
ENDROOT
BRANCH   9  10
HETATM   10  C   UNL     1       9.091  -2.203  25.001  1.00  0.00     0.256 C 
HETATM   11  N   UNL     1       8.861  -3.496  24.745  1.00  0.00    -0.308 N 
ATOM     12  HN  UNL     1       9.215  -3.861  23.861  1.00  0.00     0.170 HD
HETATM   13  O   UNL     1       8.837  -1.601  26.013  1.00  0.00    -0.268 OA
BRANCH  11  14
HETATM   14  C   UNL     1       8.218  -4.348  25.530  1.00  0.00     0.123 C 
HETATM   15  N   UNL     1       8.782  -5.059  26.555  1.00  0.00    -0.286 N 
HETATM   16  N   UNL     1       7.983  -5.852  27.135  1.00  0.00    -0.310 N 
ATOM     17  HN  UNL     1       9.759  -4.960  26.828  1.00  0.00     0.188 HD
HETATM   18  C   UNL     1       6.775  -5.623  26.662  1.00  0.00     0.111 C 
ATOM     19  HN  UNL     1       8.230  -6.544  27.842  1.00  0.00     0.186 HD
HETATM   20  C   UNL     1       6.856  -4.576  25.484  1.00  0.00     0.068 C 
ENDBRANCH  11  14
ENDBRANCH   9  10
BRANCH   1  21
HETATM   21  C   UNL     1       8.920  -0.539  21.524  1.00  0.00    -0.021 C 
BRANCH  21  22
HETATM   22  N   UNL     1       8.657  -0.199  20.406  1.00  0.00    -0.236 N 
ATOM     23  HN  UNL     1       9.435  -0.126  19.750  1.00  0.00     0.189 HD
BRANCH  22  24
HETATM   24  S   UNL     1       7.174   0.157  19.838  1.00  0.00     0.327 S 
HETATM   25 CL   UNL     1       6.541   1.621  20.926  1.00  0.00     0.042 Cl
HETATM   26  O   UNL     1       7.295   0.678  18.517  1.00  0.00    -0.188 OA
HETATM   27  O   UNL     1       6.265  -0.893  20.009  1.00  0.00    -0.188 OA
ENDBRANCH  22  24
ENDBRANCH  21  22
ENDBRANCH   1  21
TORSDOF 5
ENDMDL
MODEL 3
REMARK VINA RESULT:    -7.196      3.393      6.265
REMARK INTER + INTRA:         -10.185
REMARK INTER:                  -9.287
REMARK INTRA:                  -0.897
REMARK UNBOUND:                -0.885
REMARK  5 active torsions:
REMARK  status: ('A' for Active; 'I' for Inactive)
REMARK    1  A    between atoms: S_2  and  N_5 
REMARK    2  A    between atoms: N_5  and  C_7 
REMARK    3  A    between atoms: C_7  and  C_8 
REMARK    4  A    between atoms: C_16  and  C_17 
REMARK       I    between atoms: C_17  and  N_19 
REMARK    5  A    between atoms: N_19  and  C_21 
ROOT
HETATM    1  C   UNL     1       7.781  -1.352  22.219  1.00  0.00     0.038 A 
HETATM    2  C   UNL     1       9.132  -1.542  23.006  1.00  0.00     0.070 A 
HETATM    3  C   UNL     1      10.488  -1.718  22.519  1.00  0.00     0.125 A 
HETATM    4  N   UNL     1      11.551  -1.494  22.708  1.00  0.00    -0.404 N 
ATOM      5  HN  UNL     1      12.369  -1.810  22.188  1.00  0.00     0.154 HD
HETATM    6  C   UNL     1      11.507  -0.786  23.677  1.00  0.00     0.124 A 
HETATM    7  C   UNL     1      10.601  -0.190  24.325  1.00  0.00    -0.003 C 
HETATM    8  C   UNL     1       9.620  -0.487  23.893  1.00  0.00    -0.006 C 
HETATM    9  C   UNL     1       8.345  -2.390  23.345  1.00  0.00     0.047 A 
ENDROOT
BRANCH   9  10
HETATM   10  C   UNL     1       7.998  -3.580  24.106  1.00  0.00     0.256 C 
HETATM   11  N   UNL     1       7.780  -3.362  25.408  1.00  0.00    -0.308 N 
ATOM     12  HN  UNL     1       7.803  -2.392  25.722  1.00  0.00     0.170 HD
HETATM   13  O   UNL     1       7.931  -4.630  23.518  1.00  0.00    -0.268 OA
BRANCH  11  14
HETATM   14  C   UNL     1       7.536  -4.284  26.327  1.00  0.00     0.123 C 
HETATM   15  N   UNL     1       8.378  -5.313  26.657  1.00  0.00    -0.286 N 
HETATM   16  N   UNL     1       7.911  -6.102  27.529  1.00  0.00    -0.310 N 
ATOM     17  HN  UNL     1       9.299  -5.433  26.237  1.00  0.00     0.188 HD
HETATM   18  C   UNL     1       6.789  -5.582  27.983  1.00  0.00     0.111 C 
ATOM     19  HN  UNL     1       8.329  -6.984  27.828  1.00  0.00     0.186 HD
HETATM   20  C   UNL     1       6.430  -4.289  27.154  1.00  0.00     0.068 C 
ENDBRANCH  11  14
ENDBRANCH   9  10
BRANCH   1  21
HETATM   21  C   UNL     1       7.103  -0.904  21.474  1.00  0.00    -0.021 C 
BRANCH  21  22
HETATM   22  N   UNL     1       6.239  -0.734  20.663  1.00  0.00    -0.236 N 
ATOM     23  HN  UNL     1       5.295  -1.016  20.927  1.00  0.00     0.189 HD
BRANCH  22  24
HETATM   24  S   UNL     1       6.433  -0.094  19.179  1.00  0.00     0.327 S 
HETATM   25 CL   UNL     1       5.341   1.499  19.156  1.00  0.00     0.042 Cl
HETATM   26  O   UNL     1       7.778   0.355  19.038  1.00  0.00    -0.188 OA
HETATM   27  O   UNL     1       5.949  -0.927  18.165  1.00  0.00    -0.188 OA
ENDBRANCH  22  24
ENDBRANCH  21  22
ENDBRANCH   1  21
TORSDOF 5
ENDMDL
MODEL 4
REMARK VINA RESULT:    -7.123      3.372      6.370
REMARK INTER + INTRA:         -10.090
REMARK INTER:                  -9.223
REMARK INTRA:                  -0.867
REMARK UNBOUND:                -0.885
REMARK  5 active torsions:
REMARK  status: ('A' for Active; 'I' for Inactive)
REMARK    1  A    between atoms: S_2  and  N_5 
REMARK    2  A    between atoms: N_5  and  C_7 
REMARK    3  A    between atoms: C_7  and  C_8 
REMARK    4  A    between atoms: C_16  and  C_17 
REMARK       I    between atoms: C_17  and  N_19 
REMARK    5  A    between atoms: N_19  and  C_21 
ROOT
HETATM    1  C   UNL     1       6.816  -2.103  21.666  1.00  0.00     0.038 A 
HETATM    2  C   UNL     1       6.896  -3.345  22.633  1.00  0.00     0.070 A 
HETATM    3  C   UNL     1       5.913  -3.885  23.553  1.00  0.00     0.125 A 
HETATM    4  N   UNL     1       5.505  -4.808  23.998  1.00  0.00    -0.404 N 
ATOM      5  HN  UNL     1       4.788  -4.904  24.717  1.00  0.00     0.154 HD
HETATM    6  C   UNL     1       6.114  -5.671  23.428  1.00  0.00     0.124 A 
HETATM    7  C   UNL     1       6.892  -5.729  22.434  1.00  0.00    -0.003 C 
HETATM    8  C   UNL     1       7.082  -4.688  22.089  1.00  0.00    -0.006 C 
HETATM    9  C   UNL     1       7.805  -2.587  22.871  1.00  0.00     0.047 A 
ENDROOT
BRANCH   9  10
HETATM   10  C   UNL     1       8.961  -2.187  23.657  1.00  0.00     0.256 C 
HETATM   11  N   UNL     1       9.913  -1.557  22.959  1.00  0.00    -0.308 N 
ATOM     12  HN  UNL     1       9.710  -1.355  21.981  1.00  0.00     0.170 HD
HETATM   13  O   UNL     1       8.964  -2.441  24.834  1.00  0.00    -0.268 OA
BRANCH  11  14
HETATM   14  C   UNL     1      11.094  -1.171  23.417  1.00  0.00     0.123 C 
HETATM   15  N   UNL     1      11.295  -0.361  24.504  1.00  0.00    -0.286 N 
HETATM   16  N   UNL     1      12.510  -0.083  24.723  1.00  0.00    -0.310 N 
ATOM     17  HN  UNL     1      10.533  -0.012  25.084  1.00  0.00     0.188 HD
HETATM   18  C   UNL     1      13.244  -0.813  23.909  1.00  0.00     0.111 C 
ATOM     19  HN  UNL     1      12.859   0.587  25.409  1.00  0.00     0.186 HD
HETATM   20  C   UNL     1      12.307  -1.604  22.916  1.00  0.00     0.068 C 
ENDBRANCH  11  14
ENDBRANCH   9  10
BRANCH   1  21
HETATM   21  C   UNL     1       6.377  -1.462  20.885  1.00  0.00    -0.021 C 
BRANCH  21  22
HETATM   22  N   UNL     1       5.614  -0.834  20.209  1.00  0.00    -0.236 N 
ATOM     23  HN  UNL     1       4.622  -0.917  20.432  1.00  0.00     0.189 HD
BRANCH  22  24
HETATM   24  S   UNL     1       6.014   0.140  18.967  1.00  0.00     0.327 S 
HETATM   25 CL   UNL     1       5.001   1.763  19.235  1.00  0.00     0.042 Cl
HETATM   26  O   UNL     1       7.384   0.512  19.091  1.00  0.00    -0.188 OA
HETATM   27  O   UNL     1       5.623  -0.378  17.728  1.00  0.00    -0.188 OA
ENDBRANCH  22  24
ENDBRANCH  21  22
ENDBRANCH   1  21
TORSDOF 5
ENDMDL
MODEL 5
REMARK VINA RESULT:    -6.993      4.008      5.964
REMARK INTER + INTRA:          -9.922
REMARK INTER:                  -9.000
REMARK INTRA:                  -0.923
REMARK UNBOUND:                -0.885
REMARK  5 active torsions:
REMARK  status: ('A' for Active; 'I' for Inactive)
REMARK    1  A    between atoms: S_2  and  N_5 
REMARK    2  A    between atoms: N_5  and  C_7 
REMARK    3  A    between atoms: C_7  and  C_8 
REMARK    4  A    between atoms: C_16  and  C_17 
REMARK       I    between atoms: C_17  and  N_19 
REMARK    5  A    between atoms: N_19  and  C_21 
ROOT
HETATM    1  C   UNL     1       7.924  -4.804  25.195  1.00  0.00     0.038 A 
HETATM    2  C   UNL     1       7.406  -4.723  23.709  1.00  0.00     0.070 A 
HETATM    3  C   UNL     1       7.470  -5.699  22.636  1.00  0.00     0.125 A 
HETATM    4  N   UNL     1       6.945  -6.111  21.759  1.00  0.00    -0.404 N 
ATOM      5  HN  UNL     1       7.268  -6.818  21.098  1.00  0.00     0.154 HD
HETATM    6  C   UNL     1       5.899  -5.521  21.773  1.00  0.00     0.124 A 
HETATM    7  C   UNL     1       5.296  -4.759  22.580  1.00  0.00    -0.003 C 
HETATM    8  C   UNL     1       5.979  -4.562  23.436  1.00  0.00    -0.006 C 
HETATM    9  C   UNL     1       8.154  -3.802  23.926  1.00  0.00     0.047 A 
ENDROOT
BRANCH   9  10
HETATM   10  C   UNL     1       8.896  -2.629  23.492  1.00  0.00     0.256 C 
HETATM   11  N   UNL     1       9.525  -1.976  24.475  1.00  0.00    -0.308 N 
ATOM     12  HN  UNL     1       9.488  -2.396  25.404  1.00  0.00     0.170 HD
HETATM   13  O   UNL     1       8.888  -2.355  22.319  1.00  0.00    -0.268 OA
BRANCH  11  14
HETATM   14  C   UNL     1      10.191  -0.837  24.359  1.00  0.00     0.123 C 
HETATM   15  N   UNL     1      11.173  -0.586  23.437  1.00  0.00    -0.286 N 
HETATM   16  N   UNL     1      11.706   0.557  23.548  1.00  0.00    -0.310 N 
ATOM     17  HN  UNL     1      11.451  -1.260  22.724  1.00  0.00     0.188 HD
HETATM   18  C   UNL     1      11.018   1.236  24.444  1.00  0.00     0.111 C 
ATOM     19  HN  UNL     1      12.522   0.892  23.036  1.00  0.00     0.186 HD
HETATM   20  C   UNL     1       9.928   0.300  25.097  1.00  0.00     0.068 C 
ENDBRANCH  11  14
ENDBRANCH   9  10
BRANCH   1  21
HETATM   21  C   UNL     1       8.046  -5.247  26.196  1.00  0.00    -0.021 C 
BRANCH  21  22
HETATM   22  N   UNL     1       7.892  -5.890  27.194  1.00  0.00    -0.236 N 
ATOM     23  HN  UNL     1       8.690  -6.435  27.521  1.00  0.00     0.189 HD
BRANCH  22  24
HETATM   24  S   UNL     1       6.527  -5.976  28.076  1.00  0.00     0.327 S 
HETATM   25 CL   UNL     1       5.656  -4.267  27.849  1.00  0.00     0.042 Cl
HETATM   26  O   UNL     1       5.654  -6.938  27.490  1.00  0.00    -0.188 OA
HETATM   27  O   UNL     1       6.777  -6.120  29.445  1.00  0.00    -0.188 OA
ENDBRANCH  22  24
ENDBRANCH  21  22
ENDBRANCH   1  21
TORSDOF 5
ENDMDL
MODEL 6
REMARK VINA RESULT:    -6.959     24.728     26.423
REMARK INTER + INTRA:          -9.878
REMARK INTER:                  -9.104
REMARK INTRA:                  -0.774
REMARK UNBOUND:                -0.885
REMARK  5 active torsions:
REMARK  status: ('A' for Active; 'I' for Inactive)
REMARK    1  A    between atoms: S_2  and  N_5 
REMARK    2  A    between atoms: N_5  and  C_7 
REMARK    3  A    between atoms: C_7  and  C_8 
REMARK    4  A    between atoms: C_16  and  C_17 
REMARK       I    between atoms: C_17  and  N_19 
REMARK    5  A    between atoms: N_19  and  C_21 
ROOT
HETATM    1  C   UNL     1       8.221  15.010   2.253  1.00  0.00     0.038 A 
HETATM    2  C   UNL     1       8.599  16.463   1.772  1.00  0.00     0.070 A 
HETATM    3  C   UNL     1       9.236  16.912   0.547  1.00  0.00     0.125 A 
HETATM    4  N   UNL     1       9.274  17.714  -0.208  1.00  0.00    -0.404 N 
ATOM      5  HN  UNL     1       9.903  17.807  -1.005  1.00  0.00     0.154 HD
HETATM    6  C   UNL     1       8.392  18.451   0.140  1.00  0.00     0.124 A 
HETATM    7  C   UNL     1       7.448  18.405   0.979  1.00  0.00    -0.003 C 
HETATM    8  C   UNL     1       7.553  17.461   1.559  1.00  0.00    -0.006 C 
HETATM    9  C   UNL     1       9.110  16.246   2.843  1.00  0.00     0.047 A 
ENDROOT
BRANCH   9  10
HETATM   10  C   UNL     1       9.971  16.634   3.949  1.00  0.00     0.256 C 
HETATM   11  N   UNL     1      10.677  17.750   3.736  1.00  0.00    -0.308 N 
ATOM     12  HN  UNL     1      10.492  18.254   2.869  1.00  0.00     0.170 HD
HETATM   13  O   UNL     1       9.972  15.944   4.936  1.00  0.00    -0.268 OA
BRANCH  11  14
HETATM   14  C   UNL     1      11.592  18.264   4.544  1.00  0.00     0.123 C 
HETATM   15  N   UNL     1      12.942  18.046   4.450  1.00  0.00    -0.286 N 
HETATM   16  N   UNL     1      13.619  18.600   5.365  1.00  0.00    -0.310 N 
ATOM     17  HN  UNL     1      13.364  17.487   3.710  1.00  0.00     0.188 HD
HETATM   18  C   UNL     1      12.806  19.374   6.055  1.00  0.00     0.111 C 
ATOM     19  HN  UNL     1      14.616  18.471   5.537  1.00  0.00     0.186 HD
HETATM   20  C   UNL     1      11.325  19.172   5.550  1.00  0.00     0.068 C 
ENDBRANCH  11  14
ENDBRANCH   9  10
BRANCH   1  21
HETATM   21  C   UNL     1       7.774  14.007   2.170  1.00  0.00    -0.021 C 
BRANCH  21  22
HETATM   22  N   UNL     1       7.608  12.821   2.161  1.00  0.00    -0.236 N 
ATOM     23  HN  UNL     1       7.564  12.368   1.248  1.00  0.00     0.189 HD
BRANCH  22  24
HETATM   24  S   UNL     1       7.446  11.867   3.470  1.00  0.00     0.327 S 
HETATM   25 CL   UNL     1       6.353  12.868   4.708  1.00  0.00     0.042 Cl
HETATM   26  O   UNL     1       6.679  10.719   3.116  1.00  0.00    -0.188 OA
HETATM   27  O   UNL     1       8.663  11.624   4.114  1.00  0.00    -0.188 OA
ENDBRANCH  22  24
ENDBRANCH  21  22
ENDBRANCH   1  21
TORSDOF 5
ENDMDL
MODEL 7
REMARK VINA RESULT:    -6.773     20.916     23.101
REMARK INTER + INTRA:          -9.639
REMARK INTER:                  -8.754
REMARK INTRA:                  -0.885
REMARK UNBOUND:                -0.885
REMARK  5 active torsions:
REMARK  status: ('A' for Active; 'I' for Inactive)
REMARK    1  A    between atoms: S_2  and  N_5 
REMARK    2  A    between atoms: N_5  and  C_7 
REMARK    3  A    between atoms: C_7  and  C_8 
REMARK    4  A    between atoms: C_16  and  C_17 
REMARK       I    between atoms: C_17  and  N_19 
REMARK    5  A    between atoms: N_19  and  C_21 
ROOT
HETATM    1  C   UNL     1       5.547   9.920   4.026  1.00  0.00     0.038 A 
HETATM    2  C   UNL     1       5.219  11.333   3.411  1.00  0.00     0.070 A 
HETATM    3  C   UNL     1       4.715  11.693   2.098  1.00  0.00     0.125 A 
HETATM    4  N   UNL     1       4.071  12.391   1.539  1.00  0.00    -0.404 N 
ATOM      5  HN  UNL     1       3.925  12.454   0.532  1.00  0.00     0.154 HD
HETATM    6  C   UNL     1       3.584  13.060   2.409  1.00  0.00     0.124 A 
HETATM    7  C   UNL     1       3.535  13.013   3.671  1.00  0.00    -0.003 C 
HETATM    8  C   UNL     1       4.178  12.169   4.006  1.00  0.00    -0.006 C 
HETATM    9  C   UNL     1       6.363  11.316   3.792  1.00  0.00     0.047 A 
ENDROOT
BRANCH   9  10
HETATM   10  C   UNL     1       7.669  11.937   3.943  1.00  0.00     0.256 C 
HETATM   11  N   UNL     1       7.694  13.246   3.665  1.00  0.00    -0.308 N 
ATOM     12  HN  UNL     1       6.801  13.689   3.453  1.00  0.00     0.170 HD
HETATM   13  O   UNL     1       8.589  11.247   4.300  1.00  0.00    -0.268 OA
BRANCH  11  14
HETATM   14  C   UNL     1       8.768  14.021   3.641  1.00  0.00     0.123 C 
HETATM   15  N   UNL     1       9.920  13.755   2.948  1.00  0.00    -0.286 N 
HETATM   16  N   UNL     1      10.833  14.615   3.116  1.00  0.00    -0.310 N 
ATOM     17  HN  UNL     1      10.031  12.937   2.349  1.00  0.00     0.188 HD
HETATM   18  C   UNL     1      10.322  15.617   3.801  1.00  0.00     0.111 C 
ATOM     19  HN  UNL     1      11.794  14.544   2.781  1.00  0.00     0.186 HD
HETATM   20  C   UNL     1       8.850  15.261   4.244  1.00  0.00     0.068 C 
ENDBRANCH  11  14
ENDBRANCH   9  10
BRANCH   1  21
HETATM   21  C   UNL     1       5.355   8.869   4.295  1.00  0.00    -0.021 C 
BRANCH  21  22
HETATM   22  N   UNL     1       5.274   7.675   4.275  1.00  0.00    -0.236 N 
ATOM     23  HN  UNL     1       6.087   7.151   4.600  1.00  0.00     0.189 HD
BRANCH  22  24
HETATM   24  S   UNL     1       3.987   6.811   3.778  1.00  0.00     0.327 S 
HETATM   25 CL   UNL     1       3.948   5.244   4.907  1.00  0.00     0.042 Cl
HETATM   26  O   UNL     1       2.797   7.536   4.078  1.00  0.00    -0.188 OA
HETATM   27  O   UNL     1       4.120   6.356   2.462  1.00  0.00    -0.188 OA
ENDBRANCH  22  24
ENDBRANCH  21  22
ENDBRANCH   1  21
TORSDOF 5
ENDMDL
MODEL 8
REMARK VINA RESULT:    -6.769      1.604      5.449
REMARK INTER + INTRA:          -9.633
REMARK INTER:                  -8.758
REMARK INTRA:                  -0.876
REMARK UNBOUND:                -0.885
REMARK  5 active torsions:
REMARK  status: ('A' for Active; 'I' for Inactive)
REMARK    1  A    between atoms: S_2  and  N_5 
REMARK    2  A    between atoms: N_5  and  C_7 
REMARK    3  A    between atoms: C_7  and  C_8 
REMARK    4  A    between atoms: C_16  and  C_17 
REMARK       I    between atoms: C_17  and  N_19 
REMARK    5  A    between atoms: N_19  and  C_21 
ROOT
HETATM    1  C   UNL     1       6.550  -1.486  21.220  1.00  0.00     0.038 A 
HETATM    2  C   UNL     1       6.692  -0.271  20.228  1.00  0.00     0.070 A 
HETATM    3  C   UNL     1       6.765  -0.243  18.778  1.00  0.00     0.125 A 
HETATM    4  N   UNL     1       6.486   0.318  17.871  1.00  0.00    -0.404 N 
ATOM      5  HN  UNL     1       6.731   0.120  16.901  1.00  0.00     0.154 HD
HETATM    6  C   UNL     1       5.825   1.219  18.308  1.00  0.00     0.124 A 
HETATM    7  C   UNL     1       5.311   1.511  19.425  1.00  0.00    -0.003 C 
HETATM    8  C   UNL     1       5.648   0.751  20.164  1.00  0.00    -0.006 C 
HETATM    9  C   UNL     1       7.600  -0.252  21.022  1.00  0.00     0.047 A 
ENDROOT
BRANCH   9  10
HETATM   10  C   UNL     1       8.839   0.313  21.531  1.00  0.00     0.256 C 
HETATM   11  N   UNL     1       9.535  -0.507  22.328  1.00  0.00    -0.308 N 
ATOM     12  HN  UNL     1       9.176  -1.455  22.439  1.00  0.00     0.170 HD
HETATM   13  O   UNL     1       9.132   1.433  21.199  1.00  0.00    -0.268 OA
BRANCH  11  14
HETATM   14  C   UNL     1      10.645  -0.206  22.985  1.00  0.00     0.123 C 
HETATM   15  N   UNL     1      10.950   1.027  23.499  1.00  0.00    -0.286 N 
HETATM   16  N   UNL     1      12.091   1.092  24.042  1.00  0.00    -0.310 N 
ATOM     17  HN  UNL     1      10.314   1.822  23.449  1.00  0.00     0.188 HD
HETATM   18  C   UNL     1      12.585  -0.129  24.089  1.00  0.00     0.111 C 
ATOM     19  HN  UNL     1      12.548   1.938  24.382  1.00  0.00     0.186 HD
HETATM   20  C   UNL     1      11.623  -1.120  23.326  1.00  0.00     0.068 C 
ENDBRANCH  11  14
ENDBRANCH   9  10
BRANCH   1  21
HETATM   21  C   UNL     1       6.112  -2.416  21.618  1.00  0.00    -0.021 C 
BRANCH  21  22
HETATM   22  N   UNL     1       5.461  -3.410  21.758  1.00  0.00    -0.236 N 
ATOM     23  HN  UNL     1       4.575  -3.458  21.254  1.00  0.00     0.189 HD
BRANCH  22  24
HETATM   24  S   UNL     1       5.857  -4.692  22.680  1.00  0.00     0.327 S 
HETATM   25 CL   UNL     1       7.115  -5.715  21.630  1.00  0.00     0.042 Cl
HETATM   26  O   UNL     1       6.582  -4.239  23.820  1.00  0.00    -0.188 OA
HETATM   27  O   UNL     1       4.768  -5.532  22.933  1.00  0.00    -0.188 OA
ENDBRANCH  22  24
ENDBRANCH  21  22
ENDBRANCH   1  21
TORSDOF 5
ENDMDL
MODEL 9
REMARK VINA RESULT:    -6.560     24.867     26.720
REMARK INTER + INTRA:          -9.363
REMARK INTER:                  -8.328
REMARK INTRA:                  -1.035
REMARK UNBOUND:                -0.885
REMARK  5 active torsions:
REMARK  status: ('A' for Active; 'I' for Inactive)
REMARK    1  A    between atoms: S_2  and  N_5 
REMARK    2  A    between atoms: N_5  and  C_7 
REMARK    3  A    between atoms: C_7  and  C_8 
REMARK    4  A    between atoms: C_16  and  C_17 
REMARK       I    between atoms: C_17  and  N_19 
REMARK    5  A    between atoms: N_19  and  C_21 
ROOT
HETATM    1  C   UNL     1       7.897  16.525   1.681  1.00  0.00     0.038 A 
HETATM    2  C   UNL     1       8.684  15.599   2.684  1.00  0.00     0.070 A 
HETATM    3  C   UNL     1       9.953  14.911   2.531  1.00  0.00     0.125 A 
HETATM    4  N   UNL     1      10.871  14.585   3.047  1.00  0.00    -0.404 N 
ATOM      5  HN  UNL     1      11.642  14.028   2.681  1.00  0.00     0.154 HD
HETATM    6  C   UNL     1      10.737  15.048   4.147  1.00  0.00     0.124 A 
HETATM    7  C   UNL     1       9.948  15.866   4.699  1.00  0.00    -0.003 C 
HETATM    8  C   UNL     1       9.162  16.134   3.957  1.00  0.00    -0.006 C 
HETATM    9  C   UNL     1       7.573  15.161   2.517  1.00  0.00     0.047 A 
ENDROOT
BRANCH   9  10
HETATM   10  C   UNL     1       6.553  14.148   2.738  1.00  0.00     0.256 C 
HETATM   11  N   UNL     1       6.686  13.053   1.979  1.00  0.00    -0.308 N 
ATOM     12  HN  UNL     1       7.514  13.002   1.386  1.00  0.00     0.170 HD
HETATM   13  O   UNL     1       5.704  14.367   3.564  1.00  0.00    -0.268 OA
BRANCH  11  14
HETATM   14  C   UNL     1       5.847  12.031   1.925  1.00  0.00     0.123 C 
HETATM   15  N   UNL     1       4.531  12.106   1.552  1.00  0.00    -0.286 N 
HETATM   16  N   UNL     1       3.909  11.007   1.626  1.00  0.00    -0.310 N 
ATOM     17  HN  UNL     1       4.091  12.972   1.241  1.00  0.00     0.188 HD
HETATM   18  C   UNL     1       4.789  10.064   1.896  1.00  0.00     0.111 C 
ATOM     19  HN  UNL     1       2.905  10.874   1.501  1.00  0.00     0.186 HD
HETATM   20  C   UNL     1       6.202  10.715   2.154  1.00  0.00     0.068 C 
ENDBRANCH  11  14
ENDBRANCH   9  10
BRANCH   1  21
HETATM   21  C   UNL     1       7.763  17.359   0.974  1.00  0.00    -0.021 C 
BRANCH  21  22
HETATM   22  N   UNL     1       7.936  18.338   0.306  1.00  0.00    -0.236 N 
ATOM     23  HN  UNL     1       7.577  18.316  -0.648  1.00  0.00     0.189 HD
BRANCH  22  24
HETATM   24  S   UNL     1       8.689  19.700   0.783  1.00  0.00     0.327 S 
HETATM   25 CL   UNL     1      10.024  19.134   2.059  1.00  0.00     0.042 Cl
HETATM   26  O   UNL     1       9.412  20.241  -0.320  1.00  0.00    -0.188 OA
HETATM   27  O   UNL     1       7.837  20.580   1.456  1.00  0.00    -0.188 OA
ENDBRANCH  22  24
ENDBRANCH  21  22
ENDBRANCH   1  21
TORSDOF 5
ENDMDL
