REMARK  5 active torsions:
REMARK  status: ('A' for Active; 'I' for Inactive)
REMARK    1  A    between atoms: S_2  and  N_5 
REMARK    2  A    between atoms: N_5  and  C_7 
REMARK    3  A    between atoms: C_7  and  C_8 
REMARK    4  A    between atoms: C_16  and  C_17 
REMARK       I    between atoms: C_17  and  N_19 
REMARK    5  A    between atoms: N_19  and  C_21 
ROOT
HETATM    1  C   UNL     1       9.463  -2.052  23.603  1.00  0.00     0.038 A 
HETATM    2  C   UNL     1      10.628  -1.045  23.268  1.00  0.00     0.070 A 
HETATM    3  C   UNL     1      11.347  -0.120  24.125  1.00  0.00     0.125 A 
HETATM    4  N   UNL     1      12.324   0.349  24.327  1.00  0.00    -0.404 N 
ATOM      5  HN  UNL     1      12.556   1.062  25.018  1.00  0.00     0.154 HD
HETATM    6  C   UNL     1      13.047  -0.187  23.532  1.00  0.00     0.124 A 
HETATM    7  C   UNL     1      12.959  -1.169  22.742  1.00  0.00    -0.003 C 
HETATM    8  C   UNL     1      11.912  -1.544  22.780  1.00  0.00    -0.006 C 
HETATM    9  C   UNL     1       9.682  -0.820  22.554  1.00  0.00     0.047 A 
ENDROOT
BRANCH   9  10
HETATM   10  C   UNL     1       9.014  -0.034  21.529  1.00  0.00     0.256 C 
HETATM   11  N   UNL     1       7.849  -0.543  21.112  1.00  0.00    -0.308 N 
ATOM     12  HN  UNL     1       7.511  -1.375  21.595  1.00  0.00     0.170 HD
HETATM   13  O   UNL     1       9.544   0.982  21.157  1.00  0.00    -0.268 OA
BRANCH  11  14
HETATM   14  C   UNL     1       7.093  -0.070  20.133  1.00  0.00     0.123 C 
HETATM   15  N   UNL     1       7.384  -0.155  18.797  1.00  0.00    -0.286 N 
HETATM   16  N   UNL     1       6.539   0.415  18.047  1.00  0.00    -0.310 N 
ATOM     17  HN  UNL     1       8.209  -0.635  18.438  1.00  0.00     0.188 HD
HETATM   18  C   UNL     1       5.522   0.788  18.797  1.00  0.00     0.111 C 
ATOM     19  HN  UNL     1       6.629   0.560  17.041  1.00  0.00     0.186 HD
HETATM   20  C   UNL     1       5.849   0.503  20.314  1.00  0.00     0.068 C 
ENDBRANCH  11  14
ENDBRANCH   9  10
BRANCH   1  21
HETATM   21  C   UNL     1       8.957  -2.858  24.158  1.00  0.00    -0.021 C 
BRANCH  21  22
HETATM   22  N   UNL     1       8.130  -3.560  24.664  1.00  0.00    -0.236 N 
ATOM     23  HN  UNL     1       7.270  -3.715  24.138  1.00  0.00     0.189 HD
BRANCH  22  24
HETATM   24  S   UNL     1       8.252  -4.290  26.114  1.00  0.00     0.327 S 
HETATM   25 CL   UNL     1       6.481  -4.950  26.512  1.00  0.00     0.042 Cl
HETATM   26  O   UNL     1       9.077  -5.445  25.985  1.00  0.00    -0.188 OA
HETATM   27  O   UNL     1       8.589  -3.400  27.139  1.00  0.00    -0.188 OA
ENDBRANCH  22  24
ENDBRANCH  21  22
ENDBRANCH   1  21
TORSDOF 5
