MODEL 1
REMARK VINA RESULT:    -5.065      0.000      0.000
REMARK INTER + INTRA:          -5.489
REMARK INTER:                  -5.509
REMARK INTRA:                   0.020
REMARK UNBOUND:                 0.020
REMARK  2 active torsions:
REMARK  status: ('A' for Active; 'I' for Inactive)
REMARK    1  A    between atoms: N_6  and  C_14 
REMARK    2  A    between atoms: C_11  and  O_13 
ROOT
HETATM    1  C   UNL     1      12.501  -0.801  23.685  1.00  0.00     0.034 C 
HETATM    2  H   UNL     1       9.181  -2.267  21.225  1.00  0.00     0.224 HD
HETATM    3  C   UNL     1       9.340   0.480  22.603  1.00  0.00    -0.020 C 
HETATM    4  C   UNL     1      12.205   0.477  24.227  1.00  0.00     0.003 C 
HETATM    5  N   UNL     1       8.619  -0.370  22.012  1.00  0.00    -0.225 N 
HETATM    6  C   UNL     1       9.961   1.386  23.206  1.00  0.00     0.076 C 
HETATM    7  C   UNL     1      11.733  -1.560  22.760  1.00  0.00     0.210 C 
HETATM    8  N   UNL     1      10.571  -1.335  22.339  1.00  0.00    -0.322 NA
HETATM    9  N   UNL     1       9.467  -1.493  21.783  1.00  0.00    -0.167 N 
HETATM   10  C   UNL     1      11.133   1.353  24.025  1.00  0.00     0.010 C 
ENDROOT
BRANCH   5  11
HETATM   11  C   UNL     1       7.300  -0.149  21.772  1.00  0.00     0.150 A 
HETATM   12  C   UNL     1       6.854   0.962  20.677  1.00  0.00     0.064 A 
HETATM   13  C   UNL     1       6.809  -0.429  20.249  1.00  0.00     0.146 A 
BRANCH  13  14
HETATM   14  O   UNL     1       5.650  -1.212  20.254  1.00  0.00    -0.393 OA
HETATM   15  H   UNL     1       5.442  -1.240  19.312  1.00  0.00     0.210 HD
ENDBRANCH  13  14
ENDBRANCH   5  11
TORSDOF 2
ENDMDL
MODEL 2
REMARK VINA RESULT:    -4.816     13.875     15.111
REMARK INTER + INTRA:          -5.218
REMARK INTER:                  -5.246
REMARK INTRA:                   0.028
REMARK UNBOUND:                 0.020
REMARK  2 active torsions:
REMARK  status: ('A' for Active; 'I' for Inactive)
REMARK    1  A    between atoms: N_6  and  C_14 
REMARK    2  A    between atoms: C_11  and  O_13 
ROOT
HETATM    1  C   UNL     1      22.417   0.269  26.276  1.00  0.00     0.034 C 
HETATM    2  H   UNL     1      23.934  -3.557  27.787  1.00  0.00     0.224 HD
HETATM    3  C   UNL     1      22.971  -2.995  24.918  1.00  0.00    -0.020 C 
HETATM    4  C   UNL     1      21.988   0.148  24.929  1.00  0.00     0.003 C 
HETATM    5  N   UNL     1      23.290  -3.859  25.781  1.00  0.00    -0.225 N 
HETATM    6  C   UNL     1      22.626  -2.222  23.993  1.00  0.00     0.076 C 
HETATM    7  C   UNL     1      23.061  -0.709  27.082  1.00  0.00     0.210 C 
HETATM    8  N   UNL     1      23.257  -1.923  26.829  1.00  0.00    -0.322 NA
HETATM    9  N   UNL     1      23.548  -3.126  26.975  1.00  0.00    -0.167 N 
HETATM   10  C   UNL     1      22.071  -0.905  24.011  1.00  0.00     0.010 C 
ENDROOT
BRANCH   5  11
HETATM   11  C   UNL     1      23.276  -5.189  25.501  1.00  0.00     0.150 A 
HETATM   12  C   UNL     1      24.418  -5.822  24.537  1.00  0.00     0.064 A 
HETATM   13  C   UNL     1      24.594  -6.015  25.970  1.00  0.00     0.146 A 
BRANCH  13  14
HETATM   14  O   UNL     1      24.215  -7.175  26.655  1.00  0.00    -0.393 OA
HETATM   15  H   UNL     1      24.980  -7.309  27.228  1.00  0.00     0.210 HD
ENDBRANCH  13  14
ENDBRANCH   5  11
TORSDOF 2
ENDMDL
MODEL 3
REMARK VINA RESULT:    -4.782     26.513     27.964
REMARK INTER + INTRA:          -5.180
REMARK INTER:                  -5.246
REMARK INTRA:                   0.065
REMARK UNBOUND:                 0.020
REMARK  2 active torsions:
REMARK  status: ('A' for Active; 'I' for Inactive)
REMARK    1  A    between atoms: N_6  and  C_14 
REMARK    2  A    between atoms: C_11  and  O_13 
ROOT
HETATM    1  C   UNL     1       9.529  21.120  -0.061  1.00  0.00     0.034 C 
HETATM    2  H   UNL     1       7.564  17.205   0.114  1.00  0.00     0.224 HD
HETATM    3  C   UNL     1       9.354  18.432   2.295  1.00  0.00    -0.020 C 
HETATM    4  C   UNL     1      10.341  21.332   1.083  1.00  0.00     0.003 C 
HETATM    5  N   UNL     1       8.777  17.402   1.852  1.00  0.00    -0.225 N 
HETATM    6  C   UNL     1       9.974  19.390   2.815  1.00  0.00     0.076 C 
HETATM    7  C   UNL     1       8.656  20.030  -0.327  1.00  0.00     0.210 C 
HETATM    8  N   UNL     1       8.525  18.959   0.317  1.00  0.00    -0.322 NA
HETATM    9  N   UNL     1       8.183  17.800   0.619  1.00  0.00    -0.167 N 
HETATM   10  C   UNL     1      10.521  20.586   2.254  1.00  0.00     0.010 C 
ENDROOT
BRANCH   5  11
HETATM   11  C   UNL     1       8.852  16.207   2.494  1.00  0.00     0.150 A 
HETATM   12  C   UNL     1       8.315  14.862   1.760  1.00  0.00     0.064 A 
HETATM   13  C   UNL     1       9.756  15.074   1.760  1.00  0.00     0.146 A 
BRANCH  13  14
HETATM   14  O   UNL     1      10.632  14.489   2.680  1.00  0.00    -0.393 OA
HETATM   15  H   UNL     1      11.186  13.956   2.096  1.00  0.00     0.210 HD
ENDBRANCH  13  14
ENDBRANCH   5  11
TORSDOF 2
ENDMDL
MODEL 4
REMARK VINA RESULT:    -4.741      3.611      4.964
REMARK INTER + INTRA:          -5.137
REMARK INTER:                  -5.173
REMARK INTRA:                   0.036
REMARK UNBOUND:                 0.020
REMARK  2 active torsions:
REMARK  status: ('A' for Active; 'I' for Inactive)
REMARK    1  A    between atoms: N_6  and  C_14 
REMARK    2  A    between atoms: C_11  and  O_13 
ROOT
HETATM    1  C   UNL     1      10.447  -1.079  22.080  1.00  0.00     0.034 C 
HETATM    2  H   UNL     1       9.650   3.201  21.563  1.00  0.00     0.224 HD
HETATM    3  C   UNL     1      11.399   1.936  23.756  1.00  0.00    -0.020 C 
HETATM    4  C   UNL     1      11.230  -1.313  23.240  1.00  0.00     0.003 C 
HETATM    5  N   UNL     1      10.795   2.963  23.341  1.00  0.00    -0.225 N 
HETATM    6  C   UNL     1      12.023   0.974  24.262  1.00  0.00     0.076 C 
HETATM    7  C   UNL     1      10.068   0.169  21.515  1.00  0.00     0.210 C 
HETATM    8  N   UNL     1      10.218   1.321  21.993  1.00  0.00    -0.322 NA
HETATM    9  N   UNL     1      10.114   2.552  22.160  1.00  0.00    -0.167 N 
HETATM   10  C   UNL     1      11.855  -0.441  24.138  1.00  0.00     0.010 C 
ENDROOT
BRANCH   5  11
HETATM   11  C   UNL     1      10.824   4.136  24.026  1.00  0.00     0.150 A 
HETATM   12  C   UNL     1      12.164   5.052  24.002  1.00  0.00     0.064 A 
HETATM   13  C   UNL     1      11.076   5.465  23.126  1.00  0.00     0.146 A 
BRANCH  13  14
HETATM   14  O   UNL     1      10.140   6.452  23.455  1.00  0.00    -0.393 OA
HETATM   15  H   UNL     1       9.710   6.590  22.602  1.00  0.00     0.210 HD
ENDBRANCH  13  14
ENDBRANCH   5  11
TORSDOF 2
ENDMDL
MODEL 5
REMARK VINA RESULT:    -4.736     22.819     24.395
REMARK INTER + INTRA:          -5.131
REMARK INTER:                  -5.304
REMARK INTRA:                   0.173
REMARK UNBOUND:                 0.020
REMARK  2 active torsions:
REMARK  status: ('A' for Active; 'I' for Inactive)
REMARK    1  A    between atoms: N_6  and  C_14 
REMARK    2  A    between atoms: C_11  and  O_13 
ROOT
HETATM    1  C   UNL     1       1.615 -22.107   8.990  1.00  0.00     0.034 C 
HETATM    2  H   UNL     1      -1.323 -18.931   9.705  1.00  0.00     0.224 HD
HETATM    3  C   UNL     1       1.662 -18.530   9.074  1.00  0.00    -0.020 C 
HETATM    4  C   UNL     1       2.913 -21.564   8.808  1.00  0.00     0.003 C 
HETATM    5  N   UNL     1       0.585 -18.014   9.481  1.00  0.00    -0.225 N 
HETATM    6  C   UNL     1       2.783 -18.943   8.694  1.00  0.00     0.076 C 
HETATM    7  C   UNL     1       0.386 -21.407   9.141  1.00  0.00     0.210 C 
HETATM    8  N   UNL     1       0.203 -20.174   9.289  1.00  0.00    -0.322 NA
HETATM    9  N   UNL     1      -0.354 -19.085   9.527  1.00  0.00    -0.167 N 
HETATM   10  C   UNL     1       3.371 -20.246   8.708  1.00  0.00     0.010 C 
ENDROOT
BRANCH   5  11
HETATM   11  C   UNL     1       0.505 -16.704   9.832  1.00  0.00     0.150 A 
HETATM   12  C   UNL     1      -0.296 -15.661   8.881  1.00  0.00     0.064 A 
HETATM   13  C   UNL     1      -0.998 -16.133  10.067  1.00  0.00     0.146 A 
BRANCH  13  14
HETATM   14  O   UNL     1      -1.059 -15.425  11.272  1.00  0.00    -0.393 OA
HETATM   15  H   UNL     1      -1.257 -14.535  10.954  1.00  0.00     0.210 HD
ENDBRANCH  13  14
ENDBRANCH   5  11
TORSDOF 2
ENDMDL
MODEL 6
REMARK VINA RESULT:    -4.705     24.875     26.722
REMARK INTER + INTRA:          -5.097
REMARK INTER:                  -5.175
REMARK INTRA:                   0.078
REMARK UNBOUND:                 0.020
REMARK  2 active torsions:
REMARK  status: ('A' for Active; 'I' for Inactive)
REMARK    1  A    between atoms: N_6  and  C_14 
REMARK    2  A    between atoms: C_11  and  O_13 
ROOT
HETATM    1  C   UNL     1       1.267 -24.860  10.121  1.00  0.00     0.034 C 
HETATM    2  H   UNL     1       0.384 -20.633   9.359  1.00  0.00     0.224 HD
HETATM    3  C   UNL     1       2.783 -22.212   8.252  1.00  0.00    -0.020 C 
HETATM    4  C   UNL     1       2.493 -25.238   9.517  1.00  0.00     0.003 C 
HETATM    5  N   UNL     1       2.252 -21.083   8.443  1.00  0.00    -0.225 N 
HETATM    6  C   UNL     1       3.401 -23.278   8.022  1.00  0.00     0.076 C 
HETATM    7  C   UNL     1       0.587 -23.615  10.019  1.00  0.00     0.210 C 
HETATM    8  N   UNL     1       0.989 -22.545   9.498  1.00  0.00    -0.322 NA
HETATM    9  N   UNL     1       1.058 -21.344   9.176  1.00  0.00    -0.167 N 
HETATM   10  C   UNL     1       3.368 -24.554   8.666  1.00  0.00     0.010 C 
ENDROOT
BRANCH   5  11
HETATM   11  C   UNL     1       2.851 -19.932   8.038  1.00  0.00     0.150 A 
HETATM   12  C   UNL     1       2.135 -18.505   8.331  1.00  0.00     0.064 A 
HETATM   13  C   UNL     1       3.224 -18.884   9.221  1.00  0.00     0.146 A 
BRANCH  13  14
HETATM   14  O   UNL     1       4.544 -18.444   9.074  1.00  0.00    -0.393 OA
HETATM   15  H   UNL     1       4.958 -18.839   9.851  1.00  0.00     0.210 HD
ENDBRANCH  13  14
ENDBRANCH   5  11
TORSDOF 2
ENDMDL
MODEL 7
REMARK VINA RESULT:    -4.666      2.927      3.212
REMARK INTER + INTRA:          -5.055
REMARK INTER:                  -5.133
REMARK INTRA:                   0.078
REMARK UNBOUND:                 0.020
REMARK  2 active torsions:
REMARK  status: ('A' for Active; 'I' for Inactive)
REMARK    1  A    between atoms: N_6  and  C_14 
REMARK    2  A    between atoms: C_11  and  O_13 
ROOT
HETATM    1  C   UNL     1      12.466  -0.621  23.665  1.00  0.00     0.034 C 
HETATM    2  H   UNL     1       9.322  -3.277  22.153  1.00  0.00     0.224 HD
HETATM    3  C   UNL     1       8.965  -1.061  24.259  1.00  0.00    -0.020 C 
HETATM    4  C   UNL     1      11.965   0.228  24.686  1.00  0.00     0.003 C 
HETATM    5  N   UNL     1       8.475  -2.078  23.695  1.00  0.00    -0.225 N 
HETATM    6  C   UNL     1       9.361  -0.051  24.888  1.00  0.00     0.076 C 
HETATM    7  C   UNL     1      11.744  -1.542  22.858  1.00  0.00     0.210 C 
HETATM    8  N   UNL     1      10.547  -1.907  22.970  1.00  0.00    -0.322 NA
HETATM    9  N   UNL     1       9.490  -2.547  22.811  1.00  0.00    -0.167 N 
HETATM   10  C   UNL     1      10.674   0.429  25.186  1.00  0.00     0.010 C 
ENDROOT
BRANCH   5  11
HETATM   11  C   UNL     1       7.244  -2.553  24.018  1.00  0.00     0.150 A 
HETATM   12  C   UNL     1       6.652  -3.852  23.245  1.00  0.00     0.064 A 
HETATM   13  C   UNL     1       7.207  -4.080  24.572  1.00  0.00     0.146 A 
BRANCH  13  14
HETATM   14  O   UNL     1       6.439  -4.148  25.739  1.00  0.00    -0.393 OA
HETATM   15  H   UNL     1       6.089  -5.046  25.678  1.00  0.00     0.210 HD
ENDBRANCH  13  14
ENDBRANCH   5  11
TORSDOF 2
ENDMDL
MODEL 8
REMARK VINA RESULT:    -4.566     24.868     25.963
REMARK INTER + INTRA:          -4.947
REMARK INTER:                  -5.014
REMARK INTRA:                   0.067
REMARK UNBOUND:                 0.020
REMARK  2 active torsions:
REMARK  status: ('A' for Active; 'I' for Inactive)
REMARK    1  A    between atoms: N_6  and  C_14 
REMARK    2  A    between atoms: C_11  and  O_13 
ROOT
HETATM    1  C   UNL     1       8.995  14.602   2.199  1.00  0.00     0.034 C 
HETATM    2  H   UNL     1      12.174  16.141   4.797  1.00  0.00     0.224 HD
HETATM    3  C   UNL     1       9.615  17.643   3.980  1.00  0.00    -0.020 C 
HETATM    4  C   UNL     1       8.004  15.590   1.971  1.00  0.00     0.003 C 
HETATM    5  N   UNL     1      10.765  17.708   4.495  1.00  0.00    -0.225 N 
HETATM    6  C   UNL     1       8.467  17.691   3.479  1.00  0.00     0.076 C 
HETATM    7  C   UNL     1      10.123  14.674   3.062  1.00  0.00     0.210 C 
HETATM    8  N   UNL     1      10.563  15.668   3.691  1.00  0.00    -0.322 NA
HETATM    9  N   UNL     1      11.313  16.399   4.366  1.00  0.00    -0.167 N 
HETATM   10  C   UNL     1       7.820  16.871   2.502  1.00  0.00     0.010 C 
ENDROOT
BRANCH   5  11
HETATM   11  C   UNL     1      11.272  18.876   4.971  1.00  0.00     0.150 A 
HETATM   12  C   UNL     1      12.825  18.950   5.437  1.00  0.00     0.064 A 
HETATM   13  C   UNL     1      12.512  19.496   4.123  1.00  0.00     0.146 A 
BRANCH  13  14
HETATM   14  O   UNL     1      12.290  20.855   3.875  1.00  0.00    -0.393 OA
HETATM   15  H   UNL     1      12.569  20.922   2.953  1.00  0.00     0.210 HD
ENDBRANCH  13  14
ENDBRANCH   5  11
TORSDOF 2
ENDMDL
MODEL 9
REMARK VINA RESULT:    -4.500     12.884     14.867
REMARK INTER + INTRA:          -4.874
REMARK INTER:                  -5.067
REMARK INTRA:                   0.193
REMARK UNBOUND:                 0.020
REMARK  2 active torsions:
REMARK  status: ('A' for Active; 'I' for Inactive)
REMARK    1  A    between atoms: N_6  and  C_14 
REMARK    2  A    between atoms: C_11  and  O_13 
ROOT
HETATM    1  C   UNL     1      25.200  -6.651  23.925  1.00  0.00     0.034 C 
HETATM    2  H   UNL     1      23.867  -2.644  22.746  1.00  0.00     0.224 HD
HETATM    3  C   UNL     1      23.331  -4.010  25.452  1.00  0.00    -0.020 C 
HETATM    4  C   UNL     1      24.709  -6.991  25.211  1.00  0.00     0.003 C 
HETATM    5  N   UNL     1      23.048  -3.064  24.666  1.00  0.00    -0.225 N 
HETATM    6  C   UNL     1      23.528  -4.912  26.300  1.00  0.00     0.076 C 
HETATM    7  C   UNL     1      25.078  -5.412  23.239  1.00  0.00     0.210 C 
HETATM    8  N   UNL     1      24.393  -4.408  23.556  1.00  0.00    -0.322 NA
HETATM    9  N   UNL     1      23.813  -3.307  23.489  1.00  0.00    -0.167 N 
HETATM   10  C   UNL     1      24.000  -6.255  26.167  1.00  0.00     0.010 C 
ENDROOT
BRANCH   5  11
HETATM   11  C   UNL     1      22.129  -2.116  24.987  1.00  0.00     0.150 A 
HETATM   12  C   UNL     1      22.444  -0.552  24.686  1.00  0.00     0.064 A 
HETATM   13  C   UNL     1      21.569  -1.235  23.742  1.00  0.00     0.146 A 
BRANCH  13  14
HETATM   14  O   UNL     1      20.172  -1.175  23.786  1.00  0.00    -0.393 OA
HETATM   15  H   UNL     1      20.025  -0.227  23.674  1.00  0.00     0.210 HD
ENDBRANCH  13  14
ENDBRANCH   5  11
TORSDOF 2
ENDMDL
