stable:False satoms:18 tatoms:24 sratio:0.75
  -OEChem-07092417293D

 24 25  0     1  0  0  0  0  0999 V2000
    5.2251   -1.3345   20.9020 H   0  0  0  0  0  0  0  0  0  0  0  0
    6.6843   -2.7126   20.1585 C   0  0  0  0  0  0  0  0  0  0  0  0
    6.4679    0.1573   23.4671 H   0  0  0  0  0  0  0  0  0  0  0  0
   11.0055   -1.4678   24.0634 H   0  0  0  0  0  0  0  0  0  0  0  0
   10.7759    0.8962   23.2307 H   0  0  0  0  0  0  0  0  0  0  0  0
   11.0034   -0.7976   25.7236 H   0  0  0  0  0  0  0  0  0  0  0  0
    8.6489   -0.0560   25.4381 H   0  0  0  0  0  0  0  0  0  0  0  0
    9.0001   -1.2934   22.4875 C   0  0  0  0  0  0  0  0  0  0  0  0
   10.6804   -0.6672   24.7042 C   0  0  0  0  0  0  0  0  0  0  0  0
    7.9931   -3.2450   20.0338 C   0  0  0  0  0  0  0  0  0  0  0  0
    8.0687   -4.0640   19.3033 H   0  0  0  0  0  0  0  0  0  0  0  0
   10.0046   -3.6124   20.4167 H   0  0  0  0  0  0  0  0  0  0  0  0
    8.4560   -0.6006   23.3919 N   0  0  3  0  0  0  0  0  0  0  0  0
    9.6318   -1.9873   21.6572 C   0  0  0  0  0  0  0  0  0  0  0  0
    6.2346   -1.6861   21.0336 C   0  0  0  0  0  0  0  0  0  0  0  0
    6.8569   -1.1345   21.9757 N   0  0  0  0  0  0  0  0  0  0  0  0
    7.0983   -0.4491   22.9883 N   0  0  0  0  0  0  0  0  0  0  0  0
   10.4571    0.6929   24.2330 C   0  0  2  0  0  0  0  0  0  0  0  0
    5.9225   -3.1617   19.5245 H   0  0  0  0  0  0  0  0  0  0  0  0
    9.1937   -2.9380   20.6831 C   0  0  0  0  0  0  0  0  0  0  0  0
   10.6949   -1.8561   21.7582 H   0  0  0  0  0  0  0  0  0  0  0  0
   10.4471    1.8170   25.0664 O   0  0  0  0  0  0  0  0  0  0  0  0
    9.1347   -0.2124   24.5033 C   0  0  2  0  0  0  0  0  0  0  0  0
    9.8985    2.4227   24.5524 H   0  0  0  0  0  0  0  0  0  0  0  0
 10 11  1  0  0  0  0
  2 19  1  0  0  0  0
  2 10  1  0  0  0  0
 10 20  2  0  0  0  0
  2 15  2  0  0  0  0
 12 20  1  0  0  0  0
 14 20  1  0  0  0  0
  1 15  1  0  0  0  0
 15 16  1  0  0  0  0
 14 21  1  0  0  0  0
  8 14  2  3  0  0  0
 16 17  1  0  0  0  0
  8 13  1  0  0  0  0
 13 17  1  0  0  0  0
  3 17  1  0  0  0  0
  5 18  1  0  0  0  0
 13 23  1  0  0  0  0
  4  9  1  0  0  0  0
 18 23  1  0  0  0  0
  9 18  1  0  0  0  0
 18 22  1  0  0  0  0
  9 23  1  0  0  0  0
  7 23  1  0  0  0  0
 22 24  1  0  0  0  0
  6  9  1  0  0  0  0
M  END
> <Shapegauss>
-93.886833

$$$$
