
 OpenBabel07202414153D

 58 61  0  0  0  0  0  0  0  0999 V2000
   -2.0309   -0.9062    0.7936 C   0  0  0  0  0  0  0  0  0  0  0  0
   -0.7719   -0.4130    1.2433 O   0  0  0  0  0  0  0  0  0  0  0  0
    0.2605   -0.4587    0.3435 C   0  0  0  0  0  0  0  0  0  0  0  0
    0.1277   -0.6967   -1.0183 C   0  0  0  0  0  0  0  0  0  0  0  0
    1.2587   -0.7252   -1.8265 C   0  0  0  0  0  0  0  0  0  0  0  0
    2.5395   -0.4997   -1.2882 C   0  0  0  0  0  0  0  0  0  0  0  0
    3.6708   -0.5464   -2.0964 C   0  0  0  0  0  0  0  0  0  0  0  0
    4.9306   -0.3439   -1.6640 N   0  0  0  0  0  0  0  0  0  0  0  0
    5.0828   -0.0642   -0.3490 C   0  0  0  0  0  0  0  0  0  0  0  0
    4.0385    0.0281    0.5721 C   0  0  0  0  0  0  0  0  0  0  0  0
    4.3075    0.3724    2.0326 C   0  0  0  0  0  0  0  0  0  0  0  0
    5.7153    0.8618    2.4458 C   0  0  0  0  0  0  0  0  0  0  0  0
    6.6351    0.0446    2.5641 O   0  0  0  0  0  0  0  0  0  0  0  0
    5.8612    2.2082    2.8177 N   0  0  0  0  0  0  0  0  0  0  0  0
    7.1217    2.6489    3.4470 C   0  0  0  0  0  0  0  0  0  0  0  0
    6.9973    3.0458    4.9084 C   0  0  0  0  0  0  0  0  0  0  0  0
    6.5021    2.1434    5.8603 C   0  0  0  0  0  0  0  0  0  0  0  0
    6.3390    2.5296    7.1955 C   0  0  0  0  0  0  0  0  0  0  0  0
    6.6974    3.8129    7.6061 C   0  0  0  0  0  0  0  0  0  0  0  0
    7.2606    4.6914    6.6857 C   0  0  0  0  0  0  0  0  0  0  0  0
    7.7683    6.2537    7.2015 Cl  0  0  0  0  0  0  0  0  0  0  0  0
    7.4194    4.3143    5.3486 C   0  0  0  0  0  0  0  0  0  0  0  0
    5.1228    3.1998    2.1201 C   0  0  0  0  0  0  0  0  0  0  0  0
    4.7677    4.4041    2.6969 C   0  0  0  0  0  0  0  0  0  0  0  0
    3.9912    5.3142    1.9564 C   0  0  0  0  0  0  0  0  0  0  0  0
    3.5828    5.0547    0.6387 C   0  0  0  0  0  0  0  0  0  0  0  0
    2.7750    5.9063   -0.0959 N   0  0  0  0  0  0  0  0  0  0  0  0
    2.3731    5.6210   -1.4769 C   0  0  0  0  0  0  0  0  0  0  0  0
    2.3561    7.2283    0.3656 C   0  0  0  0  0  0  0  0  0  0  0  0
    4.0528    3.8328    0.1623 C   0  0  0  0  0  0  0  0  0  0  0  0
    4.7818    2.9225    0.8566 N   0  0  0  0  0  0  0  0  0  0  0  0
    2.7151   -0.2260    0.0880 C   0  0  0  0  0  0  0  0  0  0  0  0
    1.5380   -0.2221    0.8829 C   0  0  0  0  0  0  0  0  0  0  0  0
   -2.7298   -0.8674    1.6351 H   0  0  0  0  0  0  0  0  0  0  0  0
   -1.9520   -1.9509    0.4731 H   0  0  0  0  0  0  0  0  0  0  0  0
   -2.4438   -0.2801   -0.0043 H   0  0  0  0  0  0  0  0  0  0  0  0
   -0.8416   -0.8589   -1.4849 H   0  0  0  0  0  0  0  0  0  0  0  0
    1.1369   -0.9233   -2.8904 H   0  0  0  0  0  0  0  0  0  0  0  0
    3.5914   -0.7598   -3.1604 H   0  0  0  0  0  0  0  0  0  0  0  0
    6.1174    0.1015   -0.0622 H   0  0  0  0  0  0  0  0  0  0  0  0
    4.1334   -0.5412    2.6197 H   0  0  0  0  0  0  0  0  0  0  0  0
    3.5639    1.0959    2.3834 H   0  0  0  0  0  0  0  0  0  0  0  0
    7.5257    3.4868    2.8627 H   0  0  0  0  0  0  0  0  0  0  0  0
    7.8788    1.8585    3.3831 H   0  0  0  0  0  0  0  0  0  0  0  0
    6.2446    1.1266    5.5677 H   0  0  0  0  0  0  0  0  0  0  0  0
    5.9336    1.8249    7.9184 H   0  0  0  0  0  0  0  0  0  0  0  0
    6.5472    4.1142    8.6398 H   0  0  0  0  0  0  0  0  0  0  0  0
    7.8732    5.0152    4.6504 H   0  0  0  0  0  0  0  0  0  0  0  0
    5.0111    4.6388    3.7255 H   0  0  0  0  0  0  0  0  0  0  0  0
    3.6990    6.2211    2.4732 H   0  0  0  0  0  0  0  0  0  0  0  0
    2.5734    4.6069   -1.8254 H   0  0  0  0  0  0  0  0  0  0  0  0
    2.8738    6.3133   -2.1629 H   0  0  0  0  0  0  0  0  0  0  0  0
    1.2913    5.7645   -1.5818 H   0  0  0  0  0  0  0  0  0  0  0  0
    2.5838    7.4551    1.4070 H   0  0  0  0  0  0  0  0  0  0  0  0
    1.2695    7.3254    0.2581 H   0  0  0  0  0  0  0  0  0  0  0  0
    2.8256    8.0031   -0.2508 H   0  0  0  0  0  0  0  0  0  0  0  0
    3.8592    3.4881   -0.8467 H   0  0  0  0  0  0  0  0  0  0  0  0
    1.6026   -0.0440    1.9542 H   0  0  0  0  0  0  0  0  0  0  0  0
  1  2  1  0  0  0  0
  1 34  1  0  0  0  0
  1 35  1  0  0  0  0
  1 36  1  0  0  0  0
  2  3  1  0  0  0  0
  3  4  1  0  0  0  0
  3 33  2  0  0  0  0
  4  5  2  0  0  0  0
  4 37  1  0  0  0  0
  5  6  1  0  0  0  0
  5 38  1  0  0  0  0
  6  7  1  0  0  0  0
  6 32  2  0  0  0  0
  7  8  2  0  0  0  0
  7 39  1  0  0  0  0
  8  9  1  0  0  0  0
  9 10  2  0  0  0  0
  9 40  1  0  0  0  0
 10 11  1  0  0  0  0
 10 32  1  0  0  0  0
 11 12  1  0  0  0  0
 11 41  1  0  0  0  0
 11 42  1  0  0  0  0
 12 13  2  0  0  0  0
 12 14  1  0  0  0  0
 14 15  1  0  0  0  0
 14 23  1  0  0  0  0
 15 16  1  0  0  0  0
 15 43  1  0  0  0  0
 15 44  1  0  0  0  0
 16 17  1  0  0  0  0
 16 22  2  0  0  0  0
 17 18  2  0  0  0  0
 17 45  1  0  0  0  0
 18 19  1  0  0  0  0
 18 46  1  0  0  0  0
 19 20  2  0  0  0  0
 19 47  1  0  0  0  0
 20 21  1  0  0  0  0
 20 22  1  0  0  0  0
 22 48  1  0  0  0  0
 23 24  1  0  0  0  0
 23 31  2  0  0  0  0
 24 25  2  0  0  0  0
 24 49  1  0  0  0  0
 25 26  1  0  0  0  0
 25 50  1  0  0  0  0
 26 27  1  0  0  0  0
 26 30  2  0  0  0  0
 27 28  1  0  0  0  0
 27 29  1  0  0  0  0
 28 51  1  0  0  0  0
 28 52  1  0  0  0  0
 28 53  1  0  0  0  0
 29 54  1  0  0  0  0
 29 55  1  0  0  0  0
 29 56  1  0  0  0  0
 30 31  1  0  0  0  0
 30 57  1  0  0  0  0
 32 33  1  0  0  0  0
 33 58  1  0  0  0  0
M  END
$$$$
