stable:False satoms:20 tatoms:24 sratio:0.8333333333333334
  -OEChem-07092417383D

 24 24  0     0  0  0  0  0  0999 V2000
    7.0715   -4.6707   26.3057 H   0  0  0  0  0  0  0  0  0  0  0  0
    8.1128   -4.3788   26.0255 C   0  0  0  0  0  0  0  0  0  0  0  0
    8.7541   -5.2799   25.9353 H   0  0  0  0  0  0  0  0  0  0  0  0
    8.5089   -3.7586   26.8628 H   0  0  0  0  0  0  0  0  0  0  0  0
    8.0398   -3.7014   24.7773 N   0  3  0  0  0  0  0  0  0  0  0  0
    8.8519   -2.9799   24.2300 C   0  0  0  0  0  0  0  0  0  0  0  0
    9.5328   -2.2383   23.6351 C   0  0  0  0  0  0  0  0  0  0  0  0
   10.3836   -1.3008   23.0626 C   0  0  0  0  0  0  0  0  0  0  0  0
   11.3396    0.3117   24.7460 F   0  0  0  0  0  0  0  0  0  0  0  0
   12.2636   -0.2634   24.0238 C   0  0  0  0  0  0  0  0  0  0  0  0
   13.2900    0.0070   24.1344 H   0  0  0  0  0  0  0  0  0  0  0  0
   12.5312   -1.6788   22.4989 H   0  0  0  0  0  0  0  0  0  0  0  0
   11.8582   -1.1620   23.1476 C   0  0  0  0  0  0  0  0  0  0  0  0
    9.7971   -0.4658   22.3318 C   0  0  0  0  0  0  0  0  0  0  0  0
    9.1436    0.1284   21.3346 C   0  0  0  0  0  0  0  0  0  0  0  0
    9.6360    0.9867   20.6501 O   0  0  0  0  0  0  0  0  0  0  0  0
    7.8614   -0.4230   21.2504 N   0  0  0  0  0  0  0  0  0  0  0  0
    7.1343   -0.0315   20.2181 C   0  0  0  0  0  0  0  0  0  0  0  0
    7.4440   -0.1214   18.9028 N   0  0  0  0  0  0  0  0  0  0  0  0
    6.5514    0.3281   18.1885 N   0  0  0  0  0  0  0  0  0  0  0  0
    4.8111    1.3406   18.4421 H   0  0  0  0  0  0  0  0  0  0  0  0
    5.5367    0.8336   19.0214 C   0  0  0  0  0  0  0  0  0  0  0  0
    5.8269    0.5530   20.3180 C   0  0  0  0  0  0  0  0  0  0  0  0
    5.3035    0.6752   21.2543 H   0  0  0  0  0  0  0  0  0  0  0  0
 19 20  1  0  0  0  0
 20 22  2  0  0  0  0
 21 22  1  0  0  0  0
 18 19  1  0  0  0  0
 22 23  1  0  0  0  0
 18 23  2  0  0  0  0
 17 18  1  0  0  0  0
 23 24  1  0  0  0  0
 15 16  2  0  0  0  0
 15 17  1  0  0  0  0
 14 15  1  0  0  0  0
  8 14  2  3  0  0  0
 12 13  1  0  0  0  0
  8 13  1  0  0  0  0
  7  8  1  0  0  0  0
 10 13  2  0  0  0  0
  6  7  3  0  0  0  0
 10 11  1  0  0  0  0
  9 10  1  0  0  0  0
  5  6  1  0  0  0  0
  2  5  1  0  0  0  0
  2  3  1  0  0  0  0
  1  2  1  0  0  0  0
  2  4  1  0  0  0  0
M  CHG  1   5   1
M  END
> <Shapegauss>
-205.132233

$$$$
