stable:False satoms:20 tatoms:24 sratio:0.8333333333333334
  -OEChem-08062404083D

 29 29  0     0  0  0  0  0  0999 V2000
   -7.0986   -3.9837  -26.9825 H   0  0  0  0  0  0  0  0  0  0  0  0
   -8.1703   -3.7613  -26.7588 C   0  0  0  0  0  0  0  0  0  0  0  0
   -8.7802   -4.6848  -26.8398 H   0  0  0  0  0  0  0  0  0  0  0  0
   -8.5209   -3.0493  -27.5417 H   0  0  0  0  0  0  0  0  0  0  0  0
   -8.2275   -3.2500  -25.4331 N   0  3  0  0  0  0  0  0  0  0  0  0
   -9.1101   -2.6298  -24.8711 C   0  0  0  0  0  0  0  0  0  0  0  0
   -9.8669   -1.9921  -24.2481 C   0  0  0  0  0  0  0  0  0  0  0  0
  -10.7988   -1.1623  -23.6370 C   0  0  0  0  0  0  0  0  0  0  0  0
  -11.6772    0.6267  -25.1784 F   0  0  0  0  0  0  0  0  0  0  0  0
  -12.6336   -0.0642  -24.6180 C   0  0  0  0  0  0  0  0  0  0  0  0
  -13.6575    0.1882  -24.7819 H   0  0  0  0  0  0  0  0  0  0  0  0
  -12.9686   -1.6730  -23.3142 H   0  0  0  0  0  0  0  0  0  0  0  0
  -12.2658   -1.0568  -23.8312 C   0  0  0  0  0  0  0  0  0  0  0  0
  -10.3084   -0.4126  -22.7580 C   0  0  0  0  0  0  0  0  0  0  0  0
   -9.7635    0.0658  -21.6405 C   0  0  0  0  0  0  0  0  0  0  0  0
  -10.3446    0.8131  -20.8978 O   0  0  0  0  0  0  0  0  0  0  0  0
   -8.4714   -0.4541  -21.5162 N   0  0  0  0  0  0  0  0  0  0  0  0
   -7.8480   -0.1790  -20.3834 C   0  0  0  0  0  0  0  0  0  0  0  0
   -8.2609   -0.4481  -19.1220 N   0  0  0  0  0  0  0  0  0  0  0  0
   -7.4488   -0.0693  -18.2818 N   0  0  0  0  0  0  0  0  0  0  0  0
   -5.7356    1.0180  -18.2528 H   0  0  0  0  0  0  0  0  0  0  0  0
   -6.3902    0.5696  -18.9526 C   0  0  0  0  0  0  0  0  0  0  0  0
   -6.5613    0.4515  -20.2945 C   0  0  0  0  0  0  0  0  0  0  0  0
   -5.9681    0.7097  -21.1588 H   0  0  0  0  0  0  0  0  0  0  0  0
   -7.4292   -2.6512  -25.3681 H   0  0  0  0  0  0  0  0  0  0  0  0
  -10.3800    0.5190  -23.2997 H   0  0  0  0  0  0  0  0  0  0  0  0
   -8.0460   -0.9994  -22.2384 H   0  0  0  0  0  0  0  0  0  0  0  0
   -9.1244   -0.9014  -18.9009 H   0  0  0  0  0  0  0  0  0  0  0  0
   -8.0887   -4.0544  -24.8554 H   0  0  0  0  0  0  0  0  0  0  0  0
 19 20  1  0  0  0  0
 20 22  2  0  0  0  0
 21 22  1  0  0  0  0
 18 19  1  0  0  0  0
 22 23  1  0  0  0  0
 18 23  2  0  0  0  0
 17 18  1  0  0  0  0
 23 24  1  0  0  0  0
 15 16  2  0  0  0  0
 15 17  1  0  0  0  0
 14 15  1  0  0  0  0
  8 14  2  3  0  0  0
 12 13  1  0  0  0  0
  8 13  1  0  0  0  0
  7  8  1  0  0  0  0
 10 13  2  0  0  0  0
  6  7  3  0  0  0  0
 10 11  1  0  0  0  0
  9 10  1  0  0  0  0
  5  6  1  0  0  0  0
  2  5  1  0  0  0  0
  2  3  1  0  0  0  0
  1  2  1  0  0  0  0
  2  4  1  0  0  0  0
  5 25  1  0  0  0  0
 14 26  1  0  0  0  0
 17 27  1  0  0  0  0
 19 28  1  0  0  0  0
  5 29  1  0  0  0  0
M  CHG  1   5   1
M  END
> <Chemgauss4>
-9.965517

$$$$
