stable:False satoms:20 tatoms:24 sratio:0.8333333333333334
  -OEChem-08062404083D

 29 29  0     0  0  0  0  0  0999 V2000
    7.0839   -3.8706   26.6819 H   0  0  0  0  0  0  0  0  0  0  0  0
    8.1556   -3.6482   26.4582 C   0  0  0  0  0  0  0  0  0  0  0  0
    8.7654   -4.5717   26.5391 H   0  0  0  0  0  0  0  0  0  0  0  0
    8.5061   -2.9362   27.2411 H   0  0  0  0  0  0  0  0  0  0  0  0
    8.2127   -3.1369   25.1325 N   0  3  0  0  0  0  0  0  0  0  0  0
    9.0954   -2.5167   24.5704 C   0  0  0  0  0  0  0  0  0  0  0  0
    9.8521   -1.8790   23.9474 C   0  0  0  0  0  0  0  0  0  0  0  0
   10.7840   -1.0492   23.3364 C   0  0  0  0  0  0  0  0  0  0  0  0
   11.6624    0.7398   24.8778 F   0  0  0  0  0  0  0  0  0  0  0  0
   12.6188    0.0489   24.3173 C   0  0  0  0  0  0  0  0  0  0  0  0
   13.6427    0.3013   24.4813 H   0  0  0  0  0  0  0  0  0  0  0  0
   12.9538   -1.5599   23.0136 H   0  0  0  0  0  0  0  0  0  0  0  0
   12.2511   -0.9437   23.5306 C   0  0  0  0  0  0  0  0  0  0  0  0
   10.2936   -0.2994   22.4574 C   0  0  0  0  0  0  0  0  0  0  0  0
    9.7487    0.1790   21.3399 C   0  0  0  0  0  0  0  0  0  0  0  0
   10.3298    0.9262   20.5972 O   0  0  0  0  0  0  0  0  0  0  0  0
    8.4567   -0.3410   21.2156 N   0  0  0  0  0  0  0  0  0  0  0  0
    7.8332   -0.0659   20.0828 C   0  0  0  0  0  0  0  0  0  0  0  0
    8.2461   -0.3350   18.8214 N   0  0  0  0  0  0  0  0  0  0  0  0
    7.4340    0.0438   17.9811 N   0  0  0  0  0  0  0  0  0  0  0  0
    5.7209    1.1311   17.9522 H   0  0  0  0  0  0  0  0  0  0  0  0
    6.3754    0.6827   18.6519 C   0  0  0  0  0  0  0  0  0  0  0  0
    6.5466    0.5647   19.9939 C   0  0  0  0  0  0  0  0  0  0  0  0
    5.9533    0.8228   20.8582 H   0  0  0  0  0  0  0  0  0  0  0  0
    7.4145   -2.5381   25.0674 H   0  0  0  0  0  0  0  0  0  0  0  0
   10.3653    0.6321   22.9990 H   0  0  0  0  0  0  0  0  0  0  0  0
    8.0312   -0.8863   21.9378 H   0  0  0  0  0  0  0  0  0  0  0  0
    9.1096   -0.7883   18.6003 H   0  0  0  0  0  0  0  0  0  0  0  0
    8.0739   -3.9413   24.5547 H   0  0  0  0  0  0  0  0  0  0  0  0
 19 20  1  0  0  0  0
 20 22  2  0  0  0  0
 21 22  1  0  0  0  0
 18 19  1  0  0  0  0
 22 23  1  0  0  0  0
 18 23  2  0  0  0  0
 17 18  1  0  0  0  0
 23 24  1  0  0  0  0
 15 16  2  0  0  0  0
 15 17  1  0  0  0  0
 14 15  1  0  0  0  0
  8 14  2  3  0  0  0
 12 13  1  0  0  0  0
  8 13  1  0  0  0  0
  7  8  1  0  0  0  0
 10 13  2  0  0  0  0
  6  7  3  0  0  0  0
 10 11  1  0  0  0  0
  9 10  1  0  0  0  0
  5  6  1  0  0  0  0
  2  5  1  0  0  0  0
  2  3  1  0  0  0  0
  1  2  1  0  0  0  0
  2  4  1  0  0  0  0
  5 25  1  0  0  0  0
 14 26  1  0  0  0  0
 17 27  1  0  0  0  0
 19 28  1  0  0  0  0
  5 29  1  0  0  0  0
M  CHG  1   5   1
M  END
> <Chemgauss4>
-9.948576

$$$$
