stable:False satoms:18 tatoms:24 sratio:0.75
  -OEChem-07092417343D

 24 21  0     1  0  0  0  0  0999 V2000
    5.7356   -2.9762   23.9381 Br  0  5  0  0  0  0  0  0  0  0  0  0
    8.5828   -3.9330   25.2564 N   0  0  0  0  0  0  0  0  0  0  0  0
    8.8383   -5.1067   25.4566 O   0  0  0  0  0  0  0  0  0  0  0  0
    8.7695   -1.5118   25.5005 H   0  0  0  0  0  0  0  0  0  0  0  0
    8.8560   -3.3469   24.1417 N   0  0  0  0  0  0  0  0  0  0  0  0
    9.7865   -3.3465   23.7483 H   0  0  0  0  0  0  0  0  0  0  0  0
    8.4501   -0.7276   23.5342 C   0  0  0  0  0  0  0  0  0  0  0  0
    9.0999   -0.9534   24.5713 C   0  5  0  0  0  0  0  0  0  0  0  0
   10.0624   -0.4734   24.6081 H   0  0  0  0  0  0  0  0  0  0  0  0
   12.0023    0.1591   23.4416 H   0  0  0  0  0  0  0  0  0  0  0  0
   11.8346   -0.4465   22.5419 C   0  0  0  0  0  0  0  0  0  0  0  0
   12.3144    0.1033   21.7242 H   0  0  0  0  0  0  0  0  0  0  0  0
   11.8149   -2.1116   22.8607 S   0  0  0  0  0  0  0  0  0  0  0  0
    8.8799    0.3805   21.9566 H   0  0  0  0  0  0  0  0  0  0  0  0
    8.1035   -0.2238   22.3615 C   0  0  0  0  0  0  0  0  0  0  0  0
   10.7756   -1.1750   22.0831 C   0  0  0  0  0  0  0  0  0  0  0  0
    9.8033   -1.4164   21.3685 O   0  0  0  0  0  0  0  0  0  0  0  0
    8.0463    0.4837   19.7146 H   0  0  0  0  0  0  0  0  0  0  0  0
    7.1300    0.2712   19.3631 N   0  0  0  0  0  0  0  0  0  0  0  0
    6.2350   -0.0917   20.3372 C   0  0  0  0  0  0  0  0  0  0  0  0
    6.5972    0.6758   18.5942 H   0  0  0  0  0  0  0  0  0  0  0  0
    5.0422   -0.1398   20.1623 O   0  0  0  0  0  0  0  0  0  0  0  0
    6.7913   -0.4183   21.7097 C   0  5  3  0  0  0  0  0  0  0  0  0
    6.0323   -0.9652   22.3221 H   0  0  0  0  0  0  0  0  0  0  0  0
 19 21  1  0  0  0  0
 18 19  1  0  0  0  0
 19 20  1  0  0  0  0
 20 22  2  0  0  0  0
 20 23  1  0  0  0  0
 16 17  2  0  0  0  0
 23 24  1  0  0  0  0
 15 23  1  0  0  0  0
 11 12  1  0  0  0  0
 14 15  1  0  0  0  0
 11 16  1  0  0  0  0
 13 16  1  0  0  0  0
  7 15  2  0  0  0  0
 11 13  1  0  0  0  0
 10 11  1  0  0  0  0
  7  8  1  0  0  0  0
  5  6  1  0  0  0  0
  2  5  2  3  0  0  0
  8  9  1  0  0  0  0
  4  8  1  0  0  0  0
  2  3  1  0  0  0  0
M  CHG  3   1  -1   8  -1  23  -1
M  END
> <Shapegauss>
-145.182175

$$$$
