REMARK  5 active torsions:
REMARK  status: ('A' for Active; 'I' for Inactive)
REMARK    1  A    between atoms: S_2  and  N_5 
REMARK    2  A    between atoms: N_5  and  C_7 
REMARK    3  A    between atoms: C_8  and  C_9 
REMARK    4  A    between atoms: C_14  and  C_15 
REMARK       I    between atoms: C_15  and  N_17 
REMARK    5  A    between atoms: N_17  and  C_19 
ROOT
HETATM    1  C   UNL     1      11.528  -0.041  24.200  1.00  0.00     0.000 A 
HETATM    2  C   UNL     1      12.671   0.453  24.486  1.00  0.00     0.000 A 
HETATM    3  C   UNL     1      12.688  -0.273  23.763  1.00  0.00     0.000 A 
ENDROOT
TORSDOF 5
