MODEL 1
REMARK VINA RESULT:    -5.650      0.000      0.000
REMARK INTER + INTRA:          -7.341
REMARK INTER:                  -6.972
REMARK INTRA:                  -0.370
REMARK UNBOUND:                -0.370
REMARK  4 active torsions:
REMARK  status: ('A' for Active; 'I' for Inactive)
REMARK    1  A    between atoms: C_2  and  N_3 
REMARK    2  A    between atoms: N_3  and  C_5 
REMARK    3  A    between atoms: C_6  and  N_13 
REMARK    4  A    between atoms: N_15  and  C_17 
ROOT
HETATM    1  C   UNL     1       9.677  15.086   1.963  1.00  0.00     0.683 C 
HETATM    2  C   UNL     1       8.593  14.045   3.365  1.00  0.00     0.136 C 
HETATM    3  N   UNL     1      10.819  14.875   2.855  1.00  0.00    -0.202 N 
ATOM      4  HN  UNL     1      11.763  14.755   2.488  1.00  0.00     0.183 HD
HETATM    5  C   UNL     1      10.579  14.846   4.157  1.00  0.00     0.110 C 
HETATM    6  C   UNL     1       9.282  14.796   4.455  1.00  0.00     0.068 C 
HETATM    7  N   UNL     1       8.941  14.106   2.246  1.00  0.00    -0.175 N 
ATOM      8  HN  UNL     1       8.665  13.413   1.551  1.00  0.00     0.186 HD
ENDROOT
BRANCH   2   9
HETATM    9  N   UNL     1       7.611  13.094   3.256  1.00  0.00    -0.285 N 
HETATM   10  N   UNL     1       7.758  11.991   2.760  1.00  0.00    -0.298 N 
ATOM     11  HN  UNL     1       8.673  11.777   2.365  1.00  0.00     0.187 HD
ATOM     12  HN  UNL     1       6.686  13.328   3.618  1.00  0.00     0.188 HD
BRANCH  10  13
HETATM   13  C   UNL     1       6.824  11.032   2.688  1.00  0.00     0.064 C 
HETATM   14  C   UNL     1       6.391  10.400   3.788  1.00  0.00     0.118 C 
HETATM   15  N   UNL     1       5.212   9.739   3.586  1.00  0.00    -0.373 N 
HETATM   16  C   UNL     1       5.119   9.725   2.259  1.00  0.00     0.090 C 
ATOM     17  HN  UNL     1       4.568   9.354   4.277  1.00  0.00     0.164 HD
HETATM   18  C   UNL     1       6.160  10.429   1.615  1.00  0.00     0.049 C 
ENDBRANCH  10  13
ENDBRANCH   2   9
BRANCH   1  19
HETATM   19  N   UNL     1       9.348  16.062   1.110  1.00  0.00    -0.206 N 
ATOM     20  HN  UNL     1       9.326  15.611   0.196  1.00  0.00     0.183 HD
BRANCH  19  21
HETATM   21  C   UNL     1       9.068  17.200   0.892  1.00  0.00     0.074 C 
HETATM   22  C   UNL     1       8.465  18.294   0.266  1.00  0.00     0.055 C 
ENDBRANCH  19  21
ENDBRANCH   1  19
TORSDOF 4
ENDMDL
MODEL 2
REMARK VINA RESULT:    -5.615     30.638     33.061
REMARK INTER + INTRA:          -7.298
REMARK INTER:                  -6.963
REMARK INTRA:                  -0.335
REMARK UNBOUND:                -0.370
REMARK  4 active torsions:
REMARK  status: ('A' for Active; 'I' for Inactive)
REMARK    1  A    between atoms: C_2  and  N_3 
REMARK    2  A    between atoms: N_3  and  C_5 
REMARK    3  A    between atoms: C_6  and  N_13 
REMARK    4  A    between atoms: N_15  and  C_17 
ROOT
HETATM    1  C   UNL     1       1.069 -16.895   9.769  1.00  0.00     0.683 C 
HETATM    2  C   UNL     1      -0.640 -16.338  10.766  1.00  0.00     0.136 C 
HETATM    3  N   UNL     1       1.021 -15.558   9.172  1.00  0.00    -0.202 N 
ATOM      4  HN  UNL     1       1.875 -15.053   8.936  1.00  0.00     0.183 HD
HETATM    5  C   UNL     1      -0.174 -15.031   8.952  1.00  0.00     0.110 C 
HETATM    6  C   UNL     1      -1.166 -15.717   9.515  1.00  0.00     0.068 C 
HETATM    7  N   UNL     1       0.467 -16.716  10.858  1.00  0.00    -0.175 N 
ATOM      8  HN  UNL     1       0.911 -16.889  11.760  1.00  0.00     0.186 HD
ENDROOT
BRANCH   2   9
HETATM    9  N   UNL     1      -1.068 -16.541  12.053  1.00  0.00    -0.285 N 
HETATM   10  N   UNL     1      -0.367 -16.451  13.045  1.00  0.00    -0.298 N 
ATOM     11  HN  UNL     1       0.621 -16.244  12.899  1.00  0.00     0.187 HD
ATOM     12  HN  UNL     1      -2.049 -16.786  12.190  1.00  0.00     0.188 HD
BRANCH  10  13
HETATM   13  C   UNL     1      -0.778 -16.599  14.312  1.00  0.00     0.064 C 
HETATM   14  C   UNL     1       0.093 -16.850  15.300  1.00  0.00     0.118 C 
HETATM   15  N   UNL     1      -0.430 -16.609  16.538  1.00  0.00    -0.373 N 
HETATM   16  C   UNL     1      -1.733 -16.517  16.282  1.00  0.00     0.090 C 
ATOM     17  HN  UNL     1       0.054 -16.522  17.432  1.00  0.00     0.164 HD
HETATM   18  C   UNL     1      -2.043 -16.609  14.908  1.00  0.00     0.049 C 
ENDBRANCH  10  13
ENDBRANCH   2   9
BRANCH   1  19
HETATM   19  N   UNL     1       1.513 -18.079   9.332  1.00  0.00    -0.206 N 
ATOM     20  HN  UNL     1       1.200 -18.131   8.362  1.00  0.00     0.183 HD
BRANCH  19  21
HETATM   21  C   UNL     1       2.095 -19.102   9.516  1.00  0.00     0.074 C 
HETATM   22  C   UNL     1       2.921 -20.196   9.246  1.00  0.00     0.055 C 
ENDBRANCH  19  21
ENDBRANCH   1  19
TORSDOF 4
ENDMDL
MODEL 3
REMARK VINA RESULT:    -5.489     24.133     26.669
REMARK INTER + INTRA:          -7.142
REMARK INTER:                  -6.888
REMARK INTRA:                  -0.254
REMARK UNBOUND:                -0.370
REMARK  4 active torsions:
REMARK  status: ('A' for Active; 'I' for Inactive)
REMARK    1  A    between atoms: C_2  and  N_3 
REMARK    2  A    between atoms: N_3  and  C_5 
REMARK    3  A    between atoms: C_6  and  N_13 
REMARK    4  A    between atoms: N_15  and  C_17 
ROOT
HETATM    1  C   UNL     1       9.398  -1.303  21.722  1.00  0.00     0.683 C 
HETATM    2  C   UNL     1       9.471  -2.200  23.569  1.00  0.00     0.136 C 
HETATM    3  N   UNL     1      10.855  -1.201  21.839  1.00  0.00    -0.202 N 
ATOM      4  HN  UNL     1      11.458  -1.265  21.019  1.00  0.00     0.183 HD
HETATM    5  C   UNL     1      11.358  -1.022  23.051  1.00  0.00     0.110 C 
HETATM    6  C   UNL     1      10.463  -1.181  24.024  1.00  0.00     0.068 C 
HETATM    7  N   UNL     1       9.148  -2.300  22.446  1.00  0.00    -0.175 N 
ATOM      8  HN  UNL     1       8.694  -3.137  22.082  1.00  0.00     0.186 HD
ENDROOT
BRANCH   2   9
HETATM    9  N   UNL     1       8.804  -3.272  24.105  1.00  0.00    -0.285 N 
HETATM   10  N   UNL     1       8.559  -3.422  25.289  1.00  0.00    -0.298 N 
ATOM     11  HN  UNL     1       8.911  -2.711  25.930  1.00  0.00     0.187 HD
ATOM     12  HN  UNL     1       8.488  -3.999  23.463  1.00  0.00     0.188 HD
BRANCH  10  13
HETATM   13  C   UNL     1       7.868  -4.437  25.825  1.00  0.00     0.064 C 
HETATM   14  C   UNL     1       8.433  -5.273  26.708  1.00  0.00     0.118 C 
HETATM   15  N   UNL     1       7.513  -5.997  27.411  1.00  0.00    -0.373 N 
HETATM   16  C   UNL     1       6.402  -5.809  26.703  1.00  0.00     0.090 C 
ATOM     17  HN  UNL     1       7.644  -6.544  28.263  1.00  0.00     0.164 HD
HETATM   18  C   UNL     1       6.571  -4.920  25.619  1.00  0.00     0.049 C 
ENDBRANCH  10  13
ENDBRANCH   2   9
BRANCH   1  19
HETATM   19  N   UNL     1       8.472  -0.548  21.120  1.00  0.00    -0.206 N 
ATOM     20  HN  UNL     1       7.845  -0.262  21.872  1.00  0.00     0.183 HD
BRANCH  19  21
HETATM   21  C   UNL     1       8.018  -0.046  20.140  1.00  0.00     0.074 C 
HETATM   22  C   UNL     1       7.064   0.310  19.183  1.00  0.00     0.055 C 
ENDBRANCH  19  21
ENDBRANCH   1  19
TORSDOF 4
ENDMDL
MODEL 4
REMARK VINA RESULT:    -5.398     21.702     24.695
REMARK INTER + INTRA:          -7.029
REMARK INTER:                  -6.646
REMARK INTRA:                  -0.384
REMARK UNBOUND:                -0.370
REMARK  4 active torsions:
REMARK  status: ('A' for Active; 'I' for Inactive)
REMARK    1  A    between atoms: C_2  and  N_3 
REMARK    2  A    between atoms: N_3  and  C_5 
REMARK    3  A    between atoms: C_6  and  N_13 
REMARK    4  A    between atoms: N_15  and  C_17 
ROOT
HETATM    1  C   UNL     1       9.126  -2.125  23.838  1.00  0.00     0.683 C 
HETATM    2  C   UNL     1       9.660  -1.194  22.085  1.00  0.00     0.136 C 
HETATM    3  N   UNL     1      10.159  -1.294  24.461  1.00  0.00    -0.202 N 
ATOM      4  HN  UNL     1      10.060  -0.954  25.418  1.00  0.00     0.183 HD
HETATM    5  C   UNL     1      11.227  -1.002  23.734  1.00  0.00     0.110 C 
HETATM    6  C   UNL     1      11.101  -1.332  22.451  1.00  0.00     0.068 C 
HETATM    7  N   UNL     1       8.797  -1.429  22.844  1.00  0.00    -0.175 N 
ATOM      8  HN  UNL     1       7.844  -1.091  22.707  1.00  0.00     0.186 HD
ENDROOT
BRANCH   2   9
HETATM    9  N   UNL     1       8.926  -0.715  21.030  1.00  0.00    -0.285 N 
HETATM   10  N   UNL     1       7.807  -0.241  21.116  1.00  0.00    -0.298 N 
ATOM     11  HN  UNL     1       7.374  -0.236  22.039  1.00  0.00     0.187 HD
ATOM     12  HN  UNL     1       9.349  -0.759  20.102  1.00  0.00     0.188 HD
BRANCH  10  13
HETATM   13  C   UNL     1       7.093   0.274  20.105  1.00  0.00     0.064 C 
HETATM   14  C   UNL     1       7.467   0.096  18.830  1.00  0.00     0.118 C 
HETATM   15  N   UNL     1       6.461   0.359  17.944  1.00  0.00    -0.373 N 
HETATM   16  C   UNL     1       5.579   1.007  18.702  1.00  0.00     0.090 C 
ATOM     17  HN  UNL     1       6.400   0.121  16.954  1.00  0.00     0.164 HD
HETATM   18  C   UNL     1       5.958   1.089  20.060  1.00  0.00     0.049 C 
ENDBRANCH  10  13
ENDBRANCH   2   9
BRANCH   1  19
HETATM   19  N   UNL     1       8.649  -3.346  24.102  1.00  0.00    -0.206 N 
ATOM     20  HN  UNL     1       9.031  -3.580  25.018  1.00  0.00     0.183 HD
BRANCH  19  21
HETATM   21  C   UNL     1       7.997  -4.295  23.795  1.00  0.00     0.074 C 
HETATM   22  C   UNL     1       7.417  -5.264  22.973  1.00  0.00     0.055 C 
ENDBRANCH  19  21
ENDBRANCH   1  19
TORSDOF 4
ENDMDL
MODEL 5
REMARK VINA RESULT:    -5.371     21.042     22.701
REMARK INTER + INTRA:          -6.997
REMARK INTER:                  -6.683
REMARK INTRA:                  -0.314
REMARK UNBOUND:                -0.370
REMARK  4 active torsions:
REMARK  status: ('A' for Active; 'I' for Inactive)
REMARK    1  A    between atoms: C_2  and  N_3 
REMARK    2  A    between atoms: N_3  and  C_5 
REMARK    3  A    between atoms: C_6  and  N_13 
REMARK    4  A    between atoms: N_15  and  C_17 
ROOT
HETATM    1  C   UNL     1      10.884   2.683  22.986  1.00  0.00     0.683 C 
HETATM    2  C   UNL     1       9.030   1.847  22.686  1.00  0.00     0.136 C 
HETATM    3  N   UNL     1      11.188   1.463  23.737  1.00  0.00    -0.202 N 
ATOM      4  HN  UNL     1      12.127   1.067  23.747  1.00  0.00     0.183 HD
HETATM    5  C   UNL     1      10.194   0.895  24.405  1.00  0.00     0.110 C 
HETATM    6  C   UNL     1       9.000   1.405  24.111  1.00  0.00     0.068 C 
HETATM    7  N   UNL     1       9.998   2.283  22.187  1.00  0.00    -0.175 N 
ATOM      8  HN  UNL     1      10.114   2.336  21.175  1.00  0.00     0.186 HD
ENDROOT
BRANCH   2   9
HETATM    9  N   UNL     1       8.200   1.803  21.595  1.00  0.00    -0.285 N 
HETATM   10  N   UNL     1       7.821   0.783  21.046  1.00  0.00    -0.298 N 
ATOM     11  HN  UNL     1       8.180  -0.100  21.408  1.00  0.00     0.187 HD
ATOM     12  HN  UNL     1       7.875   2.692  21.214  1.00  0.00     0.188 HD
BRANCH  10  13
HETATM   13  C   UNL     1       6.973   0.719  20.010  1.00  0.00     0.064 C 
HETATM   14  C   UNL     1       7.317   0.104  18.869  1.00  0.00     0.118 C 
HETATM   15  N   UNL     1       6.239  -0.185  18.081  1.00  0.00    -0.373 N 
HETATM   16  C   UNL     1       5.280   0.558  18.629  1.00  0.00     0.090 C 
ATOM     17  HN  UNL     1       6.183  -0.810  17.277  1.00  0.00     0.164 HD
HETATM   18  C   UNL     1       5.696   1.244  19.791  1.00  0.00     0.049 C 
ENDBRANCH  10  13
ENDBRANCH   2   9
BRANCH   1  19
HETATM   19  N   UNL     1      11.295   3.951  23.091  1.00  0.00    -0.206 N 
ATOM     20  HN  UNL     1      11.660   4.183  22.167  1.00  0.00     0.183 HD
BRANCH  19  21
HETATM   21  C   UNL     1      11.446   4.944  23.733  1.00  0.00     0.074 C 
HETATM   22  C   UNL     1      12.117   5.970  24.403  1.00  0.00     0.055 C 
ENDBRANCH  19  21
ENDBRANCH   1  19
TORSDOF 4
ENDMDL
MODEL 6
REMARK VINA RESULT:    -5.329     23.011     25.556
REMARK INTER + INTRA:          -6.944
REMARK INTER:                  -6.612
REMARK INTRA:                  -0.333
REMARK UNBOUND:                -0.370
REMARK  4 active torsions:
REMARK  status: ('A' for Active; 'I' for Inactive)
REMARK    1  A    between atoms: C_2  and  N_3 
REMARK    2  A    between atoms: N_3  and  C_5 
REMARK    3  A    between atoms: C_6  and  N_13 
REMARK    4  A    between atoms: N_15  and  C_17 
ROOT
HETATM    1  C   UNL     1       9.931  -0.947  21.623  1.00  0.00     0.683 C 
HETATM    2  C   UNL     1       9.509  -2.226  23.176  1.00  0.00     0.136 C 
HETATM    3  N   UNL     1      11.336  -1.153  21.984  1.00  0.00    -0.202 N 
ATOM      4  HN  UNL     1      12.071  -1.149  21.277  1.00  0.00     0.183 HD
HETATM    5  C   UNL     1      11.614  -1.344  23.265  1.00  0.00     0.110 C 
HETATM    6  C   UNL     1      10.533  -1.540  24.018  1.00  0.00     0.068 C 
HETATM    7  N   UNL     1       9.399  -2.012  22.027  1.00  0.00    -0.175 N 
ATOM      8  HN  UNL     1       8.906  -2.646  21.400  1.00  0.00     0.186 HD
ENDROOT
BRANCH   2   9
HETATM    9  N   UNL     1       8.599  -3.241  23.316  1.00  0.00    -0.285 N 
HETATM   10  N   UNL     1       7.842  -3.628  22.443  1.00  0.00    -0.298 N 
ATOM     11  HN  UNL     1       7.867  -3.130  21.553  1.00  0.00     0.187 HD
ATOM     12  HN  UNL     1       8.551  -3.710  24.222  1.00  0.00     0.188 HD
BRANCH  10  13
HETATM   13  C   UNL     1       6.980  -4.648  22.547  1.00  0.00     0.064 C 
HETATM   14  C   UNL     1       6.997  -5.664  21.672  1.00  0.00     0.118 C 
HETATM   15  N   UNL     1       6.324  -6.762  22.127  1.00  0.00    -0.373 N 
HETATM   16  C   UNL     1       5.634  -6.268  23.152  1.00  0.00     0.090 C 
ATOM     17  HN  UNL     1       6.345  -7.718  21.771  1.00  0.00     0.164 HD
HETATM   18  C   UNL     1       5.913  -4.908  23.413  1.00  0.00     0.049 C 
ENDBRANCH  10  13
ENDBRANCH   2   9
BRANCH   1  19
HETATM   19  N   UNL     1       9.262   0.084  21.095  1.00  0.00    -0.206 N 
ATOM     20  HN  UNL     1       9.557   0.112  20.119  1.00  0.00     0.183 HD
BRANCH  19  21
HETATM   21  C   UNL     1       8.492   0.987  21.204  1.00  0.00     0.074 C 
HETATM   22  C   UNL     1       7.883   2.119  21.751  1.00  0.00     0.055 C 
ENDBRANCH  19  21
ENDBRANCH   1  19
TORSDOF 4
ENDMDL
MODEL 7
REMARK VINA RESULT:    -5.250     21.723     24.662
REMARK INTER + INTRA:          -6.847
REMARK INTER:                  -6.504
REMARK INTRA:                  -0.344
REMARK UNBOUND:                -0.370
REMARK  4 active torsions:
REMARK  status: ('A' for Active; 'I' for Inactive)
REMARK    1  A    between atoms: C_2  and  N_3 
REMARK    2  A    between atoms: N_3  and  C_5 
REMARK    3  A    between atoms: C_6  and  N_13 
REMARK    4  A    between atoms: N_15  and  C_17 
ROOT
HETATM    1  C   UNL     1       9.242  -2.015  23.460  1.00  0.00     0.683 C 
HETATM    2  C   UNL     1       7.275  -1.737  22.931  1.00  0.00     0.136 C 
HETATM    3  N   UNL     1       8.928  -3.446  23.433  1.00  0.00    -0.202 N 
ATOM      4  HN  UNL     1       9.625  -4.135  23.151  1.00  0.00     0.183 HD
HETATM    5  C   UNL     1       7.705  -3.809  23.789  1.00  0.00     0.110 C 
HETATM    6  C   UNL     1       6.864  -2.785  23.912  1.00  0.00     0.068 C 
HETATM    7  N   UNL     1       8.399  -1.548  22.651  1.00  0.00    -0.175 N 
ATOM      8  HN  UNL     1       8.673  -1.041  21.811  1.00  0.00     0.186 HD
ENDROOT
BRANCH   2   9
HETATM    9  N   UNL     1       6.665  -0.875  22.057  1.00  0.00    -0.285 N 
HETATM   10  N   UNL     1       6.950  -0.757  20.878  1.00  0.00    -0.298 N 
ATOM     11  HN  UNL     1       7.727  -1.319  20.530  1.00  0.00     0.187 HD
ATOM     12  HN  UNL     1       5.914  -0.287  22.420  1.00  0.00     0.188 HD
BRANCH  10  13
HETATM   13  C   UNL     1       6.335   0.044  19.998  1.00  0.00     0.064 C 
HETATM   14  C   UNL     1       6.131  -0.343  18.730  1.00  0.00     0.118 C 
HETATM   15  N   UNL     1       5.192   0.417  18.092  1.00  0.00    -0.373 N 
HETATM   16  C   UNL     1       5.075   1.464  18.904  1.00  0.00     0.090 C 
ATOM     17  HN  UNL     1       4.705   0.229  17.216  1.00  0.00     0.164 HD
HETATM   18  C   UNL     1       5.849   1.353  20.080  1.00  0.00     0.049 C 
ENDBRANCH  10  13
ENDBRANCH   2   9
BRANCH   1  19
HETATM   19  N   UNL     1      10.097  -1.277  24.176  1.00  0.00    -0.206 N 
ATOM     20  HN  UNL     1      10.096  -1.706  25.102  1.00  0.00     0.183 HD
BRANCH  19  21
HETATM   21  C   UNL     1      10.859  -0.366  24.267  1.00  0.00     0.074 C 
HETATM   22  C   UNL     1      12.048   0.313  24.546  1.00  0.00     0.055 C 
ENDBRANCH  19  21
ENDBRANCH   1  19
TORSDOF 4
ENDMDL
MODEL 8
REMARK VINA RESULT:    -5.240     25.402     27.415
REMARK INTER + INTRA:          -6.835
REMARK INTER:                  -6.463
REMARK INTRA:                  -0.371
REMARK UNBOUND:                -0.370
REMARK  4 active torsions:
REMARK  status: ('A' for Active; 'I' for Inactive)
REMARK    1  A    between atoms: C_2  and  N_3 
REMARK    2  A    between atoms: N_3  and  C_5 
REMARK    3  A    between atoms: C_6  and  N_13 
REMARK    4  A    between atoms: N_15  and  C_17 
ROOT
HETATM    1  C   UNL     1      10.888   0.079  24.819  1.00  0.00     0.683 C 
HETATM    2  C   UNL     1       9.085  -0.812  24.397  1.00  0.00     0.136 C 
HETATM    3  N   UNL     1      10.096   1.263  25.159  1.00  0.00    -0.202 N 
ATOM      4  HN  UNL     1      10.390   1.904  25.896  1.00  0.00     0.183 HD
HETATM    5  C   UNL     1       8.982   1.468  24.473  1.00  0.00     0.110 C 
HETATM    6  C   UNL     1       8.631   0.434  23.711  1.00  0.00     0.068 C 
HETATM    7  N   UNL     1      10.071  -0.853  25.032  1.00  0.00    -0.175 N 
ATOM      8  HN  UNL     1      10.252  -1.592  25.710  1.00  0.00     0.186 HD
ENDROOT
BRANCH   2   9
HETATM    9  N   UNL     1       8.595  -2.070  24.638  1.00  0.00    -0.285 N 
HETATM   10  N   UNL     1       8.641  -2.644  25.712  1.00  0.00    -0.298 N 
ATOM     11  HN  UNL     1       9.113  -2.161  26.476  1.00  0.00     0.187 HD
ATOM     12  HN  UNL     1       8.158  -2.563  23.859  1.00  0.00     0.188 HD
BRANCH  10  13
HETATM   13  C   UNL     1       8.126  -3.852  25.979  1.00  0.00     0.064 C 
HETATM   14  C   UNL     1       8.777  -4.727  26.758  1.00  0.00     0.118 C 
HETATM   15  N   UNL     1       7.969  -5.729  27.214  1.00  0.00    -0.373 N 
HETATM   16  C   UNL     1       6.900  -5.610  26.430  1.00  0.00     0.090 C 
ATOM     17  HN  UNL     1       8.140  -6.399  27.964  1.00  0.00     0.164 HD
HETATM   18  C   UNL     1       6.971  -4.511  25.547  1.00  0.00     0.049 C 
ENDBRANCH  10  13
ENDBRANCH   2   9
BRANCH   1  19
HETATM   19  N   UNL     1      12.117  -0.089  24.318  1.00  0.00    -0.206 N 
ATOM     20  HN  UNL     1      12.495   0.856  24.238  1.00  0.00     0.183 HD
BRANCH  19  21
HETATM   21  C   UNL     1      12.988  -0.797  23.918  1.00  0.00     0.074 C 
HETATM   22  C   UNL     1      13.608  -1.802  23.172  1.00  0.00     0.055 C 
ENDBRANCH  19  21
ENDBRANCH   1  19
TORSDOF 4
ENDMDL
MODEL 9
REMARK VINA RESULT:    -5.104     25.451     27.782
REMARK INTER + INTRA:          -6.667
REMARK INTER:                  -6.374
REMARK INTRA:                  -0.293
REMARK UNBOUND:                -0.370
REMARK  4 active torsions:
REMARK  status: ('A' for Active; 'I' for Inactive)
REMARK    1  A    between atoms: C_2  and  N_3 
REMARK    2  A    between atoms: N_3  and  C_5 
REMARK    3  A    between atoms: C_6  and  N_13 
REMARK    4  A    between atoms: N_15  and  C_17 
ROOT
HETATM    1  C   UNL     1       7.446  -4.986  24.103  1.00  0.00     0.683 C 
HETATM    2  C   UNL     1       8.401  -3.352  23.302  1.00  0.00     0.136 C 
HETATM    3  N   UNL     1       7.099  -5.320  22.719  1.00  0.00    -0.202 N 
ATOM      4  HN  UNL     1       7.020  -6.289  22.412  1.00  0.00     0.183 HD
HETATM    5  C   UNL     1       6.892  -4.314  21.883  1.00  0.00     0.110 C 
HETATM    6  C   UNL     1       7.248  -3.131  22.379  1.00  0.00     0.068 C 
HETATM    7  N   UNL     1       8.503  -4.322  23.954  1.00  0.00    -0.175 N 
ATOM      8  HN  UNL     1       9.389  -4.607  24.371  1.00  0.00     0.186 HD
ENDROOT
BRANCH   2   9
HETATM    9  N   UNL     1       9.595  -2.744  23.592  1.00  0.00    -0.285 N 
HETATM   10  N   UNL     1      10.174  -1.956  22.864  1.00  0.00    -0.298 N 
ATOM     11  HN  UNL     1       9.751  -1.767  21.956  1.00  0.00     0.187 HD
ATOM     12  HN  UNL     1      10.034  -2.968  24.486  1.00  0.00     0.188 HD
BRANCH  10  13
HETATM   13  C   UNL     1      11.316  -1.317  23.150  1.00  0.00     0.064 C 
HETATM   14  C   UNL     1      11.317  -0.027  23.517  1.00  0.00     0.118 C 
HETATM   15  N   UNL     1      12.487   0.350  24.112  1.00  0.00    -0.373 N 
HETATM   16  C   UNL     1      13.301  -0.656  23.802  1.00  0.00     0.090 C 
ATOM     17  HN  UNL     1      12.687   1.190  24.656  1.00  0.00     0.164 HD
HETATM   18  C   UNL     1      12.660  -1.700  23.099  1.00  0.00     0.049 C 
ENDBRANCH  10  13
ENDBRANCH   2   9
BRANCH   1  19
HETATM   19  N   UNL     1       6.835  -5.189  25.275  1.00  0.00    -0.206 N 
ATOM     20  HN  UNL     1       5.879  -4.865  25.129  1.00  0.00     0.183 HD
BRANCH  19  21
HETATM   21  C   UNL     1       6.857  -5.562  26.407  1.00  0.00     0.074 C 
HETATM   22  C   UNL     1       6.699  -5.518  27.795  1.00  0.00     0.055 C 
ENDBRANCH  19  21
ENDBRANCH   1  19
TORSDOF 4
ENDMDL
