stable:False satoms:15 tatoms:24 sratio:0.625
  -OEChem-07092417403D

 24 25  0     0  0  0  0  0  0999 V2000
    7.0738   -4.6522   26.1551 H   0  0  0  0  0  0  0  0  0  0  0  0
    8.1157   -4.2830   26.2109 C   0  0  0  0  0  0  0  0  0  0  0  0
    8.7626   -5.1656   26.3563 H   0  0  0  0  0  0  0  0  0  0  0  0
    8.1984   -3.6293   27.0905 H   0  0  0  0  0  0  0  0  0  0  0  0
    8.5907   -3.5554   25.1173 C   0  0  0  0  0  0  0  0  0  0  0  0
    9.3238   -2.8704   24.4735 N   0  0  0  0  0  0  0  0  0  0  0  0
    9.8032   -1.6664   24.1424 C   0  0  0  0  0  0  0  0  0  0  0  0
   10.1999   -0.7831   22.3291 C   0  0  0  0  0  0  0  0  0  0  0  0
   10.9047   -0.8483   24.6542 N   0  0  0  0  0  0  0  0  0  0  0  0
   11.9112   -0.5961   23.8303 C   0  0  0  0  0  0  0  0  0  0  0  0
   12.8612   -0.1888   24.1541 H   0  0  0  0  0  0  0  0  0  0  0  0
   12.4344   -1.2387   21.8913 H   0  0  0  0  0  0  0  0  0  0  0  0
   11.6636   -0.9481   22.5701 C   0  0  0  0  0  0  0  0  0  0  0  0
    9.4015   -0.9820   23.1659 N   0  0  0  0  0  0  0  0  0  0  0  0
    9.3861   -0.3082   21.3333 N   0  0  0  0  0  0  0  0  0  0  0  0
    8.9070    0.6741   19.1534 H   0  0  0  0  0  0  0  0  0  0  0  0
    8.1677   -0.3396   21.3507 N   0  0  0  0  0  0  0  0  0  0  0  0
    7.3557    0.1606   20.4099 C   0  0  0  0  0  0  0  0  0  0  0  0
    7.8118    0.4551   19.1838 C   0  0  0  0  0  0  0  0  0  0  0  0
    6.8082    0.5994   18.2690 N   0  0  0  0  0  0  0  0  0  0  0  0
    5.7311    0.7015   19.0435 C   0  0  0  0  0  0  0  0  0  0  0  0
    4.7532    0.9086   18.6969 H   0  0  0  0  0  0  0  0  0  0  0  0
    6.0108    0.5439   20.4195 C   0  0  0  0  0  0  0  0  0  0  0  0
    5.4079    0.7219   21.2958 H   0  0  0  0  0  0  0  0  0  0  0  0
 20 21  1  0  0  0  0
 19 20  1  0  0  0  0
 21 22  1  0  0  0  0
 21 23  2  0  0  0  0
 16 19  1  0  0  0  0
 18 19  2  0  0  0  0
 18 23  1  0  0  0  0
 17 18  1  0  0  0  0
 23 24  1  0  0  0  0
 15 17  2  0  0  0  0
  8 15  1  0  0  0  0
 12 13  1  0  0  0  0
  8 13  2  0  0  0  0
  8 14  1  0  0  0  0
 10 13  1  0  0  0  0
  7 14  2  0  0  0  0
 10 11  1  0  0  0  0
  9 10  2  0  0  0  0
  6  7  1  0  0  0  0
  7  9  1  0  0  0  0
  5  6  1  0  0  0  0
  2  5  1  0  0  0  0
  1  2  1  0  0  0  0
  2  3  1  0  0  0  0
  2  4  1  0  0  0  0
M  END
> <Shapegauss>
-192.510437

$$$$
