stable:False satoms:19 tatoms:24 sratio:0.7916666666666666
  -OEChem-07092417303D

 24 24  0     0  0  0  0  0  0999 V2000
    9.9439    0.7510   24.8983 H   0  0  0  0  0  0  0  0  0  0  0  0
   10.9838   -3.3594   22.7688 H   0  0  0  0  0  0  0  0  0  0  0  0
    6.5769   -3.8061   21.4056 H   0  0  0  0  0  0  0  0  0  0  0  0
   10.4986   -0.8510   23.7357 C   0  0  0  0  0  0  0  0  0  0  0  0
    4.6870   -0.8962   19.1378 H   0  0  0  0  0  0  0  0  0  0  0  0
    8.4070   -0.0540   23.7632 N   0  3  0  0  0  0  0  0  0  0  0  0
    9.9438   -3.1016   22.8952 C   0  5  0  0  0  0  0  0  0  0  0  0
   11.9036    1.0876   25.0230 H   0  0  0  0  0  0  0  0  0  0  0  0
    7.2733   -0.8652   21.8966 C   0  0  0  0  0  0  0  0  0  0  0  0
    5.3898   -2.6192   20.0514 C   0  0  0  0  0  0  0  0  0  0  0  0
   12.2447    0.6527   24.0856 C   0  0  0  0  0  0  0  0  0  0  0  0
    6.5679    0.1419   21.8886 O   0  0  0  0  0  0  0  0  0  0  0  0
    6.4088   -2.8633   20.9140 C   0  0  0  0  0  0  0  0  0  0  0  0
   11.8588    1.2568   23.2458 H   0  0  0  0  0  0  0  0  0  0  0  0
   13.3308    0.6450   24.0710 H   0  0  0  0  0  0  0  0  0  0  0  0
    9.2537   -3.9244   22.9456 H   0  0  0  0  0  0  0  0  0  0  0  0
    7.6521    0.5927   23.9133 H   0  0  0  0  0  0  0  0  0  0  0  0
    7.2194   -1.8717   21.0925 N   0  0  0  0  0  0  0  0  0  0  0  0
    5.1665   -1.3540   19.8150 O   0  0  0  0  0  0  0  0  0  0  0  0
    8.3975   -0.9980   22.8700 C   0  0  0  0  0  0  0  0  0  0  0  0
    9.6040   -1.7886   23.0344 C   0  0  0  0  0  0  0  0  0  0  0  0
    4.7928   -3.4058   19.6159 H   0  0  0  0  0  0  0  0  0  0  0  0
   11.8163   -0.7182   23.9745 O   0  0  0  0  0  0  0  0  0  0  0  0
    9.6634    0.0590   24.2549 N   0  0  0  0  0  0  0  0  0  0  0  0
  5 19  1  0  0  0  0
 10 22  1  0  0  0  0
 10 19  1  0  0  0  0
 10 13  2  0  0  0  0
 13 18  1  0  0  0  0
  3 13  1  0  0  0  0
  9 18  1  0  0  0  0
  9 12  2  0  0  0  0
  9 20  1  0  0  0  0
  2  7  1  0  0  0  0
 20 21  1  0  0  0  0
  6 20  2  0  0  0  0
  7 16  1  0  0  0  0
  7 21  1  0  0  0  0
  4 21  2  0  0  0  0
 11 14  1  0  0  0  0
  4 23  1  0  0  0  0
  4 24  1  0  0  0  0
  6 17  1  0  0  0  0
  6 24  1  0  0  0  0
 11 23  1  0  0  0  0
 11 15  1  0  0  0  0
  8 11  1  0  0  0  0
  1 24  1  0  0  0  0
M  CHG  2   6   1   7  -1
M  END
> <Shapegauss>
-119.858223

$$$$
