stable:False satoms:19 tatoms:24 sratio:0.7916666666666666
  -OEChem-08052414313D

 25 25  0     0  0  0  0  0  0999 V2000
   -9.6297   -0.9713  -19.3898 H   0  0  0  0  0  0  0  0  0  0  0  0
   -6.9118    1.7011  -22.6480 H   0  0  0  0  0  0  0  0  0  0  0  0
   -4.4666    3.1900  -19.9621 H   0  0  0  0  0  0  0  0  0  0  0  0
   -8.7494    0.0000  -20.9732 C   0  0  0  0  0  0  0  0  0  0  0  0
   -1.8678    0.4457  -18.2599 H   0  0  0  0  0  0  0  0  0  0  0  0
   -7.7975   -0.1064  -18.9501 N   0  0  0  0  0  0  0  0  0  0  0  0
   -7.5174    1.9803  -21.7732 C   0  0  0  0  0  0  0  0  0  0  0  0
  -10.7620   -1.8183  -20.7933 H   0  0  0  0  0  0  0  0  0  0  0  0
   -5.5419    0.4390  -19.1556 C   0  0  0  0  0  0  0  0  0  0  0  0
   -2.8285    2.0714  -19.1153 C   0  0  0  0  0  0  0  0  0  0  0  0
  -10.0867   -1.7864  -21.6460 C   0  0  0  0  0  0  0  0  0  0  0  0
   -5.2820   -0.2760  -18.1896 O   0  0  0  0  0  0  0  0  0  0  0  0
   -4.0575    2.2393  -19.6661 C   0  0  0  0  0  0  0  0  0  0  0  0
   -9.2344   -2.4624  -21.4571 H   0  0  0  0  0  0  0  0  0  0  0  0
  -10.6226   -2.1021  -22.5366 H   0  0  0  0  0  0  0  0  0  0  0  0
   -7.0465    2.8303  -21.2576 H   0  0  0  0  0  0  0  0  0  0  0  0
   -4.7222    1.1465  -19.8557 N   0  0  0  0  0  0  0  0  0  0  0  0
   -2.6432    0.9146  -18.5373 O   0  0  0  0  0  0  0  0  0  0  0  0
   -6.9304    0.5058  -19.7000 C   0  0  0  0  0  0  0  0  0  0  0  0
   -7.5999    0.9203  -20.9197 C   0  0  0  0  0  0  0  0  0  0  0  0
   -2.0726    2.8417  -19.1290 H   0  0  0  0  0  0  0  0  0  0  0  0
   -9.6339   -0.4402  -21.8869 O   0  0  0  0  0  0  0  0  0  0  0  0
   -8.8655   -0.4391  -19.7127 N   0  0  0  0  0  0  0  0  0  0  0  0
   -8.5275    2.2652  -22.1026 H   0  0  0  0  0  0  0  0  0  0  0  0
   -4.5624    0.7567  -20.7627 H   0  0  0  0  0  0  0  0  0  0  0  0
  5 18  1  0  0  0  0
 10 21  1  0  0  0  0
 10 18  1  0  0  0  0
 10 13  2  0  0  0  0
 13 17  1  0  0  0  0
  3 13  1  0  0  0  0
  9 17  1  0  0  0  0
  9 12  2  0  0  0  0
  9 19  1  0  0  0  0
  2  7  1  0  0  0  0
 19 20  1  0  0  0  0
  6 19  2  0  0  0  0
  7 16  1  0  0  0  0
  7 20  1  0  0  0  0
  4 20  2  0  0  0  0
 11 14  1  0  0  0  0
  4 22  1  0  0  0  0
  4 23  1  0  0  0  0
  6 23  1  0  0  0  0
 11 22  1  0  0  0  0
 11 15  1  0  0  0  0
  8 11  1  0  0  0  0
  1 23  1  0  0  0  0
  7 24  1  0  0  0  0
 17 25  1  0  0  0  0
M  END
> <Chemgauss4>
-6.028118

$$$$
