stable:False satoms:19 tatoms:24 sratio:0.7916666666666666
  -OEChem-08052414313D

 25 25  0     0  0  0  0  0  0999 V2000
    9.5745   -0.9019   19.4017 H   0  0  0  0  0  0  0  0  0  0  0  0
    6.8565    1.7705   22.6599 H   0  0  0  0  0  0  0  0  0  0  0  0
    4.4113    3.2595   19.9740 H   0  0  0  0  0  0  0  0  0  0  0  0
    8.6942    0.0695   20.9852 C   0  0  0  0  0  0  0  0  0  0  0  0
    1.8126    0.5151   18.2719 H   0  0  0  0  0  0  0  0  0  0  0  0
    7.7422   -0.0370   18.9620 N   0  0  0  0  0  0  0  0  0  0  0  0
    7.4621    2.0497   21.7851 C   0  0  0  0  0  0  0  0  0  0  0  0
   10.7067   -1.7489   20.8052 H   0  0  0  0  0  0  0  0  0  0  0  0
    5.4866    0.5084   19.1675 C   0  0  0  0  0  0  0  0  0  0  0  0
    2.7732    2.1408   19.1272 C   0  0  0  0  0  0  0  0  0  0  0  0
   10.0315   -1.7170   21.6580 C   0  0  0  0  0  0  0  0  0  0  0  0
    5.2267   -0.2066   18.2016 O   0  0  0  0  0  0  0  0  0  0  0  0
    4.0022    2.3088   19.6780 C   0  0  0  0  0  0  0  0  0  0  0  0
    9.1792   -2.3930   21.4691 H   0  0  0  0  0  0  0  0  0  0  0  0
   10.5673   -2.0327   22.5485 H   0  0  0  0  0  0  0  0  0  0  0  0
    6.9912    2.8997   21.2695 H   0  0  0  0  0  0  0  0  0  0  0  0
    4.6670    1.2159   19.8677 N   0  0  0  0  0  0  0  0  0  0  0  0
    2.5880    0.9840   18.5492 O   0  0  0  0  0  0  0  0  0  0  0  0
    6.8752    0.5752   19.7120 C   0  0  0  0  0  0  0  0  0  0  0  0
    7.5447    0.9898   20.9317 C   0  0  0  0  0  0  0  0  0  0  0  0
    2.0174    2.9111   19.1409 H   0  0  0  0  0  0  0  0  0  0  0  0
    9.5787   -0.3708   21.8989 O   0  0  0  0  0  0  0  0  0  0  0  0
    8.8103   -0.3697   19.7247 N   0  0  0  0  0  0  0  0  0  0  0  0
    8.4722    2.3346   22.1145 H   0  0  0  0  0  0  0  0  0  0  0  0
    4.5071    0.8262   20.7746 H   0  0  0  0  0  0  0  0  0  0  0  0
  5 18  1  0  0  0  0
 10 21  1  0  0  0  0
 10 18  1  0  0  0  0
 10 13  2  0  0  0  0
 13 17  1  0  0  0  0
  3 13  1  0  0  0  0
  9 17  1  0  0  0  0
  9 12  2  0  0  0  0
  9 19  1  0  0  0  0
  2  7  1  0  0  0  0
 19 20  1  0  0  0  0
  6 19  2  0  0  0  0
  7 16  1  0  0  0  0
  7 20  1  0  0  0  0
  4 20  2  0  0  0  0
 11 14  1  0  0  0  0
  4 22  1  0  0  0  0
  4 23  1  0  0  0  0
  6 23  1  0  0  0  0
 11 22  1  0  0  0  0
 11 15  1  0  0  0  0
  8 11  1  0  0  0  0
  1 23  1  0  0  0  0
  7 24  1  0  0  0  0
 17 25  1  0  0  0  0
M  END
> <Chemgauss4>
-6.121787

$$$$
