stable:False satoms:14 tatoms:24 sratio:0.5833333333333334
  -OEChem-07092417373D

 24 25  0     1  0  0  0  0  0999 V2000
    6.6864   -4.3999   26.1397 F   0  0  0  0  0  0  0  0  0  0  0  0
    8.1215   -4.0563   26.0772 S   0  0  0  0  0  0  0  0  0  0  0  0
    8.8803   -5.2272   25.9560 O   0  0  0  0  0  0  0  0  0  0  0  0
    8.4687   -3.1863   27.1178 O   0  0  0  0  0  0  0  0  0  0  0  0
    8.5085   -3.1720   24.5333 C   0  0  2  0  0  0  0  0  0  0  0  0
    8.9148   -3.2316   23.3719 N   0  3  0  0  0  0  0  0  0  0  0  0
    9.4179   -2.4050   24.0291 C   0  0  2  0  0  0  0  0  0  0  0  0
   10.5174   -1.5166   24.4108 N   0  0  0  0  0  0  0  0  0  0  0  0
   10.6947   -0.9141   23.4242 C   0  0  0  0  0  0  0  0  0  0  0  0
   12.4098    0.2709   23.9833 H   0  0  0  0  0  0  0  0  0  0  0  0
   12.2221   -0.4717   23.2414 C   0  0  0  0  0  0  0  0  0  0  0  0
   12.8682   -1.3172   23.3452 H   0  0  0  0  0  0  0  0  0  0  0  0
   12.2398   -0.1857   22.2167 H   0  0  0  0  0  0  0  0  0  0  0  0
    9.8472   -0.6028   22.4615 N   0  0  0  0  0  0  0  0  0  0  0  0
    9.1353   -0.0359   21.5254 C   0  0  0  0  0  0  0  0  0  0  0  0
    9.5544    0.8246   20.7904 O   0  0  0  0  0  0  0  0  0  0  0  0
    7.8387   -0.5546   21.4152 N   0  0  0  0  0  0  0  0  0  0  0  0
    7.0591   -0.0703   20.4611 C   0  0  0  0  0  0  0  0  0  0  0  0
    7.3500   -0.0269   19.1509 N   0  0  0  0  0  0  0  0  0  0  0  0
    6.2772    0.6232   17.5133 H   0  0  0  0  0  0  0  0  0  0  0  0
    6.3106    0.4886   18.5706 C   0  0  0  0  0  0  0  0  0  0  0  0
    5.3091    0.7714   19.4209 O   0  0  0  0  0  0  0  0  0  0  0  0
    5.7404    0.4714   20.6151 C   0  0  0  0  0  0  0  0  0  0  0  0
    5.2120    0.6339   21.5258 H   0  0  0  0  0  0  0  0  0  0  0  0
 20 21  1  0  0  0  0
 19 21  2  0  0  0  0
 21 22  1  0  0  0  0
 18 19  1  0  0  0  0
 22 23  1  0  0  0  0
 18 23  2  0  0  0  0
 17 18  1  0  0  0  0
 23 24  1  0  0  0  0
 15 16  2  0  0  0  0
 15 17  1  0  0  0  0
 14 15  1  0  0  0  0
 11 13  1  0  0  0  0
  9 14  1  0  0  0  0
 11 12  1  0  0  0  0
  9 11  1  0  0  0  0
 10 11  1  0  0  0  0
  6  7  1  0  0  0  0
  5  6  1  0  0  0  0
  8  9  2  0  0  0  0
  7  8  1  0  0  0  0
  5  7  1  0  0  0  0
  2  5  1  0  0  0  0
  2  3  2  0  0  0  0
  1  2  1  0  0  0  0
  2  4  2  0  0  0  0
M  CHG  1   6   1
M  END
> <Shapegauss>
-214.134323

$$$$
