stable:False satoms:14 tatoms:24 sratio:0.5833333333333334
  -OEChem-08062405413D

 30 31  0     1  0  0  0  0  0999 V2000
    6.9756    2.7631   18.3406 F   0  0  0  0  0  0  0  0  0  0  0  0
    6.2409    1.5245   18.6686 S   0  0  0  0  0  0  0  0  0  0  0  0
    6.0930    0.7460   17.5138 O   0  0  0  0  0  0  0  0  0  0  0  0
    5.0737    1.8154   19.3851 O   0  0  0  0  0  0  0  0  0  0  0  0
    7.2369    0.4476   19.7473 C   0  0  2  0  0  0  0  0  0  0  0  0
    8.0153   -0.5027   19.8390 N   0  0  0  0  0  0  0  0  0  0  0  0
    7.0968   -0.5454   20.5620 C   0  0  2  0  0  0  0  0  0  0  0  0
    6.0938   -1.2365   21.3746 N   0  3  0  0  0  0  0  0  0  0  0  0
    6.7621   -1.8626   22.1021 C   0  0  0  0  0  0  0  0  0  0  0  0
    5.2529   -2.9709   23.1757 H   0  0  0  0  0  0  0  0  0  0  0  0
    6.0690   -3.2365   22.5428 C   0  0  0  0  0  0  0  0  0  0  0  0
    5.7495   -3.7838   21.6816 H   0  0  0  0  0  0  0  0  0  0  0  0
    6.8912   -3.7643   22.9641 H   0  0  0  0  0  0  0  0  0  0  0  0
    7.9782   -1.6177   22.5527 N   0  0  0  0  0  0  0  0  0  0  0  0
    9.0699   -1.4601   23.2510 C   0  0  0  0  0  0  0  0  0  0  0  0
    9.3681   -2.1480   24.1966 O   0  0  0  0  0  0  0  0  0  0  0  0
    9.9003   -0.4391   22.7709 N   0  0  0  0  0  0  0  0  0  0  0  0
   11.0526   -0.2377   23.3908 C   0  0  0  0  0  0  0  0  0  0  0  0
   12.0041   -1.1603   23.6063 N   0  0  0  0  0  0  0  0  0  0  0  0
   13.8664   -1.0518   24.4870 H   0  0  0  0  0  0  0  0  0  0  0  0
   12.9714   -0.5421   24.2105 C   0  0  0  0  0  0  0  0  0  0  0  0
   12.7378    0.7690   24.3906 O   0  0  0  0  0  0  0  0  0  0  0  0
   11.5407    0.9998   23.9260 C   0  0  0  0  0  0  0  0  0  0  0  0
   11.0251    1.9309   23.9718 H   0  0  0  0  0  0  0  0  0  0  0  0
    7.6997    1.2186   20.3809 H   0  0  0  0  0  0  0  0  0  0  0  0
    8.9275   -0.3499   20.2193 H   0  0  0  0  0  0  0  0  0  0  0  0
    7.5918   -0.0576   21.4146 H   0  0  0  0  0  0  0  0  0  0  0  0
    8.3632   -1.3242   21.6778 H   0  0  0  0  0  0  0  0  0  0  0  0
    9.6315    0.1191   21.9860 H   0  0  0  0  0  0  0  0  0  0  0  0
    5.0965   -1.1861   21.3215 H   0  0  0  0  0  0  0  0  0  0  0  0
 20 21  1  0  0  0  0
 19 21  2  0  0  0  0
 21 22  1  0  0  0  0
 18 19  1  0  0  0  0
 22 23  1  0  0  0  0
 18 23  2  0  0  0  0
 17 18  1  0  0  0  0
 23 24  1  0  0  0  0
 15 16  2  0  0  0  0
 15 17  1  0  0  0  0
 14 15  1  0  0  0  0
 11 13  1  0  0  0  0
  9 14  1  0  0  0  0
 11 12  1  0  0  0  0
  9 11  1  0  0  0  0
 10 11  1  0  0  0  0
  6  7  1  0  0  0  0
  5  6  1  0  0  0  0
  8  9  2  0  0  0  0
  7  8  1  0  0  0  0
  5  7  1  0  0  0  0
  2  5  1  0  0  0  0
  2  3  2  0  0  0  0
  1  2  1  0  0  0  0
  2  4  2  0  0  0  0
  5 25  1  0  0  0  0
  6 26  1  0  0  0  0
  7 27  1  0  0  0  0
 14 28  1  0  0  0  0
 17 29  1  0  0  0  0
  8 30  1  0  0  0  0
M  CHG  1   8   1
M  END
> <Chemgauss4>
-4.881801

$$$$
