stable:False satoms:14 tatoms:24 sratio:0.5833333333333334
  -OEChem-08062405413D

 30 31  0     1  0  0  0  0  0999 V2000
   -7.1430    3.0723  -18.8707 F   0  0  0  0  0  0  0  0  0  0  0  0
   -6.3208    1.8939  -19.2124 S   0  0  0  0  0  0  0  0  0  0  0  0
   -5.9841    1.2006  -18.0430 O   0  0  0  0  0  0  0  0  0  0  0  0
   -5.2636    2.2549  -20.0564 O   0  0  0  0  0  0  0  0  0  0  0  0
   -7.3010    0.6659  -20.1325 C   0  0  2  0  0  0  0  0  0  0  0  0
   -7.9837   -0.3589  -20.0998 N   0  0  0  0  0  0  0  0  0  0  0  0
   -7.1393   -0.3539  -20.9093 C   0  0  2  0  0  0  0  0  0  0  0  0
   -6.1539   -0.9900  -21.7858 N   0  3  0  0  0  0  0  0  0  0  0  0
   -6.8217   -1.7184  -22.4114 C   0  0  0  0  0  0  0  0  0  0  0  0
   -5.3177   -2.7351  -23.5787 H   0  0  0  0  0  0  0  0  0  0  0  0
   -6.0379   -3.0418  -22.8545 C   0  0  0  0  0  0  0  0  0  0  0  0
   -5.5830   -3.5055  -22.0053 H   0  0  0  0  0  0  0  0  0  0  0  0
   -6.8387   -3.6698  -23.1649 H   0  0  0  0  0  0  0  0  0  0  0  0
   -8.0941   -1.6184  -22.7476 N   0  0  0  0  0  0  0  0  0  0  0  0
   -9.2583   -1.6073  -23.3383 C   0  0  0  0  0  0  0  0  0  0  0  0
   -9.5743   -2.3738  -24.2152 O   0  0  0  0  0  0  0  0  0  0  0  0
  -10.1383   -0.6456  -22.8254 N   0  0  0  0  0  0  0  0  0  0  0  0
  -11.3593   -0.5924  -23.3342 C   0  0  0  0  0  0  0  0  0  0  0  0
  -12.2282   -1.6135  -23.4083 N   0  0  0  0  0  0  0  0  0  0  0  0
  -14.1678   -1.7361  -24.0998 H   0  0  0  0  0  0  0  0  0  0  0  0
  -13.3070   -1.1273  -23.9399 C   0  0  0  0  0  0  0  0  0  0  0  0
  -13.2266    0.1878  -24.2045 O   0  0  0  0  0  0  0  0  0  0  0  0
  -12.0202    0.5595  -23.8750 C   0  0  0  0  0  0  0  0  0  0  0  0
  -11.6089    1.5320  -24.0169 H   0  0  0  0  0  0  0  0  0  0  0  0
   -7.8986    1.3510  -20.7517 H   0  0  0  0  0  0  0  0  0  0  0  0
   -8.9390   -0.3170  -20.3926 H   0  0  0  0  0  0  0  0  0  0  0  0
   -7.7612    0.0342  -21.7295 H   0  0  0  0  0  0  0  0  0  0  0  0
   -8.4212   -1.3140  -21.8529 H   0  0  0  0  0  0  0  0  0  0  0  0
   -9.8536   -0.0201  -22.0990 H   0  0  0  0  0  0  0  0  0  0  0  0
   -5.1665   -0.8405  -21.8364 H   0  0  0  0  0  0  0  0  0  0  0  0
 20 21  1  0  0  0  0
 19 21  2  0  0  0  0
 21 22  1  0  0  0  0
 18 19  1  0  0  0  0
 22 23  1  0  0  0  0
 18 23  2  0  0  0  0
 17 18  1  0  0  0  0
 23 24  1  0  0  0  0
 15 16  2  0  0  0  0
 15 17  1  0  0  0  0
 14 15  1  0  0  0  0
 11 13  1  0  0  0  0
  9 14  1  0  0  0  0
 11 12  1  0  0  0  0
  9 11  1  0  0  0  0
 10 11  1  0  0  0  0
  6  7  1  0  0  0  0
  5  6  1  0  0  0  0
  8  9  2  0  0  0  0
  7  8  1  0  0  0  0
  5  7  1  0  0  0  0
  2  5  1  0  0  0  0
  2  3  2  0  0  0  0
  1  2  1  0  0  0  0
  2  4  2  0  0  0  0
  5 25  1  0  0  0  0
  6 26  1  0  0  0  0
  7 27  1  0  0  0  0
 14 28  1  0  0  0  0
 17 29  1  0  0  0  0
  8 30  1  0  0  0  0
M  CHG  1   8   1
M  END
> <Chemgauss4>
-5.165059

$$$$
