stable:False satoms:11 tatoms:24 sratio:0.4583333333333333
  -OEChem-08062411053D

 34 34  0     0  0  0  0  0  0999 V2000
    6.5353   -5.8084   26.0044 Cl  0  0  0  0  0  0  0  0  0  0  0  0
    8.2545   -4.9867   25.7661 S   0  0  0  0  0  0  0  0  0  0  0  0
    9.1998   -6.0346   25.6243 O   0  0  0  0  0  0  0  0  0  0  0  0
    8.4878   -4.1500   26.8960 O   0  0  0  0  0  0  0  0  0  0  0  0
    8.0735   -4.2120   24.3824 N   0  0  0  0  0  0  0  0  0  0  0  0
    8.8148   -3.3366   23.9631 C   0  0  0  0  0  0  0  0  0  0  0  0
    9.3410   -2.4300   23.4859 C   0  0  0  0  0  0  0  0  0  0  0  0
   10.1110   -1.4218   22.9390 C   0  0  0  0  0  0  0  0  0  0  0  0
   11.1886    0.7404   23.8101 H   0  0  0  0  0  0  0  0  0  0  0  0
   11.7992   -0.1404   24.0579 C   0  0  0  0  0  0  0  0  0  0  0  0
   12.8615    0.1444   24.0792 H   0  0  0  0  0  0  0  0  0  0  0  0
   12.5239   -1.5981   22.3781 O   0  0  0  0  0  0  0  0  0  0  0  0
   11.5689   -1.2917   22.9358 C   0  0  0  0  0  0  0  0  0  0  0  0
    9.4678   -0.6327   22.2286 C   0  0  0  0  0  0  0  0  0  0  0  0
    8.6846   -0.0152   21.3198 C   0  0  0  0  0  0  0  0  0  0  0  0
    9.0417    1.0405   20.8139 O   0  0  0  0  0  0  0  0  0  0  0  0
    7.5827   -0.7685   21.1013 N   0  0  0  0  0  0  0  0  0  0  0  0
    6.8483   -0.2468   20.1998 C   0  0  0  0  0  0  0  0  0  0  0  0
    6.9657   -0.0682   18.9690 C   0  0  0  0  0  0  0  0  0  0  0  0
    5.9671    0.4814   17.1244 N   0  3  0  0  0  0  0  0  0  0  0  0
    5.8089    0.4144   18.1507 C   0  0  0  0  0  0  0  0  0  0  0  0
    5.0811    0.4251   19.4205 C   0  0  0  0  0  0  0  0  0  0  0  0
    5.3813    0.1237   20.5452 C   0  0  0  0  0  0  0  0  0  0  0  0
    4.9541    0.0803   21.5556 H   0  0  0  0  0  0  0  0  0  0  0  0
    7.1670   -3.7924   24.4294 H   0  0  0  0  0  0  0  0  0  0  0  0
   11.5033   -0.5259   25.0447 H   0  0  0  0  0  0  0  0  0  0  0  0
    9.7823    0.2653   22.7395 H   0  0  0  0  0  0  0  0  0  0  0  0
    7.3727   -1.6198   21.5822 H   0  0  0  0  0  0  0  0  0  0  0  0
    7.2726   -1.0334   18.5398 H   0  0  0  0  0  0  0  0  0  0  0  0
    7.7734    0.6663   18.8343 H   0  0  0  0  0  0  0  0  0  0  0  0
    6.2018   -0.4213   16.7637 H   0  0  0  0  0  0  0  0  0  0  0  0
    5.1347    0.8119   16.6796 H   0  0  0  0  0  0  0  0  0  0  0  0
    4.0639    0.7762   19.3283 H   0  0  0  0  0  0  0  0  0  0  0  0
    6.7169    1.1179   16.9435 H   0  0  0  0  0  0  0  0  0  0  0  0
 20 21  1  0  0  0  0
 19 21  1  0  0  0  0
 21 22  2  0  0  0  0
 18 19  1  0  0  0  0
 22 23  1  0  0  0  0
 18 23  2  0  0  0  0
 17 18  1  0  0  0  0
 23 24  1  0  0  0  0
 15 16  2  0  0  0  0
 15 17  1  0  0  0  0
 14 15  1  0  0  0  0
  8 14  2  3  0  0  0
 12 13  2  0  0  0  0
  8 13  1  0  0  0  0
 10 13  1  0  0  0  0
  7  8  1  0  0  0  0
  6  7  3  0  0  0  0
 10 11  1  0  0  0  0
  9 10  1  0  0  0  0
  5  6  1  0  0  0  0
  2  5  1  0  0  0  0
  2  3  2  0  0  0  0
  1  2  1  0  0  0  0
  2  4  2  0  0  0  0
  5 25  1  0  0  0  0
 10 26  1  0  0  0  0
 14 27  1  0  0  0  0
 17 28  1  0  0  0  0
 19 29  1  0  0  0  0
 19 30  1  0  0  0  0
 20 31  1  0  0  0  0
 20 32  1  0  0  0  0
 22 33  1  0  0  0  0
 20 34  1  0  0  0  0
M  CHG  1  20   1
M  END
> <Chemgauss4>
-8.379325

$$$$
