stable:False satoms:11 tatoms:24 sratio:0.4583333333333333
  -OEChem-08062411053D

 34 34  0     0  0  0  0  0  0999 V2000
   -6.5596   -5.7594  -26.0044 Cl  0  0  0  0  0  0  0  0  0  0  0  0
   -8.2788   -4.9378  -25.7661 S   0  0  0  0  0  0  0  0  0  0  0  0
   -9.2241   -5.9856  -25.6243 O   0  0  0  0  0  0  0  0  0  0  0  0
   -8.5122   -4.1010  -26.8960 O   0  0  0  0  0  0  0  0  0  0  0  0
   -8.0979   -4.1630  -24.3824 N   0  0  0  0  0  0  0  0  0  0  0  0
   -8.8391   -3.2877  -23.9631 C   0  0  0  0  0  0  0  0  0  0  0  0
   -9.3653   -2.3811  -23.4859 C   0  0  0  0  0  0  0  0  0  0  0  0
  -10.1353   -1.3729  -22.9390 C   0  0  0  0  0  0  0  0  0  0  0  0
  -11.2129    0.7893  -23.8101 H   0  0  0  0  0  0  0  0  0  0  0  0
  -11.8236   -0.0914  -24.0579 C   0  0  0  0  0  0  0  0  0  0  0  0
  -12.8859    0.1933  -24.0792 H   0  0  0  0  0  0  0  0  0  0  0  0
  -12.5482   -1.5492  -22.3781 O   0  0  0  0  0  0  0  0  0  0  0  0
  -11.5932   -1.2428  -22.9358 C   0  0  0  0  0  0  0  0  0  0  0  0
   -9.4921   -0.5838  -22.2286 C   0  0  0  0  0  0  0  0  0  0  0  0
   -8.7089    0.0338  -21.3198 C   0  0  0  0  0  0  0  0  0  0  0  0
   -9.0660    1.0894  -20.8139 O   0  0  0  0  0  0  0  0  0  0  0  0
   -7.6070   -0.7196  -21.1013 N   0  0  0  0  0  0  0  0  0  0  0  0
   -6.8726   -0.1979  -20.1998 C   0  0  0  0  0  0  0  0  0  0  0  0
   -6.9900   -0.0192  -18.9690 C   0  0  0  0  0  0  0  0  0  0  0  0
   -5.9914    0.5303  -17.1244 N   0  3  0  0  0  0  0  0  0  0  0  0
   -5.8332    0.4634  -18.1507 C   0  0  0  0  0  0  0  0  0  0  0  0
   -5.1054    0.4740  -19.4205 C   0  0  0  0  0  0  0  0  0  0  0  0
   -5.4056    0.1727  -20.5452 C   0  0  0  0  0  0  0  0  0  0  0  0
   -4.9784    0.1292  -21.5556 H   0  0  0  0  0  0  0  0  0  0  0  0
   -7.1914   -3.7434  -24.4294 H   0  0  0  0  0  0  0  0  0  0  0  0
  -11.5276   -0.4769  -25.0447 H   0  0  0  0  0  0  0  0  0  0  0  0
   -9.8066    0.3143  -22.7395 H   0  0  0  0  0  0  0  0  0  0  0  0
   -7.3970   -1.5708  -21.5822 H   0  0  0  0  0  0  0  0  0  0  0  0
   -7.2969   -0.9845  -18.5398 H   0  0  0  0  0  0  0  0  0  0  0  0
   -7.7977    0.7153  -18.8343 H   0  0  0  0  0  0  0  0  0  0  0  0
   -6.2261   -0.3723  -16.7637 H   0  0  0  0  0  0  0  0  0  0  0  0
   -5.1590    0.8609  -16.6796 H   0  0  0  0  0  0  0  0  0  0  0  0
   -4.0882    0.8252  -19.3283 H   0  0  0  0  0  0  0  0  0  0  0  0
   -6.7412    1.1668  -16.9435 H   0  0  0  0  0  0  0  0  0  0  0  0
 20 21  1  0  0  0  0
 19 21  1  0  0  0  0
 21 22  2  0  0  0  0
 18 19  1  0  0  0  0
 22 23  1  0  0  0  0
 18 23  2  0  0  0  0
 17 18  1  0  0  0  0
 23 24  1  0  0  0  0
 15 16  2  0  0  0  0
 15 17  1  0  0  0  0
 14 15  1  0  0  0  0
  8 14  2  3  0  0  0
 12 13  2  0  0  0  0
  8 13  1  0  0  0  0
 10 13  1  0  0  0  0
  7  8  1  0  0  0  0
  6  7  3  0  0  0  0
 10 11  1  0  0  0  0
  9 10  1  0  0  0  0
  5  6  1  0  0  0  0
  2  5  1  0  0  0  0
  2  3  2  0  0  0  0
  1  2  1  0  0  0  0
  2  4  2  0  0  0  0
  5 25  1  0  0  0  0
 10 26  1  0  0  0  0
 14 27  1  0  0  0  0
 17 28  1  0  0  0  0
 19 29  1  0  0  0  0
 19 30  1  0  0  0  0
 20 31  1  0  0  0  0
 20 32  1  0  0  0  0
 22 33  1  0  0  0  0
 20 34  1  0  0  0  0
M  CHG  1  20   1
M  END
> <Chemgauss4>
-8.432467

$$$$
