MODEL 1
REMARK VINA RESULT:    -5.400      0.000      0.000
REMARK INTER + INTRA:          -6.800
REMARK INTER:                  -6.504
REMARK INTRA:                  -0.296
REMARK UNBOUND:                -0.296
REMARK  4 active torsions:
REMARK  status: ('A' for Active; 'I' for Inactive)
REMARK    1  A    between atoms: C_4  and  O_15 
REMARK    2  A    between atoms: C_4  and  C_18 
REMARK    3  A    between atoms: C_12  and  C_14 
REMARK    4  A    between atoms: O_17  and  C_18 
ROOT
HETATM    1  C   UNL     1       5.070   0.706  19.262  1.00  0.00     0.030 C 
HETATM    2  C   UNL     1       4.695   1.837  19.441  1.00  0.00     0.014 C 
HETATM    3  H   UNL     1       7.009  -0.493  22.469  1.00  0.00     0.196 HD
HETATM    4  O   UNL     1       6.346   0.666  21.092  1.00  0.00    -0.235 OA
HETATM    5  N   UNL     1       8.616  -0.218  19.912  1.00  0.00    -0.348 N 
ATOM      6  HN  UNL     1       9.448  -0.635  19.495  1.00  0.00     0.167 HD
HETATM    7  C   UNL     1       6.363   0.385  19.809  1.00  0.00     0.113 C 
HETATM    8  C   UNL     1       7.545  -0.034  19.211  1.00  0.00     0.129 C 
HETATM    9  N   UNL     1       7.433   0.092  21.773  1.00  0.00    -0.244 N 
HETATM   10  C   UNL     1       8.606   0.148  21.186  1.00  0.00     0.128 C 
ENDROOT
BRANCH  10  11
HETATM   11  C   UNL     1       9.854   0.555  21.753  1.00  0.00     0.094 C 
HETATM   12  C   UNL     1      10.681  -0.067  22.606  1.00  0.00     0.145 C 
BRANCH  12  13
HETATM   13  O   UNL     1      11.375   0.751  23.486  1.00  0.00    -0.350 OA
HETATM   14  C   UNL     1      10.530   1.027  24.569  1.00  0.00     0.210 C 
ENDBRANCH  12  13
BRANCH  12  15
HETATM   15  C   UNL     1      11.100  -1.487  22.696  1.00  0.00     0.200 C 
HETATM   16  O   UNL     1      12.216  -1.904  22.564  1.00  0.00    -0.645 OA
BRANCH  15  17
HETATM   17  O   UNL     1      10.081  -2.288  22.906  1.00  0.00    -0.771 OA
HETATM   18  H   UNL     1      10.094  -2.930  22.218  1.00  0.00     0.167 HD
ENDBRANCH  15  17
ENDBRANCH  12  15
ENDBRANCH  10  11
TORSDOF 4
ENDMDL
MODEL 2
REMARK VINA RESULT:    -5.186      4.642      5.991
REMARK INTER + INTRA:          -6.543
REMARK INTER:                  -6.155
REMARK INTRA:                  -0.388
REMARK UNBOUND:                -0.296
REMARK  4 active torsions:
REMARK  status: ('A' for Active; 'I' for Inactive)
REMARK    1  A    between atoms: C_4  and  O_15 
REMARK    2  A    between atoms: C_4  and  C_18 
REMARK    3  A    between atoms: C_12  and  C_14 
REMARK    4  A    between atoms: O_17  and  C_18 
ROOT
HETATM    1  C   UNL     1       9.847  -0.462  21.834  1.00  0.00     0.030 C 
HETATM    2  C   UNL     1       8.979   0.186  21.307  1.00  0.00     0.014 C 
HETATM    3  H   UNL     1       8.649  -4.202  22.077  1.00  0.00     0.196 HD
HETATM    4  O   UNL     1       8.580  -2.286  22.055  1.00  0.00    -0.235 OA
HETATM    5  N   UNL     1       9.042  -2.711  24.688  1.00  0.00    -0.348 N 
ATOM      6  HN  UNL     1       9.280  -2.931  25.655  1.00  0.00     0.167 HD
HETATM    7  C   UNL     1       9.398  -1.503  22.722  1.00  0.00     0.113 C 
HETATM    8  C   UNL     1       9.597  -1.712  24.080  1.00  0.00     0.129 C 
HETATM    9  N   UNL     1       8.346  -3.499  22.725  1.00  0.00    -0.244 N 
HETATM   10  C   UNL     1       8.158  -3.440  24.022  1.00  0.00     0.128 C 
ENDROOT
BRANCH  10  11
HETATM   11  C   UNL     1       7.123  -4.061  24.789  1.00  0.00     0.094 C 
HETATM   12  C   UNL     1       7.177  -4.966  25.777  1.00  0.00     0.145 C 
BRANCH  12  13
HETATM   13  O   UNL     1       6.121  -5.864  25.839  1.00  0.00    -0.350 OA
HETATM   14  C   UNL     1       5.062  -5.329  25.095  1.00  0.00     0.210 C 
ENDBRANCH  12  13
BRANCH  12  15
HETATM   15  C   UNL     1       8.110  -5.103  26.922  1.00  0.00     0.200 C 
HETATM   16  O   UNL     1       9.124  -4.486  27.085  1.00  0.00    -0.645 OA
BRANCH  15  17
HETATM   17  O   UNL     1       7.722  -6.034  27.764  1.00  0.00    -0.771 OA
HETATM   18  H   UNL     1       7.536  -5.601  28.579  1.00  0.00     0.167 HD
ENDBRANCH  15  17
ENDBRANCH  12  15
ENDBRANCH  10  11
TORSDOF 4
ENDMDL
MODEL 3
REMARK VINA RESULT:    -5.164     14.357     16.002
REMARK INTER + INTRA:          -6.516
REMARK INTER:                  -6.100
REMARK INTRA:                  -0.416
REMARK UNBOUND:                -0.296
REMARK  4 active torsions:
REMARK  status: ('A' for Active; 'I' for Inactive)
REMARK    1  A    between atoms: C_4  and  O_15 
REMARK    2  A    between atoms: C_4  and  C_18 
REMARK    3  A    between atoms: C_12  and  C_14 
REMARK    4  A    between atoms: O_17  and  C_18 
ROOT
HETATM    1  C   UNL     1      22.595   0.948  25.560  1.00  0.00     0.030 C 
HETATM    2  C   UNL     1      23.270   1.359  24.649  1.00  0.00     0.014 C 
HETATM    3  H   UNL     1      24.274  -2.308  26.995  1.00  0.00     0.196 HD
HETATM    4  O   UNL     1      23.711  -0.977  25.735  1.00  0.00    -0.235 OA
HETATM    5  N   UNL     1      21.566  -2.626  25.669  1.00  0.00    -0.348 N 
ATOM      6  HN  UNL     1      20.762  -3.250  25.735  1.00  0.00     0.167 HD
HETATM    7  C   UNL     1      22.495  -0.484  25.665  1.00  0.00     0.113 C 
HETATM    8  C   UNL     1      21.407  -1.345  25.595  1.00  0.00     0.129 C 
HETATM    9  N   UNL     1      23.715  -2.315  26.163  1.00  0.00    -0.244 N 
HETATM   10  C   UNL     1      22.801  -3.109  25.656  1.00  0.00     0.128 C 
ENDROOT
BRANCH  10  11
HETATM   11  C   UNL     1      22.980  -4.413  25.099  1.00  0.00     0.094 C 
HETATM   12  C   UNL     1      23.884  -5.369  25.361  1.00  0.00     0.145 C 
BRANCH  12  13
HETATM   13  O   UNL     1      24.264  -6.159  24.286  1.00  0.00    -0.350 OA
HETATM   14  C   UNL     1      24.976  -5.350  23.393  1.00  0.00     0.210 C 
ENDBRANCH  12  13
BRANCH  12  15
HETATM   15  C   UNL     1      24.463  -5.835  26.645  1.00  0.00     0.200 C 
HETATM   16  O   UNL     1      25.002  -5.150  27.468  1.00  0.00    -0.645 OA
BRANCH  15  17
HETATM   17  O   UNL     1      24.359  -7.137  26.787  1.00  0.00    -0.771 OA
HETATM   18  H   UNL     1      25.194  -7.443  27.097  1.00  0.00     0.167 HD
ENDBRANCH  15  17
ENDBRANCH  12  15
ENDBRANCH  10  11
TORSDOF 4
ENDMDL
MODEL 4
REMARK VINA RESULT:    -5.144      3.742      5.722
REMARK INTER + INTRA:          -6.492
REMARK INTER:                  -6.067
REMARK INTRA:                  -0.425
REMARK UNBOUND:                -0.296
REMARK  4 active torsions:
REMARK  status: ('A' for Active; 'I' for Inactive)
REMARK    1  A    between atoms: C_4  and  O_15 
REMARK    2  A    between atoms: C_4  and  C_18 
REMARK    3  A    between atoms: C_12  and  C_14 
REMARK    4  A    between atoms: O_17  and  C_18 
ROOT
HETATM    1  C   UNL     1       6.146  -5.375  24.583  1.00  0.00     0.030 C 
HETATM    2  C   UNL     1       6.694  -5.147  25.631  1.00  0.00     0.014 C 
HETATM    3  H   UNL     1       8.351  -3.910  21.671  1.00  0.00     0.196 HD
HETATM    4  O   UNL     1       7.525  -4.085  23.393  1.00  0.00    -0.235 OA
HETATM    5  N   UNL     1       5.628  -2.647  22.105  1.00  0.00    -0.348 N 
ATOM      6  HN  UNL     1       4.924  -2.163  21.549  1.00  0.00     0.167 HD
HETATM    7  C   UNL     1       6.251  -4.341  23.587  1.00  0.00     0.113 C 
HETATM    8  C   UNL     1       5.289  -3.571  22.945  1.00  0.00     0.129 C 
HETATM    9  N   UNL     1       7.743  -3.336  22.225  1.00  0.00    -0.244 N 
HETATM   10  C   UNL     1       6.913  -2.347  21.984  1.00  0.00     0.128 C 
ENDROOT
BRANCH  10  11
HETATM   11  C   UNL     1       7.232  -1.003  21.614  1.00  0.00     0.094 C 
HETATM   12  C   UNL     1       7.154  -0.369  20.435  1.00  0.00     0.145 C 
BRANCH  12  13
HETATM   13  O   UNL     1       8.118   0.601  20.200  1.00  0.00    -0.350 OA
HETATM   14  C   UNL     1       9.164   0.391  21.106  1.00  0.00     0.210 C 
ENDBRANCH  12  13
BRANCH  12  15
HETATM   15  C   UNL     1       6.124  -0.421  19.368  1.00  0.00     0.200 C 
HETATM   16  O   UNL     1       6.328  -0.415  18.188  1.00  0.00    -0.645 OA
BRANCH  15  17
HETATM   17  O   UNL     1       4.906  -0.437  19.861  1.00  0.00    -0.771 OA
HETATM   18  H   UNL     1       4.446  -1.133  19.425  1.00  0.00     0.167 HD
ENDBRANCH  15  17
ENDBRANCH  12  15
ENDBRANCH  10  11
TORSDOF 4
ENDMDL
MODEL 5
REMARK VINA RESULT:    -5.032     14.330     16.922
REMARK INTER + INTRA:          -6.358
REMARK INTER:                  -6.012
REMARK INTRA:                  -0.346
REMARK UNBOUND:                -0.296
REMARK  4 active torsions:
REMARK  status: ('A' for Active; 'I' for Inactive)
REMARK    1  A    between atoms: C_4  and  O_15 
REMARK    2  A    between atoms: C_4  and  C_18 
REMARK    3  A    between atoms: C_12  and  C_14 
REMARK    4  A    between atoms: O_17  and  C_18 
ROOT
HETATM    1  C   UNL     1      15.253 -11.603  33.897  1.00  0.00     0.030 C 
HETATM    2  C   UNL     1      15.409 -12.614  34.533  1.00  0.00     0.014 C 
HETATM    3  H   UNL     1      11.558 -10.352  34.420  1.00  0.00     0.196 HD
HETATM    4  O   UNL     1      13.045 -11.547  34.218  1.00  0.00    -0.235 OA
HETATM    5  N   UNL     1      12.325 -11.250  31.626  1.00  0.00    -0.348 N 
ATOM      6  HN  UNL     1      12.047 -11.048  30.666  1.00  0.00     0.167 HD
HETATM    7  C   UNL     1      13.960 -11.448  33.281  1.00  0.00     0.113 C 
HETATM    8  C   UNL     1      13.574 -11.331  31.952  1.00  0.00     0.129 C 
HETATM    9  N   UNL     1      11.789 -11.091  33.782  1.00  0.00    -0.244 N 
HETATM   10  C   UNL     1      11.415 -11.435  32.572  1.00  0.00     0.128 C 
ENDROOT
BRANCH  10  11
HETATM   11  C   UNL     1      10.157 -11.979  32.163  1.00  0.00     0.094 C 
HETATM   12  C   UNL     1       9.337 -11.648  31.155  1.00  0.00     0.145 C 
BRANCH  12  13
HETATM   13  O   UNL     1       7.981 -11.813  31.394  1.00  0.00    -0.350 OA
HETATM   14  C   UNL     1       7.843 -12.619  32.531  1.00  0.00     0.210 C 
ENDBRANCH  12  13
BRANCH  12  15
HETATM   15  C   UNL     1       9.626 -11.256  29.753  1.00  0.00     0.200 C 
HETATM   16  O   UNL     1       9.112 -10.356  29.151  1.00  0.00    -0.645 OA
BRANCH  15  17
HETATM   17  O   UNL     1      10.513 -12.047  29.195  1.00  0.00    -0.771 OA
HETATM   18  H   UNL     1      10.141 -12.912  29.192  1.00  0.00     0.167 HD
ENDBRANCH  15  17
ENDBRANCH  12  15
ENDBRANCH  10  11
TORSDOF 4
ENDMDL
MODEL 6
REMARK VINA RESULT:    -5.003      2.942      5.072
REMARK INTER + INTRA:          -6.322
REMARK INTER:                  -5.876
REMARK INTRA:                  -0.446
REMARK UNBOUND:                -0.296
REMARK  4 active torsions:
REMARK  status: ('A' for Active; 'I' for Inactive)
REMARK    1  A    between atoms: C_4  and  O_15 
REMARK    2  A    between atoms: C_4  and  C_18 
REMARK    3  A    between atoms: C_12  and  C_14 
REMARK    4  A    between atoms: O_17  and  C_18 
ROOT
HETATM    1  C   UNL     1       8.126  -3.769  25.882  1.00  0.00     0.030 C 
HETATM    2  C   UNL     1       7.607  -2.978  26.628  1.00  0.00     0.014 C 
HETATM    3  H   UNL     1      10.848  -1.886  23.753  1.00  0.00     0.196 HD
HETATM    4  O   UNL     1       9.228  -2.209  24.729  1.00  0.00    -0.235 OA
HETATM    5  N   UNL     1       8.453  -2.993  22.257  1.00  0.00    -0.348 N 
ATOM      6  HN  UNL     1       8.240  -3.333  21.319  1.00  0.00     0.167 HD
HETATM    7  C   UNL     1       8.463  -3.265  24.576  1.00  0.00     0.113 C 
HETATM    8  C   UNL     1       8.045  -3.634  23.304  1.00  0.00     0.129 C 
HETATM    9  N   UNL     1       9.870  -1.842  23.533  1.00  0.00    -0.244 N 
HETATM   10  C   UNL     1       9.155  -1.882  22.433  1.00  0.00     0.128 C 
ENDROOT
BRANCH  10  11
HETATM   11  C   UNL     1       9.046  -0.879  21.420  1.00  0.00     0.094 C 
HETATM   12  C   UNL     1       9.140   0.457  21.485  1.00  0.00     0.145 C 
BRANCH  12  13
HETATM   13  O   UNL     1       8.345   1.167  20.597  1.00  0.00    -0.350 OA
HETATM   14  C   UNL     1       7.009   0.857  20.880  1.00  0.00     0.210 C 
ENDBRANCH  12  13
BRANCH  12  15
HETATM   15  C   UNL     1      10.057   1.332  22.256  1.00  0.00     0.200 C 
HETATM   16  O   UNL     1      10.239   1.297  23.440  1.00  0.00    -0.645 OA
BRANCH  15  17
HETATM   17  O   UNL     1      10.653   2.216  21.488  1.00  0.00    -0.771 OA
HETATM   18  H   UNL     1      11.346   2.596  22.000  1.00  0.00     0.167 HD
ENDBRANCH  15  17
ENDBRANCH  12  15
ENDBRANCH  10  11
TORSDOF 4
ENDMDL
MODEL 7
REMARK VINA RESULT:    -5.002      7.014      8.645
REMARK INTER + INTRA:          -6.321
REMARK INTER:                  -6.020
REMARK INTRA:                  -0.301
REMARK UNBOUND:                -0.296
REMARK  4 active torsions:
REMARK  status: ('A' for Active; 'I' for Inactive)
REMARK    1  A    between atoms: C_4  and  O_15 
REMARK    2  A    between atoms: C_4  and  C_18 
REMARK    3  A    between atoms: C_12  and  C_14 
REMARK    4  A    between atoms: O_17  and  C_18 
ROOT
HETATM    1  C   UNL     1       6.071  -6.793  29.776  1.00  0.00     0.030 C 
HETATM    2  C   UNL     1       6.232  -5.903  30.572  1.00  0.00     0.014 C 
HETATM    3  H   UNL     1       8.691  -6.365  26.871  1.00  0.00     0.196 HD
HETATM    4  O   UNL     1       7.451  -5.909  28.261  1.00  0.00    -0.235 OA
HETATM    5  N   UNL     1       5.766  -6.030  26.146  1.00  0.00    -0.348 N 
ATOM      6  HN  UNL     1       5.173  -6.154  25.326  1.00  0.00     0.167 HD
HETATM    7  C   UNL     1       6.254  -6.433  28.393  1.00  0.00     0.113 C 
HETATM    8  C   UNL     1       5.388  -6.456  27.308  1.00  0.00     0.129 C 
HETATM    9  N   UNL     1       7.846  -5.827  26.915  1.00  0.00    -0.244 N 
HETATM   10  C   UNL     1       6.943  -5.429  26.049  1.00  0.00     0.128 C 
ENDROOT
BRANCH  10  11
HETATM   11  C   UNL     1       7.082  -4.437  25.029  1.00  0.00     0.094 C 
HETATM   12  C   UNL     1       7.290  -4.550  23.708  1.00  0.00     0.145 C 
BRANCH  12  13
HETATM   13  O   UNL     1       8.048  -3.546  23.123  1.00  0.00    -0.350 OA
HETATM   14  C   UNL     1       8.776  -2.915  24.139  1.00  0.00     0.210 C 
ENDBRANCH  12  13
BRANCH  12  15
HETATM   15  C   UNL     1       6.734  -5.499  22.713  1.00  0.00     0.200 C 
HETATM   16  O   UNL     1       5.577  -5.773  22.566  1.00  0.00    -0.645 OA
BRANCH  15  17
HETATM   17  O   UNL     1       7.677  -6.067  21.996  1.00  0.00    -0.771 OA
HETATM   18  H   UNL     1       7.348  -6.909  21.733  1.00  0.00     0.167 HD
ENDBRANCH  15  17
ENDBRANCH  12  15
ENDBRANCH  10  11
TORSDOF 4
ENDMDL
MODEL 8
REMARK VINA RESULT:    -4.931      2.905      3.922
REMARK INTER + INTRA:          -6.236
REMARK INTER:                  -5.822
REMARK INTRA:                  -0.414
REMARK UNBOUND:                -0.296
REMARK  4 active torsions:
REMARK  status: ('A' for Active; 'I' for Inactive)
REMARK    1  A    between atoms: C_4  and  O_15 
REMARK    2  A    between atoms: C_4  and  C_18 
REMARK    3  A    between atoms: C_12  and  C_14 
REMARK    4  A    between atoms: O_17  and  C_18 
ROOT
HETATM    1  C   UNL     1       6.784  -4.015  23.741  1.00  0.00     0.030 C 
HETATM    2  C   UNL     1       6.813  -4.107  24.943  1.00  0.00     0.014 C 
HETATM    3  H   UNL     1      10.405  -3.153  22.464  1.00  0.00     0.196 HD
HETATM    4  O   UNL     1       8.853  -3.193  23.591  1.00  0.00    -0.235 OA
HETATM    5  N   UNL     1       8.262  -1.048  22.050  1.00  0.00    -0.348 N 
ATOM      6  HN  UNL     1       8.065  -0.289  21.398  1.00  0.00     0.167 HD
HETATM    7  C   UNL     1       7.624  -2.992  23.174  1.00  0.00     0.113 C 
HETATM    8  C   UNL     1       7.330  -1.868  22.414  1.00  0.00     0.129 C 
HETATM    9  N   UNL     1       9.791  -2.458  22.846  1.00  0.00    -0.244 N 
HETATM   10  C   UNL     1       9.479  -1.218  22.547  1.00  0.00     0.128 C 
ENDROOT
BRANCH  10  11
HETATM   11  C   UNL     1      10.288  -0.048  22.694  1.00  0.00     0.094 C 
HETATM   12  C   UNL     1      11.372   0.187  23.448  1.00  0.00     0.145 C 
BRANCH  12  13
HETATM   13  O   UNL     1      11.512   1.482  23.926  1.00  0.00    -0.350 OA
HETATM   14  C   UNL     1      10.266   1.892  24.416  1.00  0.00     0.210 C 
ENDBRANCH  12  13
BRANCH  12  15
HETATM   15  C   UNL     1      12.545  -0.667  23.759  1.00  0.00     0.200 C 
HETATM   16  O   UNL     1      12.845  -1.687  23.206  1.00  0.00    -0.645 OA
BRANCH  15  17
HETATM   17  O   UNL     1      13.239  -0.198  24.771  1.00  0.00    -0.771 OA
HETATM   18  H   UNL     1      14.015  -0.727  24.837  1.00  0.00     0.167 HD
ENDBRANCH  15  17
ENDBRANCH  12  15
ENDBRANCH  10  11
TORSDOF 4
ENDMDL
MODEL 9
REMARK VINA RESULT:    -4.796      3.378      4.410
REMARK INTER + INTRA:          -6.073
REMARK INTER:                  -5.676
REMARK INTRA:                  -0.397
REMARK UNBOUND:                -0.296
REMARK  4 active torsions:
REMARK  status: ('A' for Active; 'I' for Inactive)
REMARK    1  A    between atoms: C_4  and  O_15 
REMARK    2  A    between atoms: C_4  and  C_18 
REMARK    3  A    between atoms: C_12  and  C_14 
REMARK    4  A    between atoms: O_17  and  C_18 
ROOT
HETATM    1  C   UNL     1       5.965  -4.970  23.290  1.00  0.00     0.030 C 
HETATM    2  C   UNL     1       5.730  -5.207  24.447  1.00  0.00     0.014 C 
HETATM    3  H   UNL     1       9.742  -3.911  22.969  1.00  0.00     0.196 HD
HETATM    4  O   UNL     1       7.982  -4.109  23.705  1.00  0.00    -0.235 OA
HETATM    5  N   UNL     1       7.662  -1.799  22.330  1.00  0.00    -0.348 N 
ATOM      6  HN  UNL     1       7.585  -0.970  21.742  1.00  0.00     0.167 HD
HETATM    7  C   UNL     1       6.869  -3.875  23.048  1.00  0.00     0.113 C 
HETATM    8  C   UNL     1       6.706  -2.670  22.377  1.00  0.00     0.129 C 
HETATM    9  N   UNL     1       9.031  -3.276  23.281  1.00  0.00    -0.244 N 
HETATM   10  C   UNL     1       8.744  -2.013  23.065  1.00  0.00     0.128 C 
ENDROOT
BRANCH  10  11
HETATM   11  C   UNL     1       9.453  -0.860  23.525  1.00  0.00     0.094 C 
HETATM   12  C   UNL     1      10.080   0.117  22.854  1.00  0.00     0.145 C 
BRANCH  12  13
HETATM   13  O   UNL     1      11.202   0.655  23.469  1.00  0.00    -0.350 OA
HETATM   14  C   UNL     1      10.967   0.666  24.849  1.00  0.00     0.210 C 
ENDBRANCH  12  13
BRANCH  12  15
HETATM   15  C   UNL     1       9.710   0.838  21.611  1.00  0.00     0.200 C 
HETATM   16  O   UNL     1       8.996   0.426  20.741  1.00  0.00    -0.645 OA
BRANCH  15  17
HETATM   17  O   UNL     1      10.296   2.011  21.530  1.00  0.00    -0.771 OA
HETATM   18  H   UNL     1      11.221   1.848  21.469  1.00  0.00     0.167 HD
ENDBRANCH  15  17
ENDBRANCH  12  15
ENDBRANCH  10  11
TORSDOF 4
ENDMDL
