stable:False satoms:19 tatoms:24 sratio:0.7916666666666666
  -OEChem-07092417313D

 24 24  0     0  0  0  0  0  0999 V2000
   10.0661   -3.4951   25.9308 C   0  0  0  0  0  0  0  0  0  0  0  0
   10.1241   -4.6007   25.4564 C   0  5  0  0  0  0  0  0  0  0  0  0
   10.3316   -3.3337   26.9520 H   0  0  0  0  0  0  0  0  0  0  0  0
    7.2508   -1.4746   24.0650 H   0  0  0  0  0  0  0  0  0  0  0  0
    7.9221   -0.3930   20.8071 C   0  0  0  0  0  0  0  0  0  0  0  0
    8.6841   -2.7146   24.3620 O   0  0  0  0  0  0  0  0  0  0  0  0
   10.1020   -0.5003   23.7223 N   0  0  0  0  0  0  0  0  0  0  0  0
    9.7964   -2.4304   24.9997 C   0  0  0  0  0  0  0  0  0  0  0  0
    8.6462    0.7648   19.0165 C   0  0  0  0  0  0  0  0  0  0  0  0
   10.5314   -1.3087   24.6360 C   0  0  0  0  0  0  0  0  0  0  0  0
    8.1669   -1.6024   23.6772 N   0  0  0  0  0  0  0  0  0  0  0  0
   10.5779   -5.2896   24.9146 H   0  0  0  0  0  0  0  0  0  0  0  0
   11.4636   -1.0547   25.0829 H   0  0  0  0  0  0  0  0  0  0  0  0
    8.9296   -0.3584   21.6913 C   0  0  0  0  0  0  0  0  0  0  0  0
    9.8289    0.1002   21.3340 H   0  0  0  0  0  0  0  0  0  0  0  0
    7.8731    1.4910   19.2313 H   0  0  0  0  0  0  0  0  0  0  0  0
    5.4305   -1.0959   22.1849 H   0  0  0  0  0  0  0  0  0  0  0  0
    9.0241   -0.8451   23.0325 C   0  0  0  0  0  0  0  0  0  0  0  0
    8.2859   -0.5095   19.4729 O   0  0  0  0  0  0  0  0  0  0  0  0
    8.7402    0.6730   17.9360 H   0  0  0  0  0  0  0  0  0  0  0  0
    9.5722    1.1285   19.4431 H   0  0  0  0  0  0  0  0  0  0  0  0
    5.6910    0.1684   20.1416 O   0  0  0  0  0  0  0  0  0  0  0  0
    6.0827   -0.4181   22.2219 O   0  0  0  0  0  0  0  0  0  0  0  0
    6.4627   -0.1914   20.9846 C   0  0  0  0  0  0  0  0  0  0  0  0
  9 20  1  0  0  0  0
  9 16  1  0  0  0  0
  9 21  1  0  0  0  0
  9 19  1  0  0  0  0
  5 19  1  0  0  0  0
 22 24  2  0  0  0  0
  5 24  1  0  0  0  0
  5 14  2  3  0  0  0
 23 24  1  0  0  0  0
 14 15  1  0  0  0  0
 14 18  1  0  0  0  0
 17 23  1  0  0  0  0
 11 18  1  0  0  0  0
  7 18  2  0  0  0  0
  4 11  1  0  0  0  0
  6 11  1  0  0  0  0
  7 10  1  0  0  0  0
  6  8  1  0  0  0  0
  8 10  2  0  0  0  0
 10 13  1  0  0  0  0
  2 12  1  0  0  0  0
  1  8  1  0  0  0  0
  1  2  2  3  0  0  0
  1  3  1  0  0  0  0
M  CHG  1   2  -1
M  END
> <Shapegauss>
-120.434990

$$$$
