stable:False satoms:14 tatoms:24 sratio:0.5833333333333334
  -OEChem-08062407033D

 29 29  0     1  0  0  0  0  0999 V2000
    4.9367    1.8754   20.3228 C   0  0  0  0  0  0  0  0  0  0  0  0
    5.0983    2.9196   20.3368 H   0  0  0  0  0  0  0  0  0  0  0  0
    4.5431    1.5747   19.3447 H   0  0  0  0  0  0  0  0  0  0  0  0
    4.1917    1.6230   21.0993 H   0  0  0  0  0  0  0  0  0  0  0  0
    6.1580    1.2249   20.5947 N   0  3  0  0  0  0  0  0  0  0  0  0
    6.5162    0.2877   21.1600 C   0  0  0  0  0  0  0  0  0  0  0  0
    6.9582   -0.5941   21.8084 C   0  0  0  0  0  0  0  0  0  0  0  0
    7.1704   -1.7870   22.3640 C   0  0  3  0  0  0  0  0  0  0  0  0
    6.0732   -2.4432   22.6669 O   0  0  0  0  0  0  0  0  0  0  0  0
    5.1234   -4.1006   22.2919 H   0  0  0  0  0  0  0  0  0  0  0  0
    6.0644   -3.6995   21.9383 C   0  0  0  0  0  0  0  0  0  0  0  0
    6.8627   -4.3798   22.1226 H   0  0  0  0  0  0  0  0  0  0  0  0
    6.1911   -3.4788   20.8694 H   0  0  0  0  0  0  0  0  0  0  0  0
    8.3996   -2.1303   22.7035 C   0  0  0  0  0  0  0  0  0  0  0  0
    9.5012   -2.0509   23.3164 C   0  0  0  0  0  0  0  0  0  0  0  0
    9.8880   -2.8617   23.9075 H   0  0  0  0  0  0  0  0  0  0  0  0
   10.0795   -0.8494   23.2707 N   0  0  0  0  0  0  0  0  0  0  0  0
   11.2674   -0.6218   23.6032 C   0  0  0  0  0  0  0  0  0  0  0  0
   12.6044   -1.6956   23.1731 S   0  0  0  0  0  0  0  0  0  0  0  0
   13.6029   -0.5731   23.8944 C   0  0  0  0  0  0  0  0  0  0  0  0
   14.6478   -0.6192   23.9805 H   0  0  0  0  0  0  0  0  0  0  0  0
   12.9997    0.4969   24.4454 N   0  0  0  0  0  0  0  0  0  0  0  0
   11.7133    0.4844   24.3080 C   0  0  0  0  0  0  0  0  0  0  0  0
   11.0324    1.2396   24.6796 H   0  0  0  0  0  0  0  0  0  0  0  0
    6.6862    1.9497   21.0371 H   0  0  0  0  0  0  0  0  0  0  0  0
    7.2523   -2.2809   21.3846 H   0  0  0  0  0  0  0  0  0  0  0  0
    8.5581   -3.0026   22.0868 H   0  0  0  0  0  0  0  0  0  0  0  0
    9.5290   -0.0786   22.9500 H   0  0  0  0  0  0  0  0  0  0  0  0
    6.5176    1.0640   19.6756 H   0  0  0  0  0  0  0  0  0  0  0  0
 20 21  1  0  0  0  0
 19 20  1  0  0  0  0
 20 22  2  0  0  0  0
 18 19  1  0  0  0  0
 22 23  1  0  0  0  0
 18 23  2  0  0  0  0
 17 18  1  0  0  0  0
 23 24  1  0  0  0  0
 15 16  1  0  0  0  0
 15 17  1  0  0  0  0
 14 15  2  3  0  0  0
  8 14  1  0  0  0  0
 11 12  1  0  0  0  0
 11 13  1  0  0  0  0
  7  8  1  0  0  0  0
  8  9  1  0  0  0  0
  9 11  1  0  0  0  0
 10 11  1  0  0  0  0
  6  7  3  0  0  0  0
  5  6  1  0  0  0  0
  1  5  1  0  0  0  0
  1  3  1  0  0  0  0
  1  2  1  0  0  0  0
  1  4  1  0  0  0  0
  5 25  1  0  0  0  0
  8 26  1  0  0  0  0
 14 27  1  0  0  0  0
 17 28  1  0  0  0  0
  5 29  1  0  0  0  0
M  CHG  1   5   1
M  END
> <Chemgauss4>
-6.371965

$$$$
