stable:False satoms:14 tatoms:24 sratio:0.5833333333333334
  -OEChem-08062407033D

 29 29  0     1  0  0  0  0  0999 V2000
   -5.9787    1.3942  -21.1942 C   0  0  0  0  0  0  0  0  0  0  0  0
   -4.9292    1.4234  -21.0744 H   0  0  0  0  0  0  0  0  0  0  0  0
   -6.3521    2.3967  -21.4344 H   0  0  0  0  0  0  0  0  0  0  0  0
   -6.4337    1.0634  -20.2428 H   0  0  0  0  0  0  0  0  0  0  0  0
   -6.2913    0.4817  -22.2230 N   0  3  0  0  0  0  0  0  0  0  0  0
   -7.1131   -0.2910  -22.4552 C   0  0  0  0  0  0  0  0  0  0  0  0
   -7.8610   -1.1703  -22.7016 C   0  0  0  0  0  0  0  0  0  0  0  0
   -8.9675   -1.8922  -22.8781 C   0  0  3  0  0  0  0  0  0  0  0  0
   -9.8948   -1.6878  -21.9700 O   0  0  0  0  0  0  0  0  0  0  0  0
  -11.7353   -1.0881  -21.7641 H   0  0  0  0  0  0  0  0  0  0  0  0
  -11.0941   -1.2012  -22.6287 C   0  0  0  0  0  0  0  0  0  0  0  0
  -11.5447   -1.8328  -23.3581 H   0  0  0  0  0  0  0  0  0  0  0  0
  -10.8260   -0.3167  -23.2230 H   0  0  0  0  0  0  0  0  0  0  0  0
   -8.9831   -2.8313  -23.8066 C   0  0  0  0  0  0  0  0  0  0  0  0
   -8.6300   -3.8940  -24.3908 C   0  0  0  0  0  0  0  0  0  0  0  0
   -9.3227   -4.6884  -24.6037 H   0  0  0  0  0  0  0  0  0  0  0  0
   -7.3181   -4.0007  -24.6094 N   0  0  0  0  0  0  0  0  0  0  0  0
   -6.7936   -4.8471  -25.3723 C   0  0  0  0  0  0  0  0  0  0  0  0
   -7.4699   -5.2608  -26.9526 S   0  0  0  0  0  0  0  0  0  0  0  0
   -6.1396   -6.2451  -27.1498 C   0  0  0  0  0  0  0  0  0  0  0  0
   -5.9116   -6.8403  -27.9836 H   0  0  0  0  0  0  0  0  0  0  0  0
   -5.2770   -6.2983  -26.1177 N   0  0  0  0  0  0  0  0  0  0  0  0
   -5.6238   -5.5465  -25.1236 C   0  0  0  0  0  0  0  0  0  0  0  0
   -5.0817   -5.4432  -24.1922 H   0  0  0  0  0  0  0  0  0  0  0  0
   -5.4626   -0.0763  -22.2656 H   0  0  0  0  0  0  0  0  0  0  0  0
   -9.4024   -1.1456  -23.5588 H   0  0  0  0  0  0  0  0  0  0  0  0
   -9.7704   -2.4791  -24.4565 H   0  0  0  0  0  0  0  0  0  0  0  0
   -6.7124   -3.3632  -24.1332 H   0  0  0  0  0  0  0  0  0  0  0  0
   -6.3333    1.0779  -23.0248 H   0  0  0  0  0  0  0  0  0  0  0  0
 20 21  1  0  0  0  0
 19 20  1  0  0  0  0
 20 22  2  0  0  0  0
 18 19  1  0  0  0  0
 22 23  1  0  0  0  0
 18 23  2  0  0  0  0
 17 18  1  0  0  0  0
 23 24  1  0  0  0  0
 15 16  1  0  0  0  0
 15 17  1  0  0  0  0
 14 15  2  3  0  0  0
  8 14  1  0  0  0  0
 11 12  1  0  0  0  0
 11 13  1  0  0  0  0
  7  8  1  0  0  0  0
  8  9  1  0  0  0  0
  9 11  1  0  0  0  0
 10 11  1  0  0  0  0
  6  7  3  0  0  0  0
  5  6  1  0  0  0  0
  1  5  1  0  0  0  0
  1  3  1  0  0  0  0
  1  2  1  0  0  0  0
  1  4  1  0  0  0  0
  5 25  1  0  0  0  0
  8 26  1  0  0  0  0
 14 27  1  0  0  0  0
 17 28  1  0  0  0  0
  5 29  1  0  0  0  0
M  CHG  1   5   1
M  END
> <Chemgauss4>
-6.654323

$$$$
