stable:False satoms:22 tatoms:24 sratio:0.9166666666666666
  -OEChem-08052419413D

 25 24  0     1  0  0  0  0  0999 V2000
    8.8140   -0.0633   26.4452 H   0  0  0  0  0  0  0  0  0  0  0  0
   10.2761   -0.0964   22.4625 H   0  0  0  0  0  0  0  0  0  0  0  0
    6.7922   -1.1510   26.2677 H   0  0  0  0  0  0  0  0  0  0  0  0
    8.9276   -1.0267   25.9447 C   0  0  0  0  0  0  0  0  0  0  0  0
    7.5573   -1.5915   25.6411 C   0  0  0  0  0  0  0  0  0  0  0  0
    7.5750   -2.6575   25.8199 H   0  0  0  0  0  0  0  0  0  0  0  0
   11.8141   -0.6998   24.1832 C   0  0  2  0  0  0  0  0  0  0  0  0
    7.3102   -1.4129   24.6011 H   0  0  0  0  0  0  0  0  0  0  0  0
   11.0534   -0.5175   21.0843 H   0  0  0  0  0  0  0  0  0  0  0  0
   10.5020   -0.1330   24.3257 C   0  0  0  0  0  2  0  0  0  0  0  0
   10.6970   -0.8500   21.9574 N   0  3  0  0  0  0  0  0  0  0  0  0
    9.5971   -2.2703   24.1182 N   0  0  0  0  0  0  0  0  0  0  0  0
   11.6723   -2.4503   22.7996 H   0  0  0  0  0  0  0  0  0  0  0  0
   12.3313    0.5426   24.4648 C   0  0  0  0  0  0  0  0  0  0  0  0
    9.5290   -0.9439   24.6126 N   0  0  0  0  0  0  0  0  0  0  0  0
    9.6218   -1.6135   26.5544 H   0  0  0  0  0  0  0  0  0  0  0  0
   10.3509   -2.7332   24.6801 H   0  0  0  0  0  0  0  0  0  0  0  0
   12.4042   -1.4279   24.8078 H   0  0  0  0  0  0  0  0  0  0  0  0
   11.7859    1.3056   23.8900 H   0  0  0  0  0  0  0  0  0  0  0  0
   11.7721   -1.3686   22.7595 C   0  0  0  0  0  0  0  0  0  0  0  0
   12.2261    0.7490   25.5401 H   0  0  0  0  0  0  0  0  0  0  0  0
    9.5702   -2.5256   23.2630 H   0  0  0  0  0  0  0  0  0  0  0  0
   12.7348   -1.1432   22.3216 H   0  0  0  0  0  0  0  0  0  0  0  0
   13.3960    0.5674   24.1892 H   0  0  0  0  0  0  0  0  0  0  0  0
   10.0206   -1.5672   21.7899 H   0  0  0  0  0  0  0  0  0  0  0  0
 14 21  1  0  0  0  0
 20 23  1  0  0  0  0
 14 19  1  0  0  0  0
  7 14  1  0  0  0  0
  7 20  1  0  0  0  0
 11 20  1  0  0  0  0
 13 20  1  0  0  0  0
  7 18  1  0  0  0  0
  7 10  1  0  0  0  0
  2 11  1  0  0  0  0
  9 11  1  0  0  0  0
 10 15  1  0  0  0  0
 12 15  1  0  0  0  0
  4 15  1  0  0  0  0
 12 17  1  0  0  0  0
 12 22  1  0  0  0  0
  1  4  1  0  0  0  0
  4 16  1  0  0  0  0
  4  5  1  0  0  0  0
  5  8  1  0  0  0  0
  5  6  1  0  0  0  0
  3  5  1  0  0  0  0
 14 24  1  0  0  0  0
 11 25  1  0  0  0  0
M  CHG  1  11   1
M  END
> <Chemgauss4>
-5.550376

$$$$
