stable:False satoms:22 tatoms:24 sratio:0.9166666666666666
  -OEChem-08052419413D

 25 24  0     1  0  0  0  0  0999 V2000
   -8.9909   -0.0756  -26.1118 H   0  0  0  0  0  0  0  0  0  0  0  0
  -10.4530   -0.1088  -22.1291 H   0  0  0  0  0  0  0  0  0  0  0  0
   -6.9691   -1.1633  -25.9343 H   0  0  0  0  0  0  0  0  0  0  0  0
   -9.1045   -1.0390  -25.6113 C   0  0  0  0  0  0  0  0  0  0  0  0
   -7.7342   -1.6038  -25.3078 C   0  0  0  0  0  0  0  0  0  0  0  0
   -7.7519   -2.6698  -25.4865 H   0  0  0  0  0  0  0  0  0  0  0  0
  -11.9910   -0.7121  -23.8498 C   0  0  2  0  0  0  0  0  0  0  0  0
   -7.4871   -1.4253  -24.2677 H   0  0  0  0  0  0  0  0  0  0  0  0
  -11.2303   -0.5298  -20.7509 H   0  0  0  0  0  0  0  0  0  0  0  0
  -10.6789   -0.1453  -23.9924 C   0  0  0  0  0  2  0  0  0  0  0  0
  -10.8739   -0.8623  -21.6241 N   0  3  0  0  0  0  0  0  0  0  0  0
   -9.7740   -2.2826  -23.7849 N   0  0  0  0  0  0  0  0  0  0  0  0
  -11.8492   -2.4626  -22.4663 H   0  0  0  0  0  0  0  0  0  0  0  0
  -12.5082    0.5303  -24.1314 C   0  0  0  0  0  0  0  0  0  0  0  0
   -9.7059   -0.9562  -24.2793 N   0  0  0  0  0  0  0  0  0  0  0  0
   -9.7987   -1.6258  -26.2211 H   0  0  0  0  0  0  0  0  0  0  0  0
  -10.5278   -2.7455  -24.3467 H   0  0  0  0  0  0  0  0  0  0  0  0
  -12.5811   -1.4402  -24.4744 H   0  0  0  0  0  0  0  0  0  0  0  0
  -11.9628    1.2932  -23.5566 H   0  0  0  0  0  0  0  0  0  0  0  0
  -11.9490   -1.3809  -22.4261 C   0  0  0  0  0  0  0  0  0  0  0  0
  -12.4030    0.7367  -25.2067 H   0  0  0  0  0  0  0  0  0  0  0  0
   -9.7471   -2.5379  -22.9296 H   0  0  0  0  0  0  0  0  0  0  0  0
  -12.9117   -1.1555  -21.9883 H   0  0  0  0  0  0  0  0  0  0  0  0
  -13.5729    0.5551  -23.8559 H   0  0  0  0  0  0  0  0  0  0  0  0
  -10.1975   -1.5796  -21.4566 H   0  0  0  0  0  0  0  0  0  0  0  0
 14 21  1  0  0  0  0
 20 23  1  0  0  0  0
 14 19  1  0  0  0  0
  7 14  1  0  0  0  0
  7 20  1  0  0  0  0
 11 20  1  0  0  0  0
 13 20  1  0  0  0  0
  7 18  1  0  0  0  0
  7 10  1  0  0  0  0
  2 11  1  0  0  0  0
  9 11  1  0  0  0  0
 10 15  1  0  0  0  0
 12 15  1  0  0  0  0
  4 15  1  0  0  0  0
 12 17  1  0  0  0  0
 12 22  1  0  0  0  0
  1  4  1  0  0  0  0
  4 16  1  0  0  0  0
  4  5  1  0  0  0  0
  5  8  1  0  0  0  0
  5  6  1  0  0  0  0
  3  5  1  0  0  0  0
 14 24  1  0  0  0  0
 11 25  1  0  0  0  0
M  CHG  1  11   1
M  END
> <Chemgauss4>
-5.559518

$$$$
