stable:False satoms:14 tatoms:24 sratio:0.5833333333333334
  -OEChem-07092417423D

 24 24  0     1  0  0  0  0  0999 V2000
    6.7133   -4.7482   26.2661 O   0  0  0  0  0  0  0  0  0  0  0  0
    8.1964   -4.3107   26.0339 S   0  0  0  0  0  0  0  0  0  0  0  0
    9.0064   -5.5157   25.8833 O   0  0  0  0  0  0  0  0  0  0  0  0
    8.6314   -3.4330   27.0947 O   0  5  0  0  0  0  0  0  0  0  0  0
    8.0927   -3.5843   24.6204 N   0  0  0  0  0  0  0  0  0  0  0  0
    8.7820   -2.7738   24.0508 C   0  0  0  0  0  0  0  0  0  0  0  0
    9.2463   -1.8205   23.3740 C   0  0  0  0  0  0  0  0  0  0  0  0
   10.9798   -0.9229   23.2583 C   0  0  0  0  0  0  0  0  0  0  0  0
   10.7779   -0.4894   24.2893 H   0  0  0  0  0  0  0  0  0  0  0  0
   12.6929    0.5388   24.2173 C   0  0  0  0  0  0  0  0  0  0  0  0
   12.6017   -0.3159   23.5181 C   0  0  0  0  0  0  0  0  0  0  0  0
   13.3033   -0.9020   22.9443 H   0  0  0  0  0  0  0  0  0  0  0  0
   11.4448   -1.7137   22.6077 H   0  0  0  0  0  0  0  0  0  0  0  0
    9.6690   -0.8925   22.6588 C   0  0  3  0  0  0  0  0  0  0  0  0
    9.0103   -0.0673   21.4770 C   0  0  0  0  0  0  0  0  0  0  0  0
    9.5850    0.8629   20.9944 O   0  0  0  0  0  0  0  0  0  0  0  0
    7.8246   -0.5442   21.1891 N   0  0  0  0  0  0  0  0  0  0  0  0
    7.1070   -0.0346   20.2413 C   0  0  0  0  0  0  0  0  0  0  0  0
    7.1983    0.0539   18.9300 C   0  0  0  0  0  0  0  0  0  0  0  0
    6.6693    0.3449   17.8484 N   0  0  0  0  0  0  0  0  0  0  0  0
    5.6824    0.8693   18.2478 C   0  0  0  0  0  0  0  0  0  0  0  0
    5.2785    0.9593   19.4321 C   0  0  0  0  0  0  0  0  0  0  0  0
    5.7445    0.5529   20.5708 C   0  0  0  0  0  0  0  0  0  0  0  0
    5.3462    0.5966   21.5487 H   0  0  0  0  0  0  0  0  0  0  0  0
 20 21  2  0  0  0  0
 19 20  1  0  0  0  0
 21 22  1  0  0  0  0
 18 19  2  0  0  0  0
 22 23  2  0  0  0  0
 18 23  1  0  0  0  0
 17 18  1  0  0  0  0
 23 24  1  0  0  0  0
 15 16  2  0  0  0  0
 15 17  1  0  0  0  0
 14 15  1  0  0  0  0
  8 13  1  0  0  0  0
  8 14  1  0  0  0  0
  7 14  1  0  0  0  0
 11 12  1  0  0  0  0
  8 11  1  0  0  0  0
  8  9  1  0  0  0  0
  6  7  3  0  0  0  0
 10 11  2  0  0  0  0
  5  6  1  0  0  0  0
  2  5  1  0  0  0  0
  2  3  2  0  0  0  0
  1  2  2  0  0  0  0
  2  4  1  0  0  0  0
M  CHG  1   4  -1
M  END
> <Shapegauss>
-244.724228

$$$$
