stable:False satoms:14 tatoms:24 sratio:0.5833333333333334
  -OEChem-08062411553D

 32 32  0     1  0  0  0  0  0999 V2000
   -5.8787   -5.1280  -25.4943 O   0  0  0  0  0  0  0  0  0  0  0  0
   -7.4166   -4.9222  -25.3015 S   0  0  0  0  0  0  0  0  0  0  0  0
   -8.0118   -6.2177  -24.9881 O   0  0  0  0  0  0  0  0  0  0  0  0
   -7.9842   -4.2740  -26.4602 O   0  5  0  0  0  0  0  0  0  0  0  0
   -7.4511   -4.0139  -23.9937 N   0  0  0  0  0  0  0  0  0  0  0  0
   -8.2734   -3.2658  -23.5238 C   0  0  0  0  0  0  0  0  0  0  0  0
   -8.8991   -2.3264  -22.9686 C   0  0  0  0  0  0  0  0  0  0  0  0
  -10.7608   -1.7283  -22.9469 C   0  0  0  0  0  0  0  0  0  0  0  0
  -10.6256   -1.4024  -24.0273 H   0  0  0  0  0  0  0  0  0  0  0  0
  -12.6880   -0.7131  -24.0634 C   0  0  0  0  0  0  0  0  0  0  0  0
  -12.4597   -1.4433  -23.2619 C   0  0  0  0  0  0  0  0  0  0  0  0
  -13.0570   -2.0615  -22.6093 H   0  0  0  0  0  0  0  0  0  0  0  0
  -11.0910   -2.4966  -22.1949 H   0  0  0  0  0  0  0  0  0  0  0  0
   -9.4800   -1.3996  -22.3726 C   0  0  3  0  0  0  0  0  0  0  0  0
   -8.9821   -0.3303  -21.3142 C   0  0  0  0  0  0  0  0  0  0  0  0
   -9.7109    0.5430  -20.9472 O   0  0  0  0  0  0  0  0  0  0  0  0
   -7.7355   -0.5585  -20.9825 N   0  0  0  0  0  0  0  0  0  0  0  0
   -7.1238    0.1824  -20.1166 C   0  0  0  0  0  0  0  0  0  0  0  0
   -7.2412    0.4213  -18.8263 C   0  0  0  0  0  0  0  0  0  0  0  0
   -6.7796    0.9337  -17.7974 N   0  0  0  0  0  0  0  0  0  0  0  0
   -5.8922    1.5623  -18.2727 C   0  0  0  0  0  0  0  0  0  0  0  0
   -5.4982    1.5672  -19.4638 C   0  0  0  0  0  0  0  0  0  0  0  0
   -5.8777    0.9453  -20.5353 C   0  0  0  0  0  0  0  0  0  0  0  0
   -5.4833    0.9304  -21.5157 H   0  0  0  0  0  0  0  0  0  0  0  0
   -6.6462   -3.4301  -24.1003 H   0  0  0  0  0  0  0  0  0  0  0  0
  -11.8840   -0.2267  -24.5958 H   0  0  0  0  0  0  0  0  0  0  0  0
  -13.7145   -0.4877  -24.3122 H   0  0  0  0  0  0  0  0  0  0  0  0
   -9.2667   -0.7058  -23.1990 H   0  0  0  0  0  0  0  0  0  0  0  0
   -7.2470   -1.3207  -21.4073 H   0  0  0  0  0  0  0  0  0  0  0  0
   -8.1683   -0.0453  -18.5277 H   0  0  0  0  0  0  0  0  0  0  0  0
   -5.3571    2.2113  -17.5954 H   0  0  0  0  0  0  0  0  0  0  0  0
   -4.6640    2.2321  -19.6320 H   0  0  0  0  0  0  0  0  0  0  0  0
 20 21  2  0  0  0  0
 19 20  1  0  0  0  0
 21 22  1  0  0  0  0
 18 19  2  0  0  0  0
 22 23  2  0  0  0  0
 18 23  1  0  0  0  0
 17 18  1  0  0  0  0
 23 24  1  0  0  0  0
 15 16  2  0  0  0  0
 15 17  1  0  0  0  0
 14 15  1  0  0  0  0
  8 13  1  0  0  0  0
  8 14  1  0  0  0  0
  7 14  1  0  0  0  0
 11 12  1  0  0  0  0
  8 11  1  0  0  0  0
  8  9  1  0  0  0  0
  6  7  3  0  0  0  0
 10 11  2  0  0  0  0
  5  6  1  0  0  0  0
  2  5  1  0  0  0  0
  2  3  2  0  0  0  0
  1  2  2  0  0  0  0
  2  4  1  0  0  0  0
  5 25  1  0  0  0  0
 10 26  1  0  0  0  0
 10 27  1  0  0  0  0
 14 28  1  0  0  0  0
 17 29  1  0  0  0  0
 19 30  1  0  0  0  0
 21 31  1  0  0  0  0
 22 32  1  0  0  0  0
M  CHG  1   4  -1
M  END
> <Chemgauss4>
-9.376678

$$$$
