stable:False satoms:14 tatoms:24 sratio:0.5833333333333334
  -OEChem-08062411553D

 32 32  0     1  0  0  0  0  0999 V2000
    6.4009   -5.3880   25.5440 O   0  0  0  0  0  0  0  0  0  0  0  0
    7.9389   -5.1822   25.3512 S   0  0  0  0  0  0  0  0  0  0  0  0
    8.5340   -6.4777   25.0378 O   0  0  0  0  0  0  0  0  0  0  0  0
    8.5064   -4.5341   26.5099 O   0  5  0  0  0  0  0  0  0  0  0  0
    7.9734   -4.2739   24.0434 N   0  0  0  0  0  0  0  0  0  0  0  0
    8.7956   -3.5258   23.5735 C   0  0  0  0  0  0  0  0  0  0  0  0
    9.4214   -2.5864   23.0183 C   0  0  0  0  0  0  0  0  0  0  0  0
   11.2831   -1.9883   22.9966 C   0  0  0  0  0  0  0  0  0  0  0  0
   11.1479   -1.6624   24.0770 H   0  0  0  0  0  0  0  0  0  0  0  0
   13.2102   -0.9731   24.1131 C   0  0  0  0  0  0  0  0  0  0  0  0
   12.9819   -1.7033   23.3116 C   0  0  0  0  0  0  0  0  0  0  0  0
   13.5793   -2.3216   22.6590 H   0  0  0  0  0  0  0  0  0  0  0  0
   11.6133   -2.7566   22.2446 H   0  0  0  0  0  0  0  0  0  0  0  0
   10.0022   -1.6597   22.4223 C   0  0  3  0  0  0  0  0  0  0  0  0
    9.5043   -0.5904   21.3639 C   0  0  0  0  0  0  0  0  0  0  0  0
   10.2331    0.2830   20.9969 O   0  0  0  0  0  0  0  0  0  0  0  0
    8.2577   -0.8185   21.0322 N   0  0  0  0  0  0  0  0  0  0  0  0
    7.6460   -0.0776   20.1663 C   0  0  0  0  0  0  0  0  0  0  0  0
    7.7635    0.1612   18.8760 C   0  0  0  0  0  0  0  0  0  0  0  0
    7.3018    0.6737   17.8471 N   0  0  0  0  0  0  0  0  0  0  0  0
    6.4145    1.3023   18.3224 C   0  0  0  0  0  0  0  0  0  0  0  0
    6.0205    1.3072   19.5135 C   0  0  0  0  0  0  0  0  0  0  0  0
    6.3999    0.6853   20.5850 C   0  0  0  0  0  0  0  0  0  0  0  0
    6.0056    0.6703   21.5654 H   0  0  0  0  0  0  0  0  0  0  0  0
    7.1685   -3.6901   24.1499 H   0  0  0  0  0  0  0  0  0  0  0  0
   12.4062   -0.4868   24.6455 H   0  0  0  0  0  0  0  0  0  0  0  0
   14.2367   -0.7477   24.3619 H   0  0  0  0  0  0  0  0  0  0  0  0
    9.7889   -0.9658   23.2487 H   0  0  0  0  0  0  0  0  0  0  0  0
    7.7693   -1.5808   21.4570 H   0  0  0  0  0  0  0  0  0  0  0  0
    8.6906   -0.3053   18.5773 H   0  0  0  0  0  0  0  0  0  0  0  0
    5.8793    1.9513   17.6450 H   0  0  0  0  0  0  0  0  0  0  0  0
    5.1863    1.9721   19.6817 H   0  0  0  0  0  0  0  0  0  0  0  0
 20 21  2  0  0  0  0
 19 20  1  0  0  0  0
 21 22  1  0  0  0  0
 18 19  2  0  0  0  0
 22 23  2  0  0  0  0
 18 23  1  0  0  0  0
 17 18  1  0  0  0  0
 23 24  1  0  0  0  0
 15 16  2  0  0  0  0
 15 17  1  0  0  0  0
 14 15  1  0  0  0  0
  8 13  1  0  0  0  0
  8 14  1  0  0  0  0
  7 14  1  0  0  0  0
 11 12  1  0  0  0  0
  8 11  1  0  0  0  0
  8  9  1  0  0  0  0
  6  7  3  0  0  0  0
 10 11  2  0  0  0  0
  5  6  1  0  0  0  0
  2  5  1  0  0  0  0
  2  3  2  0  0  0  0
  1  2  2  0  0  0  0
  2  4  1  0  0  0  0
  5 25  1  0  0  0  0
 10 26  1  0  0  0  0
 10 27  1  0  0  0  0
 14 28  1  0  0  0  0
 17 29  1  0  0  0  0
 19 30  1  0  0  0  0
 21 31  1  0  0  0  0
 22 32  1  0  0  0  0
M  CHG  1   4  -1
M  END
> <Chemgauss4>
-9.490972

$$$$
