MODEL 1
REMARK VINA RESULT:    -6.660      0.000      0.000
REMARK INTER + INTRA:         -10.775
REMARK INTER:                  -9.775
REMARK INTRA:                  -1.001
REMARK UNBOUND:                -1.001
REMARK  8 active torsions:
REMARK  status: ('A' for Active; 'I' for Inactive)
REMARK    1  A    between atoms: S_2  and  N_5 
REMARK    2  A    between atoms: N_5  and  C_7 
REMARK    3  A    between atoms: C_8  and  C_9 
REMARK    4  A    between atoms: C_9  and  C_14 
REMARK    5  A    between atoms: C_9  and  S_10 
REMARK    6  A    between atoms: S_10  and  C_11 
REMARK    7  A    between atoms: C_14  and  C_15 
REMARK       I    between atoms: C_15  and  N_17 
REMARK    8  A    between atoms: N_17  and  C_19 
ROOT
HETATM    1  C   UNL     1       9.283  -1.539  23.217  1.00  0.00     0.209 C 
ENDROOT
BRANCH   1   2
HETATM    2  C   UNL     1       8.615  -2.665  23.184  1.00  0.00    -0.055 C 
HETATM    3  C   UNL     1       7.944  -3.489  22.914  1.00  0.00     0.023 C 
BRANCH   3   4
HETATM    4  N   UNL     1       7.555  -4.495  22.545  1.00  0.00    -0.234 N 
ATOM      5  HN  UNL     1       8.135  -5.315  22.724  1.00  0.00     0.190 HD
BRANCH   4   6
HETATM    6  S   UNL     1       6.151  -4.732  21.756  1.00  0.00     0.301 S 
HETATM    7 BR   UNL     1       4.868  -5.077  23.221  1.00  0.00     0.082 Br
HETATM    8  O   UNL     1       5.677  -3.536  21.149  1.00  0.00    -0.193 OA
HETATM    9  O   UNL     1       6.163  -5.884  20.945  1.00  0.00    -0.193 OA
ENDBRANCH   4   6
ENDBRANCH   3   4
ENDBRANCH   1   2
BRANCH   1  10
HETATM   10  C   UNL     1       9.082  -0.976  22.195  1.00  0.00    -0.055 C 
BRANCH  10  11
HETATM   11  C   UNL     1       8.507  -0.233  21.179  1.00  0.00     0.290 C 
HETATM   12  O   UNL     1       9.102   0.641  20.688  1.00  0.00    -0.259 OA
HETATM   13  N   UNL     1       7.274  -0.677  20.992  1.00  0.00    -0.319 N 
ATOM     14  HN  UNL     1       6.872  -1.411  21.575  1.00  0.00     0.169 HD
BRANCH  13  15
HETATM   15  C   UNL     1       6.616  -0.135  20.042  1.00  0.00     0.037 A 
HETATM   16  C   UNL     1       6.280  -0.448  18.830  1.00  0.00     0.153 A 
HETATM   17  N   UNL     1       5.676  -0.233  17.744  1.00  0.00    -0.400 N 
HETATM   18  C   UNL     1       5.297   0.805  18.090  1.00  0.00     0.129 A 
ATOM     19  HN  UNL     1       5.564  -0.771  16.885  1.00  0.00     0.154 HD
HETATM   20  C   UNL     1       5.379   1.479  19.144  1.00  0.00     0.002 A 
HETATM   21  C   UNL     1       5.931   1.213  20.247  1.00  0.00     0.025 A 
ENDBRANCH  13  15
ENDBRANCH  10  11
ENDBRANCH   1  10
BRANCH   1  22
HETATM   22  S   UNL     1       9.791  -0.850  24.756  1.00  0.00    -0.100 SA
BRANCH  22  23
HETATM   23  C   UNL     1      11.282  -0.657  24.311  1.00  0.00     0.002 A 
HETATM   24  C   UNL     1      11.992   0.602  24.297  1.00  0.00     0.020 A 
HETATM   25  C   UNL     1      12.252  -0.625  24.040  1.00  0.00     0.020 A 
ENDBRANCH  22  23
ENDBRANCH   1  22
TORSDOF 8
ENDMDL
MODEL 2
REMARK VINA RESULT:    -6.464      2.405      2.485
REMARK INTER + INTRA:         -10.487
REMARK INTER:                  -9.598
REMARK INTRA:                  -0.889
REMARK UNBOUND:                -1.001
REMARK  8 active torsions:
REMARK  status: ('A' for Active; 'I' for Inactive)
REMARK    1  A    between atoms: S_2  and  N_5 
REMARK    2  A    between atoms: N_5  and  C_7 
REMARK    3  A    between atoms: C_8  and  C_9 
REMARK    4  A    between atoms: C_9  and  C_14 
REMARK    5  A    between atoms: C_9  and  S_10 
REMARK    6  A    between atoms: S_10  and  C_11 
REMARK    7  A    between atoms: C_14  and  C_15 
REMARK       I    between atoms: C_15  and  N_17 
REMARK    8  A    between atoms: N_17  and  C_19 
ROOT
HETATM    1  C   UNL     1       9.188  -1.600  23.465  1.00  0.00     0.209 C 
ENDROOT
BRANCH   1   2
HETATM    2  C   UNL     1       8.579  -2.688  23.863  1.00  0.00    -0.055 C 
HETATM    3  C   UNL     1       8.316  -3.725  24.105  1.00  0.00     0.023 C 
BRANCH   3   4
HETATM    4  N   UNL     1       8.100  -4.682  24.685  1.00  0.00    -0.234 N 
ATOM      5  HN  UNL     1       8.065  -5.553  24.153  1.00  0.00     0.190 HD
BRANCH   4   6
HETATM    6  S   UNL     1       7.841  -4.777  26.289  1.00  0.00     0.301 S 
HETATM    7 BR   UNL     1       6.395  -3.460  26.586  1.00  0.00     0.082 Br
HETATM    8  O   UNL     1       7.262  -6.022  26.659  1.00  0.00    -0.193 OA
HETATM    9  O   UNL     1       8.945  -4.348  27.051  1.00  0.00    -0.193 OA
ENDBRANCH   4   6
ENDBRANCH   3   4
ENDBRANCH   1   2
BRANCH   1  10
HETATM   10  C   UNL     1       8.723  -1.293  22.420  1.00  0.00    -0.055 C 
BRANCH  10  11
HETATM   11  C   UNL     1       8.287  -0.576  21.320  1.00  0.00     0.290 C 
HETATM   12  O   UNL     1       9.020   0.140  20.764  1.00  0.00    -0.259 OA
HETATM   13  N   UNL     1       7.001  -0.837  21.142  1.00  0.00    -0.319 N 
ATOM     14  HN  UNL     1       6.480  -1.436  21.782  1.00  0.00     0.169 HD
BRANCH  13  15
HETATM   15  C   UNL     1       6.451  -0.296  20.125  1.00  0.00     0.037 A 
HETATM   16  C   UNL     1       6.185  -0.640  18.903  1.00  0.00     0.153 A 
HETATM   17  N   UNL     1       5.678  -0.436  17.767  1.00  0.00    -0.400 N 
HETATM   18  C   UNL     1       5.341   0.638  18.044  1.00  0.00     0.129 A 
ATOM     19  HN  UNL     1       5.595  -1.001  16.923  1.00  0.00     0.154 HD
HETATM   20  C   UNL     1       5.389   1.350  19.074  1.00  0.00     0.002 A 
HETATM   21  C   UNL     1       5.840   1.097  20.226  1.00  0.00     0.025 A 
ENDBRANCH  13  15
ENDBRANCH  10  11
ENDBRANCH   1  10
BRANCH   1  22
HETATM   22  S   UNL     1      10.024  -0.572  24.626  1.00  0.00    -0.100 SA
BRANCH  22  23
HETATM   23  C   UNL     1      11.438  -0.800  23.986  1.00  0.00     0.002 A 
HETATM   24  C   UNL     1      12.640  -0.083  24.344  1.00  0.00     0.020 A 
HETATM   25  C   UNL     1      12.314  -1.031  23.548  1.00  0.00     0.020 A 
ENDBRANCH  22  23
ENDBRANCH   1  22
TORSDOF 8
ENDMDL
MODEL 3
REMARK VINA RESULT:    -6.296      3.140      6.275
REMARK INTER + INTRA:         -10.241
REMARK INTER:                  -9.085
REMARK INTRA:                  -1.156
REMARK UNBOUND:                -1.001
REMARK  8 active torsions:
REMARK  status: ('A' for Active; 'I' for Inactive)
REMARK    1  A    between atoms: S_2  and  N_5 
REMARK    2  A    between atoms: N_5  and  C_7 
REMARK    3  A    between atoms: C_8  and  C_9 
REMARK    4  A    between atoms: C_9  and  C_14 
REMARK    5  A    between atoms: C_9  and  S_10 
REMARK    6  A    between atoms: S_10  and  C_11 
REMARK    7  A    between atoms: C_14  and  C_15 
REMARK       I    between atoms: C_15  and  N_17 
REMARK    8  A    between atoms: N_17  and  C_19 
ROOT
HETATM    1  C   UNL     1       6.619  -2.475  21.830  1.00  0.00     0.209 C 
ENDROOT
BRANCH   1   2
HETATM    2  C   UNL     1       6.173  -1.979  20.704  1.00  0.00    -0.055 C 
HETATM    3  C   UNL     1       5.631  -1.408  19.941  1.00  0.00     0.023 C 
BRANCH   3   4
HETATM    4  N   UNL     1       5.379  -0.649  19.128  1.00  0.00    -0.234 N 
ATOM      5  HN  UNL     1       4.572  -0.847  18.538  1.00  0.00     0.190 HD
BRANCH   4   6
HETATM    6  S   UNL     1       6.202   0.725  18.832  1.00  0.00     0.301 S 
HETATM    7 BR   UNL     1       5.885   1.795  20.464  1.00  0.00     0.082 Br
HETATM    8  O   UNL     1       7.607   0.508  18.822  1.00  0.00    -0.193 OA
HETATM    9  O   UNL     1       5.674   1.460  17.753  1.00  0.00    -0.193 OA
ENDBRANCH   4   6
ENDBRANCH   3   4
ENDBRANCH   1   2
BRANCH   1  10
HETATM   10  C   UNL     1       7.495  -1.773  22.208  1.00  0.00    -0.055 C 
BRANCH  10  11
HETATM   11  C   UNL     1       8.717  -1.145  22.370  1.00  0.00     0.290 C 
HETATM   12  O   UNL     1       8.998  -0.235  21.697  1.00  0.00    -0.259 OA
HETATM   13  N   UNL     1       9.393  -1.795  23.303  1.00  0.00    -0.319 N 
ATOM     14  HN  UNL     1       9.026  -2.639  23.745  1.00  0.00     0.169 HD
BRANCH  13  15
HETATM   15  C   UNL     1      10.530  -1.309  23.620  1.00  0.00     0.037 A 
HETATM   16  C   UNL     1      11.767  -1.512  23.290  1.00  0.00     0.153 A 
HETATM   17  N   UNL     1      12.997  -1.241  23.336  1.00  0.00    -0.400 N 
HETATM   18  C   UNL     1      12.845  -0.405  24.123  1.00  0.00     0.129 A 
ATOM     19  HN  UNL     1      13.818  -1.616  22.859  1.00  0.00     0.154 HD
HETATM   20  C   UNL     1      11.859   0.109  24.700  1.00  0.00     0.002 A 
HETATM   21  C   UNL     1      10.625  -0.132  24.586  1.00  0.00     0.025 A 
ENDBRANCH  13  15
ENDBRANCH  10  11
ENDBRANCH   1  10
BRANCH   1  22
HETATM   22  S   UNL     1       5.617  -3.568  22.781  1.00  0.00    -0.100 SA
BRANCH  22  23
HETATM   23  C   UNL     1       6.474  -4.836  22.444  1.00  0.00     0.002 A 
HETATM   24  C   UNL     1       6.022  -5.964  21.663  1.00  0.00     0.020 A 
HETATM   25  C   UNL     1       7.101  -5.600  22.248  1.00  0.00     0.020 A 
ENDBRANCH  22  23
ENDBRANCH   1  22
TORSDOF 8
ENDMDL
MODEL 4
REMARK VINA RESULT:    -6.126      4.043      5.815
REMARK INTER + INTRA:          -9.991
REMARK INTER:                  -8.979
REMARK INTRA:                  -1.012
REMARK UNBOUND:                -1.001
REMARK  8 active torsions:
REMARK  status: ('A' for Active; 'I' for Inactive)
REMARK    1  A    between atoms: S_2  and  N_5 
REMARK    2  A    between atoms: N_5  and  C_7 
REMARK    3  A    between atoms: C_8  and  C_9 
REMARK    4  A    between atoms: C_9  and  C_14 
REMARK    5  A    between atoms: C_9  and  S_10 
REMARK    6  A    between atoms: S_10  and  C_11 
REMARK    7  A    between atoms: C_14  and  C_15 
REMARK       I    between atoms: C_15  and  N_17 
REMARK    8  A    between atoms: N_17  and  C_19 
ROOT
HETATM    1  C   UNL     1       7.564  -3.553  24.265  1.00  0.00     0.209 C 
ENDROOT
BRANCH   1   2
HETATM    2  C   UNL     1       7.883  -4.476  25.138  1.00  0.00    -0.055 C 
HETATM    3  C   UNL     1       8.077  -5.039  26.058  1.00  0.00     0.023 C 
BRANCH   3   4
HETATM    4  N   UNL     1       7.979  -5.785  26.915  1.00  0.00    -0.234 N 
ATOM      5  HN  UNL     1       8.737  -6.458  27.038  1.00  0.00     0.190 HD
BRANCH   4   6
HETATM    6  S   UNL     1       6.733  -5.867  27.958  1.00  0.00     0.301 S 
HETATM    7 BR   UNL     1       5.238  -6.481  26.820  1.00  0.00     0.082 Br
HETATM    8  O   UNL     1       6.904  -6.913  28.907  1.00  0.00    -0.193 OA
HETATM    9  O   UNL     1       6.362  -4.609  28.473  1.00  0.00    -0.193 OA
ENDBRANCH   4   6
ENDBRANCH   3   4
ENDBRANCH   1   2
BRANCH   1  10
HETATM   10  C   UNL     1       8.541  -2.921  24.042  1.00  0.00    -0.055 C 
BRANCH  10  11
HETATM   11  C   UNL     1       9.416  -1.927  23.644  1.00  0.00     0.290 C 
HETATM   12  O   UNL     1      10.369  -2.202  23.031  1.00  0.00    -0.259 OA
HETATM   13  N   UNL     1       8.978  -0.775  24.126  1.00  0.00    -0.319 N 
ATOM     14  HN  UNL     1       8.154  -0.721  24.725  1.00  0.00     0.169 HD
BRANCH  13  15
HETATM   15  C   UNL     1       9.644   0.264  23.801  1.00  0.00     0.037 A 
HETATM   16  C   UNL     1       9.632   1.125  22.832  1.00  0.00     0.153 A 
HETATM   17  N   UNL     1      10.037   2.174  22.261  1.00  0.00    -0.400 N 
HETATM   18  C   UNL     1      10.854   2.366  23.059  1.00  0.00     0.129 A 
ATOM     19  HN  UNL     1       9.753   2.668  21.414  1.00  0.00     0.154 HD
HETATM   20  C   UNL     1      11.207   1.811  24.125  1.00  0.00     0.002 A 
HETATM   21  C   UNL     1      10.739   0.799  24.717  1.00  0.00     0.025 A 
ENDBRANCH  13  15
ENDBRANCH  10  11
ENDBRANCH   1  10
BRANCH   1  22
HETATM   22  S   UNL     1       6.137  -3.742  23.251  1.00  0.00    -0.100 SA
BRANCH  22  23
HETATM   23  C   UNL     1       6.768  -4.876  22.371  1.00  0.00     0.002 A 
HETATM   24  C   UNL     1       6.195  -6.186  22.165  1.00  0.00     0.020 A 
HETATM   25  C   UNL     1       7.223  -5.537  21.764  1.00  0.00     0.020 A 
ENDBRANCH  22  23
ENDBRANCH   1  22
TORSDOF 8
ENDMDL
MODEL 5
REMARK VINA RESULT:    -6.022     14.700     16.121
REMARK INTER + INTRA:          -9.840
REMARK INTER:                  -8.779
REMARK INTRA:                  -1.060
REMARK UNBOUND:                -1.001
REMARK  8 active torsions:
REMARK  status: ('A' for Active; 'I' for Inactive)
REMARK    1  A    between atoms: S_2  and  N_5 
REMARK    2  A    between atoms: N_5  and  C_7 
REMARK    3  A    between atoms: C_8  and  C_9 
REMARK    4  A    between atoms: C_9  and  C_14 
REMARK    5  A    between atoms: C_9  and  S_10 
REMARK    6  A    between atoms: S_10  and  C_11 
REMARK    7  A    between atoms: C_14  and  C_15 
REMARK       I    between atoms: C_15  and  N_17 
REMARK    8  A    between atoms: N_17  and  C_19 
ROOT
HETATM    1  C   UNL     1      23.722  -1.653  23.581  1.00  0.00     0.209 C 
ENDROOT
BRANCH   1   2
HETATM    2  C   UNL     1      23.949  -2.889  23.950  1.00  0.00    -0.055 C 
HETATM    3  C   UNL     1      23.858  -3.910  24.338  1.00  0.00     0.023 C 
BRANCH   3   4
HETATM    4  N   UNL     1      23.772  -5.046  24.396  1.00  0.00    -0.234 N 
ATOM      5  HN  UNL     1      23.399  -5.528  23.578  1.00  0.00     0.190 HD
BRANCH   4   6
HETATM    6  S   UNL     1      24.194  -5.961  25.674  1.00  0.00     0.301 S 
HETATM    7 BR   UNL     1      26.168  -5.840  25.677  1.00  0.00     0.082 Br
HETATM    8  O   UNL     1      23.804  -5.364  26.904  1.00  0.00    -0.193 OA
HETATM    9  O   UNL     1      23.870  -7.322  25.508  1.00  0.00    -0.193 OA
ENDBRANCH   4   6
ENDBRANCH   3   4
ENDBRANCH   1   2
BRANCH   1  10
HETATM   10  C   UNL     1      23.626  -1.646  22.401  1.00  0.00    -0.055 C 
BRANCH  10  11
HETATM   11  C   UNL     1      23.146  -1.748  21.107  1.00  0.00     0.290 C 
HETATM   12  O   UNL     1      22.005  -1.902  20.920  1.00  0.00    -0.259 OA
HETATM   13  N   UNL     1      24.177  -1.694  20.280  1.00  0.00    -0.319 N 
ATOM     14  HN  UNL     1      25.137  -1.638  20.619  1.00  0.00     0.169 HD
BRANCH  13  15
HETATM   15  C   UNL     1      23.903  -1.716  19.033  1.00  0.00     0.037 A 
HETATM   16  C   UNL     1      23.939  -2.589  18.076  1.00  0.00     0.153 A 
HETATM   17  N   UNL     1      23.731  -2.959  16.888  1.00  0.00    -0.400 N 
HETATM   18  C   UNL     1      23.355  -1.912  16.564  1.00  0.00     0.129 A 
ATOM     19  HN  UNL     1      23.848  -3.846  16.398  1.00  0.00     0.154 HD
HETATM   20  C   UNL     1      23.161  -0.817  17.141  1.00  0.00     0.002 A 
HETATM   21  C   UNL     1      23.310  -0.488  18.350  1.00  0.00     0.025 A 
ENDBRANCH  13  15
ENDBRANCH  10  11
ENDBRANCH   1  10
BRANCH   1  22
HETATM   22  S   UNL     1      23.080  -0.484  24.730  1.00  0.00    -0.100 SA
BRANCH  22  23
HETATM   23  C   UNL     1      21.585  -0.891  24.488  1.00  0.00     0.002 A 
HETATM   24  C   UNL     1      20.691  -1.418  25.493  1.00  0.00     0.020 A 
HETATM   25  C   UNL     1      20.627  -1.098  24.255  1.00  0.00     0.020 A 
ENDBRANCH  22  23
ENDBRANCH   1  22
TORSDOF 8
ENDMDL
MODEL 6
REMARK VINA RESULT:    -5.807      3.343      6.252
REMARK INTER + INTRA:          -9.524
REMARK INTER:                  -8.185
REMARK INTRA:                  -1.338
REMARK UNBOUND:                -1.001
REMARK  8 active torsions:
REMARK  status: ('A' for Active; 'I' for Inactive)
REMARK    1  A    between atoms: S_2  and  N_5 
REMARK    2  A    between atoms: N_5  and  C_7 
REMARK    3  A    between atoms: C_8  and  C_9 
REMARK    4  A    between atoms: C_9  and  C_14 
REMARK    5  A    between atoms: C_9  and  S_10 
REMARK    6  A    between atoms: S_10  and  C_11 
REMARK    7  A    between atoms: C_14  and  C_15 
REMARK       I    between atoms: C_15  and  N_17 
REMARK    8  A    between atoms: N_17  and  C_19 
ROOT
HETATM    1  C   UNL     1       7.078  -3.927  22.598  1.00  0.00     0.209 C 
ENDROOT
BRANCH   1   2
HETATM    2  C   UNL     1       6.468  -3.083  21.805  1.00  0.00    -0.055 C 
HETATM    3  C   UNL     1       5.997  -2.195  21.367  1.00  0.00     0.023 C 
BRANCH   3   4
HETATM    4  N   UNL     1       5.807  -1.274  20.722  1.00  0.00    -0.234 N 
ATOM      5  HN  UNL     1       4.916  -1.226  20.227  1.00  0.00     0.190 HD
BRANCH   4   6
HETATM    6  S   UNL     1       6.838  -0.030  20.524  1.00  0.00     0.301 S 
HETATM    7 BR   UNL     1       6.629   0.423  18.611  1.00  0.00     0.082 Br
HETATM    8  O   UNL     1       6.398   1.136  21.210  1.00  0.00    -0.193 OA
HETATM    9  O   UNL     1       8.185  -0.397  20.712  1.00  0.00    -0.193 OA
ENDBRANCH   4   6
ENDBRANCH   3   4
ENDBRANCH   1   2
BRANCH   1  10
HETATM   10  C   UNL     1       8.081  -3.412  22.962  1.00  0.00    -0.055 C 
BRANCH  10  11
HETATM   11  C   UNL     1       9.023  -2.707  23.690  1.00  0.00     0.290 C 
HETATM   12  O   UNL     1       9.017  -2.759  24.854  1.00  0.00    -0.259 OA
HETATM   13  N   UNL     1       9.770  -2.021  22.840  1.00  0.00    -0.319 N 
ATOM     14  HN  UNL     1       9.586  -2.024  21.837  1.00  0.00     0.169 HD
BRANCH  13  15
HETATM   15  C   UNL     1      10.734  -1.355  23.346  1.00  0.00     0.037 A 
HETATM   16  C   UNL     1      10.863  -0.363  24.172  1.00  0.00     0.153 A 
HETATM   17  N   UNL     1      11.551   0.436  24.864  1.00  0.00    -0.400 N 
HETATM   18  C   UNL     1      12.553   0.019  24.459  1.00  0.00     0.129 A 
ATOM     19  HN  UNL     1      11.314   1.171  25.530  1.00  0.00     0.154 HD
HETATM   20  C   UNL     1      12.885  -0.902  23.677  1.00  0.00     0.002 A 
HETATM   21  C   UNL     1      12.180  -1.738  23.048  1.00  0.00     0.025 A 
ENDBRANCH  13  15
ENDBRANCH  10  11
ENDBRANCH   1  10
BRANCH   1  22
HETATM   22  S   UNL     1       6.181  -5.228  23.375  1.00  0.00    -0.100 SA
BRANCH  22  23
HETATM   23  C   UNL     1       5.536  -4.296  24.457  1.00  0.00     0.002 A 
HETATM   24  C   UNL     1       4.117  -4.119  24.665  1.00  0.00     0.020 A 
HETATM   25  C   UNL     1       5.203  -3.699  25.197  1.00  0.00     0.020 A 
ENDBRANCH  22  23
ENDBRANCH   1  22
TORSDOF 8
ENDMDL
MODEL 7
REMARK VINA RESULT:    -5.721      3.202      5.829
REMARK INTER + INTRA:          -9.398
REMARK INTER:                  -8.184
REMARK INTRA:                  -1.214
REMARK UNBOUND:                -1.001
REMARK  8 active torsions:
REMARK  status: ('A' for Active; 'I' for Inactive)
REMARK    1  A    between atoms: S_2  and  N_5 
REMARK    2  A    between atoms: N_5  and  C_7 
REMARK    3  A    between atoms: C_8  and  C_9 
REMARK    4  A    between atoms: C_9  and  C_14 
REMARK    5  A    between atoms: C_9  and  S_10 
REMARK    6  A    between atoms: S_10  and  C_11 
REMARK    7  A    between atoms: C_14  and  C_15 
REMARK       I    between atoms: C_15  and  N_17 
REMARK    8  A    between atoms: N_17  and  C_19 
ROOT
HETATM    1  C   UNL     1       8.593   0.085  22.498  1.00  0.00     0.209 C 
ENDROOT
BRANCH   1   2
HETATM    2  C   UNL     1       8.318   0.294  21.235  1.00  0.00    -0.055 C 
HETATM    3  C   UNL     1       8.087   0.178  20.170  1.00  0.00     0.023 C 
BRANCH   3   4
HETATM    4  N   UNL     1       7.528   0.159  19.176  1.00  0.00    -0.234 N 
ATOM      5  HN  UNL     1       8.039   0.463  18.347  1.00  0.00     0.190 HD
BRANCH   4   6
HETATM    6  S   UNL     1       5.983  -0.311  18.971  1.00  0.00     0.301 S 
HETATM    7 BR   UNL     1       4.957   1.315  19.433  1.00  0.00     0.082 Br
HETATM    8  O   UNL     1       5.677  -0.540  17.601  1.00  0.00    -0.193 OA
HETATM    9  O   UNL     1       5.587  -1.313  19.877  1.00  0.00    -0.193 OA
ENDBRANCH   4   6
ENDBRANCH   3   4
ENDBRANCH   1   2
BRANCH   1  10
HETATM   10  C   UNL     1       7.939  -0.834  22.858  1.00  0.00    -0.055 C 
BRANCH  10  11
HETATM   11  C   UNL     1       7.472  -1.948  23.532  1.00  0.00     0.290 C 
HETATM   12  O   UNL     1       6.551  -2.534  23.122  1.00  0.00    -0.259 OA
HETATM   13  N   UNL     1       8.202  -2.103  24.625  1.00  0.00    -0.319 N 
ATOM     14  HN  UNL     1       8.933  -1.441  24.883  1.00  0.00     0.169 HD
BRANCH  13  15
HETATM   15  C   UNL     1       7.940  -3.128  25.339  1.00  0.00     0.037 A 
HETATM   16  C   UNL     1       7.206  -3.392  26.376  1.00  0.00     0.153 A 
HETATM   17  N   UNL     1       6.710  -4.180  27.226  1.00  0.00    -0.400 N 
HETATM   18  C   UNL     1       7.295  -5.091  26.812  1.00  0.00     0.129 A 
ATOM     19  HN  UNL     1       6.045  -4.062  27.990  1.00  0.00     0.154 HD
HETATM   20  C   UNL     1       8.085  -5.285  25.859  1.00  0.00     0.002 A 
HETATM   21  C   UNL     1       8.514  -4.493  24.974  1.00  0.00     0.025 A 
ENDBRANCH  13  15
ENDBRANCH  10  11
ENDBRANCH   1  10
BRANCH   1  22
HETATM   22  S   UNL     1      10.094   0.689  23.194  1.00  0.00    -0.100 SA
BRANCH  22  23
HETATM   23  C   UNL     1      10.922  -0.586  22.811  1.00  0.00     0.002 A 
HETATM   24  C   UNL     1      12.046  -1.105  23.556  1.00  0.00     0.020 A 
HETATM   25  C   UNL     1      11.381  -1.431  22.512  1.00  0.00     0.020 A 
ENDBRANCH  22  23
ENDBRANCH   1  22
TORSDOF 8
ENDMDL
MODEL 8
REMARK VINA RESULT:    -5.591      4.724      6.314
REMARK INTER + INTRA:          -9.207
REMARK INTER:                  -8.289
REMARK INTRA:                  -0.918
REMARK UNBOUND:                -1.001
REMARK  8 active torsions:
REMARK  status: ('A' for Active; 'I' for Inactive)
REMARK    1  A    between atoms: S_2  and  N_5 
REMARK    2  A    between atoms: N_5  and  C_7 
REMARK    3  A    between atoms: C_8  and  C_9 
REMARK    4  A    between atoms: C_9  and  C_14 
REMARK    5  A    between atoms: C_9  and  S_10 
REMARK    6  A    between atoms: S_10  and  C_11 
REMARK    7  A    between atoms: C_14  and  C_15 
REMARK       I    between atoms: C_15  and  N_17 
REMARK    8  A    between atoms: N_17  and  C_19 
ROOT
HETATM    1  C   UNL     1       6.662  -3.529  24.801  1.00  0.00     0.209 C 
ENDROOT
BRANCH   1   2
HETATM    2  C   UNL     1       7.003  -4.493  25.618  1.00  0.00    -0.055 C 
HETATM    3  C   UNL     1       7.098  -5.168  26.477  1.00  0.00     0.023 C 
BRANCH   3   4
HETATM    4  N   UNL     1       7.012  -6.081  27.155  1.00  0.00    -0.234 N 
ATOM      5  HN  UNL     1       7.878  -6.559  27.406  1.00  0.00     0.190 HD
BRANCH   4   6
HETATM    6  S   UNL     1       5.624  -6.686  27.753  1.00  0.00     0.301 S 
HETATM    7 BR   UNL     1       4.799  -5.119  28.633  1.00  0.00     0.082 Br
HETATM    8  O   UNL     1       4.709  -7.031  26.721  1.00  0.00    -0.193 OA
HETATM    9  O   UNL     1       5.832  -7.653  28.755  1.00  0.00    -0.193 OA
ENDBRANCH   4   6
ENDBRANCH   3   4
ENDBRANCH   1   2
BRANCH   1  10
HETATM   10  C   UNL     1       7.428  -2.639  24.960  1.00  0.00    -0.055 C 
BRANCH  10  11
HETATM   11  C   UNL     1       8.567  -1.899  25.219  1.00  0.00     0.290 C 
HETATM   12  O   UNL     1       8.912  -1.725  26.319  1.00  0.00    -0.259 OA
HETATM   13  N   UNL     1       9.046  -1.463  24.065  1.00  0.00    -0.319 N 
ATOM     14  HN  UNL     1       8.567  -1.642  23.182  1.00  0.00     0.169 HD
BRANCH  13  15
HETATM   15  C   UNL     1      10.138  -0.805  24.118  1.00  0.00     0.037 A 
HETATM   16  C   UNL     1      11.395  -1.047  23.908  1.00  0.00     0.153 A 
HETATM   17  N   UNL     1      12.603  -0.697  23.817  1.00  0.00    -0.400 N 
HETATM   18  C   UNL     1      12.374   0.392  24.139  1.00  0.00     0.129 A 
ATOM     19  HN  UNL     1      13.459  -1.188  23.558  1.00  0.00     0.154 HD
HETATM   20  C   UNL     1      11.340   1.039  24.425  1.00  0.00     0.002 A 
HETATM   21  C   UNL     1      10.129   0.685  24.441  1.00  0.00     0.025 A 
ENDBRANCH  13  15
ENDBRANCH  10  11
ENDBRANCH   1  10
BRANCH   1  22
HETATM   22  S   UNL     1       5.672  -3.870  23.385  1.00  0.00    -0.100 SA
BRANCH  22  23
HETATM   23  C   UNL     1       6.699  -4.881  22.766  1.00  0.00     0.002 A 
HETATM   24  C   UNL     1       6.397  -5.849  21.737  1.00  0.00     0.020 A 
HETATM   25  C   UNL     1       7.426  -5.474  22.400  1.00  0.00     0.020 A 
ENDBRANCH  22  23
ENDBRANCH   1  22
TORSDOF 8
ENDMDL
MODEL 9
REMARK VINA RESULT:    -5.451      4.634      8.100
REMARK INTER + INTRA:          -9.002
REMARK INTER:                  -8.063
REMARK INTRA:                  -0.938
REMARK UNBOUND:                -1.001
REMARK  8 active torsions:
REMARK  status: ('A' for Active; 'I' for Inactive)
REMARK    1  A    between atoms: S_2  and  N_5 
REMARK    2  A    between atoms: N_5  and  C_7 
REMARK    3  A    between atoms: C_8  and  C_9 
REMARK    4  A    between atoms: C_9  and  C_14 
REMARK    5  A    between atoms: C_9  and  S_10 
REMARK    6  A    between atoms: S_10  and  C_11 
REMARK    7  A    between atoms: C_14  and  C_15 
REMARK       I    between atoms: C_15  and  N_17 
REMARK    8  A    between atoms: N_17  and  C_19 
ROOT
HETATM    1  C   UNL     1       7.891  -3.629  23.900  1.00  0.00     0.209 C 
ENDROOT
BRANCH   1   2
HETATM    2  C   UNL     1       8.941  -2.863  23.744  1.00  0.00    -0.055 C 
HETATM    3  C   UNL     1       9.786  -2.297  23.334  1.00  0.00     0.023 C 
BRANCH   3   4
HETATM    4  N   UNL     1      10.443  -1.439  22.971  1.00  0.00    -0.234 N 
ATOM      5  HN  UNL     1      11.346  -1.683  22.563  1.00  0.00     0.190 HD
BRANCH   4   6
HETATM    6  S   UNL     1      10.062   0.142  23.049  1.00  0.00     0.301 S 
HETATM    7 BR   UNL     1       8.982   0.421  21.416  1.00  0.00     0.082 Br
HETATM    8  O   UNL     1       9.162   0.417  24.115  1.00  0.00    -0.193 OA
HETATM    9  O   UNL     1      11.185   0.985  22.944  1.00  0.00    -0.193 OA
ENDBRANCH   4   6
ENDBRANCH   3   4
ENDBRANCH   1   2
BRANCH   1  10
HETATM   10  C   UNL     1       7.836  -3.929  25.044  1.00  0.00    -0.055 C 
BRANCH  10  11
HETATM   11  C   UNL     1       7.605  -4.601  26.231  1.00  0.00     0.290 C 
HETATM   12  O   UNL     1       8.495  -4.846  26.944  1.00  0.00    -0.259 OA
HETATM   13  N   UNL     1       6.317  -4.896  26.293  1.00  0.00    -0.319 N 
ATOM     14  HN  UNL     1       5.676  -4.675  25.531  1.00  0.00     0.169 HD
BRANCH  13  15
HETATM   15  C   UNL     1       5.920  -5.472  27.361  1.00  0.00     0.037 A 
HETATM   16  C   UNL     1       5.765  -6.692  27.772  1.00  0.00     0.153 A 
HETATM   17  N   UNL     1       5.485  -7.550  28.652  1.00  0.00    -0.400 N 
HETATM   18  C   UNL     1       5.198  -6.744  29.433  1.00  0.00     0.129 A 
ATOM     19  HN  UNL     1       5.505  -8.570  28.670  1.00  0.00     0.154 HD
HETATM   20  C   UNL     1       5.197  -5.492  29.463  1.00  0.00     0.002 A 
HETATM   21  C   UNL     1       5.549  -4.650  28.591  1.00  0.00     0.025 A 
ENDBRANCH  13  15
ENDBRANCH  10  11
ENDBRANCH   1  10
BRANCH   1  22
HETATM   22  S   UNL     1       6.584  -3.602  22.720  1.00  0.00    -0.100 SA
BRANCH  22  23
HETATM   23  C   UNL     1       6.843  -5.066  22.224  1.00  0.00     0.002 A 
HETATM   24  C   UNL     1       6.111  -5.730  21.170  1.00  0.00     0.020 A 
HETATM   25  C   UNL     1       7.095  -6.000  21.944  1.00  0.00     0.020 A 
ENDBRANCH  22  23
ENDBRANCH   1  22
TORSDOF 8
ENDMDL
