stable:False satoms:9 tatoms:24 sratio:0.375
  -OEChem-07092417423D

 24 26  0     1  0  0  0  0  0999 V2000
    6.4393   -4.9563   26.4872 Br  0  0  0  0  0  0  0  0  0  0  0  0
    8.2511   -4.2478   26.1317 S   0  0  0  0  0  0  0  0  0  0  0  0
    9.0685   -5.4081   26.0429 O   0  0  0  0  0  0  0  0  0  0  0  0
    8.5491   -3.3505   27.1747 O   0  0  0  0  0  0  0  0  0  0  0  0
    8.0819   -3.5145   24.6891 N   0  0  0  0  0  0  0  0  0  0  0  0
    8.8680   -2.8609   24.1835 C   0  0  0  0  0  0  0  0  0  0  0  0
    9.3568   -2.0231   23.6724 C   0  0  0  0  0  0  0  0  0  0  0  0
   10.0816   -0.9741   23.3757 C   0  0  2  0  0  0  0  0  0  0  0  0
   10.8861   -0.0593   24.6482 S   0  0  0  0  0  0  0  0  0  0  0  0
   12.2938   -0.1156   23.9611 C   0  0  0  0  0  0  0  0  0  0  0  0
   13.2131   -0.0658   23.5517 C   0  0  0  0  0  0  0  0  0  0  0  0
   12.6676   -1.0245   22.9015 C   0  0  0  0  0  0  0  0  0  0  0  0
   12.3593   -1.7403   22.3352 H   0  0  0  0  0  0  0  0  0  0  0  0
    9.7395   -0.5940   22.3080 C   0  0  0  0  0  0  0  0  0  0  0  0
    9.0736    0.0454   21.2772 C   0  0  0  0  0  0  0  0  0  0  0  0
    9.5940    0.9139   20.6987 O   0  0  0  0  0  0  0  0  0  0  0  0
    7.8612   -0.4761   21.1837 N   0  0  0  0  0  0  0  0  0  0  0  0
    7.1285   -0.0360   20.2359 C   0  0  0  0  0  0  0  0  0  0  0  0
    7.1906    0.0143   18.9419 C   0  0  0  0  0  0  0  0  0  0  0  0
    6.7120    0.2835   17.8072 N   0  0  0  0  0  0  0  0  0  0  0  0
    5.7515    0.7508   18.2557 C   0  0  0  0  0  0  0  0  0  0  0  0
    5.2915    0.9071   19.4109 C   0  0  0  0  0  0  0  0  0  0  0  0
    5.7578    0.5652   20.5334 C   0  0  0  0  0  0  0  0  0  0  0  0
    5.3677    0.6762   21.4890 H   0  0  0  0  0  0  0  0  0  0  0  0
 20 21  2  0  0  0  0
 19 20  1  0  0  0  0
 19 21  1  0  0  0  0
 21 22  1  0  0  0  0
 18 19  2  0  0  0  0
 22 23  2  0  0  0  0
 18 23  1  0  0  0  0
 17 18  1  0  0  0  0
 23 24  1  0  0  0  0
 15 16  2  0  0  0  0
 15 17  1  0  0  0  0
 14 15  1  0  0  0  0
  8 14  1  0  0  0  0
 12 13  1  0  0  0  0
 11 12  1  0  0  0  0
 10 12  2  0  0  0  0
  7  8  1  0  0  0  0
  8  9  1  0  0  0  0
 10 11  1  0  0  0  0
  6  7  3  0  0  0  0
  9 10  1  0  0  0  0
  5  6  1  0  0  0  0
  2  5  1  0  0  0  0
  2  3  2  0  0  0  0
  1  2  1  0  0  0  0
  2  4  2  0  0  0  0
M  END
> <Shapegauss>
-275.794922

$$$$
