REMARK  8 active torsions:
REMARK  status: ('A' for Active; 'I' for Inactive)
REMARK    1  A    between atoms: S_2  and  N_5 
REMARK    2  A    between atoms: N_5  and  C_7 
REMARK    3  A    between atoms: C_8  and  C_9 
REMARK    4  A    between atoms: C_9  and  C_14 
REMARK    5  A    between atoms: C_9  and  S_10 
REMARK    6  A    between atoms: S_10  and  C_11 
REMARK    7  A    between atoms: C_14  and  C_15 
REMARK       I    between atoms: C_15  and  N_17 
REMARK    8  A    between atoms: N_17  and  C_19 
ROOT
HETATM    1  C   UNL     1      10.082  -0.974  23.376  1.00  0.00     0.209 C 
ENDROOT
BRANCH   1   2
HETATM    2  C   UNL     1       9.357  -2.023  23.672  1.00  0.00    -0.055 C 
HETATM    3  C   UNL     1       8.868  -2.861  24.183  1.00  0.00     0.023 C 
BRANCH   3   4
HETATM    4  N   UNL     1       8.082  -3.514  24.689  1.00  0.00    -0.234 N 
ATOM      5  HN  UNL     1       7.199  -3.649  24.196  1.00  0.00     0.190 HD
BRANCH   4   6
HETATM    6  S   UNL     1       8.251  -4.248  26.132  1.00  0.00     0.301 S 
HETATM    7 BR   UNL     1       6.439  -4.956  26.487  1.00  0.00     0.082 Br
HETATM    8  O   UNL     1       9.069  -5.408  26.043  1.00  0.00    -0.193 OA
HETATM    9  O   UNL     1       8.549  -3.350  27.175  1.00  0.00    -0.193 OA
ENDBRANCH   4   6
ENDBRANCH   3   4
ENDBRANCH   1   2
BRANCH   1  10
HETATM   10  C   UNL     1       9.739  -0.594  22.308  1.00  0.00    -0.055 C 
BRANCH  10  11
HETATM   11  C   UNL     1       9.074   0.045  21.277  1.00  0.00     0.290 C 
HETATM   12  O   UNL     1       9.594   0.914  20.699  1.00  0.00    -0.259 OA
HETATM   13  N   UNL     1       7.861  -0.476  21.184  1.00  0.00    -0.319 N 
ATOM     14  HN  UNL     1       7.530  -1.189  21.834  1.00  0.00     0.169 HD
BRANCH  13  15
HETATM   15  C   UNL     1       7.128  -0.036  20.236  1.00  0.00     0.037 A 
HETATM   16  C   UNL     1       7.191   0.014  18.942  1.00  0.00     0.153 A 
HETATM   17  N   UNL     1       6.712   0.283  17.807  1.00  0.00    -0.400 N 
HETATM   18  C   UNL     1       5.752   0.751  18.256  1.00  0.00     0.129 A 
ATOM     19  HN  UNL     1       7.044   0.142  16.853  1.00  0.00     0.154 HD
HETATM   20  C   UNL     1       5.292   0.907  19.411  1.00  0.00     0.002 A 
HETATM   21  C   UNL     1       5.758   0.565  20.533  1.00  0.00     0.025 A 
ENDBRANCH  13  15
ENDBRANCH  10  11
ENDBRANCH   1  10
BRANCH   1  22
HETATM   22  S   UNL     1      10.886  -0.059  24.648  1.00  0.00    -0.100 SA
BRANCH  22  23
HETATM   23  C   UNL     1      12.294  -0.116  23.961  1.00  0.00     0.002 A 
HETATM   24  C   UNL     1      12.668  -1.024  22.901  1.00  0.00     0.020 A 
HETATM   25  C   UNL     1      13.213  -0.066  23.552  1.00  0.00     0.020 A 
ENDBRANCH  22  23
ENDBRANCH   1  22
TORSDOF 8
