stable:False satoms:21 tatoms:24 sratio:0.875
  -OEChem-08062401513D

 25 25  0     1  0  0  0  0  0999 V2000
    5.3882   -3.2578   22.4099 C   0  0  0  0  0  0  0  0  0  0  0  0
    5.0330   -3.1606   23.3924 H   0  0  0  0  0  0  0  0  0  0  0  0
    6.6584   -3.3141   22.2151 C   0  0  0  0  0  0  0  0  0  0  0  0
    4.6513   -3.3311   21.6766 H   0  0  0  0  0  0  0  0  0  0  0  0
    7.1429   -2.6278   21.5474 H   0  0  0  0  0  0  0  0  0  0  0  0
    8.0602   -3.4413   23.9686 C   0  0  3  0  0  0  0  0  0  0  0  0
    7.6007   -4.0659   22.9167 O   0  0  0  0  0  0  0  0  0  0  0  0
    8.3212   -4.6987   25.4343 C   0  0  0  0  0  0  0  0  0  0  0  0
    7.4650   -3.7200   25.1063 O   0  0  0  0  0  0  0  0  0  0  0  0
    7.3169   -4.8255   27.2875 H   0  0  0  0  0  0  0  0  0  0  0  0
    8.3274   -4.7222   26.9257 C   0  0  0  0  0  0  0  0  0  0  0  0
    8.9192   -5.5491   27.2613 H   0  0  0  0  0  0  0  0  0  0  0  0
    8.9178   -5.4841   24.7525 O   0  0  0  0  0  0  0  0  0  0  0  0
    8.7174   -3.7509   27.2004 H   0  0  0  0  0  0  0  0  0  0  0  0
    9.1156   -2.5300   24.1007 C   0  0  0  0  0  0  0  0  0  0  0  0
   10.3990    0.1038   25.2560 O   0  0  0  0  0  0  0  0  0  0  0  0
    9.7767   -1.6844   24.0901 N   0  3  0  0  0  0  0  0  0  0  0  0
   12.0700   -0.7559   24.0994 C   0  0  0  0  0  0  0  0  0  0  0  0
   12.2951    0.5689   24.1439 C   0  0  0  0  0  0  0  0  0  0  0  0
   12.7586   -1.5410   23.9301 H   0  0  0  0  0  0  0  0  0  0  0  0
   13.1785    1.1172   23.8690 H   0  0  0  0  0  0  0  0  0  0  0  0
   10.9156    2.1515   24.9235 H   0  0  0  0  0  0  0  0  0  0  0  0
   10.7114   -0.8308   24.4382 C   0  0  0  0  0  0  0  0  0  0  0  0
   11.1554    1.1281   24.7376 C   0  0  0  0  0  0  0  0  0  0  0  0
    7.3572   -2.6135   23.7943 H   0  0  0  0  0  0  0  0  0  0  0  0
 19 21  1  0  0  0  0
 18 20  1  0  0  0  0
 18 19  1  0  0  0  0
 19 24  2  0  0  0  0
 18 23  2  0  0  0  0
 22 24  1  0  0  0  0
 16 24  1  0  0  0  0
 16 23  1  0  0  0  0
 17 23  1  0  0  0  0
 15 17  3  0  0  0  0
  6 15  1  0  0  0  0
  8 13  2  0  0  0  0
 11 12  1  0  0  0  0
 11 14  1  0  0  0  0
  8 11  1  0  0  0  0
  8  9  1  0  0  0  0
 10 11  1  0  0  0  0
  6  7  1  0  0  0  0
  6  9  1  0  0  0  0
  3  7  1  0  0  0  0
  3  5  1  0  0  0  0
  1  3  2  0  0  0  0
  1  2  1  0  0  0  0
  1  4  1  0  0  0  0
  6 25  1  0  0  0  0
M  CHG  1  17   1
M  END
> <Chemgauss4>
-6.370575

$$$$
