stable:False satoms:21 tatoms:24 sratio:0.875
  -OEChem-08062401503D

 25 25  0     1  0  0  0  0  0999 V2000
   -5.5418   -3.2245  -21.8823 C   0  0  0  0  0  0  0  0  0  0  0  0
   -5.1499   -3.1466  -22.8526 H   0  0  0  0  0  0  0  0  0  0  0  0
   -6.8170   -3.3073  -21.7362 C   0  0  0  0  0  0  0  0  0  0  0  0
   -4.8333   -3.2580  -21.1188 H   0  0  0  0  0  0  0  0  0  0  0  0
   -7.3444   -2.6146  -21.1087 H   0  0  0  0  0  0  0  0  0  0  0  0
   -8.1438   -3.5201  -23.5391 C   0  0  3  0  0  0  0  0  0  0  0  0
   -7.7119   -4.1025  -22.4518 O   0  0  0  0  0  0  0  0  0  0  0  0
   -8.3154   -4.8253  -24.9760 C   0  0  0  0  0  0  0  0  0  0  0  0
   -7.4969   -3.8162  -24.6436 O   0  0  0  0  0  0  0  0  0  0  0  0
   -7.2347   -4.9798  -26.7835 H   0  0  0  0  0  0  0  0  0  0  0  0
   -8.2612   -4.8916  -26.4651 C   0  0  0  0  0  0  0  0  0  0  0  0
   -8.8189   -5.7425  -26.7991 H   0  0  0  0  0  0  0  0  0  0  0  0
   -8.9197   -5.6056  -24.2952 O   0  0  0  0  0  0  0  0  0  0  0  0
   -8.6631   -3.9388  -26.7836 H   0  0  0  0  0  0  0  0  0  0  0  0
   -9.2147   -2.6399  -23.7396 C   0  0  0  0  0  0  0  0  0  0  0  0
  -10.5138   -0.0736  -25.0222 O   0  0  0  0  0  0  0  0  0  0  0  0
   -9.8960   -1.8114  -23.7802 N   0  3  0  0  0  0  0  0  0  0  0  0
  -12.2087   -0.9418  -23.9074 C   0  0  0  0  0  0  0  0  0  0  0  0
  -12.4637    0.3751  -24.0001 C   0  0  0  0  0  0  0  0  0  0  0  0
  -12.8844   -1.7388  -23.7422 H   0  0  0  0  0  0  0  0  0  0  0  0
  -13.3704    0.9086  -23.7765 H   0  0  0  0  0  0  0  0  0  0  0  0
  -11.0926    1.9690  -24.7713 H   0  0  0  0  0  0  0  0  0  0  0  0
  -10.8362   -0.9920  -24.1900 C   0  0  0  0  0  0  0  0  0  0  0  0
  -11.3149    0.9456  -24.5647 C   0  0  0  0  0  0  0  0  0  0  0  0
   -7.4685   -2.6701  -23.3618 H   0  0  0  0  0  0  0  0  0  0  0  0
 19 21  1  0  0  0  0
 18 20  1  0  0  0  0
 18 19  1  0  0  0  0
 19 24  2  0  0  0  0
 18 23  2  0  0  0  0
 22 24  1  0  0  0  0
 16 24  1  0  0  0  0
 16 23  1  0  0  0  0
 17 23  1  0  0  0  0
 15 17  3  0  0  0  0
  6 15  1  0  0  0  0
  8 13  2  0  0  0  0
 11 12  1  0  0  0  0
 11 14  1  0  0  0  0
  8 11  1  0  0  0  0
  8  9  1  0  0  0  0
 10 11  1  0  0  0  0
  6  7  1  0  0  0  0
  6  9  1  0  0  0  0
  3  7  1  0  0  0  0
  3  5  1  0  0  0  0
  1  3  2  0  0  0  0
  1  2  1  0  0  0  0
  1  4  1  0  0  0  0
  6 25  1  0  0  0  0
M  CHG  1  17   1
M  END
> <Chemgauss4>
-6.422697

$$$$
