MODEL 1
REMARK VINA RESULT:    -5.262      0.000      0.000
REMARK INTER + INTRA:          -8.113
REMARK INTER:                  -7.723
REMARK INTRA:                  -0.390
REMARK UNBOUND:                -0.390
REMARK  9 active torsions:
REMARK  status: ('A' for Active; 'I' for Inactive)
REMARK    1  A    between atoms: N_4  and  C_6 
REMARK    2  A    between atoms: C_7  and  N_11 
REMARK    3  A    between atoms: C_7  and  C_8 
REMARK    4  A    between atoms: C_13  and  C_14 
REMARK    5  A    between atoms: N_16  and  S_23 
REMARK    6  A    between atoms: C_17  and  C_18 
REMARK    7  A    between atoms: C_17  and  C_22 
REMARK    8  A    between atoms: C_18  and  N_19 
REMARK    9  A    between atoms: C_22  and  S_23 
ROOT
HETATM    1  C   UNL     1       8.120  16.285   1.480  1.00  0.00     0.075 A 
HETATM    2  C   UNL     1       7.809  14.645   1.784  1.00  0.00     0.120 A 
HETATM    3  C   UNL     1       8.939  15.291   2.446  1.00  0.00     0.057 A 
ENDROOT
BRANCH   3   4
HETATM    4  C   UNL     1       9.909  15.196   3.176  1.00  0.00     0.190 A 
HETATM    5  O   UNL     1      10.841  14.377   3.549  1.00  0.00    -0.228 OA
HETATM    6  N   UNL     1      10.622  15.918   3.969  1.00  0.00    -0.063 NA
BRANCH   6   7
HETATM    7  S   UNL     1      10.528  16.643   5.442  1.00  0.00    -0.018 SA
BRANCH   7   8
HETATM    8  C   UNL     1      10.794  18.161   4.915  1.00  0.00     0.066 C 
BRANCH   8   9
HETATM    9  C   UNL     1      12.042  18.918   4.942  1.00  0.00     0.025 C 
BRANCH   9  10
HETATM   10  C   UNL     1      12.631  19.515   4.264  1.00  0.00     0.081 C 
BRANCH  10  11
HETATM   11  N   UNL     1      12.955  19.164   3.324  1.00  0.00    -0.408 N 
ATOM     12  HN2 UNL     1      12.282  19.176   2.558  1.00  0.00     0.155 HD
ATOM     13  HN1 UNL     1      13.900  18.818   3.157  1.00  0.00     0.155 HD
ENDBRANCH  10  11
ENDBRANCH   9  10
ENDBRANCH   8   9
ENDBRANCH   7   8
ENDBRANCH   6   7
ENDBRANCH   3   4
BRANCH   1  14
HETATM   14  N   UNL     1       7.875  17.102   0.820  1.00  0.00    -0.306 N 
HETATM   15  N   UNL     1       8.410  17.887  -0.037  1.00  0.00    -0.341 N 
HETATM   16  C   UNL     1       8.268  19.267  -0.226  1.00  0.00     0.167 C 
ATOM     17  HN  UNL     1       9.046  17.431  -0.692  1.00  0.00     0.179 HD
ATOM     18  HN  UNL     1       6.884  17.323   0.908  1.00  0.00     0.186 HD
ENDBRANCH   1  14
BRANCH   2  19
HETATM   19  N   UNL     1       7.851  13.845   0.757  1.00  0.00    -0.410 N 
HETATM   20  H   UNL     1       8.531  13.178   0.547  1.00  0.00     0.151 HD
ATOM     21  HN  UNL     1       7.080  13.925   0.093  1.00  0.00     0.151 HD
ENDBRANCH   2  19
BRANCH   2  22
HETATM   22  C   UNL     1       6.787  14.142   2.502  1.00  0.00     0.005 C 
HETATM   23  C   UNL     1       6.654  13.784   3.538  1.00  0.00     0.010 C 
ENDBRANCH   2  22
TORSDOF 9
ENDMDL
MODEL 2
REMARK VINA RESULT:    -5.205     23.321     25.437
REMARK INTER + INTRA:          -8.030
REMARK INTER:                  -7.675
REMARK INTRA:                  -0.355
REMARK UNBOUND:                -0.390
REMARK  9 active torsions:
REMARK  status: ('A' for Active; 'I' for Inactive)
REMARK    1  A    between atoms: N_4  and  C_6 
REMARK    2  A    between atoms: C_7  and  N_11 
REMARK    3  A    between atoms: C_7  and  C_8 
REMARK    4  A    between atoms: C_13  and  C_14 
REMARK    5  A    between atoms: N_16  and  S_23 
REMARK    6  A    between atoms: C_17  and  C_18 
REMARK    7  A    between atoms: C_17  and  C_22 
REMARK    8  A    between atoms: C_18  and  N_19 
REMARK    9  A    between atoms: C_22  and  S_23 
ROOT
HETATM    1  C   UNL     1      10.710   2.761  23.195  1.00  0.00     0.075 A 
HETATM    2  C   UNL     1      10.991   1.264  23.945  1.00  0.00     0.120 A 
HETATM    3  C   UNL     1      10.203   1.309  22.717  1.00  0.00     0.057 A 
ENDROOT
BRANCH   3   4
HETATM    4  C   UNL     1       9.536   0.718  21.887  1.00  0.00     0.190 A 
HETATM    5  O   UNL     1       9.522   0.360  20.641  1.00  0.00    -0.228 OA
HETATM    6  N   UNL     1       8.453   0.027  21.801  1.00  0.00    -0.063 NA
BRANCH   6   7
HETATM    7  S   UNL     1       6.822   0.224  21.868  1.00  0.00    -0.018 SA
BRANCH   7   8
HETATM    8  C   UNL     1       6.451  -0.963  20.816  1.00  0.00     0.066 C 
BRANCH   8   9
HETATM    9  C   UNL     1       5.772  -0.845  19.529  1.00  0.00     0.025 C 
BRANCH   9  10
HETATM   10  C   UNL     1       5.828  -0.225  18.649  1.00  0.00     0.081 C 
BRANCH  10  11
HETATM   11  N   UNL     1       5.649  -0.591  17.676  1.00  0.00    -0.408 N 
ATOM     12  HN2 UNL     1       4.678  -0.753  17.406  1.00  0.00     0.155 HD
ATOM     13  HN1 UNL     1       6.396  -0.786  17.010  1.00  0.00     0.155 HD
ENDBRANCH  10  11
ENDBRANCH   9  10
ENDBRANCH   8   9
ENDBRANCH   7   8
ENDBRANCH   6   7
ENDBRANCH   3   4
BRANCH   1  14
HETATM   14  N   UNL     1      10.771   3.826  23.347  1.00  0.00    -0.306 N 
HETATM   15  N   UNL     1      11.564   4.815  23.171  1.00  0.00    -0.341 N 
HETATM   16  C   UNL     1      11.893   5.883  24.014  1.00  0.00     0.167 C 
ATOM     17  HN  UNL     1      12.035   4.826  22.266  1.00  0.00     0.179 HD
ATOM     18  HN  UNL     1       9.906   4.158  23.773  1.00  0.00     0.186 HD
ENDBRANCH   1  14
BRANCH   2  19
HETATM   19  N   UNL     1      10.545   1.131  25.163  1.00  0.00    -0.410 N 
HETATM   20  H   UNL     1      10.243   0.315  25.601  1.00  0.00     0.151 HD
ATOM     21  HN  UNL     1      10.509   1.982  25.723  1.00  0.00     0.151 HD
ENDBRANCH   2  19
BRANCH   2  22
HETATM   22  C   UNL     1      12.158   0.596  23.990  1.00  0.00     0.005 C 
HETATM   23  C   UNL     1      12.489  -0.388  24.368  1.00  0.00     0.010 C 
ENDBRANCH   2  22
TORSDOF 9
ENDMDL
MODEL 3
REMARK VINA RESULT:    -5.204     26.112     28.363
REMARK INTER + INTRA:          -8.028
REMARK INTER:                  -7.587
REMARK INTRA:                  -0.441
REMARK UNBOUND:                -0.390
REMARK  9 active torsions:
REMARK  status: ('A' for Active; 'I' for Inactive)
REMARK    1  A    between atoms: N_4  and  C_6 
REMARK    2  A    between atoms: C_7  and  N_11 
REMARK    3  A    between atoms: C_7  and  C_8 
REMARK    4  A    between atoms: C_13  and  C_14 
REMARK    5  A    between atoms: N_16  and  S_23 
REMARK    6  A    between atoms: C_17  and  C_18 
REMARK    7  A    between atoms: C_17  and  C_22 
REMARK    8  A    between atoms: C_18  and  N_19 
REMARK    9  A    between atoms: C_22  and  S_23 
ROOT
HETATM    1  C   UNL     1       7.936  -4.358  24.691  1.00  0.00     0.075 A 
HETATM    2  C   UNL     1       7.028  -4.647  23.287  1.00  0.00     0.120 A 
HETATM    3  C   UNL     1       8.002  -3.559  23.294  1.00  0.00     0.057 A 
ENDROOT
BRANCH   3   4
HETATM    4  C   UNL     1       8.514  -2.619  22.715  1.00  0.00     0.190 A 
HETATM    5  O   UNL     1       9.638  -1.990  22.565  1.00  0.00    -0.228 OA
HETATM    6  N   UNL     1       8.225  -1.724  21.836  1.00  0.00    -0.063 NA
BRANCH   6   7
HETATM    7  S   UNL     1       7.323  -0.359  21.674  1.00  0.00    -0.018 SA
BRANCH   7   8
HETATM    8  C   UNL     1       7.803  -0.001  20.160  1.00  0.00     0.066 C 
BRANCH   8   9
HETATM    9  C   UNL     1       6.984   0.095  18.955  1.00  0.00     0.025 C 
BRANCH   9  10
HETATM   10  C   UNL     1       5.977  -0.145  18.650  1.00  0.00     0.081 C 
BRANCH  10  11
HETATM   11  N   UNL     1       5.754  -0.643  17.748  1.00  0.00    -0.408 N 
ATOM     12  HN2 UNL     1       5.972  -0.159  16.877  1.00  0.00     0.155 HD
ATOM     13  HN1 UNL     1       5.337  -1.573  17.716  1.00  0.00     0.155 HD
ENDBRANCH  10  11
ENDBRANCH   9  10
ENDBRANCH   8   9
ENDBRANCH   7   8
ENDBRANCH   6   7
ENDBRANCH   3   4
BRANCH   1  14
HETATM   14  N   UNL     1       7.999  -4.592  25.742  1.00  0.00    -0.306 N 
HETATM   15  N   UNL     1       7.974  -5.588  26.545  1.00  0.00    -0.341 N 
HETATM   16  C   UNL     1       7.318  -5.756  27.771  1.00  0.00     0.167 C 
ATOM     17  HN  UNL     1       8.523  -6.393  26.241  1.00  0.00     0.179 HD
ATOM     18  HN  UNL     1       8.118  -3.731  26.274  1.00  0.00     0.186 HD
ENDBRANCH   1  14
BRANCH   2  19
HETATM   19  N   UNL     1       5.734  -4.546  23.400  1.00  0.00    -0.410 N 
HETATM   20  H   UNL     1       5.092  -5.261  23.568  1.00  0.00     0.151 HD
ATOM     21  HN  UNL     1       5.346  -3.608  23.302  1.00  0.00     0.151 HD
ENDBRANCH   2  19
BRANCH   2  22
HETATM   22  C   UNL     1       7.164  -5.687  22.443  1.00  0.00     0.005 C 
HETATM   23  C   UNL     1       6.793  -5.936  21.433  1.00  0.00     0.010 C 
ENDBRANCH   2  22
TORSDOF 9
ENDMDL
MODEL 4
REMARK VINA RESULT:    -5.160     26.560     28.639
REMARK INTER + INTRA:          -7.963
REMARK INTER:                  -7.215
REMARK INTRA:                  -0.748
REMARK UNBOUND:                -0.390
REMARK  9 active torsions:
REMARK  status: ('A' for Active; 'I' for Inactive)
REMARK    1  A    between atoms: N_4  and  C_6 
REMARK    2  A    between atoms: C_7  and  N_11 
REMARK    3  A    between atoms: C_7  and  C_8 
REMARK    4  A    between atoms: C_13  and  C_14 
REMARK    5  A    between atoms: N_16  and  S_23 
REMARK    6  A    between atoms: C_17  and  C_18 
REMARK    7  A    between atoms: C_17  and  C_22 
REMARK    8  A    between atoms: C_18  and  N_19 
REMARK    9  A    between atoms: C_22  and  S_23 
ROOT
HETATM    1  C   UNL     1       5.912  -2.089  20.910  1.00  0.00     0.075 A 
HETATM    2  C   UNL     1       6.761  -2.144  22.379  1.00  0.00     0.120 A 
HETATM    3  C   UNL     1       6.179  -3.372  21.846  1.00  0.00     0.057 A 
ENDROOT
BRANCH   3   4
HETATM    4  C   UNL     1       5.951  -4.560  21.985  1.00  0.00     0.190 A 
HETATM    5  O   UNL     1       5.633  -5.632  21.328  1.00  0.00    -0.228 OA
HETATM    6  N   UNL     1       5.967  -5.469  22.896  1.00  0.00    -0.063 NA
BRANCH   6   7
HETATM    7  S   UNL     1       5.134  -5.922  24.240  1.00  0.00    -0.018 SA
BRANCH   7   8
HETATM    8  C   UNL     1       6.043  -5.093  25.307  1.00  0.00     0.066 C 
BRANCH   8   9
HETATM    9  C   UNL     1       7.500  -5.046  25.404  1.00  0.00     0.025 C 
BRANCH   9  10
HETATM   10  C   UNL     1       8.266  -5.357  26.097  1.00  0.00     0.081 C 
BRANCH  10  11
HETATM   11  N   UNL     1       8.050  -5.782  27.038  1.00  0.00    -0.408 N 
ATOM     12  HN2 UNL     1       7.068  -5.907  27.284  1.00  0.00     0.155 HD
ATOM     13  HN1 UNL     1       8.774  -6.065  27.698  1.00  0.00     0.155 HD
ENDBRANCH  10  11
ENDBRANCH   9  10
ENDBRANCH   8   9
ENDBRANCH   7   8
ENDBRANCH   6   7
ENDBRANCH   3   4
BRANCH   1  14
HETATM   14  N   UNL     1       5.464  -1.416  20.198  1.00  0.00    -0.306 N 
HETATM   15  N   UNL     1       5.569  -1.036  18.981  1.00  0.00    -0.341 N 
HETATM   16  C   UNL     1       5.521   0.245  18.416  1.00  0.00     0.167 C 
ATOM     17  HN  UNL     1       5.713  -1.791  18.310  1.00  0.00     0.179 HD
ATOM     18  HN  UNL     1       4.697  -0.912  20.644  1.00  0.00     0.186 HD
ENDBRANCH   1  14
BRANCH   2  19
HETATM   19  N   UNL     1       6.296  -1.408  23.348  1.00  0.00    -0.410 N 
HETATM   20  H   UNL     1       6.803  -0.923  24.024  1.00  0.00     0.151 HD
ATOM     21  HN  UNL     1       5.280  -1.329  23.404  1.00  0.00     0.151 HD
ENDBRANCH   2  19
BRANCH   2  22
HETATM   22  C   UNL     1       8.092  -2.028  22.540  1.00  0.00     0.005 C 
HETATM   23  C   UNL     1       8.844  -2.462  23.224  1.00  0.00     0.010 C 
ENDBRANCH   2  22
TORSDOF 9
ENDMDL
MODEL 5
REMARK VINA RESULT:    -5.148     24.658     26.680
REMARK INTER + INTRA:          -7.946
REMARK INTER:                  -7.130
REMARK INTRA:                  -0.816
REMARK UNBOUND:                -0.390
REMARK  9 active torsions:
REMARK  status: ('A' for Active; 'I' for Inactive)
REMARK    1  A    between atoms: N_4  and  C_6 
REMARK    2  A    between atoms: C_7  and  N_11 
REMARK    3  A    between atoms: C_7  and  C_8 
REMARK    4  A    between atoms: C_13  and  C_14 
REMARK    5  A    between atoms: N_16  and  S_23 
REMARK    6  A    between atoms: C_17  and  C_18 
REMARK    7  A    between atoms: C_17  and  C_22 
REMARK    8  A    between atoms: C_18  and  N_19 
REMARK    9  A    between atoms: C_22  and  S_23 
ROOT
HETATM    1  C   UNL     1      10.821   2.687  23.160  1.00  0.00     0.075 A 
HETATM    2  C   UNL     1      11.136   1.220  23.952  1.00  0.00     0.120 A 
HETATM    3  C   UNL     1      10.369   1.209  22.711  1.00  0.00     0.057 A 
ENDROOT
BRANCH   3   4
HETATM    4  C   UNL     1       9.735   0.575  21.886  1.00  0.00     0.190 A 
HETATM    5  O   UNL     1       9.066   0.701  20.782  1.00  0.00    -0.228 OA
HETATM    6  N   UNL     1       9.423  -0.641  21.602  1.00  0.00    -0.063 NA
BRANCH   6   7
HETATM    7  S   UNL     1       8.472  -1.862  22.159  1.00  0.00    -0.018 SA
BRANCH   7   8
HETATM    8  C   UNL     1       9.445  -2.304  23.389  1.00  0.00     0.066 C 
BRANCH   8   9
HETATM    9  C   UNL     1       9.261  -2.055  24.816  1.00  0.00     0.025 C 
BRANCH   9  10
HETATM   10  C   UNL     1       8.512  -2.238  25.570  1.00  0.00     0.081 C 
BRANCH  10  11
HETATM   11  N   UNL     1       8.490  -3.113  26.157  1.00  0.00    -0.408 N 
ATOM     12  HN2 UNL     1       8.651  -4.002  25.684  1.00  0.00     0.155 HD
ATOM     13  HN1 UNL     1       8.319  -3.103  27.163  1.00  0.00     0.155 HD
ENDBRANCH  10  11
ENDBRANCH   9  10
ENDBRANCH   8   9
ENDBRANCH   7   8
ENDBRANCH   6   7
ENDBRANCH   3   4
BRANCH   1  14
HETATM   14  N   UNL     1      10.845   3.758  23.284  1.00  0.00    -0.306 N 
HETATM   15  N   UNL     1      11.587   4.773  23.047  1.00  0.00    -0.341 N 
HETATM   16  C   UNL     1      11.913   5.874  23.849  1.00  0.00     0.167 C 
ATOM     17  HN  UNL     1      12.012   4.782  22.119  1.00  0.00     0.179 HD
ATOM     18  HN  UNL     1       9.990   4.065  23.746  1.00  0.00     0.186 HD
ENDBRANCH   1  14
BRANCH   2  19
HETATM   19  N   UNL     1      10.675   1.103  25.165  1.00  0.00    -0.410 N 
HETATM   20  H   UNL     1      10.870   0.401  25.812  1.00  0.00     0.151 HD
ATOM     21  HN  UNL     1      10.033   1.834  25.474  1.00  0.00     0.151 HD
ENDBRANCH   2  19
BRANCH   2  22
HETATM   22  C   UNL     1      12.324   0.592  24.033  1.00  0.00     0.005 C 
HETATM   23  C   UNL     1      12.675  -0.383  24.416  1.00  0.00     0.010 C 
ENDBRANCH   2  22
TORSDOF 9
ENDMDL
MODEL 6
REMARK VINA RESULT:    -5.100     34.673     35.962
REMARK INTER + INTRA:          -7.875
REMARK INTER:                  -6.991
REMARK INTRA:                  -0.884
REMARK UNBOUND:                -0.390
REMARK  9 active torsions:
REMARK  status: ('A' for Active; 'I' for Inactive)
REMARK    1  A    between atoms: N_4  and  C_6 
REMARK    2  A    between atoms: C_7  and  N_11 
REMARK    3  A    between atoms: C_7  and  C_8 
REMARK    4  A    between atoms: C_13  and  C_14 
REMARK    5  A    between atoms: N_16  and  S_23 
REMARK    6  A    between atoms: C_17  and  C_18 
REMARK    7  A    between atoms: C_17  and  C_22 
REMARK    8  A    between atoms: C_18  and  N_19 
REMARK    9  A    between atoms: C_22  and  S_23 
ROOT
HETATM    1  C   UNL     1      -1.612 -15.723  10.212  1.00  0.00     0.075 A 
HETATM    2  C   UNL     1      -0.112 -16.505  10.074  1.00  0.00     0.120 A 
HETATM    3  C   UNL     1      -0.732 -16.379  11.390  1.00  0.00     0.057 A 
ENDROOT
BRANCH   3   4
HETATM    4  C   UNL     1      -0.664 -16.557  12.593  1.00  0.00     0.190 A 
HETATM    5  O   UNL     1       0.135 -16.958  13.531  1.00  0.00    -0.228 OA
HETATM    6  N   UNL     1      -1.361 -16.371  13.659  1.00  0.00    -0.063 NA
BRANCH   6   7
HETATM    7  S   UNL     1      -2.701 -16.959  14.409  1.00  0.00    -0.018 SA
BRANCH   7   8
HETATM    8  C   UNL     1      -2.439 -16.237  15.845  1.00  0.00     0.066 C 
BRANCH   8   9
HETATM    9  C   UNL     1      -1.235 -16.286  16.671  1.00  0.00     0.025 C 
BRANCH   9  10
HETATM   10  C   UNL     1      -0.493 -17.013  16.960  1.00  0.00     0.081 C 
BRANCH  10  11
HETATM   11  N   UNL     1       0.280 -17.331  16.317  1.00  0.00    -0.408 N 
ATOM     12  HN2 UNL     1       0.250 -17.010  15.350  1.00  0.00     0.155 HD
ATOM     13  HN1 UNL     1       1.041 -17.938  16.623  1.00  0.00     0.155 HD
ENDBRANCH  10  11
ENDBRANCH   9  10
ENDBRANCH   8   9
ENDBRANCH   7   8
ENDBRANCH   6   7
ENDBRANCH   3   4
BRANCH   1  14
HETATM   14  N   UNL     1      -2.308 -15.093   9.682  1.00  0.00    -0.306 N 
HETATM   15  N   UNL     1      -3.327 -14.346   9.880  1.00  0.00    -0.341 N 
HETATM   16  C   UNL     1      -4.528 -14.229   9.168  1.00  0.00     0.167 C 
ATOM     17  HN  UNL     1      -3.254 -13.733  10.693  1.00  0.00     0.179 HD
ATOM     18  HN  UNL     1      -2.077 -15.092   8.689  1.00  0.00     0.186 HD
ENDBRANCH   1  14
BRANCH   2  19
HETATM   19  N   UNL     1       0.872 -15.796   9.596  1.00  0.00    -0.410 N 
HETATM   20  H   UNL     1       1.349 -15.068  10.033  1.00  0.00     0.151 HD
ATOM     21  HN  UNL     1       1.178 -16.032   8.652  1.00  0.00     0.151 HD
ENDBRANCH   2  19
BRANCH   2  22
HETATM   22  C   UNL     1       0.114 -17.716   9.533  1.00  0.00     0.005 C 
HETATM   23  C   UNL     1       0.994 -18.372   9.410  1.00  0.00     0.010 C 
ENDBRANCH   2  22
TORSDOF 9
ENDMDL
MODEL 7
REMARK VINA RESULT:    -5.096     27.754     29.742
REMARK INTER + INTRA:          -7.870
REMARK INTER:                  -7.024
REMARK INTRA:                  -0.846
REMARK UNBOUND:                -0.390
REMARK  9 active torsions:
REMARK  status: ('A' for Active; 'I' for Inactive)
REMARK    1  A    between atoms: N_4  and  C_6 
REMARK    2  A    between atoms: C_7  and  N_11 
REMARK    3  A    between atoms: C_7  and  C_8 
REMARK    4  A    between atoms: C_13  and  C_14 
REMARK    5  A    between atoms: N_16  and  S_23 
REMARK    6  A    between atoms: C_17  and  C_18 
REMARK    7  A    between atoms: C_17  and  C_22 
REMARK    8  A    between atoms: C_18  and  N_19 
REMARK    9  A    between atoms: C_22  and  S_23 
ROOT
HETATM    1  C   UNL     1       7.718  -5.139  25.594  1.00  0.00     0.075 A 
HETATM    2  C   UNL     1       7.144  -4.891  24.016  1.00  0.00     0.120 A 
HETATM    3  C   UNL     1       8.098  -3.944  24.585  1.00  0.00     0.057 A 
ENDROOT
BRANCH   3   4
HETATM    4  C   UNL     1       8.732  -2.910  24.469  1.00  0.00     0.190 A 
HETATM    5  O   UNL     1       9.091  -1.844  25.113  1.00  0.00    -0.228 OA
HETATM    6  N   UNL     1       9.492  -2.308  23.622  1.00  0.00    -0.063 NA
BRANCH   6   7
HETATM    7  S   UNL     1       9.401  -1.528  22.177  1.00  0.00    -0.018 SA
BRANCH   7   8
HETATM    8  C   UNL     1      10.853  -0.796  22.273  1.00  0.00     0.066 C 
BRANCH   8   9
HETATM    9  C   UNL     1      11.889  -0.982  23.284  1.00  0.00     0.025 C 
BRANCH   9  10
HETATM   10  C   UNL     1      12.278  -0.450  24.138  1.00  0.00     0.081 C 
BRANCH  10  11
HETATM   11  N   UNL     1      11.660   0.027  24.848  1.00  0.00    -0.408 N 
ATOM     12  HN2 UNL     1      11.551  -0.425  25.756  1.00  0.00     0.155 HD
ATOM     13  HN1 UNL     1      11.178   0.906  24.662  1.00  0.00     0.155 HD
ENDBRANCH  10  11
ENDBRANCH   9  10
ENDBRANCH   8   9
ENDBRANCH   7   8
ENDBRANCH   6   7
ENDBRANCH   3   4
BRANCH   1  14
HETATM   14  N   UNL     1       7.544  -5.702  26.497  1.00  0.00    -0.306 N 
HETATM   15  N   UNL     1       6.593  -6.118  27.245  1.00  0.00    -0.341 N 
HETATM   16  C   UNL     1       6.464  -6.126  28.640  1.00  0.00     0.167 C 
ATOM     17  HN  UNL     1       5.796  -6.509  26.742  1.00  0.00     0.179 HD
ATOM     18  HN  UNL     1       8.437  -6.004  26.886  1.00  0.00     0.186 HD
ENDBRANCH   1  14
BRANCH   2  19
HETATM   19  N   UNL     1       5.858  -4.731  23.884  1.00  0.00    -0.410 N 
HETATM   20  H   UNL     1       5.266  -4.182  24.430  1.00  0.00     0.151 HD
ATOM     21  HN  UNL     1       5.418  -5.240  23.117  1.00  0.00     0.151 HD
ENDBRANCH   2  19
BRANCH   2  22
HETATM   22  C   UNL     1       7.460  -5.614  22.926  1.00  0.00     0.005 C 
HETATM   23  C   UNL     1       7.013  -5.769  21.927  1.00  0.00     0.010 C 
ENDBRANCH   2  22
TORSDOF 9
ENDMDL
MODEL 8
REMARK VINA RESULT:    -5.017     23.736     25.772
REMARK INTER + INTRA:          -7.754
REMARK INTER:                  -6.594
REMARK INTRA:                  -1.160
REMARK UNBOUND:                -0.390
REMARK  9 active torsions:
REMARK  status: ('A' for Active; 'I' for Inactive)
REMARK    1  A    between atoms: N_4  and  C_6 
REMARK    2  A    between atoms: C_7  and  N_11 
REMARK    3  A    between atoms: C_7  and  C_8 
REMARK    4  A    between atoms: C_13  and  C_14 
REMARK    5  A    between atoms: N_16  and  S_23 
REMARK    6  A    between atoms: C_17  and  C_18 
REMARK    7  A    between atoms: C_17  and  C_22 
REMARK    8  A    between atoms: C_18  and  N_19 
REMARK    9  A    between atoms: C_22  and  S_23 
ROOT
HETATM    1  C   UNL     1       7.980   0.746  21.223  1.00  0.00     0.075 A 
HETATM    2  C   UNL     1       7.156   0.214  19.837  1.00  0.00     0.120 A 
HETATM    3  C   UNL     1       7.100  -0.592  21.053  1.00  0.00     0.057 A 
ENDROOT
BRANCH   3   4
HETATM    4  C   UNL     1       6.728  -1.610  21.609  1.00  0.00     0.190 A 
HETATM    5  O   UNL     1       5.854  -2.563  21.536  1.00  0.00    -0.228 OA
HETATM    6  N   UNL     1       7.060  -2.376  22.589  1.00  0.00    -0.063 NA
BRANCH   6   7
HETATM    7  S   UNL     1       7.081  -2.384  24.234  1.00  0.00    -0.018 SA
BRANCH   7   8
HETATM    8  C   UNL     1       8.698  -2.495  24.395  1.00  0.00     0.066 C 
BRANCH   8   9
HETATM    9  C   UNL     1       9.725  -1.680  23.753  1.00  0.00     0.025 C 
BRANCH   9  10
HETATM   10  C   UNL     1      10.508  -1.808  23.022  1.00  0.00     0.081 C 
BRANCH  10  11
HETATM   11  N   UNL     1      10.318  -1.902  21.989  1.00  0.00    -0.408 N 
ATOM     12  HN2 UNL     1       9.439  -2.337  21.709  1.00  0.00     0.155 HD
ATOM     13  HN1 UNL     1      10.970  -1.580  21.274  1.00  0.00     0.155 HD
ENDBRANCH  10  11
ENDBRANCH   9  10
ENDBRANCH   8   9
ENDBRANCH   7   8
ENDBRANCH   6   7
ENDBRANCH   3   4
BRANCH   1  14
HETATM   14  N   UNL     1       8.721   1.448  21.570  1.00  0.00    -0.306 N 
HETATM   15  N   UNL     1       9.979   1.551  21.774  1.00  0.00    -0.341 N 
HETATM   16  C   UNL     1      10.689   2.104  22.847  1.00  0.00     0.167 C 
ATOM     17  HN  UNL     1      10.563   1.167  21.030  1.00  0.00     0.179 HD
ATOM     18  HN  UNL     1       8.265   2.325  21.820  1.00  0.00     0.186 HD
ENDBRANCH   1  14
BRANCH   2  19
HETATM   19  N   UNL     1       7.882  -0.007  18.778  1.00  0.00    -0.410 N 
HETATM   20  H   UNL     1       8.039  -0.858  18.330  1.00  0.00     0.151 HD
ATOM     21  HN  UNL     1       8.341   0.808  18.370  1.00  0.00     0.151 HD
ENDBRANCH   2  19
BRANCH   2  22
HETATM   22  C   UNL     1       6.037   0.750  19.315  1.00  0.00     0.005 C 
HETATM   23  C   UNL     1       5.433   0.580  18.406  1.00  0.00     0.010 C 
ENDBRANCH   2  22
TORSDOF 9
ENDMDL
MODEL 9
REMARK VINA RESULT:    -5.009     24.254     26.529
REMARK INTER + INTRA:          -7.742
REMARK INTER:                  -6.864
REMARK INTRA:                  -0.878
REMARK UNBOUND:                -0.390
REMARK  9 active torsions:
REMARK  status: ('A' for Active; 'I' for Inactive)
REMARK    1  A    between atoms: N_4  and  C_6 
REMARK    2  A    between atoms: C_7  and  N_11 
REMARK    3  A    between atoms: C_7  and  C_8 
REMARK    4  A    between atoms: C_13  and  C_14 
REMARK    5  A    between atoms: N_16  and  S_23 
REMARK    6  A    between atoms: C_17  and  C_18 
REMARK    7  A    between atoms: C_17  and  C_22 
REMARK    8  A    between atoms: C_18  and  N_19 
REMARK    9  A    between atoms: C_22  and  S_23 
ROOT
HETATM    1  C   UNL     1       7.690   0.487  21.370  1.00  0.00     0.075 A 
HETATM    2  C   UNL     1       7.195  -0.010  19.825  1.00  0.00     0.120 A 
HETATM    3  C   UNL     1       6.945  -0.883  20.968  1.00  0.00     0.057 A 
ENDROOT
BRANCH   3   4
HETATM    4  C   UNL     1       6.532  -1.947  21.394  1.00  0.00     0.190 A 
HETATM    5  O   UNL     1       5.543  -2.780  21.300  1.00  0.00    -0.228 OA
HETATM    6  N   UNL     1       6.901  -2.913  22.159  1.00  0.00    -0.063 NA
BRANCH   6   7
HETATM    7  S   UNL     1       7.154  -3.235  23.752  1.00  0.00    -0.018 SA
BRANCH   7   8
HETATM    8  C   UNL     1       7.411  -4.834  23.577  1.00  0.00     0.066 C 
BRANCH   8   9
HETATM    9  C   UNL     1       7.283  -5.639  22.365  1.00  0.00     0.025 C 
BRANCH   9  10
HETATM   10  C   UNL     1       6.547  -6.278  21.903  1.00  0.00     0.081 C 
BRANCH  10  11
HETATM   11  N   UNL     1       5.973  -5.982  21.070  1.00  0.00    -0.408 N 
ATOM     12  HN2 UNL     1       5.697  -6.706  20.406  1.00  0.00     0.155 HD
ATOM     13  HN1 UNL     1       5.689  -5.016  20.906  1.00  0.00     0.155 HD
ENDBRANCH  10  11
ENDBRANCH   9  10
ENDBRANCH   8   9
ENDBRANCH   7   8
ENDBRANCH   6   7
ENDBRANCH   3   4
BRANCH   1  14
HETATM   14  N   UNL     1       8.302   1.206  21.890  1.00  0.00    -0.306 N 
HETATM   15  N   UNL     1       9.340   1.936  21.728  1.00  0.00    -0.341 N 
HETATM   16  C   UNL     1      10.422   2.188  22.580  1.00  0.00     0.167 C 
ATOM     17  HN  UNL     1       9.387   2.414  20.827  1.00  0.00     0.179 HD
ATOM     18  HN  UNL     1       7.927   1.356  22.827  1.00  0.00     0.186 HD
ENDBRANCH   1  14
BRANCH   2  19
HETATM   19  N   UNL     1       8.131  -0.137  18.927  1.00  0.00    -0.410 N 
HETATM   20  H   UNL     1       8.426  -0.953  18.484  1.00  0.00     0.151 HD
ATOM     21  HN  UNL     1       8.612   0.721  18.656  1.00  0.00     0.151 HD
ENDBRANCH   2  19
BRANCH   2  22
HETATM   22  C   UNL     1       6.173   0.495  19.109  1.00  0.00     0.005 C 
HETATM   23  C   UNL     1       5.709   0.270  18.132  1.00  0.00     0.010 C 
ENDBRANCH   2  22
TORSDOF 9
ENDMDL
