stable:False satoms:10 tatoms:24 sratio:0.4166666666666667
  -OEChem-07092417453D

 24 24  0     1  0  0  0  0  0999 V2000
    6.5399   -4.9115   26.4797 C   0  0  0  0  0  0  0  0  0  0  0  0
    8.2280   -4.2944   26.0923 S   0  0  0  0  0  0  0  0  0  0  0  0
    9.0859   -5.4479   26.0598 O   0  0  0  0  0  0  0  0  0  0  0  0
    8.5784   -3.3917   27.1314 O   0  0  0  0  0  0  0  0  0  0  0  0
    8.0970   -3.5562   24.6855 N   0  0  0  0  0  0  0  0  0  0  0  0
    8.9456   -2.8750   24.1406 C   0  0  0  0  0  0  0  0  0  0  0  0
    9.4365   -1.9620   23.5265 C   0  0  0  0  0  0  0  0  0  0  0  0
   10.3157   -1.0585   23.3041 C   0  0  2  0  0  0  0  0  0  0  0  0
   11.0542   -0.0353   24.2872 C   0  0  0  0  0  0  0  0  0  0  0  0
   12.0950    0.2830   24.3004 C   0  0  0  0  0  0  0  0  0  0  0  0
   13.1694   -0.2109   23.4519 C   0  0  0  0  0  0  0  0  0  0  0  0
   12.7503   -1.2388   22.6709 C   0  0  0  0  0  0  0  0  0  0  0  0
   11.8398   -1.7253   22.5290 C   0  0  0  0  0  0  0  0  0  0  0  0
    9.7080   -0.5245   22.3491 C   0  0  0  0  0  0  0  0  0  0  0  0
    9.0415    0.0422   21.3943 C   0  0  0  0  0  0  0  0  0  0  0  0
    9.5790    0.9403   20.9418 O   0  0  0  0  0  0  0  0  0  0  0  0
    7.8740   -0.5697   21.1484 N   0  0  0  0  0  0  0  0  0  0  0  0
    7.1597   -0.0761   20.2188 C   0  0  0  0  0  0  0  0  0  0  0  0
    7.2323    0.0072   18.9033 C   0  0  0  0  0  0  0  0  0  0  0  0
    6.8086    0.3201   17.8125 N   0  0  0  0  0  0  0  0  0  0  0  0
    5.6157    0.8532   18.2781 C   0  0  0  0  0  0  0  0  0  0  0  0
    5.2379    0.9417   19.3879 C   0  0  0  0  0  0  0  0  0  0  0  0
    5.7847    0.5537   20.6103 C   0  0  0  0  0  0  0  0  0  0  0  0
    5.4070    0.6464   21.5930 C   0  0  0  0  0  0  0  0  0  0  0  0
 20 21  2  0  0  0  0
 19 20  1  0  0  0  0
 21 22  1  0  0  0  0
 18 19  2  0  0  0  0
 22 23  2  0  0  0  0
 18 23  1  0  0  0  0
 17 18  1  0  0  0  0
 23 24  1  0  0  0  0
 15 16  2  0  0  0  0
 15 17  1  0  0  0  0
 14 15  1  0  0  0  0
  8 14  1  0  0  0  0
 12 13  2  0  0  0  0
 11 12  1  0  0  0  0
  7  8  1  0  0  0  0
  8  9  1  0  0  0  0
 10 11  1  0  0  0  0
  6  7  2  3  0  0  0
  5  6  1  0  0  0  0
  9 10  2  0  0  0  0
  2  5  1  0  0  0  0
  2  3  2  0  0  0  0
  1  2  1  0  0  0  0
  2  4  2  0  0  0  0
M  END
> <Shapegauss>
-286.631470

$$$$
