stable:False satoms:10 tatoms:24 sratio:0.4166666666666667
  -OEChem-08062413173D

 47 47  0     1  0  0  0  0  0999 V2000
   -6.2829   -5.2095  -26.2939 C   0  0  0  0  0  0  0  0  0  0  0  0
   -7.9794   -4.5442  -26.0488 S   0  0  0  0  0  0  0  0  0  0  0  0
   -8.8623   -5.6789  -26.0239 O   0  0  0  0  0  0  0  0  0  0  0  0
   -8.2401   -3.6829  -27.1478 O   0  0  0  0  0  0  0  0  0  0  0  0
   -7.9265   -3.7458  -24.6701 N   0  0  0  0  0  0  0  0  0  0  0  0
   -8.7946   -3.0250  -24.2141 C   0  0  0  0  0  0  0  0  0  0  0  0
   -9.3055   -2.0762  -23.6751 C   0  0  0  0  0  0  0  0  0  0  0  0
  -10.1778   -1.1473  -23.5524 C   0  0  2  0  0  0  0  0  0  0  0  0
  -10.8268   -0.1560  -24.6271 C   0  0  0  0  0  0  0  0  0  0  0  0
  -11.8573    0.1808  -24.7245 C   0  0  0  0  0  0  0  0  0  0  0  0
  -12.9963   -0.2542  -23.9297 C   0  0  0  0  0  0  0  0  0  0  0  0
  -12.6525   -1.2534  -23.0779 C   0  0  0  0  0  0  0  0  0  0  0  0
  -11.7642   -1.7499  -22.8536 C   0  0  0  0  0  0  0  0  0  0  0  0
   -9.6237   -0.5822  -22.5829 C   0  0  0  0  0  0  0  0  0  0  0  0
   -9.0102    0.0145  -21.6109 C   0  0  0  0  0  0  0  0  0  0  0  0
   -9.5571    0.9420  -21.2356 O   0  0  0  0  0  0  0  0  0  0  0  0
   -7.8752   -0.6074  -21.2602 N   0  0  0  0  0  0  0  0  0  0  0  0
   -7.2140   -0.0857  -20.3069 C   0  0  0  0  0  0  0  0  0  0  0  0
   -7.3723    0.0582  -19.0043 C   0  0  0  0  0  0  0  0  0  0  0  0
   -7.0156    0.4121  -17.9021 N   0  0  0  0  0  0  0  0  0  0  0  0
   -5.7831    0.9013  -18.3089 C   0  0  0  0  0  0  0  0  0  0  0  0
   -5.3303    0.9326  -19.3934 C   0  0  0  0  0  0  0  0  0  0  0  0
   -5.8026    0.5000  -20.6318 C   0  0  0  0  0  0  0  0  0  0  0  0
   -5.3583    0.5412  -21.5899 C   0  0  0  0  0  0  0  0  0  0  0  0
   -6.2437   -5.7776  -27.2350 H   0  0  0  0  0  0  0  0  0  0  0  0
   -5.5655   -4.3769  -26.3382 H   0  0  0  0  0  0  0  0  0  0  0  0
   -6.0243   -5.8721  -25.4548 H   0  0  0  0  0  0  0  0  0  0  0  0
   -7.1160   -3.1640  -24.7384 H   0  0  0  0  0  0  0  0  0  0  0  0
   -9.6711   -3.6163  -24.4342 H   0  0  0  0  0  0  0  0  0  0  0  0
   -8.6737   -1.9243  -22.8125 H   0  0  0  0  0  0  0  0  0  0  0  0
  -11.0658   -1.6430  -23.1332 H   0  0  0  0  0  0  0  0  0  0  0  0
  -10.1420    0.2369  -25.3641 H   0  0  0  0  0  0  0  0  0  0  0  0
  -12.0553    0.9148  -25.4915 H   0  0  0  0  0  0  0  0  0  0  0  0
  -13.7867   -0.6150  -24.6043 H   0  0  0  0  0  0  0  0  0  0  0  0
  -13.3730    0.5993  -23.3469 H   0  0  0  0  0  0  0  0  0  0  0  0
  -13.4904   -1.6166  -22.5013 H   0  0  0  0  0  0  0  0  0  0  0  0
  -11.7568   -2.5348  -22.1118 H   0  0  0  0  0  0  0  0  0  0  0  0
  -10.8511   -1.4797  -23.3631 H   0  0  0  0  0  0  0  0  0  0  0  0
   -9.7097   -1.4998  -21.9823 H   0  0  0  0  0  0  0  0  0  0  0  0
  -10.5132    0.0450  -22.4235 H   0  0  0  0  0  0  0  0  0  0  0  0
   -7.5650   -1.4374  -21.7235 H   0  0  0  0  0  0  0  0  0  0  0  0
   -8.3463   -0.3721  -18.8236 H   0  0  0  0  0  0  0  0  0  0  0  0
   -5.1576    1.3065  -17.5272 H   0  0  0  0  0  0  0  0  0  0  0  0
   -4.3520    1.3877  -19.4397 H   0  0  0  0  0  0  0  0  0  0  0  0
   -4.7770   -0.3761  -21.7648 H   0  0  0  0  0  0  0  0  0  0  0  0
   -6.1440    0.6287  -22.3548 H   0  0  0  0  0  0  0  0  0  0  0  0
   -4.6917    1.4143  -21.6475 H   0  0  0  0  0  0  0  0  0  0  0  0
 20 21  2  0  0  0  0
 19 20  1  0  0  0  0
 21 22  1  0  0  0  0
 18 19  2  0  0  0  0
 22 23  2  0  0  0  0
 18 23  1  0  0  0  0
 17 18  1  0  0  0  0
 23 24  1  0  0  0  0
 15 16  2  0  0  0  0
 15 17  1  0  0  0  0
 14 15  1  0  0  0  0
  8 14  1  0  0  0  0
 12 13  2  0  0  0  0
 11 12  1  0  0  0  0
  7  8  1  0  0  0  0
  8  9  1  0  0  0  0
 10 11  1  0  0  0  0
  6  7  2  3  0  0  0
  5  6  1  0  0  0  0
  9 10  2  0  0  0  0
  2  5  1  0  0  0  0
  2  3  2  0  0  0  0
  1  2  1  0  0  0  0
  2  4  2  0  0  0  0
  1 25  1  0  0  0  0
  1 26  1  0  0  0  0
  1 27  1  0  0  0  0
  5 28  1  0  0  0  0
  6 29  1  0  0  0  0
  7 30  1  0  0  0  0
  8 31  1  0  0  0  0
  9 32  1  0  0  0  0
 10 33  1  0  0  0  0
 11 34  1  0  0  0  0
 11 35  1  0  0  0  0
 12 36  1  0  0  0  0
 13 37  1  0  0  0  0
 13 38  1  0  0  0  0
 14 39  1  0  0  0  0
 14 40  1  0  0  0  0
 17 41  1  0  0  0  0
 19 42  1  0  0  0  0
 21 43  1  0  0  0  0
 22 44  1  0  0  0  0
 24 45  1  0  0  0  0
 24 46  1  0  0  0  0
 24 47  1  0  0  0  0
M  END
> <Chemgauss4>
-13.277269

$$$$
