MODEL 1
REMARK VINA RESULT:    -6.508      0.000      0.000
REMARK INTER + INTRA:          -8.925
REMARK INTER:                  -8.411
REMARK INTRA:                  -0.514
REMARK UNBOUND:                -0.514
REMARK  5 active torsions:
REMARK  status: ('A' for Active; 'I' for Inactive)
REMARK    1  A    between atoms: S_2  and  N_5 
REMARK    2  A    between atoms: N_5  and  C_7 
REMARK    3  A    between atoms: C_7  and  C_8 
REMARK    4  A    between atoms: C_9  and  C_11 
REMARK    5  A    between atoms: C_12  and  C_13 
REMARK       I    between atoms: C_13  and  N_15 
ROOT
HETATM    1  C   UNL     1       8.187  -4.723  25.057  1.00  0.00     0.030 A 
HETATM    2  C   UNL     1       7.957  -5.086  23.615  1.00  0.00     0.090 A 
HETATM    3  C   UNL     1       8.315  -3.864  24.085  1.00  0.00     0.039 A 
ENDROOT
BRANCH   3   4
HETATM    4  C   UNL     1       8.834  -2.430  23.655  1.00  0.00     0.254 C 
HETATM    5  O   UNL     1       8.376  -1.892  22.701  1.00  0.00    -0.268 OA
HETATM    6  N   UNL     1       9.796  -2.059  24.449  1.00  0.00    -0.323 N 
HETATM    7  C   UNL     1      10.434  -0.891  24.391  1.00  0.00     0.053 A 
ATOM      8  HN  UNL     1      10.084  -2.715  25.174  1.00  0.00     0.169 HD
HETATM    9  C   UNL     1      10.137   0.383  24.514  1.00  0.00     0.172 A 
HETATM   10  C   UNL     1      11.862  -0.713  24.106  1.00  0.00     0.112 A 
HETATM   11  N   UNL     1      10.345   1.606  24.498  1.00  0.00    -0.387 N 
HETATM   12  C   UNL     1      11.489   1.318  24.260  1.00  0.00     0.206 A 
ATOM     13  HN  UNL     1       9.800   2.458  24.628  1.00  0.00     0.156 HD
HETATM   14  N   UNL     1      12.377   0.469  24.075  1.00  0.00    -0.374 N 
ATOM     15  HN  UNL     1      13.364   0.675  23.922  1.00  0.00     0.161 HD
ENDBRANCH   3   4
BRANCH   1  16
HETATM   16  C   UNL     1       8.175  -5.274  26.235  1.00  0.00    -0.020 C 
BRANCH  16  17
HETATM   17  N   UNL     1       7.801  -5.743  27.220  1.00  0.00    -0.230 N 
ATOM     18  HN  UNL     1       8.494  -6.308  27.710  1.00  0.00     0.191 HD
BRANCH  17  19
HETATM   19  S   UNL     1       6.352  -5.656  27.963  1.00  0.00     0.215 S 
HETATM   20  O   UNL     1       5.664  -7.152  27.802  1.00  0.00    -0.577 OA
HETATM   21  O   UNL     1       6.552  -5.376  29.385  1.00  0.00    -0.577 OA
HETATM   22  O   UNL     1       5.489  -4.697  27.312  1.00  0.00    -0.577 OA
ENDBRANCH  17  19
ENDBRANCH  16  17
ENDBRANCH   1  16
BRANCH   2  23
HETATM   23  C   UNL     1       6.854  -5.259  22.957  1.00  0.00    -0.022 C 
HETATM   24  C   UNL     1       6.750  -5.562  21.797  1.00  0.00     0.008 C 
ENDBRANCH   2  23
TORSDOF 5
ENDMDL
MODEL 2
REMARK VINA RESULT:    -6.368      4.334      5.977
REMARK INTER + INTRA:          -8.744
REMARK INTER:                  -8.095
REMARK INTRA:                  -0.648
REMARK UNBOUND:                -0.514
REMARK  5 active torsions:
REMARK  status: ('A' for Active; 'I' for Inactive)
REMARK    1  A    between atoms: S_2  and  N_5 
REMARK    2  A    between atoms: N_5  and  C_7 
REMARK    3  A    between atoms: C_7  and  C_8 
REMARK    4  A    between atoms: C_9  and  C_11 
REMARK    5  A    between atoms: C_12  and  C_13 
REMARK       I    between atoms: C_13  and  N_15 
ROOT
HETATM    1  C   UNL     1       9.346  -1.838  23.290  1.00  0.00     0.030 A 
HETATM    2  C   UNL     1      10.215  -0.702  23.757  1.00  0.00     0.090 A 
HETATM    3  C   UNL     1       9.461  -0.721  22.628  1.00  0.00     0.039 A 
ENDROOT
BRANCH   3   4
HETATM    4  C   UNL     1       8.893   0.179  21.455  1.00  0.00     0.254 C 
HETATM    5  O   UNL     1       9.523   1.102  21.053  1.00  0.00    -0.268 OA
HETATM    6  N   UNL     1       7.705  -0.235  21.124  1.00  0.00    -0.323 N 
HETATM    7  C   UNL     1       6.955   0.277  20.149  1.00  0.00     0.053 A 
ATOM      8  HN  UNL     1       7.317  -1.014  21.654  1.00  0.00     0.169 HD
HETATM    9  C   UNL     1       7.028   0.423  18.845  1.00  0.00     0.172 A 
HETATM   10  C   UNL     1       5.655   0.933  20.328  1.00  0.00     0.112 A 
HETATM   11  N   UNL     1       6.667   0.806  17.722  1.00  0.00    -0.387 N 
HETATM   12  C   UNL     1       5.687   1.229  18.279  1.00  0.00     0.206 A 
ATOM     13  HN  UNL     1       7.031   0.776  16.770  1.00  0.00     0.156 HD
HETATM   14  N   UNL     1       5.013   1.393  19.310  1.00  0.00    -0.374 N 
ATOM     15  HN  UNL     1       4.090   1.828  19.345  1.00  0.00     0.161 HD
ENDBRANCH   3   4
BRANCH   1  16
HETATM   16  C   UNL     1       8.981  -3.030  23.662  1.00  0.00    -0.020 C 
BRANCH  16  17
HETATM   17  N   UNL     1       8.477  -4.067  23.671  1.00  0.00    -0.230 N 
ATOM     18  HN  UNL     1       8.943  -4.759  24.256  1.00  0.00     0.191 HD
BRANCH  17  19
HETATM   19  S   UNL     1       7.146  -4.615  22.905  1.00  0.00     0.215 S 
HETATM   20  O   UNL     1       6.663  -3.398  21.894  1.00  0.00    -0.577 OA
HETATM   21  O   UNL     1       7.496  -5.787  22.103  1.00  0.00    -0.577 OA
HETATM   22  O   UNL     1       6.073  -4.869  23.841  1.00  0.00    -0.577 OA
ENDBRANCH  17  19
ENDBRANCH  16  17
ENDBRANCH   1  16
BRANCH   2  23
HETATM   23  C   UNL     1      11.501  -0.552  23.707  1.00  0.00    -0.022 C 
HETATM   24  C   UNL     1      12.184   0.054  24.492  1.00  0.00     0.008 C 
ENDBRANCH   2  23
TORSDOF 5
ENDMDL
MODEL 3
REMARK VINA RESULT:    -6.200      1.998      2.474
REMARK INTER + INTRA:          -8.526
REMARK INTER:                  -8.026
REMARK INTRA:                  -0.500
REMARK UNBOUND:                -0.514
REMARK  5 active torsions:
REMARK  status: ('A' for Active; 'I' for Inactive)
REMARK    1  A    between atoms: S_2  and  N_5 
REMARK    2  A    between atoms: N_5  and  C_7 
REMARK    3  A    between atoms: C_7  and  C_8 
REMARK    4  A    between atoms: C_9  and  C_11 
REMARK    5  A    between atoms: C_12  and  C_13 
REMARK       I    between atoms: C_13  and  N_15 
ROOT
HETATM    1  C   UNL     1       6.244  -5.533  24.875  1.00  0.00     0.030 A 
HETATM    2  C   UNL     1       6.557  -5.777  23.423  1.00  0.00     0.090 A 
HETATM    3  C   UNL     1       6.954  -4.707  24.158  1.00  0.00     0.039 A 
ENDROOT
BRANCH   3   4
HETATM    4  C   UNL     1       7.912  -3.446  24.166  1.00  0.00     0.254 C 
HETATM    5  O   UNL     1       8.070  -2.823  25.164  1.00  0.00    -0.268 OA
HETATM    6  N   UNL     1       8.373  -3.241  22.966  1.00  0.00    -0.323 N 
HETATM    7  C   UNL     1       9.233  -2.283  22.624  1.00  0.00     0.053 A 
ATOM      8  HN  UNL     1       8.048  -3.864  22.227  1.00  0.00     0.169 HD
HETATM    9  C   UNL     1      10.465  -1.936  22.920  1.00  0.00     0.172 A 
HETATM   10  C   UNL     1       8.957  -1.181  21.696  1.00  0.00     0.112 A 
HETATM   11  N   UNL     1      11.485  -1.230  22.896  1.00  0.00    -0.387 N 
HETATM   12  C   UNL     1      10.883  -0.544  22.111  1.00  0.00     0.206 A 
ATOM     13  HN  UNL     1      12.404  -1.231  23.336  1.00  0.00     0.156 HD
HETATM   14  N   UNL     1       9.867  -0.306  21.436  1.00  0.00    -0.374 N 
ATOM     15  HN  UNL     1       9.769   0.466  20.776  1.00  0.00     0.161 HD
ENDBRANCH   3   4
BRANCH   1  16
HETATM   16  C   UNL     1       5.622  -6.099  25.867  1.00  0.00    -0.020 C 
BRANCH  16  17
HETATM   17  N   UNL     1       5.298  -6.380  26.937  1.00  0.00    -0.230 N 
ATOM     18  HN  UNL     1       4.354  -6.762  27.006  1.00  0.00     0.191 HD
BRANCH  17  19
HETATM   19  S   UNL     1       6.089  -6.271  28.358  1.00  0.00     0.215 S 
HETATM   20  O   UNL     1       5.424  -4.984  29.156  1.00  0.00    -0.577 OA
HETATM   21  O   UNL     1       5.854  -7.486  29.139  1.00  0.00    -0.577 OA
HETATM   22  O   UNL     1       7.492  -5.991  28.153  1.00  0.00    -0.577 OA
ENDBRANCH  17  19
ENDBRANCH  16  17
ENDBRANCH   1  16
BRANCH   2  23
HETATM   23  C   UNL     1       5.818  -5.634  22.369  1.00  0.00    -0.022 C 
HETATM   24  C   UNL     1       6.187  -5.664  21.223  1.00  0.00     0.008 C 
ENDBRANCH   2  23
TORSDOF 5
ENDMDL
MODEL 4
REMARK VINA RESULT:    -6.126      4.310      7.765
REMARK INTER + INTRA:          -8.431
REMARK INTER:                  -7.716
REMARK INTRA:                  -0.715
REMARK UNBOUND:                -0.514
REMARK  5 active torsions:
REMARK  status: ('A' for Active; 'I' for Inactive)
REMARK    1  A    between atoms: S_2  and  N_5 
REMARK    2  A    between atoms: N_5  and  C_7 
REMARK    3  A    between atoms: C_7  and  C_8 
REMARK    4  A    between atoms: C_9  and  C_11 
REMARK    5  A    between atoms: C_12  and  C_13 
REMARK       I    between atoms: C_13  and  N_15 
ROOT
HETATM    1  C   UNL     1       8.439  -0.310  21.257  1.00  0.00     0.030 A 
HETATM    2  C   UNL     1       9.718  -0.250  22.047  1.00  0.00     0.090 A 
HETATM    3  C   UNL     1       8.740  -1.182  22.179  1.00  0.00     0.039 A 
ENDROOT
BRANCH   3   4
HETATM    4  C   UNL     1       8.384  -2.578  22.837  1.00  0.00     0.254 C 
HETATM    5  O   UNL     1       9.091  -3.041  23.672  1.00  0.00    -0.268 OA
HETATM    6  N   UNL     1       7.316  -3.064  22.277  1.00  0.00    -0.323 N 
HETATM    7  C   UNL     1       6.722  -4.208  22.614  1.00  0.00     0.053 A 
ATOM      8  HN  UNL     1       6.899  -2.526  21.518  1.00  0.00     0.169 HD
HETATM    9  C   UNL     1       6.134  -4.720  23.672  1.00  0.00     0.172 A 
HETATM   10  C   UNL     1       6.576  -5.382  21.746  1.00  0.00     0.112 A 
HETATM   11  N   UNL     1       5.576  -5.595  24.351  1.00  0.00    -0.387 N 
HETATM   12  C   UNL     1       5.652  -6.282  23.365  1.00  0.00     0.206 A 
ATOM     13  HN  UNL     1       5.219  -5.689  25.301  1.00  0.00     0.156 HD
HETATM   14  N   UNL     1       5.980  -6.440  22.177  1.00  0.00    -0.374 N 
ATOM     15  HN  UNL     1       5.805  -7.281  21.627  1.00  0.00     0.161 HD
ENDBRANCH   3   4
BRANCH   1  16
HETATM   16  C   UNL     1       7.829   0.327  20.301  1.00  0.00    -0.020 C 
BRANCH  16  17
HETATM   17  N   UNL     1       7.070   0.594  19.474  1.00  0.00    -0.230 N 
ATOM     18  HN  UNL     1       7.319   1.414  18.921  1.00  0.00     0.191 HD
BRANCH  17  19
HETATM   19  S   UNL     1       5.668  -0.115  19.040  1.00  0.00     0.215 S 
HETATM   20  O   UNL     1       5.559  -1.503  19.934  1.00  0.00    -0.577 OA
HETATM   21  O   UNL     1       4.551   0.764  19.391  1.00  0.00    -0.577 OA
HETATM   22  O   UNL     1       5.681  -0.484  17.643  1.00  0.00    -0.577 OA
ENDBRANCH  17  19
ENDBRANCH  16  17
ENDBRANCH   1  16
BRANCH   2  23
HETATM   23  C   UNL     1      10.059   0.514  23.036  1.00  0.00    -0.022 C 
HETATM   24  C   UNL     1      11.180   0.774  23.389  1.00  0.00     0.008 C 
ENDBRANCH   2  23
TORSDOF 5
ENDMDL
MODEL 5
REMARK VINA RESULT:    -6.093      4.034      7.424
REMARK INTER + INTRA:          -8.388
REMARK INTER:                  -7.965
REMARK INTRA:                  -0.423
REMARK UNBOUND:                -0.514
REMARK  5 active torsions:
REMARK  status: ('A' for Active; 'I' for Inactive)
REMARK    1  A    between atoms: S_2  and  N_5 
REMARK    2  A    between atoms: N_5  and  C_7 
REMARK    3  A    between atoms: C_7  and  C_8 
REMARK    4  A    between atoms: C_9  and  C_11 
REMARK    5  A    between atoms: C_12  and  C_13 
REMARK       I    between atoms: C_13  and  N_15 
ROOT
HETATM    1  C   UNL     1       7.605  -1.959  22.072  1.00  0.00     0.030 A 
HETATM    2  C   UNL     1       9.070  -2.209  22.309  1.00  0.00     0.090 A 
HETATM    3  C   UNL     1       8.041  -2.822  22.947  1.00  0.00     0.039 A 
ENDROOT
BRANCH   3   4
HETATM    4  C   UNL     1       7.667  -4.021  23.913  1.00  0.00     0.254 C 
HETATM    5  O   UNL     1       7.603  -5.129  23.490  1.00  0.00    -0.268 OA
HETATM    6  N   UNL     1       7.416  -3.560  25.103  1.00  0.00    -0.323 N 
HETATM    7  C   UNL     1       7.103  -4.300  26.165  1.00  0.00     0.053 A 
ATOM      8  HN  UNL     1       7.462  -2.550  25.233  1.00  0.00     0.169 HD
HETATM    9  C   UNL     1       7.663  -5.244  26.888  1.00  0.00     0.172 A 
HETATM   10  C   UNL     1       5.832  -4.249  26.896  1.00  0.00     0.112 A 
HETATM   11  N   UNL     1       7.730  -6.108  27.776  1.00  0.00    -0.387 N 
HETATM   12  C   UNL     1       6.620  -5.753  28.081  1.00  0.00     0.206 A 
ATOM     13  HN  UNL     1       8.409  -6.797  28.098  1.00  0.00     0.156 HD
HETATM   14  N   UNL     1       5.636  -5.013  27.915  1.00  0.00    -0.374 N 
ATOM     15  HN  UNL     1       4.798  -5.012  28.498  1.00  0.00     0.161 HD
ENDBRANCH   3   4
BRANCH   1  16
HETATM   16  C   UNL     1       6.828  -1.237  21.320  1.00  0.00    -0.020 C 
BRANCH  16  17
HETATM   17  N   UNL     1       6.312  -0.327  20.836  1.00  0.00    -0.230 N 
ATOM     18  HN  UNL     1       5.731   0.219  21.473  1.00  0.00     0.191 HD
BRANCH  17  19
HETATM   19  S   UNL     1       6.351   0.237  19.307  1.00  0.00     0.215 S 
HETATM   20  O   UNL     1       5.748  -0.974  18.356  1.00  0.00    -0.577 OA
HETATM   21  O   UNL     1       5.476   1.405  19.198  1.00  0.00    -0.577 OA
HETATM   22  O   UNL     1       7.707   0.503  18.883  1.00  0.00    -0.577 OA
ENDBRANCH  17  19
ENDBRANCH  16  17
ENDBRANCH   1  16
BRANCH   2  23
HETATM   23  C   UNL     1       9.947  -1.512  22.959  1.00  0.00    -0.022 C 
HETATM   24  C   UNL     1      11.126  -1.443  22.726  1.00  0.00     0.008 C 
ENDBRANCH   2  23
TORSDOF 5
ENDMDL
MODEL 6
REMARK VINA RESULT:    -6.073      3.670      7.612
REMARK INTER + INTRA:          -8.362
REMARK INTER:                  -7.878
REMARK INTRA:                  -0.484
REMARK UNBOUND:                -0.514
REMARK  5 active torsions:
REMARK  status: ('A' for Active; 'I' for Inactive)
REMARK    1  A    between atoms: S_2  and  N_5 
REMARK    2  A    between atoms: N_5  and  C_7 
REMARK    3  A    between atoms: C_7  and  C_8 
REMARK    4  A    between atoms: C_9  and  C_11 
REMARK    5  A    between atoms: C_12  and  C_13 
REMARK       I    between atoms: C_13  and  N_15 
ROOT
HETATM    1  C   UNL     1       9.119  -2.148  23.116  1.00  0.00     0.030 A 
HETATM    2  C   UNL     1       9.488  -1.887  24.552  1.00  0.00     0.090 A 
HETATM    3  C   UNL     1       8.733  -2.919  24.095  1.00  0.00     0.039 A 
ENDROOT
BRANCH   3   4
HETATM    4  C   UNL     1       8.080  -4.304  24.501  1.00  0.00     0.254 C 
HETATM    5  O   UNL     1       8.760  -5.185  24.913  1.00  0.00    -0.268 OA
HETATM    6  N   UNL     1       6.804  -4.275  24.248  1.00  0.00    -0.323 N 
HETATM    7  C   UNL     1       5.946  -5.262  24.501  1.00  0.00     0.053 A 
ATOM      8  HN  UNL     1       6.431  -3.427  23.822  1.00  0.00     0.169 HD
HETATM    9  C   UNL     1       5.501  -5.914  25.551  1.00  0.00     0.172 A 
HETATM   10  C   UNL     1       5.178  -6.002  23.494  1.00  0.00     0.112 A 
HETATM   11  N   UNL     1       4.856  -6.779  26.164  1.00  0.00    -0.387 N 
HETATM   12  C   UNL     1       4.432  -7.100  25.084  1.00  0.00     0.206 A 
ATOM     13  HN  UNL     1       4.740  -7.078  27.131  1.00  0.00     0.156 HD
HETATM   14  N   UNL     1       4.373  -6.943  23.852  1.00  0.00    -0.374 N 
ATOM     15  HN  UNL     1       3.776  -7.478  23.220  1.00  0.00     0.161 HD
ENDBRANCH   3   4
BRANCH   1  16
HETATM   16  C   UNL     1       9.316  -1.649  21.932  1.00  0.00    -0.020 C 
BRANCH  16  17
HETATM   17  N   UNL     1       9.247  -0.961  21.009  1.00  0.00    -0.230 N 
ATOM     18  HN  UNL     1      10.000  -1.082  20.332  1.00  0.00     0.191 HD
BRANCH  17  19
HETATM   19  S   UNL     1       8.149   0.174  20.602  1.00  0.00     0.215 S 
HETATM   20  O   UNL     1       8.042   0.137  18.952  1.00  0.00    -0.577 OA
HETATM   21  O   UNL     1       6.849  -0.182  21.170  1.00  0.00    -0.577 OA
HETATM   22  O   UNL     1       8.595   1.493  20.989  1.00  0.00    -0.577 OA
ENDBRANCH  17  19
ENDBRANCH  16  17
ENDBRANCH   1  16
BRANCH   2  23
HETATM   23  C   UNL     1       9.015  -1.028  25.398  1.00  0.00    -0.022 C 
HETATM   24  C   UNL     1       8.642  -1.256  26.520  1.00  0.00     0.008 C 
ENDBRANCH   2  23
TORSDOF 5
ENDMDL
MODEL 7
REMARK VINA RESULT:    -5.870     24.949     27.450
REMARK INTER + INTRA:          -8.100
REMARK INTER:                  -7.600
REMARK INTRA:                  -0.500
REMARK UNBOUND:                -0.514
REMARK  5 active torsions:
REMARK  status: ('A' for Active; 'I' for Inactive)
REMARK    1  A    between atoms: S_2  and  N_5 
REMARK    2  A    between atoms: N_5  and  C_7 
REMARK    3  A    between atoms: C_7  and  C_8 
REMARK    4  A    between atoms: C_9  and  C_11 
REMARK    5  A    between atoms: C_12  and  C_13 
REMARK       I    between atoms: C_13  and  N_15 
ROOT
HETATM    1  C   UNL     1       5.944  12.482   1.704  1.00  0.00     0.030 A 
HETATM    2  C   UNL     1       4.673  12.671   2.487  1.00  0.00     0.090 A 
HETATM    3  C   UNL     1       5.221  11.483   2.125  1.00  0.00     0.039 A 
ENDROOT
BRANCH   3   4
HETATM    4  C   UNL     1       5.144   9.917   2.353  1.00  0.00     0.254 C 
HETATM    5  O   UNL     1       5.545   9.173   1.519  1.00  0.00    -0.268 OA
HETATM    6  N   UNL     1       4.557   9.670   3.487  1.00  0.00    -0.323 N 
HETATM    7  C   UNL     1       4.358   8.458   4.004  1.00  0.00     0.053 A 
ATOM      8  HN  UNL     1       4.221  10.469   4.024  1.00  0.00     0.169 HD
HETATM    9  C   UNL     1       5.090   7.447   4.413  1.00  0.00     0.172 A 
HETATM   10  C   UNL     1       3.050   7.846   4.263  1.00  0.00     0.112 A 
HETATM   11  N   UNL     1       5.313   6.307   4.847  1.00  0.00    -0.387 N 
HETATM   12  C   UNL     1       4.116   6.194   4.912  1.00  0.00     0.206 A 
ATOM     13  HN  UNL     1       6.130   5.732   5.052  1.00  0.00     0.156 HD
HETATM   14  N   UNL     1       2.974   6.662   4.768  1.00  0.00    -0.374 N 
ATOM     15  HN  UNL     1       2.108   6.183   5.012  1.00  0.00     0.161 HD
ENDBRANCH   3   4
BRANCH   1  16
HETATM   16  C   UNL     1       6.891  13.188   1.159  1.00  0.00    -0.020 C 
BRANCH  16  17
HETATM   17  N   UNL     1       7.872  13.778   1.015  1.00  0.00    -0.230 N 
ATOM     18  HN  UNL     1       8.264  13.724   0.075  1.00  0.00     0.191 HD
BRANCH  17  19
HETATM   19  S   UNL     1       8.739  14.681   2.059  1.00  0.00     0.215 S 
HETATM   20  O   UNL     1       7.669  15.737   2.750  1.00  0.00    -0.577 OA
HETATM   21  O   UNL     1       9.295  13.819   3.101  1.00  0.00    -0.577 OA
HETATM   22  O   UNL     1       9.745  15.456   1.367  1.00  0.00    -0.577 OA
ENDBRANCH  17  19
ENDBRANCH  16  17
ENDBRANCH   1  16
BRANCH   2  23
HETATM   23  C   UNL     1       3.488  13.015   2.095  1.00  0.00    -0.022 C 
HETATM   24  C   UNL     1       2.610  13.472   2.780  1.00  0.00     0.008 C 
ENDBRANCH   2  23
TORSDOF 5
ENDMDL
MODEL 8
REMARK VINA RESULT:    -5.831      3.243      7.196
REMARK INTER + INTRA:          -8.050
REMARK INTER:                  -7.636
REMARK INTRA:                  -0.414
REMARK UNBOUND:                -0.514
REMARK  5 active torsions:
REMARK  status: ('A' for Active; 'I' for Inactive)
REMARK    1  A    between atoms: S_2  and  N_5 
REMARK    2  A    between atoms: N_5  and  C_7 
REMARK    3  A    between atoms: C_7  and  C_8 
REMARK    4  A    between atoms: C_9  and  C_11 
REMARK    5  A    between atoms: C_12  and  C_13 
REMARK       I    between atoms: C_13  and  N_15 
ROOT
HETATM    1  C   UNL     1       8.272  -3.713  23.659  1.00  0.00     0.030 A 
HETATM    2  C   UNL     1       7.147  -4.612  23.222  1.00  0.00     0.090 A 
HETATM    3  C   UNL     1       7.748  -4.616  24.440  1.00  0.00     0.039 A 
ENDROOT
BRANCH   3   4
HETATM    4  C   UNL     1       7.639  -5.177  25.917  1.00  0.00     0.254 C 
HETATM    5  O   UNL     1       8.622  -5.394  26.546  1.00  0.00    -0.268 OA
HETATM    6  N   UNL     1       6.389  -5.379  26.216  1.00  0.00    -0.323 N 
HETATM    7  C   UNL     1       5.938  -5.815  27.391  1.00  0.00     0.053 A 
ATOM      8  HN  UNL     1       5.698  -5.189  25.491  1.00  0.00     0.169 HD
HETATM    9  C   UNL     1       5.944  -5.411  28.642  1.00  0.00     0.172 A 
HETATM   10  C   UNL     1       5.226  -7.077  27.617  1.00  0.00     0.112 A 
HETATM   11  N   UNL     1       5.734  -5.486  29.862  1.00  0.00    -0.387 N 
HETATM   12  C   UNL     1       5.201  -6.537  29.615  1.00  0.00     0.206 A 
ATOM     13  HN  UNL     1       5.924  -4.920  30.688  1.00  0.00     0.156 HD
HETATM   14  N   UNL     1       4.833  -7.401  28.801  1.00  0.00    -0.374 N 
ATOM     15  HN  UNL     1       4.301  -8.239  29.035  1.00  0.00     0.161 HD
ENDBRANCH   3   4
BRANCH   1  16
HETATM   16  C   UNL     1       9.003  -2.739  23.202  1.00  0.00    -0.020 C 
BRANCH  16  17
HETATM   17  N   UNL     1       9.832  -2.161  22.648  1.00  0.00    -0.230 N 
ATOM     18  HN  UNL     1      10.170  -2.614  21.799  1.00  0.00     0.191 HD
BRANCH  17  19
HETATM   19  S   UNL     1      10.558  -0.742  22.991  1.00  0.00     0.215 S 
HETATM   20  O   UNL     1      12.111  -1.113  23.421  1.00  0.00    -0.577 OA
HETATM   21  O   UNL     1      10.585   0.092  21.789  1.00  0.00    -0.577 OA
HETATM   22  O   UNL     1       9.927  -0.092  24.117  1.00  0.00    -0.577 OA
ENDBRANCH  17  19
ENDBRANCH  16  17
ENDBRANCH   1  16
BRANCH   2  23
HETATM   23  C   UNL     1       7.156  -5.661  22.462  1.00  0.00    -0.022 C 
HETATM   24  C   UNL     1       6.371  -5.920  21.587  1.00  0.00     0.008 C 
ENDBRANCH   2  23
TORSDOF 5
ENDMDL
MODEL 9
REMARK VINA RESULT:    -5.816      4.071      7.144
REMARK INTER + INTRA:          -8.030
REMARK INTER:                  -7.480
REMARK INTRA:                  -0.551
REMARK UNBOUND:                -0.514
REMARK  5 active torsions:
REMARK  status: ('A' for Active; 'I' for Inactive)
REMARK    1  A    between atoms: S_2  and  N_5 
REMARK    2  A    between atoms: N_5  and  C_7 
REMARK    3  A    between atoms: C_7  and  C_8 
REMARK    4  A    between atoms: C_9  and  C_11 
REMARK    5  A    between atoms: C_12  and  C_13 
REMARK       I    between atoms: C_13  and  N_15 
ROOT
HETATM    1  C   UNL     1       9.149  -1.393  22.395  1.00  0.00     0.030 A 
HETATM    2  C   UNL     1       8.221  -0.467  21.655  1.00  0.00     0.090 A 
HETATM    3  C   UNL     1       7.932  -1.728  22.066  1.00  0.00     0.039 A 
ENDROOT
BRANCH   3   4
HETATM    4  C   UNL     1       6.757  -2.772  22.258  1.00  0.00     0.254 C 
HETATM    5  O   UNL     1       5.828  -2.768  21.519  1.00  0.00    -0.268 OA
HETATM    6  N   UNL     1       6.986  -3.496  23.315  1.00  0.00    -0.323 N 
HETATM    7  C   UNL     1       6.215  -4.493  23.747  1.00  0.00     0.053 A 
ATOM      8  HN  UNL     1       7.823  -3.283  23.856  1.00  0.00     0.169 HD
HETATM    9  C   UNL     1       5.801  -5.659  23.307  1.00  0.00     0.172 A 
HETATM   10  C   UNL     1       5.501  -4.524  25.029  1.00  0.00     0.112 A 
HETATM   11  N   UNL     1       5.158  -6.720  23.328  1.00  0.00    -0.387 N 
HETATM   12  C   UNL     1       4.779  -6.365  24.414  1.00  0.00     0.206 A 
ATOM     13  HN  UNL     1       5.016  -7.519  22.711  1.00  0.00     0.156 HD
HETATM   14  N   UNL     1       4.780  -5.544  25.347  1.00  0.00    -0.374 N 
ATOM     15  HN  UNL     1       4.284  -5.660  26.231  1.00  0.00     0.161 HD
ENDBRANCH   3   4
BRANCH   1  16
HETATM   16  C   UNL     1      10.353  -1.411  22.885  1.00  0.00    -0.020 C 
BRANCH  16  17
HETATM   17  N   UNL     1      11.395  -1.069  23.240  1.00  0.00    -0.230 N 
ATOM     18  HN  UNL     1      12.170  -1.620  22.871  1.00  0.00     0.191 HD
BRANCH  17  19
HETATM   19  S   UNL     1      11.842   0.146  24.231  1.00  0.00     0.215 S 
HETATM   20  O   UNL     1      10.744   0.156  25.468  1.00  0.00    -0.577 OA
HETATM   21  O   UNL     1      13.169  -0.136  24.778  1.00  0.00    -0.577 OA
HETATM   22  O   UNL     1      11.766   1.423  23.558  1.00  0.00    -0.577 OA
ENDBRANCH  17  19
ENDBRANCH  16  17
ENDBRANCH   1  16
BRANCH   2  23
HETATM   23  C   UNL     1       8.183  -0.141  20.402  1.00  0.00    -0.022 C 
HETATM   24  C   UNL     1       7.234   0.292  19.801  1.00  0.00     0.008 C 
ENDBRANCH   2  23
TORSDOF 5
ENDMDL
