REMARK  3 active torsions:
REMARK  status: ('A' for Active; 'I' for Inactive)
REMARK    1  A    between atoms: C_2  and  N_7 
REMARK    2  A    between atoms: C_2  and  C_5 
REMARK    3  A    between atoms: O_4  and  C_5 
ROOT
HETATM    1  N   UNL     1       7.025  -1.095  21.418  1.00  0.00    -0.411 N 
ATOM      2  HN  UNL     1       6.818  -1.467  22.345  1.00  0.00     0.155 HD
HETATM    3  H   UNL     1       7.617  -1.544  20.737  1.00  0.00     0.155 HD
HETATM    4  C   UNL     1       6.127   0.280  19.547  1.00  0.00     0.054 C 
HETATM    5  C   UNL     1       6.562   0.028  20.947  1.00  0.00     0.048 C 
ENDROOT
TORSDOF 3
