stable:False satoms:19 tatoms:24 sratio:0.7916666666666666
  -OEChem-07092417303D

 24 23  0     1  0  0  0  0  0999 V2000
    7.5484   -1.5332   23.5217 H   0  0  0  0  0  0  0  0  0  0  0  0
    8.9683   -0.4026   22.4466 C   0  0  0  0  0  0  0  0  0  0  0  0
    9.3942   -4.4600   24.7465 H   0  0  0  0  0  0  0  0  0  0  0  0
    7.7721   -0.8289   22.8185 N   0  0  0  0  0  0  0  0  0  0  0  0
    6.3468   -1.9215   21.5540 O   0  0  0  0  0  0  0  0  0  0  0  0
    9.5327   -3.1235   23.1388 C   0  0  0  0  0  0  0  0  0  0  0  0
   10.2064   -0.7952   22.8923 C   0  0  0  0  0  0  0  0  0  0  0  0
   12.5365   -2.3108   23.7989 H   0  0  0  0  0  0  0  0  0  0  0  0
   11.5509   -2.7352   25.1869 H   0  0  0  0  0  0  0  0  0  0  0  0
   11.0517   -0.1159   22.7725 H   0  0  0  0  0  0  0  0  0  0  0  0
   11.8486   -1.0461   24.7873 H   0  0  0  0  0  0  0  0  0  0  0  0
   11.6555   -2.0380   24.3688 C   0  0  0  0  0  0  0  0  0  0  0  0
    9.5589   -4.1947   23.8064 N   0  5  0  0  0  0  0  0  0  0  0  0
   10.4513   -2.0015   23.4814 C   0  0  3  0  0  0  0  0  0  0  0  0
    7.3248    0.2287   19.8838 H   0  0  0  0  0  0  0  0  0  0  0  0
    7.5704    1.8470   21.5872 H   0  0  0  0  0  0  0  0  0  0  0  0
    6.6589    1.5815   21.2919 N   0  0  0  0  0  0  0  0  0  0  0  0
    5.5953    0.1135   20.2655 H   0  0  0  0  0  0  0  0  0  0  0  0
    6.8080   -2.6769   21.8490 H   0  0  0  0  0  0  0  0  0  0  0  0
    8.7936   -2.9967   22.0801 O   0  0  0  0  0  0  0  0  0  0  0  0
    6.5933    0.3009   20.6877 C   0  0  0  0  0  0  0  0  0  0  0  0
    8.9483    0.3184   21.6167 H   0  0  0  0  0  0  0  0  0  0  0  0
    6.0079    2.2848   21.0132 H   0  0  0  0  0  0  0  0  0  0  0  0
    6.8615   -0.7843   21.7008 C   0  0  3  0  0  0  0  0  0  0  0  0
 15 21  1  0  0  0  0
 18 21  1  0  0  0  0
 17 21  1  0  0  0  0
 21 24  1  0  0  0  0
 17 23  1  0  0  0  0
 16 17  1  0  0  0  0
  5 24  1  0  0  0  0
  5 19  1  0  0  0  0
  2 22  1  0  0  0  0
  4 24  1  0  0  0  0
  6 20  2  0  0  0  0
  2  4  1  0  0  0  0
  2  7  2  0  0  0  0
  7 10  1  0  0  0  0
  1  4  1  0  0  0  0
  7 14  1  0  0  0  0
  6 14  1  0  0  0  0
  6 13  1  0  0  0  0
 12 14  1  0  0  0  0
  8 12  1  0  0  0  0
  3 13  1  0  0  0  0
 11 12  1  0  0  0  0
  9 12  1  0  0  0  0
M  CHG  1  13  -1
M  END
> <Shapegauss>
-99.278488

$$$$
