stable:False satoms:19 tatoms:24 sratio:0.7916666666666666
  -OEChem-08052421413D

 28 27  0     1  0  0  0  0  0999 V2000
  -10.5887   -0.8000  -20.7394 H   0  0  0  0  0  0  0  0  0  0  0  0
  -10.3227   -1.2200  -22.5778 C   0  0  0  0  0  0  0  0  0  0  0  0
  -11.7915    3.1318  -23.5596 H   0  0  0  0  0  0  0  0  0  0  0  0
  -10.1598   -0.4021  -21.5504 N   0  3  0  0  0  0  0  0  0  0  0  0
   -8.5168    1.0337  -21.2989 O   0  0  0  0  0  0  0  0  0  0  0  0
  -11.4883    1.1919  -23.5904 C   0  0  0  0  0  0  0  0  0  0  0  0
  -11.3186   -1.2376  -23.5231 C   0  0  0  0  0  0  0  0  0  0  0  0
  -13.3380   -0.5356  -25.5175 H   0  0  0  0  0  0  0  0  0  0  0  0
  -14.1699    0.2638  -24.1958 H   0  0  0  0  0  0  0  0  0  0  0  0
  -11.5191   -2.1641  -24.0632 H   0  0  0  0  0  0  0  0  0  0  0  0
  -13.7651   -1.4469  -24.0904 H   0  0  0  0  0  0  0  0  0  0  0  0
  -13.4159   -0.4704  -24.4381 C   0  0  0  0  0  0  0  0  0  0  0  0
  -12.2089    2.2271  -23.6446 N   0  0  0  0  0  0  0  0  0  0  0  0
  -12.0830   -0.1518  -23.8376 C   0  0  3  0  0  0  0  0  0  0  0  0
   -7.2424   -1.4035  -22.1965 H   0  0  0  0  0  0  0  0  0  0  0  0
   -8.3701   -2.1756  -19.6447 H   0  0  0  0  0  0  0  0  0  0  0  0
   -8.0416   -2.3831  -20.5661 N   0  0  0  0  0  0  0  0  0  0  0  0
   -6.8137   -0.7013  -20.6238 H   0  0  0  0  0  0  0  0  0  0  0  0
   -9.0687    1.6076  -21.7850 H   0  0  0  0  0  0  0  0  0  0  0  0
  -10.2034    1.2622  -23.4256 O   0  0  0  0  0  0  0  0  0  0  0  0
   -7.6170   -1.1868  -21.1968 C   0  0  0  0  0  0  0  0  0  0  0  0
   -9.4995   -1.9359  -22.7148 H   0  0  0  0  0  0  0  0  0  0  0  0
   -7.2740   -3.0216  -20.5103 H   0  0  0  0  0  0  0  0  0  0  0  0
   -8.7543   -0.2005  -21.2967 C   0  0  3  0  0  0  0  0  0  0  0  0
  -13.1971    2.1424  -23.7725 H   0  0  0  0  0  0  0  0  0  0  0  0
  -12.5238   -0.1546  -22.8297 H   0  0  0  0  0  0  0  0  0  0  0  0
   -8.9097   -0.2134  -20.2079 H   0  0  0  0  0  0  0  0  0  0  0  0
  -10.5883    0.4776  -21.7565 H   0  0  0  0  0  0  0  0  0  0  0  0
 15 21  1  0  0  0  0
 18 21  1  0  0  0  0
 17 21  1  0  0  0  0
 21 24  1  0  0  0  0
 17 23  1  0  0  0  0
 16 17  1  0  0  0  0
  5 24  1  0  0  0  0
  5 19  1  0  0  0  0
  2 22  1  0  0  0  0
  4 24  1  0  0  0  0
  6 20  2  0  0  0  0
  2  4  1  0  0  0  0
  2  7  2  0  0  0  0
  7 10  1  0  0  0  0
  1  4  1  0  0  0  0
  7 14  1  0  0  0  0
  6 14  1  0  0  0  0
  6 13  1  0  0  0  0
 12 14  1  0  0  0  0
  8 12  1  0  0  0  0
  3 13  1  0  0  0  0
 11 12  1  0  0  0  0
  9 12  1  0  0  0  0
 13 25  1  0  0  0  0
 14 26  1  0  0  0  0
 24 27  1  0  0  0  0
  4 28  1  0  0  0  0
M  CHG  1   4   1
M  END
> <Chemgauss4>
-6.204462

$$$$
