stable:False satoms:19 tatoms:24 sratio:0.7916666666666666
  -OEChem-08052421423D

 28 27  0     1  0  0  0  0  0999 V2000
   10.7460   -1.0054   20.7737 H   0  0  0  0  0  0  0  0  0  0  0  0
   10.4583   -1.3713   22.6203 C   0  0  0  0  0  0  0  0  0  0  0  0
   11.6982    3.0781   23.4713 H   0  0  0  0  0  0  0  0  0  0  0  0
   10.2805   -0.5996   21.5602 N   0  3  0  0  0  0  0  0  0  0  0  0
    8.5780    0.7460   21.2213 O   0  0  0  0  0  0  0  0  0  0  0  0
   11.4859    1.1283   23.5674 C   0  0  0  0  0  0  0  0  0  0  0  0
   11.4321   -1.3074   23.5864 C   0  0  0  0  0  0  0  0  0  0  0  0
   13.3704   -0.4385   25.5955 H   0  0  0  0  0  0  0  0  0  0  0  0
   14.1937    0.3517   24.2630 H   0  0  0  0  0  0  0  0  0  0  0  0
   11.6636   -2.2033   24.1644 H   0  0  0  0  0  0  0  0  0  0  0  0
   13.8722   -1.3790   24.2123 H   0  0  0  0  0  0  0  0  0  0  0  0
   13.4697   -0.4085   24.5164 C   0  0  0  0  0  0  0  0  0  0  0  0
   12.1556    2.1980   23.5985 N   0  0  0  0  0  0  0  0  0  0  0  0
   12.1373   -0.1757   23.8765 C   0  0  3  0  0  0  0  0  0  0  0  0
    7.3995   -1.7155   22.1813 H   0  0  0  0  0  0  0  0  0  0  0  0
    8.6200   -2.5239   19.6841 H   0  0  0  0  0  0  0  0  0  0  0  0
    8.2807   -2.7136   20.6055 N   0  0  0  0  0  0  0  0  0  0  0  0
    6.9741   -1.0914   20.5751 H   0  0  0  0  0  0  0  0  0  0  0  0
    9.0911    1.3628   21.6974 H   0  0  0  0  0  0  0  0  0  0  0  0
   10.2032    1.1311   23.3731 O   0  0  0  0  0  0  0  0  0  0  0  0
    7.7861   -1.5171   21.1824 C   0  0  0  0  0  0  0  0  0  0  0  0
    9.6668   -2.1204   22.7663 H   0  0  0  0  0  0  0  0  0  0  0  0
    7.5455   -3.3897   20.5571 H   0  0  0  0  0  0  0  0  0  0  0  0
    8.8732   -0.4747   21.2698 C   0  0  3  0  0  0  0  0  0  0  0  0
   13.1435    2.1653   23.7501 H   0  0  0  0  0  0  0  0  0  0  0  0
   12.6005   -0.1937   22.8790 H   0  0  0  0  0  0  0  0  0  0  0  0
    9.0538   -0.5192   20.1856 H   0  0  0  0  0  0  0  0  0  0  0  0
   10.6625    0.3064   21.7427 H   0  0  0  0  0  0  0  0  0  0  0  0
 15 21  1  0  0  0  0
 18 21  1  0  0  0  0
 17 21  1  0  0  0  0
 21 24  1  0  0  0  0
 17 23  1  0  0  0  0
 16 17  1  0  0  0  0
  5 24  1  0  0  0  0
  5 19  1  0  0  0  0
  2 22  1  0  0  0  0
  4 24  1  0  0  0  0
  6 20  2  0  0  0  0
  2  4  1  0  0  0  0
  2  7  2  0  0  0  0
  7 10  1  0  0  0  0
  1  4  1  0  0  0  0
  7 14  1  0  0  0  0
  6 14  1  0  0  0  0
  6 13  1  0  0  0  0
 12 14  1  0  0  0  0
  8 12  1  0  0  0  0
  3 13  1  0  0  0  0
 11 12  1  0  0  0  0
  9 12  1  0  0  0  0
 13 25  1  0  0  0  0
 14 26  1  0  0  0  0
 24 27  1  0  0  0  0
  4 28  1  0  0  0  0
M  CHG  1   4   1
M  END
> <Chemgauss4>
-6.095600

$$$$
