stable:False satoms:6 tatoms:24 sratio:0.25
  -OEChem-07092417503D

 24 26  0     1  0  0  0  0  0999 V2000
    6.5873   -4.8571   26.4652 C   0  0  0  0  0  0  0  0  0  0  0  0
    8.2257   -4.2779   26.1090 S   0  0  0  0  0  0  0  0  0  0  0  0
    9.0583   -5.4539   26.0976 O   0  0  0  0  0  0  0  0  0  0  0  0
    8.5886   -3.3827   27.1496 O   0  0  0  0  0  0  0  0  0  0  0  0
    8.1282   -3.5542   24.6700 N   0  0  0  0  0  0  0  0  0  0  0  0
    8.9791   -2.9300   24.1290 C   0  0  0  0  0  0  0  0  0  0  0  0
    9.4274   -2.0004   23.4754 C   0  0  0  0  0  0  0  0  0  0  0  0
   10.3506   -1.1879   23.2260 C   0  0  1  0  0  0  0  0  0  0  0  0
   11.0636    0.0006   24.2974 C   0  0  0  0  0  0  0  0  0  0  0  0
   12.0338    0.2976   24.2616 C   0  0  0  0  0  0  0  0  0  0  0  0
   13.1766   -0.1705   23.4027 C   0  0  0  0  0  0  0  0  0  0  0  0
   12.7516   -1.2315   22.6331 C   0  0  0  0  0  0  0  0  0  0  0  0
   11.7947   -1.7467   22.5059 C   0  0  0  0  0  0  0  0  0  0  0  0
    9.7322   -0.6071   22.3676 C   0  0  1  0  0  0  0  0  0  0  0  0
    9.0656    0.0441   21.3975 C   0  0  0  0  0  0  0  0  0  0  0  0
    9.5822    0.9738   21.0265 O   0  0  0  0  0  0  0  0  0  0  0  0
    7.9302   -0.5348   21.0603 N   0  0  0  0  0  0  0  0  0  0  0  0
    7.1839   -0.0857   20.1718 C   0  0  0  0  0  0  0  0  0  0  0  0
    7.2129   -0.0226   18.8636 C   0  0  0  0  0  0  0  0  0  0  0  0
    6.7172    0.2665   17.7797 N   0  0  0  0  0  0  0  0  0  0  0  0
    5.6358    0.8500   18.2567 C   0  0  0  0  0  0  0  0  0  0  0  0
    5.2471    0.9809   19.4286 C   0  0  0  0  0  0  0  0  0  0  0  0
    5.8045    0.6017   20.5586 C   0  0  0  0  0  0  0  0  0  0  0  0
    5.3071    0.7376   21.9629 C   0  0  0  0  0  0  0  0  0  0  0  0
 20 21  2  0  0  0  0
 19 20  1  0  0  0  0
 21 22  1  0  0  0  0
 18 19  2  0  0  0  0
 22 23  2  0  0  0  0
 18 23  1  0  0  0  0
 17 18  1  0  0  0  0
 23 24  1  0  0  0  0
 15 16  2  0  0  0  0
 15 17  1  0  0  0  0
 14 15  1  0  0  0  0
  8 14  1  0  0  0  0
  7 14  1  0  0  0  0
 12 13  1  0  0  0  0
  8 13  1  0  0  0  0
 11 12  2  0  0  0  0
  7  8  1  0  0  0  0
  8  9  1  0  0  0  0
 10 11  1  0  0  0  0
  6  7  2  0  0  0  0
  5  6  1  0  0  0  0
  9 10  2  0  0  0  0
  2  5  1  0  0  0  0
  2  3  2  0  0  0  0
  1  2  1  0  0  0  0
  2  4  2  0  0  0  0
M  END
> <Shapegauss>
-286.756958

$$$$
