stable:False satoms:6 tatoms:24 sratio:0.25
  -OEChem-08062417253D

 43 45  0     1  0  0  0  0  0999 V2000
    6.3952   -5.0484   26.2550 C   0  0  0  0  0  0  0  0  0  0  0  0
    8.0406   -4.4224   26.0374 S   0  0  0  0  0  0  0  0  0  0  0  0
    8.8979   -5.5806   26.0308 O   0  0  0  0  0  0  0  0  0  0  0  0
    8.3128   -3.5690   27.1390 O   0  0  0  0  0  0  0  0  0  0  0  0
    8.0242   -3.6357   24.6286 N   0  0  0  0  0  0  0  0  0  0  0  0
    8.8956   -2.9713   24.1752 C   0  0  0  0  0  0  0  0  0  0  0  0
    9.3662   -2.0044   23.5955 C   0  0  0  0  0  0  0  0  0  0  0  0
   10.2859   -1.1639   23.4460 C   0  0  1  0  0  0  0  0  0  0  0  0
   10.8987   -0.0122   24.6151 C   0  0  0  0  0  0  0  0  0  0  0  0
   11.8623    0.3045   24.6588 C   0  0  0  0  0  0  0  0  0  0  0  0
   13.0704   -0.1019   23.8600 C   0  0  0  0  0  0  0  0  0  0  0  0
   12.7217   -1.1345   23.0169 C   0  0  0  0  0  0  0  0  0  0  0  0
   11.7872   -1.6615   22.8020 C   0  0  0  0  0  0  0  0  0  0  0  0
    9.7139   -0.5563   22.5740 C   0  0  1  0  0  0  0  0  0  0  0  0
    9.0999    0.1257   21.5904 C   0  0  0  0  0  0  0  0  0  0  0  0
    9.6196    1.0811   21.2971 O   0  0  0  0  0  0  0  0  0  0  0  0
    8.0029   -0.4587   21.1512 N   0  0  0  0  0  0  0  0  0  0  0  0
    7.3083    0.0163   20.2347 C   0  0  0  0  0  0  0  0  0  0  0  0
    7.4239    0.1397   18.9356 C   0  0  0  0  0  0  0  0  0  0  0  0
    6.9960    0.4685   17.8342 N   0  0  0  0  0  0  0  0  0  0  0  0
    5.8723    1.0089   18.2617 C   0  0  0  0  0  0  0  0  0  0  0  0
    5.4028    1.0786   19.4090 C   0  0  0  0  0  0  0  0  0  0  0  0
    5.8911    0.6588   20.5565 C   0  0  0  0  0  0  0  0  0  0  0  0
    5.2975    0.7209   21.9282 C   0  0  0  0  0  0  0  0  0  0  0  0
    6.3349   -5.6005   27.2045 H   0  0  0  0  0  0  0  0  0  0  0  0
    5.6834   -4.2100   26.2727 H   0  0  0  0  0  0  0  0  0  0  0  0
    6.1466   -5.7229   25.4224 H   0  0  0  0  0  0  0  0  0  0  0  0
    7.2348   -3.0242   24.6834 H   0  0  0  0  0  0  0  0  0  0  0  0
    9.7753   -3.5533   24.4069 H   0  0  0  0  0  0  0  0  0  0  0  0
   10.2041    0.3881   25.3388 H   0  0  0  0  0  0  0  0  0  0  0  0
   12.0521    1.0616   25.4053 H   0  0  0  0  0  0  0  0  0  0  0  0
   14.0515    0.3432   23.9351 H   0  0  0  0  0  0  0  0  0  0  0  0
   13.5559   -1.5062   22.4404 H   0  0  0  0  0  0  0  0  0  0  0  0
   11.6713   -1.6449   21.7083 H   0  0  0  0  0  0  0  0  0  0  0  0
   11.9361   -2.6979   23.1393 H   0  0  0  0  0  0  0  0  0  0  0  0
    9.2428    0.0931   23.3265 H   0  0  0  0  0  0  0  0  0  0  0  0
    7.7171   -1.3195   21.5722 H   0  0  0  0  0  0  0  0  0  0  0  0
    8.4081   -0.2520   18.7247 H   0  0  0  0  0  0  0  0  0  0  0  0
    5.2642    1.4624   17.4930 H   0  0  0  0  0  0  0  0  0  0  0  0
    4.4390    1.5613   19.4759 H   0  0  0  0  0  0  0  0  0  0  0  0
    4.7035   -0.1865   22.1127 H   0  0  0  0  0  0  0  0  0  0  0  0
    6.1034    0.7892   22.6737 H   0  0  0  0  0  0  0  0  0  0  0  0
    4.6489    1.6058   22.0073 H   0  0  0  0  0  0  0  0  0  0  0  0
 20 21  2  0  0  0  0
 19 20  1  0  0  0  0
 21 22  1  0  0  0  0
 18 19  2  0  0  0  0
 22 23  2  0  0  0  0
 18 23  1  0  0  0  0
 17 18  1  0  0  0  0
 23 24  1  0  0  0  0
 15 16  2  0  0  0  0
 15 17  1  0  0  0  0
 14 15  1  0  0  0  0
  8 14  1  0  0  0  0
  7 14  1  0  0  0  0
 12 13  1  0  0  0  0
  8 13  1  0  0  0  0
 11 12  2  0  0  0  0
  7  8  1  0  0  0  0
  8  9  1  0  0  0  0
 10 11  1  0  0  0  0
  6  7  2  0  0  0  0
  5  6  1  0  0  0  0
  9 10  2  0  0  0  0
  2  5  1  0  0  0  0
  2  3  2  0  0  0  0
  1  2  1  0  0  0  0
  2  4  2  0  0  0  0
  1 25  1  0  0  0  0
  1 26  1  0  0  0  0
  1 27  1  0  0  0  0
  5 28  1  0  0  0  0
  6 29  1  0  0  0  0
  9 30  1  0  0  0  0
 10 31  1  0  0  0  0
 11 32  1  0  0  0  0
 12 33  1  0  0  0  0
 13 34  1  0  0  0  0
 13 35  1  0  0  0  0
 14 36  1  0  0  0  0
 17 37  1  0  0  0  0
 19 38  1  0  0  0  0
 21 39  1  0  0  0  0
 22 40  1  0  0  0  0
 24 41  1  0  0  0  0
 24 42  1  0  0  0  0
 24 43  1  0  0  0  0
M  END
> <Chemgauss4>
-13.183022

$$$$
