stable:False satoms:6 tatoms:24 sratio:0.25
  -OEChem-08062417253D

 43 45  0     1  0  0  0  0  0999 V2000
   -6.3616   -5.3793  -26.2969 C   0  0  0  0  0  0  0  0  0  0  0  0
   -7.9877   -4.7133  -26.0541 S   0  0  0  0  0  0  0  0  0  0  0  0
   -8.8730   -5.8501  -26.0354 O   0  0  0  0  0  0  0  0  0  0  0  0
   -8.2553   -3.8522  -27.1507 O   0  0  0  0  0  0  0  0  0  0  0  0
   -7.9308   -3.9289  -24.6450 N   0  0  0  0  0  0  0  0  0  0  0  0
   -8.7787   -3.2439  -24.1779 C   0  0  0  0  0  0  0  0  0  0  0  0
   -9.2166   -2.2664  -23.5905 C   0  0  0  0  0  0  0  0  0  0  0  0
  -10.1130   -1.4037  -23.4264 C   0  0  1  0  0  0  0  0  0  0  0  0
  -10.7149   -0.2360  -24.5853 C   0  0  0  0  0  0  0  0  0  0  0  0
  -11.6709    0.1044  -24.6142 C   0  0  0  0  0  0  0  0  0  0  0  0
  -12.8765   -0.2733  -23.7977 C   0  0  0  0  0  0  0  0  0  0  0  0
  -12.5407   -1.3151  -22.9608 C   0  0  0  0  0  0  0  0  0  0  0  0
  -11.6163   -1.8652  -22.7604 C   0  0  0  0  0  0  0  0  0  0  0  0
   -9.5133   -0.8115  -22.5626 C   0  0  1  0  0  0  0  0  0  0  0  0
   -8.8680   -0.1459  -21.5879 C   0  0  0  0  0  0  0  0  0  0  0  0
   -9.3597    0.8216  -21.2860 O   0  0  0  0  0  0  0  0  0  0  0  0
   -7.7792   -0.7576  -21.1657 N   0  0  0  0  0  0  0  0  0  0  0  0
   -7.0595   -0.3009  -20.2593 C   0  0  0  0  0  0  0  0  0  0  0  0
   -7.1525   -0.1763  -18.9585 C   0  0  0  0  0  0  0  0  0  0  0  0
   -6.7002    0.1407  -17.8635 N   0  0  0  0  0  0  0  0  0  0  0  0
   -5.5701    0.6538  -18.3074 C   0  0  0  0  0  0  0  0  0  0  0  0
   -5.1163    0.7134  -19.4616 C   0  0  0  0  0  0  0  0  0  0  0  0
   -5.6320    0.3071  -20.6019 C   0  0  0  0  0  0  0  0  0  0  0  0
   -5.0576    0.3562  -21.9824 C   0  0  0  0  0  0  0  0  0  0  0  0
   -6.3291   -5.9316  -27.2476 H   0  0  0  0  0  0  0  0  0  0  0  0
   -5.6297   -4.5585  -26.3246 H   0  0  0  0  0  0  0  0  0  0  0  0
   -6.1171   -6.0607  -25.4686 H   0  0  0  0  0  0  0  0  0  0  0  0
   -7.1276   -3.3369  -24.7111 H   0  0  0  0  0  0  0  0  0  0  0  0
   -9.6758   -3.8038  -24.3969 H   0  0  0  0  0  0  0  0  0  0  0  0
  -10.0216    0.1480  -25.3190 H   0  0  0  0  0  0  0  0  0  0  0  0
  -11.8533    0.8668  -25.3571 H   0  0  0  0  0  0  0  0  0  0  0  0
  -13.8474    0.1959  -23.8576 H   0  0  0  0  0  0  0  0  0  0  0  0
  -13.3750   -1.6669  -22.3720 H   0  0  0  0  0  0  0  0  0  0  0  0
  -11.4836   -1.8527  -21.6685 H   0  0  0  0  0  0  0  0  0  0  0  0
  -11.7956   -2.8972  -23.0962 H   0  0  0  0  0  0  0  0  0  0  0  0
   -9.0377   -0.1729  -23.3216 H   0  0  0  0  0  0  0  0  0  0  0  0
   -7.5210   -1.6247  -21.5917 H   0  0  0  0  0  0  0  0  0  0  0  0
   -8.1427   -0.5439  -18.7332 H   0  0  0  0  0  0  0  0  0  0  0  0
   -4.9396    1.0913  -17.5475 H   0  0  0  0  0  0  0  0  0  0  0  0
   -4.1420    1.1723  -19.5425 H   0  0  0  0  0  0  0  0  0  0  0  0
   -4.4890   -0.5653  -22.1765 H   0  0  0  0  0  0  0  0  0  0  0  0
   -5.8728    0.4451  -22.7156 H   0  0  0  0  0  0  0  0  0  0  0  0
   -4.3888    1.2250  -22.0704 H   0  0  0  0  0  0  0  0  0  0  0  0
 20 21  2  0  0  0  0
 19 20  1  0  0  0  0
 21 22  1  0  0  0  0
 18 19  2  0  0  0  0
 22 23  2  0  0  0  0
 18 23  1  0  0  0  0
 17 18  1  0  0  0  0
 23 24  1  0  0  0  0
 15 16  2  0  0  0  0
 15 17  1  0  0  0  0
 14 15  1  0  0  0  0
  8 14  1  0  0  0  0
  7 14  1  0  0  0  0
 12 13  1  0  0  0  0
  8 13  1  0  0  0  0
 11 12  2  0  0  0  0
  7  8  1  0  0  0  0
  8  9  1  0  0  0  0
 10 11  1  0  0  0  0
  6  7  2  0  0  0  0
  5  6  1  0  0  0  0
  9 10  2  0  0  0  0
  2  5  1  0  0  0  0
  2  3  2  0  0  0  0
  1  2  1  0  0  0  0
  2  4  2  0  0  0  0
  1 25  1  0  0  0  0
  1 26  1  0  0  0  0
  1 27  1  0  0  0  0
  5 28  1  0  0  0  0
  6 29  1  0  0  0  0
  9 30  1  0  0  0  0
 10 31  1  0  0  0  0
 11 32  1  0  0  0  0
 12 33  1  0  0  0  0
 13 34  1  0  0  0  0
 13 35  1  0  0  0  0
 14 36  1  0  0  0  0
 17 37  1  0  0  0  0
 19 38  1  0  0  0  0
 21 39  1  0  0  0  0
 22 40  1  0  0  0  0
 24 41  1  0  0  0  0
 24 42  1  0  0  0  0
 24 43  1  0  0  0  0
M  END
> <Chemgauss4>
-12.647672

$$$$
