stable:False satoms:11 tatoms:24 sratio:0.4583333333333333
  -OEChem-08062414533D

 42 42  0     1  0  0  0  0  0999 V2000
    6.0524   -5.1220   26.0216 C   0  0  0  0  0  0  0  0  0  0  0  0
    7.6816   -4.6010   25.9151 S   0  0  0  0  0  0  0  0  0  0  0  0
    8.5523   -5.7492   25.8530 O   0  0  0  0  0  0  0  0  0  0  0  0
    7.9746   -3.8088   27.0644 O   0  0  0  0  0  0  0  0  0  0  0  0
    7.7465   -3.7897   24.4988 N   0  0  0  0  0  0  0  0  0  0  0  0
    8.6561   -3.0962   24.1442 C   0  0  0  0  0  0  0  0  0  0  0  0
    9.2353   -2.1895   23.6595 C   0  0  0  0  0  0  0  0  0  0  0  0
   10.1892   -1.4101   23.4222 C   0  0  1  0  0  0  0  0  0  0  0  0
   10.7343   -0.2385   24.7322 C   0  0  0  0  0  0  0  0  0  0  0  0
   11.7896   -0.0016   24.7869 C   0  0  0  0  0  0  0  0  0  0  0  0
   12.8431   -0.3857   24.1508 C   0  0  0  0  0  0  0  0  0  0  0  0
   12.6030   -1.4883   23.2265 C   0  0  0  0  0  0  0  0  0  0  0  0
   11.6551   -1.8787   23.0279 C   0  0  0  0  0  0  0  0  0  0  0  0
    9.7029   -0.6153   22.5584 C   0  0  0  0  0  0  0  0  0  0  0  0
    9.1714    0.0429   21.5684 C   0  0  0  0  0  0  0  0  0  0  0  0
    9.6968    0.9864   21.2143 O   0  0  0  0  0  0  0  0  0  0  0  0
    8.0483   -0.5999   21.1359 N   0  0  0  0  0  0  0  0  0  0  0  0
    7.4225   -0.0530   20.1845 C   0  0  0  0  0  0  0  0  0  0  0  0
    7.5887    0.1104   18.8861 C   0  0  0  0  0  0  0  0  0  0  0  0
    7.3123    0.5260   17.7768 N   0  0  0  0  0  0  0  0  0  0  0  0
    6.0972    1.0655   18.1494 C   0  0  0  0  0  0  0  0  0  0  0  0
    5.6050    1.0638   19.2067 C   0  0  0  0  0  0  0  0  0  0  0  0
    6.0167    0.5801   20.3880 C   0  0  0  0  0  0  0  0  0  0  0  0
    5.3375    0.6345   21.7901 Cl  0  0  0  0  0  0  0  0  0  0  0  0
    5.9075   -5.6856   26.9550 H   0  0  0  0  0  0  0  0  0  0  0  0
    5.3864   -4.2466   26.0149 H   0  0  0  0  0  0  0  0  0  0  0  0
    5.8173   -5.7682   25.1630 H   0  0  0  0  0  0  0  0  0  0  0  0
    6.9418   -3.1960   24.4949 H   0  0  0  0  0  0  0  0  0  0  0  0
   10.3518   -0.8193   24.3358 H   0  0  0  0  0  0  0  0  0  0  0  0
   10.3784   -0.9542   24.0059 H   0  0  0  0  0  0  0  0  0  0  0  0
   10.0377    0.2411   25.4040 H   0  0  0  0  0  0  0  0  0  0  0  0
   12.0113    0.7263   25.5534 H   0  0  0  0  0  0  0  0  0  0  0  0
   13.5947   -0.7073   24.8867 H   0  0  0  0  0  0  0  0  0  0  0  0
   13.2330    0.4685   23.5778 H   0  0  0  0  0  0  0  0  0  0  0  0
   13.4515   -1.9245   22.7203 H   0  0  0  0  0  0  0  0  0  0  0  0
   11.6753   -2.7818   22.4359 H   0  0  0  0  0  0  0  0  0  0  0  0
   10.6224   -0.0124   22.5269 H   0  0  0  0  0  0  0  0  0  0  0  0
    9.0028   -0.1786   23.2859 H   0  0  0  0  0  0  0  0  0  0  0  0
    7.7379   -1.4561   21.5489 H   0  0  0  0  0  0  0  0  0  0  0  0
    8.4945   -0.4477   18.7007 H   0  0  0  0  0  0  0  0  0  0  0  0
    5.5331    1.5485   17.3652 H   0  0  0  0  0  0  0  0  0  0  0  0
    4.6367    1.5409   19.2410 H   0  0  0  0  0  0  0  0  0  0  0  0
 20 21  2  0  0  0  0
 19 20  1  0  0  0  0
 21 22  1  0  0  0  0
 18 19  2  0  0  0  0
 22 23  2  0  0  0  0
 18 23  1  0  0  0  0
 17 18  1  0  0  0  0
 23 24  1  0  0  0  0
 15 16  2  0  0  0  0
 15 17  1  0  0  0  0
 14 15  1  0  0  0  0
  8 14  1  0  0  0  0
 12 13  2  0  0  0  0
  8 13  1  0  0  0  0
 11 12  1  0  0  0  0
  7  8  1  0  0  0  0
 10 11  1  0  0  0  0
  6  7  3  0  0  0  0
  5  6  1  0  0  0  0
  9 10  2  0  0  0  0
  2  5  1  0  0  0  0
  2  3  2  0  0  0  0
  1  2  1  0  0  0  0
  2  4  2  0  0  0  0
  1 25  1  0  0  0  0
  1 26  1  0  0  0  0
  1 27  1  0  0  0  0
  5 28  1  0  0  0  0
  8 29  1  0  0  0  0
  9 30  1  0  0  0  0
  9 31  1  0  0  0  0
 10 32  1  0  0  0  0
 11 33  1  0  0  0  0
 11 34  1  0  0  0  0
 12 35  1  0  0  0  0
 13 36  1  0  0  0  0
 14 37  1  0  0  0  0
 14 38  1  0  0  0  0
 17 39  1  0  0  0  0
 19 40  1  0  0  0  0
 21 41  1  0  0  0  0
 22 42  1  0  0  0  0
M  END
> <Chemgauss4>
-12.996989

$$$$
