stable:False satoms:11 tatoms:24 sratio:0.4583333333333333
  -OEChem-08062414533D

 42 42  0     1  0  0  0  0  0999 V2000
   -5.8316   -4.2054  -26.5026 C   0  0  0  0  0  0  0  0  0  0  0  0
   -7.4935   -3.8523  -26.2783 S   0  0  0  0  0  0  0  0  0  0  0  0
   -8.2552   -5.0768  -26.3069 O   0  0  0  0  0  0  0  0  0  0  0  0
   -7.9104   -2.9760  -27.3236 O   0  0  0  0  0  0  0  0  0  0  0  0
   -7.5621   -3.2019  -24.7816 N   0  0  0  0  0  0  0  0  0  0  0  0
   -8.5115   -2.6367  -24.3198 C   0  0  0  0  0  0  0  0  0  0  0  0
   -9.1449   -1.8430  -23.7185 C   0  0  0  0  0  0  0  0  0  0  0  0
  -10.1516   -1.1847  -23.3623 C   0  0  1  0  0  0  0  0  0  0  0  0
  -10.8605    0.0606  -24.5168 C   0  0  0  0  0  0  0  0  0  0  0  0
  -11.9341    0.2025  -24.5052 C   0  0  0  0  0  0  0  0  0  0  0  0
  -12.9177   -0.3420  -23.8742 C   0  0  0  0  0  0  0  0  0  0  0  0
  -12.5368   -1.5073  -23.0839 C   0  0  0  0  0  0  0  0  0  0  0  0
  -11.5496   -1.8262  -22.9649 C   0  0  0  0  0  0  0  0  0  0  0  0
   -9.6967   -0.4419  -22.4373 C   0  0  0  0  0  0  0  0  0  0  0  0
   -9.1788    0.1567  -21.4032 C   0  0  0  0  0  0  0  0  0  0  0  0
   -9.7681    1.0053  -20.9298 O   0  0  0  0  0  0  0  0  0  0  0  0
   -7.9838   -0.4200  -21.0857 N   0  0  0  0  0  0  0  0  0  0  0  0
   -7.3639    0.0811  -20.1056 C   0  0  0  0  0  0  0  0  0  0  0  0
   -7.4816    0.0929  -18.7918 C   0  0  0  0  0  0  0  0  0  0  0  0
   -7.1902    0.4151  -17.6557 N   0  0  0  0  0  0  0  0  0  0  0  0
   -6.0469    1.1012  -18.0142 C   0  0  0  0  0  0  0  0  0  0  0  0
   -5.6078    1.2550  -19.0836 C   0  0  0  0  0  0  0  0  0  0  0  0
   -6.0312    0.8602  -20.2935 C   0  0  0  0  0  0  0  0  0  0  0  0
   -5.4274    1.1227  -21.7066 Cl  0  0  0  0  0  0  0  0  0  0  0  0
   -5.6822   -4.6532  -27.4962 H   0  0  0  0  0  0  0  0  0  0  0  0
   -5.2463   -3.2772  -26.4272 H   0  0  0  0  0  0  0  0  0  0  0  0
   -5.4993   -4.9124  -25.7282 H   0  0  0  0  0  0  0  0  0  0  0  0
   -6.8139   -2.5394  -24.7446 H   0  0  0  0  0  0  0  0  0  0  0  0
  -10.4095   -0.5201  -24.2001 H   0  0  0  0  0  0  0  0  0  0  0  0
  -10.4082   -0.6903  -23.8859 H   0  0  0  0  0  0  0  0  0  0  0  0
  -10.2421    0.6699  -25.1592 H   0  0  0  0  0  0  0  0  0  0  0  0
  -12.2559    0.9821  -25.1798 H   0  0  0  0  0  0  0  0  0  0  0  0
  -13.6722   -0.6542  -24.6112 H   0  0  0  0  0  0  0  0  0  0  0  0
  -13.3538    0.4081  -23.1982 H   0  0  0  0  0  0  0  0  0  0  0  0
  -13.3181   -2.0708  -22.5955 H   0  0  0  0  0  0  0  0  0  0  0  0
  -11.4613   -2.7837  -22.4732 H   0  0  0  0  0  0  0  0  0  0  0  0
  -10.6635    0.0662  -22.3059 H   0  0  0  0  0  0  0  0  0  0  0  0
   -9.0738    0.1312  -23.1398 H   0  0  0  0  0  0  0  0  0  0  0  0
   -7.6189   -1.1961  -21.6001 H   0  0  0  0  0  0  0  0  0  0  0  0
   -8.3245   -0.5635  -18.6331 H   0  0  0  0  0  0  0  0  0  0  0  0
   -5.4909    1.5507  -17.2048 H   0  0  0  0  0  0  0  0  0  0  0  0
   -4.6883    1.8212  -19.1034 H   0  0  0  0  0  0  0  0  0  0  0  0
 20 21  2  0  0  0  0
 19 20  1  0  0  0  0
 21 22  1  0  0  0  0
 18 19  2  0  0  0  0
 22 23  2  0  0  0  0
 18 23  1  0  0  0  0
 17 18  1  0  0  0  0
 23 24  1  0  0  0  0
 15 16  2  0  0  0  0
 15 17  1  0  0  0  0
 14 15  1  0  0  0  0
  8 14  1  0  0  0  0
 12 13  2  0  0  0  0
  8 13  1  0  0  0  0
 11 12  1  0  0  0  0
  7  8  1  0  0  0  0
 10 11  1  0  0  0  0
  6  7  3  0  0  0  0
  5  6  1  0  0  0  0
  9 10  2  0  0  0  0
  2  5  1  0  0  0  0
  2  3  2  0  0  0  0
  1  2  1  0  0  0  0
  2  4  2  0  0  0  0
  1 25  1  0  0  0  0
  1 26  1  0  0  0  0
  1 27  1  0  0  0  0
  5 28  1  0  0  0  0
  8 29  1  0  0  0  0
  9 30  1  0  0  0  0
  9 31  1  0  0  0  0
 10 32  1  0  0  0  0
 11 33  1  0  0  0  0
 11 34  1  0  0  0  0
 12 35  1  0  0  0  0
 13 36  1  0  0  0  0
 14 37  1  0  0  0  0
 14 38  1  0  0  0  0
 17 39  1  0  0  0  0
 19 40  1  0  0  0  0
 21 41  1  0  0  0  0
 22 42  1  0  0  0  0
M  END
> <Chemgauss4>
-12.623808

$$$$
