REMARK  9 active torsions:
REMARK  status: ('A' for Active; 'I' for Inactive)
REMARK    1  A    between atoms: C_1  and  C_6 
REMARK    2  A    between atoms: N_3  and  C_12 
REMARK    3  A    between atoms: N_3  and  N_4 
REMARK    4  A    between atoms: N_4  and  C_11 
REMARK    5  A    between atoms: C_6  and  N_7 
REMARK       I    between atoms: N_9  and  C_23 
REMARK    6  A    between atoms: N_9  and  C_12 
REMARK    7  A    between atoms: N_14  and  C_24 
REMARK    8  A    between atoms: N_15  and  O_20 
REMARK    9  A    between atoms: C_23  and  C_24 
ROOT
HETATM    1  N   UNL     1       9.188  -1.719  20.118  1.00  0.00    -0.315 N 
ATOM      2  HN  UNL     1       9.738  -1.797  19.263  1.00  0.00     0.170 HD
HETATM    3  O   UNL     1       7.459  -1.117  18.791  1.00  0.00    -0.264 OA
HETATM    4  C   UNL     1       8.014  -1.062  19.863  1.00  0.00     0.291 C 
ENDROOT
BRANCH   1   5
HETATM    5  C   UNL     1       9.780  -2.238  21.043  1.00  0.00     0.200 C 
BRANCH   5   6
HETATM    6  N   UNL     1       9.207  -2.784  22.241  1.00  0.00    -0.295 N 
HETATM    7  H   UNL     1       8.285  -2.331  22.250  1.00  0.00     0.187 HD
BRANCH   6   8
HETATM    8  N   UNL     1      10.204  -3.033  23.019  1.00  0.00    -0.295 N 
ATOM      9  HN  UNL     1      10.983  -3.552  22.614  1.00  0.00     0.187 HD
BRANCH   8  10
HETATM   10  C   UNL     1      10.292  -2.769  23.979  1.00  0.00     0.197 C 
HETATM   11  N   UNL     1       9.300  -3.366  24.639  1.00  0.00    -0.362 N 
ATOM     12  HN  UNL     1       9.034  -4.338  24.485  1.00  0.00     0.165 HD
BRANCH  11  13
HETATM   13  C   UNL     1       8.744  -2.646  25.439  1.00  0.00     0.095 C 
BRANCH  13  14
HETATM   14  C   UNL     1       9.038  -1.202  25.216  1.00  0.00     0.183 A 
HETATM   15  C   UNL     1       9.650  -0.331  23.978  1.00  0.00     0.206 A 
HETATM   16  O   UNL     1       8.357  -0.708  24.230  1.00  0.00    -0.376 OA
ENDBRANCH  13  14
ENDBRANCH  11  13
ENDBRANCH   8  10
ENDBRANCH   6   8
ENDBRANCH   5   6
ENDBRANCH   1   5
BRANCH   4  17
HETATM   17  C   UNL     1       7.565  -0.112  20.831  1.00  0.00     0.188 C 
HETATM   18  N   UNL     1       8.142   0.105  22.014  1.00  0.00    -0.249 N 
ATOM     19  HN  UNL     1       8.584  -0.615  22.586  1.00  0.00     0.196 HD
BRANCH  17  20
HETATM   20  N   UNL     1       6.649   0.718  20.377  1.00  0.00    -0.380 N 
HETATM   21  H   UNL     1       6.273   0.627  19.460  1.00  0.00     0.158 HD
HETATM   22  H   UNL     1       6.625   1.590  20.832  1.00  0.00     0.158 HD
ENDBRANCH  17  20
BRANCH  18  23
HETATM   23  O   UNL     1       8.069   1.263  22.310  1.00  0.00    -0.288 OA
ATOM     24  HO  UNL     1       8.480   1.418  23.152  1.00  0.00     0.244 HD
ENDBRANCH  18  23
ENDBRANCH   4  17
TORSDOF 9
