stable:False satoms:16 tatoms:24 sratio:0.6666666666666666
  -OEChem-07092417433D

 24 25  0     0  0  0  0  0  0999 V2000
    6.4678   -4.9265   26.4929 Cl  0  0  0  0  0  0  0  0  0  0  0  0
    8.2541   -4.3801   26.0933 S   0  0  0  0  0  0  0  0  0  0  0  0
    9.0567   -5.5487   25.9819 O   0  0  0  0  0  0  0  0  0  0  0  0
    8.6248   -3.4806   27.1231 O   0  0  0  0  0  0  0  0  0  0  0  0
    7.9895   -3.6286   24.6834 N   0  0  0  0  0  0  0  0  0  0  0  0
    8.8471   -2.9742   24.0972 C   0  0  0  0  0  0  0  0  0  0  0  0
    9.4205   -2.2067   23.5248 C   0  0  0  0  0  0  0  0  0  0  0  0
   10.2994   -1.3057   22.9799 C   0  0  0  0  0  0  0  0  0  0  0  0
   11.3367    0.1999   24.4455 H   0  0  0  0  0  0  0  0  0  0  0  0
   12.2641    0.3417   24.0580 N   0  5  0  0  0  0  0  0  0  0  0  0
   12.5894   -0.6210   23.2351 C   0  3  0  0  0  0  0  0  0  0  0  0
   13.4885   -0.8385   22.7311 H   0  0  0  0  0  0  0  0  0  0  0  0
   11.6039   -1.4104   22.9331 C   0  0  0  0  0  0  0  0  0  0  0  0
    9.8918   -0.2302   22.4618 N   0  0  0  0  0  0  0  0  0  0  0  0
    9.1344    0.1420   21.3695 C   0  0  0  0  0  0  0  0  0  0  0  0
    9.5322    1.0748   20.7245 O   0  0  0  0  0  0  0  0  0  0  0  0
    7.9565   -0.5144   21.1479 N   0  0  0  0  0  0  0  0  0  0  0  0
    7.1549   -0.0377   20.2757 C   0  0  0  0  0  0  0  0  0  0  0  0
    7.0590    0.0361   18.9644 C   0  0  0  0  0  0  0  0  0  0  0  0
    6.6386    0.2300   17.8525 N   0  0  0  0  0  0  0  0  0  0  0  0
    5.5481    0.6596   18.3503 C   0  0  0  0  0  0  0  0  0  0  0  0
    5.1850    0.8200   19.5313 C   0  0  0  0  0  0  0  0  0  0  0  0
    5.7880    0.5697   20.6213 C   0  0  0  0  0  0  0  0  0  0  0  0
    5.4531    0.7394   21.6181 H   0  0  0  0  0  0  0  0  0  0  0  0
 20 21  2  0  0  0  0
 19 20  1  0  0  0  0
 19 21  1  0  0  0  0
 21 22  1  0  0  0  0
 18 19  2  0  0  0  0
 22 23  2  0  0  0  0
 18 23  1  0  0  0  0
 17 18  1  0  0  0  0
 23 24  1  0  0  0  0
 15 16  2  0  0  0  0
 15 17  1  0  0  0  0
 14 15  1  0  0  0  0
  8 14  1  0  0  0  0
 11 12  1  0  0  0  0
  8 13  2  3  0  0  0
 11 13  1  0  0  0  0
  7  8  1  0  0  0  0
 10 11  1  0  0  0  0
  6  7  3  0  0  0  0
  9 10  1  0  0  0  0
  5  6  1  0  0  0  0
  2  5  1  0  0  0  0
  2  3  2  0  0  0  0
  1  2  1  0  0  0  0
  2  4  2  0  0  0  0
M  CHG  2  10  -1  11   1
M  END
> <Shapegauss>
-257.181702

$$$$
