stable:False satoms:16 tatoms:24 sratio:0.6666666666666666
  -OEChem-08062408583D

 29 30  0     0  0  0  0  0  0999 V2000
    6.5881   -5.6190   25.6060 Cl  0  0  0  0  0  0  0  0  0  0  0  0
    8.3523   -4.9076   25.4309 S   0  0  0  0  0  0  0  0  0  0  0  0
    9.2458   -5.9942   25.2231 O   0  0  0  0  0  0  0  0  0  0  0  0
    8.5813   -4.1440   26.6020 O   0  0  0  0  0  0  0  0  0  0  0  0
    8.1322   -3.9792   24.1223 N   0  0  0  0  0  0  0  0  0  0  0  0
    8.9776   -3.1937   23.7034 C   0  0  0  0  0  0  0  0  0  0  0  0
    9.5310   -2.3166   23.2911 C   0  0  0  0  0  0  0  0  0  0  0  0
   10.3763   -1.2921   22.9489 C   0  0  0  0  0  0  0  0  0  0  0  0
   11.1924    0.0498   24.6878 H   0  0  0  0  0  0  0  0  0  0  0  0
   12.1316    0.3050   24.3995 N   0  0  0  0  0  0  0  0  0  0  0  0
   12.5850   -0.5062   23.4797 C   0  0  0  0  0  0  0  0  0  0  0  0
   13.5311   -0.5909   23.0243 H   0  0  0  0  0  0  0  0  0  0  0  0
   11.6850   -1.3053   22.9929 C   0  0  0  0  0  0  0  0  0  0  0  0
    9.9269   -0.1815   22.5541 N   0  0  0  0  0  0  0  0  0  0  0  0
    9.2227    0.2950   21.4668 C   0  0  0  0  0  0  0  0  0  0  0  0
    9.5941    1.3345   20.9916 O   0  0  0  0  0  0  0  0  0  0  0  0
    8.1156   -0.3966   21.0623 N   0  0  0  0  0  0  0  0  0  0  0  0
    7.3441    0.1485   20.2032 C   0  0  0  0  0  0  0  0  0  0  0  0
    7.3355    0.4042   18.9114 C   0  0  0  0  0  0  0  0  0  0  0  0
    6.9811    0.7290   17.8071 N   0  0  0  0  0  0  0  0  0  0  0  0
    5.8292    1.0118   18.2705 C   0  0  0  0  0  0  0  0  0  0  0  0
    5.3729    0.9767   19.4293 C   0  0  0  0  0  0  0  0  0  0  0  0
    5.9147    0.6111   20.5189 C   0  0  0  0  0  0  0  0  0  0  0  0
    5.4987    0.6136   21.4995 H   0  0  0  0  0  0  0  0  0  0  0  0
    7.3170   -3.4309   24.3091 H   0  0  0  0  0  0  0  0  0  0  0  0
   12.1113   -2.1764   22.5176 H   0  0  0  0  0  0  0  0  0  0  0  0
   10.1374    0.5499   23.2028 H   0  0  0  0  0  0  0  0  0  0  0  0
    7.9152   -1.3050   21.4292 H   0  0  0  0  0  0  0  0  0  0  0  0
    4.3505    1.3117   19.5229 H   0  0  0  0  0  0  0  0  0  0  0  0
 20 21  2  0  0  0  0
 19 20  1  0  0  0  0
 19 21  1  0  0  0  0
 21 22  1  0  0  0  0
 18 19  2  0  0  0  0
 22 23  2  0  0  0  0
 18 23  1  0  0  0  0
 17 18  1  0  0  0  0
 23 24  1  0  0  0  0
 15 16  2  0  0  0  0
 15 17  1  0  0  0  0
 14 15  1  0  0  0  0
  8 14  1  0  0  0  0
 11 12  1  0  0  0  0
  8 13  2  3  0  0  0
 11 13  1  0  0  0  0
  7  8  1  0  0  0  0
 10 11  2  0  0  0  0
  6  7  3  0  0  0  0
  9 10  1  0  0  0  0
  5  6  1  0  0  0  0
  2  5  1  0  0  0  0
  2  3  2  0  0  0  0
  1  2  1  0  0  0  0
  2  4  2  0  0  0  0
  5 25  1  0  0  0  0
 13 26  1  0  0  0  0
 14 27  1  0  0  0  0
 17 28  1  0  0  0  0
 22 29  1  0  0  0  0
M  END
> <Chemgauss4>
-8.097891

$$$$
