stable:False satoms:5 tatoms:24 sratio:0.20833333333333334
  -OEChem-08062413443D

 43 45  0     1  0  0  0  0  0999 V2000
    6.2488   -5.2011   26.2476 C   0  0  0  0  0  0  0  0  0  0  0  0
    7.9507   -4.5811   26.0327 S   0  0  0  0  0  0  0  0  0  0  0  0
    8.7612   -5.7641   25.9368 O   0  0  0  0  0  0  0  0  0  0  0  0
    8.2560   -3.7518   27.1545 O   0  0  0  0  0  0  0  0  0  0  0  0
    7.9010   -3.7815   24.6485 N   0  0  0  0  0  0  0  0  0  0  0  0
    8.7360   -3.1136   24.1553 C   0  0  0  0  0  0  0  0  0  0  0  0
    9.2675   -2.1694   23.6097 C   0  0  0  0  0  0  0  0  0  0  0  0
   10.2132   -1.3385   23.3969 C   0  0  1  0  0  0  0  0  0  0  0  0
   10.7935   -0.1855   24.6342 C   0  0  0  0  0  0  0  0  0  0  0  0
   11.7633    0.1090   24.6607 C   0  0  0  0  0  0  0  0  0  0  0  0
   12.9057   -0.3158   23.9241 C   0  0  0  0  0  0  0  0  0  0  0  0
   12.6541   -1.3236   23.1247 C   0  0  0  0  0  0  0  0  0  0  0  0
   11.7177   -1.8539   22.9004 C   0  0  0  0  0  0  0  0  0  0  0  0
    9.5230   -0.7591   22.5924 C   0  0  1  0  0  0  0  0  0  0  0  0
    8.9461   -0.0613   21.6022 C   0  0  0  0  0  0  0  0  0  0  0  0
    9.5089    0.8801   21.2768 O   0  0  0  0  0  0  0  0  0  0  0  0
    7.8154   -0.6571   21.2263 N   0  0  0  0  0  0  0  0  0  0  0  0
    7.1879   -0.1532   20.2884 C   0  0  0  0  0  0  0  0  0  0  0  0
    7.2884    0.0462   18.9693 C   0  0  0  0  0  0  0  0  0  0  0  0
    6.9488    0.3291   17.8814 N   0  0  0  0  0  0  0  0  0  0  0  0
    5.8127    0.8434   18.2738 C   0  0  0  0  0  0  0  0  0  0  0  0
    5.3221    0.9183   19.4251 C   0  0  0  0  0  0  0  0  0  0  0  0
    5.7738    0.4772   20.5770 C   0  0  0  0  0  0  0  0  0  0  0  0
    5.2084    0.5042   21.8624 C   0  0  0  0  0  0  0  0  0  0  0  0
    6.1817   -5.7721   27.1855 H   0  0  0  0  0  0  0  0  0  0  0  0
    5.5511   -4.3515   26.2851 H   0  0  0  0  0  0  0  0  0  0  0  0
    5.9868   -5.8536   25.4017 H   0  0  0  0  0  0  0  0  0  0  0  0
    7.1140   -3.1714   24.7400 H   0  0  0  0  0  0  0  0  0  0  0  0
    9.5847   -3.7745   24.2522 H   0  0  0  0  0  0  0  0  0  0  0  0
   10.0999    0.2034   25.3651 H   0  0  0  0  0  0  0  0  0  0  0  0
   11.9676    0.8885   25.3797 H   0  0  0  0  0  0  0  0  0  0  0  0
   13.8784    0.1446   24.0149 H   0  0  0  0  0  0  0  0  0  0  0  0
   13.5170   -1.6982   22.5940 H   0  0  0  0  0  0  0  0  0  0  0  0
   11.6649   -1.9148   21.8034 H   0  0  0  0  0  0  0  0  0  0  0  0
   11.8396   -2.8641   23.3183 H   0  0  0  0  0  0  0  0  0  0  0  0
    9.1083   -0.0903   23.3610 H   0  0  0  0  0  0  0  0  0  0  0  0
    7.4863   -1.4818   21.6863 H   0  0  0  0  0  0  0  0  0  0  0  0
    8.3227   -0.2147   18.8003 H   0  0  0  0  0  0  0  0  0  0  0  0
    5.2055    1.2676   17.4878 H   0  0  0  0  0  0  0  0  0  0  0  0
    4.3722    1.4294   19.4786 H   0  0  0  0  0  0  0  0  0  0  0  0
    4.6146   -0.4080   22.0215 H   0  0  0  0  0  0  0  0  0  0  0  0
    6.0097    0.5557   22.6143 H   0  0  0  0  0  0  0  0  0  0  0  0
    4.5582    1.3862   21.9584 H   0  0  0  0  0  0  0  0  0  0  0  0
 20 21  2  0  0  0  0
 19 20  1  0  0  0  0
 21 22  1  0  0  0  0
 18 19  2  0  0  0  0
 22 23  2  0  0  0  0
 18 23  1  0  0  0  0
 17 18  1  0  0  0  0
 23 24  1  0  0  0  0
 15 16  2  0  0  0  0
 15 17  1  0  0  0  0
 14 15  1  0  0  0  0
  8 14  1  0  0  0  0
  7 14  1  0  0  0  0
 12 13  1  0  0  0  0
  8 13  1  0  0  0  0
 11 12  2  0  0  0  0
  7  8  1  0  0  0  0
  8  9  1  0  0  0  0
 10 11  1  0  0  0  0
  6  7  2  3  0  0  0
  5  6  1  0  0  0  0
  9 10  2  0  0  0  0
  2  5  1  0  0  0  0
  2  3  2  0  0  0  0
  1  2  1  0  0  0  0
  2  4  2  0  0  0  0
  1 25  1  0  0  0  0
  1 26  1  0  0  0  0
  1 27  1  0  0  0  0
  5 28  1  0  0  0  0
  6 29  1  0  0  0  0
  9 30  1  0  0  0  0
 10 31  1  0  0  0  0
 11 32  1  0  0  0  0
 12 33  1  0  0  0  0
 13 34  1  0  0  0  0
 13 35  1  0  0  0  0
 14 36  1  0  0  0  0
 17 37  1  0  0  0  0
 19 38  1  0  0  0  0
 21 39  1  0  0  0  0
 22 40  1  0  0  0  0
 24 41  1  0  0  0  0
 24 42  1  0  0  0  0
 24 43  1  0  0  0  0
M  END
> <Chemgauss4>
-13.411746

$$$$
