stable:False satoms:5 tatoms:24 sratio:0.20833333333333334
  -OEChem-08062414573D

 43 43  0     0  0  0  0  0  0999 V2000
   -6.2211   -5.2484  -26.0366 C   0  0  0  0  0  0  0  0  0  0  0  0
   -8.0450   -4.5659  -25.8249 S   0  0  0  0  0  0  0  0  0  0  0  0
   -8.8986   -5.7254  -25.7811 O   0  0  0  0  0  0  0  0  0  0  0  0
   -8.2872   -3.7047  -26.9226 O   0  0  0  0  0  0  0  0  0  0  0  0
   -7.9819   -3.7738  -24.4222 N   0  0  0  0  0  0  0  0  0  0  0  0
   -8.8279   -3.1367  -23.9634 C   0  0  0  0  0  0  0  0  0  0  0  0
   -9.3224   -2.1613  -23.4473 C   0  0  0  0  0  0  0  0  0  0  0  0
  -10.0301   -1.1144  -23.3259 C   0  0  0  0  0  0  0  0  0  0  0  0
  -10.9036   -0.1998  -24.3090 C   0  0  0  0  0  0  0  0  0  0  0  0
  -11.8922    0.1277  -24.4089 C   0  0  0  0  0  0  0  0  0  0  0  0
  -13.0346   -0.3062  -23.6491 C   0  0  0  0  0  0  0  0  0  0  0  0
  -12.6764   -1.3101  -22.7673 C   0  0  0  0  0  0  0  0  0  0  0  0
  -12.0059   -1.8463  -22.4090 C   0  0  0  0  0  0  0  0  0  0  0  0
   -9.6266   -0.6752  -22.3352 C   0  0  0  0  0  0  0  0  0  0  0  0
   -9.0367   -0.0275  -21.3284 C   0  0  0  0  0  0  0  0  0  0  0  0
   -9.5431    0.9229  -20.9627 O   0  0  0  0  0  0  0  0  0  0  0  0
   -7.9128   -0.6406  -20.9686 N   0  0  0  0  0  0  0  0  0  0  0  0
   -7.2556   -0.1211  -20.0331 C   0  0  0  0  0  0  0  0  0  0  0  0
   -7.4044    0.0286  -18.7275 C   0  0  0  0  0  0  0  0  0  0  0  0
   -7.0362    0.3605  -17.6395 N   0  0  0  0  0  0  0  0  0  0  0  0
   -5.8205    0.8215  -18.0559 C   0  0  0  0  0  0  0  0  0  0  0  0
   -5.3418    0.8620  -19.1776 C   0  0  0  0  0  0  0  0  0  0  0  0
   -5.8403    0.4591  -20.3394 C   0  0  0  0  0  0  0  0  0  0  0  0
   -5.3102    0.4957  -21.5610 C   0  0  0  0  0  0  0  0  0  0  0  0
   -6.1478   -5.8148  -26.9767 H   0  0  0  0  0  0  0  0  0  0  0  0
   -5.5148   -4.4055  -26.0605 H   0  0  0  0  0  0  0  0  0  0  0  0
   -5.9762   -5.9081  -25.1912 H   0  0  0  0  0  0  0  0  0  0  0  0
   -7.2028   -3.1527  -24.5069 H   0  0  0  0  0  0  0  0  0  0  0  0
  -10.2901    0.1962  -25.1047 H   0  0  0  0  0  0  0  0  0  0  0  0
  -12.0759    0.8748  -25.1669 H   0  0  0  0  0  0  0  0  0  0  0  0
  -13.8040   -0.6862  -24.3373 H   0  0  0  0  0  0  0  0  0  0  0  0
  -13.4378    0.5463  -23.0829 H   0  0  0  0  0  0  0  0  0  0  0  0
  -13.5881   -1.6047  -22.2690 H   0  0  0  0  0  0  0  0  0  0  0  0
  -12.2460   -2.5762  -21.6500 H   0  0  0  0  0  0  0  0  0  0  0  0
  -10.9875   -1.7390  -22.7521 H   0  0  0  0  0  0  0  0  0  0  0  0
  -10.2042   -1.3301  -21.6999 H   0  0  0  0  0  0  0  0  0  0  0  0
   -7.6050   -1.4770  -21.4222 H   0  0  0  0  0  0  0  0  0  0  0  0
   -8.3959   -0.3589  -18.5456 H   0  0  0  0  0  0  0  0  0  0  0  0
   -5.1857    1.2097  -17.2732 H   0  0  0  0  0  0  0  0  0  0  0  0
   -4.3541    1.2952  -19.2337 H   0  0  0  0  0  0  0  0  0  0  0  0
   -4.7498   -0.4326  -21.7461 H   0  0  0  0  0  0  0  0  0  0  0  0
   -6.1133    0.5938  -22.3063 H   0  0  0  0  0  0  0  0  0  0  0  0
   -4.6298    1.3564  -21.6397 H   0  0  0  0  0  0  0  0  0  0  0  0
 20 21  2  0  0  0  0
 19 20  1  0  0  0  0
 21 22  1  0  0  0  0
 18 19  2  0  0  0  0
 22 23  2  0  0  0  0
 18 23  1  0  0  0  0
 17 18  1  0  0  0  0
 23 24  1  0  0  0  0
 15 16  2  0  0  0  0
 15 17  1  0  0  0  0
 14 15  1  0  0  0  0
 12 13  2  0  0  0  0
  8 14  2  3  0  0  0
 11 12  1  0  0  0  0
  7  8  1  0  0  0  0
  8  9  1  0  0  0  0
 10 11  1  0  0  0  0
  6  7  3  0  0  0  0
  5  6  1  0  0  0  0
  9 10  2  0  0  0  0
  2  5  1  0  0  0  0
  2  3  2  0  0  0  0
  1  2  1  0  0  0  0
  2  4  2  0  0  0  0
  1 25  1  0  0  0  0
  1 26  1  0  0  0  0
  1 27  1  0  0  0  0
  5 28  1  0  0  0  0
  9 29  1  0  0  0  0
 10 30  1  0  0  0  0
 11 31  1  0  0  0  0
 11 32  1  0  0  0  0
 12 33  1  0  0  0  0
 13 34  1  0  0  0  0
 13 35  1  0  0  0  0
 14 36  1  0  0  0  0
 17 37  1  0  0  0  0
 19 38  1  0  0  0  0
 21 39  1  0  0  0  0
 22 40  1  0  0  0  0
 24 41  1  0  0  0  0
 24 42  1  0  0  0  0
 24 43  1  0  0  0  0
M  END
> <Chemgauss4>
-12.703243

$$$$
