stable:False satoms:19 tatoms:24 sratio:0.7916666666666666
  -OEChem-08052415073D

 26 28  0     1  0  0  0  0  0999 V2000
    7.0285   -4.7893   23.3802 C   0  0  0  0  0  0  0  0  0  0  0  0
    5.8479   -3.8924   25.1166 C   0  0  0  0  0  0  0  0  0  0  0  0
   13.5502   -0.5309   23.4884 C   0  0  0  0  0  0  0  0  0  0  0  0
    8.7346   -3.9725   22.5649 H   0  0  0  0  0  0  0  0  0  0  0  0
   13.4971   -2.4766   22.4537 H   0  0  0  0  0  0  0  0  0  0  0  0
    6.2485   -2.8917   25.7813 C   0  0  0  0  0  0  0  0  0  0  0  0
   14.5720   -0.2193   23.2969 H   0  0  0  0  0  0  0  0  0  0  0  0
    7.0474   -6.0392   22.1892 Cl  0  0  0  0  0  0  0  0  0  0  0  0
    5.9007   -4.7682   24.2106 C   0  0  3  0  0  0  0  0  0  0  0  0
   12.9933   -1.6890   23.0168 C   0  0  0  0  0  0  0  0  0  0  0  0
    5.8377   -5.7506   24.7014 H   0  0  0  0  0  0  0  0  0  0  0  0
    8.0420   -3.8877   23.3833 C   0  0  0  0  0  0  0  0  0  0  0  0
   10.5931   -2.5556   23.3389 N   0  0  0  0  0  0  0  0  0  0  0  0
   11.4266   -0.5601   24.1936 C   0  0  0  0  0  0  0  0  0  0  0  0
   11.6574   -1.7037   23.4411 C   0  0  0  0  0  0  0  0  0  0  0  0
    7.6925   -1.3920   25.7604 H   0  0  0  0  0  0  0  0  0  0  0  0
    7.4183   -2.3222   25.3091 C   0  0  0  0  0  0  0  0  0  0  0  0
    8.2903   -2.8160   24.3080 C   0  0  0  0  0  0  0  0  0  0  0  0
    5.7219   -2.5408   26.6378 H   0  0  0  0  0  0  0  0  0  0  0  0
    9.7947   -0.5465   24.7880 S   0  0  0  0  0  0  0  0  0  0  0  0
   12.8065    1.0523   24.8449 H   0  0  0  0  0  0  0  0  0  0  0  0
    9.5323   -2.1593   24.0952 C   0  0  3  0  0  0  0  0  0  0  0  0
   12.6199    0.1506   24.2709 C   0  0  0  0  0  0  0  0  0  0  0  0
    4.9229   -4.1397   25.6162 H   0  0  0  0  0  0  0  0  0  0  0  0
    5.0219   -4.6240   23.5648 H   0  0  0  0  0  0  0  0  0  0  0  0
    9.9624   -2.6336   24.9897 H   0  0  0  0  0  0  0  0  0  0  0  0
  9 11  1  0  0  0  0
  6 19  1  0  0  0  0
  2  9  1  0  0  0  0
  2  6  2  0  0  0  0
  1  9  1  0  0  0  0
  6 17  1  0  0  0  0
  1  8  1  0  0  0  0
  1 12  2  0  0  0  0
 16 17  1  0  0  0  0
 17 18  2  0  0  0  0
 12 18  1  0  0  0  0
  4 12  1  0  0  0  0
 18 22  1  0  0  0  0
 20 22  1  0  0  0  0
 14 20  1  0  0  0  0
 13 22  1  0  0  0  0
 13 15  2  0  0  0  0
 14 15  1  0  0  0  0
 14 23  2  0  0  0  0
 10 15  1  0  0  0  0
 21 23  1  0  0  0  0
  3 23  1  0  0  0  0
  3 10  2  0  0  0  0
  5 10  1  0  0  0  0
  3  7  1  0  0  0  0
  2 24  1  0  0  0  0
  9 25  1  0  0  0  0
 22 26  1  0  0  0  0
M  END
> <Chemgauss4>
-8.201872

$$$$
