stable:False satoms:19 tatoms:24 sratio:0.7916666666666666
  -OEChem-08052415073D

 26 28  0     1  0  0  0  0  0999 V2000
   -7.0927   -4.8082  -23.3715 C   0  0  0  0  0  0  0  0  0  0  0  0
   -5.9121   -3.9113  -25.1079 C   0  0  0  0  0  0  0  0  0  0  0  0
  -13.6145   -0.5498  -23.4797 C   0  0  0  0  0  0  0  0  0  0  0  0
   -8.7988   -3.9914  -22.5562 H   0  0  0  0  0  0  0  0  0  0  0  0
  -13.5613   -2.4955  -22.4451 H   0  0  0  0  0  0  0  0  0  0  0  0
   -6.3127   -2.9106  -25.7726 C   0  0  0  0  0  0  0  0  0  0  0  0
  -14.6363   -0.2382  -23.2882 H   0  0  0  0  0  0  0  0  0  0  0  0
   -7.1117   -6.0581  -22.1805 Cl  0  0  0  0  0  0  0  0  0  0  0  0
   -5.9649   -4.7871  -24.2019 C   0  0  3  0  0  0  0  0  0  0  0  0
  -13.0576   -1.7079  -23.0081 C   0  0  0  0  0  0  0  0  0  0  0  0
   -5.9020   -5.7695  -24.6927 H   0  0  0  0  0  0  0  0  0  0  0  0
   -8.1063   -3.9066  -23.3746 C   0  0  0  0  0  0  0  0  0  0  0  0
  -10.6573   -2.5745  -23.3303 N   0  0  0  0  0  0  0  0  0  0  0  0
  -11.4908   -0.5790  -24.1849 C   0  0  0  0  0  0  0  0  0  0  0  0
  -11.7217   -1.7226  -23.4324 C   0  0  0  0  0  0  0  0  0  0  0  0
   -7.7568   -1.4108  -25.7517 H   0  0  0  0  0  0  0  0  0  0  0  0
   -7.4826   -2.3411  -25.3004 C   0  0  0  0  0  0  0  0  0  0  0  0
   -8.3545   -2.8349  -24.2993 C   0  0  0  0  0  0  0  0  0  0  0  0
   -5.7862   -2.5597  -26.6292 H   0  0  0  0  0  0  0  0  0  0  0  0
   -9.8590   -0.5654  -24.7793 S   0  0  0  0  0  0  0  0  0  0  0  0
  -12.8708    1.0334  -24.8362 H   0  0  0  0  0  0  0  0  0  0  0  0
   -9.5966   -2.1782  -24.0865 C   0  0  3  0  0  0  0  0  0  0  0  0
  -12.6841    0.1317  -24.2622 C   0  0  0  0  0  0  0  0  0  0  0  0
   -4.9871   -4.1586  -25.6075 H   0  0  0  0  0  0  0  0  0  0  0  0
   -5.0862   -4.6429  -23.5561 H   0  0  0  0  0  0  0  0  0  0  0  0
  -10.0266   -2.6525  -24.9810 H   0  0  0  0  0  0  0  0  0  0  0  0
  9 11  1  0  0  0  0
  6 19  1  0  0  0  0
  2  9  1  0  0  0  0
  2  6  2  0  0  0  0
  1  9  1  0  0  0  0
  6 17  1  0  0  0  0
  1  8  1  0  0  0  0
  1 12  2  0  0  0  0
 16 17  1  0  0  0  0
 17 18  2  0  0  0  0
 12 18  1  0  0  0  0
  4 12  1  0  0  0  0
 18 22  1  0  0  0  0
 20 22  1  0  0  0  0
 14 20  1  0  0  0  0
 13 22  1  0  0  0  0
 13 15  2  0  0  0  0
 14 15  1  0  0  0  0
 14 23  2  0  0  0  0
 10 15  1  0  0  0  0
 21 23  1  0  0  0  0
  3 23  1  0  0  0  0
  3 10  2  0  0  0  0
  5 10  1  0  0  0  0
  3  7  1  0  0  0  0
  2 24  1  0  0  0  0
  9 25  1  0  0  0  0
 22 26  1  0  0  0  0
M  END
> <Chemgauss4>
-8.159586

$$$$
