stable:False satoms:16 tatoms:24 sratio:0.6666666666666666
  -OEChem-07092417323D

 24 24  0     1  0  0  0  0  0999 V2000
    6.6521   -3.0970   25.6898 O   0  0  0  0  0  0  0  0  0  0  0  0
    8.7561   -0.5610   25.1928 N   0  3  0  0  0  0  0  0  0  0  0  0
    9.1086   -3.1341   26.4140 S   0  0  0  0  0  0  0  0  0  0  0  0
    7.8564   -2.7924   25.2145 C   0  0  0  0  0  0  0  0  0  0  0  0
    7.8205   -2.9312   23.8434 O   0  0  0  0  0  0  0  0  0  0  0  0
    7.7422   -0.1225   23.1444 C   0  3  0  0  0  0  0  0  0  0  0  0
    8.9202   -0.3981   23.9175 C   0  0  3  0  0  0  0  0  0  0  0  0
   11.0723   -1.5186   21.8846 H   0  0  0  0  0  0  0  0  0  0  0  0
   10.8359    0.1250   24.4249 H   0  0  0  0  0  0  0  0  0  0  0  0
    8.7113   -1.8889   25.5169 C   0  0  1  0  0  0  0  0  0  0  0  0
   12.2118   -1.3979   23.2521 H   0  0  0  0  0  0  0  0  0  0  0  0
    8.9216   -1.4288   19.5307 H   0  0  0  0  0  0  0  0  0  0  0  0
   11.4752   -0.8602   22.6526 C   0  0  0  0  0  0  0  0  0  0  0  0
   11.9783   -0.0316   22.1842 H   0  0  0  0  0  0  0  0  0  0  0  0
    8.8753   -1.6161   21.7979 H   0  0  0  0  0  0  0  0  0  0  0  0
    7.8753   -1.3017   19.9145 C   0  0  0  0  0  0  0  0  0  0  0  0
    8.0891   -1.1714   21.3189 N   0  0  0  0  0  0  0  0  0  0  0  0
    7.1877   -2.1741   19.8806 H   0  0  0  0  0  0  0  0  0  0  0  0
    6.4293    0.1401   19.3669 H   0  0  0  0  0  0  0  0  0  0  0  0
    7.2191   -0.5869   18.0537 H   0  0  0  0  0  0  0  0  0  0  0  0
    7.2480   -0.3033   19.0145 N   0  0  0  0  0  0  0  0  0  0  0  0
    7.2131   -0.5013   21.9690 N   0  0  0  0  0  0  0  0  0  0  0  0
   10.3370   -0.3730   23.5775 C   0  5  3  0  0  0  0  0  0  0  0  0
    7.0475    0.6349   23.5408 H   0  0  0  0  0  0  0  0  0  0  0  0
 20 21  1  0  0  0  0
 19 21  1  0  0  0  0
 16 21  1  0  0  0  0
 12 16  1  0  0  0  0
 16 18  1  0  0  0  0
 16 17  1  0  0  0  0
 15 17  1  0  0  0  0
 17 22  1  0  0  0  0
  8 13  1  0  0  0  0
  6 22  1  0  0  0  0
 13 14  1  0  0  0  0
 11 13  1  0  0  0  0
 13 23  1  0  0  0  0
  6 24  1  0  0  0  0
  6  7  1  0  0  0  0
  7 23  1  0  0  0  0
  9 23  1  0  0  0  0
  4  5  1  0  0  0  0
  2  7  1  0  0  0  0
  2 10  1  0  0  0  0
  4 10  1  0  0  0  0
  1  4  1  0  0  0  0
  3  4  1  0  0  0  0
  3 10  1  0  0  0  0
M  CHG  3   2   1   6   1  23  -1
M  END
> <Shapegauss>
-123.740608

$$$$
