stable:False satoms:16 tatoms:24 sratio:0.6666666666666666
  -OEChem-08052422063D

 31 31  0     1  0  0  0  0  0999 V2000
    9.2452   -0.8386   27.1818 O   0  0  0  0  0  0  0  0  0  0  0  0
   10.5954   -1.5410   24.2172 N   0  0  0  0  0  0  0  0  0  0  0  0
    7.9404   -1.8955   25.2477 S   0  0  0  0  0  0  0  0  0  0  0  0
    9.0707   -0.6886   25.8718 C   0  0  0  0  0  0  0  0  0  0  0  0
    9.2750    0.6396   25.5644 O   0  0  0  0  0  0  0  0  0  0  0  0
   11.8922    0.3868   24.3521 C   0  0  0  0  0  2  0  0  0  0  0  0
   10.9483   -0.4326   23.6456 C   0  0  3  0  0  0  0  0  0  0  0  0
    9.4648    1.4812   21.6069 H   0  0  0  0  0  0  0  0  0  0  0  0
    9.7293   -1.2182   22.3277 H   0  0  0  0  0  0  0  0  0  0  0  0
    9.3965   -1.4024   24.8603 C   0  0  1  0  0  0  0  0  0  0  0  0
    8.7470   -0.0150   20.9517 H   0  0  0  0  0  0  0  0  0  0  0  0
   11.0429    3.9899   22.7861 H   0  0  0  0  0  0  0  0  0  0  0  0
    9.6787    0.4862   21.2196 C   0  0  0  0  0  0  0  0  0  0  0  0
   10.2719    0.5714   20.3252 H   0  0  0  0  0  0  0  0  0  0  0  0
   10.3930    1.9465   23.5475 H   0  0  0  0  0  0  0  0  0  0  0  0
   11.5392    3.7589   23.7651 C   0  0  0  0  0  0  0  0  0  0  0  0
   11.2398    2.3739   23.9291 N   0  0  0  0  0  0  0  0  0  0  0  0
   11.1044    4.1856   24.6946 H   0  0  0  0  0  0  0  0  0  0  0  0
   13.3740    3.9907   22.8882 H   0  0  0  0  0  0  0  0  0  0  0  0
   12.7963    5.3617   23.5613 H   0  0  0  0  0  0  0  0  0  0  0  0
   12.8868    4.3722   23.6738 N   0  0  0  0  0  0  0  0  0  0  0  0
   12.0682    1.6903   24.6259 N   0  3  0  0  0  0  0  0  0  0  0  0
   10.4060   -0.3515   22.2955 C   0  0  3  0  0  0  0  0  0  0  0  0
    9.1092   -1.7487   27.4176 H   0  0  0  0  0  0  0  0  0  0  0  0
   10.5127   -2.2552   23.5221 H   0  0  0  0  0  0  0  0  0  0  0  0
    9.0357    1.1780   26.3097 H   0  0  0  0  0  0  0  0  0  0  0  0
   10.0921    0.1137   24.0682 H   0  0  0  0  0  0  0  0  0  0  0  0
    9.0163   -0.6702   24.1328 H   0  0  0  0  0  0  0  0  0  0  0  0
   13.0033    1.9589   24.3950 H   0  0  0  0  0  0  0  0  0  0  0  0
   11.3114   -0.6141   21.7286 H   0  0  0  0  0  0  0  0  0  0  0  0
   11.9047    1.8544   25.5987 H   0  0  0  0  0  0  0  0  0  0  0  0
 20 21  1  0  0  0  0
 19 21  1  0  0  0  0
 16 21  1  0  0  0  0
 12 16  1  0  0  0  0
 16 18  1  0  0  0  0
 16 17  1  0  0  0  0
 15 17  1  0  0  0  0
 17 22  1  0  0  0  0
  8 13  1  0  0  0  0
  6 22  1  0  0  0  0
 13 14  1  0  0  0  0
 11 13  1  0  0  0  0
 13 23  1  0  0  0  0
  6  7  1  0  0  0  0
  7 23  1  0  0  0  0
  9 23  1  0  0  0  0
  4  5  1  0  0  0  0
  2  7  1  0  0  0  0
  2 10  1  0  0  0  0
  4 10  1  0  0  0  0
  1  4  1  0  0  0  0
  3  4  1  0  0  0  0
  3 10  1  0  0  0  0
  1 24  1  0  0  0  0
  2 25  1  0  0  0  0
  5 26  1  0  0  0  0
  7 27  1  0  0  0  0
 10 28  1  0  0  0  0
 22 29  1  0  0  0  0
 23 30  1  0  0  0  0
 22 31  1  0  0  0  0
M  CHG  1  22   1
M  END
> <Chemgauss4>
-4.941404

$$$$
