stable:False satoms:16 tatoms:24 sratio:0.6666666666666666
  -OEChem-08052422063D

 31 31  0     1  0  0  0  0  0999 V2000
  -11.5258   -2.3553  -22.5378 O   0  0  0  0  0  0  0  0  0  0  0  0
  -10.0761   -0.4245  -24.8347 N   0  0  0  0  0  0  0  0  0  0  0  0
  -12.7717   -0.5480  -23.8574 S   0  0  0  0  0  0  0  0  0  0  0  0
  -11.3742   -1.0909  -22.9216 C   0  0  0  0  0  0  0  0  0  0  0  0
  -10.5738   -0.4578  -21.9948 O   0  0  0  0  0  0  0  0  0  0  0  0
   -8.1351   -0.3581  -23.5524 C   0  0  0  0  0  2  0  0  0  0  0  0
   -9.1880    0.3201  -24.2544 C   0  0  3  0  0  0  0  0  0  0  0  0
   -9.3155    3.2448  -23.0504 H   0  0  0  0  0  0  0  0  0  0  0  0
  -10.3572    1.6424  -25.1055 H   0  0  0  0  0  0  0  0  0  0  0  0
  -11.1999   -0.5403  -24.0640 C   0  0  1  0  0  0  0  0  0  0  0  0
  -10.4640    3.5812  -24.3736 H   0  0  0  0  0  0  0  0  0  0  0  0
   -7.0728    2.4823  -20.9142 H   0  0  0  0  0  0  0  0  0  0  0  0
   -9.4752    3.1911  -24.1261 C   0  0  0  0  0  0  0  0  0  0  0  0
   -8.7473    3.8069  -24.6261 H   0  0  0  0  0  0  0  0  0  0  0  0
   -8.6552    1.3675  -22.1103 H   0  0  0  0  0  0  0  0  0  0  0  0
   -6.9119    1.3745  -20.8427 C   0  0  0  0  0  0  0  0  0  0  0  0
   -7.7942    0.8818  -21.8496 N   0  0  0  0  0  0  0  0  0  0  0  0
   -7.2892    0.8401  -19.9444 H   0  0  0  0  0  0  0  0  0  0  0  0
   -5.0241    1.6010  -21.6003 H   0  0  0  0  0  0  0  0  0  0  0  0
   -5.0809    1.6479  -19.9690 H   0  0  0  0  0  0  0  0  0  0  0  0
   -5.4403    1.1967  -20.7859 N   0  0  0  0  0  0  0  0  0  0  0  0
   -7.4780   -0.2365  -22.3869 N   0  3  0  0  0  0  0  0  0  0  0  0
   -9.3843    1.7224  -24.5985 C   0  0  3  0  0  0  0  0  0  0  0  0
  -12.0754   -2.8128  -23.1632 H   0  0  0  0  0  0  0  0  0  0  0  0
  -10.3229   -0.0146  -25.7128 H   0  0  0  0  0  0  0  0  0  0  0  0
  -10.6963   -0.8598  -21.1428 H   0  0  0  0  0  0  0  0  0  0  0  0
   -9.7944    0.4150  -23.3415 H   0  0  0  0  0  0  0  0  0  0  0  0
  -11.0922    0.4688  -23.6394 H   0  0  0  0  0  0  0  0  0  0  0  0
   -6.4922   -0.2629  -22.5525 H   0  0  0  0  0  0  0  0  0  0  0  0
   -8.5875    1.8303  -25.3491 H   0  0  0  0  0  0  0  0  0  0  0  0
   -7.7339   -0.9865  -21.7770 H   0  0  0  0  0  0  0  0  0  0  0  0
 20 21  1  0  0  0  0
 19 21  1  0  0  0  0
 16 21  1  0  0  0  0
 12 16  1  0  0  0  0
 16 18  1  0  0  0  0
 16 17  1  0  0  0  0
 15 17  1  0  0  0  0
 17 22  1  0  0  0  0
  8 13  1  0  0  0  0
  6 22  1  0  0  0  0
 13 14  1  0  0  0  0
 11 13  1  0  0  0  0
 13 23  1  0  0  0  0
  6  7  1  0  0  0  0
  7 23  1  0  0  0  0
  9 23  1  0  0  0  0
  4  5  1  0  0  0  0
  2  7  1  0  0  0  0
  2 10  1  0  0  0  0
  4 10  1  0  0  0  0
  1  4  1  0  0  0  0
  3  4  1  0  0  0  0
  3 10  1  0  0  0  0
  1 24  1  0  0  0  0
  2 25  1  0  0  0  0
  5 26  1  0  0  0  0
  7 27  1  0  0  0  0
 10 28  1  0  0  0  0
 22 29  1  0  0  0  0
 23 30  1  0  0  0  0
 22 31  1  0  0  0  0
M  CHG  1  22   1
M  END
> <Chemgauss4>
-4.889863

$$$$
