stable:False satoms:14 tatoms:24 sratio:0.5833333333333334
  -OEChem-08062404343D

 34 33  0     1  0  0  0  0  0999 V2000
    6.2834    2.2946   18.6359 H   0  0  0  0  0  0  0  0  0  0  0  0
    5.8878    1.1348   18.7571 C   0  0  0  0  0  0  0  0  0  0  0  0
    5.9153    0.7751   17.4872 O   0  0  0  0  0  0  0  0  0  0  0  0
    4.7195    1.0391   19.4192 O   0  0  0  0  0  0  0  0  0  0  0  0
    6.9172    0.2528   19.5061 N   0  3  0  0  0  0  0  0  0  0  0  0
    6.7485   -0.6561   20.2450 C   0  0  0  0  0  0  0  0  0  0  0  0
    6.8942   -1.4609   21.3880 C   0  0  3  0  0  0  0  0  0  0  0  0
    6.2787   -3.7652   21.9511 C   0  0  0  0  0  0  0  0  0  0  0  0
    5.9368   -2.3894   21.9072 C   0  0  3  0  0  0  0  0  0  0  0  0
    5.0310   -2.3001   21.2896 H   0  0  0  0  0  0  0  0  0  0  0  0
    6.2141   -4.1310   22.9848 H   0  0  0  0  0  0  0  0  0  0  0  0
    5.5979   -4.4428   21.4016 H   0  0  0  0  0  0  0  0  0  0  0  0
    7.2703   -3.9259   21.5089 H   0  0  0  0  0  0  0  0  0  0  0  0
    7.9795   -1.3998   22.0928 N   0  0  0  0  0  0  0  0  0  0  0  0
    8.8636   -2.1199   22.7523 C   0  0  0  0  0  0  0  0  0  0  0  0
    8.6711   -2.8893   23.6836 O   0  0  0  0  0  0  0  0  0  0  0  0
   10.0482   -1.7613   22.2132 N   0  0  0  0  0  0  0  0  0  0  0  0
   11.2204   -1.8152   22.7278 C   0  0  0  0  0  0  0  0  0  0  0  0
   11.9079   -2.6338   22.4259 H   0  0  0  0  0  0  0  0  0  0  0  0
   13.6494   -2.2795   23.8394 O   0  5  0  0  0  0  0  0  0  0  0  0
   13.0726   -1.1615   24.0082 C   0  0  0  0  0  0  0  0  0  0  0  0
   13.3797   -0.1472   24.5261 O   0  0  0  0  0  0  0  0  0  0  0  0
   11.7416   -0.8569   23.5569 C   0  0  0  0  0  0  0  0  0  0  0  0
   10.8126    0.5735   23.9193 Cl  0  0  0  0  0  0  0  0  0  0  0  0
    5.2929    1.2983   16.9958 H   0  0  0  0  0  0  0  0  0  0  0  0
    4.0637    1.5707   18.9837 H   0  0  0  0  0  0  0  0  0  0  0  0
    7.4531    0.9056   20.0415 H   0  0  0  0  0  0  0  0  0  0  0  0
    6.9870   -1.4446   19.5161 H   0  0  0  0  0  0  0  0  0  0  0  0
    5.6567   -0.5441   20.3199 H   0  0  0  0  0  0  0  0  0  0  0  0
    7.3364   -2.2582   20.7725 H   0  0  0  0  0  0  0  0  0  0  0  0
    5.7101   -2.0788   22.9378 H   0  0  0  0  0  0  0  0  0  0  0  0
    8.2490   -0.4394   22.1628 H   0  0  0  0  0  0  0  0  0  0  0  0
   10.0047   -1.4030   21.2805 H   0  0  0  0  0  0  0  0  0  0  0  0
    7.4869   -0.1281   18.7778 H   0  0  0  0  0  0  0  0  0  0  0  0
 20 21  1  0  0  0  0
 21 22  2  0  0  0  0
 21 23  1  0  0  0  0
 18 19  1  0  0  0  0
 18 23  2  0  0  0  0
 17 18  1  0  0  0  0
 23 24  1  0  0  0  0
 15 17  1  0  0  0  0
 15 16  2  0  0  0  0
 14 15  1  0  0  0  0
  8 13  1  0  0  0  0
  8 11  1  0  0  0  0
  7 14  1  0  0  0  0
  8 12  1  0  0  0  0
  8  9  1  0  0  0  0
  7  9  1  0  0  0  0
  6  7  1  0  0  0  0
  9 10  1  0  0  0  0
  5  6  1  0  0  0  0
  2  5  1  0  0  0  0
  2  3  1  0  0  0  0
  1  2  1  0  0  0  0
  2  4  1  0  0  0  0
  3 25  1  0  0  0  0
  4 26  1  0  0  0  0
  5 27  1  0  0  0  0
  6 28  1  0  0  0  0
  6 29  1  0  0  0  0
  7 30  1  0  0  0  0
  9 31  1  0  0  0  0
 14 32  1  0  0  0  0
 17 33  1  0  0  0  0
  5 34  1  0  0  0  0
M  CHG  2   5   1  20  -1
M  END
> <Chemgauss4>
-5.660364

$$$$
