stable:False satoms:14 tatoms:24 sratio:0.5833333333333334
  -OEChem-08062404343D

 34 33  0     1  0  0  0  0  0999 V2000
   -6.4427    2.2380  -18.6196 H   0  0  0  0  0  0  0  0  0  0  0  0
   -6.0470    1.0782  -18.7407 C   0  0  0  0  0  0  0  0  0  0  0  0
   -6.0746    0.7186  -17.4708 O   0  0  0  0  0  0  0  0  0  0  0  0
   -4.8788    0.9825  -19.4029 O   0  0  0  0  0  0  0  0  0  0  0  0
   -7.0765    0.1963  -19.4897 N   0  3  0  0  0  0  0  0  0  0  0  0
   -6.9077   -0.7126  -20.2287 C   0  0  0  0  0  0  0  0  0  0  0  0
   -7.0535   -1.5175  -21.3717 C   0  0  3  0  0  0  0  0  0  0  0  0
   -6.4380   -3.8218  -21.9347 C   0  0  0  0  0  0  0  0  0  0  0  0
   -6.0961   -2.4459  -21.8908 C   0  0  3  0  0  0  0  0  0  0  0  0
   -5.1902   -2.3566  -21.2732 H   0  0  0  0  0  0  0  0  0  0  0  0
   -6.3734   -4.1875  -22.9685 H   0  0  0  0  0  0  0  0  0  0  0  0
   -5.7571   -4.4994  -21.3853 H   0  0  0  0  0  0  0  0  0  0  0  0
   -7.4296   -3.9824  -21.4925 H   0  0  0  0  0  0  0  0  0  0  0  0
   -8.1388   -1.4564  -22.0764 N   0  0  0  0  0  0  0  0  0  0  0  0
   -9.0228   -2.1764  -22.7359 C   0  0  0  0  0  0  0  0  0  0  0  0
   -8.8304   -2.9459  -23.6672 O   0  0  0  0  0  0  0  0  0  0  0  0
  -10.2075   -1.8179  -22.1968 N   0  0  0  0  0  0  0  0  0  0  0  0
  -11.3797   -1.8718  -22.7115 C   0  0  0  0  0  0  0  0  0  0  0  0
  -12.0672   -2.6904  -22.4095 H   0  0  0  0  0  0  0  0  0  0  0  0
  -13.8087   -2.3361  -23.8230 O   0  5  0  0  0  0  0  0  0  0  0  0
  -13.2319   -1.2181  -23.9919 C   0  0  0  0  0  0  0  0  0  0  0  0
  -13.5389   -0.2038  -24.5098 O   0  0  0  0  0  0  0  0  0  0  0  0
  -11.9008   -0.9134  -23.5406 C   0  0  0  0  0  0  0  0  0  0  0  0
  -10.9719    0.5169  -23.9029 Cl  0  0  0  0  0  0  0  0  0  0  0  0
   -5.4522    1.2418  -16.9795 H   0  0  0  0  0  0  0  0  0  0  0  0
   -4.2230    1.5142  -18.9674 H   0  0  0  0  0  0  0  0  0  0  0  0
   -7.6124    0.8490  -20.0252 H   0  0  0  0  0  0  0  0  0  0  0  0
   -7.1463   -1.5012  -19.4998 H   0  0  0  0  0  0  0  0  0  0  0  0
   -5.8160   -0.6006  -20.3036 H   0  0  0  0  0  0  0  0  0  0  0  0
   -7.4956   -2.3147  -20.7562 H   0  0  0  0  0  0  0  0  0  0  0  0
   -5.8694   -2.1353  -22.9214 H   0  0  0  0  0  0  0  0  0  0  0  0
   -8.4082   -0.4959  -22.1465 H   0  0  0  0  0  0  0  0  0  0  0  0
  -10.1640   -1.4596  -21.2642 H   0  0  0  0  0  0  0  0  0  0  0  0
   -7.6462   -0.1847  -18.7615 H   0  0  0  0  0  0  0  0  0  0  0  0
 20 21  1  0  0  0  0
 21 22  2  0  0  0  0
 21 23  1  0  0  0  0
 18 19  1  0  0  0  0
 18 23  2  0  0  0  0
 17 18  1  0  0  0  0
 23 24  1  0  0  0  0
 15 17  1  0  0  0  0
 15 16  2  0  0  0  0
 14 15  1  0  0  0  0
  8 13  1  0  0  0  0
  8 11  1  0  0  0  0
  7 14  1  0  0  0  0
  8 12  1  0  0  0  0
  8  9  1  0  0  0  0
  7  9  1  0  0  0  0
  6  7  1  0  0  0  0
  9 10  1  0  0  0  0
  5  6  1  0  0  0  0
  2  5  1  0  0  0  0
  2  3  1  0  0  0  0
  1  2  1  0  0  0  0
  2  4  1  0  0  0  0
  3 25  1  0  0  0  0
  4 26  1  0  0  0  0
  5 27  1  0  0  0  0
  6 28  1  0  0  0  0
  6 29  1  0  0  0  0
  7 30  1  0  0  0  0
  9 31  1  0  0  0  0
 14 32  1  0  0  0  0
 17 33  1  0  0  0  0
  5 34  1  0  0  0  0
M  CHG  2   5   1  20  -1
M  END
> <Chemgauss4>
-5.826362

$$$$
