stable:False satoms:9 tatoms:24 sratio:0.375
  -OEChem-08062415063D

 43 44  0     1  0  0  0  0  0999 V2000
   -5.9917   -5.0940  -26.3385 C   0  0  0  0  0  0  0  0  0  0  0  0
   -7.6637   -4.5484  -26.0999 S   0  0  0  0  0  0  0  0  0  0  0  0
   -8.5057   -5.7007  -26.1011 O   0  0  0  0  0  0  0  0  0  0  0  0
   -7.9792   -3.6916  -27.1867 O   0  0  0  0  0  0  0  0  0  0  0  0
   -7.6039   -3.7955  -24.6928 N   0  0  0  0  0  0  0  0  0  0  0  0
   -8.5550   -3.1308  -24.2241 C   0  0  0  0  0  0  0  0  0  0  0  0
   -9.0738   -2.2503  -23.6746 C   0  0  0  0  0  0  0  0  0  0  0  0
   -9.9856   -1.3954  -23.4831 C   0  0  1  0  0  0  0  0  0  0  0  0
  -10.5676   -0.3237  -24.6465 C   0  0  0  0  0  0  0  0  0  0  0  0
  -11.6469   -0.0602  -24.7059 C   0  0  0  0  0  0  0  0  0  0  0  0
  -12.7463   -0.4553  -24.0229 C   0  0  0  0  0  0  0  0  0  0  0  0
  -12.4388   -1.4806  -23.1153 C   0  0  0  0  0  0  0  0  0  0  0  0
  -11.4895   -1.9174  -22.9094 C   0  0  0  0  0  0  0  0  0  0  0  0
   -9.4472   -0.7665  -22.5175 C   0  0  0  0  0  0  0  0  0  0  0  0
   -8.8576   -0.1614  -21.5535 C   0  0  0  0  0  0  0  0  0  0  0  0
   -9.3703    0.7951  -21.2012 O   0  0  0  0  0  0  0  0  0  0  0  0
   -7.7057   -0.7718  -21.1780 N   0  0  0  0  0  0  0  0  0  0  0  0
   -7.0894   -0.2898  -20.2308 C   0  0  0  0  0  0  0  0  0  0  0  0
   -7.2406   -0.1254  -18.9331 C   0  0  0  0  0  0  0  0  0  0  0  0
   -6.8203    0.2686  -17.8127 N   0  0  0  0  0  0  0  0  0  0  0  0
   -5.7828    0.7369  -18.2304 C   0  0  0  0  0  0  0  0  0  0  0  0
   -5.2552    0.8214  -19.3870 C   0  0  0  0  0  0  0  0  0  0  0  0
   -5.6707    0.3969  -20.5295 C   0  0  0  0  0  0  0  0  0  0  0  0
   -5.2418    0.4526  -21.5160 C   0  0  0  0  0  0  0  0  0  0  0  0
   -5.9145   -5.6343  -27.2935 H   0  0  0  0  0  0  0  0  0  0  0  0
   -5.3207   -4.2225  -26.3550 H   0  0  0  0  0  0  0  0  0  0  0  0
   -5.7034   -5.7631  -25.5144 H   0  0  0  0  0  0  0  0  0  0  0  0
   -6.8322   -3.1625  -24.7542 H   0  0  0  0  0  0  0  0  0  0  0  0
   -9.8771    0.1173  -25.3501 H   0  0  0  0  0  0  0  0  0  0  0  0
  -11.8638    0.6673  -25.4740 H   0  0  0  0  0  0  0  0  0  0  0  0
  -13.7323   -0.0360  -24.1587 H   0  0  0  0  0  0  0  0  0  0  0  0
  -13.2715   -1.8774  -22.5536 H   0  0  0  0  0  0  0  0  0  0  0  0
  -11.3986   -1.8956  -21.8134 H   0  0  0  0  0  0  0  0  0  0  0  0
  -11.5769   -2.9599  -23.2495 H   0  0  0  0  0  0  0  0  0  0  0  0
  -10.2593   -1.0777  -21.8439 H   0  0  0  0  0  0  0  0  0  0  0  0
   -9.7053    0.1964  -22.9825 H   0  0  0  0  0  0  0  0  0  0  0  0
   -7.3705   -1.5843  -21.6549 H   0  0  0  0  0  0  0  0  0  0  0  0
   -8.2178   -0.5347  -18.7235 H   0  0  0  0  0  0  0  0  0  0  0  0
   -5.1745    1.1776  -17.4544 H   0  0  0  0  0  0  0  0  0  0  0  0
   -4.3042    1.3325  -19.4136 H   0  0  0  0  0  0  0  0  0  0  0  0
   -4.6180   -0.4354  -21.6958 H   0  0  0  0  0  0  0  0  0  0  0  0
   -6.0472    0.4924  -22.2641 H   0  0  0  0  0  0  0  0  0  0  0  0
   -4.6222    1.3580  -21.5957 H   0  0  0  0  0  0  0  0  0  0  0  0
 20 21  2  0  0  0  0
 19 20  1  0  0  0  0
 21 22  1  0  0  0  0
 18 19  2  0  0  0  0
 22 23  2  0  0  0  0
 18 23  1  0  0  0  0
 17 18  1  0  0  0  0
 23 24  1  0  0  0  0
 15 16  2  0  0  0  0
 15 17  1  0  0  0  0
 14 15  1  0  0  0  0
  8 14  1  0  0  0  0
 12 13  1  0  0  0  0
  8 13  1  0  0  0  0
 11 12  2  0  0  0  0
  7  8  1  0  0  0  0
  8  9  1  0  0  0  0
  6  7  3  0  0  0  0
 10 11  1  0  0  0  0
  5  6  1  0  0  0  0
  9 10  2  0  0  0  0
  2  5  1  0  0  0  0
  2  3  2  0  0  0  0
  1  2  1  0  0  0  0
  2  4  2  0  0  0  0
  1 25  1  0  0  0  0
  1 26  1  0  0  0  0
  1 27  1  0  0  0  0
  5 28  1  0  0  0  0
  9 29  1  0  0  0  0
 10 30  1  0  0  0  0
 11 31  1  0  0  0  0
 12 32  1  0  0  0  0
 13 33  1  0  0  0  0
 13 34  1  0  0  0  0
 14 35  1  0  0  0  0
 14 36  1  0  0  0  0
 17 37  1  0  0  0  0
 19 38  1  0  0  0  0
 21 39  1  0  0  0  0
 22 40  1  0  0  0  0
 24 41  1  0  0  0  0
 24 42  1  0  0  0  0
 24 43  1  0  0  0  0
M  END
> <Chemgauss4>
-12.745107

$$$$
