
 OpenBabel07202414173D

 39 41  0  0  0  0  0  0  0  0999 V2000
    0.9469    0.0341   -0.4315 Cl  0  0  0  0  0  0  0  0  0  0  0  0
    2.6903    0.0798   -0.7479 C   0  0  0  0  0  0  0  0  0  0  0  0
    3.2923    1.4553   -0.4872 C   0  0  0  0  0  0  0  0  0  0  0  0
    2.6170    2.4195   -0.1181 O   0  0  0  0  0  0  0  0  0  0  0  0
    4.6669    1.5711   -0.6679 N   0  0  0  0  0  0  0  0  0  0  0  0
    5.5483    0.5137   -1.1477 C   0  0  0  0  0  0  0  0  0  0  0  0
    6.7002    0.2829   -0.1719 C   0  0  0  0  0  0  0  0  0  0  0  0
    7.4121    1.5239    0.1636 N   0  0  0  0  0  0  0  0  0  0  0  0
    8.8004    1.7024    0.2270 C   0  0  0  0  0  0  0  0  0  0  0  0
    9.3143    2.7987    0.4235 O   0  0  0  0  0  0  0  0  0  0  0  0
    9.7199    0.5407    0.0385 C   0  0  0  0  0  0  0  0  0  0  0  0
   10.9269    0.7336   -0.6354 C   0  0  0  0  0  0  0  0  0  0  0  0
   11.7913   -0.3461   -0.8610 C   0  0  0  0  0  0  0  0  0  0  0  0
   11.4391   -1.6421   -0.4436 C   0  0  0  0  0  0  0  0  0  0  0  0
   12.2547   -2.7581   -0.6935 C   0  0  0  0  0  0  0  0  0  0  0  0
   11.8621   -4.0353   -0.2865 C   0  0  0  0  0  0  0  0  0  0  0  0
   10.6476   -4.2206    0.3671 C   0  0  0  0  0  0  0  0  0  0  0  0
    9.8345   -3.1224    0.6401 C   0  0  0  0  0  0  0  0  0  0  0  0
   10.2289   -1.8325    0.2556 C   0  0  0  0  0  0  0  0  0  0  0  0
    9.4244   -0.7273    0.5510 C   0  0  0  0  0  0  0  0  0  0  0  0
    6.5385    2.6377    0.5755 C   0  0  0  0  0  0  0  0  0  0  0  0
    5.3546    2.8412   -0.3883 C   0  0  0  0  0  0  0  0  0  0  0  0
    2.8425   -0.2011   -1.7946 H   0  0  0  0  0  0  0  0  0  0  0  0
    3.1574   -0.6550   -0.0856 H   0  0  0  0  0  0  0  0  0  0  0  0
    5.9428    0.8373   -2.1190 H   0  0  0  0  0  0  0  0  0  0  0  0
    5.0222   -0.4288   -1.3074 H   0  0  0  0  0  0  0  0  0  0  0  0
    7.3542   -0.4538   -0.6349 H   0  0  0  0  0  0  0  0  0  0  0  0
    6.3140   -0.1222    0.7730 H   0  0  0  0  0  0  0  0  0  0  0  0
   11.2105    1.7282   -0.9808 H   0  0  0  0  0  0  0  0  0  0  0  0
   12.7319   -0.1710   -1.3776 H   0  0  0  0  0  0  0  0  0  0  0  0
   13.2054   -2.6396   -1.2102 H   0  0  0  0  0  0  0  0  0  0  0  0
   12.5050   -4.8904   -0.4822 H   0  0  0  0  0  0  0  0  0  0  0  0
   10.3320   -5.2155    0.6691 H   0  0  0  0  0  0  0  0  0  0  0  0
    8.8841   -3.2837    1.1439 H   0  0  0  0  0  0  0  0  0  0  0  0
    8.5455   -0.8692    1.1715 H   0  0  0  0  0  0  0  0  0  0  0  0
    7.1011    3.5717    0.6732 H   0  0  0  0  0  0  0  0  0  0  0  0
    6.1593    2.3790    1.5723 H   0  0  0  0  0  0  0  0  0  0  0  0
    5.7222    3.2189   -1.3496 H   0  0  0  0  0  0  0  0  0  0  0  0
    4.6665    3.5868    0.0218 H   0  0  0  0  0  0  0  0  0  0  0  0
  1  2  1  0  0  0  0
  2  3  1  0  0  0  0
  2 23  1  0  0  0  0
  2 24  1  0  0  0  0
  3  4  2  0  0  0  0
  3  5  1  0  0  0  0
  5  6  1  0  0  0  0
  5 22  1  0  0  0  0
  6  7  1  0  0  0  0
  6 25  1  0  0  0  0
  6 26  1  0  0  0  0
  7  8  1  0  0  0  0
  7 27  1  0  0  0  0
  7 28  1  0  0  0  0
  8  9  1  0  0  0  0
  8 21  1  0  0  0  0
  9 10  2  0  0  0  0
  9 11  1  0  0  0  0
 11 12  1  0  0  0  0
 11 20  2  0  0  0  0
 12 13  2  0  0  0  0
 12 29  1  0  0  0  0
 13 14  1  0  0  0  0
 13 30  1  0  0  0  0
 14 15  1  0  0  0  0
 14 19  2  0  0  0  0
 15 16  2  0  0  0  0
 15 31  1  0  0  0  0
 16 17  1  0  0  0  0
 16 32  1  0  0  0  0
 17 18  2  0  0  0  0
 17 33  1  0  0  0  0
 18 19  1  0  0  0  0
 18 34  1  0  0  0  0
 19 20  1  0  0  0  0
 20 35  1  0  0  0  0
 21 22  1  0  0  0  0
 21 36  1  0  0  0  0
 21 37  1  0  0  0  0
 22 38  1  0  0  0  0
 22 39  1  0  0  0  0
M  END
$$$$
