stable:False satoms:12 tatoms:24 sratio:0.5
  -OEChem-08062411263D

 28 29  0     1  0  0  0  0  0999 V2000
   -6.4320   -5.5305  -26.2330 Cl  0  0  0  0  0  0  0  0  0  0  0  0
   -8.1605   -4.7602  -26.1223 S   0  0  0  0  0  0  0  0  0  0  0  0
   -9.0900   -5.8765  -26.0386 O   0  0  0  0  0  0  0  0  0  0  0  0
   -8.4128   -3.8961  -27.2335 O   0  0  0  0  0  0  0  0  0  0  0  0
   -7.9767   -3.9296  -24.7436 N   0  0  0  0  0  0  0  0  0  0  0  0
   -8.7776   -3.1062  -24.3532 C   0  0  0  0  0  0  0  0  0  0  0  0
   -9.3214   -2.2302  -23.9313 C   0  0  0  0  0  0  0  0  0  0  0  0
  -10.3125   -1.1738  -23.7721 C   0  0  1  0  0  0  0  0  0  0  0  0
  -10.3830   -0.6596  -24.7828 H   0  0  0  0  0  0  0  0  0  0  0  0
  -12.7652   -0.5236  -23.8718 H   0  0  0  0  0  0  0  0  0  0  0  0
  -12.7652   -0.5236  -23.8718 C   0  0  0  0  0  2  0  0  0  0  0  0
  -11.7301   -1.4915  -22.8196 S   0  3  2  0  0  0  0  0  0  0  0  0
  -10.2674   -0.7032  -22.6913 C   0  0  3  0  0  0  0  0  0  0  0  0
   -9.2905    0.0481  -21.7060 C   0  0  0  0  0  0  0  0  0  0  0  0
   -9.5876    1.1377  -21.2888 O   0  0  0  0  0  0  0  0  0  0  0  0
   -8.1170   -0.5742  -21.3383 N   0  0  0  0  0  0  0  0  0  0  0  0
   -7.3552   -0.0837  -20.3271 C   0  0  0  0  0  0  0  0  0  0  0  0
   -7.6874   -0.0840  -19.0246 N   0  0  0  0  0  0  0  0  0  0  0  0
   -7.0685    0.2910  -18.0597 N   0  0  0  0  0  0  0  0  0  0  0  0
   -5.9361    0.7635  -18.2458 C   0  0  0  0  0  0  0  0  0  0  0  0
   -5.5715    0.7574  -19.3836 C   0  0  0  0  0  0  0  0  0  0  0  0
   -6.0125    0.3736  -20.5463 C   0  0  0  0  0  0  0  0  0  0  0  0
   -5.5204    0.3528  -21.5168 H   0  0  0  0  0  0  0  0  0  0  0  0
   -7.1051   -3.4467  -24.8279 H   0  0  0  0  0  0  0  0  0  0  0  0
  -10.7094    0.2444  -23.0330 H   0  0  0  0  0  0  0  0  0  0  0  0
   -7.8227   -1.3981  -21.8227 H   0  0  0  0  0  0  0  0  0  0  0  0
   -5.3275    1.1501  -17.4418 H   0  0  0  0  0  0  0  0  0  0  0  0
   -4.5901    1.1990  -19.4734 H   0  0  0  0  0  0  0  0  0  0  0  0
 19 20  2  0  0  0  0
 18 19  1  0  0  0  0
 20 21  1  0  0  0  0
 17 18  2  0  0  0  0
 21 22  2  0  0  0  0
 17 22  1  0  0  0  0
 16 17  1  0  0  0  0
 22 23  1  0  0  0  0
 14 15  2  0  0  0  0
 14 16  1  0  0  0  0
 13 14  1  0  0  0  0
 12 13  1  0  0  0  0
  8 13  1  0  0  0  0
 11 12  1  0  0  0  0
  8 12  1  0  0  0  0
 10 11  1  0  0  0  0
  7  8  1  0  0  0  0
  8  9  1  0  0  0  0
  6  7  3  0  0  0  0
  5  6  1  0  0  0  0
  2  5  1  0  0  0  0
  2  3  2  0  0  0  0
  1  2  1  0  0  0  0
  2  4  2  0  0  0  0
  5 24  1  0  0  0  0
 13 25  1  0  0  0  0
 16 26  1  0  0  0  0
 20 27  1  0  0  0  0
 21 28  1  0  0  0  0
M  CHG  1  12   1
M  END
> <Chemgauss4>
-11.086752

$$$$
