stable:False satoms:12 tatoms:24 sratio:0.5
  -OEChem-08062411263D

 28 29  0     1  0  0  0  0  0999 V2000
    6.6172   -5.4229   26.2166 Cl  0  0  0  0  0  0  0  0  0  0  0  0
    8.3458   -4.6526   26.1060 S   0  0  0  0  0  0  0  0  0  0  0  0
    9.2753   -5.7689   26.0222 O   0  0  0  0  0  0  0  0  0  0  0  0
    8.5981   -3.7886   27.2171 O   0  0  0  0  0  0  0  0  0  0  0  0
    8.1620   -3.8220   24.7273 N   0  0  0  0  0  0  0  0  0  0  0  0
    8.9629   -2.9987   24.3368 C   0  0  0  0  0  0  0  0  0  0  0  0
    9.5067   -2.1227   23.9150 C   0  0  0  0  0  0  0  0  0  0  0  0
   10.4978   -1.0662   23.7558 C   0  0  1  0  0  0  0  0  0  0  0  0
   10.5683   -0.5520   24.7664 H   0  0  0  0  0  0  0  0  0  0  0  0
   12.9505   -0.4161   23.8555 H   0  0  0  0  0  0  0  0  0  0  0  0
   12.9505   -0.4161   23.8555 C   0  0  0  0  0  2  0  0  0  0  0  0
   11.9154   -1.3839   22.8033 S   0  3  2  0  0  0  0  0  0  0  0  0
   10.4527   -0.5956   22.6750 C   0  0  3  0  0  0  0  0  0  0  0  0
    9.4757    0.1557   21.6897 C   0  0  0  0  0  0  0  0  0  0  0  0
    9.7729    1.2452   21.2724 O   0  0  0  0  0  0  0  0  0  0  0  0
    8.3022   -0.4667   21.3219 N   0  0  0  0  0  0  0  0  0  0  0  0
    7.5405    0.0238   20.3108 C   0  0  0  0  0  0  0  0  0  0  0  0
    7.8727    0.0236   19.0083 N   0  0  0  0  0  0  0  0  0  0  0  0
    7.2538    0.3986   18.0433 N   0  0  0  0  0  0  0  0  0  0  0  0
    6.1214    0.8710   18.2295 C   0  0  0  0  0  0  0  0  0  0  0  0
    5.7568    0.8649   19.3673 C   0  0  0  0  0  0  0  0  0  0  0  0
    6.1978    0.4811   20.5300 C   0  0  0  0  0  0  0  0  0  0  0  0
    5.7057    0.4604   21.5004 H   0  0  0  0  0  0  0  0  0  0  0  0
    7.2904   -3.3391   24.8115 H   0  0  0  0  0  0  0  0  0  0  0  0
   10.8947    0.3520   23.0167 H   0  0  0  0  0  0  0  0  0  0  0  0
    8.0079   -1.2905   21.8064 H   0  0  0  0  0  0  0  0  0  0  0  0
    5.5127    1.2577   17.4255 H   0  0  0  0  0  0  0  0  0  0  0  0
    4.7753    1.3066   19.4570 H   0  0  0  0  0  0  0  0  0  0  0  0
 19 20  2  0  0  0  0
 18 19  1  0  0  0  0
 20 21  1  0  0  0  0
 17 18  2  0  0  0  0
 21 22  2  0  0  0  0
 17 22  1  0  0  0  0
 16 17  1  0  0  0  0
 22 23  1  0  0  0  0
 14 15  2  0  0  0  0
 14 16  1  0  0  0  0
 13 14  1  0  0  0  0
 12 13  1  0  0  0  0
  8 13  1  0  0  0  0
 11 12  1  0  0  0  0
  8 12  1  0  0  0  0
 10 11  1  0  0  0  0
  7  8  1  0  0  0  0
  8  9  1  0  0  0  0
  6  7  3  0  0  0  0
  5  6  1  0  0  0  0
  2  5  1  0  0  0  0
  2  3  2  0  0  0  0
  1  2  1  0  0  0  0
  2  4  2  0  0  0  0
  5 24  1  0  0  0  0
 13 25  1  0  0  0  0
 16 26  1  0  0  0  0
 20 27  1  0  0  0  0
 21 28  1  0  0  0  0
M  CHG  1  12   1
M  END
> <Chemgauss4>
-11.131201

$$$$
