stable:True satoms:24 tatoms:24 sratio:1.0
  -OEChem-08052422383D

 26 25  0     1  0  0  0  0  0999 V2000
    5.5640   -4.3786   24.9990 Cl  0  0  0  0  0  0  0  0  0  0  0  0
    5.9191   -1.4802   24.7974 C   0  0  0  0  0  0  0  0  0  0  0  0
    6.4448   -2.8383   26.6804 F   0  0  0  0  0  0  0  0  0  0  0  0
    6.4222   -2.8575   25.3016 C   0  0  1  0  0  0  0  0  0  0  0  0
    7.9429    0.3089   21.8858 H   0  0  0  0  0  0  0  0  0  0  0  0
    7.4097   -3.0245   24.8893 H   0  0  0  0  0  0  0  0  0  0  0  0
    5.3226   -2.6368   22.5894 H   0  0  0  0  0  0  0  0  0  0  0  0
    6.2198   -0.7013   25.5065 H   0  0  0  0  0  0  0  0  0  0  0  0
    4.8319   -1.4828   24.7351 H   0  0  0  0  0  0  0  0  0  0  0  0
    5.0599    0.2019   23.0198 H   0  0  0  0  0  0  0  0  0  0  0  0
    6.5661    1.3833   21.5719 H   0  0  0  0  0  0  0  0  0  0  0  0
    7.0637   -2.7067   22.3393 H   0  0  0  0  0  0  0  0  0  0  0  0
    7.7894    1.1779   20.3486 H   0  0  0  0  0  0  0  0  0  0  0  0
    5.9883    0.2955   23.2666 O   0  0  0  0  0  0  0  0  0  0  0  0
    7.5462   -0.8738   23.5140 H   0  0  0  0  0  0  0  0  0  0  0  0
    6.1948   -2.0358   22.3364 C   0  0  0  0  0  0  0  0  0  0  0  0
    7.2476    0.6461   21.1335 C   0  0  0  0  0  0  0  0  0  0  0  0
    5.9489   -1.5303   21.0271 N   0  3  0  0  0  0  0  0  0  0  0  0
    6.4163   -0.5866   19.0517 C   0  0  0  0  0  0  0  0  0  0  0  0
    6.9452    0.0796   18.2195 O   0  0  0  0  0  0  0  0  0  0  0  0
    5.5018   -1.5328   18.6717 O   0  5  0  0  0  0  0  0  0  0  0  0
    6.5314   -0.5412   20.5114 C   0  0  3  0  0  0  0  0  0  0  0  0
    6.4509   -1.0172   23.4371 C   0  0  2  0  0  0  0  0  0  0  0  0
    4.9747   -1.3052   21.0076 H   0  0  0  0  0  0  0  0  0  0  0  0
    7.4762   -1.1028   20.4667 H   0  0  0  0  0  0  0  0  0  0  0  0
    6.1266   -2.2958   20.4087 H   0  0  0  0  0  0  0  0  0  0  0  0
 19 20  2  0  0  0  0
 19 21  1  0  0  0  0
 19 22  1  0  0  0  0
 13 17  1  0  0  0  0
 17 22  1  0  0  0  0
 18 22  1  0  0  0  0
  5 17  1  0  0  0  0
 11 17  1  0  0  0  0
 16 18  1  0  0  0  0
 12 16  1  0  0  0  0
  7 16  1  0  0  0  0
 16 23  1  0  0  0  0
 15 23  1  0  0  0  0
 14 23  1  0  0  0  0
 10 14  1  0  0  0  0
  2 23  1  0  0  0  0
  4  6  1  0  0  0  0
  2  4  1  0  0  0  0
  2  9  1  0  0  0  0
  2  8  1  0  0  0  0
  1  4  1  0  0  0  0
  3  4  1  0  0  0  0
 18 24  1  0  0  0  0
 22 25  1  0  0  0  0
 18 26  1  0  0  0  0
M  CHG  2  18   1  21  -1
M  END
> <Chemgauss4>
-5.862960

$$$$
