stable:True satoms:24 tatoms:24 sratio:1.0
  -OEChem-08052422373D

 26 25  0     1  0  0  0  0  0999 V2000
   -5.4787   -4.5919  -24.8279 Cl  0  0  0  0  0  0  0  0  0  0  0  0
   -5.8338   -1.6935  -24.6264 C   0  0  0  0  0  0  0  0  0  0  0  0
   -6.3595   -3.0516  -26.5094 F   0  0  0  0  0  0  0  0  0  0  0  0
   -6.3369   -3.0708  -25.1306 C   0  0  1  0  0  0  0  0  0  0  0  0
   -7.8576    0.0956  -21.7148 H   0  0  0  0  0  0  0  0  0  0  0  0
   -7.3244   -3.2378  -24.7183 H   0  0  0  0  0  0  0  0  0  0  0  0
   -5.2373   -2.8501  -22.4184 H   0  0  0  0  0  0  0  0  0  0  0  0
   -6.1345   -0.9146  -25.3355 H   0  0  0  0  0  0  0  0  0  0  0  0
   -4.7466   -1.6961  -24.5641 H   0  0  0  0  0  0  0  0  0  0  0  0
   -4.9746   -0.0114  -22.8488 H   0  0  0  0  0  0  0  0  0  0  0  0
   -6.4808    1.1700  -21.4009 H   0  0  0  0  0  0  0  0  0  0  0  0
   -6.9784   -2.9200  -22.1682 H   0  0  0  0  0  0  0  0  0  0  0  0
   -7.7041    0.9646  -20.1776 H   0  0  0  0  0  0  0  0  0  0  0  0
   -5.9030    0.0822  -23.0956 O   0  0  0  0  0  0  0  0  0  0  0  0
   -7.4609   -1.0871  -23.3430 H   0  0  0  0  0  0  0  0  0  0  0  0
   -6.1095   -2.2491  -22.1654 C   0  0  0  0  0  0  0  0  0  0  0  0
   -7.1623    0.4328  -20.9625 C   0  0  0  0  0  0  0  0  0  0  0  0
   -5.8636   -1.7436  -20.8561 N   0  3  0  0  0  0  0  0  0  0  0  0
   -6.3310   -0.7999  -18.8807 C   0  0  0  0  0  0  0  0  0  0  0  0
   -6.8599   -0.1337  -18.0485 O   0  0  0  0  0  0  0  0  0  0  0  0
   -5.4165   -1.7461  -18.5007 O   0  5  0  0  0  0  0  0  0  0  0  0
   -6.4461   -0.7545  -20.3404 C   0  0  3  0  0  0  0  0  0  0  0  0
   -6.3656   -1.2305  -23.2660 C   0  0  2  0  0  0  0  0  0  0  0  0
   -4.8894   -1.5185  -20.8366 H   0  0  0  0  0  0  0  0  0  0  0  0
   -7.3909   -1.3161  -20.2956 H   0  0  0  0  0  0  0  0  0  0  0  0
   -6.0413   -2.5091  -20.2377 H   0  0  0  0  0  0  0  0  0  0  0  0
 19 20  2  0  0  0  0
 19 21  1  0  0  0  0
 19 22  1  0  0  0  0
 13 17  1  0  0  0  0
 17 22  1  0  0  0  0
 18 22  1  0  0  0  0
  5 17  1  0  0  0  0
 11 17  1  0  0  0  0
 16 18  1  0  0  0  0
 12 16  1  0  0  0  0
  7 16  1  0  0  0  0
 16 23  1  0  0  0  0
 15 23  1  0  0  0  0
 14 23  1  0  0  0  0
 10 14  1  0  0  0  0
  2 23  1  0  0  0  0
  4  6  1  0  0  0  0
  2  4  1  0  0  0  0
  2  9  1  0  0  0  0
  2  8  1  0  0  0  0
  1  4  1  0  0  0  0
  3  4  1  0  0  0  0
 18 24  1  0  0  0  0
 22 25  1  0  0  0  0
 18 26  1  0  0  0  0
M  CHG  2  18   1  21  -1
M  END
> <Chemgauss4>
-5.824011

$$$$
