
  -OEChem-08072404293D

 41 43  0     1  0  0  0  0  0999 V2000
    6.1944    0.9693   20.3935 C   0  0  0  0  0  0  0  0  0  0  0  0
    7.3068    0.7149   20.7710 C   0  0  0  0  0  0  0  0  0  0  0  0
    8.6444    0.3646   21.2139 C   0  0  0  0  0  0  0  0  0  0  0  0
    9.5768    0.7199   20.5069 O   0  0  0  0  0  0  0  0  0  0  0  0
    8.7888   -0.3907   22.3890 N   0  0  0  0  0  0  0  0  0  0  0  0
    7.5927   -1.0643   22.9228 C   0  0  0  0  0  0  0  0  0  0  0  0
    7.7470   -1.5726   24.3592 C   0  0  0  0  0  0  0  0  0  0  0  0
    8.9600   -2.3810   24.5917 N   0  4  0  0  0  0  0  0  0  0  0  0
    8.8820   -3.7179   23.9615 C   0  0  0  0  0  0  0  0  0  0  0  0
    7.6963   -4.5476   24.4217 C   0  0  0  0  0  0  0  0  0  0  0  0
    6.7003   -4.9344   23.5098 C   0  0  0  0  0  0  0  0  0  0  0  0
    5.5834   -5.6550   23.9376 C   0  0  0  0  0  0  0  0  0  0  0  0
    5.4521   -6.0062   25.2788 C   0  0  0  0  0  0  0  0  0  0  0  0
    6.4437   -5.6448   26.1906 C   0  0  0  0  0  0  0  0  0  0  0  0
    6.2865   -6.0884   27.8439 Cl  0  0  0  0  0  0  0  0  0  0  0  0
    7.5624   -4.9170   25.7685 C   0  0  0  0  0  0  0  0  0  0  0  0
   10.1556   -1.6372   24.1188 C   0  0  2  0  0  0  0  0  0  0  0  0
   10.4800   -0.4328   25.0177 C   0  0  0  0  0  0  0  0  0  0  0  0
   11.6837    0.4976   24.1039 S   0  0  0  0  0  0  0  0  0  0  0  0
   13.0038    0.0931   24.5435 O   0  0  0  0  0  0  0  0  0  0  0  0
   11.2749    1.8866   24.0774 O   0  0  0  0  0  0  0  0  0  0  0  0
   11.3741   -0.2382   22.5187 C   0  0  0  0  0  0  0  0  0  0  0  0
   10.0839   -1.0642   22.6606 C   0  0  2  0  0  0  0  0  0  0  0  0
    5.2066    1.1805   20.0551 H   0  0  0  0  0  0  0  0  0  0  0  0
    7.3614   -1.8950   22.2447 H   0  0  0  0  0  0  0  0  0  0  0  0
    6.7383   -0.3806   22.9036 H   0  0  0  0  0  0  0  0  0  0  0  0
    6.8411   -2.1119   24.6563 H   0  0  0  0  0  0  0  0  0  0  0  0
    7.7652   -0.7096   25.0347 H   0  0  0  0  0  0  0  0  0  0  0  0
    9.7849   -4.2896   24.2127 H   0  0  0  0  0  0  0  0  0  0  0  0
    8.8688   -3.6406   22.8673 H   0  0  0  0  0  0  0  0  0  0  0  0
    6.7823   -4.6680   22.4561 H   0  0  0  0  0  0  0  0  0  0  0  0
    4.8130   -5.9401   23.2259 H   0  0  0  0  0  0  0  0  0  0  0  0
    4.5784   -6.5597   25.6113 H   0  0  0  0  0  0  0  0  0  0  0  0
    8.3212   -4.6263   26.4900 H   0  0  0  0  0  0  0  0  0  0  0  0
   11.0239   -2.3104   24.1761 H   0  0  0  0  0  0  0  0  0  0  0  0
   10.8987   -0.7272   25.9836 H   0  0  0  0  0  0  0  0  0  0  0  0
    9.6321    0.2375   25.1755 H   0  0  0  0  0  0  0  0  0  0  0  0
   12.2155   -0.9167   22.3281 H   0  0  0  0  0  0  0  0  0  0  0  0
   11.3939    0.5426   21.7634 H   0  0  0  0  0  0  0  0  0  0  0  0
   10.1286   -1.8863   21.9338 H   0  0  0  0  0  0  0  0  0  0  0  0
    9.0549   -2.5136   25.5783 H   0  0  0  0  0  0  0  0  0  0  0  0
  1  2  3  0  0  0  0
  1 24  1  0  0  0  0
  2  3  1  0  0  0  0
  3  4  2  0  0  0  0
  3  5  1  0  0  0  0
  5  6  1  0  0  0  0
  5 23  1  0  0  0  0
  6  7  1  0  0  0  0
  6 25  1  0  0  0  0
  6 26  1  0  0  0  0
  7  8  1  0  0  0  0
  7 27  1  0  0  0  0
  7 28  1  0  0  0  0
  8  9  1  0  0  0  0
  8 17  1  0  0  0  0
  9 10  1  0  0  0  0
  9 29  1  0  0  0  0
  9 30  1  0  0  0  0
 10 11  1  0  0  0  0
 10 16  2  0  0  0  0
 11 12  2  0  0  0  0
 11 31  1  0  0  0  0
 12 13  1  0  0  0  0
 12 32  1  0  0  0  0
 13 14  2  0  0  0  0
 13 33  1  0  0  0  0
 14 15  1  0  0  0  0
 14 16  1  0  0  0  0
 16 34  1  0  0  0  0
 17 18  1  0  0  0  0
 17 23  1  0  0  0  0
 17 35  1  6  0  0  0
 18 19  1  0  0  0  0
 18 36  1  0  0  0  0
 18 37  1  0  0  0  0
 19 20  2  0  0  0  0
 19 21  2  0  0  0  0
 19 22  1  0  0  0  0
 22 23  1  0  0  0  0
 22 38  1  0  0  0  0
 22 39  1  0  0  0  0
 23 40  1  1  0  0  0
  8 41  1  0  0  0  0
M  RAD  1   8   2
M  END
> <Chemgauss4>
-7.790124

$$$$
