
  -OEChem-08072404293D

 41 43  0     1  0  0  0  0  0999 V2000
   -6.2059    1.0307  -20.3265 C   0  0  0  0  0  0  0  0  0  0  0  0
   -7.3184    0.7763  -20.7041 C   0  0  0  0  0  0  0  0  0  0  0  0
   -8.6559    0.4260  -21.1469 C   0  0  0  0  0  0  0  0  0  0  0  0
   -9.5883    0.7813  -20.4399 O   0  0  0  0  0  0  0  0  0  0  0  0
   -8.8004   -0.3293  -22.3220 N   0  0  0  0  0  0  0  0  0  0  0  0
   -7.6043   -1.0029  -22.8558 C   0  0  0  0  0  0  0  0  0  0  0  0
   -7.7586   -1.5112  -24.2922 C   0  0  0  0  0  0  0  0  0  0  0  0
   -8.9715   -2.3196  -24.5247 N   0  4  0  0  0  0  0  0  0  0  0  0
   -8.8935   -3.6565  -23.8945 C   0  0  0  0  0  0  0  0  0  0  0  0
   -7.7079   -4.4862  -24.3547 C   0  0  0  0  0  0  0  0  0  0  0  0
   -6.7118   -4.8730  -23.4428 C   0  0  0  0  0  0  0  0  0  0  0  0
   -5.5950   -5.5936  -23.8706 C   0  0  0  0  0  0  0  0  0  0  0  0
   -5.4636   -5.9448  -25.2119 C   0  0  0  0  0  0  0  0  0  0  0  0
   -6.4552   -5.5834  -26.1236 C   0  0  0  0  0  0  0  0  0  0  0  0
   -6.2980   -6.0270  -27.7769 Cl  0  0  0  0  0  0  0  0  0  0  0  0
   -7.5739   -4.8556  -25.7015 C   0  0  0  0  0  0  0  0  0  0  0  0
  -10.1671   -1.5758  -24.0519 C   0  0  2  0  0  0  0  0  0  0  0  0
  -10.4916   -0.3714  -24.9507 C   0  0  0  0  0  0  0  0  0  0  0  0
  -11.6953    0.5590  -24.0369 S   0  0  0  0  0  0  0  0  0  0  0  0
  -13.0153    0.1545  -24.4765 O   0  0  0  0  0  0  0  0  0  0  0  0
  -11.2864    1.9480  -24.0104 O   0  0  0  0  0  0  0  0  0  0  0  0
  -11.3857   -0.1768  -22.4517 C   0  0  0  0  0  0  0  0  0  0  0  0
  -10.0954   -1.0028  -22.5936 C   0  0  2  0  0  0  0  0  0  0  0  0
   -5.2181    1.2419  -19.9882 H   0  0  0  0  0  0  0  0  0  0  0  0
   -7.3730   -1.8336  -22.1777 H   0  0  0  0  0  0  0  0  0  0  0  0
   -6.7498   -0.3192  -22.8367 H   0  0  0  0  0  0  0  0  0  0  0  0
   -6.8526   -2.0505  -24.5893 H   0  0  0  0  0  0  0  0  0  0  0  0
   -7.7767   -0.6482  -24.9677 H   0  0  0  0  0  0  0  0  0  0  0  0
   -9.7964   -4.2282  -24.1457 H   0  0  0  0  0  0  0  0  0  0  0  0
   -8.8803   -3.5792  -22.8003 H   0  0  0  0  0  0  0  0  0  0  0  0
   -6.7938   -4.6066  -22.3891 H   0  0  0  0  0  0  0  0  0  0  0  0
   -4.8246   -5.8787  -23.1589 H   0  0  0  0  0  0  0  0  0  0  0  0
   -4.5900   -6.4983  -25.5444 H   0  0  0  0  0  0  0  0  0  0  0  0
   -8.3328   -4.5649  -26.4230 H   0  0  0  0  0  0  0  0  0  0  0  0
  -11.0354   -2.2490  -24.1092 H   0  0  0  0  0  0  0  0  0  0  0  0
  -10.9102   -0.6658  -25.9166 H   0  0  0  0  0  0  0  0  0  0  0  0
   -9.6436    0.2989  -25.1085 H   0  0  0  0  0  0  0  0  0  0  0  0
  -12.2270   -0.8553  -22.2611 H   0  0  0  0  0  0  0  0  0  0  0  0
  -11.4054    0.6040  -21.6964 H   0  0  0  0  0  0  0  0  0  0  0  0
  -10.1401   -1.8249  -21.8668 H   0  0  0  0  0  0  0  0  0  0  0  0
   -9.0664   -2.4522  -25.5113 H   0  0  0  0  0  0  0  0  0  0  0  0
  1  2  3  0  0  0  0
  1 24  1  0  0  0  0
  2  3  1  0  0  0  0
  3  4  2  0  0  0  0
  3  5  1  0  0  0  0
  5  6  1  0  0  0  0
  5 23  1  0  0  0  0
  6  7  1  0  0  0  0
  6 25  1  0  0  0  0
  6 26  1  0  0  0  0
  7  8  1  0  0  0  0
  7 27  1  0  0  0  0
  7 28  1  0  0  0  0
  8  9  1  0  0  0  0
  8 17  1  0  0  0  0
  9 10  1  0  0  0  0
  9 29  1  0  0  0  0
  9 30  1  0  0  0  0
 10 11  1  0  0  0  0
 10 16  2  0  0  0  0
 11 12  2  0  0  0  0
 11 31  1  0  0  0  0
 12 13  1  0  0  0  0
 12 32  1  0  0  0  0
 13 14  2  0  0  0  0
 13 33  1  0  0  0  0
 14 15  1  0  0  0  0
 14 16  1  0  0  0  0
 16 34  1  0  0  0  0
 17 18  1  0  0  0  0
 17 23  1  0  0  0  0
 17 35  1  6  0  0  0
 18 19  1  0  0  0  0
 18 36  1  0  0  0  0
 18 37  1  0  0  0  0
 19 20  2  0  0  0  0
 19 21  2  0  0  0  0
 19 22  1  0  0  0  0
 22 23  1  0  0  0  0
 22 38  1  0  0  0  0
 22 39  1  0  0  0  0
 23 40  1  1  0  0  0
  8 41  1  0  0  0  0
M  RAD  1   8   2
M  END
> <Chemgauss4>
-7.640922

$$$$
