
 OpenBabel07202414113D

 40 42  0  0  1  0  0  0  0  0999 V2000
    4.3904   -0.0260    2.8396 C   0  0  0  0  0  0  0  0  0  0  0  0
    4.0842   -0.1128    1.6805 C   0  0  0  0  0  0  0  0  0  0  0  0
    3.7070   -0.2621    0.2865 C   0  0  0  0  0  0  0  0  0  0  0  0
    2.5988    0.1408   -0.0375 O   0  0  0  0  0  0  0  0  0  0  0  0
    4.6046   -0.8923   -0.5906 N   0  0  0  0  0  0  0  0  0  0  0  0
    5.7174   -1.6562   -0.0011 C   0  0  0  0  0  0  0  0  0  0  0  0
    6.8254   -2.0188   -0.9942 C   0  0  0  0  0  0  0  0  0  0  0  0
    6.3449   -2.6539   -2.2370 N   0  0  0  0  0  0  0  0  0  0  0  0
    5.8705   -4.0392   -2.0212 C   0  0  0  0  0  0  0  0  0  0  0  0
    6.9170   -4.9625   -1.4226 C   0  0  0  0  0  0  0  0  0  0  0  0
    6.7172   -5.5414   -0.1584 C   0  0  0  0  0  0  0  0  0  0  0  0
    7.6980   -6.3513    0.4176 C   0  0  0  0  0  0  0  0  0  0  0  0
    8.8858   -6.6006   -0.2654 C   0  0  0  0  0  0  0  0  0  0  0  0
    9.0880   -6.0474   -1.5296 C   0  0  0  0  0  0  0  0  0  0  0  0
   10.5496   -6.3648   -2.3770 Cl  0  0  0  0  0  0  0  0  0  0  0  0
    8.1109   -5.2297   -2.1092 C   0  0  0  0  0  0  0  0  0  0  0  0
    5.2827   -1.8155   -2.8494 C   0  0  2  0  0  0  0  0  0  0  0  0
    5.8431   -0.5091   -3.4351 C   0  0  0  0  0  0  0  0  0  0  0  0
    4.4097    0.4775   -3.7837 S   0  0  0  0  0  0  0  0  0  0  0  0
    4.0398    0.2722   -5.1695 O   0  0  0  0  0  0  0  0  0  0  0  0
    4.6105    1.8004   -3.2300 O   0  0  0  0  0  0  0  0  0  0  0  0
    3.2696   -0.4218   -2.7632 C   0  0  0  0  0  0  0  0  0  0  0  0
    4.1102   -1.3809   -1.9026 C   0  0  2  0  0  0  0  0  0  0  0  0
    4.6598    0.0363    3.8684 H   0  0  0  0  0  0  0  0  0  0  0  0
    5.2868   -2.5631    0.4411 H   0  0  0  0  0  0  0  0  0  0  0  0
    6.1755   -1.0835    0.8113 H   0  0  0  0  0  0  0  0  0  0  0  0
    7.5794   -2.6353   -0.4929 H   0  0  0  0  0  0  0  0  0  0  0  0
    7.3727   -1.1057   -1.2552 H   0  0  0  0  0  0  0  0  0  0  0  0
    5.5775   -4.4756   -2.9850 H   0  0  0  0  0  0  0  0  0  0  0  0
    4.9694   -4.0571   -1.3958 H   0  0  0  0  0  0  0  0  0  0  0  0
    5.7959   -5.3574    0.3942 H   0  0  0  0  0  0  0  0  0  0  0  0
    7.5381   -6.7857    1.4010 H   0  0  0  0  0  0  0  0  0  0  0  0
    9.6512   -7.2243    0.1878 H   0  0  0  0  0  0  0  0  0  0  0  0
    8.2853   -4.7903   -3.0877 H   0  0  0  0  0  0  0  0  0  0  0  0
    4.8485   -2.3729   -3.6927 H   0  0  0  0  0  0  0  0  0  0  0  0
    6.4124   -0.6684   -4.3546 H   0  0  0  0  0  0  0  0  0  0  0  0
    6.4445    0.0661   -2.7275 H   0  0  0  0  0  0  0  0  0  0  0  0
    2.6447   -1.0087   -3.4485 H   0  0  0  0  0  0  0  0  0  0  0  0
    2.6287    0.2889   -2.2487 H   0  0  0  0  0  0  0  0  0  0  0  0
    3.4852   -2.2504   -1.6590 H   0  0  0  0  0  0  0  0  0  0  0  0
  1  2  3  0  0  0  0
  1 24  1  0  0  0  0
  2  3  1  0  0  0  0
  3  4  2  0  0  0  0
  3  5  1  0  0  0  0
  5  6  1  0  0  0  0
  5 23  1  0  0  0  0
  6  7  1  0  0  0  0
  6 25  1  0  0  0  0
  6 26  1  0  0  0  0
  7  8  1  0  0  0  0
  7 27  1  0  0  0  0
  7 28  1  0  0  0  0
  8  9  1  0  0  0  0
  8 17  1  0  0  0  0
  9 10  1  0  0  0  0
  9 29  1  0  0  0  0
  9 30  1  0  0  0  0
 10 11  1  0  0  0  0
 10 16  2  0  0  0  0
 11 12  2  0  0  0  0
 11 31  1  0  0  0  0
 12 13  1  0  0  0  0
 12 32  1  0  0  0  0
 13 14  2  0  0  0  0
 13 33  1  0  0  0  0
 14 15  1  0  0  0  0
 14 16  1  0  0  0  0
 16 34  1  0  0  0  0
 17 18  1  0  0  0  0
 17 23  1  0  0  0  0
 17 35  1  6  0  0  0
 18 19  1  0  0  0  0
 18 36  1  0  0  0  0
 18 37  1  0  0  0  0
 19 20  2  0  0  0  0
 19 21  2  0  0  0  0
 19 22  1  0  0  0  0
 22 23  1  0  0  0  0
 22 38  1  0  0  0  0
 22 39  1  0  0  0  0
 23 40  1  1  0  0  0
M  END
$$$$
