stable:False satoms:16 tatoms:24 sratio:0.6666666666666666
  -OEChem-07092417383D

 24 25  0     1  0  0  0  0  0999 V2000
    7.1370   -4.7834   26.1979 F   0  0  0  0  0  0  0  0  0  0  0  0
    8.3809   -4.3817   25.9608 C   0  0  0  0  0  0  0  0  0  0  0  0
    8.9821   -5.3000   25.8011 H   0  0  0  0  0  0  0  0  0  0  0  0
    8.7211   -3.8760   26.8740 H   0  0  0  0  0  0  0  0  0  0  0  0
    8.3635   -3.5006   24.8747 N   0  0  0  0  0  0  0  0  0  0  0  0
    9.4186   -3.3611   24.1337 N   0  0  0  0  0  0  0  0  0  0  0  0
    9.7050   -2.4570   23.3369 N   0  0  0  0  0  0  0  0  0  0  0  0
   10.8556   -0.5433   23.0892 C   0  0  0  0  0  0  0  0  0  0  0  0
   11.7684    0.1027   23.8670 C   0  5  0  0  0  0  0  0  0  0  0  0
   11.5942    0.9129   24.4586 H   0  0  0  0  0  0  0  0  0  0  0  0
   12.7568   -0.2288   23.7764 H   0  0  0  0  0  0  0  0  0  0  0  0
   11.8317   -2.3332   22.9945 H   0  0  0  0  0  0  0  0  0  0  0  0
   10.8715   -1.8337   23.0927 C   0  3  0  0  0  0  0  0  0  0  0  0
    9.9988   -0.0623   22.2573 C   0  0  0  0  0  0  0  0  0  0  0  0
    8.9787    0.1614   21.4493 C   0  0  3  0  0  0  0  0  0  0  0  0
    9.6441    1.0857   21.2974 O   0  0  0  0  0  0  0  0  0  0  0  0
    7.8279   -0.4796   21.0041 N   0  0  0  0  0  0  0  0  0  0  0  0
    6.7087    0.2128   19.1076 C   0  0  0  0  0  0  0  0  0  0  0  0
    7.5938   -0.3363   19.9177 C   0  0  0  0  0  0  0  0  0  0  0  0
    6.2095    0.6372   18.0627 N   0  0  0  0  0  0  0  0  0  0  0  0
    5.5620    0.7725   17.4601 H   0  0  0  0  0  0  0  0  0  0  0  0
    5.8450    0.6420   19.7548 C   0  0  0  0  0  0  0  0  0  0  0  0
    5.5014    0.7983   20.8166 C   0  5  0  0  0  0  0  0  0  0  0  0
    5.3278    0.8613   21.7117 H   0  0  0  0  0  0  0  0  0  0  0  0
 20 21  1  0  0  0  0
 18 20  1  0  0  0  0
 20 22  1  0  0  0  0
 18 22  1  0  0  0  0
 18 19  2  0  0  0  0
 22 23  2  0  0  0  0
 17 19  1  0  0  0  0
 23 24  1  0  0  0  0
 15 17  1  0  0  0  0
 15 16  1  0  0  0  0
 14 16  1  0  0  0  0
 14 15  1  0  0  0  0
  8 14  2  3  0  0  0
 12 13  1  0  0  0  0
  8 13  1  0  0  0  0
  8  9  1  0  0  0  0
  7 13  1  0  0  0  0
  6  7  1  0  0  0  0
  9 11  1  0  0  0  0
  9 10  1  0  0  0  0
  5  6  2  0  0  0  0
  2  5  1  0  0  0  0
  2  3  1  0  0  0  0
  1  2  1  0  0  0  0
  2  4  1  0  0  0  0
M  CHG  3   9  -1  13   1  23  -1
M  END
> <Shapegauss>
-199.046600

$$$$
