stable:False satoms:16 tatoms:24 sratio:0.6666666666666666
  -OEChem-08062407203D

 30 31  0     1  0  0  0  0  0999 V2000
   11.5986    5.6117   23.2688 F   0  0  0  0  0  0  0  0  0  0  0  0
   12.2826    4.6264   23.8399 C   0  0  0  0  0  0  0  0  0  0  0  0
   12.4147    4.9117   24.9036 H   0  0  0  0  0  0  0  0  0  0  0  0
   13.2616    4.6023   23.3434 H   0  0  0  0  0  0  0  0  0  0  0  0
   11.5876    3.4293   23.6398 N   0  0  0  0  0  0  0  0  0  0  0  0
   11.7333    2.4459   24.4726 N   0  0  0  0  0  0  0  0  0  0  0  0
   11.4545    1.2475   24.3295 N   0  0  0  0  0  0  0  0  0  0  0  0
   12.2943   -0.7682   23.8012 C   0  0  0  0  0  0  0  0  0  0  0  0
   13.5619   -1.2284   23.6086 C   0  0  0  0  0  0  0  0  0  0  0  0
   13.6116   -2.2920   23.8849 H   0  0  0  0  0  0  0  0  0  0  0  0
   14.2602   -0.6540   24.2351 H   0  0  0  0  0  0  0  0  0  0  0  0
   12.1161    0.1377   24.7029 C   0  0  0  0  0  2  0  0  0  0  0  0
   11.1893   -1.1588   23.2685 C   0  0  0  0  0  0  0  0  0  0  0  0
    9.9587   -1.2795   22.8052 C   0  0  3  0  0  0  0  0  0  0  0  0
   10.4108   -2.3210   22.6293 O   0  0  0  0  0  0  0  0  0  0  0  0
    8.7877   -0.5344   22.7206 N   0  3  0  0  0  0  0  0  0  0  0  0
    6.7466   -1.5245   22.2939 C   0  0  0  0  0  0  0  0  0  0  0  0
    7.8435   -1.1106   22.8994 C   0  0  0  0  0  0  0  0  0  0  0  0
    5.7041   -2.1546   22.1007 N   0  0  0  0  0  0  0  0  0  0  0  0
    4.8547   -2.2746   21.8460 H   0  0  0  0  0  0  0  0  0  0  0  0
    6.7382   -1.0815   21.2203 C   0  0  0  0  0  0  0  0  0  0  0  0
    7.3358   -0.4633   20.4918 C   0  0  0  0  0  0  0  0  0  0  0  0
    8.3016   -0.0745   20.7787 H   0  0  0  0  0  0  0  0  0  0  0  0
   10.5906    1.0761   23.8559 H   0  0  0  0  0  0  0  0  0  0  0  0
   13.8376   -1.1112   22.5502 H   0  0  0  0  0  0  0  0  0  0  0  0
   10.2742   -0.9418   21.8070 H   0  0  0  0  0  0  0  0  0  0  0  0
    8.7391   -0.1368   21.8043 H   0  0  0  0  0  0  0  0  0  0  0  0
    7.8245   -1.4436   23.9266 H   0  0  0  0  0  0  0  0  0  0  0  0
    6.9426   -0.2598   19.5067 H   0  0  0  0  0  0  0  0  0  0  0  0
    8.8369    0.1981   23.3996 H   0  0  0  0  0  0  0  0  0  0  0  0
 19 20  1  0  0  0  0
 17 19  1  0  0  0  0
 19 21  1  0  0  0  0
 17 21  1  0  0  0  0
 17 18  2  0  0  0  0
 21 22  2  0  0  0  0
 16 18  1  0  0  0  0
 22 23  1  0  0  0  0
 14 16  1  0  0  0  0
 14 15  1  0  0  0  0
 13 15  1  0  0  0  0
 13 14  1  0  0  0  0
  8 13  2  3  0  0  0
  8 12  1  0  0  0  0
  8  9  1  0  0  0  0
  7 12  1  0  0  0  0
  6  7  1  0  0  0  0
  9 11  1  0  0  0  0
  9 10  1  0  0  0  0
  5  6  2  0  0  0  0
  2  5  1  0  0  0  0
  2  3  1  0  0  0  0
  1  2  1  0  0  0  0
  2  4  1  0  0  0  0
  7 24  1  0  0  0  0
  9 25  1  0  0  0  0
 14 26  1  0  0  0  0
 16 27  1  0  0  0  0
 18 28  1  0  0  0  0
 22 29  1  0  0  0  0
 16 30  1  0  0  0  0
M  CHG  1  16   1
M  END
> <Chemgauss4>
-6.898971

$$$$
