stable:False satoms:16 tatoms:24 sratio:0.6666666666666666
  -OEChem-08062407203D

 30 31  0     1  0  0  0  0  0999 V2000
   -6.9965   -4.7913  -25.0652 F   0  0  0  0  0  0  0  0  0  0  0  0
   -8.2052   -4.2484  -24.9689 C   0  0  0  0  0  0  0  0  0  0  0  0
   -8.9139   -5.0867  -24.8102 H   0  0  0  0  0  0  0  0  0  0  0  0
   -8.4091   -3.7757  -25.9387 H   0  0  0  0  0  0  0  0  0  0  0  0
   -8.1853   -3.2999  -23.9413 N   0  0  0  0  0  0  0  0  0  0  0  0
   -9.2785   -3.0012  -23.3109 N   0  0  0  0  0  0  0  0  0  0  0  0
   -9.5323   -2.0189  -22.6003 N   0  0  0  0  0  0  0  0  0  0  0  0
  -10.4854    0.0154  -22.5765 C   0  0  0  0  0  0  0  0  0  0  0  0
  -11.2528    0.6956  -23.4731 C   0  0  0  0  0  0  0  0  0  0  0  0
  -11.9308    1.3743  -22.9348 H   0  0  0  0  0  0  0  0  0  0  0  0
  -11.8434   -0.0178  -24.0666 H   0  0  0  0  0  0  0  0  0  0  0  0
  -10.6409   -1.2636  -22.5032 C   0  0  0  0  0  2  0  0  0  0  0  0
   -9.6558    0.4630  -21.6996 C   0  0  0  0  0  0  0  0  0  0  0  0
   -8.6904    0.6369  -20.8157 C   0  0  3  0  0  0  0  0  0  0  0  0
   -9.2621    1.6329  -20.7823 O   0  0  0  0  0  0  0  0  0  0  0  0
   -7.6582   -0.0861  -20.2280 N   0  3  0  0  0  0  0  0  0  0  0  0
   -6.6369    0.6189  -18.2815 C   0  0  0  0  0  0  0  0  0  0  0  0
   -7.5038    0.1081  -19.1352 C   0  0  0  0  0  0  0  0  0  0  0  0
   -6.1859    1.0619  -17.2226 N   0  0  0  0  0  0  0  0  0  0  0  0
   -5.5815    1.1719  -16.5720 H   0  0  0  0  0  0  0  0  0  0  0  0
   -5.6796    0.9108  -18.8709 C   0  0  0  0  0  0  0  0  0  0  0  0
   -5.2314    0.9562  -19.9038 C   0  0  0  0  0  0  0  0  0  0  0  0
   -5.8092    0.6344  -20.7577 H   0  0  0  0  0  0  0  0  0  0  0  0
   -8.7859   -1.7401  -21.9959 H   0  0  0  0  0  0  0  0  0  0  0  0
  -10.6039    1.2800  -24.1419 H   0  0  0  0  0  0  0  0  0  0  0  0
   -8.0125    1.0185  -21.5934 H   0  0  0  0  0  0  0  0  0  0  0  0
   -6.8097    0.1410  -20.7059 H   0  0  0  0  0  0  0  0  0  0  0  0
   -8.3660   -0.2468  -18.5902 H   0  0  0  0  0  0  0  0  0  0  0  0
   -4.2243    1.3215  -20.0399 H   0  0  0  0  0  0  0  0  0  0  0  0
   -7.8563   -1.0594  -20.3446 H   0  0  0  0  0  0  0  0  0  0  0  0
 19 20  1  0  0  0  0
 17 19  1  0  0  0  0
 19 21  1  0  0  0  0
 17 21  1  0  0  0  0
 17 18  2  0  0  0  0
 21 22  2  0  0  0  0
 16 18  1  0  0  0  0
 22 23  1  0  0  0  0
 14 16  1  0  0  0  0
 14 15  1  0  0  0  0
 13 15  1  0  0  0  0
 13 14  1  0  0  0  0
  8 13  2  3  0  0  0
  8 12  1  0  0  0  0
  8  9  1  0  0  0  0
  7 12  1  0  0  0  0
  6  7  1  0  0  0  0
  9 11  1  0  0  0  0
  9 10  1  0  0  0  0
  5  6  2  0  0  0  0
  2  5  1  0  0  0  0
  2  3  1  0  0  0  0
  1  2  1  0  0  0  0
  2  4  1  0  0  0  0
  7 24  1  0  0  0  0
  9 25  1  0  0  0  0
 14 26  1  0  0  0  0
 16 27  1  0  0  0  0
 18 28  1  0  0  0  0
 22 29  1  0  0  0  0
 16 30  1  0  0  0  0
M  CHG  1  16   1
M  END
> <Chemgauss4>
-6.303860

$$$$
