stable:False satoms:16 tatoms:24 sratio:0.6666666666666666
  -OEChem-07092417403D

 24 24  0     0  0  0  0  0  0999 V2000
    6.9951   -4.6393   26.4086 H   0  0  0  0  0  0  0  0  0  0  0  0
    8.0626   -4.3611   26.2207 C   0  0  0  0  0  0  0  0  0  0  0  0
    8.6603   -5.3006   26.1532 H   0  0  0  0  0  0  0  0  0  0  0  0
    8.4474   -3.7373   27.0637 H   0  0  0  0  0  0  0  0  0  0  0  0
    8.1567   -3.6356   24.9844 N   0  0  0  0  0  0  0  0  0  0  0  0
    8.9248   -3.0790   24.3499 C   0  0  0  0  0  0  0  0  0  0  0  0
    9.4782   -2.4244   23.5043 N   0  0  0  0  0  0  0  0  0  0  0  0
   10.0555   -1.4466   23.1501 C   0  0  0  0  0  0  0  0  0  0  0  0
   10.8731    0.4088   24.3886 H   0  0  0  0  0  0  0  0  0  0  0  0
   11.8400    0.2373   24.2843 O   0  0  0  0  0  0  0  0  0  0  0  0
   12.8487    0.1408   22.6261 H   0  0  0  0  0  0  0  0  0  0  0  0
   12.0375   -0.4467   23.0551 C   0  0  0  0  0  0  0  0  0  0  0  0
   12.2982   -1.5108   22.9052 H   0  0  0  0  0  0  0  0  0  0  0  0
   10.4953   -0.5103   22.5607 C   0  0  0  0  0  0  0  0  0  0  0  0
    8.6899    0.3185   21.4090 C   0  0  0  0  0  0  0  0  0  0  0  0
    9.8330    0.3495   21.6466 O   0  0  0  0  0  0  0  0  0  0  0  0
    7.8753   -0.4799   19.5461 N   0  0  0  0  0  0  0  0  0  0  0  0
    7.5849    0.1603   20.5821 C   0  0  0  0  0  0  0  0  0  0  0  0
    6.9706   -0.0764   18.6209 C   0  0  0  0  0  0  0  0  0  0  0  0
    7.1330   -0.2521   17.5616 H   0  0  0  0  0  0  0  0  0  0  0  0
    5.0296    0.9344   18.6037 H   0  0  0  0  0  0  0  0  0  0  0  0
    5.8748    0.5574   19.1883 C   0  0  0  0  0  0  0  0  0  0  0  0
    6.1704    0.5860   20.5505 C   0  0  0  0  0  0  0  0  0  0  0  0
    5.2492    0.9170   21.9331 Cl  0  0  0  0  0  0  0  0  0  0  0  0
 19 20  1  0  0  0  0
 21 22  1  0  0  0  0
 19 22  2  0  0  0  0
 17 19  1  0  0  0  0
 22 23  1  0  0  0  0
 17 18  1  0  0  0  0
 18 23  2  0  0  0  0
 23 24  1  0  0  0  0
 15 18  1  0  0  0  0
 15 16  1  0  0  0  0
 14 16  1  0  0  0  0
 12 14  1  0  0  0  0
  8 14  2  3  0  0  0
 11 12  1  0  0  0  0
 12 13  1  0  0  0  0
 10 12  1  0  0  0  0
  7  8  1  0  0  0  0
  6  7  1  0  0  0  0
  9 10  1  0  0  0  0
  5  6  2  0  0  0  0
  2  5  1  0  0  0  0
  2  3  1  0  0  0  0
  1  2  1  0  0  0  0
  2  4  1  0  0  0  0
M  END
> <Shapegauss>
-188.547134

$$$$
