stable:False satoms:16 tatoms:24 sratio:0.6666666666666666
  -OEChem-08062404063D

 31 31  0     0  0  0  0  0  0999 V2000
   -7.5171    2.2177  -18.1849 H   0  0  0  0  0  0  0  0  0  0  0  0
   -7.0792    1.2286  -18.4717 C   0  0  0  0  0  0  0  0  0  0  0  0
   -6.8913    0.6476  -17.5381 H   0  0  0  0  0  0  0  0  0  0  0  0
   -6.1141    1.3821  -19.0128 H   0  0  0  0  0  0  0  0  0  0  0  0
   -8.0081    0.5191  -19.3068 N   0  3  0  0  0  0  0  0  0  0  0  0
   -8.0834   -0.4444  -19.9138 C   0  0  0  0  0  0  0  0  0  0  0  0
   -8.4433   -1.3354  -20.6393 N   0  0  0  0  0  0  0  0  0  0  0  0
   -8.3515   -1.9696  -21.6414 C   0  0  0  0  0  0  0  0  0  0  0  0
   -6.7219   -1.9163  -23.3695 H   0  0  0  0  0  0  0  0  0  0  0  0
   -6.3044   -2.7953  -23.2015 O   0  0  0  0  0  0  0  0  0  0  0  0
   -7.1632   -4.5378  -23.2504 H   0  0  0  0  0  0  0  0  0  0  0  0
   -7.2861   -3.6493  -22.6317 C   0  0  0  0  0  0  0  0  0  0  0  0
   -7.3584   -3.9955  -21.5841 H   0  0  0  0  0  0  0  0  0  0  0  0
   -8.5344   -2.6155  -22.6246 C   0  0  0  0  0  0  0  0  0  0  0  0
  -10.4035   -1.6728  -23.5683 C   0  0  0  0  0  0  0  0  0  0  0  0
   -9.5878   -2.5087  -23.5693 O   0  0  0  0  0  0  0  0  0  0  0  0
  -12.4700   -2.0170  -22.9499 N   0  0  0  0  0  0  0  0  0  0  0  0
  -11.7039   -1.1899  -23.4944 C   0  0  0  0  0  0  0  0  0  0  0  0
  -13.6999   -1.7314  -23.4430 C   0  0  0  0  0  0  0  0  0  0  0  0
  -14.5165   -2.4428  -23.3640 H   0  0  0  0  0  0  0  0  0  0  0  0
  -14.6742   -0.0592  -24.4648 H   0  0  0  0  0  0  0  0  0  0  0  0
  -13.7602   -0.4758  -24.0298 C   0  0  0  0  0  0  0  0  0  0  0  0
  -12.4552    0.0050  -23.9312 C   0  0  0  0  0  0  0  0  0  0  0  0
  -11.7618    1.5364  -24.1405 Cl  0  0  0  0  0  0  0  0  0  0  0  0
   -7.1333   -0.8695  -19.6257 H   0  0  0  0  0  0  0  0  0  0  0  0
   -9.2082   -1.7560  -20.1514 H   0  0  0  0  0  0  0  0  0  0  0  0
   -7.2751   -1.9263  -21.7186 H   0  0  0  0  0  0  0  0  0  0  0  0
  -10.1401   -1.2189  -24.5351 H   0  0  0  0  0  0  0  0  0  0  0  0
   -9.9825   -1.0672  -22.7522 H   0  0  0  0  0  0  0  0  0  0  0  0
  -12.2275   -2.7322  -22.2944 H   0  0  0  0  0  0  0  0  0  0  0  0
   -8.8620    1.0344  -19.3796 H   0  0  0  0  0  0  0  0  0  0  0  0
 19 20  1  0  0  0  0
 21 22  1  0  0  0  0
 19 22  2  0  0  0  0
 17 19  1  0  0  0  0
 22 23  1  0  0  0  0
 17 18  1  0  0  0  0
 18 23  2  0  0  0  0
 23 24  1  0  0  0  0
 15 18  1  0  0  0  0
 15 16  1  0  0  0  0
 14 16  1  0  0  0  0
 12 14  1  0  0  0  0
  8 14  2  3  0  0  0
 11 12  1  0  0  0  0
 12 13  1  0  0  0  0
 10 12  1  0  0  0  0
  7  8  1  0  0  0  0
  6  7  1  0  0  0  0
  9 10  1  0  0  0  0
  5  6  2  0  0  0  0
  2  5  1  0  0  0  0
  2  3  1  0  0  0  0
  1  2  1  0  0  0  0
  2  4  1  0  0  0  0
  6 25  1  0  0  0  0
  7 26  1  0  0  0  0
  8 27  1  0  0  0  0
 15 28  1  0  0  0  0
 15 29  1  0  0  0  0
 17 30  1  0  0  0  0
  5 31  1  0  0  0  0
M  CHG  1   5   1
M  END
> <Chemgauss4>
-5.695870

$$$$
