stable:False satoms:16 tatoms:24 sratio:0.6666666666666666
  -OEChem-08062404063D

 31 31  0     0  0  0  0  0  0999 V2000
    6.8148    2.0375   18.4786 H   0  0  0  0  0  0  0  0  0  0  0  0
    6.6284    0.9428   18.6172 C   0  0  0  0  0  0  0  0  0  0  0  0
    6.6686    0.4536   17.6154 H   0  0  0  0  0  0  0  0  0  0  0  0
    5.6186    0.7827   19.0671 H   0  0  0  0  0  0  0  0  0  0  0  0
    7.6439    0.3894   19.4692 N   0  3  0  0  0  0  0  0  0  0  0  0
    7.9208   -0.5924   19.9809 C   0  0  0  0  0  0  0  0  0  0  0  0
    8.4439   -1.4484   20.6467 N   0  0  0  0  0  0  0  0  0  0  0  0
    8.4447   -2.2046   21.5649 C   0  0  0  0  0  0  0  0  0  0  0  0
    6.7318   -2.7737   23.1099 H   0  0  0  0  0  0  0  0  0  0  0  0
    6.5705   -3.7012   22.8116 O   0  0  0  0  0  0  0  0  0  0  0  0
    7.8460   -5.1668   22.7746 H   0  0  0  0  0  0  0  0  0  0  0  0
    7.7803   -4.2062   22.2646 C   0  0  0  0  0  0  0  0  0  0  0  0
    8.0187   -4.3909   21.2008 H   0  0  0  0  0  0  0  0  0  0  0  0
    8.7143   -2.9013   22.4920 C   0  0  0  0  0  0  0  0  0  0  0  0
   10.1981   -1.6468   23.7157 C   0  0  0  0  0  0  0  0  0  0  0  0
    9.6297   -2.6531   23.5475 O   0  0  0  0  0  0  0  0  0  0  0  0
   12.3237   -1.3858   23.2852 N   0  0  0  0  0  0  0  0  0  0  0  0
   11.3304   -0.8497   23.8270 C   0  0  0  0  0  0  0  0  0  0  0  0
   13.3965   -0.8660   23.9303 C   0  0  0  0  0  0  0  0  0  0  0  0
   14.3734   -1.3360   23.8660 H   0  0  0  0  0  0  0  0  0  0  0  0
   13.8237    0.8563   25.2111 H   0  0  0  0  0  0  0  0  0  0  0  0
   13.0845    0.2823   24.6434 C   0  0  0  0  0  0  0  0  0  0  0  0
   11.7107    0.4311   24.4578 C   0  0  0  0  0  0  0  0  0  0  0  0
   10.6299    1.7032   24.7463 Cl  0  0  0  0  0  0  0  0  0  0  0  0
    7.1381   -1.2019   19.5538 H   0  0  0  0  0  0  0  0  0  0  0  0
    9.3263   -1.6013   20.2016 H   0  0  0  0  0  0  0  0  0  0  0  0
    7.3913   -2.4409   21.5332 H   0  0  0  0  0  0  0  0  0  0  0  0
    9.7540   -1.3963   24.6904 H   0  0  0  0  0  0  0  0  0  0  0  0
    9.6972   -1.0690   22.9251 H   0  0  0  0  0  0  0  0  0  0  0  0
   12.3252   -2.0519   22.5394 H   0  0  0  0  0  0  0  0  0  0  0  0
    8.3269    1.0881   19.6822 H   0  0  0  0  0  0  0  0  0  0  0  0
 19 20  1  0  0  0  0
 21 22  1  0  0  0  0
 19 22  2  0  0  0  0
 17 19  1  0  0  0  0
 22 23  1  0  0  0  0
 17 18  1  0  0  0  0
 18 23  2  0  0  0  0
 23 24  1  0  0  0  0
 15 18  1  0  0  0  0
 15 16  1  0  0  0  0
 14 16  1  0  0  0  0
 12 14  1  0  0  0  0
  8 14  2  3  0  0  0
 11 12  1  0  0  0  0
 12 13  1  0  0  0  0
 10 12  1  0  0  0  0
  7  8  1  0  0  0  0
  6  7  1  0  0  0  0
  9 10  1  0  0  0  0
  5  6  2  0  0  0  0
  2  5  1  0  0  0  0
  2  3  1  0  0  0  0
  1  2  1  0  0  0  0
  2  4  1  0  0  0  0
  6 25  1  0  0  0  0
  7 26  1  0  0  0  0
  8 27  1  0  0  0  0
 15 28  1  0  0  0  0
 15 29  1  0  0  0  0
 17 30  1  0  0  0  0
  5 31  1  0  0  0  0
M  CHG  1   5   1
M  END
> <Chemgauss4>
-5.687953

$$$$
