stable:False satoms:8 tatoms:24 sratio:0.3333333333333333
  -OEChem-07092417403D

 24 24  0     0  0  0  0  0  0999 V2000
    6.6638   -4.6851   26.5177 O   0  0  0  0  0  0  0  0  0  0  0  0
    8.1003   -4.3244   26.1513 S   0  0  0  0  0  0  0  0  0  0  0  0
    8.8898   -5.5222   26.0120 O   0  0  0  0  0  0  0  0  0  0  0  0
    8.6245   -3.4537   27.1269 O   0  5  0  0  0  0  0  0  0  0  0  0
    8.0425   -3.5971   24.6927 N   0  0  0  0  0  0  0  0  0  0  0  0
    8.8924   -2.8696   24.2120 C   0  0  0  0  0  0  0  0  0  0  0  0
    9.4976   -2.0876   23.6855 C   0  0  0  0  0  0  0  0  0  0  0  0
   10.4081   -1.2857   22.9987 C   0  0  0  0  0  0  0  0  0  0  0  0
   11.3888    0.0970   24.3404 C   0  0  0  0  0  0  0  0  0  0  0  0
   12.1219    0.4496   24.5910 C   0  0  0  0  0  0  0  0  0  0  0  0
   13.4946   -0.3880   23.3327 O   0  0  0  0  0  0  0  0  0  0  0  0
   12.7009   -1.0343   23.0432 C   0  0  0  0  0  0  0  0  0  0  0  0
   11.6763   -1.6300   22.8506 N   0  0  0  0  0  0  0  0  0  0  0  0
    9.8262   -0.5111   22.1582 C   0  0  0  0  0  0  0  0  0  0  0  0
    9.0301    0.0402   21.2385 C   0  0  0  0  0  0  0  0  0  0  0  0
    9.4502    0.9811   20.6208 O   0  0  0  0  0  0  0  0  0  0  0  0
    7.8196   -0.5698   21.1481 N   0  0  0  0  0  0  0  0  0  0  0  0
    7.1183   -0.0901   20.2022 C   0  0  0  0  0  0  0  0  0  0  0  0
    7.1483   -0.0351   18.8690 C   0  0  0  0  0  0  0  0  0  0  0  0
    6.7104    0.2175   17.8414 N   0  0  0  0  0  0  0  0  0  0  0  0
    5.6441    0.7807   18.3501 C   0  0  0  0  0  0  0  0  0  0  0  0
    5.1719    0.9559   19.3954 C   0  0  0  0  0  0  0  0  0  0  0  0
    5.7573    0.5704   20.4638 C   0  0  0  0  0  0  0  0  0  0  0  0
    5.4062    0.7013   21.4546 H   0  0  0  0  0  0  0  0  0  0  0  0
 20 21  2  0  0  0  0
 19 20  1  0  0  0  0
 19 21  1  0  0  0  0
 21 22  1  0  0  0  0
 18 19  2  0  0  0  0
 22 23  2  0  0  0  0
 18 23  1  0  0  0  0
 17 18  1  0  0  0  0
 23 24  1  0  0  0  0
 15 16  2  0  0  0  0
 15 17  1  0  0  0  0
 14 15  1  0  0  0  0
  8 14  2  3  0  0  0
  8 13  1  0  0  0  0
 12 13  1  0  0  0  0
  7  8  1  0  0  0  0
 11 12  2  0  0  0  0
  6  7  3  0  0  0  0
  5  6  1  0  0  0  0
  9 10  3  0  0  0  0
  2  5  1  0  0  0  0
  2  3  2  0  0  0  0
  1  2  2  0  0  0  0
  2  4  1  0  0  0  0
M  CHG  1   4  -1
M  END
> <Shapegauss>
-278.346252

$$$$
