stable:False satoms:7 tatoms:24 sratio:0.2916666666666667
  -OEChem-08062412593D

 41 44  0     1  0  0  0  0  0999 V2000
    6.6224   -5.2910   26.2345 C   0  0  0  0  0  0  0  0  0  0  0  0
    8.2367   -4.7244   26.0293 S   0  0  0  0  0  0  0  0  0  0  0  0
    9.1094   -5.8791   25.8580 O   0  0  0  0  0  0  0  0  0  0  0  0
    8.5596   -3.9518   27.1846 O   0  0  0  0  0  0  0  0  0  0  0  0
    8.1413   -3.8572   24.6308 N   0  0  0  0  0  0  0  0  0  0  0  0
    8.9254   -3.1347   24.1901 C   0  0  0  0  0  0  0  0  0  0  0  0
    9.3899   -2.1685   23.6839 C   0  0  0  0  0  0  0  0  0  0  0  0
   10.3196   -1.2329   23.5506 C   0  0  1  0  0  0  0  0  0  0  0  0
   11.0249   -0.3049   24.6765 C   0  0  0  0  0  0  0  0  0  0  0  0
   12.0591   -0.0084   24.6879 C   0  0  0  0  0  0  0  0  0  0  0  0
   13.1296   -0.3629   23.8597 C   0  0  0  0  0  0  0  0  0  0  0  0
   12.7401   -1.3569   22.9741 C   0  0  0  0  0  0  0  0  0  0  0  0
   11.8224   -1.7959   22.7355 C   0  0  0  0  0  0  0  0  0  0  0  0
    9.6457   -0.6980   22.7063 C   0  0  3  0  0  0  0  0  0  0  0  0
    9.0497    0.0439   21.7525 C   0  0  0  0  0  0  0  0  0  0  0  0
    9.5754    1.0163   21.4332 O   0  0  0  0  0  0  0  0  0  0  0  0
    7.9099   -0.5141   21.3829 N   0  0  0  0  0  0  0  0  0  0  0  0
    7.2600   -0.0125   20.4761 C   0  0  0  0  0  0  0  0  0  0  0  0
    7.2673    0.2336   19.1808 C   0  0  0  0  0  0  0  0  0  0  0  0
    6.9241    0.6377   18.0890 N   0  0  0  0  0  0  0  0  0  0  0  0
    5.7931    1.1218   18.6388 C   0  0  0  0  0  0  0  0  0  0  0  0
    5.3594    1.1086   19.7916 C   0  0  0  0  0  0  0  0  0  0  0  0
    5.7987    0.6082   20.9218 C   0  0  0  0  0  0  0  0  0  0  0  0
    5.3594    0.5614   22.0676 C   0  0  0  0  0  0  0  0  0  0  0  0
    6.5588   -5.8941   27.1522 H   0  0  0  0  0  0  0  0  0  0  0  0
    5.9396   -4.4320   26.3123 H   0  0  0  0  0  0  0  0  0  0  0  0
    6.3379   -5.9083   25.3697 H   0  0  0  0  0  0  0  0  0  0  0  0
    7.3147   -3.3035   24.7317 H   0  0  0  0  0  0  0  0  0  0  0  0
    9.8210   -3.7218   24.3301 H   0  0  0  0  0  0  0  0  0  0  0  0
   10.4024    0.0466   25.4860 H   0  0  0  0  0  0  0  0  0  0  0  0
   12.3156    0.6836   25.4764 H   0  0  0  0  0  0  0  0  0  0  0  0
   14.1163    0.0741   23.9036 H   0  0  0  0  0  0  0  0  0  0  0  0
   13.5642   -1.7657   22.4083 H   0  0  0  0  0  0  0  0  0  0  0  0
   11.6718   -1.6512   21.6555 H   0  0  0  0  0  0  0  0  0  0  0  0
   11.9180   -2.8702   22.9517 H   0  0  0  0  0  0  0  0  0  0  0  0
   10.1401   -1.3000   21.9296 H   0  0  0  0  0  0  0  0  0  0  0  0
    7.5814   -1.3399   21.8412 H   0  0  0  0  0  0  0  0  0  0  0  0
    4.4132    1.6192   19.8939 H   0  0  0  0  0  0  0  0  0  0  0  0
    4.7702   -0.3584   22.1976 H   0  0  0  0  0  0  0  0  0  0  0  0
    6.1962    0.5646   22.7815 H   0  0  0  0  0  0  0  0  0  0  0  0
    4.7181    1.4363   22.2503 H   0  0  0  0  0  0  0  0  0  0  0  0
 20 21  2  0  0  0  0
 19 20  1  0  0  0  0
 19 21  1  0  0  0  0
 21 22  1  0  0  0  0
 18 19  2  0  0  0  0
 22 23  2  0  0  0  0
 18 23  1  0  0  0  0
 17 18  1  0  0  0  0
 23 24  1  0  0  0  0
 15 16  2  0  0  0  0
 15 17  1  0  0  0  0
 14 15  1  0  0  0  0
  8 14  1  0  0  0  0
  7 14  1  0  0  0  0
 12 13  1  0  0  0  0
  8 13  1  0  0  0  0
 11 12  2  0  0  0  0
  7  8  1  0  0  0  0
  8  9  1  0  0  0  0
 10 11  1  0  0  0  0
  6  7  2  3  0  0  0
  5  6  1  0  0  0  0
  9 10  2  0  0  0  0
  2  5  1  0  0  0  0
  2  3  2  0  0  0  0
  1  2  1  0  0  0  0
  2  4  2  0  0  0  0
  1 25  1  0  0  0  0
  1 26  1  0  0  0  0
  1 27  1  0  0  0  0
  5 28  1  0  0  0  0
  6 29  1  0  0  0  0
  9 30  1  0  0  0  0
 10 31  1  0  0  0  0
 11 32  1  0  0  0  0
 12 33  1  0  0  0  0
 13 34  1  0  0  0  0
 13 35  1  0  0  0  0
 14 36  1  0  0  0  0
 17 37  1  0  0  0  0
 22 38  1  0  0  0  0
 24 39  1  0  0  0  0
 24 40  1  0  0  0  0
 24 41  1  0  0  0  0
M  END
> <Chemgauss4>
-9.061119

$$$$
