stable:False satoms:7 tatoms:24 sratio:0.2916666666666667
  -OEChem-08062412593D

 41 44  0     1  0  0  0  0  0999 V2000
   -6.4463   -5.7165  -25.5712 C   0  0  0  0  0  0  0  0  0  0  0  0
   -8.0194   -5.0142  -25.6043 S   0  0  0  0  0  0  0  0  0  0  0  0
   -9.0021   -6.0866  -25.5140 O   0  0  0  0  0  0  0  0  0  0  0  0
   -8.1205   -4.2699  -26.8174 O   0  0  0  0  0  0  0  0  0  0  0  0
   -8.0353   -4.0964  -24.2351 N   0  0  0  0  0  0  0  0  0  0  0  0
   -8.8062   -3.2948  -23.9282 C   0  0  0  0  0  0  0  0  0  0  0  0
   -9.2492   -2.2731  -23.5214 C   0  0  0  0  0  0  0  0  0  0  0  0
  -10.1054   -1.2613  -23.5456 C   0  0  1  0  0  0  0  0  0  0  0  0
  -10.5749   -0.3305  -24.7864 C   0  0  0  0  0  0  0  0  0  0  0  0
  -11.5695    0.0469  -24.9469 C   0  0  0  0  0  0  0  0  0  0  0  0
  -12.7660   -0.1839  -24.2592 C   0  0  0  0  0  0  0  0  0  0  0  0
  -12.5824   -1.1657  -23.2968 C   0  0  0  0  0  0  0  0  0  0  0  0
  -11.7447   -1.6658  -22.9223 C   0  0  0  0  0  0  0  0  0  0  0  0
   -9.5053   -0.7452  -22.6364 C   0  0  3  0  0  0  0  0  0  0  0  0
   -8.9789   -0.0119  -21.6361 C   0  0  0  0  0  0  0  0  0  0  0  0
   -9.4575    1.0125  -21.4229 O   0  0  0  0  0  0  0  0  0  0  0  0
   -7.9494   -0.6424  -21.0981 N   0  0  0  0  0  0  0  0  0  0  0  0
   -7.3841   -0.1549  -20.1290 C   0  0  0  0  0  0  0  0  0  0  0  0
   -7.5408    0.1479  -18.8554 C   0  0  0  0  0  0  0  0  0  0  0  0
   -7.3110    0.5711  -17.7412 N   0  0  0  0  0  0  0  0  0  0  0  0
   -6.0804    0.9385  -18.1494 C   0  0  0  0  0  0  0  0  0  0  0  0
   -5.5016    0.8398  -19.2321 C   0  0  0  0  0  0  0  0  0  0  0  0
   -5.8294    0.3267  -20.3940 C   0  0  0  0  0  0  0  0  0  0  0  0
   -5.2487    0.1944  -21.4680 C   0  0  0  0  0  0  0  0  0  0  0  0
   -6.3141   -6.3627  -26.4515 H   0  0  0  0  0  0  0  0  0  0  0  0
   -5.6886   -4.9192  -25.5847 H   0  0  0  0  0  0  0  0  0  0  0  0
   -6.3316   -6.3158  -24.6560 H   0  0  0  0  0  0  0  0  0  0  0  0
   -7.1585   -3.6156  -24.2420 H   0  0  0  0  0  0  0  0  0  0  0  0
   -9.7222   -3.8141  -24.1681 H   0  0  0  0  0  0  0  0  0  0  0  0
   -9.8237   -0.0659  -25.5158 H   0  0  0  0  0  0  0  0  0  0  0  0
  -11.6603    0.7218  -25.7851 H   0  0  0  0  0  0  0  0  0  0  0  0
  -13.6975    0.3283  -24.4501 H   0  0  0  0  0  0  0  0  0  0  0  0
  -13.5055   -1.4821  -22.8340 H   0  0  0  0  0  0  0  0  0  0  0  0
  -11.7257   -1.4860  -21.8373 H   0  0  0  0  0  0  0  0  0  0  0  0
  -11.9022   -2.7375  -23.1137 H   0  0  0  0  0  0  0  0  0  0  0  0
  -10.1470   -1.2709  -21.9140 H   0  0  0  0  0  0  0  0  0  0  0  0
   -7.6350   -1.5113  -21.4803 H   0  0  0  0  0  0  0  0  0  0  0  0
   -4.5102    1.2681  -19.2228 H   0  0  0  0  0  0  0  0  0  0  0  0
   -4.7281   -0.7744  -21.4870 H   0  0  0  0  0  0  0  0  0  0  0  0
   -5.9811    0.2330  -22.2879 H   0  0  0  0  0  0  0  0  0  0  0  0
   -4.5169    1.0063  -21.5915 H   0  0  0  0  0  0  0  0  0  0  0  0
 20 21  2  0  0  0  0
 19 20  1  0  0  0  0
 19 21  1  0  0  0  0
 21 22  1  0  0  0  0
 18 19  2  0  0  0  0
 22 23  2  0  0  0  0
 18 23  1  0  0  0  0
 17 18  1  0  0  0  0
 23 24  1  0  0  0  0
 15 16  2  0  0  0  0
 15 17  1  0  0  0  0
 14 15  1  0  0  0  0
  8 14  1  0  0  0  0
  7 14  1  0  0  0  0
 12 13  1  0  0  0  0
  8 13  1  0  0  0  0
 11 12  2  0  0  0  0
  7  8  1  0  0  0  0
  8  9  1  0  0  0  0
 10 11  1  0  0  0  0
  6  7  2  3  0  0  0
  5  6  1  0  0  0  0
  9 10  2  0  0  0  0
  2  5  1  0  0  0  0
  2  3  2  0  0  0  0
  1  2  1  0  0  0  0
  2  4  2  0  0  0  0
  1 25  1  0  0  0  0
  1 26  1  0  0  0  0
  1 27  1  0  0  0  0
  5 28  1  0  0  0  0
  6 29  1  0  0  0  0
  9 30  1  0  0  0  0
 10 31  1  0  0  0  0
 11 32  1  0  0  0  0
 12 33  1  0  0  0  0
 13 34  1  0  0  0  0
 13 35  1  0  0  0  0
 14 36  1  0  0  0  0
 17 37  1  0  0  0  0
 22 38  1  0  0  0  0
 24 39  1  0  0  0  0
 24 40  1  0  0  0  0
 24 41  1  0  0  0  0
M  END
> <Chemgauss4>
-9.061599

$$$$
