REMARK  9 active torsions:
REMARK  status: ('A' for Active; 'I' for Inactive)
REMARK    1  A    between atoms: N_1  and  C_14 
REMARK    2  A    between atoms: N_1  and  C_7 
REMARK    3  A    between atoms: C_2  and  C_4 
REMARK    4  A    between atoms: C_4  and  C_11 
REMARK    5  A    between atoms: C_6  and  O_8 
REMARK    6  A    between atoms: C_7  and  O_10 
REMARK    7  A    between atoms: C_7  and  O_8 
REMARK    8  A    between atoms: O_9  and  O_12 
REMARK    9  A    between atoms: O_9  and  C_11 
ROOT
HETATM    1  C   UNL     1      10.380  -2.372  23.472  1.00  0.00     0.182 A 
HETATM    2  O   UNL     1      11.072  -1.459  24.411  1.00  0.00    -0.348 OA
HETATM    3  C   UNL     1       9.909  -1.172  23.993  1.00  0.00     0.294 A 
ENDROOT
BRANCH   3   4
HETATM    4  O   UNL     1       9.678  -0.009  23.153  1.00  0.00    -0.311 OA
BRANCH   4   5
HETATM    5  C   UNL     1       8.400   0.544  23.483  1.00  0.00     0.367 C 
BRANCH   5   6
HETATM    6  N   UNL     1       7.299  -0.218  22.971  1.00  0.00    -0.366 N 
HETATM    7  H   UNL     1       6.756  -0.899  23.473  1.00  0.00     0.158 HD
BRANCH   6   8
HETATM    8  C   UNL     1       6.825  -0.172  21.549  1.00  0.00     0.205 C 
HETATM    9  S   UNL     1       7.601   1.115  20.536  1.00  0.00    -0.076 SA
ENDBRANCH   6   8
ENDBRANCH   5   6
BRANCH   5  10
HETATM   10  O   UNL     1       8.379   1.811  22.919  1.00  0.00    -0.355 OA
HETATM   11  H   UNL     1       7.649   1.923  22.005  1.00  0.00     0.214 HD
ENDBRANCH   5  10
ENDBRANCH   4   5
ENDBRANCH   3   4
BRANCH   1  12
HETATM   12  C   UNL     1       9.159  -3.101  23.063  1.00  0.00     0.066 C 
BRANCH  12  13
HETATM   13  C   UNL     1       8.951  -3.202  21.614  1.00  0.00     0.212 C 
BRANCH  13  14
HETATM   14  O   UNL     1       9.248  -2.060  20.827  1.00  0.00    -0.243 OA
BRANCH  14  15
HETATM   15  O   UNL     1      10.138  -1.211  20.908  1.00  0.00    -0.251 OA
HETATM   16  H   UNL     1      10.732  -1.193  21.709  1.00  0.00     0.253 HD
ENDBRANCH  14  15
ENDBRANCH  13  14
ENDBRANCH  12  13
ENDBRANCH   1  12
TORSDOF 9
