stable:False satoms:19 tatoms:24 sratio:0.7916666666666666
  -OEChem-07092417333D

 24 25  0     1  0  0  0  0  0999 V2000
    7.1354   -2.2882   25.7542 C   0  0  0  0  0  0  0  0  0  0  0  0
    8.5048   -3.7172   25.4750 H   0  0  0  0  0  0  0  0  0  0  0  0
    7.0941   -2.4905   26.9331 O   0  0  0  0  0  0  0  0  0  0  0  0
    8.3430   -2.7571   25.1966 N   0  0  0  0  0  0  0  0  0  0  0  0
    9.0771   -1.4042   23.4186 N   0  3  0  0  0  0  0  0  0  0  0  0
    9.1683   -1.8511   24.6637 C   0  0  0  0  0  0  0  0  0  0  0  0
    8.3078   -0.3293   22.9852 C   0  0  0  0  0  0  0  0  0  0  0  0
   10.0457   -2.9307   22.4574 H   0  0  0  0  0  0  0  0  0  0  0  0
    9.9040   -0.4198   20.1617 C   0  0  0  0  0  0  0  0  0  0  0  0
    9.2674   -1.3581   21.1324 C   0  0  2  0  0  0  0  0  0  0  0  0
   10.4990    0.3604   20.6409 H   0  0  0  0  0  0  0  0  0  0  0  0
   10.9982   -1.4640   22.4252 H   0  0  0  0  0  0  0  0  0  0  0  0
    9.9864   -1.4960   25.2553 H   0  0  0  0  0  0  0  0  0  0  0  0
    8.4979    0.0746   19.5590 C   0  0  0  0  0  0  0  0  0  0  0  0
    7.8281    0.6552   23.7008 N   0  5  0  0  0  0  0  0  0  0  0  0
   10.4682   -0.8615   19.3496 H   0  0  0  0  0  0  0  0  0  0  0  0
    8.0641   -0.7705   19.0133 H   0  0  0  0  0  0  0  0  0  0  0  0
    8.2394   -0.3529   21.6080 C   0  0  0  0  0  0  0  0  0  0  0  0
    9.9762   -1.8586   22.3636 C   0  0  0  0  0  0  0  0  0  0  0  0
    8.5865    0.9392   18.8826 H   0  0  0  0  0  0  0  0  0  0  0  0
    7.7184    0.4230   20.6615 O   0  0  0  0  0  0  0  0  0  0  0  0
    8.7276   -2.1658   20.6091 H   0  0  0  0  0  0  0  0  0  0  0  0
    7.1096    0.3153   24.3263 H   0  0  0  0  0  0  0  0  0  0  0  0
    6.0367   -1.5422   24.7236 S   0  0  0  0  0  0  0  0  0  0  0  0
 14 20  1  0  0  0  0
 14 17  1  0  0  0  0
  9 16  1  0  0  0  0
  9 14  1  0  0  0  0
 14 21  1  0  0  0  0
  9 11  1  0  0  0  0
  9 10  1  0  0  0  0
 10 22  1  0  0  0  0
 18 21  1  0  0  0  0
 10 18  1  0  0  0  0
 10 19  1  0  0  0  0
  7 18  2  0  0  0  0
 12 19  1  0  0  0  0
  8 19  1  0  0  0  0
  5 19  1  0  0  0  0
  5  7  1  0  0  0  0
  7 15  1  0  0  0  0
  5  6  2  3  0  0  0
 15 23  1  0  0  0  0
  4  6  1  0  0  0  0
  6 13  1  0  0  0  0
  1 24  1  0  0  0  0
  2  4  1  0  0  0  0
  1  4  1  0  0  0  0
  1  3  2  0  0  0  0
M  CHG  2   5   1  15  -1
M  END
> <Shapegauss>
-107.340660

$$$$
