REMARK  2 active torsions:
REMARK  status: ('A' for Active; 'I' for Inactive)
REMARK       I    between atoms: C_1  and  N_4 
REMARK    1  A    between atoms: N_5  and  C_6 
REMARK    2  A    between atoms: C_7  and  N_11 
ROOT
HETATM    1  N   UNL     1       9.077  -1.404  23.419  1.00  0.00    -0.327 N 
HETATM    2  C   UNL     1       8.308  -0.329  22.985  1.00  0.00     0.132 C 
HETATM    3  C   UNL     1       9.904  -0.420  20.162  1.00  0.00     0.040 C 
HETATM    4  C   UNL     1       9.267  -1.358  21.132  1.00  0.00     0.067 C 
HETATM    5  C   UNL     1       8.498   0.075  19.559  1.00  0.00     0.176 C 
HETATM    6  C   UNL     1       8.239  -0.353  21.608  1.00  0.00     0.095 C 
HETATM    7  C   UNL     1       9.976  -1.859  22.364  1.00  0.00     0.143 C 
HETATM    8  O   UNL     1       7.718   0.423  20.662  1.00  0.00    -0.351 OA
ENDROOT
BRANCH   1   9
HETATM    9  C   UNL     1       9.168  -1.851  24.664  1.00  0.00     0.188 C 
HETATM   10  N   UNL     1       8.343  -2.757  25.197  1.00  0.00    -0.310 N 
HETATM   11  C   UNL     1       7.135  -2.288  25.754  1.00  0.00     0.316 C 
HETATM   12  H   UNL     1       8.505  -3.717  25.475  1.00  0.00     0.170 HD
HETATM   13  S   UNL     1       6.037  -1.542  24.724  1.00  0.00    -0.015 SA
HETATM   14  O   UNL     1       7.094  -2.490  26.933  1.00  0.00    -0.255 OA
ENDBRANCH   1   9
BRANCH   2  15
HETATM   15  N   UNL     1       7.828   0.655  23.701  1.00  0.00    -0.383 N 
HETATM   16  H   UNL     1       7.110   0.315  24.326  1.00  0.00     0.157 HD
ATOM     17  HN  UNL     1       8.134   1.626  23.638  1.00  0.00     0.157 HD
ENDBRANCH   2  15
TORSDOF 2
