MODEL 1
REMARK VINA RESULT:    -5.440      0.000      0.000
REMARK INTER + INTRA:          -5.902
REMARK INTER:                  -5.917
REMARK INTRA:                   0.015
REMARK UNBOUND:                 0.015
REMARK  2 active torsions:
REMARK  status: ('A' for Active; 'I' for Inactive)
REMARK       I    between atoms: C_1  and  N_4 
REMARK    1  A    between atoms: N_5  and  C_6 
REMARK    2  A    between atoms: C_7  and  N_11 
ROOT
HETATM    1  N   UNL     1       9.196  15.341   3.073  1.00  0.00    -0.327 N 
HETATM    2  C   UNL     1       9.127  15.593   1.707  1.00  0.00     0.132 C 
HETATM    3  C   UNL     1       7.201  18.125   2.344  1.00  0.00     0.040 C 
HETATM    4  C   UNL     1       8.459  17.503   2.854  1.00  0.00     0.067 C 
HETATM    5  C   UNL     1       7.917  18.763   1.054  1.00  0.00     0.176 C 
HETATM    6  C   UNL     1       8.859  16.931   1.510  1.00  0.00     0.095 C 
HETATM    7  C   UNL     1       8.460  16.351   3.826  1.00  0.00     0.143 C 
HETATM    8  O   UNL     1       8.627  17.717   0.463  1.00  0.00    -0.351 OA
ENDROOT
BRANCH   1   9
HETATM    9  C   UNL     1       9.669  14.242   3.645  1.00  0.00     0.188 C 
HETATM   10  N   UNL     1       9.425  13.004   3.206  1.00  0.00    -0.310 N 
HETATM   11  C   UNL     1       8.238  12.381   3.646  1.00  0.00     0.316 C 
HETATM   12  H   UNL     1      10.035  12.323   2.773  1.00  0.00     0.170 HD
HETATM   13  S   UNL     1       6.777  13.084   3.205  1.00  0.00    -0.015 SA
HETATM   14  O   UNL     1       8.476  11.416   4.312  1.00  0.00    -0.255 OA
ENDBRANCH   1   9
BRANCH   2  15
HETATM   15  N   UNL     1       9.157  14.725   0.728  1.00  0.00    -0.383 N 
HETATM   16  H   UNL     1      10.067  14.724   0.289  1.00  0.00     0.157 HD
ATOM     17  HN  UNL     1       8.374  14.135   0.448  1.00  0.00     0.157 HD
ENDBRANCH   2  15
TORSDOF 2
ENDMDL
MODEL 2
REMARK VINA RESULT:    -5.382     34.157     36.335
REMARK INTER + INTRA:          -5.839
REMARK INTER:                  -5.571
REMARK INTRA:                  -0.268
REMARK UNBOUND:                 0.015
REMARK  2 active torsions:
REMARK  status: ('A' for Active; 'I' for Inactive)
REMARK       I    between atoms: C_1  and  N_4 
REMARK    1  A    between atoms: N_5  and  C_6 
REMARK    2  A    between atoms: C_7  and  N_11 
ROOT
HETATM    1  N   UNL     1       1.685 -19.296   9.288  1.00  0.00    -0.327 N 
HETATM    2  C   UNL     1       2.990 -19.447   8.828  1.00  0.00     0.132 C 
HETATM    3  C   UNL     1       2.550 -22.661   8.853  1.00  0.00     0.040 C 
HETATM    4  C   UNL     1       1.827 -21.423   8.438  1.00  0.00     0.067 C 
HETATM    5  C   UNL     1       3.547 -22.625   7.592  1.00  0.00     0.176 C 
HETATM    6  C   UNL     1       3.091 -20.642   8.147  1.00  0.00     0.095 C 
HETATM    7  C   UNL     1       1.022 -20.590   9.402  1.00  0.00     0.143 C 
HETATM    8  O   UNL     1       4.066 -21.330   7.561  1.00  0.00    -0.351 OA
ENDROOT
BRANCH   1   9
HETATM    9  C   UNL     1       1.146 -18.183   9.766  1.00  0.00     0.188 C 
HETATM   10  N   UNL     1      -0.068 -17.736   9.433  1.00  0.00    -0.310 N 
HETATM   11  C   UNL     1      -0.175 -16.950   8.267  1.00  0.00     0.316 C 
HETATM   12  H   UNL     1      -0.921 -17.672   9.975  1.00  0.00     0.170 HD
HETATM   13  S   UNL     1       0.224 -17.669   6.801  1.00  0.00    -0.015 SA
HETATM   14  O   UNL     1      -0.532 -15.837   8.524  1.00  0.00    -0.255 OA
ENDBRANCH   1   9
BRANCH   2  15
HETATM   15  N   UNL     1       4.025 -18.692   9.091  1.00  0.00    -0.383 N 
HETATM   16  H   UNL     1       4.501 -18.441   8.235  1.00  0.00     0.157 HD
ATOM     17  HN  UNL     1       4.311 -18.397  10.024  1.00  0.00     0.157 HD
ENDBRANCH   2  15
TORSDOF 2
ENDMDL
MODEL 3
REMARK VINA RESULT:    -5.322     22.614     23.924
REMARK INTER + INTRA:          -5.774
REMARK INTER:                  -5.525
REMARK INTRA:                  -0.249
REMARK UNBOUND:                 0.015
REMARK  2 active torsions:
REMARK  status: ('A' for Active; 'I' for Inactive)
REMARK       I    between atoms: C_1  and  N_4 
REMARK    1  A    between atoms: N_5  and  C_6 
REMARK    2  A    between atoms: C_7  and  N_11 
ROOT
HETATM    1  N   UNL     1       8.154   0.536  20.769  1.00  0.00    -0.327 N 
HETATM    2  C   UNL     1       7.355   1.587  21.208  1.00  0.00     0.132 C 
HETATM    3  C   UNL     1       5.562   1.249  18.526  1.00  0.00     0.040 C 
HETATM    4  C   UNL     1       6.198   0.400  19.575  1.00  0.00     0.067 C 
HETATM    5  C   UNL     1       4.362   1.720  19.487  1.00  0.00     0.176 C 
HETATM    6  C   UNL     1       6.098   1.457  20.656  1.00  0.00     0.095 C 
HETATM    7  C   UNL     1       7.646  -0.015  19.518  1.00  0.00     0.143 C 
HETATM    8  O   UNL     1       4.973   2.166  20.659  1.00  0.00    -0.351 OA
ENDROOT
BRANCH   1   9
HETATM    9  C   UNL     1       9.332   0.186  21.267  1.00  0.00     0.188 C 
HETATM   10  N   UNL     1       9.782  -1.072  21.313  1.00  0.00    -0.310 N 
HETATM   11  C   UNL     1       9.398  -1.859  22.419  1.00  0.00     0.316 C 
HETATM   12  H   UNL     1      10.531  -1.526  20.806  1.00  0.00     0.170 HD
HETATM   13  S   UNL     1       7.762  -2.184  22.617  1.00  0.00    -0.015 SA
HETATM   14  O   UNL     1      10.346  -2.168  23.081  1.00  0.00    -0.255 OA
ENDBRANCH   1   9
BRANCH   2  15
HETATM   15  N   UNL     1       7.716   2.632  21.907  1.00  0.00    -0.383 N 
HETATM   16  H   UNL     1       8.106   3.341  21.301  1.00  0.00     0.157 HD
ATOM     17  HN  UNL     1       7.620   2.719  22.919  1.00  0.00     0.157 HD
ENDBRANCH   2  15
TORSDOF 2
ENDMDL
MODEL 4
REMARK VINA RESULT:    -5.191     25.578     26.791
REMARK INTER + INTRA:          -5.631
REMARK INTER:                  -5.375
REMARK INTRA:                  -0.255
REMARK UNBOUND:                 0.015
REMARK  2 active torsions:
REMARK  status: ('A' for Active; 'I' for Inactive)
REMARK       I    between atoms: C_1  and  N_4 
REMARK    1  A    between atoms: N_5  and  C_6 
REMARK    2  A    between atoms: C_7  and  N_11 
ROOT
HETATM    1  N   UNL     1       8.085  -1.357  22.787  1.00  0.00    -0.327 N 
HETATM    2  C   UNL     1       9.125  -1.118  21.894  1.00  0.00     0.132 C 
HETATM    3  C   UNL     1      11.070  -0.540  24.425  1.00  0.00     0.040 C 
HETATM    4  C   UNL     1      10.027  -1.519  24.000  1.00  0.00     0.067 C 
HETATM    5  C   UNL     1      12.199  -1.173  23.470  1.00  0.00     0.176 C 
HETATM    6  C   UNL     1      10.325  -1.374  22.523  1.00  0.00     0.095 C 
HETATM    7  C   UNL     1       8.552  -1.258  24.166  1.00  0.00     0.143 C 
HETATM    8  O   UNL     1      11.612  -1.268  22.207  1.00  0.00    -0.351 OA
ENDROOT
BRANCH   1   9
HETATM    9  C   UNL     1       6.798  -1.457  22.484  1.00  0.00     0.188 C 
HETATM   10  N   UNL     1       5.943  -2.273  23.107  1.00  0.00    -0.310 N 
HETATM   11  C   UNL     1       5.863  -3.604  22.648  1.00  0.00     0.316 C 
HETATM   12  H   UNL     1       5.167  -2.071  23.726  1.00  0.00     0.170 HD
HETATM   13  S   UNL     1       7.240  -4.559  22.776  1.00  0.00    -0.015 SA
HETATM   14  O   UNL     1       4.779  -3.845  22.201  1.00  0.00    -0.255 OA
ENDBRANCH   1   9
BRANCH   2  15
HETATM   15  N   UNL     1       9.049  -0.598  20.696  1.00  0.00    -0.383 N 
HETATM   16  H   UNL     1       9.674  -1.081  20.065  1.00  0.00     0.157 HD
ATOM     17  HN  UNL     1       8.447   0.184  20.436  1.00  0.00     0.157 HD
ENDBRANCH   2  15
TORSDOF 2
ENDMDL
MODEL 5
REMARK VINA RESULT:    -5.066     26.764     27.572
REMARK INTER + INTRA:          -5.494
REMARK INTER:                  -5.229
REMARK INTRA:                  -0.265
REMARK UNBOUND:                 0.015
REMARK  2 active torsions:
REMARK  status: ('A' for Active; 'I' for Inactive)
REMARK       I    between atoms: C_1  and  N_4 
REMARK    1  A    between atoms: N_5  and  C_6 
REMARK    2  A    between atoms: C_7  and  N_11 
ROOT
HETATM    1  N   UNL     1       8.948  -1.024  23.895  1.00  0.00    -0.327 N 
HETATM    2  C   UNL     1       9.946  -1.477  23.038  1.00  0.00     0.132 C 
HETATM    3  C   UNL     1      11.959   0.707  24.344  1.00  0.00     0.040 C 
HETATM    4  C   UNL     1      10.937  -0.290  24.776  1.00  0.00     0.067 C 
HETATM    5  C   UNL     1      13.075  -0.412  24.046  1.00  0.00     0.176 C 
HETATM    6  C   UNL     1      11.176  -1.219  23.605  1.00  0.00     0.095 C 
HETATM    7  C   UNL     1       9.460   0.011  24.787  1.00  0.00     0.143 C 
HETATM    8  O   UNL     1      12.447  -1.363  23.240  1.00  0.00    -0.351 OA
ENDROOT
BRANCH   1   9
HETATM    9  C   UNL     1       7.656  -1.308  23.813  1.00  0.00     0.188 C 
HETATM   10  N   UNL     1       6.868  -1.527  24.870  1.00  0.00    -0.310 N 
HETATM   11  C   UNL     1       6.833  -2.836  25.394  1.00  0.00     0.316 C 
HETATM   12  H   UNL     1       6.112  -0.977  25.257  1.00  0.00     0.170 HD
HETATM   13  S   UNL     1       8.259  -3.464  26.024  1.00  0.00    -0.015 SA
HETATM   14  O   UNL     1       5.744  -3.319  25.282  1.00  0.00    -0.255 OA
ENDBRANCH   1   9
BRANCH   2  15
HETATM   15  N   UNL     1       9.810  -1.942  21.823  1.00  0.00    -0.383 N 
HETATM   16  H   UNL     1       9.661  -1.183  21.172  1.00  0.00     0.157 HD
ATOM     17  HN  UNL     1       9.847  -2.929  21.568  1.00  0.00     0.157 HD
ENDBRANCH   2  15
TORSDOF 2
ENDMDL
MODEL 6
REMARK VINA RESULT:    -4.887     25.141     26.101
REMARK INTER + INTRA:          -5.300
REMARK INTER:                  -5.035
REMARK INTRA:                  -0.265
REMARK UNBOUND:                 0.015
REMARK  2 active torsions:
REMARK  status: ('A' for Active; 'I' for Inactive)
REMARK       I    between atoms: C_1  and  N_4 
REMARK    1  A    between atoms: N_5  and  C_6 
REMARK    2  A    between atoms: C_7  and  N_11 
ROOT
HETATM    1  N   UNL     1       9.961  -0.259  23.859  1.00  0.00    -0.327 N 
HETATM    2  C   UNL     1       9.402   0.598  24.801  1.00  0.00     0.132 C 
HETATM    3  C   UNL     1      11.238   2.992  23.608  1.00  0.00     0.040 C 
HETATM    4  C   UNL     1      10.380   1.874  23.119  1.00  0.00     0.067 C 
HETATM    5  C   UNL     1       9.984   3.912  24.017  1.00  0.00     0.176 C 
HETATM    6  C   UNL     1       9.466   1.891  24.327  1.00  0.00     0.095 C 
HETATM    7  C   UNL     1      10.884   0.460  22.987  1.00  0.00     0.143 C 
HETATM    8  O   UNL     1       9.158   3.098  24.792  1.00  0.00    -0.351 OA
ENDROOT
BRANCH   1   9
HETATM    9  C   UNL     1       9.864  -1.581  23.846  1.00  0.00     0.188 C 
HETATM   10  N   UNL     1       9.551  -2.299  22.763  1.00  0.00    -0.310 N 
HETATM   11  C   UNL     1       8.182  -2.478  22.475  1.00  0.00     0.316 C 
HETATM   12  H   UNL     1      10.110  -2.932  22.204  1.00  0.00     0.170 HD
HETATM   13  S   UNL     1       7.271  -1.110  22.126  1.00  0.00    -0.015 SA
HETATM   14  O   UNL     1       7.870  -3.631  22.549  1.00  0.00    -0.255 OA
ENDBRANCH   1   9
BRANCH   2  15
HETATM   15  N   UNL     1       9.001   0.307  26.012  1.00  0.00    -0.383 N 
HETATM   16  H   UNL     1       8.486  -0.562  26.010  1.00  0.00     0.157 HD
ATOM     17  HN  UNL     1       9.182   0.876  26.839  1.00  0.00     0.157 HD
ENDBRANCH   2  15
TORSDOF 2
ENDMDL
MODEL 7
REMARK VINA RESULT:    -4.875     26.952     28.241
REMARK INTER + INTRA:          -5.287
REMARK INTER:                  -5.094
REMARK INTRA:                  -0.194
REMARK UNBOUND:                 0.015
REMARK  2 active torsions:
REMARK  status: ('A' for Active; 'I' for Inactive)
REMARK       I    between atoms: C_1  and  N_4 
REMARK    1  A    between atoms: N_5  and  C_6 
REMARK    2  A    between atoms: C_7  and  N_11 
ROOT
HETATM    1  N   UNL     1       7.591  -3.113  22.752  1.00  0.00    -0.327 N 
HETATM    2  C   UNL     1       6.297  -2.895  22.291  1.00  0.00     0.132 C 
HETATM    3  C   UNL     1       5.670  -6.039  22.784  1.00  0.00     0.040 C 
HETATM    4  C   UNL     1       6.343  -4.899  23.471  1.00  0.00     0.067 C 
HETATM    5  C   UNL     1       4.191  -5.505  23.121  1.00  0.00     0.176 C 
HETATM    6  C   UNL     1       5.460  -3.844  22.839  1.00  0.00     0.095 C 
HETATM    7  C   UNL     1       7.765  -4.497  23.177  1.00  0.00     0.143 C 
HETATM    8  O   UNL     1       4.175  -4.168  22.723  1.00  0.00    -0.351 OA
ENDROOT
BRANCH   1   9
HETATM    9  C   UNL     1       8.613  -2.275  22.644  1.00  0.00     0.188 C 
HETATM   10  N   UNL     1       9.661  -2.260  23.473  1.00  0.00    -0.310 N 
HETATM   11  C   UNL     1       9.539  -1.511  24.662  1.00  0.00     0.316 C 
HETATM   12  H   UNL     1      10.629  -2.517  23.321  1.00  0.00     0.170 HD
HETATM   13  S   UNL     1       8.366  -1.986  25.767  1.00  0.00    -0.015 SA
HETATM   14  O   UNL     1      10.316  -0.601  24.683  1.00  0.00    -0.255 OA
ENDBRANCH   1   9
BRANCH   2  15
HETATM   15  N   UNL     1       5.902  -2.044  21.379  1.00  0.00    -0.383 N 
HETATM   16  H   UNL     1       6.669  -1.445  21.104  1.00  0.00     0.157 HD
ATOM     17  HN  UNL     1       4.957  -1.992  20.999  1.00  0.00     0.157 HD
ENDBRANCH   2  15
TORSDOF 2
ENDMDL
MODEL 8
REMARK VINA RESULT:    -4.830     27.407     28.470
REMARK INTER + INTRA:          -5.238
REMARK INTER:                  -4.985
REMARK INTRA:                  -0.253
REMARK UNBOUND:                 0.015
REMARK  2 active torsions:
REMARK  status: ('A' for Active; 'I' for Inactive)
REMARK       I    between atoms: C_1  and  N_4 
REMARK    1  A    between atoms: N_5  and  C_6 
REMARK    2  A    between atoms: C_7  and  N_11 
ROOT
HETATM    1  N   UNL     1       8.099  -3.037  24.247  1.00  0.00    -0.327 N 
HETATM    2  C   UNL     1       8.194  -4.422  24.164  1.00  0.00     0.132 C 
HETATM    3  C   UNL     1       5.614  -4.409  22.197  1.00  0.00     0.040 C 
HETATM    4  C   UNL     1       6.887  -3.656  22.399  1.00  0.00     0.067 C 
HETATM    5  C   UNL     1       6.348  -5.672  21.525  1.00  0.00     0.176 C 
HETATM    6  C   UNL     1       7.633  -4.841  22.976  1.00  0.00     0.095 C 
HETATM    7  C   UNL     1       7.020  -2.538  23.401  1.00  0.00     0.143 C 
HETATM    8  O   UNL     1       7.385  -6.010  22.394  1.00  0.00    -0.351 OA
ENDROOT
BRANCH   1   9
HETATM    9  C   UNL     1       8.734  -2.258  25.112  1.00  0.00     0.188 C 
HETATM   10  N   UNL     1       9.162  -1.023  24.834  1.00  0.00    -0.310 N 
HETATM   11  C   UNL     1      10.427  -0.894  24.223  1.00  0.00     0.316 C 
HETATM   12  H   UNL     1       8.844  -0.121  25.169  1.00  0.00     0.170 HD
HETATM   13  S   UNL     1      10.628  -1.566  22.696  1.00  0.00    -0.015 SA
HETATM   14  O   UNL     1      11.196  -0.316  24.935  1.00  0.00    -0.255 OA
ENDBRANCH   1   9
BRANCH   2  15
HETATM   15  N   UNL     1       8.601  -5.255  25.087  1.00  0.00    -0.383 N 
HETATM   16  H   UNL     1       7.809  -5.653  25.573  1.00  0.00     0.157 HD
ATOM     17  HN  UNL     1       9.577  -5.472  25.288  1.00  0.00     0.157 HD
ENDBRANCH   2  15
TORSDOF 2
ENDMDL
MODEL 9
REMARK VINA RESULT:    -4.750     24.511     27.117
REMARK INTER + INTRA:          -5.151
REMARK INTER:                  -4.977
REMARK INTRA:                  -0.174
REMARK UNBOUND:                 0.015
REMARK  2 active torsions:
REMARK  status: ('A' for Active; 'I' for Inactive)
REMARK       I    between atoms: C_1  and  N_4 
REMARK    1  A    between atoms: N_5  and  C_6 
REMARK    2  A    between atoms: C_7  and  N_11 
ROOT
HETATM    1  N   UNL     1       8.452  -1.705  22.368  1.00  0.00    -0.327 N 
HETATM    2  C   UNL     1       7.126  -1.995  22.673  1.00  0.00     0.132 C 
HETATM    3  C   UNL     1       8.161  -4.472  24.494  1.00  0.00     0.040 C 
HETATM    4  C   UNL     1       8.497  -3.042  24.234  1.00  0.00     0.067 C 
HETATM    5  C   UNL     1       6.875  -4.115  25.390  1.00  0.00     0.176 C 
HETATM    6  C   UNL     1       7.076  -2.650  23.885  1.00  0.00     0.095 C 
HETATM    7  C   UNL     1       9.356  -2.606  23.075  1.00  0.00     0.143 C 
HETATM    8  O   UNL     1       6.130  -3.211  24.632  1.00  0.00    -0.351 OA
ENDROOT
BRANCH   1   9
HETATM    9  C   UNL     1       8.877  -0.880  21.421  1.00  0.00     0.188 C 
HETATM   10  N   UNL     1      10.068  -0.275  21.434  1.00  0.00    -0.310 N 
HETATM   11  C   UNL     1      10.172   0.940  22.143  1.00  0.00     0.316 C 
HETATM   12  H   UNL     1      10.884  -0.408  20.850  1.00  0.00     0.170 HD
HETATM   13  S   UNL     1       9.906   0.901  23.802  1.00  0.00    -0.015 SA
HETATM   14  O   UNL     1      10.427   1.850  21.409  1.00  0.00    -0.255 OA
ENDBRANCH   1   9
BRANCH   2  15
HETATM   15  N   UNL     1       6.074  -1.833  21.912  1.00  0.00    -0.383 N 
HETATM   16  H   UNL     1       5.284  -1.535  22.467  1.00  0.00     0.157 HD
ATOM     17  HN  UNL     1       6.054  -1.985  20.904  1.00  0.00     0.157 HD
ENDBRANCH   2  15
TORSDOF 2
ENDMDL
