REMARK  4 active torsions:
REMARK  status: ('A' for Active; 'I' for Inactive)
REMARK    1  A    between atoms: C_1  and  C_11 
REMARK    2  A    between atoms: C_3  and  C_4 
REMARK    3  A    between atoms: C_4  and  N_5 
REMARK    4  A    between atoms: O_6  and  C_11 
ROOT
HETATM    1  C   UNL     1       7.448  -1.799  22.166  1.00  0.00     0.127 A 
HETATM    2  N   UNL     1       8.276  -1.124  22.922  1.00  0.00    -0.362 N 
HETATM    3  C   UNL     1       8.590  -0.953  21.625  1.00  0.00     0.152 A 
ENDROOT
BRANCH   2   4
HETATM    4  C   UNL     1       8.575  -1.077  24.162  1.00  0.00     0.098 C 
HETATM    5  S   UNL     1       7.869  -2.127  25.256  1.00  0.00    -0.061 SA
BRANCH   4   6
HETATM    6  C   UNL     1       9.475   0.008  24.335  1.00  0.00     0.037 C 
HETATM    7  C   UNL     1       9.459   1.157  23.466  1.00  0.00    -0.028 C 
HETATM    8  C   UNL     1       8.629   1.610  22.314  1.00  0.00     0.036 C 
ENDBRANCH   4   6
ENDBRANCH   2   4
BRANCH   1   9
HETATM    9  C   UNL     1       7.641  -3.118  21.423  1.00  0.00     0.193 C 
BRANCH   9  10
HETATM   10  O   UNL     1       8.989  -3.403  21.325  1.00  0.00    -0.394 OA
HETATM   11  C   UNL     1       9.860  -3.367  22.435  1.00  0.00     0.201 C 
ENDBRANCH   9  10
ENDBRANCH   1   9
TORSDOF 4
