stable:False satoms:19 tatoms:24 sratio:0.7916666666666666
  -OEChem-07092417313D

 24 24  0     1  0  0  0  0  0999 V2000
    7.4476   -1.7992   22.1660 C   0  0  1  0  0  0  0  0  0  0  0  0
    7.8689   -2.1268   25.2555 S   0  0  0  0  0  0  0  0  0  0  0  0
   10.7929   -2.9400   22.1092 H   0  0  0  0  0  0  0  0  0  0  0  0
    9.4752    0.0076   24.3350 C   0  0  0  0  0  0  0  0  0  0  0  0
    8.5746   -1.0773   24.1617 C   0  0  0  0  0  0  0  0  0  0  0  0
    9.6724   -0.9886   21.6047 H   0  0  0  0  0  0  0  0  0  0  0  0
    7.1403   -3.9048   21.9648 H   0  0  0  0  0  0  0  0  0  0  0  0
    9.5611   -2.8380   23.3406 H   0  0  0  0  0  0  0  0  0  0  0  0
    8.2759   -1.1241   22.9221 N   0  0  0  0  0  0  0  0  0  0  0  0
    8.9892   -3.4033   21.3250 O   0  0  0  0  0  0  0  0  0  0  0  0
   10.1627    1.9193   23.8539 H   0  0  0  0  0  0  0  0  0  0  0  0
   10.2350   -0.0752   25.0656 H   0  0  0  0  0  0  0  0  0  0  0  0
   10.0218   -4.4103   22.6737 H   0  0  0  0  0  0  0  0  0  0  0  0
    9.8597   -3.3671   22.4348 C   0  0  0  0  0  0  0  0  0  0  0  0
    7.2381   -3.0328   20.4307 H   0  0  0  0  0  0  0  0  0  0  0  0
    9.0306    1.3009   21.3652 H   0  0  0  0  0  0  0  0  0  0  0  0
    8.6286    1.6100   22.3136 C   0  0  0  0  0  0  0  0  0  0  0  0
    8.2666   -0.6167   20.6395 H   0  0  0  0  0  0  0  0  0  0  0  0
    7.6119    1.2538   22.3963 H   0  0  0  0  0  0  0  0  0  0  0  0
    9.4591    1.1566   23.4660 C   0  0  0  0  0  0  0  0  0  0  0  0
    8.5904   -0.9534   21.6247 C   0  0  0  0  0  0  0  0  0  0  0  0
    7.6405   -3.1181   21.4234 C   0  0  0  0  0  0  0  0  0  0  0  0
    8.6089    2.6955   22.2987 H   0  0  0  0  0  0  0  0  0  0  0  0
    6.4320   -1.4580   22.1262 H   0  0  0  0  0  0  0  0  0  0  0  0
 15 22  1  0  0  0  0
 18 21  1  0  0  0  0
 10 22  1  0  0  0  0
 10 14  1  0  0  0  0
 16 17  1  0  0  0  0
  7 22  1  0  0  0  0
  1 22  1  0  0  0  0
  6 21  1  0  0  0  0
  1 21  1  0  0  0  0
  9 21  1  0  0  0  0
  3 14  1  0  0  0  0
  1 24  1  0  0  0  0
  1  9  1  0  0  0  0
 17 23  1  0  0  0  0
 17 19  1  0  0  0  0
 17 20  1  0  0  0  0
 13 14  1  0  0  0  0
  8 14  1  0  0  0  0
  5  9  1  0  0  0  0
 11 20  1  0  0  0  0
  4 20  2  0  0  0  0
  4  5  1  0  0  0  0
  2  5  2  0  0  0  0
  4 12  1  0  0  0  0
M  END
> <Shapegauss>
-81.788315

$$$$
