MODEL 1
REMARK VINA RESULT:    -3.816      0.000      0.000
REMARK INTER + INTRA:          -4.972
REMARK INTER:                  -4.709
REMARK INTRA:                  -0.263
REMARK UNBOUND:                -0.263
REMARK  4 active torsions:
REMARK  status: ('A' for Active; 'I' for Inactive)
REMARK    1  A    between atoms: C_1  and  C_11 
REMARK    2  A    between atoms: C_3  and  C_4 
REMARK    3  A    between atoms: C_4  and  N_5 
REMARK    4  A    between atoms: O_6  and  C_11 
ROOT
HETATM    1  C   UNL     1       8.587  14.625   2.516  1.00  0.00     0.127 A 
HETATM    2  N   UNL     1       8.422  15.815   1.995  1.00  0.00    -0.362 N 
HETATM    3  C   UNL     1       9.389  15.151   1.336  1.00  0.00     0.152 A 
ENDROOT
BRANCH   2   4
HETATM    4  C   UNL     1       7.827  16.897   2.318  1.00  0.00     0.098 C 
HETATM    5  S   UNL     1       7.498  17.251   3.919  1.00  0.00    -0.061 SA
BRANCH   4   6
HETATM    6  C   UNL     1       7.499  17.570   1.111  1.00  0.00     0.037 C 
HETATM    7  C   UNL     1       8.384  18.536   0.512  1.00  0.00    -0.028 C 
HETATM    8  C   UNL     1       9.744  19.066   0.815  1.00  0.00     0.036 C 
ENDBRANCH   4   6
ENDBRANCH   2   4
BRANCH   1   9
HETATM    9  C   UNL     1       9.679  14.095   3.440  1.00  0.00     0.193 C 
BRANCH   9  10
HETATM   10  O   UNL     1       9.363  12.813   3.845  1.00  0.00    -0.394 OA
HETATM   11  C   UNL     1       8.093  12.235   3.630  1.00  0.00     0.201 C 
ENDBRANCH   9  10
ENDBRANCH   1   9
TORSDOF 4
ENDMDL
MODEL 2
REMARK VINA RESULT:    -3.770     23.545     25.804
REMARK INTER + INTRA:          -4.915
REMARK INTER:                  -4.676
REMARK INTRA:                  -0.239
REMARK UNBOUND:                -0.263
REMARK  4 active torsions:
REMARK  status: ('A' for Active; 'I' for Inactive)
REMARK    1  A    between atoms: C_1  and  C_11 
REMARK    2  A    between atoms: C_3  and  C_4 
REMARK    3  A    between atoms: C_4  and  N_5 
REMARK    4  A    between atoms: O_6  and  C_11 
ROOT
HETATM    1  C   UNL     1       9.269   0.000  21.519  1.00  0.00     0.127 A 
HETATM    2  N   UNL     1       9.606  -0.233  22.762  1.00  0.00    -0.362 N 
HETATM    3  C   UNL     1       9.575  -1.385  22.067  1.00  0.00     0.152 A 
ENDROOT
BRANCH   2   4
HETATM    4  C   UNL     1       9.597   0.410  23.864  1.00  0.00     0.098 C 
HETATM    5  S   UNL     1       8.442   0.095  25.032  1.00  0.00    -0.061 SA
BRANCH   4   6
HETATM    6  C   UNL     1      10.634   1.378  23.793  1.00  0.00     0.037 C 
HETATM    7  C   UNL     1      12.010   1.041  24.056  1.00  0.00    -0.028 C 
HETATM    8  C   UNL     1      12.758  -0.207  24.380  1.00  0.00     0.036 C 
ENDBRANCH   4   6
ENDBRANCH   2   4
BRANCH   1   9
HETATM    9  C   UNL     1       7.942  -0.222  20.798  1.00  0.00     0.193 C 
BRANCH   9  10
HETATM   10  O   UNL     1       7.913   0.528  19.638  1.00  0.00    -0.394 OA
HETATM   11  C   UNL     1       6.870   0.431  18.692  1.00  0.00     0.201 C 
ENDBRANCH   9  10
ENDBRANCH   1   9
TORSDOF 4
ENDMDL
MODEL 3
REMARK VINA RESULT:    -3.735     24.008     25.957
REMARK INTER + INTRA:          -4.871
REMARK INTER:                  -4.633
REMARK INTRA:                  -0.238
REMARK UNBOUND:                -0.263
REMARK  4 active torsions:
REMARK  status: ('A' for Active; 'I' for Inactive)
REMARK    1  A    between atoms: C_1  and  C_11 
REMARK    2  A    between atoms: C_3  and  C_4 
REMARK    3  A    between atoms: C_4  and  N_5 
REMARK    4  A    between atoms: O_6  and  C_11 
ROOT
HETATM    1  C   UNL     1       9.978  -0.387  21.813  1.00  0.00     0.127 A 
HETATM    2  N   UNL     1      10.424  -0.725  22.996  1.00  0.00    -0.362 N 
HETATM    3  C   UNL     1       9.712  -1.735  22.465  1.00  0.00     0.152 A 
ENDROOT
BRANCH   2   4
HETATM    4  C   UNL     1      10.951  -0.131  23.996  1.00  0.00     0.098 C 
HETATM    5  S   UNL     1      12.605  -0.165  24.240  1.00  0.00    -0.061 SA
BRANCH   4   6
HETATM    6  C   UNL     1       9.890   0.411  24.768  1.00  0.00     0.037 C 
HETATM    7  C   UNL     1       9.548   1.810  24.716  1.00  0.00    -0.028 C 
HETATM    8  C   UNL     1      10.025   2.996  23.950  1.00  0.00     0.036 C 
ENDBRANCH   4   6
ENDBRANCH   2   4
BRANCH   1   9
HETATM    9  C   UNL     1       8.582   0.040  21.370  1.00  0.00     0.193 C 
BRANCH   9  10
HETATM   10  O   UNL     1       8.570   0.242  20.003  1.00  0.00    -0.394 OA
HETATM   11  C   UNL     1       7.388   0.190  19.233  1.00  0.00     0.201 C 
ENDBRANCH   9  10
ENDBRANCH   1   9
TORSDOF 4
ENDMDL
MODEL 4
REMARK VINA RESULT:    -3.685     26.839     27.746
REMARK INTER + INTRA:          -4.810
REMARK INTER:                  -4.525
REMARK INTRA:                  -0.285
REMARK UNBOUND:                -0.263
REMARK  4 active torsions:
REMARK  status: ('A' for Active; 'I' for Inactive)
REMARK    1  A    between atoms: C_1  and  C_11 
REMARK    2  A    between atoms: C_3  and  C_4 
REMARK    3  A    between atoms: C_4  and  N_5 
REMARK    4  A    between atoms: O_6  and  C_11 
ROOT
HETATM    1  C   UNL     1       9.511  -1.993  24.065  1.00  0.00     0.127 A 
HETATM    2  N   UNL     1      10.085  -0.836  24.276  1.00  0.00    -0.362 N 
HETATM    3  C   UNL     1       9.227  -1.114  25.273  1.00  0.00     0.152 A 
ENDROOT
BRANCH   2   4
HETATM    4  C   UNL     1      10.791  -0.012  23.603  1.00  0.00     0.098 C 
HETATM    5  S   UNL     1      10.281   0.533  22.107  1.00  0.00    -0.061 SA
BRANCH   4   6
HETATM    6  C   UNL     1      11.988   0.209  24.335  1.00  0.00     0.037 C 
HETATM    7  C   UNL     1      13.165  -0.597  24.134  1.00  0.00    -0.028 C 
HETATM    8  C   UNL     1      13.547  -1.716  23.226  1.00  0.00     0.036 C 
ENDBRANCH   4   6
ENDBRANCH   2   4
BRANCH   1   9
HETATM    9  C   UNL     1       8.107  -2.322  23.565  1.00  0.00     0.193 C 
BRANCH   9  10
HETATM   10  O   UNL     1       8.115  -3.549  22.932  1.00  0.00    -0.394 OA
HETATM   11  C   UNL     1       7.458  -4.683  23.455  1.00  0.00     0.201 C 
ENDBRANCH   9  10
ENDBRANCH   1   9
TORSDOF 4
ENDMDL
MODEL 5
REMARK VINA RESULT:    -3.527     30.931     32.142
REMARK INTER + INTRA:          -4.615
REMARK INTER:                  -4.249
REMARK INTRA:                  -0.366
REMARK UNBOUND:                -0.263
REMARK  4 active torsions:
REMARK  status: ('A' for Active; 'I' for Inactive)
REMARK    1  A    between atoms: C_1  and  C_11 
REMARK    2  A    between atoms: C_3  and  C_4 
REMARK    3  A    between atoms: C_4  and  N_5 
REMARK    4  A    between atoms: O_6  and  C_11 
ROOT
HETATM    1  C   UNL     1      24.238  -3.524  24.574  1.00  0.00     0.127 A 
HETATM    2  N   UNL     1      23.274  -2.642  24.509  1.00  0.00    -0.362 N 
HETATM    3  C   UNL     1      23.186  -3.338  25.656  1.00  0.00     0.152 A 
ENDROOT
BRANCH   2   4
HETATM    4  C   UNL     1      22.762  -1.888  23.614  1.00  0.00     0.098 C 
HETATM    5  S   UNL     1      23.606  -1.517  22.219  1.00  0.00    -0.061 SA
BRANCH   4   6
HETATM    6  C   UNL     1      21.502  -1.453  24.104  1.00  0.00     0.037 C 
HETATM    7  C   UNL     1      21.337  -0.181  24.759  1.00  0.00    -0.028 C 
HETATM    8  C   UNL     1      22.219   0.979  25.071  1.00  0.00     0.036 C 
ENDBRANCH   4   6
ENDBRANCH   2   4
BRANCH   1   9
HETATM    9  C   UNL     1      24.212  -5.033  24.352  1.00  0.00     0.193 C 
BRANCH   9  10
HETATM   10  O   UNL     1      24.307  -5.305  23.001  1.00  0.00    -0.394 OA
HETATM   11  C   UNL     1      25.405  -4.895  22.214  1.00  0.00     0.201 C 
ENDBRANCH   9  10
ENDBRANCH   1   9
TORSDOF 4
ENDMDL
MODEL 6
REMARK VINA RESULT:    -3.525     31.414     33.102
REMARK INTER + INTRA:          -4.613
REMARK INTER:                  -4.230
REMARK INTRA:                  -0.383
REMARK UNBOUND:                -0.263
REMARK  4 active torsions:
REMARK  status: ('A' for Active; 'I' for Inactive)
REMARK    1  A    between atoms: C_1  and  C_11 
REMARK    2  A    between atoms: C_3  and  C_4 
REMARK    3  A    between atoms: C_4  and  N_5 
REMARK    4  A    between atoms: O_6  and  C_11 
ROOT
HETATM    1  C   UNL     1      24.090  -3.154  25.799  1.00  0.00     0.127 A 
HETATM    2  N   UNL     1      23.882  -2.034  26.443  1.00  0.00    -0.362 N 
HETATM    3  C   UNL     1      24.167  -3.021  27.312  1.00  0.00     0.152 A 
ENDROOT
BRANCH   2   4
HETATM    4  C   UNL     1      23.400  -0.883  26.174  1.00  0.00     0.098 C 
HETATM    5  S   UNL     1      24.316   0.268  25.378  1.00  0.00    -0.061 SA
BRANCH   4   6
HETATM    6  C   UNL     1      22.094  -0.835  26.732  1.00  0.00     0.037 C 
HETATM    7  C   UNL     1      20.918  -1.094  25.942  1.00  0.00    -0.028 C 
HETATM    8  C   UNL     1      20.649  -1.493  24.531  1.00  0.00     0.036 C 
ENDBRANCH   4   6
ENDBRANCH   2   4
BRANCH   1   9
HETATM    9  C   UNL     1      23.191  -4.375  25.626  1.00  0.00     0.193 C 
BRANCH   9  10
HETATM   10  O   UNL     1      23.376  -4.914  24.368  1.00  0.00    -0.394 OA
HETATM   11  C   UNL     1      24.612  -4.864  23.689  1.00  0.00     0.201 C 
ENDBRANCH   9  10
ENDBRANCH   1   9
TORSDOF 4
ENDMDL
MODEL 7
REMARK VINA RESULT:    -3.460     26.933     28.366
REMARK INTER + INTRA:          -4.532
REMARK INTER:                  -4.223
REMARK INTRA:                  -0.309
REMARK UNBOUND:                -0.263
REMARK  4 active torsions:
REMARK  status: ('A' for Active; 'I' for Inactive)
REMARK    1  A    between atoms: C_1  and  C_11 
REMARK    2  A    between atoms: C_3  and  C_4 
REMARK    3  A    between atoms: C_4  and  N_5 
REMARK    4  A    between atoms: O_6  and  C_11 
ROOT
HETATM    1  C   UNL     1       8.198  -2.845  23.960  1.00  0.00     0.127 A 
HETATM    2  N   UNL     1       9.056  -2.046  23.379  1.00  0.00    -0.362 N 
HETATM    3  C   UNL     1       8.242  -2.596  22.460  1.00  0.00     0.152 A 
ENDROOT
BRANCH   2   4
HETATM    4  C   UNL     1      10.136  -1.448  23.702  1.00  0.00     0.098 C 
HETATM    5  S   UNL     1      11.497  -1.549  22.735  1.00  0.00    -0.061 SA
BRANCH   4   6
HETATM    6  C   UNL     1       9.914  -0.837  24.965  1.00  0.00     0.037 C 
HETATM    7  C   UNL     1      10.090   0.579  25.167  1.00  0.00    -0.028 C 
HETATM    8  C   UNL     1      10.440   1.743  24.305  1.00  0.00     0.036 C 
ENDBRANCH   4   6
ENDBRANCH   2   4
BRANCH   1   9
HETATM    9  C   UNL     1       8.162  -4.369  24.035  1.00  0.00     0.193 C 
BRANCH   9  10
HETATM   10  O   UNL     1       7.994  -4.765  25.348  1.00  0.00    -0.394 OA
HETATM   11  C   UNL     1       8.452  -3.999  26.441  1.00  0.00     0.201 C 
ENDBRANCH   9  10
ENDBRANCH   1   9
TORSDOF 4
ENDMDL
MODEL 8
REMARK VINA RESULT:    -3.417     27.313     28.417
REMARK INTER + INTRA:          -4.479
REMARK INTER:                  -4.191
REMARK INTRA:                  -0.288
REMARK UNBOUND:                -0.263
REMARK  4 active torsions:
REMARK  status: ('A' for Active; 'I' for Inactive)
REMARK    1  A    between atoms: C_1  and  C_11 
REMARK    2  A    between atoms: C_3  and  C_4 
REMARK    3  A    between atoms: C_4  and  N_5 
REMARK    4  A    between atoms: O_6  and  C_11 
ROOT
HETATM    1  C   UNL     1       9.379  -2.331  23.147  1.00  0.00     0.127 A 
HETATM    2  N   UNL     1       8.192  -2.870  23.041  1.00  0.00    -0.362 N 
HETATM    3  C   UNL     1       8.275  -1.778  22.260  1.00  0.00     0.152 A 
ENDROOT
BRANCH   2   4
HETATM    4  C   UNL     1       7.511  -3.749  23.668  1.00  0.00     0.098 C 
HETATM    5  S   UNL     1       8.202  -4.662  24.887  1.00  0.00    -0.061 SA
BRANCH   4   6
HETATM    6  C   UNL     1       6.223  -3.785  23.070  1.00  0.00     0.037 C 
HETATM    7  C   UNL     1       5.877  -4.755  22.063  1.00  0.00    -0.028 C 
HETATM    8  C   UNL     1       6.561  -5.911  21.417  1.00  0.00     0.036 C 
ENDBRANCH   4   6
ENDBRANCH   2   4
BRANCH   1   9
HETATM    9  C   UNL     1       9.836  -1.089  23.908  1.00  0.00     0.193 C 
BRANCH   9  10
HETATM   10  O   UNL     1      11.208  -1.121  24.068  1.00  0.00    -0.394 OA
HETATM   11  C   UNL     1      12.089  -1.497  23.032  1.00  0.00     0.201 C 
ENDBRANCH   9  10
ENDBRANCH   1   9
TORSDOF 4
ENDMDL
MODEL 9
REMARK VINA RESULT:    -3.396     28.376     29.662
REMARK INTER + INTRA:          -4.453
REMARK INTER:                  -4.169
REMARK INTRA:                  -0.284
REMARK UNBOUND:                -0.263
REMARK  4 active torsions:
REMARK  status: ('A' for Active; 'I' for Inactive)
REMARK    1  A    between atoms: C_1  and  C_11 
REMARK    2  A    between atoms: C_3  and  C_4 
REMARK    3  A    between atoms: C_4  and  N_5 
REMARK    4  A    between atoms: O_6  and  C_11 
ROOT
HETATM    1  C   UNL     1       8.579  -3.772  24.274  1.00  0.00     0.127 A 
HETATM    2  N   UNL     1       8.083  -3.527  23.088  1.00  0.00    -0.362 N 
HETATM    3  C   UNL     1       9.009  -2.603  23.402  1.00  0.00     0.152 A 
ENDROOT
BRANCH   2   4
HETATM    4  C   UNL     1       7.084  -3.922  22.398  1.00  0.00     0.098 C 
HETATM    5  S   UNL     1       5.967  -2.829  21.802  1.00  0.00    -0.061 SA
BRANCH   4   6
HETATM    6  C   UNL     1       7.138  -5.340  22.357  1.00  0.00     0.037 C 
HETATM    7  C   UNL     1       6.086  -6.158  22.906  1.00  0.00    -0.028 C 
HETATM    8  C   UNL     1       4.766  -5.906  23.548  1.00  0.00     0.036 C 
ENDBRANCH   4   6
ENDBRANCH   2   4
BRANCH   1   9
HETATM    9  C   UNL     1       8.311  -3.096  25.615  1.00  0.00     0.193 C 
BRANCH   9  10
HETATM   10  O   UNL     1       8.382  -4.031  26.630  1.00  0.00    -0.394 OA
HETATM   11  C   UNL     1       7.939  -5.362  26.474  1.00  0.00     0.201 C 
ENDBRANCH   9  10
ENDBRANCH   1   9
TORSDOF 4
ENDMDL
