
 OpenBabel07202414173D

 41 43  0  0  0  0  0  0  0  0999 V2000
    6.6795   -7.0987    3.5919 Cl  0  0  0  0  0  0  0  0  0  0  0  0
    6.6410   -5.3256    3.5541 C   0  0  0  0  0  0  0  0  0  0  0  0
    7.8419   -4.7406    2.8253 C   0  0  0  0  0  0  0  0  0  0  0  0
    8.7720   -5.4338    2.4108 O   0  0  0  0  0  0  0  0  0  0  0  0
    7.8327   -3.3608    2.6349 N   0  0  0  0  0  0  0  0  0  0  0  0
    6.8523   -2.4249    3.1978 C   0  0  0  0  0  0  0  0  0  0  0  0
    6.3743   -1.4131    2.1349 C   0  0  0  0  0  0  0  0  0  0  0  0
    7.4680   -0.7011    1.4369 N   0  0  0  0  0  0  0  0  0  0  0  0
    8.1279    0.2634    2.3406 C   0  0  0  0  0  0  0  0  0  0  0  0
    9.2182    1.0744    1.6606 C   0  0  0  0  0  0  0  0  0  0  0  0
    8.8388    1.8292    0.5312 C   0  0  0  0  0  0  0  0  0  0  0  0
    9.7808    2.5399   -0.2054 C   0  0  0  0  0  0  0  0  0  0  0  0
    9.3828    3.2668   -1.3738 C   0  0  0  0  0  0  0  0  0  0  0  0
    9.0635    3.8556   -2.3206 N   0  0  0  0  0  0  0  0  0  0  0  0
   11.1167    2.5271    0.1940 C   0  0  0  0  0  0  0  0  0  0  0  0
   11.5254    1.8130    1.3306 C   0  0  0  0  0  0  0  0  0  0  0  0
   12.8778    1.8362    1.7099 C   0  0  0  0  0  0  0  0  0  0  0  0
   13.3227    1.1426    2.8325 C   0  0  0  0  0  0  0  0  0  0  0  0
   12.4170    0.4189    3.5916 C   0  0  0  0  0  0  0  0  0  0  0  0
   11.0694    0.3845    3.2261 C   0  0  0  0  0  0  0  0  0  0  0  0
   10.5794    1.0744    2.0907 C   0  0  0  0  0  0  0  0  0  0  0  0
    8.4032   -1.7082    0.8758 C   0  0  0  0  0  0  0  0  0  0  0  0
    8.9339   -2.7336    1.8950 C   0  0  0  0  0  0  0  0  0  0  0  0
    6.6285   -4.9688    4.5872 H   0  0  0  0  0  0  0  0  0  0  0  0
    5.7214   -5.0382    3.0374 H   0  0  0  0  0  0  0  0  0  0  0  0
    7.3409   -1.9121    4.0345 H   0  0  0  0  0  0  0  0  0  0  0  0
    5.9882   -2.9440    3.6153 H   0  0  0  0  0  0  0  0  0  0  0  0
    5.6773   -0.6963    2.5845 H   0  0  0  0  0  0  0  0  0  0  0  0
    5.7935   -1.9594    1.3791 H   0  0  0  0  0  0  0  0  0  0  0  0
    8.4995   -0.2327    3.2371 H   0  0  0  0  0  0  0  0  0  0  0  0
    7.3798    0.9837    2.6992 H   0  0  0  0  0  0  0  0  0  0  0  0
    7.7952    1.8262    0.2153 H   0  0  0  0  0  0  0  0  0  0  0  0
   11.8510    3.0779   -0.3925 H   0  0  0  0  0  0  0  0  0  0  0  0
   13.6045    2.4014    1.1293 H   0  0  0  0  0  0  0  0  0  0  0  0
   14.3719    1.1755    3.1138 H   0  0  0  0  0  0  0  0  0  0  0  0
   12.7579   -0.1254    4.4706 H   0  0  0  0  0  0  0  0  0  0  0  0
   10.4134   -0.1964    3.8664 H   0  0  0  0  0  0  0  0  0  0  0  0
    9.2402   -1.2295    0.3561 H   0  0  0  0  0  0  0  0  0  0  0  0
    7.8603   -2.2549    0.0922 H   0  0  0  0  0  0  0  0  0  0  0  0
    9.5898   -2.2531    2.6285 H   0  0  0  0  0  0  0  0  0  0  0  0
    9.5331   -3.4832    1.3686 H   0  0  0  0  0  0  0  0  0  0  0  0
  1  2  1  0  0  0  0
  2  3  1  0  0  0  0
  2 24  1  0  0  0  0
  2 25  1  0  0  0  0
  3  4  2  0  0  0  0
  3  5  1  0  0  0  0
  5  6  1  0  0  0  0
  5 23  1  0  0  0  0
  6  7  1  0  0  0  0
  6 26  1  0  0  0  0
  6 27  1  0  0  0  0
  7  8  1  0  0  0  0
  7 28  1  0  0  0  0
  7 29  1  0  0  0  0
  8  9  1  0  0  0  0
  8 22  1  0  0  0  0
  9 10  1  0  0  0  0
  9 30  1  0  0  0  0
  9 31  1  0  0  0  0
 10 11  1  0  0  0  0
 10 21  2  0  0  0  0
 11 12  2  0  0  0  0
 11 32  1  0  0  0  0
 12 13  1  0  0  0  0
 12 15  1  0  0  0  0
 13 14  3  0  0  0  0
 15 16  2  0  0  0  0
 15 33  1  0  0  0  0
 16 17  1  0  0  0  0
 16 21  1  0  0  0  0
 17 18  2  0  0  0  0
 17 34  1  0  0  0  0
 18 19  1  0  0  0  0
 18 35  1  0  0  0  0
 19 20  2  0  0  0  0
 19 36  1  0  0  0  0
 20 21  1  0  0  0  0
 20 37  1  0  0  0  0
 22 23  1  0  0  0  0
 22 38  1  0  0  0  0
 22 39  1  0  0  0  0
 23 40  1  0  0  0  0
 23 41  1  0  0  0  0
M  END
$$$$
