stable:False satoms:9 tatoms:24 sratio:0.375
  -OEChem-08062414363D

 42 42  0     1  0  0  0  0  0999 V2000
    6.4679   -5.3185   25.9037 C   0  0  0  0  0  0  0  0  0  0  0  0
    8.1468   -4.6932   25.7205 S   0  0  0  0  0  0  0  0  0  0  0  0
    8.9876   -5.8552   25.5885 O   0  0  0  0  0  0  0  0  0  0  0  0
    8.4630   -3.8573   26.8371 O   0  0  0  0  0  0  0  0  0  0  0  0
    8.1423   -3.8868   24.3131 N   0  0  0  0  0  0  0  0  0  0  0  0
    8.9110   -3.1522   23.8817 C   0  0  0  0  0  0  0  0  0  0  0  0
    9.4040   -2.1614   23.3689 C   0  0  0  0  0  0  0  0  0  0  0  0
   10.2581   -1.1841   23.2643 C   0  0  2  0  0  0  0  0  0  0  0  0
   10.9096   -0.2406   24.3473 C   0  0  0  0  0  0  0  0  0  0  0  0
   12.0486    0.0492   24.3040 C   0  0  0  0  0  0  0  0  0  0  0  0
   13.0395   -0.2076   23.7028 C   0  0  0  0  0  0  0  0  0  0  0  0
   12.6671   -1.4180   22.6707 C   0  0  0  0  0  0  0  0  0  0  0  0
   11.8781   -1.8426   22.4961 C   0  0  0  0  0  0  0  0  0  0  0  0
    9.6849   -0.6289   22.3857 C   0  0  0  0  0  0  0  0  0  0  0  0
    9.0855    0.0924   21.4258 C   0  0  0  0  0  0  0  0  0  0  0  0
    9.5644    1.0936   21.0896 O   0  0  0  0  0  0  0  0  0  0  0  0
    7.9843   -0.5138   21.0506 N   0  0  0  0  0  0  0  0  0  0  0  0
    7.2471    0.0303   20.1604 C   0  0  0  0  0  0  0  0  0  0  0  0
    7.3205    0.2225   18.8709 C   0  0  0  0  0  0  0  0  0  0  0  0
    6.9039    0.6197   17.7678 N   0  0  0  0  0  0  0  0  0  0  0  0
    5.7802    1.1453   18.2848 C   0  0  0  0  0  0  0  0  0  0  0  0
    5.3728    1.1398   19.4170 C   0  0  0  0  0  0  0  0  0  0  0  0
    5.8811    0.6198   20.5422 C   0  0  0  0  0  0  0  0  0  0  0  0
    5.2647    0.6160   21.9847 Cl  0  0  0  0  0  0  0  0  0  0  0  0
    6.3871   -5.8833   26.8441 H   0  0  0  0  0  0  0  0  0  0  0  0
    5.7624   -4.4748   25.9210 H   0  0  0  0  0  0  0  0  0  0  0  0
    6.2286   -5.9793   25.0575 H   0  0  0  0  0  0  0  0  0  0  0  0
    7.2901   -3.3640   24.3340 H   0  0  0  0  0  0  0  0  0  0  0  0
   11.1444   -1.6432   22.8019 H   0  0  0  0  0  0  0  0  0  0  0  0
   10.2960    0.1481   25.1465 H   0  0  0  0  0  0  0  0  0  0  0  0
   12.2633    0.7922   25.0579 H   0  0  0  0  0  0  0  0  0  0  0  0
   13.8296   -0.5314   24.3963 H   0  0  0  0  0  0  0  0  0  0  0  0
   13.3820    0.6751   23.1430 H   0  0  0  0  0  0  0  0  0  0  0  0
   13.5036   -1.7804   22.0917 H   0  0  0  0  0  0  0  0  0  0  0  0
   11.8418   -2.6341   21.7622 H   0  0  0  0  0  0  0  0  0  0  0  0
   10.9810   -1.5535   23.0234 H   0  0  0  0  0  0  0  0  0  0  0  0
    8.7157   -1.0053   22.7448 H   0  0  0  0  0  0  0  0  0  0  0  0
   10.0962   -1.3265   21.6412 H   0  0  0  0  0  0  0  0  0  0  0  0
    7.7253   -1.3904   21.4562 H   0  0  0  0  0  0  0  0  0  0  0  0
    8.2826   -0.2007   18.6225 H   0  0  0  0  0  0  0  0  0  0  0  0
    5.1440    1.6512   17.5736 H   0  0  0  0  0  0  0  0  0  0  0  0
    4.4274    1.6448   19.5501 H   0  0  0  0  0  0  0  0  0  0  0  0
 20 21  2  0  0  0  0
 19 20  1  0  0  0  0
 21 22  1  0  0  0  0
 18 19  2  0  0  0  0
 22 23  2  0  0  0  0
 18 23  1  0  0  0  0
 17 18  1  0  0  0  0
 23 24  1  0  0  0  0
 15 16  2  0  0  0  0
 15 17  1  0  0  0  0
 14 15  1  0  0  0  0
  8 14  1  0  0  0  0
 12 13  2  0  0  0  0
 11 12  1  0  0  0  0
  7  8  1  0  0  0  0
  8  9  1  0  0  0  0
  6  7  3  0  0  0  0
 10 11  1  0  0  0  0
  5  6  1  0  0  0  0
  9 10  2  0  0  0  0
  2  5  1  0  0  0  0
  2  3  2  0  0  0  0
  1  2  1  0  0  0  0
  2  4  2  0  0  0  0
  1 25  1  0  0  0  0
  1 26  1  0  0  0  0
  1 27  1  0  0  0  0
  5 28  1  0  0  0  0
  8 29  1  0  0  0  0
  9 30  1  0  0  0  0
 10 31  1  0  0  0  0
 11 32  1  0  0  0  0
 11 33  1  0  0  0  0
 12 34  1  0  0  0  0
 13 35  1  0  0  0  0
 13 36  1  0  0  0  0
 14 37  1  0  0  0  0
 14 38  1  0  0  0  0
 17 39  1  0  0  0  0
 19 40  1  0  0  0  0
 21 41  1  0  0  0  0
 22 42  1  0  0  0  0
M  END
> <Chemgauss4>
-13.081301

$$$$
