stable:False satoms:9 tatoms:24 sratio:0.375
  -OEChem-08062414353D

 42 42  0     1  0  0  0  0  0999 V2000
   -5.9105   -5.2803  -25.6549 C   0  0  0  0  0  0  0  0  0  0  0  0
   -7.6128   -4.6939  -25.6184 S   0  0  0  0  0  0  0  0  0  0  0  0
   -8.4351   -5.8752  -25.5630 O   0  0  0  0  0  0  0  0  0  0  0  0
   -7.8490   -3.8609  -26.7568 O   0  0  0  0  0  0  0  0  0  0  0  0
   -7.7503   -3.8932  -24.2144 N   0  0  0  0  0  0  0  0  0  0  0  0
   -8.5704   -3.1780  -23.8507 C   0  0  0  0  0  0  0  0  0  0  0  0
   -9.1291   -2.2007  -23.3811 C   0  0  0  0  0  0  0  0  0  0  0  0
  -10.0113   -1.2434  -23.3499 C   0  0  2  0  0  0  0  0  0  0  0  0
  -10.5869   -0.3106  -24.4840 C   0  0  0  0  0  0  0  0  0  0  0  0
  -11.7315   -0.0469  -24.5402 C   0  0  0  0  0  0  0  0  0  0  0  0
  -12.7652   -0.3285  -24.0288 C   0  0  0  0  0  0  0  0  0  0  0  0
  -12.4571   -1.5342  -22.9704 C   0  0  0  0  0  0  0  0  0  0  0  0
  -11.6769   -1.9415  -22.7281 C   0  0  0  0  0  0  0  0  0  0  0  0
   -9.5302   -0.6788  -22.4233 C   0  0  0  0  0  0  0  0  0  0  0  0
   -9.0339    0.0519  -21.4131 C   0  0  0  0  0  0  0  0  0  0  0  0
   -9.5633    1.0407  -21.1182 O   0  0  0  0  0  0  0  0  0  0  0  0
   -7.9563   -0.5306  -20.9440 N   0  0  0  0  0  0  0  0  0  0  0  0
   -7.3125    0.0265  -19.9915 C   0  0  0  0  0  0  0  0  0  0  0  0
   -7.5031    0.2119  -18.7130 C   0  0  0  0  0  0  0  0  0  0  0  0
   -7.1941    0.6140  -17.5768 N   0  0  0  0  0  0  0  0  0  0  0  0
   -6.0417    1.1671  -17.9922 C   0  0  0  0  0  0  0  0  0  0  0  0
   -5.5366    1.1753  -19.0843 C   0  0  0  0  0  0  0  0  0  0  0  0
   -5.9323    0.6484  -20.2508 C   0  0  0  0  0  0  0  0  0  0  0  0
   -5.1919    0.6644  -21.6337 Cl  0  0  0  0  0  0  0  0  0  0  0  0
   -5.7346   -5.8393  -26.5857 H   0  0  0  0  0  0  0  0  0  0  0  0
   -5.2257   -4.4207  -25.6085 H   0  0  0  0  0  0  0  0  0  0  0  0
   -5.7312   -5.9389  -24.7923 H   0  0  0  0  0  0  0  0  0  0  0  0
   -6.9118   -3.3512  -24.1595 H   0  0  0  0  0  0  0  0  0  0  0  0
  -10.9239   -1.7244  -22.9680 H   0  0  0  0  0  0  0  0  0  0  0  0
   -9.9146    0.0951  -25.2256 H   0  0  0  0  0  0  0  0  0  0  0  0
  -11.8963    0.6941  -25.3085 H   0  0  0  0  0  0  0  0  0  0  0  0
  -13.4838   -0.6673  -24.7896 H   0  0  0  0  0  0  0  0  0  0  0  0
  -13.1756    0.5440  -23.4994 H   0  0  0  0  0  0  0  0  0  0  0  0
  -13.3326   -1.9178  -22.4677 H   0  0  0  0  0  0  0  0  0  0  0  0
  -11.6868   -2.7349  -21.9954 H   0  0  0  0  0  0  0  0  0  0  0  0
  -10.7439   -1.6301  -23.1741 H   0  0  0  0  0  0  0  0  0  0  0  0
   -8.5249   -1.0317  -22.6967 H   0  0  0  0  0  0  0  0  0  0  0  0
   -9.9890   -1.3886  -21.7192 H   0  0  0  0  0  0  0  0  0  0  0  0
   -7.6427   -1.3994  -21.3271 H   0  0  0  0  0  0  0  0  0  0  0  0
   -8.4733   -0.2340  -18.5508 H   0  0  0  0  0  0  0  0  0  0  0  0
   -5.4821    1.6844  -17.2269 H   0  0  0  0  0  0  0  0  0  0  0  0
   -4.5950    1.7021  -19.1330 H   0  0  0  0  0  0  0  0  0  0  0  0
 20 21  2  0  0  0  0
 19 20  1  0  0  0  0
 21 22  1  0  0  0  0
 18 19  2  0  0  0  0
 22 23  2  0  0  0  0
 18 23  1  0  0  0  0
 17 18  1  0  0  0  0
 23 24  1  0  0  0  0
 15 16  2  0  0  0  0
 15 17  1  0  0  0  0
 14 15  1  0  0  0  0
  8 14  1  0  0  0  0
 12 13  2  0  0  0  0
 11 12  1  0  0  0  0
  7  8  1  0  0  0  0
  8  9  1  0  0  0  0
  6  7  3  0  0  0  0
 10 11  1  0  0  0  0
  5  6  1  0  0  0  0
  9 10  2  0  0  0  0
  2  5  1  0  0  0  0
  2  3  2  0  0  0  0
  1  2  1  0  0  0  0
  2  4  2  0  0  0  0
  1 25  1  0  0  0  0
  1 26  1  0  0  0  0
  1 27  1  0  0  0  0
  5 28  1  0  0  0  0
  8 29  1  0  0  0  0
  9 30  1  0  0  0  0
 10 31  1  0  0  0  0
 11 32  1  0  0  0  0
 11 33  1  0  0  0  0
 12 34  1  0  0  0  0
 13 35  1  0  0  0  0
 13 36  1  0  0  0  0
 14 37  1  0  0  0  0
 14 38  1  0  0  0  0
 17 39  1  0  0  0  0
 19 40  1  0  0  0  0
 21 41  1  0  0  0  0
 22 42  1  0  0  0  0
M  END
> <Chemgauss4>
-12.940693

$$$$
