stable:False satoms:14 tatoms:24 sratio:0.5833333333333334
  -OEChem-07092417433D

 24 25  0     1  0  0  0  0  0999 V2000
    6.4908   -4.9483   26.4046 Cl  0  0  0  0  0  0  0  0  0  0  0  0
    8.2954   -4.3847   26.0733 S   0  0  0  0  0  0  0  0  0  0  0  0
    9.0758   -5.5779   25.9474 O   0  0  0  0  0  0  0  0  0  0  0  0
    8.6720   -3.5087   27.1336 O   0  0  0  0  0  0  0  0  0  0  0  0
    8.1127   -3.6380   24.6622 N   0  0  0  0  0  0  0  0  0  0  0  0
    8.9344   -2.9341   24.1376 C   0  0  0  0  0  0  0  0  0  0  0  0
    9.5098   -2.0966   23.5924 C   0  0  0  0  0  0  0  0  0  0  0  0
   10.4277   -1.1645   23.2649 C   0  0  1  0  0  0  0  0  0  0  0  0
   10.9812   -0.0730   24.5996 S   0  0  0  0  0  0  0  0  0  0  0  0
   12.4814   -0.0445   23.9997 C   0  0  0  0  0  0  0  0  0  0  0  0
   13.3528    0.4063   24.0303 H   0  0  0  0  0  0  0  0  0  0  0  0
   12.5135   -1.0995   23.0767 C   0  0  0  0  0  0  0  0  0  0  0  0
   11.7712   -1.7105   22.7660 C   0  0  0  0  0  0  0  0  0  0  0  0
    9.7835   -0.6059   22.3688 C   0  0  0  0  0  0  0  0  0  0  0  0
    9.1244   -0.0267   21.2966 C   0  0  0  0  0  0  0  0  0  0  0  0
    9.6791    0.8274   20.6761 O   0  0  0  0  0  0  0  0  0  0  0  0
    7.9318   -0.5868   21.0887 N   0  0  0  0  0  0  0  0  0  0  0  0
    7.0773   -0.0149   20.2241 C   0  0  0  0  0  0  0  0  0  0  0  0
    6.9813    0.1429   18.9314 C   0  0  0  0  0  0  0  0  0  0  0  0
    6.2259    0.5662   18.1805 N   0  3  0  0  0  0  0  0  0  0  0  0
    5.8527    0.8425   17.3379 H   0  0  0  0  0  0  0  0  0  0  0  0
    4.9398    1.1227   19.3107 S   0  0  0  0  0  0  0  0  0  0  0  0
    5.8516    0.5742   20.5462 C   0  0  0  0  0  0  0  0  0  0  0  0
    5.5179    0.6425   21.6477 H   0  0  0  0  0  0  0  0  0  0  0  0
 20 21  1  0  0  0  0
 19 20  2  0  0  0  0
 20 22  1  0  0  0  0
 18 19  1  0  0  0  0
 22 23  1  0  0  0  0
 18 23  2  0  0  0  0
 17 18  1  0  0  0  0
 23 24  1  0  0  0  0
 15 16  2  0  0  0  0
 15 17  1  0  0  0  0
 14 15  1  0  0  0  0
  8 14  1  0  0  0  0
 12 13  1  0  0  0  0
  8 13  1  0  0  0  0
 10 12  2  0  0  0  0
  7  8  1  0  0  0  0
  8  9  1  0  0  0  0
  6  7  3  0  0  0  0
 10 11  1  0  0  0  0
  9 10  1  0  0  0  0
  5  6  1  0  0  0  0
  2  5  1  0  0  0  0
  2  3  2  0  0  0  0
  1  2  1  0  0  0  0
  2  4  2  0  0  0  0
M  CHG  1  20   1
M  END
> <Shapegauss>
-268.720490

$$$$
