stable:False satoms:14 tatoms:24 sratio:0.5833333333333334
  -OEChem-08062411113D

 31 32  0     1  0  0  0  0  0999 V2000
   -6.5864   -5.5897  -25.4156 Cl  0  0  0  0  0  0  0  0  0  0  0  0
   -8.3070   -4.7459  -25.5225 S   0  0  0  0  0  0  0  0  0  0  0  0
   -9.2760   -5.7994  -25.5150 O   0  0  0  0  0  0  0  0  0  0  0  0
   -8.3056   -3.9157  -26.6819 O   0  0  0  0  0  0  0  0  0  0  0  0
   -8.3119   -3.9191  -24.1447 N   0  0  0  0  0  0  0  0  0  0  0  0
   -9.1036   -3.0628  -23.8516 C   0  0  0  0  0  0  0  0  0  0  0  0
   -9.6410   -2.1088  -23.4901 C   0  0  0  0  0  0  0  0  0  0  0  0
  -10.4473   -1.0300  -23.4215 C   0  0  1  0  0  0  0  0  0  0  0  0
  -10.5239    0.0156  -24.8980 S   0  0  0  0  0  0  0  0  0  0  0  0
  -12.0932    0.3100  -24.6494 C   0  0  0  0  0  0  0  0  0  0  0  0
  -12.8551    0.8778  -24.8954 H   0  0  0  0  0  0  0  0  0  0  0  0
  -12.4880   -0.6491  -23.7059 C   0  0  0  0  0  0  0  0  0  0  0  0
  -11.9355   -1.3330  -23.2080 C   0  0  0  0  0  0  0  0  0  0  0  0
   -9.9278   -0.4979  -22.4331 C   0  0  0  0  0  0  0  0  0  0  0  0
   -9.4280    0.0669  -21.2709 C   0  0  0  0  0  0  0  0  0  0  0  0
   -9.9587    1.0406  -20.8323 O   0  0  0  0  0  0  0  0  0  0  0  0
   -8.4114   -0.6403  -20.7754 N   0  0  0  0  0  0  0  0  0  0  0  0
   -7.6802   -0.1281  -19.7715 C   0  0  0  0  0  0  0  0  0  0  0  0
   -7.8372    0.1208  -18.4992 C   0  0  0  0  0  0  0  0  0  0  0  0
   -7.2011    0.4913  -17.6207 N   0  0  0  0  0  0  0  0  0  0  0  0
   -5.6325    0.7607  -18.4622 S   0  0  0  0  0  0  0  0  0  0  0  0
   -6.3363    0.2491  -19.8412 C   0  0  0  0  0  0  0  0  0  0  0  0
   -5.7697    0.1769  -20.8427 H   0  0  0  0  0  0  0  0  0  0  0  0
   -7.4151   -3.4792  -24.0960 H   0  0  0  0  0  0  0  0  0  0  0  0
  -13.5433   -0.6583  -23.4764 H   0  0  0  0  0  0  0  0  0  0  0  0
  -12.1705   -1.2851  -22.1345 H   0  0  0  0  0  0  0  0  0  0  0  0
  -12.1646   -2.3392  -23.5890 H   0  0  0  0  0  0  0  0  0  0  0  0
   -9.8456    0.4623  -22.9634 H   0  0  0  0  0  0  0  0  0  0  0  0
   -9.0036   -1.0768  -22.5775 H   0  0  0  0  0  0  0  0  0  0  0  0
   -8.1956   -1.5431  -21.1475 H   0  0  0  0  0  0  0  0  0  0  0  0
   -8.8516   -0.0786  -18.1870 H   0  0  0  0  0  0  0  0  0  0  0  0
 19 20  2  0  0  0  0
 20 21  1  0  0  0  0
 18 19  1  0  0  0  0
 21 22  1  0  0  0  0
 18 22  2  0  0  0  0
 17 18  1  0  0  0  0
 22 23  1  0  0  0  0
 15 16  2  0  0  0  0
 15 17  1  0  0  0  0
 14 15  1  0  0  0  0
  8 14  1  0  0  0  0
 12 13  1  0  0  0  0
  8 13  1  0  0  0  0
 10 12  2  0  0  0  0
  7  8  1  0  0  0  0
  8  9  1  0  0  0  0
  6  7  3  0  0  0  0
 10 11  1  0  0  0  0
  9 10  1  0  0  0  0
  5  6  1  0  0  0  0
  2  5  1  0  0  0  0
  2  3  2  0  0  0  0
  1  2  1  0  0  0  0
  2  4  2  0  0  0  0
  5 24  1  0  0  0  0
 12 25  1  0  0  0  0
 13 26  1  0  0  0  0
 13 27  1  0  0  0  0
 14 28  1  0  0  0  0
 14 29  1  0  0  0  0
 17 30  1  0  0  0  0
 19 31  1  0  0  0  0
M  END
> <Chemgauss4>
-11.090588

$$$$
