stable:False satoms:14 tatoms:24 sratio:0.5833333333333334
  -OEChem-08062411113D

 31 32  0     1  0  0  0  0  0999 V2000
    6.3080   -5.6177   25.7111 Cl  0  0  0  0  0  0  0  0  0  0  0  0
    8.0286   -4.7739   25.8181 S   0  0  0  0  0  0  0  0  0  0  0  0
    8.9975   -5.8273   25.8105 O   0  0  0  0  0  0  0  0  0  0  0  0
    8.0271   -3.9436   26.9775 O   0  0  0  0  0  0  0  0  0  0  0  0
    8.0335   -3.9470   24.4403 N   0  0  0  0  0  0  0  0  0  0  0  0
    8.8252   -3.0908   24.1472 C   0  0  0  0  0  0  0  0  0  0  0  0
    9.3626   -2.1367   23.7857 C   0  0  0  0  0  0  0  0  0  0  0  0
   10.1689   -1.0580   23.7171 C   0  0  1  0  0  0  0  0  0  0  0  0
   10.2454   -0.0124   25.1936 S   0  0  0  0  0  0  0  0  0  0  0  0
   11.8148    0.2820   24.9450 C   0  0  0  0  0  0  0  0  0  0  0  0
   12.5767    0.8498   25.1910 H   0  0  0  0  0  0  0  0  0  0  0  0
   12.2096   -0.6771   24.0015 C   0  0  0  0  0  0  0  0  0  0  0  0
   11.6571   -1.3610   23.5036 C   0  0  0  0  0  0  0  0  0  0  0  0
    9.6493   -0.5259   22.7287 C   0  0  0  0  0  0  0  0  0  0  0  0
    9.1495    0.0389   21.5665 C   0  0  0  0  0  0  0  0  0  0  0  0
    9.6803    1.0126   21.1279 O   0  0  0  0  0  0  0  0  0  0  0  0
    8.1329   -0.6683   21.0710 N   0  0  0  0  0  0  0  0  0  0  0  0
    7.4018   -0.1561   20.0670 C   0  0  0  0  0  0  0  0  0  0  0  0
    7.5588    0.0928   18.7948 C   0  0  0  0  0  0  0  0  0  0  0  0
    6.9226    0.4634   17.9163 N   0  0  0  0  0  0  0  0  0  0  0  0
    5.3541    0.7327   18.7578 S   0  0  0  0  0  0  0  0  0  0  0  0
    6.0579    0.2211   20.1368 C   0  0  0  0  0  0  0  0  0  0  0  0
    5.4913    0.1489   21.1383 H   0  0  0  0  0  0  0  0  0  0  0  0
    7.1367   -3.5072   24.3916 H   0  0  0  0  0  0  0  0  0  0  0  0
   13.2649   -0.6862   23.7720 H   0  0  0  0  0  0  0  0  0  0  0  0
   11.8921   -1.3131   22.4301 H   0  0  0  0  0  0  0  0  0  0  0  0
   11.8861   -2.3672   23.8846 H   0  0  0  0  0  0  0  0  0  0  0  0
    9.5671    0.4343   23.2590 H   0  0  0  0  0  0  0  0  0  0  0  0
    8.7252   -1.1048   22.8731 H   0  0  0  0  0  0  0  0  0  0  0  0
    7.9171   -1.5710   21.4431 H   0  0  0  0  0  0  0  0  0  0  0  0
    8.5732   -0.1066   18.4825 H   0  0  0  0  0  0  0  0  0  0  0  0
 19 20  2  0  0  0  0
 20 21  1  0  0  0  0
 18 19  1  0  0  0  0
 21 22  1  0  0  0  0
 18 22  2  0  0  0  0
 17 18  1  0  0  0  0
 22 23  1  0  0  0  0
 15 16  2  0  0  0  0
 15 17  1  0  0  0  0
 14 15  1  0  0  0  0
  8 14  1  0  0  0  0
 12 13  1  0  0  0  0
  8 13  1  0  0  0  0
 10 12  2  0  0  0  0
  7  8  1  0  0  0  0
  8  9  1  0  0  0  0
  6  7  3  0  0  0  0
 10 11  1  0  0  0  0
  9 10  1  0  0  0  0
  5  6  1  0  0  0  0
  2  5  1  0  0  0  0
  2  3  2  0  0  0  0
  1  2  1  0  0  0  0
  2  4  2  0  0  0  0
  5 24  1  0  0  0  0
 12 25  1  0  0  0  0
 13 26  1  0  0  0  0
 13 27  1  0  0  0  0
 14 28  1  0  0  0  0
 14 29  1  0  0  0  0
 17 30  1  0  0  0  0
 19 31  1  0  0  0  0
M  END
> <Chemgauss4>
-11.311018

$$$$
