
 OpenBabel07202414163D

 17 17  0  0  0  0  0  0  0  0999 V2000
    1.1254    0.0469    0.0573 C   0  0  0  0  0  0  0  0  0  0  0  0
    2.6310    0.0586    0.0575 C   0  0  0  0  0  0  0  0  0  0  0  0
    3.3179   -1.1410    0.0592 C   0  0  0  0  0  0  0  0  0  0  0  0
    4.6990   -1.0812    0.0619 C   0  0  0  0  0  0  0  0  0  0  0  0
    5.3713    0.0948    0.0616 N   0  0  0  0  0  0  0  0  0  0  0  0
    4.6200    1.2213    0.0587 C   0  0  0  0  0  0  0  0  0  0  0  0
    3.2663    1.2551    0.0571 N   0  0  0  0  0  0  0  0  0  0  0  0
    5.3207    2.4917    0.0550 C   0  0  0  0  0  0  0  0  0  0  0  0
    5.8849    3.5155    0.0509 N   0  0  0  0  0  0  0  0  0  0  0  0
    5.4931   -2.3603    0.0666 C   0  0  0  0  0  0  0  0  0  0  0  0
    0.7286   -0.9764    0.0561 H   0  0  0  0  0  0  0  0  0  0  0  0
    0.7387    0.5489   -0.8343 H   0  0  0  0  0  0  0  0  0  0  0  0
    0.7390    0.5466    0.9502 H   0  0  0  0  0  0  0  0  0  0  0  0
    2.7944   -2.0908    0.0595 H   0  0  0  0  0  0  0  0  0  0  0  0
    4.8399   -3.2424    0.0648 H   0  0  0  0  0  0  0  0  0  0  0  0
    6.1190   -2.4185    0.9617 H   0  0  0  0  0  0  0  0  0  0  0  0
    6.1269   -2.4207   -0.8228 H   0  0  0  0  0  0  0  0  0  0  0  0
  1  2  1  0  0  0  0
  1 11  1  0  0  0  0
  1 12  1  0  0  0  0
  1 13  1  0  0  0  0
  2  3  1  0  0  0  0
  2  7  2  0  0  0  0
  3  4  2  0  0  0  0
  3 14  1  0  0  0  0
  4  5  1  0  0  0  0
  4 10  1  0  0  0  0
  5  6  2  0  0  0  0
  6  7  1  0  0  0  0
  6  8  1  0  0  0  0
  8  9  3  0  0  0  0
 10 15  1  0  0  0  0
 10 16  1  0  0  0  0
 10 17  1  0  0  0  0
M  END
$$$$
