MODEL 1
REMARK VINA RESULT:    -4.608      0.000      0.000
REMARK INTER + INTRA:          -5.447
REMARK INTER:                  -5.147
REMARK INTRA:                  -0.301
REMARK UNBOUND:                -0.301
REMARK  3 active torsions:
REMARK  status: ('A' for Active; 'I' for Inactive)
REMARK    1  A    between atoms: C_4  and  C_16 
REMARK    2  A    between atoms: C_4  and  N_5 
REMARK    3  A    between atoms: C_9  and  N_13 
ROOT
HETATM    1  N   UNL     1      21.275 -20.092  10.987  1.00  0.00    -0.197 NA
HETATM    2  C   UNL     1      21.185 -19.595  13.484  1.00  0.00     0.175 C 
HETATM    3  C   UNL     1      21.170 -19.811  12.099  1.00  0.00     0.062 C 
ENDROOT
BRANCH   2   4
HETATM    4  C   UNL     1      20.728 -20.964  14.230  1.00  0.00     0.248 C 
HETATM    5  C   UNL     1      19.692 -20.354  15.120  1.00  0.00     0.257 C 
HETATM    6  N   UNL     1      20.120 -19.997  16.404  1.00  0.00    -0.357 N 
HETATM    7  O   UNL     1      18.551 -20.203  14.707  1.00  0.00    -0.271 OA
HETATM    8  C   UNL     1      20.646 -21.056  17.217  1.00  0.00     0.147 C 
HETATM    9  H   UNL     1      20.611 -19.110  16.538  1.00  0.00     0.162 HD
HETATM   10  C   UNL     1      21.950 -21.493  16.544  1.00  0.00     0.094 C 
HETATM   11  C   UNL     1      21.665 -21.917  15.090  1.00  0.00     0.078 C 
BRANCH  10  12
HETATM   12  N   UNL     1      22.969 -20.461  16.470  1.00  0.00    -0.424 N 
HETATM   13  H   UNL     1      23.684 -20.809  15.823  1.00  0.00     0.150 HD
HETATM   14  H   UNL     1      22.779 -19.479  16.372  1.00  0.00     0.150 HD
ENDBRANCH  10  12
BRANCH   4  15
HETATM   15  N   UNL     1      20.114 -21.845  13.297  1.00  0.00     0.098 N 
HETATM   16  H   UNL     1      19.096 -21.845  13.272  1.00  0.00     0.314 HD
HETATM   17  H   UNL     1      20.480 -22.791  13.345  1.00  0.00     0.314 HD
ENDBRANCH   4  15
ENDBRANCH   2   4
TORSDOF 3
ENDMDL
MODEL 2
REMARK VINA RESULT:    -4.349     38.390     39.714
REMARK INTER + INTRA:          -5.158
REMARK INTER:                  -4.977
REMARK INTRA:                  -0.181
REMARK UNBOUND:                -0.301
REMARK  3 active torsions:
REMARK  status: ('A' for Active; 'I' for Inactive)
REMARK    1  A    between atoms: C_4  and  C_16 
REMARK    2  A    between atoms: C_4  and  N_5 
REMARK    3  A    between atoms: C_9  and  N_13 
ROOT
HETATM    1  N   UNL     1       6.610  12.824   0.773  1.00  0.00    -0.197 NA
HETATM    2  C   UNL     1       7.232  13.752   3.063  1.00  0.00     0.175 C 
HETATM    3  C   UNL     1       6.884  13.163   1.839  1.00  0.00     0.062 C 
ENDROOT
BRANCH   2   4
HETATM    4  C   UNL     1       8.746  14.328   2.953  1.00  0.00     0.248 C 
HETATM    5  C   UNL     1       8.680  15.249   4.130  1.00  0.00     0.257 C 
HETATM    6  N   UNL     1       8.336  16.576   3.853  1.00  0.00    -0.357 N 
HETATM    7  O   UNL     1       8.929  14.820   5.249  1.00  0.00    -0.271 OA
HETATM    8  C   UNL     1       9.200  17.283   2.951  1.00  0.00     0.147 C 
HETATM    9  H   UNL     1       7.350  16.822   3.735  1.00  0.00     0.162 HD
HETATM   10  C   UNL     1       9.029  16.606   1.589  1.00  0.00     0.094 C 
HETATM   11  C   UNL     1       9.361  15.106   1.711  1.00  0.00     0.078 C 
BRANCH  10  12
HETATM   12  N   UNL     1       7.686  16.677   1.042  1.00  0.00    -0.424 N 
HETATM   13  H   UNL     1       7.146  15.940   1.508  1.00  0.00     0.150 HD
HETATM   14  H   UNL     1       7.170  17.528   0.903  1.00  0.00     0.150 HD
ENDBRANCH  10  12
BRANCH   4  15
HETATM   15  N   UNL     1       9.683  13.286   3.197  1.00  0.00     0.098 N 
HETATM   16  H   UNL     1       9.353  12.333   3.049  1.00  0.00     0.314 HD
HETATM   17  H   UNL     1      10.153  13.376   4.091  1.00  0.00     0.314 HD
ENDBRANCH   4  15
ENDBRANCH   2   4
TORSDOF 3
ENDMDL
MODEL 3
REMARK VINA RESULT:    -4.338     24.362     25.591
REMARK INTER + INTRA:          -5.145
REMARK INTER:                  -4.974
REMARK INTRA:                  -0.171
REMARK UNBOUND:                -0.301
REMARK  3 active torsions:
REMARK  status: ('A' for Active; 'I' for Inactive)
REMARK    1  A    between atoms: C_4  and  C_16 
REMARK    2  A    between atoms: C_4  and  N_5 
REMARK    3  A    between atoms: C_9  and  N_13 
ROOT
HETATM    1  N   UNL     1      13.516  -0.499  24.007  1.00  0.00    -0.197 NA
HETATM    2  C   UNL     1      11.263   0.375  24.814  1.00  0.00     0.175 C 
HETATM    3  C   UNL     1      12.539  -0.065  24.437  1.00  0.00     0.062 C 
ENDROOT
BRANCH   2   4
HETATM    4  C   UNL     1      10.694   1.371  23.665  1.00  0.00     0.248 C 
HETATM    5  C   UNL     1       9.271   1.393  24.125  1.00  0.00     0.257 C 
HETATM    6  N   UNL     1       8.414   0.472  23.512  1.00  0.00    -0.357 N 
HETATM    7  O   UNL     1       8.924   2.192  24.983  1.00  0.00    -0.271 OA
HETATM    8  C   UNL     1       8.283   0.575  22.086  1.00  0.00     0.147 C 
HETATM    9  H   UNL     1       8.400  -0.496  23.845  1.00  0.00     0.162 HD
HETATM   10  C   UNL     1       9.647   0.189  21.511  1.00  0.00     0.094 C 
HETATM   11  C   UNL     1      10.736   1.110  22.098  1.00  0.00     0.078 C 
BRANCH  10  12
HETATM   12  N   UNL     1      10.068  -1.169  21.808  1.00  0.00    -0.424 N 
HETATM   13  H   UNL     1      10.347  -1.587  20.914  1.00  0.00     0.150 HD
HETATM   14  H   UNL     1      10.662  -1.427  22.577  1.00  0.00     0.150 HD
ENDBRANCH  10  12
BRANCH   4  15
HETATM   15  N   UNL     1      11.275   2.662  23.807  1.00  0.00     0.098 N 
HETATM   16  H   UNL     1      11.156   3.304  23.025  1.00  0.00     0.314 HD
HETATM   17  H   UNL     1      12.242   2.630  24.113  1.00  0.00     0.314 HD
ENDBRANCH   4  15
ENDBRANCH   2   4
TORSDOF 3
ENDMDL
MODEL 4
REMARK VINA RESULT:    -4.266     23.413     24.658
REMARK INTER + INTRA:          -5.065
REMARK INTER:                  -4.774
REMARK INTRA:                  -0.291
REMARK UNBOUND:                -0.301
REMARK  3 active torsions:
REMARK  status: ('A' for Active; 'I' for Inactive)
REMARK    1  A    between atoms: C_4  and  C_16 
REMARK    2  A    between atoms: C_4  and  N_5 
REMARK    3  A    between atoms: C_9  and  N_13 
ROOT
HETATM    1  N   UNL     1      13.084  -0.067  24.408  1.00  0.00    -0.197 NA
HETATM    2  C   UNL     1      10.567   0.014  24.022  1.00  0.00     0.175 C 
HETATM    3  C   UNL     1      11.952   0.056  24.231  1.00  0.00     0.062 C 
ENDROOT
BRANCH   2   4
HETATM    4  C   UNL     1      10.275  -0.711  22.599  1.00  0.00     0.248 C 
HETATM    5  C   UNL     1       9.733   0.487  21.886  1.00  0.00     0.257 C 
HETATM    6  N   UNL     1       8.342   0.633  21.904  1.00  0.00    -0.357 N 
HETATM    7  O   UNL     1      10.501   1.260  21.330  1.00  0.00    -0.271 OA
HETATM    8  C   UNL     1       7.581  -0.441  21.332  1.00  0.00     0.147 C 
HETATM    9  H   UNL     1       7.893   1.046  22.726  1.00  0.00     0.162 HD
HETATM   10  C   UNL     1       7.797  -1.645  22.252  1.00  0.00     0.094 C 
HETATM   11  C   UNL     1       9.305  -1.948  22.362  1.00  0.00     0.078 C 
BRANCH  10  12
HETATM   12  N   UNL     1       7.325  -1.459  23.613  1.00  0.00    -0.424 N 
HETATM   13  H   UNL     1       6.343  -1.175  23.541  1.00  0.00     0.150 HD
HETATM   14  H   UNL     1       7.507  -2.093  24.371  1.00  0.00     0.150 HD
ENDBRANCH  10  12
BRANCH   4  15
HETATM   15  N   UNL     1      11.499  -1.124  22.003  1.00  0.00     0.098 N 
HETATM   16  H   UNL     1      12.318  -1.138  22.608  1.00  0.00     0.314 HD
HETATM   17  H   UNL     1      11.696  -0.646  21.130  1.00  0.00     0.314 HD
ENDBRANCH   4  15
ENDBRANCH   2   4
TORSDOF 3
ENDMDL
MODEL 5
REMARK VINA RESULT:    -4.262     23.295     24.541
REMARK INTER + INTRA:          -5.061
REMARK INTER:                  -4.879
REMARK INTRA:                  -0.183
REMARK UNBOUND:                -0.301
REMARK  3 active torsions:
REMARK  status: ('A' for Active; 'I' for Inactive)
REMARK    1  A    between atoms: C_4  and  C_16 
REMARK    2  A    between atoms: C_4  and  N_5 
REMARK    3  A    between atoms: C_9  and  N_13 
ROOT
HETATM    1  N   UNL     1       7.126  -1.727  24.066  1.00  0.00    -0.197 NA
HETATM    2  C   UNL     1       9.566  -2.244  23.548  1.00  0.00     0.175 C 
HETATM    3  C   UNL     1       8.201  -2.023  23.778  1.00  0.00     0.062 C 
ENDROOT
BRANCH   2   4
HETATM    4  C   UNL     1      10.192  -0.931  22.825  1.00  0.00     0.248 C 
HETATM    5  C   UNL     1      11.620  -1.177  23.196  1.00  0.00     0.257 C 
HETATM    6  N   UNL     1      12.070  -0.542  24.358  1.00  0.00    -0.357 N 
HETATM    7  O   UNL     1      12.314  -1.893  22.488  1.00  0.00    -0.271 OA
HETATM    8  C   UNL     1      11.985   0.891  24.375  1.00  0.00     0.147 C 
HETATM    9  H   UNL     1      11.867  -0.964  25.268  1.00  0.00     0.162 HD
HETATM   10  C   UNL     1      10.491   1.223  24.375  1.00  0.00     0.094 C 
HETATM   11  C   UNL     1       9.818   0.580  23.146  1.00  0.00     0.078 C 
BRANCH  10  12
HETATM   12  N   UNL     1       9.762   0.734  25.533  1.00  0.00    -0.424 N 
HETATM   13  H   UNL     1       9.846   1.460  26.253  1.00  0.00     0.150 HD
HETATM   14  H   UNL     1       8.854   0.305  25.496  1.00  0.00     0.150 HD
ENDBRANCH  10  12
BRANCH   4  15
HETATM   15  N   UNL     1      10.028  -1.027  21.415  1.00  0.00     0.098 N 
HETATM   16  H   UNL     1       9.111  -0.781  21.045  1.00  0.00     0.314 HD
HETATM   17  H   UNL     1      10.351  -1.911  21.037  1.00  0.00     0.314 HD
ENDBRANCH   4  15
ENDBRANCH   2   4
TORSDOF 3
ENDMDL
MODEL 6
REMARK VINA RESULT:    -4.256     37.698     38.872
REMARK INTER + INTRA:          -5.055
REMARK INTER:                  -4.755
REMARK INTRA:                  -0.299
REMARK UNBOUND:                -0.301
REMARK  3 active torsions:
REMARK  status: ('A' for Active; 'I' for Inactive)
REMARK    1  A    between atoms: C_4  and  C_16 
REMARK    2  A    between atoms: C_4  and  N_5 
REMARK    3  A    between atoms: C_9  and  N_13 
ROOT
HETATM    1  N   UNL     1       4.289  12.646   2.251  1.00  0.00    -0.197 NA
HETATM    2  C   UNL     1       6.296  13.754   3.361  1.00  0.00     0.175 C 
HETATM    3  C   UNL     1       5.186  13.092   2.819  1.00  0.00     0.062 C 
ENDROOT
BRANCH   2   4
HETATM    4  C   UNL     1       7.585  13.472   2.414  1.00  0.00     0.248 C 
HETATM    5  C   UNL     1       8.541  13.108   3.505  1.00  0.00     0.257 C 
HETATM    6  N   UNL     1       9.340  14.147   3.993  1.00  0.00    -0.357 N 
HETATM    7  O   UNL     1       8.589  11.953   3.907  1.00  0.00    -0.271 OA
HETATM    8  C   UNL     1      10.190  14.800   3.039  1.00  0.00     0.147 C 
HETATM    9  H   UNL     1       8.953  14.791   4.688  1.00  0.00     0.162 HD
HETATM   10  C   UNL     1       9.253  15.530   2.074  1.00  0.00     0.094 C 
HETATM   11  C   UNL     1       8.275  14.521   1.439  1.00  0.00     0.078 C 
BRANCH  10  12
HETATM   12  N   UNL     1       8.429  16.556   2.689  1.00  0.00    -0.424 N 
HETATM   13  H   UNL     1       7.674  16.064   3.178  1.00  0.00     0.150 HD
HETATM   14  H   UNL     1       8.786  17.349   3.192  1.00  0.00     0.150 HD
ENDBRANCH  10  12
BRANCH   4  15
HETATM   15  N   UNL     1       7.340  12.347   1.580  1.00  0.00     0.098 N 
HETATM   16  H   UNL     1       7.203  12.536   0.588  1.00  0.00     0.314 HD
HETATM   17  H   UNL     1       6.615  11.736   1.941  1.00  0.00     0.314 HD
ENDBRANCH   4  15
ENDBRANCH   2   4
TORSDOF 3
ENDMDL
MODEL 7
REMARK VINA RESULT:    -4.232     24.125     25.259
REMARK INTER + INTRA:          -5.028
REMARK INTER:                  -4.738
REMARK INTRA:                  -0.290
REMARK UNBOUND:                -0.301
REMARK  3 active torsions:
REMARK  status: ('A' for Active; 'I' for Inactive)
REMARK    1  A    between atoms: C_4  and  C_16 
REMARK    2  A    between atoms: C_4  and  N_5 
REMARK    3  A    between atoms: C_9  and  N_13 
ROOT
HETATM    1  N   UNL     1      10.513   2.201  22.046  1.00  0.00    -0.197 NA
HETATM    2  C   UNL     1       8.252   1.047  22.253  1.00  0.00     0.175 C 
HETATM    3  C   UNL     1       9.458   1.741  22.088  1.00  0.00     0.062 C 
ENDROOT
BRANCH   2   4
HETATM    4  C   UNL     1       8.397  -0.421  21.575  1.00  0.00     0.248 C 
HETATM    5  C   UNL     1       7.434  -0.205  20.452  1.00  0.00     0.257 C 
HETATM    6  N   UNL     1       6.120  -0.627  20.680  1.00  0.00    -0.357 N 
HETATM    7  O   UNL     1       7.823   0.310  19.412  1.00  0.00    -0.271 OA
HETATM    8  C   UNL     1       5.941  -2.019  20.979  1.00  0.00     0.147 C 
HETATM    9  H   UNL     1       5.485  -0.021  21.206  1.00  0.00     0.162 HD
HETATM   10  C   UNL     1       6.601  -2.243  22.342  1.00  0.00     0.094 C 
HETATM   11  C   UNL     1       8.080  -1.811  22.279  1.00  0.00     0.078 C 
BRANCH  10  12
HETATM   12  N   UNL     1       6.009  -1.488  23.433  1.00  0.00    -0.424 N 
HETATM   13  H   UNL     1       6.752  -1.352  24.125  1.00  0.00     0.150 HD
HETATM   14  H   UNL     1       5.415  -0.686  23.315  1.00  0.00     0.150 HD
ENDBRANCH  10  12
BRANCH   4  15
HETATM   15  N   UNL     1       9.714  -0.594  21.066  1.00  0.00     0.098 N 
HETATM   16  H   UNL     1       9.795  -1.045  20.156  1.00  0.00     0.314 HD
HETATM   17  H   UNL     1      10.349  -1.011  21.739  1.00  0.00     0.314 HD
ENDBRANCH   4  15
ENDBRANCH   2   4
TORSDOF 3
ENDMDL
MODEL 8
REMARK VINA RESULT:    -4.200     24.848     25.785
REMARK INTER + INTRA:          -4.992
REMARK INTER:                  -4.697
REMARK INTRA:                  -0.295
REMARK UNBOUND:                -0.301
REMARK  3 active torsions:
REMARK  status: ('A' for Active; 'I' for Inactive)
REMARK    1  A    between atoms: C_4  and  C_16 
REMARK    2  A    between atoms: C_4  and  N_5 
REMARK    3  A    between atoms: C_9  and  N_13 
ROOT
HETATM    1  N   UNL     1       7.460   0.343  18.915  1.00  0.00    -0.197 NA
HETATM    2  C   UNL     1       7.713   1.007  21.361  1.00  0.00     0.175 C 
HETATM    3  C   UNL     1       7.510   0.587  20.039  1.00  0.00     0.062 C 
ENDROOT
BRANCH   2   4
HETATM    4  C   UNL     1       9.199   0.550  21.832  1.00  0.00     0.248 C 
HETATM    5  C   UNL     1       8.825   0.086  23.204  1.00  0.00     0.257 C 
HETATM    6  N   UNL     1       8.973   1.024  24.231  1.00  0.00    -0.357 N 
HETATM    7  O   UNL     1       8.426  -1.059  23.367  1.00  0.00    -0.271 OA
HETATM    8  C   UNL     1      10.294   1.549  24.428  1.00  0.00     0.147 C 
HETATM    9  H   UNL     1       8.240   1.722  24.379  1.00  0.00     0.162 HD
HETATM   10  C   UNL     1      10.608   2.376  23.179  1.00  0.00     0.094 C 
HETATM   11  C   UNL     1      10.479   1.488  21.925  1.00  0.00     0.078 C 
BRANCH  10  12
HETATM   12  N   UNL     1       9.722   3.506  22.962  1.00  0.00    -0.424 N 
HETATM   13  H   UNL     1      10.325   4.329  22.858  1.00  0.00     0.150 HD
HETATM   14  H   UNL     1       8.934   3.502  22.339  1.00  0.00     0.150 HD
ENDBRANCH  10  12
BRANCH   4  15
HETATM   15  N   UNL     1       9.642  -0.549  21.045  1.00  0.00     0.098 N 
HETATM   16  H   UNL     1       9.586  -0.438  20.034  1.00  0.00     0.314 HD
HETATM   17  H   UNL     1       9.243  -1.434  21.340  1.00  0.00     0.314 HD
ENDBRANCH   4  15
ENDBRANCH   2   4
TORSDOF 3
ENDMDL
MODEL 9
REMARK VINA RESULT:    -4.172     24.423     25.427
REMARK INTER + INTRA:          -4.960
REMARK INTER:                  -4.664
REMARK INTRA:                  -0.296
REMARK UNBOUND:                -0.301
REMARK  3 active torsions:
REMARK  status: ('A' for Active; 'I' for Inactive)
REMARK    1  A    between atoms: C_4  and  C_16 
REMARK    2  A    between atoms: C_4  and  N_5 
REMARK    3  A    between atoms: C_9  and  N_13 
ROOT
HETATM    1  N   UNL     1       5.634  -0.432  17.914  1.00  0.00    -0.197 NA
HETATM    2  C   UNL     1       7.628   0.200  19.367  1.00  0.00     0.175 C 
HETATM    3  C   UNL     1       6.519  -0.063  18.552  1.00  0.00     0.062 C 
ENDROOT
BRANCH   2   4
HETATM    4  C   UNL     1       7.276  -0.248  20.888  1.00  0.00     0.248 C 
HETATM    5  C   UNL     1       7.313   1.117  21.498  1.00  0.00     0.257 C 
HETATM    6  N   UNL     1       8.530   1.498  22.073  1.00  0.00    -0.357 N 
HETATM    7  O   UNL     1       6.311   1.817  21.476  1.00  0.00    -0.271 OA
HETATM    8  C   UNL     1       9.021   0.668  23.136  1.00  0.00     0.147 C 
HETATM    9  H   UNL     1       9.276   1.858  21.472  1.00  0.00     0.162 HD
HETATM   10  C   UNL     1       9.368  -0.676  22.492  1.00  0.00     0.094 C 
HETATM   11  C   UNL     1       8.123  -1.249  21.787  1.00  0.00     0.078 C 
BRANCH  10  12
HETATM   12  N   UNL     1      10.408  -0.612  21.479  1.00  0.00    -0.424 N 
HETATM   13  H   UNL     1      11.261  -0.311  21.961  1.00  0.00     0.150 HD
HETATM   14  H   UNL     1      10.567  -1.316  20.780  1.00  0.00     0.150 HD
ENDBRANCH  10  12
BRANCH   4  15
HETATM   15  N   UNL     1       5.956  -0.776  20.947  1.00  0.00     0.098 N 
HETATM   16  H   UNL     1       5.565  -1.122  20.072  1.00  0.00     0.314 HD
HETATM   17  H   UNL     1       5.304  -0.161  21.423  1.00  0.00     0.314 HD
ENDBRANCH   4  15
ENDBRANCH   2   4
TORSDOF 3
ENDMDL
