stable:True satoms:24 tatoms:24 sratio:1.0
  -OEChem-07092417313D

 24 23  0     1  0  0  0  0  0999 V2000
    8.7511   -2.2586   24.6886 C   0  0  0  0  0  0  0  0  0  0  0  0
    8.6351   -1.2646   25.0820 H   0  0  0  0  0  0  0  0  0  0  0  0
    9.2100   -3.3690   23.0440 H   0  0  0  0  0  0  0  0  0  0  0  0
    9.5239   -2.7572   25.2750 H   0  0  0  0  0  0  0  0  0  0  0  0
    7.8237   -2.7877   24.8078 H   0  0  0  0  0  0  0  0  0  0  0  0
    8.2673    0.5754   21.9247 C   0  0  0  0  0  0  0  0  0  0  0  0
    7.8938   -2.6705   21.6766 H   0  0  0  0  0  0  0  0  0  0  0  0
   10.4274   -0.9294   21.9426 H   0  0  0  0  0  0  0  0  0  0  0  0
    9.1515   -2.2542   23.1738 C   0  0  2  0  0  0  0  0  0  0  0  0
   10.5010   -1.5609   22.8230 C   0  0  0  0  0  0  0  0  0  0  0  0
    8.0685    0.4659   22.9782 H   0  0  0  0  0  0  0  0  0  0  0  0
   10.9369   -0.7030   23.9106 N   0  0  0  0  0  0  0  0  0  0  0  0
   11.8272   -0.9019   24.2376 H   0  0  0  0  0  0  0  0  0  0  0  0
   11.1982   -2.3540   22.5691 H   0  0  0  0  0  0  0  0  0  0  0  0
    8.2776   -1.8350   22.0823 N   0  0  0  0  0  0  0  0  0  0  0  0
    9.2844    0.9474   21.8000 H   0  0  0  0  0  0  0  0  0  0  0  0
   10.2511    0.0204   24.0181 H   0  0  0  0  0  0  0  0  0  0  0  0
    6.4871   -1.7388   20.0373 H   0  0  0  0  0  0  0  0  0  0  0  0
    8.0246   -0.7328   21.1799 C   0  0  0  0  0  0  0  0  0  0  0  0
    8.6819   -0.7426   20.3073 H   0  0  0  0  0  0  0  0  0  0  0  0
    6.5759   -0.8520   20.6618 C   0  0  0  0  0  0  0  0  0  0  0  0
    7.5987    1.3254   21.4848 H   0  0  0  0  0  0  0  0  0  0  0  0
    6.2887    0.0112   20.0735 H   0  0  0  0  0  0  0  0  0  0  0  0
    5.8984   -0.9237   21.5181 H   0  0  0  0  0  0  0  0  0  0  0  0
 18 21  1  0  0  0  0
 21 23  1  0  0  0  0
 19 20  1  0  0  0  0
 19 21  1  0  0  0  0
 21 24  1  0  0  0  0
  6 19  1  0  0  0  0
 15 19  1  0  0  0  0
  6 22  1  0  0  0  0
  7 15  1  0  0  0  0
  6 16  1  0  0  0  0
  6 11  1  0  0  0  0
  8 10  1  0  0  0  0
  9 15  1  0  0  0  0
 10 14  1  0  0  0  0
  9 10  1  0  0  0  0
 10 12  1  0  0  0  0
  3  9  1  0  0  0  0
  1  9  1  0  0  0  0
 12 17  1  0  0  0  0
 12 13  1  0  0  0  0
  1  5  1  0  0  0  0
  1  2  1  0  0  0  0
  1  4  1  0  0  0  0
M  END
> <Shapegauss>
-79.972908

$$$$
