MODEL 1
REMARK VINA RESULT:    -3.406      0.000      0.000
REMARK INTER + INTRA:          -4.258
REMARK INTER:                  -4.102
REMARK INTRA:                  -0.156
REMARK UNBOUND:                -0.156
REMARK  4 active torsions:
REMARK  status: ('A' for Active; 'I' for Inactive)
REMARK    1  A    between atoms: C_4  and  N_8 
REMARK    2  A    between atoms: C_4  and  C_5 
REMARK    3  A    between atoms: C_5  and  N_6 
REMARK    4  A    between atoms: N_8  and  C_10 
ROOT
HETATM    1  C   UNL     1       8.711  16.693   3.808  1.00  0.00     0.033 C 
HETATM    2  C   UNL     1       8.876  16.232   2.319  1.00  0.00     0.090 C 
ENDROOT
BRANCH   2   3
HETATM    3  N   UNL     1       9.496  17.030   1.265  1.00  0.00    -0.412 N 
HETATM    4  H   UNL     1      10.465  16.766   1.230  1.00  0.00     0.154 HD
BRANCH   3   5
HETATM    5  C   UNL     1       9.327  18.250   0.506  1.00  0.00     0.068 C 
HETATM    6  C   UNL     1       9.976  19.397   1.273  1.00  0.00     0.031 C 
HETATM    7  C   UNL     1       7.817  18.476   0.281  1.00  0.00     0.031 C 
ENDBRANCH   3   5
ENDBRANCH   2   3
BRANCH   2   8
HETATM    8  C   UNL     1       9.502  14.824   2.102  1.00  0.00     0.135 C 
BRANCH   8   9
HETATM    9  N   UNL     1      10.743  14.692   2.845  1.00  0.00    -0.428 N 
HETATM   10  H   UNL     1      10.874  13.718   3.042  1.00  0.00     0.149 HD
HETATM   11  H   UNL     1      11.137  15.537   3.109  1.00  0.00     0.149 HD
ENDBRANCH   8   9
ENDBRANCH   2   8
TORSDOF 4
ENDMDL
MODEL 2
REMARK VINA RESULT:    -3.245     31.737     33.574
REMARK INTER + INTRA:          -4.065
REMARK INTER:                  -3.934
REMARK INTRA:                  -0.131
REMARK UNBOUND:                -0.156
REMARK  4 active torsions:
REMARK  status: ('A' for Active; 'I' for Inactive)
REMARK    1  A    between atoms: C_4  and  N_8 
REMARK    2  A    between atoms: C_4  and  C_5 
REMARK    3  A    between atoms: C_5  and  N_6 
REMARK    4  A    between atoms: N_8  and  C_10 
ROOT
HETATM    1  C   UNL     1      20.951  -1.150  24.119  1.00  0.00     0.033 C 
HETATM    2  C   UNL     1      21.346  -1.639  25.555  1.00  0.00     0.090 C 
ENDROOT
BRANCH   2   3
HETATM    3  N   UNL     1      22.226  -2.770  25.838  1.00  0.00    -0.412 N 
HETATM    4  H   UNL     1      22.672  -2.580  26.718  1.00  0.00     0.154 HD
BRANCH   3   5
HETATM    5  C   UNL     1      22.925  -3.861  25.196  1.00  0.00     0.068 C 
HETATM    6  C   UNL     1      23.450  -4.806  26.272  1.00  0.00     0.031 C 
HETATM    7  C   UNL     1      24.059  -3.270  24.332  1.00  0.00     0.031 C 
ENDBRANCH   3   5
ENDBRANCH   2   3
BRANCH   2   8
HETATM    8  C   UNL     1      21.862  -0.546  26.535  1.00  0.00     0.135 C 
BRANCH   8   9
HETATM    9  N   UNL     1      21.541  -0.893  27.908  1.00  0.00    -0.428 N 
HETATM   10  H   UNL     1      20.621  -1.292  27.911  1.00  0.00     0.149 HD
HETATM   11  H   UNL     1      22.189  -0.578  28.557  1.00  0.00     0.149 HD
ENDBRANCH   8   9
ENDBRANCH   2   8
TORSDOF 4
ENDMDL
MODEL 3
REMARK VINA RESULT:    -3.193      2.934      3.875
REMARK INTER + INTRA:          -4.002
REMARK INTER:                  -3.843
REMARK INTRA:                  -0.159
REMARK UNBOUND:                -0.156
REMARK  4 active torsions:
REMARK  status: ('A' for Active; 'I' for Inactive)
REMARK    1  A    between atoms: C_4  and  N_8 
REMARK    2  A    between atoms: C_4  and  C_5 
REMARK    3  A    between atoms: C_5  and  N_6 
REMARK    4  A    between atoms: N_8  and  C_10 
ROOT
HETATM    1  C   UNL     1       6.226  13.887   3.750  1.00  0.00     0.033 C 
HETATM    2  C   UNL     1       6.870  13.239   2.476  1.00  0.00     0.090 C 
ENDROOT
BRANCH   2   3
HETATM    3  N   UNL     1       8.122  13.673   1.863  1.00  0.00    -0.412 N 
HETATM    4  H   UNL     1       8.649  12.843   1.656  1.00  0.00     0.154 HD
BRANCH   3   5
HETATM    5  C   UNL     1       9.004  14.814   1.751  1.00  0.00     0.068 C 
HETATM    6  C   UNL     1       9.990  14.786   2.914  1.00  0.00     0.031 C 
HETATM    7  C   UNL     1       8.143  16.095   1.744  1.00  0.00     0.031 C 
ENDBRANCH   3   5
ENDBRANCH   2   3
BRANCH   2   8
HETATM    8  C   UNL     1       7.010  11.689   2.490  1.00  0.00     0.135 C 
BRANCH   8   9
HETATM    9  N   UNL     1       8.229  11.289   3.170  1.00  0.00    -0.428 N 
HETATM   10  H   UNL     1       8.900  12.022   3.041  1.00  0.00     0.149 HD
HETATM   11  H   UNL     1       8.215  10.379   3.502  1.00  0.00     0.149 HD
ENDBRANCH   8   9
ENDBRANCH   2   8
TORSDOF 4
ENDMDL
MODEL 4
REMARK VINA RESULT:    -3.153      3.018      4.934
REMARK INTER + INTRA:          -3.954
REMARK INTER:                  -3.780
REMARK INTRA:                  -0.174
REMARK UNBOUND:                -0.156
REMARK  4 active torsions:
REMARK  status: ('A' for Active; 'I' for Inactive)
REMARK    1  A    between atoms: C_4  and  N_8 
REMARK    2  A    between atoms: C_4  and  C_5 
REMARK    3  A    between atoms: C_5  and  N_6 
REMARK    4  A    between atoms: N_8  and  C_10 
ROOT
HETATM    1  C   UNL     1       7.191  15.429   3.216  1.00  0.00     0.033 C 
HETATM    2  C   UNL     1       8.366  14.395   3.136  1.00  0.00     0.090 C 
ENDROOT
BRANCH   2   3
HETATM    3  N   UNL     1       8.204  12.968   2.874  1.00  0.00    -0.412 N 
HETATM    4  H   UNL     1       9.118  12.602   2.669  1.00  0.00     0.154 HD
BRANCH   3   5
HETATM    5  C   UNL     1       7.220  11.983   2.484  1.00  0.00     0.068 C 
HETATM    6  C   UNL     1       6.590  12.416   1.165  1.00  0.00     0.031 C 
HETATM    7  C   UNL     1       6.179  11.860   3.617  1.00  0.00     0.031 C 
ENDBRANCH   3   5
ENDBRANCH   2   3
BRANCH   2   8
HETATM    8  C   UNL     1       9.560  14.783   2.214  1.00  0.00     0.135 C 
BRANCH   8   9
HETATM    9  N   UNL     1      10.824  14.598   2.905  1.00  0.00    -0.428 N 
HETATM   10  H   UNL     1      10.620  14.471   3.878  1.00  0.00     0.149 HD
HETATM   11  H   UNL     1      11.603  14.746   2.348  1.00  0.00     0.149 HD
ENDBRANCH   8   9
ENDBRANCH   2   8
TORSDOF 4
ENDMDL
MODEL 5
REMARK VINA RESULT:    -3.140     23.335     25.149
REMARK INTER + INTRA:          -3.939
REMARK INTER:                  -3.836
REMARK INTRA:                  -0.102
REMARK UNBOUND:                -0.156
REMARK  4 active torsions:
REMARK  status: ('A' for Active; 'I' for Inactive)
REMARK    1  A    between atoms: C_4  and  N_8 
REMARK    2  A    between atoms: C_4  and  C_5 
REMARK    3  A    between atoms: C_5  and  N_6 
REMARK    4  A    between atoms: N_8  and  C_10 
ROOT
HETATM    1  C   UNL     1       5.785   0.613  17.946  1.00  0.00     0.033 C 
HETATM    2  C   UNL     1       5.199   0.627  19.399  1.00  0.00     0.090 C 
ENDROOT
BRANCH   2   3
HETATM    3  N   UNL     1       5.888   0.114  20.580  1.00  0.00    -0.412 N 
HETATM    4  H   UNL     1       5.662   0.731  21.341  1.00  0.00     0.154 HD
BRANCH   3   5
HETATM    5  C   UNL     1       6.998  -0.721  20.982  1.00  0.00     0.068 C 
HETATM    6  C   UNL     1       6.942  -0.916  22.493  1.00  0.00     0.031 C 
HETATM    7  C   UNL     1       8.307  -0.040  20.529  1.00  0.00     0.031 C 
ENDBRANCH   3   5
ENDBRANCH   2   3
BRANCH   2   8
HETATM    8  C   UNL     1       4.627   1.987  19.895  1.00  0.00     0.135 C 
BRANCH   8   9
HETATM    9  N   UNL     1       3.679   2.527  18.936  1.00  0.00    -0.428 N 
HETATM   10  H   UNL     1       4.020   3.425  18.648  1.00  0.00     0.149 HD
HETATM   11  H   UNL     1       2.868   2.005  18.847  1.00  0.00     0.149 HD
ENDBRANCH   8   9
ENDBRANCH   2   8
TORSDOF 4
ENDMDL
MODEL 6
REMARK VINA RESULT:    -3.124     27.971     29.509
REMARK INTER + INTRA:          -3.919
REMARK INTER:                  -3.740
REMARK INTRA:                  -0.179
REMARK UNBOUND:                -0.156
REMARK  4 active torsions:
REMARK  status: ('A' for Active; 'I' for Inactive)
REMARK    1  A    between atoms: C_4  and  N_8 
REMARK    2  A    between atoms: C_4  and  C_5 
REMARK    3  A    between atoms: C_5  and  N_6 
REMARK    4  A    between atoms: N_8  and  C_10 
ROOT
HETATM    1  C   UNL     1       6.375  -1.952  21.794  1.00  0.00     0.033 C 
HETATM    2  C   UNL     1       7.646  -2.550  22.490  1.00  0.00     0.090 C 
ENDROOT
BRANCH   2   3
HETATM    3  N   UNL     1       7.984  -3.969  22.531  1.00  0.00    -0.412 N 
HETATM    4  H   UNL     1       8.659  -4.131  21.803  1.00  0.00     0.154 HD
BRANCH   3   5
HETATM    5  C   UNL     1       7.485  -5.250  22.983  1.00  0.00     0.068 C 
HETATM    6  C   UNL     1       6.920  -6.006  21.786  1.00  0.00     0.031 C 
HETATM    7  C   UNL     1       6.422  -4.999  24.073  1.00  0.00     0.031 C 
ENDBRANCH   3   5
ENDBRANCH   2   3
BRANCH   2   8
HETATM    8  C   UNL     1       9.004  -1.881  22.129  1.00  0.00     0.135 C 
BRANCH   8   9
HETATM    9  N   UNL     1      10.049  -2.314  23.040  1.00  0.00    -0.428 N 
HETATM   10  H   UNL     1      10.291  -1.531  23.616  1.00  0.00     0.149 HD
HETATM   11  H   UNL     1      10.392  -3.201  22.853  1.00  0.00     0.149 HD
ENDBRANCH   8   9
ENDBRANCH   2   8
TORSDOF 4
ENDMDL
MODEL 7
REMARK VINA RESULT:    -3.090     31.941     33.885
REMARK INTER + INTRA:          -3.878
REMARK INTER:                  -3.751
REMARK INTRA:                  -0.128
REMARK UNBOUND:                -0.156
REMARK  4 active torsions:
REMARK  status: ('A' for Active; 'I' for Inactive)
REMARK    1  A    between atoms: C_4  and  N_8 
REMARK    2  A    between atoms: C_4  and  C_5 
REMARK    3  A    between atoms: C_5  and  N_6 
REMARK    4  A    between atoms: N_8  and  C_10 
ROOT
HETATM    1  C   UNL     1      23.208  -1.758  23.798  1.00  0.00     0.033 C 
HETATM    2  C   UNL     1      22.255  -2.596  24.718  1.00  0.00     0.090 C 
ENDROOT
BRANCH   2   3
HETATM    3  N   UNL     1      22.685  -3.365  25.883  1.00  0.00    -0.412 N 
HETATM    4  H   UNL     1      22.881  -2.703  26.614  1.00  0.00     0.154 HD
BRANCH   3   5
HETATM    5  C   UNL     1      23.238  -4.645  26.266  1.00  0.00     0.068 C 
HETATM    6  C   UNL     1      24.398  -4.410  27.227  1.00  0.00     0.031 C 
HETATM    7  C   UNL     1      23.679  -5.386  24.986  1.00  0.00     0.031 C 
ENDBRANCH   3   5
ENDBRANCH   2   3
BRANCH   2   8
HETATM    8  C   UNL     1      20.982  -1.865  25.236  1.00  0.00     0.135 C 
BRANCH   8   9
HETATM    9  N   UNL     1      20.259  -1.250  24.137  1.00  0.00    -0.428 N 
HETATM   10  H   UNL     1      19.391  -0.907  24.502  1.00  0.00     0.149 HD
HETATM   11  H   UNL     1      20.669  -1.385  23.270  1.00  0.00     0.149 HD
ENDBRANCH   8   9
ENDBRANCH   2   8
TORSDOF 4
ENDMDL
MODEL 8
REMARK VINA RESULT:    -2.950     25.959     26.994
REMARK INTER + INTRA:          -3.710
REMARK INTER:                  -3.530
REMARK INTRA:                  -0.180
REMARK UNBOUND:                -0.156
REMARK  4 active torsions:
REMARK  status: ('A' for Active; 'I' for Inactive)
REMARK    1  A    between atoms: C_4  and  N_8 
REMARK    2  A    between atoms: C_4  and  C_5 
REMARK    3  A    between atoms: C_5  and  N_6 
REMARK    4  A    between atoms: N_8  and  C_10 
ROOT
HETATM    1  C   UNL     1      24.632   2.309  17.312  1.00  0.00     0.033 C 
HETATM    2  C   UNL     1      24.502   0.900  16.638  1.00  0.00     0.090 C 
ENDROOT
BRANCH   2   3
HETATM    3  N   UNL     1      23.310   0.058  16.692  1.00  0.00    -0.412 N 
HETATM    4  H   UNL     1      22.524   0.649  16.488  1.00  0.00     0.154 HD
BRANCH   3   5
HETATM    5  C   UNL     1      22.815  -1.187  17.237  1.00  0.00     0.068 C 
HETATM    6  C   UNL     1      23.035  -1.183  18.746  1.00  0.00     0.031 C 
HETATM    7  C   UNL     1      23.555  -2.350  16.542  1.00  0.00     0.031 C 
ENDBRANCH   3   5
ENDBRANCH   2   3
BRANCH   2   8
HETATM    8  C   UNL     1      24.919   0.814  15.141  1.00  0.00     0.135 C 
BRANCH   8   9
HETATM    9  N   UNL     1      23.751   0.670  14.289  1.00  0.00    -0.428 N 
HETATM   10  H   UNL     1      22.999   0.338  14.862  1.00  0.00     0.149 HD
HETATM   11  H   UNL     1      23.933   0.796  13.346  1.00  0.00     0.149 HD
ENDBRANCH   8   9
ENDBRANCH   2   8
TORSDOF 4
ENDMDL
MODEL 9
REMARK VINA RESULT:    -2.936     30.049     31.838
REMARK INTER + INTRA:          -3.692
REMARK INTER:                  -3.541
REMARK INTRA:                  -0.151
REMARK UNBOUND:                -0.156
REMARK  4 active torsions:
REMARK  status: ('A' for Active; 'I' for Inactive)
REMARK    1  A    between atoms: C_4  and  N_8 
REMARK    2  A    between atoms: C_4  and  C_5 
REMARK    3  A    between atoms: C_5  and  N_6 
REMARK    4  A    between atoms: N_8  and  C_10 
ROOT
HETATM    1  C   UNL     1       5.302  -5.668  25.737  1.00  0.00     0.033 C 
HETATM    2  C   UNL     1       6.777  -5.470  25.245  1.00  0.00     0.090 C 
ENDROOT
BRANCH   2   3
HETATM    3  N   UNL     1       7.169  -4.668  24.090  1.00  0.00    -0.412 N 
HETATM    4  H   UNL     1       7.516  -3.793  24.445  1.00  0.00     0.154 HD
BRANCH   3   5
HETATM    5  C   UNL     1       6.946  -4.527  22.668  1.00  0.00     0.068 C 
HETATM    6  C   UNL     1       5.586  -3.873  22.449  1.00  0.00     0.031 C 
HETATM    7  C   UNL     1       7.034  -5.925  22.022  1.00  0.00     0.031 C 
ENDBRANCH   3   5
ENDBRANCH   2   3
BRANCH   2   8
HETATM    8  C   UNL     1       7.811  -5.046  26.329  1.00  0.00     0.135 C 
BRANCH   8   9
HETATM    9  N   UNL     1       7.845  -6.011  27.414  1.00  0.00    -0.428 N 
HETATM   10  H   UNL     1       7.793  -5.500  28.274  1.00  0.00     0.149 HD
HETATM   11  H   UNL     1       8.027  -6.919  27.128  1.00  0.00     0.149 HD
ENDBRANCH   8   9
ENDBRANCH   2   8
TORSDOF 4
ENDMDL
