REMARK  9 active torsions:
REMARK  status: ('A' for Active; 'I' for Inactive)
REMARK    1  A    between atoms: N_2  and  C_5 
REMARK    2  A    between atoms: N_2  and  C_4 
REMARK    3  A    between atoms: C_5  and  N_12 
REMARK    4  A    between atoms: N_6  and  C_14 
REMARK       I    between atoms: N_6  and  C_8 
REMARK    5  A    between atoms: C_8  and  O_11 
REMARK    6  A    between atoms: C_14  and  C_15 
REMARK       I    between atoms: C_15  and  N_17 
REMARK    7  A    between atoms: N_17  and  C_19 
REMARK    8  A    between atoms: C_19  and  C_22 
REMARK    9  A    between atoms: O_21  and  C_22 
ROOT
HETATM    1  N   UNL     1      10.111  -2.054  22.817  1.00  0.00    -0.289 N 
ATOM      2  HN  UNL     1      10.931  -2.619  22.597  1.00  0.00     0.178 HD
HETATM    3  C   UNL     1       9.929  -0.806  22.484  1.00  0.00     0.187 C 
ENDROOT
BRANCH   3   4
HETATM    4  N   UNL     1      10.662   0.005  23.046  1.00  0.00    -0.284 N 
HETATM    5  C   UNL     1      11.805   0.001  23.672  1.00  0.00     0.255 C 
HETATM    6  O   UNL     1      12.141   0.644  24.616  1.00  0.00    -0.632 OA
ATOM      7  HN  UNL     1      10.264   0.944  23.013  1.00  0.00     0.173 HD
BRANCH   5   8
HETATM    8  O   UNL     1      12.786  -0.771  22.961  1.00  0.00    -0.760 OA
HETATM    9  H   UNL     1      13.553  -0.327  23.371  1.00  0.00     0.169 HD
ENDBRANCH   5   8
ENDBRANCH   3   4
BRANCH   3  10
HETATM   10  C   UNL     1       8.989  -0.133  21.345  1.00  0.00     0.286 C 
HETATM   11  N   UNL     1       7.964  -0.463  20.748  1.00  0.00    -0.344 N 
ATOM     12  HN  UNL     1       7.534  -1.242  21.247  1.00  0.00     0.163 HD
HETATM   13  O   UNL     1       9.310   0.850  20.895  1.00  0.00    -0.264 OA
BRANCH  11  14
HETATM   14  C   UNL     1       7.178  -0.160  19.639  1.00  0.00     0.232 C 
BRANCH  14  15
HETATM   15  C   UNL     1       5.996   0.718  20.232  1.00  0.00     0.158 C 
HETATM   16  O   UNL     1       5.730   0.776  21.401  1.00  0.00    -0.649 OA
BRANCH  15  17
HETATM   17  O   UNL     1       5.352   1.268  19.257  1.00  0.00    -0.775 OA
HETATM   18  H   UNL     1       5.449   0.941  18.357  1.00  0.00     0.167 HD
ENDBRANCH  15  17
ENDBRANCH  14  15
ENDBRANCH  11  14
ENDBRANCH   3  10
BRANCH   1  19
HETATM   19  C   UNL     1       9.165  -2.414  23.414  1.00  0.00     0.053 C 
BRANCH  19  20
HETATM   20  N   UNL     1       8.256  -3.093  24.122  1.00  0.00    -0.323 N 
ATOM     21  HN  UNL     1       7.316  -3.168  23.734  1.00  0.00     0.175 HD
BRANCH  20  22
HETATM   22  C   UNL     1       8.433  -3.544  25.026  1.00  0.00     0.067 C 
HETATM   23  C   UNL     1       8.171  -4.337  26.229  1.00  0.00     0.055 C 
ENDBRANCH  20  22
ENDBRANCH  19  20
ENDBRANCH   1  19
TORSDOF 9
