MODEL 1
REMARK VINA RESULT:    -5.213      0.000      0.000
REMARK INTER + INTRA:          -9.143
REMARK INTER:                  -7.651
REMARK INTRA:                  -1.491
REMARK UNBOUND:                -1.491
REMARK  8 active torsions:
REMARK  status: ('A' for Active; 'I' for Inactive)
REMARK    1  A    between atoms: C_1  and  N_4 
REMARK    2  A    between atoms: N_6  and  N_8 
REMARK    3  A    between atoms: N_8  and  C_10 
REMARK    4  A    between atoms: C_10  and  C_13 
REMARK    5  A    between atoms: C_12  and  C_13 
REMARK    6  A    between atoms: C_13  and  C_14 
REMARK    7  A    between atoms: C_14  and  N_15 
REMARK    8  A    between atoms: N_15  and  C_17 
ROOT
HETATM    1  C   UNL     1       8.775  16.700   1.636  1.00  0.00    -0.005 C 
ENDROOT
BRANCH   1   2
HETATM    2  C   UNL     1       9.292  17.303   2.558  1.00  0.00     0.121 C 
BRANCH   2   3
HETATM    3  N   UNL     1      10.134  17.777   3.209  1.00  0.00    -0.297 N 
ATOM      4  HN  UNL     1      10.524  18.645   2.838  1.00  0.00     0.187 HD
BRANCH   3   5
HETATM    5  N   UNL     1      10.652  17.384   4.320  1.00  0.00    -0.243 N 
HETATM    6  N   UNL     1      11.449  16.442   4.325  1.00  0.00    -0.267 N 
ATOM      7  HN  UNL     1      12.256  16.385   3.705  1.00  0.00     0.187 HD
ATOM      8  HN  UNL     1      10.403  17.849   5.192  1.00  0.00     0.208 HD
BRANCH   6   9
HETATM    9  C   UNL     1      11.109  15.387   5.342  1.00  0.00     0.453 A 
HETATM   10  O   UNL     1       9.898  14.891   5.425  1.00  0.00    -0.177 OA
HETATM   11  O   UNL     1      11.034  14.119   5.011  1.00  0.00    -0.177 OA
ENDBRANCH   6   9
ENDBRANCH   3   5
ENDBRANCH   2   3
ENDBRANCH   1   2
BRANCH   1  12
HETATM   12  C   UNL     1       7.803  17.556   1.103  1.00  0.00     0.004 C 
HETATM   13  C   UNL     1       8.069  18.500   0.193  1.00  0.00     0.012 C 
ENDBRANCH   1  12
BRANCH   1  14
HETATM   14  C   UNL     1       9.287  15.361   1.328  1.00  0.00     0.103 C 
BRANCH  14  15
HETATM   15  N   UNL     1       9.526  14.524   2.269  1.00  0.00    -0.346 N 
ATOM     16  HN  UNL     1      10.395  14.646   2.789  1.00  0.00     0.167 HD
BRANCH  15  17
HETATM   17  C   UNL     1       8.754  13.526   2.623  1.00  0.00     0.148 C 
HETATM   18  N   UNL     1       9.018  12.599   3.483  1.00  0.00    -0.346 N 
HETATM   19  C   UNL     1       7.958  11.791   3.625  1.00  0.00     0.097 C 
ATOM     20  HN  UNL     1       9.902  12.496   3.980  1.00  0.00     0.167 HD
HETATM   21  C   UNL     1       6.935  12.077   2.759  1.00  0.00     0.070 C 
HETATM   22  S   UNL     1       7.106  13.471   1.849  1.00  0.00    -0.064 SA
ENDBRANCH  15  17
ENDBRANCH  14  15
ENDBRANCH   1  14
TORSDOF 8
ENDMDL
MODEL 2
REMARK VINA RESULT:    -4.953      2.860      4.892
REMARK INTER + INTRA:          -8.761
REMARK INTER:                  -7.197
REMARK INTRA:                  -1.565
REMARK UNBOUND:                -1.491
REMARK  8 active torsions:
REMARK  status: ('A' for Active; 'I' for Inactive)
REMARK    1  A    between atoms: C_1  and  N_4 
REMARK    2  A    between atoms: N_6  and  N_8 
REMARK    3  A    between atoms: N_8  and  C_10 
REMARK    4  A    between atoms: C_10  and  C_13 
REMARK    5  A    between atoms: C_12  and  C_13 
REMARK    6  A    between atoms: C_13  and  C_14 
REMARK    7  A    between atoms: C_14  and  N_15 
REMARK    8  A    between atoms: N_15  and  C_17 
ROOT
HETATM    1  C   UNL     1       9.129  18.009   1.320  1.00  0.00    -0.005 C 
ENDROOT
BRANCH   1   2
HETATM    2  C   UNL     1       9.096  16.792   1.304  1.00  0.00     0.121 C 
BRANCH   2   3
HETATM    3  N   UNL     1       9.390  15.702   1.018  1.00  0.00    -0.297 N 
ATOM      4  HN  UNL     1       9.220  15.455   0.043  1.00  0.00     0.187 HD
BRANCH   3   5
HETATM    5  N   UNL     1       9.894  14.759   1.735  1.00  0.00    -0.243 N 
HETATM    6  N   UNL     1       9.492  14.582   2.888  1.00  0.00    -0.267 N 
ATOM      7  HN  UNL     1       8.505  14.506   3.133  1.00  0.00     0.187 HD
ATOM      8  HN  UNL     1      10.624  14.160   1.350  1.00  0.00     0.208 HD
BRANCH   6   9
HETATM    9  C   UNL     1      10.607  14.491   3.894  1.00  0.00     0.453 A 
HETATM   10  O   UNL     1      11.664  15.263   3.806  1.00  0.00    -0.177 OA
HETATM   11  O   UNL     1      10.712  15.356   4.875  1.00  0.00    -0.177 OA
ENDBRANCH   6   9
ENDBRANCH   3   5
ENDBRANCH   2   3
ENDBRANCH   1   2
BRANCH   1  12
HETATM   12  C   UNL     1       8.772  18.428   0.032  1.00  0.00     0.004 C 
HETATM   13  C   UNL     1       7.888  19.403  -0.209  1.00  0.00     0.012 C 
ENDBRANCH   1  12
BRANCH   1  14
HETATM   14  C   UNL     1       9.469  18.663   2.587  1.00  0.00     0.103 C 
BRANCH  14  15
HETATM   15  N   UNL     1      10.217  18.071   3.443  1.00  0.00    -0.346 N 
ATOM     16  HN  UNL     1      10.086  17.067   3.560  1.00  0.00     0.167 HD
BRANCH  15  17
HETATM   17  C   UNL     1      11.137  18.643   4.182  1.00  0.00     0.148 C 
HETATM   18  N   UNL     1      12.237  18.116   4.610  1.00  0.00    -0.346 N 
HETATM   19  C   UNL     1      12.952  19.029   5.281  1.00  0.00     0.097 C 
ATOM     20  HN  UNL     1      12.519  17.147   4.459  1.00  0.00     0.167 HD
HETATM   21  C   UNL     1      12.299  20.223   5.438  1.00  0.00     0.070 C 
HETATM   22  S   UNL     1      10.854  20.390   4.612  1.00  0.00    -0.064 SA
ENDBRANCH  15  17
ENDBRANCH  14  15
ENDBRANCH   1  14
TORSDOF 8
ENDMDL
MODEL 3
REMARK VINA RESULT:    -4.865      2.600      4.974
REMARK INTER + INTRA:          -8.631
REMARK INTER:                  -7.303
REMARK INTRA:                  -1.329
REMARK UNBOUND:                -1.491
REMARK  8 active torsions:
REMARK  status: ('A' for Active; 'I' for Inactive)
REMARK    1  A    between atoms: C_1  and  N_4 
REMARK    2  A    between atoms: N_6  and  N_8 
REMARK    3  A    between atoms: N_8  and  C_10 
REMARK    4  A    between atoms: C_10  and  C_13 
REMARK    5  A    between atoms: C_12  and  C_13 
REMARK    6  A    between atoms: C_13  and  C_14 
REMARK    7  A    between atoms: C_14  and  N_15 
REMARK    8  A    between atoms: N_15  and  C_17 
ROOT
HETATM    1  C   UNL     1       8.684  15.338   1.939  1.00  0.00    -0.005 C 
ENDROOT
BRANCH   1   2
HETATM    2  C   UNL     1       9.790  14.921   2.232  1.00  0.00     0.121 C 
BRANCH   2   3
HETATM    3  N   UNL     1      10.665  14.544   2.901  1.00  0.00    -0.297 N 
ATOM      4  HN  UNL     1      10.887  13.553   2.797  1.00  0.00     0.187 HD
BRANCH   3   5
HETATM    5  N   UNL     1      11.398  15.176   3.751  1.00  0.00    -0.243 N 
HETATM    6  N   UNL     1      10.912  15.550   4.821  1.00  0.00    -0.267 N 
ATOM      7  HN  UNL     1      10.379  14.940   5.441  1.00  0.00     0.187 HD
ATOM      8  HN  UNL     1      12.377  15.366   3.539  1.00  0.00     0.208 HD
BRANCH   6   9
HETATM    9  C   UNL     1      11.186  16.999   5.118  1.00  0.00     0.453 A 
HETATM   10  O   UNL     1      11.505  17.839   4.163  1.00  0.00    -0.177 OA
HETATM   11  O   UNL     1      10.280  17.923   4.903  1.00  0.00    -0.177 OA
ENDBRANCH   6   9
ENDBRANCH   3   5
ENDBRANCH   2   3
ENDBRANCH   1   2
BRANCH   1  12
HETATM   12  C   UNL     1       7.916  14.214   1.607  1.00  0.00     0.004 C 
HETATM   13  C   UNL     1       7.067  13.622   2.454  1.00  0.00     0.012 C 
ENDBRANCH   1  12
BRANCH   1  14
HETATM   14  C   UNL     1       8.454  16.783   2.038  1.00  0.00     0.103 C 
BRANCH  14  15
HETATM   15  N   UNL     1       9.424  17.606   1.885  1.00  0.00    -0.346 N 
ATOM     16  HN  UNL     1      10.351  17.292   2.170  1.00  0.00     0.167 HD
BRANCH  15  17
HETATM   17  C   UNL     1       9.330  18.818   1.394  1.00  0.00     0.148 C 
HETATM   18  N   UNL     1       9.615  19.200   0.192  1.00  0.00    -0.346 N 
HETATM   19  C   UNL     1       9.330  20.502   0.046  1.00  0.00     0.097 C 
ATOM     20  HN  UNL     1      10.000  18.600  -0.537  1.00  0.00     0.167 HD
HETATM   21  C   UNL     1       8.931  21.106   1.209  1.00  0.00     0.070 C 
HETATM   22  S   UNL     1       8.681  20.094   2.519  1.00  0.00    -0.064 SA
ENDBRANCH  15  17
ENDBRANCH  14  15
ENDBRANCH   1  14
TORSDOF 8
ENDMDL
MODEL 4
REMARK VINA RESULT:    -4.660     23.472     26.096
REMARK INTER + INTRA:          -8.330
REMARK INTER:                  -7.763
REMARK INTRA:                  -0.567
REMARK UNBOUND:                -1.491
REMARK  8 active torsions:
REMARK  status: ('A' for Active; 'I' for Inactive)
REMARK    1  A    between atoms: C_1  and  N_4 
REMARK    2  A    between atoms: N_6  and  N_8 
REMARK    3  A    between atoms: N_8  and  C_10 
REMARK    4  A    between atoms: C_10  and  C_13 
REMARK    5  A    between atoms: C_12  and  C_13 
REMARK    6  A    between atoms: C_13  and  C_14 
REMARK    7  A    between atoms: C_14  and  N_15 
REMARK    8  A    between atoms: N_15  and  C_17 
ROOT
HETATM    1  C   UNL     1       6.958  -3.642  22.413  1.00  0.00    -0.005 C 
ENDROOT
BRANCH   1   2
HETATM    2  C   UNL     1       6.457  -2.644  21.929  1.00  0.00     0.121 C 
BRANCH   2   3
HETATM    3  N   UNL     1       5.994  -1.576  21.879  1.00  0.00    -0.297 N 
ATOM      4  HN  UNL     1       5.280  -1.386  22.583  1.00  0.00     0.187 HD
BRANCH   3   5
HETATM    5  N   UNL     1       6.239  -0.597  21.080  1.00  0.00    -0.243 N 
HETATM    6  N   UNL     1       5.561  -0.455  20.058  1.00  0.00    -0.267 N 
ATOM      7  HN  UNL     1       4.542  -0.458  20.055  1.00  0.00     0.187 HD
ATOM      8  HN  UNL     1       6.991   0.059  21.290  1.00  0.00     0.208 HD
BRANCH   6   9
HETATM    9  C   UNL     1       6.394  -0.279  18.818  1.00  0.00     0.453 A 
HETATM   10  O   UNL     1       6.327   0.822  18.107  1.00  0.00    -0.177 OA
HETATM   11  O   UNL     1       7.500   0.428  18.833  1.00  0.00    -0.177 OA
ENDBRANCH   6   9
ENDBRANCH   3   5
ENDBRANCH   2   3
ENDBRANCH   1   2
BRANCH   1  12
HETATM   12  C   UNL     1       6.367  -4.733  21.765  1.00  0.00     0.004 C 
HETATM   13  C   UNL     1       6.935  -5.941  21.682  1.00  0.00     0.012 C 
ENDBRANCH   1  12
BRANCH   1  14
HETATM   14  C   UNL     1       7.991  -3.455  23.438  1.00  0.00     0.103 C 
BRANCH  14  15
HETATM   15  N   UNL     1       9.145  -2.997  23.120  1.00  0.00    -0.346 N 
ATOM     16  HN  UNL     1       9.660  -3.495  22.394  1.00  0.00     0.167 HD
BRANCH  15  17
HETATM   17  C   UNL     1       9.724  -1.945  23.646  1.00  0.00     0.148 C 
HETATM   18  N   UNL     1       9.342  -1.279  24.685  1.00  0.00    -0.346 N 
HETATM   19  C   UNL     1      10.223  -0.306  24.956  1.00  0.00     0.097 C 
ATOM     20  HN  UNL     1       8.494  -1.465  25.221  1.00  0.00     0.167 HD
HETATM   21  C   UNL     1      11.216  -0.194  24.017  1.00  0.00     0.070 C 
HETATM   22  S   UNL     1      11.263  -1.389  22.847  1.00  0.00    -0.064 SA
ENDBRANCH  15  17
ENDBRANCH  14  15
ENDBRANCH   1  14
TORSDOF 8
ENDMDL
MODEL 5
REMARK VINA RESULT:    -4.644      3.374      4.972
REMARK INTER + INTRA:          -8.307
REMARK INTER:                  -6.793
REMARK INTRA:                  -1.515
REMARK UNBOUND:                -1.491
REMARK  8 active torsions:
REMARK  status: ('A' for Active; 'I' for Inactive)
REMARK    1  A    between atoms: C_1  and  N_4 
REMARK    2  A    between atoms: N_6  and  N_8 
REMARK    3  A    between atoms: N_8  and  C_10 
REMARK    4  A    between atoms: C_10  and  C_13 
REMARK    5  A    between atoms: C_12  and  C_13 
REMARK    6  A    between atoms: C_13  and  C_14 
REMARK    7  A    between atoms: C_14  and  N_15 
REMARK    8  A    between atoms: N_15  and  C_17 
ROOT
HETATM    1  C   UNL     1      10.253  20.065   1.682  1.00  0.00    -0.005 C 
ENDROOT
BRANCH   1   2
HETATM    2  C   UNL     1       9.735  19.217   0.978  1.00  0.00     0.121 C 
BRANCH   2   3
HETATM    3  N   UNL     1       9.606  18.473   0.091  1.00  0.00    -0.297 N 
ATOM      4  HN  UNL     1       9.608  18.905  -0.834  1.00  0.00     0.187 HD
BRANCH   3   5
HETATM    5  N   UNL     1       9.460  17.194   0.089  1.00  0.00    -0.243 N 
HETATM    6  N   UNL     1       8.535  16.681   0.724  1.00  0.00    -0.267 N 
ATOM      7  HN  UNL     1       7.565  16.987   0.650  1.00  0.00     0.187 HD
ATOM      8  HN  UNL     1      10.108  16.607  -0.436  1.00  0.00     0.208 HD
BRANCH   6   9
HETATM    9  C   UNL     1       8.985  15.558   1.618  1.00  0.00     0.453 A 
HETATM   10  O   UNL     1      10.134  15.612   2.249  1.00  0.00    -0.177 OA
HETATM   11  O   UNL     1       8.868  15.636   2.923  1.00  0.00    -0.177 OA
ENDBRANCH   6   9
ENDBRANCH   3   5
ENDBRANCH   2   3
ENDBRANCH   1   2
BRANCH   1  12
HETATM   12  C   UNL     1      10.256  21.248   0.932  1.00  0.00     0.004 C 
HETATM   13  C   UNL     1      11.261  22.131   0.950  1.00  0.00     0.012 C 
ENDBRANCH   1  12
BRANCH   1  14
HETATM   14  C   UNL     1      10.669  19.667   3.030  1.00  0.00     0.103 C 
BRANCH  14  15
HETATM   15  N   UNL     1      10.511  18.459   3.429  1.00  0.00    -0.346 N 
ATOM     16  HN  UNL     1      10.364  17.749   2.713  1.00  0.00     0.167 HD
BRANCH  15  17
HETATM   17  C   UNL     1      10.521  18.057   4.677  1.00  0.00     0.148 C 
HETATM   18  N   UNL     1      10.199  16.888   5.125  1.00  0.00    -0.346 N 
HETATM   19  C   UNL     1      10.398  16.835   6.449  1.00  0.00     0.097 C 
ATOM     20  HN  UNL     1       9.845  16.120   4.555  1.00  0.00     0.167 HD
HETATM   21  C   UNL     1      10.771  18.037   6.993  1.00  0.00     0.070 C 
HETATM   22  S   UNL     1      11.099  19.268   5.908  1.00  0.00    -0.064 SA
ENDBRANCH  15  17
ENDBRANCH  14  15
ENDBRANCH   1  14
TORSDOF 8
ENDMDL
MODEL 6
REMARK VINA RESULT:    -4.609     22.367     24.802
REMARK INTER + INTRA:          -8.256
REMARK INTER:                  -7.513
REMARK INTRA:                  -0.744
REMARK UNBOUND:                -1.491
REMARK  8 active torsions:
REMARK  status: ('A' for Active; 'I' for Inactive)
REMARK    1  A    between atoms: C_1  and  N_4 
REMARK    2  A    between atoms: N_6  and  N_8 
REMARK    3  A    between atoms: N_8  and  C_10 
REMARK    4  A    between atoms: C_10  and  C_13 
REMARK    5  A    between atoms: C_12  and  C_13 
REMARK    6  A    between atoms: C_13  and  C_14 
REMARK    7  A    between atoms: C_14  and  N_15 
REMARK    8  A    between atoms: N_15  and  C_17 
ROOT
HETATM    1  C   UNL     1       9.891  -0.151  22.279  1.00  0.00    -0.005 C 
ENDROOT
BRANCH   1   2
HETATM    2  C   UNL     1       9.860  -1.365  22.361  1.00  0.00     0.121 C 
BRANCH   2   3
HETATM    3  N   UNL     1       9.704  -2.417  22.834  1.00  0.00    -0.297 N 
ATOM      4  HN  UNL     1      10.559  -2.878  23.145  1.00  0.00     0.187 HD
BRANCH   3   5
HETATM    5  N   UNL     1       8.625  -3.093  23.029  1.00  0.00    -0.243 N 
HETATM    6  N   UNL     1       7.970  -3.495  22.063  1.00  0.00    -0.267 N 
ATOM      7  HN  UNL     1       8.378  -4.004  21.279  1.00  0.00     0.187 HD
ATOM      8  HN  UNL     1       8.313  -3.295  23.978  1.00  0.00     0.208 HD
BRANCH   6   9
HETATM    9  C   UNL     1       6.507  -3.158  22.162  1.00  0.00     0.453 A 
HETATM   10  O   UNL     1       5.946  -2.323  21.320  1.00  0.00    -0.177 OA
HETATM   11  O   UNL     1       5.623  -3.719  21.371  1.00  0.00    -0.177 OA
ENDBRANCH   6   9
ENDBRANCH   3   5
ENDBRANCH   2   3
ENDBRANCH   1   2
BRANCH   1  12
HETATM   12  C   UNL     1      10.935   0.271  23.111  1.00  0.00     0.004 C 
HETATM   13  C   UNL     1      11.114   1.543  23.487  1.00  0.00     0.012 C 
ENDBRANCH   1  12
BRANCH   1  14
HETATM   14  C   UNL     1       8.932   0.495  21.378  1.00  0.00     0.103 C 
BRANCH  14  15
HETATM   15  N   UNL     1       8.445  -0.145  20.380  1.00  0.00    -0.346 N 
ATOM     16  HN  UNL     1       8.910  -1.013  20.113  1.00  0.00     0.167 HD
BRANCH  15  17
HETATM   17  C   UNL     1       7.403   0.215  19.672  1.00  0.00     0.148 C 
HETATM   18  N   UNL     1       7.146  -0.090  18.443  1.00  0.00    -0.346 N 
HETATM   19  C   UNL     1       5.955   0.410  18.085  1.00  0.00     0.097 C 
ATOM     20  HN  UNL     1       7.760  -0.632  17.835  1.00  0.00     0.167 HD
HETATM   21  C   UNL     1       5.383   1.195  19.051  1.00  0.00     0.070 C 
HETATM   22  S   UNL     1       6.153   1.221  20.536  1.00  0.00    -0.064 SA
ENDBRANCH  15  17
ENDBRANCH  14  15
ENDBRANCH   1  14
TORSDOF 8
ENDMDL
MODEL 7
REMARK VINA RESULT:    -4.593      2.652      3.759
REMARK INTER + INTRA:          -8.232
REMARK INTER:                  -7.534
REMARK INTRA:                  -0.698
REMARK UNBOUND:                -1.491
REMARK  8 active torsions:
REMARK  status: ('A' for Active; 'I' for Inactive)
REMARK    1  A    between atoms: C_1  and  N_4 
REMARK    2  A    between atoms: N_6  and  N_8 
REMARK    3  A    between atoms: N_8  and  C_10 
REMARK    4  A    between atoms: C_10  and  C_13 
REMARK    5  A    between atoms: C_12  and  C_13 
REMARK    6  A    between atoms: C_13  and  C_14 
REMARK    7  A    between atoms: C_14  and  N_15 
REMARK    8  A    between atoms: N_15  and  C_17 
ROOT
HETATM    1  C   UNL     1       7.189  13.473   2.109  1.00  0.00    -0.005 C 
ENDROOT
BRANCH   1   2
HETATM    2  C   UNL     1       7.995  14.273   1.670  1.00  0.00     0.121 C 
BRANCH   2   3
HETATM    3  N   UNL     1       9.025  14.710   1.347  1.00  0.00    -0.297 N 
ATOM      4  HN  UNL     1       9.239  14.613   0.353  1.00  0.00     0.187 HD
BRANCH   3   5
HETATM    5  N   UNL     1       9.938  15.294   2.041  1.00  0.00    -0.243 N 
HETATM    6  N   UNL     1      10.762  14.619   2.664  1.00  0.00    -0.267 N 
ATOM      7  HN  UNL     1      11.295  13.856   2.246  1.00  0.00     0.187 HD
ATOM      8  HN  UNL     1       9.980  16.312   2.076  1.00  0.00     0.208 HD
BRANCH   6   9
HETATM    9  C   UNL     1      10.900  15.036   4.103  1.00  0.00     0.453 A 
HETATM   10  O   UNL     1       9.868  15.030   4.913  1.00  0.00    -0.177 OA
HETATM   11  O   UNL     1      10.990  14.148   5.065  1.00  0.00    -0.177 OA
ENDBRANCH   6   9
ENDBRANCH   3   5
ENDBRANCH   2   3
ENDBRANCH   1   2
BRANCH   1  12
HETATM   12  C   UNL     1       6.962  13.837   3.442  1.00  0.00     0.004 C 
HETATM   13  C   UNL     1       6.359  14.974   3.806  1.00  0.00     0.012 C 
ENDBRANCH   1  12
BRANCH   1  14
HETATM   14  C   UNL     1       6.682  12.447   1.193  1.00  0.00     0.103 C 
BRANCH  14  15
HETATM   15  N   UNL     1       5.465  12.050   1.272  1.00  0.00    -0.346 N 
ATOM     16  HN  UNL     1       4.760  12.617   0.802  1.00  0.00     0.167 HD
BRANCH  15  17
HETATM   17  C   UNL     1       5.048  10.979   1.902  1.00  0.00     0.148 C 
HETATM   18  N   UNL     1       5.757   9.969   2.285  1.00  0.00    -0.346 N 
HETATM   19  C   UNL     1       4.989   9.098   2.955  1.00  0.00     0.097 C 
ATOM     20  HN  UNL     1       6.754   9.851   2.103  1.00  0.00     0.167 HD
HETATM   21  C   UNL     1       3.661   9.436   2.962  1.00  0.00     0.070 C 
HETATM   22  S   UNL     1       3.277  10.935   2.327  1.00  0.00    -0.064 SA
ENDBRANCH  15  17
ENDBRANCH  14  15
ENDBRANCH   1  14
TORSDOF 8
ENDMDL
MODEL 8
REMARK VINA RESULT:    -4.558     24.038     26.175
REMARK INTER + INTRA:          -8.181
REMARK INTER:                  -7.156
REMARK INTRA:                  -1.025
REMARK UNBOUND:                -1.491
REMARK  8 active torsions:
REMARK  status: ('A' for Active; 'I' for Inactive)
REMARK    1  A    between atoms: C_1  and  N_4 
REMARK    2  A    between atoms: N_6  and  N_8 
REMARK    3  A    between atoms: N_8  and  C_10 
REMARK    4  A    between atoms: C_10  and  C_13 
REMARK    5  A    between atoms: C_12  and  C_13 
REMARK    6  A    between atoms: C_13  and  C_14 
REMARK    7  A    between atoms: C_14  and  N_15 
REMARK    8  A    between atoms: N_15  and  C_17 
ROOT
HETATM    1  C   UNL     1      11.448   0.490  24.522  1.00  0.00    -0.005 C 
ENDROOT
BRANCH   1   2
HETATM    2  C   UNL     1      11.438   1.536  23.899  1.00  0.00     0.121 C 
BRANCH   2   3
HETATM    3  N   UNL     1      11.033   2.392  23.220  1.00  0.00    -0.297 N 
ATOM      4  HN  UNL     1      11.305   3.332  23.508  1.00  0.00     0.187 HD
BRANCH   3   5
HETATM    5  N   UNL     1      10.298   2.341  22.164  1.00  0.00    -0.243 N 
HETATM    6  N   UNL     1       9.115   2.686  22.224  1.00  0.00    -0.267 N 
ATOM      7  HN  UNL     1       8.806   3.568  22.634  1.00  0.00     0.187 HD
ATOM      8  HN  UNL     1      10.693   2.018  21.282  1.00  0.00     0.208 HD
BRANCH   6   9
HETATM    9  C   UNL     1       8.175   1.673  21.630  1.00  0.00     0.453 A 
HETATM   10  O   UNL     1       8.578   0.832  20.708  1.00  0.00    -0.177 OA
HETATM   11  O   UNL     1       8.183   0.421  22.024  1.00  0.00    -0.177 OA
ENDBRANCH   6   9
ENDBRANCH   3   5
ENDBRANCH   2   3
ENDBRANCH   1   2
BRANCH   1  12
HETATM   12  C   UNL     1      12.748  -0.020  24.411  1.00  0.00     0.004 C 
HETATM   13  C   UNL     1      13.066  -1.075  23.653  1.00  0.00     0.012 C 
ENDBRANCH   1  12
BRANCH   1  14
HETATM   14  C   UNL     1      10.211   0.091  25.199  1.00  0.00     0.103 C 
BRANCH  14  15
HETATM   15  N   UNL     1       9.332  -0.611  24.584  1.00  0.00    -0.346 N 
ATOM     16  HN  UNL     1       8.933  -0.217  23.733  1.00  0.00     0.167 HD
BRANCH  15  17
HETATM   17  C   UNL     1       8.900  -1.793  24.953  1.00  0.00     0.148 C 
HETATM   18  N   UNL     1       8.636  -2.190  26.154  1.00  0.00    -0.346 N 
HETATM   19  C   UNL     1       8.155  -3.441  26.128  1.00  0.00     0.097 C 
ATOM     20  HN  UNL     1       8.774  -1.634  26.998  1.00  0.00     0.167 HD
HETATM   21  C   UNL     1       8.176  -4.006  24.880  1.00  0.00     0.070 C 
HETATM   22  S   UNL     1       8.594  -2.991  23.616  1.00  0.00    -0.064 SA
ENDBRANCH  15  17
ENDBRANCH  14  15
ENDBRANCH   1  14
TORSDOF 8
ENDMDL
MODEL 9
REMARK VINA RESULT:    -4.360     24.590     27.143
REMARK INTER + INTRA:          -7.891
REMARK INTER:                  -7.356
REMARK INTRA:                  -0.535
REMARK UNBOUND:                -1.491
REMARK  8 active torsions:
REMARK  status: ('A' for Active; 'I' for Inactive)
REMARK    1  A    between atoms: C_1  and  N_4 
REMARK    2  A    between atoms: N_6  and  N_8 
REMARK    3  A    between atoms: N_8  and  C_10 
REMARK    4  A    between atoms: C_10  and  C_13 
REMARK    5  A    between atoms: C_12  and  C_13 
REMARK    6  A    between atoms: C_13  and  C_14 
REMARK    7  A    between atoms: C_14  and  N_15 
REMARK    8  A    between atoms: N_15  and  C_17 
ROOT
HETATM    1  C   UNL     1       7.093  -3.591  22.405  1.00  0.00    -0.005 C 
ENDROOT
BRANCH   1   2
HETATM    2  C   UNL     1       6.326  -2.767  21.940  1.00  0.00     0.121 C 
BRANCH   2   3
HETATM    3  N   UNL     1       5.682  -2.211  21.145  1.00  0.00    -0.297 N 
ATOM      4  HN  UNL     1       4.855  -2.720  20.832  1.00  0.00     0.187 HD
BRANCH   3   5
HETATM    5  N   UNL     1       5.846  -1.058  20.596  1.00  0.00    -0.243 N 
HETATM    6  N   UNL     1       5.286  -0.802  19.527  1.00  0.00    -0.267 N 
ATOM      7  HN  UNL     1       4.292  -0.955  19.362  1.00  0.00     0.187 HD
ATOM      8  HN  UNL     1       6.437  -0.358  21.045  1.00  0.00     0.208 HD
BRANCH   6   9
HETATM    9  C   UNL     1       6.222  -0.240  18.491  1.00  0.00     0.453 A 
HETATM   10  O   UNL     1       6.245   1.044  18.224  1.00  0.00    -0.177 OA
HETATM   11  O   UNL     1       7.343   0.350  18.833  1.00  0.00    -0.177 OA
ENDBRANCH   6   9
ENDBRANCH   3   5
ENDBRANCH   2   3
ENDBRANCH   1   2
BRANCH   1  12
HETATM   12  C   UNL     1       6.469  -4.835  22.256  1.00  0.00     0.004 C 
HETATM   13  C   UNL     1       7.122  -5.956  21.929  1.00  0.00     0.012 C 
ENDBRANCH   1  12
BRANCH   1  14
HETATM   14  C   UNL     1       8.377  -3.108  22.923  1.00  0.00     0.103 C 
BRANCH  14  15
HETATM   15  N   UNL     1       8.536  -2.906  24.179  1.00  0.00    -0.346 N 
ATOM     16  HN  UNL     1       9.032  -2.059  24.455  1.00  0.00     0.167 HD
BRANCH  15  17
HETATM   17  C   UNL     1       8.118  -3.693  25.141  1.00  0.00     0.148 C 
HETATM   18  N   UNL     1       8.539  -4.882  25.418  1.00  0.00    -0.346 N 
HETATM   19  C   UNL     1       7.917  -5.346  26.511  1.00  0.00     0.097 C 
ATOM     20  HN  UNL     1       9.241  -5.394  24.884  1.00  0.00     0.167 HD
HETATM   21  C   UNL     1       6.935  -4.509  26.974  1.00  0.00     0.070 C 
HETATM   22  S   UNL     1       6.832  -3.011  26.236  1.00  0.00    -0.064 SA
ENDBRANCH  15  17
ENDBRANCH  14  15
ENDBRANCH   1  14
TORSDOF 8
ENDMDL
