stable:False satoms:13 tatoms:24 sratio:0.5416666666666666
  -OEChem-07092417403D

 24 25  0     0  0  0  0  0  0999 V2000
    6.8834   -4.5291   26.1630 H   0  0  0  0  0  0  0  0  0  0  0  0
    8.1248   -4.3001   26.0491 C   0  0  0  0  0  0  0  0  0  0  0  0
    9.0128   -5.1475   26.5119 O   0  0  0  0  0  0  0  0  0  0  0  0
    8.8638   -3.8128   27.0181 O   0  0  0  0  0  0  0  0  0  0  0  0
    8.2200   -3.7617   24.6470 N   0  0  0  0  0  0  0  0  0  0  0  0
    9.2241   -3.0689   24.4616 N   0  0  0  0  0  0  0  0  0  0  0  0
    9.1076   -1.9054   23.9239 N   0  0  0  0  0  0  0  0  0  0  0  0
    9.8671   -1.2855   23.2938 C   0  0  0  0  0  0  0  0  0  0  0  0
   12.2852   -0.2218   23.6729 C   0  0  0  0  0  0  0  0  0  0  0  0
   11.7577   -0.0208   24.5467 H   0  0  0  0  0  0  0  0  0  0  0  0
   13.3570   -0.0853   23.7077 H   0  0  0  0  0  0  0  0  0  0  0  0
   12.3890   -0.7511   21.7056 H   0  0  0  0  0  0  0  0  0  0  0  0
   11.6987   -0.6049   22.5331 C   0  0  0  0  0  0  0  0  0  0  0  0
   10.3111   -0.6525   22.3538 C   0  0  0  0  0  0  0  0  0  0  0  0
    9.3588   -0.1747   21.3460 C   0  3  0  0  0  0  0  0  0  0  0  0
    9.6813    0.4645   20.5469 H   0  0  0  0  0  0  0  0  0  0  0  0
    8.1215   -0.4994   21.4166 N   0  0  0  0  0  0  0  0  0  0  0  0
    7.1735   -0.0845   20.6123 C   0  0  0  0  0  0  0  0  0  0  0  0
    7.2141   -0.0196   19.3217 N   0  0  0  0  0  0  0  0  0  0  0  0
    5.9176    0.3882   17.7836 H   0  0  0  0  0  0  0  0  0  0  0  0
    6.0312    0.3932   18.8465 C   0  0  0  0  0  0  0  0  0  0  0  0
    4.2341    1.2363   19.6063 H   0  0  0  0  0  0  0  0  0  0  0  0
    5.1422    0.7442   19.8285 C   0  0  0  0  0  0  0  0  0  0  0  0
    5.6074    0.4092   21.4001 S   0  0  0  0  0  0  0  0  0  0  0  0
 20 21  1  0  0  0  0
 19 21  1  0  0  0  0
 21 23  2  0  0  0  0
 18 19  2  0  0  0  0
 22 23  1  0  0  0  0
 23 24  1  0  0  0  0
 15 16  1  0  0  0  0
 18 24  1  0  0  0  0
 17 18  1  0  0  0  0
 15 17  1  0  0  0  0
 14 15  1  0  0  0  0
 12 13  1  0  0  0  0
 13 14  1  0  0  0  0
  8 14  2  0  0  0  0
  9 13  2  0  0  0  0
  7  8  1  0  0  0  0
  9 11  1  0  0  0  0
  9 10  1  0  0  0  0
  6  7  1  0  0  0  0
  5  6  2  3  0  0  0
  2  5  1  0  0  0  0
  1  2  1  0  0  0  0
  2  3  1  0  0  0  0
  2  4  1  0  0  0  0
  3  4  1  0  0  0  0
M  CHG  1  15   1
M  END
> <Shapegauss>
-198.857941

$$$$
