stable:False satoms:7 tatoms:24 sratio:0.2916666666666667
  -OEChem-07092417473D

 24 25  0     1  0  0  0  0  0999 V2000
    6.6666   -4.8028   26.3598 C   0  0  0  0  0  0  0  0  0  0  0  0
    8.1270   -4.2819   26.1258 S   0  0  0  0  0  0  0  0  0  0  0  0
    9.0149   -5.4392   26.0588 O   0  0  0  0  0  0  0  0  0  0  0  0
    8.5553   -3.3900   27.1506 O   0  0  0  0  0  0  0  0  0  0  0  0
    8.1329   -3.5567   24.6702 N   0  0  0  0  0  0  0  0  0  0  0  0
    8.9284   -2.8935   24.1329 C   0  0  0  0  0  0  0  0  0  0  0  0
    9.4035   -2.0188   23.5654 C   0  0  0  0  0  0  0  0  0  0  0  0
   10.3547   -1.1414   23.2690 C   0  0  1  0  0  0  0  0  0  0  0  0
   11.0542   -0.1062   24.2267 C   0  0  0  0  0  0  0  0  0  0  0  0
   12.1699    0.2382   24.1708 C   0  0  0  0  0  0  0  0  0  0  0  0
   13.0716   -0.1498   23.4874 C   0  0  0  0  0  0  0  0  0  0  0  0
   12.8500   -1.3175   22.6030 C   0  0  0  0  0  0  0  0  0  0  0  0
   11.8374   -1.6899   22.5322 C   0  0  0  0  0  0  0  0  0  0  0  0
    9.6898   -0.6410   22.4044 C   0  0  0  0  0  0  0  0  0  0  0  0
    9.0520    0.0457   21.4181 C   0  0  0  0  0  0  0  0  0  0  0  0
    9.5586    0.9764   20.9780 O   0  0  0  0  0  0  0  0  0  0  0  0
    7.8809   -0.5159   21.1370 N   0  0  0  0  0  0  0  0  0  0  0  0
    7.1772   -0.0569   20.2025 C   0  0  0  0  0  0  0  0  0  0  0  0
    7.2226    0.0203   18.8771 C   0  0  0  0  0  0  0  0  0  0  0  0
    6.8306    0.3153   17.7843 N   0  0  0  0  0  0  0  0  0  0  0  0
    5.6292    0.9093   18.2838 C   0  0  0  0  0  0  0  0  0  0  0  0
    5.3088    0.9994   19.3936 C   0  0  0  0  0  0  0  0  0  0  0  0
    5.8156    0.5726   20.5625 C   0  0  0  0  0  0  0  0  0  0  0  0
    5.2523    0.6340   21.9027 C   0  0  0  0  0  0  0  0  0  0  0  0
 20 21  2  0  0  0  0
 19 20  1  0  0  0  0
 21 22  1  0  0  0  0
 18 19  2  0  0  0  0
 22 23  2  0  0  0  0
 18 23  1  0  0  0  0
 17 18  1  0  0  0  0
 23 24  1  0  0  0  0
 15 16  2  0  0  0  0
 15 17  1  0  0  0  0
 14 15  1  0  0  0  0
  8 14  1  0  0  0  0
 12 13  1  0  0  0  0
  8 13  1  0  0  0  0
 11 12  2  0  0  0  0
  7  8  1  0  0  0  0
  8  9  1  0  0  0  0
 10 11  1  0  0  0  0
  6  7  3  0  0  0  0
  5  6  1  0  0  0  0
  9 10  2  0  0  0  0
  2  5  1  0  0  0  0
  2  3  2  0  0  0  0
  1  2  1  0  0  0  0
  2  4  2  0  0  0  0
M  END
> <Shapegauss>
-286.360016

$$$$
