stable:False satoms:7 tatoms:24 sratio:0.2916666666666667
  -OEChem-08062413333D

 43 44  0     1  0  0  0  0  0999 V2000
   -6.7598   -5.5502  -26.0993 C   0  0  0  0  0  0  0  0  0  0  0  0
   -8.2162   -4.9945  -25.9293 S   0  0  0  0  0  0  0  0  0  0  0  0
   -9.1198   -6.1317  -25.7794 O   0  0  0  0  0  0  0  0  0  0  0  0
   -8.6198   -4.1853  -27.0299 O   0  0  0  0  0  0  0  0  0  0  0  0
   -8.2314   -4.1516  -24.5386 N   0  0  0  0  0  0  0  0  0  0  0  0
   -9.0251   -3.4369  -24.0688 C   0  0  0  0  0  0  0  0  0  0  0  0
   -9.4961   -2.5128  -23.5820 C   0  0  0  0  0  0  0  0  0  0  0  0
  -10.4396   -1.6027  -23.3721 C   0  0  1  0  0  0  0  0  0  0  0  0
  -11.1133   -0.6419  -24.4214 C   0  0  0  0  0  0  0  0  0  0  0  0
  -12.2251   -0.2809  -24.4096 C   0  0  0  0  0  0  0  0  0  0  0  0
  -13.1404   -0.6005  -23.7091 C   0  0  0  0  0  0  0  0  0  0  0  0
  -12.9453   -1.6937  -22.7285 C   0  0  0  0  0  0  0  0  0  0  0  0
  -11.9386   -2.0709  -22.6132 C   0  0  0  0  0  0  0  0  0  0  0  0
   -9.7794   -1.0405  -22.5425 C   0  0  0  0  0  0  0  0  0  0  0  0
   -9.1455   -0.2823  -21.6075 C   0  0  0  0  0  0  0  0  0  0  0  0
   -9.6456    0.6875  -21.2526 O   0  0  0  0  0  0  0  0  0  0  0  0
   -7.9854   -0.8326  -21.2648 N   0  0  0  0  0  0  0  0  0  0  0  0
   -7.2879   -0.3064  -20.3617 C   0  0  0  0  0  0  0  0  0  0  0  0
   -7.3493   -0.1195  -19.0479 C   0  0  0  0  0  0  0  0  0  0  0  0
   -6.9675    0.2601  -17.9778 N   0  0  0  0  0  0  0  0  0  0  0  0
   -5.7523    0.7966  -18.5079 C   0  0  0  0  0  0  0  0  0  0  0  0
   -5.4165    0.7909  -19.6168 C   0  0  0  0  0  0  0  0  0  0  0  0
   -5.9138    0.2751  -20.7535 C   0  0  0  0  0  0  0  0  0  0  0  0
   -5.3326    0.2190  -22.0862 C   0  0  0  0  0  0  0  0  0  0  0  0
   -6.6951   -6.1317  -27.0308 H   0  0  0  0  0  0  0  0  0  0  0  0
   -6.0499   -4.7110  -26.1411 H   0  0  0  0  0  0  0  0  0  0  0  0
   -6.5124   -6.1976  -25.2451 H   0  0  0  0  0  0  0  0  0  0  0  0
   -7.4102   -3.5841  -24.5986 H   0  0  0  0  0  0  0  0  0  0  0  0
  -10.4904   -0.2829  -25.2273 H   0  0  0  0  0  0  0  0  0  0  0  0
  -12.4653    0.4640  -25.1538 H   0  0  0  0  0  0  0  0  0  0  0  0
  -14.0940   -0.1000  -23.7901 H   0  0  0  0  0  0  0  0  0  0  0  0
  -13.7689   -2.0945  -22.1563 H   0  0  0  0  0  0  0  0  0  0  0  0
  -11.7361   -1.9525  -21.5385 H   0  0  0  0  0  0  0  0  0  0  0  0
  -12.0307   -3.1404  -22.8533 H   0  0  0  0  0  0  0  0  0  0  0  0
   -8.8777   -1.0894  -23.1707 H   0  0  0  0  0  0  0  0  0  0  0  0
   -9.8075   -1.9127  -21.8729 H   0  0  0  0  0  0  0  0  0  0  0  0
   -7.6687   -1.6625  -21.7241 H   0  0  0  0  0  0  0  0  0  0  0  0
   -8.2959   -0.5765  -18.7998 H   0  0  0  0  0  0  0  0  0  0  0  0
   -5.0769    1.2548  -17.8005 H   0  0  0  0  0  0  0  0  0  0  0  0
   -4.4899    1.3232  -19.7728 H   0  0  0  0  0  0  0  0  0  0  0  0
   -4.7446   -0.7047  -22.1918 H   0  0  0  0  0  0  0  0  0  0  0  0
   -6.1362    0.2298  -22.8373 H   0  0  0  0  0  0  0  0  0  0  0  0
   -4.6776    1.0897  -22.2375 H   0  0  0  0  0  0  0  0  0  0  0  0
 20 21  2  0  0  0  0
 19 20  1  0  0  0  0
 21 22  1  0  0  0  0
 18 19  2  0  0  0  0
 22 23  2  0  0  0  0
 18 23  1  0  0  0  0
 17 18  1  0  0  0  0
 23 24  1  0  0  0  0
 15 16  2  0  0  0  0
 15 17  1  0  0  0  0
 14 15  1  0  0  0  0
  8 14  1  0  0  0  0
 12 13  1  0  0  0  0
  8 13  1  0  0  0  0
 11 12  2  0  0  0  0
  7  8  1  0  0  0  0
  8  9  1  0  0  0  0
 10 11  1  0  0  0  0
  6  7  3  0  0  0  0
  5  6  1  0  0  0  0
  9 10  2  0  0  0  0
  2  5  1  0  0  0  0
  2  3  2  0  0  0  0
  1  2  1  0  0  0  0
  2  4  2  0  0  0  0
  1 25  1  0  0  0  0
  1 26  1  0  0  0  0
  1 27  1  0  0  0  0
  5 28  1  0  0  0  0
  9 29  1  0  0  0  0
 10 30  1  0  0  0  0
 11 31  1  0  0  0  0
 12 32  1  0  0  0  0
 13 33  1  0  0  0  0
 13 34  1  0  0  0  0
 14 35  1  0  0  0  0
 14 36  1  0  0  0  0
 17 37  1  0  0  0  0
 19 38  1  0  0  0  0
 21 39  1  0  0  0  0
 22 40  1  0  0  0  0
 24 41  1  0  0  0  0
 24 42  1  0  0  0  0
 24 43  1  0  0  0  0
M  END
> <Chemgauss4>
-12.534614

$$$$
