REMARK  6 active torsions:
REMARK  status: ('A' for Active; 'I' for Inactive)
REMARK    1  A    between atoms: S_2  and  N_5 
REMARK    2  A    between atoms: N_5  and  C_7 
REMARK    3  A    between atoms: C_8  and  C_9 
REMARK    4  A    between atoms: C_9  and  C_15 
REMARK    5  A    between atoms: C_15  and  C_16 
REMARK       I    between atoms: C_16  and  N_18 
REMARK    6  A    between atoms: N_18  and  C_20 
ROOT
HETATM    1  C   UNL     1      10.317  -1.153  23.239  1.00  0.00     0.076 C 
HETATM    2  C   UNL     1      11.021   0.012  24.259  1.00  0.00     0.003 C 
HETATM    3  C   UNL     1      12.095   0.296  24.204  1.00  0.00    -0.002 C 
HETATM    4  C   UNL     1      13.164  -0.146  23.468  1.00  0.00    -0.001 C 
HETATM    5  C   UNL     1      12.726  -1.307  22.682  1.00  0.00    -0.002 C 
HETATM    6  C   UNL     1      11.833  -1.775  22.571  1.00  0.00     0.003 C 
ENDROOT
BRANCH   1   7
HETATM    7  C   UNL     1       9.426  -1.992  23.486  1.00  0.00     0.021 C 
HETATM    8  C   UNL     1       8.967  -2.939  24.135  1.00  0.00     0.098 C 
BRANCH   8   9
HETATM    9  N   UNL     1       8.089  -3.578  24.709  1.00  0.00    -0.296 N 
ATOM     10  HN  UNL     1       7.194  -3.646  24.225  1.00  0.00     0.177 HD
BRANCH   9  11
HETATM   11  S   UNL     1       8.182  -4.318  26.129  1.00  0.00     0.226 S 
HETATM   12  C   UNL     1       6.655  -4.852  26.432  1.00  0.00     0.186 C 
HETATM   13  O   UNL     1       9.081  -5.445  26.071  1.00  0.00    -0.206 OA
HETATM   14  O   UNL     1       8.575  -3.394  27.171  1.00  0.00    -0.206 OA
ENDBRANCH   9  11
ENDBRANCH   8   9
ENDBRANCH   1   7
BRANCH   1  15
HETATM   15  C   UNL     1       9.742  -0.618  22.325  1.00  0.00    -0.061 C 
BRANCH  15  16
HETATM   16  C   UNL     1       9.090   0.035  21.362  1.00  0.00     0.290 C 
HETATM   17  O   UNL     1       9.567   0.987  20.938  1.00  0.00    -0.259 OA
HETATM   18  N   UNL     1       7.937  -0.537  21.072  1.00  0.00    -0.315 N 
ATOM     19  HN  UNL     1       7.656  -1.372  21.586  1.00  0.00     0.170 HD
BRANCH  18  20
HETATM   20  C   UNL     1       7.186  -0.090  20.195  1.00  0.00     0.057 A 
HETATM   21  C   UNL     1       7.258  -0.015  18.882  1.00  0.00     0.117 A 
HETATM   22  N   UNL     1       6.745   0.313  17.825  1.00  0.00    -0.373 N 
HETATM   23  C   UNL     1       5.627   0.903  18.247  1.00  0.00     0.088 A 
ATOM     24  HN  UNL     1       7.082   0.173  16.872  1.00  0.00     0.164 HD
HETATM   25  C   UNL     1       5.233   0.995  19.362  1.00  0.00     0.026 A 
HETATM   26  C   UNL     1       5.802   0.570  20.540  1.00  0.00    -0.033 A 
HETATM   27  C   UNL     1       5.266   0.757  21.993  1.00  0.00     0.050 C 
ENDBRANCH  18  20
ENDBRANCH  15  16
ENDBRANCH   1  15
TORSDOF 6
