stable:False satoms:11 tatoms:24 sratio:0.4583333333333333
  -OEChem-08062415123D

 42 43  0     1  0  0  0  0  0999 V2000
    6.2270   -5.4493   25.8012 C   0  0  0  0  0  0  0  0  0  0  0  0
    7.8526   -4.8934   25.6569 S   0  0  0  0  0  0  0  0  0  0  0  0
    8.7213   -6.0440   25.5286 O   0  0  0  0  0  0  0  0  0  0  0  0
    8.1358   -4.0909   26.8021 O   0  0  0  0  0  0  0  0  0  0  0  0
    7.9098   -4.0855   24.2709 N   0  0  0  0  0  0  0  0  0  0  0  0
    8.7594   -3.3350   23.9004 C   0  0  0  0  0  0  0  0  0  0  0  0
    9.2979   -2.3502   23.3959 C   0  0  0  0  0  0  0  0  0  0  0  0
   10.2208   -1.4513   23.2806 C   0  0  1  0  0  0  0  0  0  0  0  0
   10.7511   -0.4668   24.4010 C   0  0  0  0  0  0  0  0  0  0  0  0
   11.8745   -0.1530   24.4953 C   0  0  0  0  0  0  0  0  0  0  0  0
   12.8993   -0.4516   23.9271 C   0  0  0  0  0  0  0  0  0  0  0  0
   12.6409   -1.6285   22.8927 C   0  0  0  0  0  0  0  0  0  0  0  0
   11.7370   -1.9846   22.6835 C   0  0  0  0  0  0  0  0  0  0  0  0
    9.6075   -0.8963   22.3551 C   0  0  0  0  0  0  0  0  0  0  0  0
    9.0495   -0.1968   21.3638 C   0  0  0  0  0  0  0  0  0  0  0  0
    9.5990    0.7569   21.0733 O   0  0  0  0  0  0  0  0  0  0  0  0
    7.9378   -0.7691   20.9679 N   0  0  0  0  0  0  0  0  0  0  0  0
    7.3168   -0.2632   20.0172 C   0  0  0  0  0  0  0  0  0  0  0  0
    7.4764   -0.0702   18.7225 C   0  0  0  0  0  0  0  0  0  0  0  0
    7.1125    0.3214   17.6144 N   0  0  0  0  0  0  0  0  0  0  0  0
    5.9859    0.7852   18.0410 C   0  0  0  0  0  0  0  0  0  0  0  0
    5.4557    0.8167   19.0737 C   0  0  0  0  0  0  0  0  0  0  0  0
    5.8778    0.3431   20.2584 C   0  0  0  0  0  0  0  0  0  0  0  0
    5.1617    0.3674   21.7359 Br  0  0  0  0  0  0  0  0  0  0  0  0
    6.1146   -6.0163   26.7371 H   0  0  0  0  0  0  0  0  0  0  0  0
    5.5442   -4.5869   25.8109 H   0  0  0  0  0  0  0  0  0  0  0  0
    5.9847   -6.0992   24.9475 H   0  0  0  0  0  0  0  0  0  0  0  0
    7.0684   -3.5454   24.2558 H   0  0  0  0  0  0  0  0  0  0  0  0
    9.6360   -3.8803   24.2175 H   0  0  0  0  0  0  0  0  0  0  0  0
    8.6146   -2.0894   22.6011 H   0  0  0  0  0  0  0  0  0  0  0  0
   10.0431   -0.0661   25.1114 H   0  0  0  0  0  0  0  0  0  0  0  0
   12.0339    0.5768   25.2752 H   0  0  0  0  0  0  0  0  0  0  0  0
   13.8570    0.0170   24.0991 H   0  0  0  0  0  0  0  0  0  0  0  0
   13.4918   -2.0646   22.3905 H   0  0  0  0  0  0  0  0  0  0  0  0
   11.6507   -1.8965   21.5904 H   0  0  0  0  0  0  0  0  0  0  0  0
   11.7864   -3.0474   22.9629 H   0  0  0  0  0  0  0  0  0  0  0  0
    8.6724   -0.8870   22.9343 H   0  0  0  0  0  0  0  0  0  0  0  0
    9.6473   -1.8056   21.7374 H   0  0  0  0  0  0  0  0  0  0  0  0
    7.5975   -1.5934   21.4205 H   0  0  0  0  0  0  0  0  0  0  0  0
    8.4590   -0.4757   18.5312 H   0  0  0  0  0  0  0  0  0  0  0  0
    5.4036    1.2500   17.2591 H   0  0  0  0  0  0  0  0  0  0  0  0
    4.4868    1.2938   19.0834 H   0  0  0  0  0  0  0  0  0  0  0  0
 20 21  2  0  0  0  0
 19 20  1  0  0  0  0
 21 22  1  0  0  0  0
 18 19  2  0  0  0  0
 22 23  2  0  0  0  0
 18 23  1  0  0  0  0
 17 18  1  0  0  0  0
 23 24  1  0  0  0  0
 15 16  2  0  0  0  0
 15 17  1  0  0  0  0
 14 15  1  0  0  0  0
  8 14  1  0  0  0  0
 12 13  1  0  0  0  0
  8 13  1  0  0  0  0
 11 12  2  0  0  0  0
  7  8  1  0  0  0  0
  8  9  1  0  0  0  0
  6  7  2  3  0  0  0
 10 11  1  0  0  0  0
  5  6  1  0  0  0  0
  9 10  2  0  0  0  0
  2  5  1  0  0  0  0
  2  3  2  0  0  0  0
  1  2  1  0  0  0  0
  2  4  2  0  0  0  0
  1 25  1  0  0  0  0
  1 26  1  0  0  0  0
  1 27  1  0  0  0  0
  5 28  1  0  0  0  0
  6 29  1  0  0  0  0
  7 30  1  0  0  0  0
  9 31  1  0  0  0  0
 10 32  1  0  0  0  0
 11 33  1  0  0  0  0
 12 34  1  0  0  0  0
 13 35  1  0  0  0  0
 13 36  1  0  0  0  0
 14 37  1  0  0  0  0
 14 38  1  0  0  0  0
 17 39  1  0  0  0  0
 19 40  1  0  0  0  0
 21 41  1  0  0  0  0
 22 42  1  0  0  0  0
M  END
> <Chemgauss4>
-13.181977

$$$$
