stable:False satoms:11 tatoms:24 sratio:0.4583333333333333
  -OEChem-08062415123D

 42 43  0     1  0  0  0  0  0999 V2000
   -6.0859   -5.0765  -25.8505 C   0  0  0  0  0  0  0  0  0  0  0  0
   -7.7318   -4.5858  -25.7000 S   0  0  0  0  0  0  0  0  0  0  0  0
   -8.5563   -5.7709  -25.5963 O   0  0  0  0  0  0  0  0  0  0  0  0
   -8.0430   -3.7728  -26.8305 O   0  0  0  0  0  0  0  0  0  0  0  0
   -7.8227   -3.8075  -24.2990 N   0  0  0  0  0  0  0  0  0  0  0  0
   -8.7010   -3.0971  -23.9167 C   0  0  0  0  0  0  0  0  0  0  0  0
   -9.2777   -2.1434  -23.3948 C   0  0  0  0  0  0  0  0  0  0  0  0
  -10.2344   -1.2827  -23.2650 C   0  0  1  0  0  0  0  0  0  0  0  0
  -10.7995   -0.2977  -24.3678 C   0  0  0  0  0  0  0  0  0  0  0  0
  -11.9338   -0.0251  -24.4592 C   0  0  0  0  0  0  0  0  0  0  0  0
  -12.9477   -0.3734  -23.8997 C   0  0  0  0  0  0  0  0  0  0  0  0
  -12.6468   -1.5593  -22.8874 C   0  0  0  0  0  0  0  0  0  0  0  0
  -11.7304   -1.8847  -22.6824 C   0  0  0  0  0  0  0  0  0  0  0  0
   -9.6446   -0.7226  -22.3273 C   0  0  0  0  0  0  0  0  0  0  0  0
   -9.1157   -0.0217  -21.3211 C   0  0  0  0  0  0  0  0  0  0  0  0
   -9.7018    0.9047  -21.0141 O   0  0  0  0  0  0  0  0  0  0  0  0
   -7.9839   -0.5587  -20.9333 N   0  0  0  0  0  0  0  0  0  0  0  0
   -7.3846   -0.0480  -19.9713 C   0  0  0  0  0  0  0  0  0  0  0  0
   -7.5541    0.1138  -18.6735 C   0  0  0  0  0  0  0  0  0  0  0  0
   -7.2078    0.4976  -17.5571 N   0  0  0  0  0  0  0  0  0  0  0  0
   -6.0987    1.0121  -17.9715 C   0  0  0  0  0  0  0  0  0  0  0  0
   -5.5680    1.0836  -19.0020 C   0  0  0  0  0  0  0  0  0  0  0  0
   -5.9693    0.6172  -20.1968 C   0  0  0  0  0  0  0  0  0  0  0  0
   -5.2515    0.6972  -21.6715 Br  0  0  0  0  0  0  0  0  0  0  0  0
   -5.9500   -5.6208  -26.7967 H   0  0  0  0  0  0  0  0  0  0  0  0
   -5.4365   -4.1888  -25.8417 H   0  0  0  0  0  0  0  0  0  0  0  0
   -5.8208   -5.7331  -25.0087 H   0  0  0  0  0  0  0  0  0  0  0  0
   -7.0024   -3.2361  -24.2712 H   0  0  0  0  0  0  0  0  0  0  0  0
   -9.5555   -3.6692  -24.2466 H   0  0  0  0  0  0  0  0  0  0  0  0
   -8.6065   -1.8722  -22.5933 H   0  0  0  0  0  0  0  0  0  0  0  0
  -10.1058    0.1432  -25.0684 H   0  0  0  0  0  0  0  0  0  0  0  0
  -12.1193    0.7130  -25.2255 H   0  0  0  0  0  0  0  0  0  0  0  0
  -13.9222    0.0617  -24.0655 H   0  0  0  0  0  0  0  0  0  0  0  0
  -13.4815   -2.0370  -22.3960 H   0  0  0  0  0  0  0  0  0  0  0  0
  -11.6498   -1.8144  -21.5877 H   0  0  0  0  0  0  0  0  0  0  0  0
  -11.7387   -2.9430  -22.9823 H   0  0  0  0  0  0  0  0  0  0  0  0
   -8.7093   -0.6667  -22.9035 H   0  0  0  0  0  0  0  0  0  0  0  0
   -9.6510   -1.6445  -21.7272 H   0  0  0  0  0  0  0  0  0  0  0  0
   -7.6115   -1.3606  -21.4005 H   0  0  0  0  0  0  0  0  0  0  0  0
   -8.5209   -0.3323  -18.4928 H   0  0  0  0  0  0  0  0  0  0  0  0
   -5.5362    1.4836  -17.1793 H   0  0  0  0  0  0  0  0  0  0  0  0
   -4.6180    1.5974  -18.9998 H   0  0  0  0  0  0  0  0  0  0  0  0
 20 21  2  0  0  0  0
 19 20  1  0  0  0  0
 21 22  1  0  0  0  0
 18 19  2  0  0  0  0
 22 23  2  0  0  0  0
 18 23  1  0  0  0  0
 17 18  1  0  0  0  0
 23 24  1  0  0  0  0
 15 16  2  0  0  0  0
 15 17  1  0  0  0  0
 14 15  1  0  0  0  0
  8 14  1  0  0  0  0
 12 13  1  0  0  0  0
  8 13  1  0  0  0  0
 11 12  2  0  0  0  0
  7  8  1  0  0  0  0
  8  9  1  0  0  0  0
  6  7  2  3  0  0  0
 10 11  1  0  0  0  0
  5  6  1  0  0  0  0
  9 10  2  0  0  0  0
  2  5  1  0  0  0  0
  2  3  2  0  0  0  0
  1  2  1  0  0  0  0
  2  4  2  0  0  0  0
  1 25  1  0  0  0  0
  1 26  1  0  0  0  0
  1 27  1  0  0  0  0
  5 28  1  0  0  0  0
  6 29  1  0  0  0  0
  7 30  1  0  0  0  0
  9 31  1  0  0  0  0
 10 32  1  0  0  0  0
 11 33  1  0  0  0  0
 12 34  1  0  0  0  0
 13 35  1  0  0  0  0
 13 36  1  0  0  0  0
 14 37  1  0  0  0  0
 14 38  1  0  0  0  0
 17 39  1  0  0  0  0
 19 40  1  0  0  0  0
 21 41  1  0  0  0  0
 22 42  1  0  0  0  0
M  END
> <Chemgauss4>
-13.222590

$$$$
