stable:False satoms:10 tatoms:24 sratio:0.4166666666666667
  -OEChem-08062416033D

 47 47  0     1  0  0  0  0  0999 V2000
   -6.4156   -5.1429  -26.2627 C   0  0  0  0  0  0  0  0  0  0  0  0
   -8.0734   -4.4931  -26.0580 S   0  0  0  0  0  0  0  0  0  0  0  0
   -8.9620   -5.6231  -26.0058 O   0  0  0  0  0  0  0  0  0  0  0  0
   -8.3476   -3.6570  -27.1796 O   0  0  0  0  0  0  0  0  0  0  0  0
   -8.0391   -3.6731  -24.6691 N   0  0  0  0  0  0  0  0  0  0  0  0
   -8.9144   -3.0142  -24.1741 C   0  0  0  0  0  0  0  0  0  0  0  0
   -9.3825   -2.0372  -23.5896 C   0  0  0  0  0  0  0  0  0  0  0  0
  -10.2493   -1.1573  -23.4531 C   0  0  2  0  0  0  0  0  0  0  0  0
  -10.9253   -0.0355  -24.6182 C   0  0  0  0  0  0  0  0  0  0  0  0
  -11.8931    0.2802  -24.6733 C   0  0  0  0  0  0  0  0  0  0  0  0
  -13.1241   -0.1613  -23.8969 C   0  0  0  0  0  0  0  0  0  0  0  0
  -12.7067   -1.2006  -23.0123 C   0  0  0  0  0  0  0  0  0  0  0  0
  -11.8641   -1.6943  -22.7434 C   0  0  0  0  0  0  0  0  0  0  0  0
   -9.7659   -0.4898  -22.5445 C   0  0  0  0  0  0  0  0  0  0  0  0
   -9.1224    0.1168  -21.5899 C   0  0  0  0  0  0  0  0  0  0  0  0
   -9.5844    1.0961  -21.2422 O   0  0  0  0  0  0  0  0  0  0  0  0
   -8.0477   -0.5137  -21.1887 N   0  0  0  0  0  0  0  0  0  0  0  0
   -7.3245   -0.0390  -20.2702 C   0  0  0  0  0  0  0  0  0  0  0  0
   -7.4781    0.0759  -18.9541 C   0  0  0  0  0  0  0  0  0  0  0  0
   -7.0930    0.4673  -17.8790 N   0  0  0  0  0  0  0  0  0  0  0  0
   -5.9129    0.9852  -18.2131 C   0  0  0  0  0  0  0  0  0  0  0  0
   -5.4287    1.0328  -19.4297 C   0  0  0  0  0  0  0  0  0  0  0  0
   -5.9137    0.5797  -20.5561 C   0  0  0  0  0  0  0  0  0  0  0  0
   -5.3600    0.5655  -21.9566 C   0  0  0  0  0  0  0  0  0  0  0  0
   -6.3602   -5.7198  -27.1976 H   0  0  0  0  0  0  0  0  0  0  0  0
   -5.6979   -4.3103  -26.3027 H   0  0  0  0  0  0  0  0  0  0  0  0
   -6.1710   -5.7974  -25.4131 H   0  0  0  0  0  0  0  0  0  0  0  0
   -7.2719   -3.0396  -24.7688 H   0  0  0  0  0  0  0  0  0  0  0  0
   -9.7870   -3.6306  -24.3322 H   0  0  0  0  0  0  0  0  0  0  0  0
   -8.6849   -1.8490  -22.7869 H   0  0  0  0  0  0  0  0  0  0  0  0
  -11.1504   -1.6482  -23.0569 H   0  0  0  0  0  0  0  0  0  0  0  0
  -10.2445    0.3634  -25.3556 H   0  0  0  0  0  0  0  0  0  0  0  0
  -12.0739    1.0556  -25.4030 H   0  0  0  0  0  0  0  0  0  0  0  0
  -13.8919   -0.5388  -24.5882 H   0  0  0  0  0  0  0  0  0  0  0  0
  -13.5316    0.6835  -23.3222 H   0  0  0  0  0  0  0  0  0  0  0  0
  -13.5523   -1.5781  -22.4566 H   0  0  0  0  0  0  0  0  0  0  0  0
  -11.9097   -2.4730  -21.9964 H   0  0  0  0  0  0  0  0  0  0  0  0
  -10.9203   -1.4420  -23.2037 H   0  0  0  0  0  0  0  0  0  0  0  0
  -10.6475   -0.6467  -21.9056 H   0  0  0  0  0  0  0  0  0  0  0  0
   -9.8862    0.4446  -23.1123 H   0  0  0  0  0  0  0  0  0  0  0  0
   -7.7967   -1.3825  -21.6156 H   0  0  0  0  0  0  0  0  0  0  0  0
   -8.4070   -0.4328  -18.7424 H   0  0  0  0  0  0  0  0  0  0  0  0
   -5.3076    1.3981  -17.4197 H   0  0  0  0  0  0  0  0  0  0  0  0
   -4.4724    1.5272  -19.5162 H   0  0  0  0  0  0  0  0  0  0  0  0
   -4.7854   -0.3590  -22.1150 H   0  0  0  0  0  0  0  0  0  0  0  0
   -6.1886    0.6103  -22.6788 H   0  0  0  0  0  0  0  0  0  0  0  0
   -4.7018    1.4351  -22.0994 H   0  0  0  0  0  0  0  0  0  0  0  0
 20 21  2  0  0  0  0
 19 20  1  0  0  0  0
 21 22  1  0  0  0  0
 18 19  2  0  0  0  0
 22 23  2  0  0  0  0
 18 23  1  0  0  0  0
 17 18  1  0  0  0  0
 23 24  1  0  0  0  0
 15 16  2  0  0  0  0
 15 17  1  0  0  0  0
 14 15  1  0  0  0  0
  8 14  1  0  0  0  0
 12 13  2  0  0  0  0
 11 12  1  0  0  0  0
  7  8  1  0  0  0  0
  8  9  1  0  0  0  0
 10 11  1  0  0  0  0
  6  7  2  3  0  0  0
  5  6  1  0  0  0  0
  9 10  2  0  0  0  0
  2  5  1  0  0  0  0
  2  3  2  0  0  0  0
  1  2  1  0  0  0  0
  2  4  2  0  0  0  0
  1 25  1  0  0  0  0
  1 26  1  0  0  0  0
  1 27  1  0  0  0  0
  5 28  1  0  0  0  0
  6 29  1  0  0  0  0
  7 30  1  0  0  0  0
  8 31  1  0  0  0  0
  9 32  1  0  0  0  0
 10 33  1  0  0  0  0
 11 34  1  0  0  0  0
 11 35  1  0  0  0  0
 12 36  1  0  0  0  0
 13 37  1  0  0  0  0
 13 38  1  0  0  0  0
 14 39  1  0  0  0  0
 14 40  1  0  0  0  0
 17 41  1  0  0  0  0
 19 42  1  0  0  0  0
 21 43  1  0  0  0  0
 22 44  1  0  0  0  0
 24 45  1  0  0  0  0
 24 46  1  0  0  0  0
 24 47  1  0  0  0  0
M  END
> <Chemgauss4>
-13.136746

$$$$
