stable:False satoms:19 tatoms:24 sratio:0.7916666666666666
  -OEChem-07092417313D

 24 23  0     1  0  0  0  0  0999 V2000
    6.1682   -1.7451   23.7931 Br  0  0  0  0  0  0  0  0  0  0  0  0
    9.2869   -2.4658   25.6116 H   0  0  0  0  0  0  0  0  0  0  0  0
   10.6393   -3.8544   22.4905 N   0  0  0  0  0  0  0  0  0  0  0  0
    9.7575   -3.9284   24.7767 H   0  0  0  0  0  0  0  0  0  0  0  0
    5.9572    0.6276   22.1173 H   0  0  0  0  0  0  0  0  0  0  0  0
    9.9331   -2.8626   24.8406 C   0  0  0  0  0  0  0  0  0  0  0  0
    9.6849   -2.1307   23.5682 C   0  0  3  0  0  0  0  0  0  0  0  0
    8.3666   -0.2807   23.0206 N   0  0  0  0  0  0  0  0  0  0  0  0
    9.3721   -0.7495   23.7863 C   0  0  0  0  0  0  0  0  0  0  0  0
   12.1903   -3.0052   22.2341 H   0  0  0  0  0  0  0  0  0  0  0  0
    8.2720    1.5395   21.7908 H   0  0  0  0  0  0  0  0  0  0  0  0
   11.9042   -3.7260   22.8426 O   0  0  0  0  0  0  0  0  0  0  0  0
    9.9531   -0.0850   24.6218 O   0  0  0  0  0  0  0  0  0  0  0  0
    7.7417    1.0640   20.9427 C   0  0  0  0  0  0  0  0  0  0  0  0
   10.9680   -2.6574   25.0865 H   0  0  0  0  0  0  0  0  0  0  0  0
    7.6984   -1.7520   21.7603 H   0  0  0  0  0  0  0  0  0  0  0  0
    9.9969   -2.6505   22.3060 C   0  0  0  0  0  0  0  0  0  0  0  0
    7.1416    1.9773   20.0767 O   0  0  0  0  0  0  0  0  0  0  0  0
    9.7077   -2.0050   20.7318 S   0  0  0  0  0  0  0  0  0  0  0  0
    8.4809    0.5350   20.3281 H   0  0  0  0  0  0  0  0  0  0  0  0
    6.1248   -0.3255   20.6157 H   0  0  0  0  0  0  0  0  0  0  0  0
    6.6565    0.1225   21.4693 C   0  0  0  0  0  0  0  0  0  0  0  0
    6.2029    1.9612   20.1258 H   0  0  0  0  0  0  0  0  0  0  0  0
    7.3795   -0.8935   22.3596 C   0  0  2  0  0  0  0  0  0  0  0  0
 18 23  1  0  0  0  0
 14 18  1  0  0  0  0
 14 20  1  0  0  0  0
 21 22  1  0  0  0  0
 17 19  2  0  0  0  0
 14 22  1  0  0  0  0
 11 14  1  0  0  0  0
  5 22  1  0  0  0  0
 22 24  1  0  0  0  0
 16 24  1  0  0  0  0
 10 12  1  0  0  0  0
  3 17  1  0  0  0  0
  7 17  1  0  0  0  0
  8 24  1  0  0  0  0
  1 24  1  0  0  0  0
  3 12  1  0  0  0  0
  8  9  1  0  0  0  0
  7  9  1  0  0  0  0
  6  7  1  0  0  0  0
  9 13  2  0  0  0  0
  4  6  1  0  0  0  0
  6 15  1  0  0  0  0
  2  6  1  0  0  0  0
M  END
> <Shapegauss>
-92.618004

$$$$
