stable:False satoms:19 tatoms:24 sratio:0.7916666666666666
  -OEChem-08052422473D

 27 26  0     1  0  0  0  0  0999 V2000
    7.6602    2.2999   24.7048 Br  0  0  0  0  0  0  0  0  0  0  0  0
   11.1325    3.1367   23.8130 H   0  0  0  0  0  0  0  0  0  0  0  0
   12.1039   -0.2147   24.9632 N   0  0  0  0  0  0  0  0  0  0  0  0
   11.9598    2.2306   25.0590 H   0  0  0  0  0  0  0  0  0  0  0  0
    6.0191    0.7115   22.8975 H   0  0  0  0  0  0  0  0  0  0  0  0
   11.6654    2.2182   24.0178 C   0  0  0  0  0  0  0  0  0  0  0  0
   10.8075    1.0601   23.6450 C   0  0  3  0  0  0  0  0  0  0  0  0
    8.7258    0.8859   22.5979 N   0  0  0  0  0  0  0  0  0  0  0  0
    9.9938    1.3320   22.4973 C   0  0  0  0  0  0  0  0  0  0  0  0
   13.0094   -0.9328   23.6006 H   0  0  0  0  0  0  0  0  0  0  0  0
    7.5393   -0.2991   21.1758 H   0  0  0  0  0  0  0  0  0  0  0  0
   13.2309   -0.2524   24.2786 O   0  0  0  0  0  0  0  0  0  0  0  0
   10.4213    1.9461   21.5396 O   0  0  0  0  0  0  0  0  0  0  0  0
    7.0703   -0.9441   21.9443 C   0  0  0  0  0  0  0  0  0  0  0  0
   12.5332    2.1451   23.3736 H   0  0  0  0  0  0  0  0  0  0  0  0
    8.4643   -0.0921   24.3797 H   0  0  0  0  0  0  0  0  0  0  0  0
   10.9793   -0.2271   24.1687 C   0  0  0  0  0  0  0  0  0  0  0  0
    5.9339   -1.6142   21.4931 O   0  0  0  0  0  0  0  0  0  0  0  0
   10.0462   -1.6599   23.9343 S   0  0  0  0  0  0  0  0  0  0  0  0
    7.7810   -1.7376   22.2074 H   0  0  0  0  0  0  0  0  0  0  0  0
    6.1929   -0.7531   23.9053 H   0  0  0  0  0  0  0  0  0  0  0  0
    6.6764   -0.1027   23.1602 C   0  0  0  0  0  0  0  0  0  0  0  0
    5.1426   -1.2913   21.8849 H   0  0  0  0  0  0  0  0  0  0  0  0
    7.9698    0.5567   23.6500 C   0  0  2  0  0  0  0  0  0  0  0  0
   12.0696   -0.1805   25.9621 H   0  0  0  0  0  0  0  0  0  0  0  0
   10.0155    1.3264   24.3604 H   0  0  0  0  0  0  0  0  0  0  0  0
    8.2624    0.7813   21.7179 H   0  0  0  0  0  0  0  0  0  0  0  0
 18 23  1  0  0  0  0
 14 18  1  0  0  0  0
 14 20  1  0  0  0  0
 21 22  1  0  0  0  0
 17 19  2  0  0  0  0
 14 22  1  0  0  0  0
 11 14  1  0  0  0  0
  5 22  1  0  0  0  0
 22 24  1  0  0  0  0
 16 24  1  0  0  0  0
 10 12  1  0  0  0  0
  3 17  1  0  0  0  0
  7 17  1  0  0  0  0
  8 24  1  0  0  0  0
  1 24  1  0  0  0  0
  3 12  1  0  0  0  0
  8  9  1  0  0  0  0
  7  9  1  0  0  0  0
  6  7  1  0  0  0  0
  9 13  2  0  0  0  0
  4  6  1  0  0  0  0
  6 15  1  0  0  0  0
  2  6  1  0  0  0  0
  3 25  1  0  0  0  0
  7 26  1  0  0  0  0
  8 27  1  0  0  0  0
M  END
> <Chemgauss4>
-5.269366

$$$$
