stable:False satoms:19 tatoms:24 sratio:0.7916666666666666
  -OEChem-08052422473D

 27 26  0     1  0  0  0  0  0999 V2000
   -7.8119    2.0761  -24.6015 Br  0  0  0  0  0  0  0  0  0  0  0  0
  -11.3062    2.8144  -23.7085 H   0  0  0  0  0  0  0  0  0  0  0  0
  -12.1079   -0.6917  -24.4587 N   0  0  0  0  0  0  0  0  0  0  0  0
  -12.1072    1.7324  -24.8244 H   0  0  0  0  0  0  0  0  0  0  0  0
   -6.0426    0.7895  -22.6788 H   0  0  0  0  0  0  0  0  0  0  0  0
  -11.7897    1.8511  -23.7968 C   0  0  0  0  0  0  0  0  0  0  0  0
  -10.8585    0.7900  -23.3243 C   0  0  3  0  0  0  0  0  0  0  0  0
   -8.7476    0.8470  -22.3238 N   0  0  0  0  0  0  0  0  0  0  0  0
  -10.0367    1.2312  -22.2366 C   0  0  0  0  0  0  0  0  0  0  0  0
  -12.9403   -1.3035  -23.0008 H   0  0  0  0  0  0  0  0  0  0  0  0
   -7.4636   -0.1068  -20.8150 H   0  0  0  0  0  0  0  0  0  0  0  0
  -13.2156   -0.7153  -23.7424 O   0  0  0  0  0  0  0  0  0  0  0  0
  -10.4776    1.9230  -21.3398 O   0  0  0  0  0  0  0  0  0  0  0  0
   -6.9754   -0.8059  -21.5216 C   0  0  0  0  0  0  0  0  0  0  0  0
  -12.6374    1.8020  -23.1241 H   0  0  0  0  0  0  0  0  0  0  0  0
   -8.4695   -0.3058  -23.9950 H   0  0  0  0  0  0  0  0  0  0  0  0
  -10.9673   -0.5546  -23.6996 C   0  0  0  0  0  0  0  0  0  0  0  0
   -5.7925   -1.3588  -21.0324 O   0  0  0  0  0  0  0  0  0  0  0  0
   -9.9482   -1.8993  -23.3368 S   0  0  0  0  0  0  0  0  0  0  0  0
   -7.6447   -1.6615  -21.6764 H   0  0  0  0  0  0  0  0  0  0  0  0
   -6.1538   -0.7848  -23.5158 H   0  0  0  0  0  0  0  0  0  0  0  0
   -6.6575   -0.0837  -22.8326 C   0  0  0  0  0  0  0  0  0  0  0  0
   -5.0300   -1.0382  -21.4791 H   0  0  0  0  0  0  0  0  0  0  0  0
   -7.9972    0.4456  -23.3546 C   0  0  2  0  0  0  0  0  0  0  0  0
  -12.0977   -0.7661  -25.4558 H   0  0  0  0  0  0  0  0  0  0  0  0
  -10.0991    1.0188  -24.0866 H   0  0  0  0  0  0  0  0  0  0  0  0
   -8.2597    0.8658  -21.4511 H   0  0  0  0  0  0  0  0  0  0  0  0
 18 23  1  0  0  0  0
 14 18  1  0  0  0  0
 14 20  1  0  0  0  0
 21 22  1  0  0  0  0
 17 19  2  0  0  0  0
 14 22  1  0  0  0  0
 11 14  1  0  0  0  0
  5 22  1  0  0  0  0
 22 24  1  0  0  0  0
 16 24  1  0  0  0  0
 10 12  1  0  0  0  0
  3 17  1  0  0  0  0
  7 17  1  0  0  0  0
  8 24  1  0  0  0  0
  1 24  1  0  0  0  0
  3 12  1  0  0  0  0
  8  9  1  0  0  0  0
  7  9  1  0  0  0  0
  6  7  1  0  0  0  0
  9 13  2  0  0  0  0
  4  6  1  0  0  0  0
  6 15  1  0  0  0  0
  2  6  1  0  0  0  0
  3 25  1  0  0  0  0
  7 26  1  0  0  0  0
  8 27  1  0  0  0  0
M  END
> <Chemgauss4>
-5.224800

$$$$
