REMARK  5 active torsions:
REMARK  status: ('A' for Active; 'I' for Inactive)
REMARK    1  A    between atoms: N_2  and  N_4 
REMARK    2  A    between atoms: C_7  and  C_10 
REMARK    3  A    between atoms: O_8  and  C_10 
REMARK    4  A    between atoms: O_8  and  O_9 
REMARK       I    between atoms: C_13  and  N_14 
REMARK    5  A    between atoms: C_13  and  C_17 
ROOT
HETATM    1  O   UNL     2       8.864   0.842  20.352  1.00  0.00    -0.269 OA
HETATM    2  C   UNL     2       7.709   0.674  19.973  1.00  0.00     0.238 C 
HETATM    3  N   UNL     2       7.153   0.964  18.843  1.00  0.00    -0.367 N 
ATOM      4  HN  UNL     2       7.692   0.470  18.132  1.00  0.00     0.159 HD
HETATM    5  H   UNL     2       6.465   1.432  18.371  1.00  0.00     0.159 HD
ENDROOT
BRANCH   2   6
HETATM    6  C   UNL     2       6.737   0.088  20.991  1.00  0.00     0.064 C 
HETATM    7  C   UNL     2       5.697   0.552  20.703  1.00  0.00     0.017 C 
ENDBRANCH   2   6
TORSDOF 5
