stable:False satoms:21 tatoms:24 sratio:0.875
  -OEChem-07092417373D

 24 22  0     0  0  0  0  0  0999 V2000
    7.9138   -5.1226   25.4774 H   0  0  0  0  0  0  0  0  0  0  0  0
    8.5066   -4.2537   25.7823 C   0  0  0  0  0  0  0  0  0  0  0  0
    9.4886   -4.6113   26.0936 H   0  0  0  0  0  0  0  0  0  0  0  0
    8.0206   -3.8036   26.6498 H   0  0  0  0  0  0  0  0  0  0  0  0
    8.5970   -3.2797   24.7945 N   0  0  0  0  0  0  0  0  0  0  0  0
    9.2570   -3.1121   23.7761 N   0  0  0  0  0  0  0  0  0  0  0  0
    7.1055   -0.6625   21.7484 H   0  0  0  0  0  0  0  0  0  0  0  0
   11.2163    0.0567   23.2059 C   0  0  0  0  0  0  0  0  0  0  0  0
    9.8784   -2.3226   23.0028 C   0  3  0  0  0  0  0  0  0  0  0  0
   11.7232    0.9916   23.4225 H   0  0  0  0  0  0  0  0  0  0  0  0
   11.2796   -0.5443   24.1181 H   0  0  0  0  0  0  0  0  0  0  0  0
   11.7559   -0.4589   22.4165 H   0  0  0  0  0  0  0  0  0  0  0  0
   10.9267   -2.4543   22.7855 H   0  0  0  0  0  0  0  0  0  0  0  0
    8.8404   -0.3770   22.7795 O   0  0  0  0  0  0  0  0  0  0  0  0
    9.9190    0.4196   22.8098 O   0  0  0  0  0  0  0  0  0  0  0  0
    8.8636    0.8420   20.3516 O   0  0  0  0  0  0  0  0  0  0  0  0
    9.0133   -1.4930   22.1167 C   0  0  0  0  0  0  0  0  0  0  0  0
    8.4985   -1.8020   21.0498 O   0  0  0  0  0  0  0  0  0  0  0  0
    7.7086    0.6744   19.9733 C   0  0  0  0  0  0  0  0  0  0  0  0
    7.1526    0.9638   18.8435 N   0  5  0  0  0  0  0  0  0  0  0  0
    6.4648    1.4320   18.3707 H   0  0  0  0  0  0  0  0  0  0  0  0
    5.0199    0.9876   20.0343 H   0  0  0  0  0  0  0  0  0  0  0  0
    6.7369    0.0876   20.9913 C   0  0  0  0  0  0  0  0  0  0  0  0
    5.6974    0.5522   20.7029 C   0  5  0  0  0  0  0  0  0  0  0  0
 20 21  1  0  0  0  0
 19 20  1  0  0  0  0
 16 19  2  0  0  0  0
 19 23  1  0  0  0  0
 22 24  1  0  0  0  0
 23 24  2  0  0  0  0
  7 23  1  0  0  0  0
 17 18  2  0  0  0  0
 14 17  1  0  0  0  0
  9 17  1  0  0  0  0
  8 12  1  0  0  0  0
 14 15  1  0  0  0  0
  9 13  1  0  0  0  0
  8 15  1  0  0  0  0
  6  9  1  0  0  0  0
  8 10  1  0  0  0  0
  8 11  1  0  0  0  0
  5  6  2  3  0  0  0
  2  5  1  0  0  0  0
  1  2  1  0  0  0  0
  2  3  1  0  0  0  0
  2  4  1  0  0  0  0
M  CHG  3   9   1  20  -1  24  -1
M  END
> <Shapegauss>
-135.844238

$$$$
