stable:False satoms:7 tatoms:24 sratio:0.2916666666666667
  -OEChem-07092417473D

 24 24  0     0  0  0  0  0  0999 V2000
    6.5620   -4.8343   26.4309 C   0  0  0  0  0  0  0  0  0  0  0  0
    8.2427   -4.2639   26.1002 S   0  0  0  0  0  0  0  0  0  0  0  0
    9.0464   -5.4595   26.0706 O   0  0  0  0  0  0  0  0  0  0  0  0
    8.6478   -3.3853   27.1401 O   0  0  0  0  0  0  0  0  0  0  0  0
    8.1143   -3.5747   24.6830 N   0  0  0  0  0  0  0  0  0  0  0  0
    8.9376   -2.9183   24.1616 C   0  0  0  0  0  0  0  0  0  0  0  0
    9.3933   -1.9961   23.5795 C   0  0  0  0  0  0  0  0  0  0  0  0
   10.0595   -0.9887   23.4207 C   0  0  0  0  0  0  0  0  0  0  0  0
   11.0541   -0.0771   24.3175 C   0  0  0  0  0  0  0  0  0  0  0  0
   12.0243    0.2174   24.2487 C   0  0  0  0  0  0  0  0  0  0  0  0
   13.0949   -0.2812   23.3605 C   0  0  0  0  0  0  0  0  0  0  0  0
   12.7201   -1.1912   22.6760 C   0  0  0  0  0  0  0  0  0  0  0  0
   12.0736   -1.8259   22.3168 C   0  0  0  0  0  0  0  0  0  0  0  0
    9.6928   -0.5695   22.3680 C   0  0  0  0  0  0  0  0  0  0  0  0
    9.0635    0.0261   21.3791 C   0  0  0  0  0  0  0  0  0  0  0  0
    9.5527    0.9504   20.9638 O   0  0  0  0  0  0  0  0  0  0  0  0
    7.9023   -0.5635   21.1177 N   0  0  0  0  0  0  0  0  0  0  0  0
    7.1664   -0.0826   20.2307 C   0  0  0  0  0  0  0  0  0  0  0  0
    7.2075    0.0344   18.9079 C   0  0  0  0  0  0  0  0  0  0  0  0
    6.8006    0.3337   17.8196 N   0  0  0  0  0  0  0  0  0  0  0  0
    5.6560    0.8987   18.2959 C   0  0  0  0  0  0  0  0  0  0  0  0
    5.2765    0.9954   19.4334 C   0  0  0  0  0  0  0  0  0  0  0  0
    5.8292    0.5808   20.6141 C   0  0  0  0  0  0  0  0  0  0  0  0
    5.4656    0.6846   21.6605 C   0  0  0  0  0  0  0  0  0  0  0  0
 20 21  2  0  0  0  0
 19 20  1  0  0  0  0
 21 22  1  0  0  0  0
 18 19  2  0  0  0  0
 22 23  2  0  0  0  0
 18 23  1  0  0  0  0
 17 18  1  0  0  0  0
 23 24  1  0  0  0  0
 15 16  2  0  0  0  0
 15 17  1  0  0  0  0
 14 15  1  0  0  0  0
 12 13  3  0  0  0  0
  8 14  2  3  0  0  0
 11 12  1  0  0  0  0
 10 11  1  0  0  0  0
  7  8  1  0  0  0  0
  8  9  1  0  0  0  0
  6  7  3  0  0  0  0
  5  6  1  0  0  0  0
  9 10  2  0  0  0  0
  2  5  1  0  0  0  0
  2  3  2  0  0  0  0
  1  2  1  0  0  0  0
  2  4  2  0  0  0  0
M  END
> <Shapegauss>
-285.577026

$$$$
