stable:False satoms:16 tatoms:24 sratio:0.6666666666666666
  -OEChem-07092417343D

 24 24  0     1  0  0  0  0  0999 V2000
    7.1405   -3.8713   26.6831 H   0  0  0  0  0  0  0  0  0  0  0  0
    8.1399   -3.9658   26.7822 N   0  0  0  0  0  0  0  0  0  0  0  0
    8.6563   -4.8033   27.2125 O   0  0  0  0  0  0  0  0  0  0  0  0
    8.9599   -3.0356   26.2439 O   0  0  0  0  0  0  0  0  0  0  0  0
    7.5472   -2.2638   24.9824 H   0  0  0  0  0  0  0  0  0  0  0  0
    9.5209   -2.3006   24.3432 C   0  0  0  0  0  0  0  0  0  0  0  0
    8.5701   -2.4906   25.1455 C   0  0  0  0  0  0  0  0  0  0  0  0
   10.2572   -0.4039   21.3857 C   0  3  0  0  0  0  0  0  0  0  0  0
   11.2643   -0.5101   23.4701 C   0  0  0  0  0  0  0  0  0  0  0  0
   11.6663    0.0056   24.2551 H   0  0  0  0  0  0  0  0  0  0  0  0
   11.4255   -0.4413   22.1861 C   0  0  0  0  0  0  0  0  0  0  0  0
   12.3994   -0.4681   21.7402 H   0  0  0  0  0  0  0  0  0  0  0  0
   10.7425   -2.7546   23.8220 O   0  0  0  0  0  0  0  0  0  0  0  0
   10.4214   -1.6301   23.6075 C   0  0  1  0  0  0  0  0  0  0  0  0
    7.9773   -0.4534   21.9393 N   0  0  0  0  0  0  0  0  0  0  0  0
   10.3036    0.0793   20.4311 H   0  0  0  0  0  0  0  0  0  0  0  0
    9.0539   -0.9000   21.6012 N   0  0  0  0  0  0  0  0  0  0  0  0
    8.0195   -0.7386   19.6347 H   0  0  0  0  0  0  0  0  0  0  0  0
    7.2070   -0.1483   19.9355 C   0  3  0  0  0  0  0  0  0  0  0  0
    6.7835    0.4323   17.9383 H   0  0  0  0  0  0  0  0  0  0  0  0
    5.4350    1.1667   18.9971 C   0  5  0  0  0  0  0  0  0  0  0  0
    4.6877    1.7425   18.7922 H   0  0  0  0  0  0  0  0  0  0  0  0
    6.4343    0.5193   18.9480 C   0  0  0  0  0  0  0  0  0  0  0  0
    6.9708   -0.0565   21.2199 N   0  0  0  0  0  0  0  0  0  0  0  0
 20 23  1  0  0  0  0
 21 22  1  0  0  0  0
 21 23  2  0  0  0  0
 19 23  1  0  0  0  0
 18 19  1  0  0  0  0
 19 24  1  0  0  0  0
  8 16  1  0  0  0  0
 15 24  1  0  0  0  0
  8 17  1  0  0  0  0
  8 11  1  0  0  0  0
 15 17  2  3  0  0  0
 11 12  1  0  0  0  0
  9 11  2  3  0  0  0
  9 14  1  0  0  0  0
  9 10  1  0  0  0  0
 13 14  1  0  0  0  0
  6 14  1  0  0  0  0
  6 13  1  0  0  0  0
  6  7  2  3  0  0  0
  5  7  1  0  0  0  0
  4  7  1  0  0  0  0
  2  4  1  0  0  0  0
  1  2  1  0  0  0  0
  2  3  1  0  0  0  0
M  CHG  3   8   1  19   1  21  -1
M  END
> <Shapegauss>
-174.574585

$$$$
