stable:False satoms:16 tatoms:24 sratio:0.6666666666666666
  -OEChem-08062403143D

 25 25  0     1  0  0  0  0  0999 V2000
   -6.4371   -1.0010  -18.6194 H   0  0  0  0  0  0  0  0  0  0  0  0
   -7.0501   -0.2053  -18.5264 N   0  0  0  0  0  0  0  0  0  0  0  0
   -6.8256    0.7089  -18.0095 O   0  5  0  0  0  0  0  0  0  0  0  0
   -8.2314   -0.1862  -19.1833 O   0  0  0  0  0  0  0  0  0  0  0  0
   -7.7234   -1.6637  -20.5031 H   0  0  0  0  0  0  0  0  0  0  0  0
   -8.9623   -0.1369  -21.1659 C   0  0  0  0  0  0  0  0  0  0  0  0
   -8.2614   -0.7662  -20.3314 C   0  0  0  0  0  0  0  0  0  0  0  0
  -10.5598   -0.6657  -24.3369 C   0  0  0  0  0  2  0  0  0  0  0  0
  -11.3632    0.0111  -22.2712 C   0  0  0  0  0  0  0  0  0  0  0  0
  -12.0884   -0.0895  -21.5587 H   0  0  0  0  0  0  0  0  0  0  0  0
  -11.3968    0.1699  -23.5569 C   0  0  0  0  0  0  0  0  0  0  0  0
  -11.9891    0.9377  -24.0126 H   0  0  0  0  0  0  0  0  0  0  0  0
   -9.4008    1.1053  -21.6504 O   0  0  0  0  0  0  0  0  0  0  0  0
   -9.9882    0.1289  -21.9898 C   0  0  1  0  0  0  0  0  0  0  0  0
   -9.0432   -2.3553  -23.7438 N   0  0  0  0  0  0  0  0  0  0  0  0
   -9.4073   -1.2375  -24.0450 N   0  0  0  0  0  0  0  0  0  0  0  0
   -8.5529   -2.9956  -25.7566 C   0  0  0  0  0  2  0  0  0  0  0  0
   -8.4987   -3.5644  -27.8008 H   0  0  0  0  0  0  0  0  0  0  0  0
   -8.2329   -5.1242  -26.8132 C   0  0  0  0  0  0  0  0  0  0  0  0
   -8.1182   -5.6610  -25.8831 H   0  0  0  0  0  0  0  0  0  0  0  0
   -8.4260   -3.9483  -26.8026 C   0  0  0  0  0  0  0  0  0  0  0  0
   -8.5866   -3.3175  -24.4881 N   0  0  0  0  0  0  0  0  0  0  0  0
   -9.5499   -0.0997  -22.9725 H   0  0  0  0  0  0  0  0  0  0  0  0
   -8.1726   -5.6531  -27.7529 H   0  0  0  0  0  0  0  0  0  0  0  0
   -8.2936   -4.2047  -24.1318 H   0  0  0  0  0  0  0  0  0  0  0  0
 18 21  1  0  0  0  0
 19 20  1  0  0  0  0
 19 21  2  0  0  0  0
 17 21  1  0  0  0  0
 17 22  1  0  0  0  0
 15 22  1  0  0  0  0
  8 16  1  0  0  0  0
  8 11  1  0  0  0  0
 15 16  2  3  0  0  0
 11 12  1  0  0  0  0
  9 11  2  3  0  0  0
  9 14  1  0  0  0  0
  9 10  1  0  0  0  0
 13 14  1  0  0  0  0
  6 14  1  0  0  0  0
  6 13  1  0  0  0  0
  6  7  2  3  0  0  0
  5  7  1  0  0  0  0
  4  7  1  0  0  0  0
  2  4  1  0  0  0  0
  1  2  1  0  0  0  0
  2  3  1  0  0  0  0
 14 23  1  0  0  0  0
 19 24  1  0  0  0  0
 22 25  1  0  0  0  0
M  CHG  1   3  -1
M  END
> <Chemgauss4>
-7.288363

$$$$
