stable:False satoms:16 tatoms:24 sratio:0.6666666666666666
  -OEChem-08062403143D

 25 25  0     1  0  0  0  0  0999 V2000
    6.3540   -1.1641   18.6357 H   0  0  0  0  0  0  0  0  0  0  0  0
    6.9670   -0.3684   18.5427 N   0  0  0  0  0  0  0  0  0  0  0  0
    6.7425    0.5458   18.0259 O   0  5  0  0  0  0  0  0  0  0  0  0
    8.1483   -0.3492   19.1996 O   0  0  0  0  0  0  0  0  0  0  0  0
    7.6403   -1.8267   20.5194 H   0  0  0  0  0  0  0  0  0  0  0  0
    8.8792   -0.3000   21.1823 C   0  0  0  0  0  0  0  0  0  0  0  0
    8.1784   -0.9293   20.3477 C   0  0  0  0  0  0  0  0  0  0  0  0
   10.4768   -0.8287   24.3532 C   0  0  0  0  0  2  0  0  0  0  0  0
   11.2801   -0.1520   22.2876 C   0  0  0  0  0  0  0  0  0  0  0  0
   12.0054   -0.2526   21.5751 H   0  0  0  0  0  0  0  0  0  0  0  0
   11.3137    0.0068   23.5733 C   0  0  0  0  0  0  0  0  0  0  0  0
   11.9060    0.7747   24.0289 H   0  0  0  0  0  0  0  0  0  0  0  0
    9.3177    0.9423   21.6668 O   0  0  0  0  0  0  0  0  0  0  0  0
    9.9051   -0.0342   22.0061 C   0  0  1  0  0  0  0  0  0  0  0  0
    8.9601   -2.5184   23.7602 N   0  0  0  0  0  0  0  0  0  0  0  0
    9.3242   -1.4006   24.0613 N   0  0  0  0  0  0  0  0  0  0  0  0
    8.4698   -3.1587   25.7730 C   0  0  0  0  0  2  0  0  0  0  0  0
    8.4156   -3.7275   27.8172 H   0  0  0  0  0  0  0  0  0  0  0  0
    8.1498   -5.2873   26.8296 C   0  0  0  0  0  0  0  0  0  0  0  0
    8.0351   -5.8241   25.8995 H   0  0  0  0  0  0  0  0  0  0  0  0
    8.3429   -4.1114   26.8190 C   0  0  0  0  0  0  0  0  0  0  0  0
    8.5035   -3.4805   24.5044 N   0  0  0  0  0  0  0  0  0  0  0  0
    9.4668   -0.2627   22.9888 H   0  0  0  0  0  0  0  0  0  0  0  0
    8.0895   -5.8162   27.7693 H   0  0  0  0  0  0  0  0  0  0  0  0
    8.2106   -4.3678   24.1481 H   0  0  0  0  0  0  0  0  0  0  0  0
 18 21  1  0  0  0  0
 19 20  1  0  0  0  0
 19 21  2  0  0  0  0
 17 21  1  0  0  0  0
 17 22  1  0  0  0  0
 15 22  1  0  0  0  0
  8 16  1  0  0  0  0
  8 11  1  0  0  0  0
 15 16  2  3  0  0  0
 11 12  1  0  0  0  0
  9 11  2  3  0  0  0
  9 14  1  0  0  0  0
  9 10  1  0  0  0  0
 13 14  1  0  0  0  0
  6 14  1  0  0  0  0
  6 13  1  0  0  0  0
  6  7  2  3  0  0  0
  5  7  1  0  0  0  0
  4  7  1  0  0  0  0
  2  4  1  0  0  0  0
  1  2  1  0  0  0  0
  2  3  1  0  0  0  0
 14 23  1  0  0  0  0
 19 24  1  0  0  0  0
 22 25  1  0  0  0  0
M  CHG  1   3  -1
M  END
> <Chemgauss4>
-7.070548

$$$$
