MODEL 1
REMARK VINA RESULT:    -5.114      0.000      0.000
REMARK INTER + INTRA:          -8.607
REMARK INTER:                  -7.805
REMARK INTRA:                  -0.802
REMARK UNBOUND:                -0.802
REMARK  10 active torsions:
REMARK  status: ('A' for Active; 'I' for Inactive)
REMARK    1  A    between atoms: N_2  and  N_6 
REMARK    2  A    between atoms: N_2  and  N_5 
REMARK    3  A    between atoms: O_3  and  N_5 
REMARK    4  A    between atoms: N_6  and  C_8 
REMARK    5  A    between atoms: C_9  and  C_12 
REMARK    6  A    between atoms: C_10  and  C_12 
REMARK    7  A    between atoms: C_12  and  C_13 
REMARK       I    between atoms: C_13  and  N_15 
REMARK    8  A    between atoms: N_15  and  C_17 
REMARK    9  A    between atoms: C_17  and  C_21 
REMARK   10  A    between atoms: O_19  and  C_20 
ROOT
HETATM    1  C   UNL     1       7.481  -4.461  23.974  1.00  0.00     0.065 C 
ENDROOT
BRANCH   1   2
HETATM    2  C   UNL     1       7.604  -4.982  25.101  1.00  0.00    -0.040 C 
HETATM    3  C   UNL     1       7.602  -5.315  26.229  1.00  0.00     0.045 C 
BRANCH   3   4
HETATM    4  N   UNL     1       7.646  -5.778  27.308  1.00  0.00    -0.170 N 
ATOM      5  HN  UNL     1       8.586  -5.509  27.598  1.00  0.00     0.214 HD
BRANCH   4   6
HETATM    6  N   UNL     1       7.313  -6.299  28.159  1.00  0.00    -0.207 NA
BRANCH   6   7
HETATM    7  N   UNL     1       6.908  -6.911  29.160  1.00  0.00    -0.121 N 
HETATM    8  H   UNL     1       6.846  -6.246  30.072  1.00  0.00     0.233 HD
BRANCH   7   9
HETATM    9  O   UNL     1       6.063  -7.665  28.890  1.00  0.00    -0.263 OA
ATOM     10  HO  UNL     1       5.182  -7.378  28.677  1.00  0.00     0.247 HD
ENDBRANCH   7   9
ENDBRANCH   6   7
ENDBRANCH   4   6
ENDBRANCH   3   4
ENDBRANCH   1   2
BRANCH   1  11
HETATM   11  C   UNL     1       6.573  -5.307  23.180  1.00  0.00     0.049 C 
HETATM   12  C   UNL     1       7.227  -6.065  22.150  1.00  0.00     0.011 C 
ENDBRANCH   1  11
BRANCH   1  13
HETATM   13  C   UNL     1       8.076  -3.163  23.531  1.00  0.00     0.267 C 
HETATM   14  N   UNL     1       8.859  -2.551  24.490  1.00  0.00    -0.288 N 
ATOM     15  HN  UNL     1       8.685  -2.843  25.452  1.00  0.00     0.179 HD
HETATM   16  O   UNL     1       7.896  -2.714  22.449  1.00  0.00    -0.266 OA
BRANCH  14  17
HETATM   17  C   UNL     1       9.688  -1.749  24.353  1.00  0.00    -0.037 C 
BRANCH  17  18
HETATM   18  C   UNL     1      10.783  -1.093  24.117  1.00  0.00     0.098 C 
HETATM   19  C   UNL     1      11.338  -1.172  22.849  1.00  0.00     0.141 C 
BRANCH  19  20
HETATM   20  O   UNL     1      10.834  -1.983  21.913  1.00  0.00    -0.372 OA
HETATM   21  H   UNL     1      11.502  -2.501  21.463  1.00  0.00     0.216 HD
ENDBRANCH  19  20
ENDBRANCH  17  18
ENDBRANCH  14  17
ENDBRANCH   1  13
TORSDOF 10
ENDMDL
MODEL 2
REMARK VINA RESULT:    -5.073     19.961     21.921
REMARK INTER + INTRA:          -8.544
REMARK INTER:                  -7.680
REMARK INTRA:                  -0.864
REMARK UNBOUND:                -0.802
REMARK  10 active torsions:
REMARK  status: ('A' for Active; 'I' for Inactive)
REMARK    1  A    between atoms: N_2  and  N_6 
REMARK    2  A    between atoms: N_2  and  N_5 
REMARK    3  A    between atoms: O_3  and  N_5 
REMARK    4  A    between atoms: N_6  and  C_8 
REMARK    5  A    between atoms: C_9  and  C_12 
REMARK    6  A    between atoms: C_10  and  C_12 
REMARK    7  A    between atoms: C_12  and  C_13 
REMARK       I    between atoms: C_13  and  N_15 
REMARK    8  A    between atoms: N_15  and  C_17 
REMARK    9  A    between atoms: C_17  and  C_21 
REMARK   10  A    between atoms: O_19  and  C_20 
ROOT
HETATM    1  C   UNL     1      -0.325 -17.172   8.695  1.00  0.00     0.065 C 
ENDROOT
BRANCH   1   2
HETATM    2  C   UNL     1      -0.583 -16.881   9.881  1.00  0.00    -0.040 C 
HETATM    3  C   UNL     1      -0.669 -16.474  10.982  1.00  0.00     0.045 C 
BRANCH   3   4
HETATM    4  N   UNL     1      -0.887 -16.128  12.082  1.00  0.00    -0.170 N 
ATOM      5  HN  UNL     1      -1.585 -15.401  11.924  1.00  0.00     0.214 HD
BRANCH   4   6
HETATM    6  N   UNL     1      -0.806 -16.105  13.131  1.00  0.00    -0.207 NA
BRANCH   6   7
HETATM    7  N   UNL     1      -0.724 -16.077  14.370  1.00  0.00    -0.121 N 
HETATM    8  H   UNL     1       0.277 -15.691  14.723  1.00  0.00     0.233 HD
BRANCH   7   9
HETATM    9  O   UNL     1      -1.724 -15.735  14.859  1.00  0.00    -0.263 OA
ATOM     10  HO  UNL     1      -2.072 -14.861  14.730  1.00  0.00     0.247 HD
ENDBRANCH   7   9
ENDBRANCH   6   7
ENDBRANCH   4   6
ENDBRANCH   3   4
ENDBRANCH   1   2
BRANCH   1  11
HETATM   11  C   UNL     1      -1.298 -16.478   7.835  1.00  0.00     0.049 C 
HETATM   12  C   UNL     1      -0.785 -15.290   7.210  1.00  0.00     0.011 C 
ENDBRANCH   1  11
BRANCH   1  13
HETATM   13  C   UNL     1       0.822 -18.005   8.220  1.00  0.00     0.267 C 
HETATM   14  N   UNL     1       1.839 -18.136   9.146  1.00  0.00    -0.288 N 
ATOM     15  HN  UNL     1       1.867 -17.421   9.872  1.00  0.00     0.179 HD
HETATM   16  O   UNL     1       0.843 -18.513   7.150  1.00  0.00    -0.266 OA
BRANCH  14  17
HETATM   17  C   UNL     1       2.667 -18.949   9.212  1.00  0.00    -0.037 C 
BRANCH  17  18
HETATM   18  C   UNL     1       3.592 -19.830   8.982  1.00  0.00     0.098 C 
HETATM   19  C   UNL     1       3.254 -20.970   8.271  1.00  0.00     0.141 C 
BRANCH  19  20
HETATM   20  O   UNL     1       1.990 -21.226   7.916  1.00  0.00    -0.372 OA
HETATM   21  H   UNL     1       1.876 -22.094   7.528  1.00  0.00     0.216 HD
ENDBRANCH  19  20
ENDBRANCH  17  18
ENDBRANCH  14  17
ENDBRANCH   1  13
TORSDOF 10
ENDMDL
MODEL 3
REMARK VINA RESULT:    -5.069      1.407      1.515
REMARK INTER + INTRA:          -8.538
REMARK INTER:                  -7.636
REMARK INTRA:                  -0.903
REMARK UNBOUND:                -0.802
REMARK  10 active torsions:
REMARK  status: ('A' for Active; 'I' for Inactive)
REMARK    1  A    between atoms: N_2  and  N_6 
REMARK    2  A    between atoms: N_2  and  N_5 
REMARK    3  A    between atoms: O_3  and  N_5 
REMARK    4  A    between atoms: N_6  and  C_8 
REMARK    5  A    between atoms: C_9  and  C_12 
REMARK    6  A    between atoms: C_10  and  C_12 
REMARK    7  A    between atoms: C_12  and  C_13 
REMARK       I    between atoms: C_13  and  N_15 
REMARK    8  A    between atoms: N_15  and  C_17 
REMARK    9  A    between atoms: C_17  and  C_21 
REMARK   10  A    between atoms: O_19  and  C_20 
ROOT
HETATM    1  C   UNL     1       8.149  -4.291  24.393  1.00  0.00     0.065 C 
ENDROOT
BRANCH   1   2
HETATM    2  C   UNL     1       7.964  -4.946  25.439  1.00  0.00    -0.040 C 
HETATM    3  C   UNL     1       7.906  -5.418  26.515  1.00  0.00     0.045 C 
BRANCH   3   4
HETATM    4  N   UNL     1       7.736  -5.966  27.539  1.00  0.00    -0.170 N 
ATOM      5  HN  UNL     1       8.687  -5.993  27.908  1.00  0.00     0.214 HD
BRANCH   4   6
HETATM    6  N   UNL     1       7.207  -6.447  28.312  1.00  0.00    -0.207 NA
BRANCH   6   7
HETATM    7  N   UNL     1       6.588  -7.027  29.219  1.00  0.00    -0.121 N 
HETATM    8  H   UNL     1       6.110  -6.301  29.941  1.00  0.00     0.233 HD
BRANCH   7   9
HETATM    9  O   UNL     1       6.023  -7.964  28.823  1.00  0.00    -0.263 OA
ATOM     10  HO  UNL     1       6.252  -8.378  27.999  1.00  0.00     0.247 HD
ENDBRANCH   7   9
ENDBRANCH   6   7
ENDBRANCH   4   6
ENDBRANCH   3   4
ENDBRANCH   1   2
BRANCH   1  11
HETATM   11  C   UNL     1       7.458  -4.987  23.294  1.00  0.00     0.049 C 
HETATM   12  C   UNL     1       6.037  -4.774  23.267  1.00  0.00     0.011 C 
ENDBRANCH   1  11
BRANCH   1  13
HETATM   13  C   UNL     1       8.867  -2.985  24.284  1.00  0.00     0.267 C 
HETATM   14  N   UNL     1       9.348  -2.715  23.018  1.00  0.00    -0.288 N 
ATOM     15  HN  UNL     1       9.467  -3.526  22.411  1.00  0.00     0.179 HD
HETATM   16  O   UNL     1       8.996  -2.248  25.203  1.00  0.00    -0.266 OA
BRANCH  14  17
HETATM   17  C   UNL     1       9.637  -1.692  22.548  1.00  0.00    -0.037 C 
BRANCH  17  18
HETATM   18  C   UNL     1      10.008  -0.471  22.314  1.00  0.00     0.098 C 
HETATM   19  C   UNL     1      10.938   0.109  23.162  1.00  0.00     0.141 C 
BRANCH  19  20
HETATM   20  O   UNL     1      11.370  -0.517  24.262  1.00  0.00    -0.372 OA
HETATM   21  H   UNL     1      10.860  -0.304  25.043  1.00  0.00     0.216 HD
ENDBRANCH  19  20
ENDBRANCH  17  18
ENDBRANCH  14  17
ENDBRANCH   1  13
TORSDOF 10
ENDMDL
MODEL 4
REMARK VINA RESULT:    -4.956     24.337     26.969
REMARK INTER + INTRA:          -8.365
REMARK INTER:                  -7.565
REMARK INTRA:                  -0.800
REMARK UNBOUND:                -0.802
REMARK  10 active torsions:
REMARK  status: ('A' for Active; 'I' for Inactive)
REMARK    1  A    between atoms: N_2  and  N_6 
REMARK    2  A    between atoms: N_2  and  N_5 
REMARK    3  A    between atoms: O_3  and  N_5 
REMARK    4  A    between atoms: N_6  and  C_8 
REMARK    5  A    between atoms: C_9  and  C_12 
REMARK    6  A    between atoms: C_10  and  C_12 
REMARK    7  A    between atoms: C_12  and  C_13 
REMARK       I    between atoms: C_13  and  N_15 
REMARK    8  A    between atoms: N_15  and  C_17 
REMARK    9  A    between atoms: C_17  and  C_21 
REMARK   10  A    between atoms: O_19  and  C_20 
ROOT
HETATM    1  C   UNL     1       6.307  11.777   3.575  1.00  0.00     0.065 C 
ENDROOT
BRANCH   1   2
HETATM    2  C   UNL     1       7.436  12.307   3.629  1.00  0.00    -0.040 C 
HETATM    3  C   UNL     1       8.522  12.735   3.487  1.00  0.00     0.045 C 
BRANCH   3   4
HETATM    4  N   UNL     1       9.579  13.246   3.461  1.00  0.00    -0.170 N 
ATOM      5  HN  UNL     1      10.137  12.519   3.014  1.00  0.00     0.214 HD
BRANCH   4   6
HETATM    6  N   UNL     1      10.305  13.993   3.614  1.00  0.00    -0.207 NA
BRANCH   6   7
HETATM    7  N   UNL     1      11.162  14.869   3.807  1.00  0.00    -0.121 N 
HETATM    8  H   UNL     1      10.734  15.912   3.728  1.00  0.00     0.233 HD
BRANCH   7   9
HETATM    9  O   UNL     1      11.899  14.569   4.658  1.00  0.00    -0.263 OA
ATOM     10  HO  UNL     1      12.370  13.745   4.646  1.00  0.00     0.247 HD
ENDBRANCH   7   9
ENDBRANCH   6   7
ENDBRANCH   4   6
ENDBRANCH   3   4
ENDBRANCH   1   2
BRANCH   1  11
HETATM   11  C   UNL     1       5.299  12.851   3.611  1.00  0.00     0.049 C 
HETATM   12  C   UNL     1       4.625  13.063   2.361  1.00  0.00     0.011 C 
ENDBRANCH   1  11
BRANCH   1  13
HETATM   13  C   UNL     1       6.023  10.318   3.413  1.00  0.00     0.267 C 
HETATM   14  N   UNL     1       5.882   9.640   4.607  1.00  0.00    -0.288 N 
ATOM     15  HN  UNL     1       6.301  10.091   5.421  1.00  0.00     0.179 HD
HETATM   16  O   UNL     1       5.917   9.802   2.351  1.00  0.00    -0.266 OA
BRANCH  14  17
HETATM   17  C   UNL     1       5.352   8.626   4.814  1.00  0.00    -0.037 C 
BRANCH  17  18
HETATM   18  C   UNL     1       4.997   7.381   4.889  1.00  0.00     0.098 C 
HETATM   19  C   UNL     1       4.664   6.719   3.718  1.00  0.00     0.141 C 
BRANCH  19  20
HETATM   20  O   UNL     1       4.600   7.359   2.545  1.00  0.00    -0.372 OA
HETATM   21  H   UNL     1       3.779   7.834   2.419  1.00  0.00     0.216 HD
ENDBRANCH  19  20
ENDBRANCH  17  18
ENDBRANCH  14  17
ENDBRANCH   1  13
TORSDOF 10
ENDMDL
MODEL 5
REMARK VINA RESULT:    -4.876     25.040     26.441
REMARK INTER + INTRA:          -8.243
REMARK INTER:                  -7.368
REMARK INTRA:                  -0.875
REMARK UNBOUND:                -0.802
REMARK  10 active torsions:
REMARK  status: ('A' for Active; 'I' for Inactive)
REMARK    1  A    between atoms: N_2  and  N_6 
REMARK    2  A    between atoms: N_2  and  N_5 
REMARK    3  A    between atoms: O_3  and  N_5 
REMARK    4  A    between atoms: N_6  and  C_8 
REMARK    5  A    between atoms: C_9  and  C_12 
REMARK    6  A    between atoms: C_10  and  C_12 
REMARK    7  A    between atoms: C_12  and  C_13 
REMARK       I    between atoms: C_13  and  N_15 
REMARK    8  A    between atoms: N_15  and  C_17 
REMARK    9  A    between atoms: C_17  and  C_21 
REMARK   10  A    between atoms: O_19  and  C_20 
ROOT
HETATM    1  C   UNL     1      21.641 -15.040   5.428  1.00  0.00     0.065 C 
ENDROOT
BRANCH   1   2
HETATM    2  C   UNL     1      20.854 -15.855   5.953  1.00  0.00    -0.040 C 
HETATM    3  C   UNL     1      19.995 -16.588   6.281  1.00  0.00     0.045 C 
BRANCH   3   4
HETATM    4  N   UNL     1      19.233 -17.376   6.703  1.00  0.00    -0.170 N 
ATOM      5  HN  UNL     1      18.345 -16.912   6.512  1.00  0.00     0.214 HD
BRANCH   4   6
HETATM    6  N   UNL     1      18.902 -18.266   7.156  1.00  0.00    -0.207 NA
BRANCH   6   7
HETATM    7  N   UNL     1      18.500 -19.311   7.693  1.00  0.00    -0.121 N 
HETATM    8  H   UNL     1      19.218 -19.692   8.477  1.00  0.00     0.233 HD
BRANCH   7   9
HETATM    9  O   UNL     1      17.349 -19.286   7.873  1.00  0.00    -0.263 OA
ATOM     10  HO  UNL     1      16.732 -19.563   7.207  1.00  0.00     0.247 HD
ENDBRANCH   7   9
ENDBRANCH   6   7
ENDBRANCH   4   6
ENDBRANCH   3   4
ENDBRANCH   1   2
BRANCH   1  11
HETATM   11  C   UNL     1      22.794 -14.877   6.331  1.00  0.00     0.049 C 
HETATM   12  C   UNL     1      22.932 -13.554   6.872  1.00  0.00     0.011 C 
ENDBRANCH   1  11
BRANCH   1  13
HETATM   13  C   UNL     1      21.489 -14.407   4.083  1.00  0.00     0.267 C 
HETATM   14  N   UNL     1      22.625 -14.478   3.300  1.00  0.00    -0.288 N 
ATOM     15  HN  UNL     1      23.498 -14.630   3.806  1.00  0.00     0.179 HD
HETATM   16  O   UNL     1      20.478 -13.904   3.723  1.00  0.00    -0.266 OA
BRANCH  14  17
HETATM   17  C   UNL     1      22.724 -14.389   2.146  1.00  0.00    -0.037 C 
BRANCH  17  18
HETATM   18  C   UNL     1      22.724 -14.009   0.905  1.00  0.00     0.098 C 
HETATM   19  C   UNL     1      22.211 -12.759   0.598  1.00  0.00     0.141 C 
BRANCH  19  20
HETATM   20  O   UNL     1      21.627 -11.994   1.527  1.00  0.00    -0.372 OA
HETATM   21  H   UNL     1      22.121 -11.952   2.346  1.00  0.00     0.216 HD
ENDBRANCH  19  20
ENDBRANCH  17  18
ENDBRANCH  14  17
ENDBRANCH   1  13
TORSDOF 10
ENDMDL
MODEL 6
REMARK VINA RESULT:    -4.730     14.041     16.373
REMARK INTER + INTRA:          -8.021
REMARK INTER:                  -7.152
REMARK INTRA:                  -0.869
REMARK UNBOUND:                -0.802
REMARK  10 active torsions:
REMARK  status: ('A' for Active; 'I' for Inactive)
REMARK    1  A    between atoms: N_2  and  N_6 
REMARK    2  A    between atoms: N_2  and  N_5 
REMARK    3  A    between atoms: O_3  and  N_5 
REMARK    4  A    between atoms: N_6  and  C_8 
REMARK    5  A    between atoms: C_9  and  C_12 
REMARK    6  A    between atoms: C_10  and  C_12 
REMARK    7  A    between atoms: C_12  and  C_13 
REMARK       I    between atoms: C_13  and  N_15 
REMARK    8  A    between atoms: N_15  and  C_17 
REMARK    9  A    between atoms: C_17  and  C_21 
REMARK   10  A    between atoms: O_19  and  C_20 
ROOT
HETATM    1  C   UNL     1      24.161  -5.440  25.041  1.00  0.00     0.065 C 
ENDROOT
BRANCH   1   2
HETATM    2  C   UNL     1      23.286  -4.566  25.204  1.00  0.00    -0.040 C 
HETATM    3  C   UNL     1      22.618  -3.607  25.344  1.00  0.00     0.045 C 
BRANCH   3   4
HETATM    4  N   UNL     1      21.838  -2.736  25.453  1.00  0.00    -0.170 N 
ATOM      5  HN  UNL     1      21.934  -2.510  26.442  1.00  0.00     0.214 HD
BRANCH   4   6
HETATM    6  N   UNL     1      21.101  -2.045  25.158  1.00  0.00    -0.207 NA
BRANCH   6   7
HETATM    7  N   UNL     1      20.223  -1.236  24.817  1.00  0.00    -0.121 N 
HETATM    8  H   UNL     1      20.172  -0.344  25.509  1.00  0.00     0.233 HD
BRANCH   7   9
HETATM    9  O   UNL     1      20.170  -1.122  23.660  1.00  0.00    -0.263 OA
ATOM     10  HO  UNL     1      20.375  -1.841  23.074  1.00  0.00     0.247 HD
ENDBRANCH   7   9
ENDBRANCH   6   7
ENDBRANCH   4   6
ENDBRANCH   3   4
ENDBRANCH   1   2
BRANCH   1  11
HETATM   11  C   UNL     1      24.474  -6.019  26.359  1.00  0.00     0.049 C 
HETATM   12  C   UNL     1      25.517  -5.333  27.068  1.00  0.00     0.011 C 
ENDBRANCH   1  11
BRANCH   1  13
HETATM   13  C   UNL     1      24.730  -5.889  23.734  1.00  0.00     0.267 C 
HETATM   14  N   UNL     1      25.488  -7.040  23.819  1.00  0.00    -0.288 N 
ATOM     15  HN  UNL     1      25.850  -7.260  24.747  1.00  0.00     0.179 HD
HETATM   16  O   UNL     1      24.533  -5.309  22.719  1.00  0.00    -0.266 OA
BRANCH  14  17
HETATM   17  C   UNL     1      25.770  -7.794  22.981  1.00  0.00    -0.037 C 
BRANCH  17  18
HETATM   18  C   UNL     1      25.799  -8.731  22.084  1.00  0.00     0.098 C 
HETATM   19  C   UNL     1      25.145  -8.513  20.881  1.00  0.00     0.141 C 
BRANCH  19  20
HETATM   20  O   UNL     1      24.407  -7.417  20.673  1.00  0.00    -0.372 OA
HETATM   21  H   UNL     1      24.281  -6.891  21.464  1.00  0.00     0.216 HD
ENDBRANCH  19  20
ENDBRANCH  17  18
ENDBRANCH  14  17
ENDBRANCH   1  13
TORSDOF 10
ENDMDL
MODEL 7
REMARK VINA RESULT:    -4.685     16.879     19.328
REMARK INTER + INTRA:          -7.953
REMARK INTER:                  -7.307
REMARK INTRA:                  -0.646
REMARK UNBOUND:                -0.802
REMARK  10 active torsions:
REMARK  status: ('A' for Active; 'I' for Inactive)
REMARK    1  A    between atoms: N_2  and  N_6 
REMARK    2  A    between atoms: N_2  and  N_5 
REMARK    3  A    between atoms: O_3  and  N_5 
REMARK    4  A    between atoms: N_6  and  C_8 
REMARK    5  A    between atoms: C_9  and  C_12 
REMARK    6  A    between atoms: C_10  and  C_12 
REMARK    7  A    between atoms: C_12  and  C_13 
REMARK       I    between atoms: C_13  and  N_15 
REMARK    8  A    between atoms: N_15  and  C_17 
REMARK    9  A    between atoms: C_17  and  C_21 
REMARK   10  A    between atoms: O_19  and  C_20 
ROOT
HETATM    1  C   UNL     1      23.792  -1.273  16.863  1.00  0.00     0.065 C 
ENDROOT
BRANCH   1   2
HETATM    2  C   UNL     1      23.939  -0.493  15.901  1.00  0.00    -0.040 C 
HETATM    3  C   UNL     1      23.938   0.124  14.899  1.00  0.00     0.045 C 
BRANCH   3   4
HETATM    4  N   UNL     1      24.001   0.845  13.974  1.00  0.00    -0.170 N 
ATOM      5  HN  UNL     1      23.535   1.675  14.341  1.00  0.00     0.214 HD
BRANCH   4   6
HETATM    6  N   UNL     1      24.243   1.163  13.001  1.00  0.00    -0.207 NA
BRANCH   6   7
HETATM    7  N   UNL     1      24.539   1.545  11.857  1.00  0.00    -0.121 N 
HETATM    8  H   UNL     1      25.086   0.750  11.269  1.00  0.00     0.233 HD
BRANCH   7   9
HETATM    9  O   UNL     1      23.689   2.185  11.385  1.00  0.00    -0.263 OA
ATOM     10  HO  UNL     1      23.634   2.334  10.448  1.00  0.00     0.247 HD
ENDBRANCH   7   9
ENDBRANCH   6   7
ENDBRANCH   4   6
ENDBRANCH   3   4
ENDBRANCH   1   2
BRANCH   1  11
HETATM   11  C   UNL     1      23.277  -0.496  18.003  1.00  0.00     0.049 C 
HETATM   12  C   UNL     1      22.455  -1.253  18.906  1.00  0.00     0.011 C 
ENDBRANCH   1  11
BRANCH   1  13
HETATM   13  C   UNL     1      24.011  -2.752  16.843  1.00  0.00     0.267 C 
HETATM   14  N   UNL     1      25.043  -3.175  17.658  1.00  0.00    -0.288 N 
ATOM     15  HN  UNL     1      25.729  -2.462  17.904  1.00  0.00     0.179 HD
HETATM   16  O   UNL     1      23.348  -3.488  16.192  1.00  0.00    -0.266 OA
BRANCH  14  17
HETATM   17  C   UNL     1      25.238  -4.231  18.102  1.00  0.00    -0.037 C 
BRANCH  17  18
HETATM   18  C   UNL     1      25.233  -5.330  18.792  1.00  0.00     0.098 C 
HETATM   19  C   UNL     1      24.453  -5.388  19.936  1.00  0.00     0.141 C 
BRANCH  19  20
HETATM   20  O   UNL     1      23.799  -4.314  20.393  1.00  0.00    -0.372 OA
HETATM   21  H   UNL     1      23.883  -4.196  21.340  1.00  0.00     0.216 HD
ENDBRANCH  19  20
ENDBRANCH  17  18
ENDBRANCH  14  17
ENDBRANCH   1  13
TORSDOF 10
ENDMDL
MODEL 8
REMARK VINA RESULT:    -4.671      6.788      8.280
REMARK INTER + INTRA:          -7.931
REMARK INTER:                  -7.291
REMARK INTRA:                  -0.640
REMARK UNBOUND:                -0.802
REMARK  10 active torsions:
REMARK  status: ('A' for Active; 'I' for Inactive)
REMARK    1  A    between atoms: N_2  and  N_6 
REMARK    2  A    between atoms: N_2  and  N_5 
REMARK    3  A    between atoms: O_3  and  N_5 
REMARK    4  A    between atoms: N_6  and  C_8 
REMARK    5  A    between atoms: C_9  and  C_12 
REMARK    6  A    between atoms: C_10  and  C_12 
REMARK    7  A    between atoms: C_12  and  C_13 
REMARK       I    between atoms: C_13  and  N_15 
REMARK    8  A    between atoms: N_15  and  C_17 
REMARK    9  A    between atoms: C_17  and  C_21 
REMARK   10  A    between atoms: O_19  and  C_20 
ROOT
HETATM    1  C   UNL     1      10.220   0.659  22.989  1.00  0.00     0.065 C 
ENDROOT
BRANCH   1   2
HETATM    2  C   UNL     1       9.315   0.673  22.129  1.00  0.00    -0.040 C 
HETATM    3  C   UNL     1       8.589   0.564  21.209  1.00  0.00     0.045 C 
BRANCH   3   4
HETATM    4  N   UNL     1       7.760   0.504  20.380  1.00  0.00    -0.170 N 
ATOM      5  HN  UNL     1       6.914   0.520  20.948  1.00  0.00     0.214 HD
BRANCH   4   6
HETATM    6  N   UNL     1       7.353   0.445  19.412  1.00  0.00    -0.207 NA
BRANCH   6   7
HETATM    7  N   UNL     1       6.862   0.382  18.273  1.00  0.00    -0.121 N 
HETATM    8  H   UNL     1       5.803  -0.012  18.285  1.00  0.00     0.233 HD
BRANCH   7   9
HETATM    9  O   UNL     1       7.171   1.296  17.621  1.00  0.00    -0.263 OA
ATOM     10  HO  UNL     1       7.423   1.201  16.710  1.00  0.00     0.247 HD
ENDBRANCH   7   9
ENDBRANCH   6   7
ENDBRANCH   4   6
ENDBRANCH   3   4
ENDBRANCH   1   2
BRANCH   1  11
HETATM   11  C   UNL     1      10.390  -0.731  23.447  1.00  0.00     0.049 C 
HETATM   12  C   UNL     1      11.383  -1.470  22.719  1.00  0.00     0.011 C 
ENDBRANCH   1  11
BRANCH   1  13
HETATM   13  C   UNL     1      11.049   1.827  23.416  1.00  0.00     0.267 C 
HETATM   14  N   UNL     1      10.544   3.048  23.015  1.00  0.00    -0.288 N 
ATOM     15  HN  UNL     1       9.896   3.018  22.228  1.00  0.00     0.179 HD
HETATM   16  O   UNL     1      12.042   1.708  24.052  1.00  0.00    -0.266 OA
BRANCH  14  17
HETATM   17  C   UNL     1      10.754   4.105  23.450  1.00  0.00    -0.037 C 
BRANCH  17  18
HETATM   18  C   UNL     1      11.012   5.363  23.641  1.00  0.00     0.098 C 
HETATM   19  C   UNL     1      12.338   5.764  23.681  1.00  0.00     0.141 C 
BRANCH  19  20
HETATM   20  O   UNL     1      13.340   4.880  23.636  1.00  0.00    -0.372 OA
HETATM   21  H   UNL     1      14.175   5.239  23.938  1.00  0.00     0.216 HD
ENDBRANCH  19  20
ENDBRANCH  17  18
ENDBRANCH  14  17
ENDBRANCH   1  13
TORSDOF 10
ENDMDL
MODEL 9
REMARK VINA RESULT:    -4.625      3.893      6.242
REMARK INTER + INTRA:          -7.860
REMARK INTER:                  -6.982
REMARK INTRA:                  -0.879
REMARK UNBOUND:                -0.802
REMARK  10 active torsions:
REMARK  status: ('A' for Active; 'I' for Inactive)
REMARK    1  A    between atoms: N_2  and  N_6 
REMARK    2  A    between atoms: N_2  and  N_5 
REMARK    3  A    between atoms: O_3  and  N_5 
REMARK    4  A    between atoms: N_6  and  C_8 
REMARK    5  A    between atoms: C_9  and  C_12 
REMARK    6  A    between atoms: C_10  and  C_12 
REMARK    7  A    between atoms: C_12  and  C_13 
REMARK       I    between atoms: C_13  and  N_15 
REMARK    8  A    between atoms: N_15  and  C_17 
REMARK    9  A    between atoms: C_17  and  C_21 
REMARK   10  A    between atoms: O_19  and  C_20 
ROOT
HETATM    1  C   UNL     1       5.402  -5.647  24.284  1.00  0.00     0.065 C 
ENDROOT
BRANCH   1   2
HETATM    2  C   UNL     1       5.839  -5.838  25.437  1.00  0.00    -0.040 C 
HETATM    3  C   UNL     1       6.052  -6.023  26.580  1.00  0.00     0.045 C 
BRANCH   3   4
HETATM    4  N   UNL     1       6.399  -6.245  27.679  1.00  0.00    -0.170 N 
ATOM      5  HN  UNL     1       6.980  -5.429  27.870  1.00  0.00     0.214 HD
BRANCH   4   6
HETATM    6  N   UNL     1       6.480  -6.768  28.589  1.00  0.00    -0.207 NA
BRANCH   6   7
HETATM    7  N   UNL     1       6.583  -7.375  29.667  1.00  0.00    -0.121 N 
HETATM    8  H   UNL     1       5.578  -7.578  30.141  1.00  0.00     0.233 HD
BRANCH   7   9
HETATM    9  O   UNL     1       7.419  -8.184  29.627  1.00  0.00    -0.263 OA
ATOM     10  HO  UNL     1       7.245  -9.072  29.339  1.00  0.00     0.247 HD
ENDBRANCH   7   9
ENDBRANCH   6   7
ENDBRANCH   4   6
ENDBRANCH   3   4
ENDBRANCH   1   2
BRANCH   1  11
HETATM   11  C   UNL     1       6.400  -4.853  23.547  1.00  0.00     0.049 C 
HETATM   12  C   UNL     1       7.144  -5.604  22.575  1.00  0.00     0.011 C 
ENDBRANCH   1  11
BRANCH   1  13
HETATM   13  C   UNL     1       4.133  -6.199  23.718  1.00  0.00     0.267 C 
HETATM   14  N   UNL     1       3.698  -7.352  24.341  1.00  0.00    -0.288 N 
ATOM     15  HN  UNL     1       4.411  -7.871  24.853  1.00  0.00     0.179 HD
HETATM   16  O   UNL     1       3.554  -5.680  22.823  1.00  0.00    -0.266 OA
BRANCH  14  17
HETATM   17  C   UNL     1       2.632  -7.813  24.363  1.00  0.00    -0.037 C 
BRANCH  17  18
HETATM   18  C   UNL     1       1.418  -8.198  24.112  1.00  0.00     0.098 C 
HETATM   19  C   UNL     1       1.059  -8.430  22.794  1.00  0.00     0.141 C 
BRANCH  19  20
HETATM   20  O   UNL     1       1.894  -8.164  21.783  1.00  0.00    -0.372 OA
HETATM   21  H   UNL     1       1.807  -7.271  21.447  1.00  0.00     0.216 HD
ENDBRANCH  19  20
ENDBRANCH  17  18
ENDBRANCH  14  17
ENDBRANCH   1  13
TORSDOF 10
ENDMDL
