REMARK  10 active torsions:
REMARK  status: ('A' for Active; 'I' for Inactive)
REMARK    1  A    between atoms: N_2  and  N_6 
REMARK    2  A    between atoms: N_2  and  N_5 
REMARK    3  A    between atoms: O_3  and  N_5 
REMARK    4  A    between atoms: N_6  and  C_8 
REMARK    5  A    between atoms: C_9  and  C_12 
REMARK    6  A    between atoms: C_10  and  C_12 
REMARK    7  A    between atoms: C_12  and  C_13 
REMARK       I    between atoms: C_13  and  N_15 
REMARK    8  A    between atoms: N_15  and  C_17 
REMARK    9  A    between atoms: C_17  and  C_21 
REMARK   10  A    between atoms: O_19  and  C_20 
ROOT
HETATM    1  C   UNL     1       9.870  -0.936  22.608  1.00  0.00     0.065 C 
ENDROOT
BRANCH   1   2
HETATM    2  C   UNL     1       9.315  -1.827  23.283  1.00  0.00    -0.040 C 
HETATM    3  C   UNL     1       8.977  -2.689  24.009  1.00  0.00     0.045 C 
BRANCH   3   4
HETATM    4  N   UNL     1       8.503  -3.509  24.703  1.00  0.00    -0.170 N 
ATOM      5  HN  UNL     1       7.878  -3.981  24.050  1.00  0.00     0.214 HD
BRANCH   4   6
HETATM    6  N   UNL     1       8.326  -4.057  25.584  1.00  0.00    -0.207 NA
BRANCH   6   7
HETATM    7  N   UNL     1       8.130  -4.701  26.627  1.00  0.00    -0.121 N 
HETATM    8  H   UNL     1       7.031  -4.878  26.820  1.00  0.00     0.233 HD
BRANCH   7   9
HETATM    9  O   UNL     1       8.923  -5.542  26.768  1.00  0.00    -0.263 OA
ATOM     10  HO  UNL     1       9.847  -5.393  26.606  1.00  0.00     0.247 HD
ENDBRANCH   7   9
ENDBRANCH   6   7
ENDBRANCH   4   6
ENDBRANCH   3   4
ENDBRANCH   1   2
BRANCH   1  11
HETATM   11  C   UNL     1      11.317  -0.998  22.877  1.00  0.00     0.049 C 
HETATM   12  C   UNL     1      11.722  -0.305  24.068  1.00  0.00     0.011 C 
ENDBRANCH   1  11
BRANCH   1  13
HETATM   13  C   UNL     1       9.202  -0.024  21.630  1.00  0.00     0.267 C 
HETATM   14  N   UNL     1       8.029  -0.530  21.105  1.00  0.00    -0.288 N 
ATOM     15  HN  UNL     1       7.923  -1.543  21.162  1.00  0.00     0.179 HD
HETATM   16  O   UNL     1       9.640   1.040  21.346  1.00  0.00    -0.266 OA
BRANCH  14  17
HETATM   17  C   UNL     1       7.146   0.038  20.607  1.00  0.00    -0.037 C 
BRANCH  17  18
HETATM   18  C   UNL     1       6.029   0.635  20.324  1.00  0.00     0.098 C 
HETATM   19  C   UNL     1       5.723   0.864  18.992  1.00  0.00     0.141 C 
BRANCH  19  20
HETATM   20  O   UNL     1       6.592   0.583  18.015  1.00  0.00    -0.372 OA
HETATM   21  H   UNL     1       7.348   0.078  18.316  1.00  0.00     0.216 HD
ENDBRANCH  19  20
ENDBRANCH  17  18
ENDBRANCH  14  17
ENDBRANCH   1  13
TORSDOF 10
