MODEL 1
REMARK VINA RESULT:    -6.697      0.000      0.000
REMARK INTER + INTRA:         -11.784
REMARK INTER:                 -10.220
REMARK INTRA:                  -1.564
REMARK UNBOUND:                -1.564
REMARK  9 active torsions:
REMARK  status: ('A' for Active; 'I' for Inactive)
REMARK    1  A    between atoms: S_2  and  N_5 
REMARK    2  A    between atoms: N_5  and  C_7 
REMARK    3  A    between atoms: C_8  and  C_9 
REMARK    4  A    between atoms: C_9  and  C_15 
REMARK    5  A    between atoms: C_9  and  C_10 
REMARK    6  A    between atoms: C_10  and  C_11 
REMARK    7  A    between atoms: C_11  and  C_12 
REMARK    8  A    between atoms: C_15  and  C_16 
REMARK       I    between atoms: C_16  and  N_18 
REMARK    9  A    between atoms: N_18  and  C_20 
ROOT
HETATM    1  C   UNL     1       9.370  -1.428  23.391  1.00  0.00     0.109 C 
ENDROOT
BRANCH   1   2
HETATM    2  C   UNL     1       8.989  -2.638  23.122  1.00  0.00     0.011 C 
HETATM    3  C   UNL     1       8.087  -3.472  22.959  1.00  0.00     0.097 C 
BRANCH   3   4
HETATM    4  N   UNL     1       7.555  -4.380  22.359  1.00  0.00    -0.296 N 
ATOM      5  HN  UNL     1       8.117  -5.208  22.162  1.00  0.00     0.177 HD
BRANCH   4   6
HETATM    6  S   UNL     1       6.012  -4.376  21.846  1.00  0.00     0.226 S 
HETATM    7  C   UNL     1       5.118  -5.034  23.221  1.00  0.00     0.186 C 
HETATM    8  O   UNL     1       5.499  -3.046  21.627  1.00  0.00    -0.206 OA
HETATM    9  O   UNL     1       5.806  -5.228  20.724  1.00  0.00    -0.206 OA
ENDBRANCH   4   6
ENDBRANCH   3   4
ENDBRANCH   1   2
BRANCH   1  10
HETATM   10  C   UNL     1       8.921  -0.964  22.375  1.00  0.00    -0.071 C 
BRANCH  10  11
HETATM   11  C   UNL     1       8.445  -0.380  21.274  1.00  0.00     0.289 C 
HETATM   12  O   UNL     1       9.171   0.266  20.671  1.00  0.00    -0.259 OA
HETATM   13  N   UNL     1       7.181  -0.657  21.063  1.00  0.00    -0.315 N 
ATOM     14  HN  UNL     1       6.695  -1.291  21.697  1.00  0.00     0.170 HD
BRANCH  13  15
HETATM   15  C   UNL     1       6.558  -0.158  20.096  1.00  0.00     0.057 A 
HETATM   16  C   UNL     1       6.268  -0.558  18.861  1.00  0.00     0.117 A 
HETATM   17  N   UNL     1       5.755  -0.398  17.768  1.00  0.00    -0.373 N 
HETATM   18  C   UNL     1       5.315   0.840  17.956  1.00  0.00     0.088 A 
ATOM     19  HN  UNL     1       5.685  -1.020  16.962  1.00  0.00     0.164 HD
HETATM   20  C   UNL     1       5.378   1.526  19.016  1.00  0.00     0.026 A 
HETATM   21  C   UNL     1       5.896   1.259  20.213  1.00  0.00    -0.033 A 
HETATM   22  C   UNL     1       5.918   2.104  21.467  1.00  0.00     0.050 C 
ENDBRANCH  13  15
ENDBRANCH  10  11
ENDBRANCH   1  10
BRANCH   1  23
HETATM   23  C   UNL     1       9.207  -0.511  24.717  1.00  0.00    -0.006 C 
BRANCH  23  24
HETATM   24  C   UNL     1       9.862   0.246  25.093  1.00  0.00    -0.002 C 
BRANCH  24  25
HETATM   25  C   UNL     1      11.295   0.328  24.853  1.00  0.00    -0.001 C 
HETATM   26  C   UNL     1      11.659   1.425  24.063  1.00  0.00    -0.010 C 
HETATM   27  C   UNL     1      11.166   2.245  23.665  1.00  0.00     0.011 C 
ENDBRANCH  24  25
ENDBRANCH  23  24
ENDBRANCH   1  23
TORSDOF 9
ENDMDL
MODEL 2
REMARK VINA RESULT:    -6.066     14.260     16.385
REMARK INTER + INTRA:         -10.821
REMARK INTER:                  -9.312
REMARK INTRA:                  -1.509
REMARK UNBOUND:                -1.564
REMARK  9 active torsions:
REMARK  status: ('A' for Active; 'I' for Inactive)
REMARK    1  A    between atoms: S_2  and  N_5 
REMARK    2  A    between atoms: N_5  and  C_7 
REMARK    3  A    between atoms: C_8  and  C_9 
REMARK    4  A    between atoms: C_9  and  C_15 
REMARK    5  A    between atoms: C_9  and  C_10 
REMARK    6  A    between atoms: C_10  and  C_11 
REMARK    7  A    between atoms: C_11  and  C_12 
REMARK    8  A    between atoms: C_15  and  C_16 
REMARK       I    between atoms: C_16  and  N_18 
REMARK    9  A    between atoms: N_18  and  C_20 
ROOT
HETATM    1  C   UNL     1      24.406  -1.771  23.617  1.00  0.00     0.109 C 
ENDROOT
BRANCH   1   2
HETATM    2  C   UNL     1      24.338  -3.058  23.766  1.00  0.00     0.011 C 
HETATM    3  C   UNL     1      24.014  -4.048  24.438  1.00  0.00     0.097 C 
BRANCH   3   4
HETATM    4  N   UNL     1      23.513  -5.143  24.569  1.00  0.00    -0.296 N 
ATOM      5  HN  UNL     1      22.522  -5.238  24.352  1.00  0.00     0.177 HD
BRANCH   4   6
HETATM    6  S   UNL     1      24.307  -6.473  25.066  1.00  0.00     0.226 S 
HETATM    7  C   UNL     1      25.995  -5.953  25.109  1.00  0.00     0.186 C 
HETATM    8  O   UNL     1      23.966  -6.857  26.414  1.00  0.00    -0.206 OA
HETATM    9  O   UNL     1      24.191  -7.555  24.148  1.00  0.00    -0.206 OA
ENDBRANCH   4   6
ENDBRANCH   3   4
ENDBRANCH   1   2
BRANCH   1  10
HETATM   10  C   UNL     1      23.868  -1.777  22.540  1.00  0.00    -0.071 C 
BRANCH  10  11
HETATM   11  C   UNL     1      23.328  -1.738  21.321  1.00  0.00     0.289 C 
HETATM   12  O   UNL     1      22.194  -1.869  21.247  1.00  0.00    -0.259 OA
HETATM   13  N   UNL     1      24.222  -1.550  20.380  1.00  0.00    -0.315 N 
ATOM     14  HN  UNL     1      25.200  -1.416  20.639  1.00  0.00     0.170 HD
BRANCH  13  15
HETATM   15  C   UNL     1      23.899  -1.531  19.169  1.00  0.00     0.057 A 
HETATM   16  C   UNL     1      23.383  -0.617  18.351  1.00  0.00     0.117 A 
HETATM   17  N   UNL     1      22.981  -0.248  17.262  1.00  0.00    -0.373 N 
HETATM   18  C   UNL     1      23.112  -1.403  16.622  1.00  0.00     0.088 A 
ATOM     19  HN  UNL     1      22.649   0.662  16.942  1.00  0.00     0.164 HD
HETATM   20  C   UNL     1      23.601  -2.479  17.070  1.00  0.00     0.026 A 
HETATM   21  C   UNL     1      24.095  -2.797  18.265  1.00  0.00    -0.033 A 
HETATM   22  C   UNL     1      24.703  -4.095  18.745  1.00  0.00     0.050 C 
ENDBRANCH  13  15
ENDBRANCH  10  11
ENDBRANCH   1  10
BRANCH   1  23
HETATM   23  C   UNL     1      24.010  -0.544  24.597  1.00  0.00    -0.006 C 
BRANCH  23  24
HETATM   24  C   UNL     1      23.046  -0.127  24.792  1.00  0.00    -0.002 C 
BRANCH  24  25
HETATM   25  C   UNL     1      22.151  -0.516  25.871  1.00  0.00    -0.001 C 
HETATM   26  C   UNL     1      20.940  -1.054  25.415  1.00  0.00    -0.010 C 
HETATM   27  C   UNL     1      20.550  -1.317  24.492  1.00  0.00     0.011 C 
ENDBRANCH  24  25
ENDBRANCH  23  24
ENDBRANCH   1  23
TORSDOF 9
ENDMDL
MODEL 3
REMARK VINA RESULT:    -5.945      3.050      6.009
REMARK INTER + INTRA:         -10.636
REMARK INTER:                  -9.181
REMARK INTRA:                  -1.456
REMARK UNBOUND:                -1.564
REMARK  9 active torsions:
REMARK  status: ('A' for Active; 'I' for Inactive)
REMARK    1  A    between atoms: S_2  and  N_5 
REMARK    2  A    between atoms: N_5  and  C_7 
REMARK    3  A    between atoms: C_8  and  C_9 
REMARK    4  A    between atoms: C_9  and  C_15 
REMARK    5  A    between atoms: C_9  and  C_10 
REMARK    6  A    between atoms: C_10  and  C_11 
REMARK    7  A    between atoms: C_11  and  C_12 
REMARK    8  A    between atoms: C_15  and  C_16 
REMARK       I    between atoms: C_16  and  N_18 
REMARK    9  A    between atoms: N_18  and  C_20 
ROOT
HETATM    1  C   UNL     1       6.390   3.259  22.209  1.00  0.00     0.109 C 
ENDROOT
BRANCH   1   2
HETATM    2  C   UNL     1       5.830   2.384  21.432  1.00  0.00     0.011 C 
HETATM    3  C   UNL     1       5.275   2.093  20.363  1.00  0.00     0.097 C 
BRANCH   3   4
HETATM    4  N   UNL     1       5.111   1.388  19.391  1.00  0.00    -0.296 N 
ATOM      5  HN  UNL     1       4.282   1.554  18.821  1.00  0.00     0.177 HD
BRANCH   4   6
HETATM    6  S   UNL     1       6.116   0.196  18.929  1.00  0.00     0.226 S 
HETATM    7  C   UNL     1       6.016  -0.965  20.257  1.00  0.00     0.186 C 
HETATM    8  O   UNL     1       5.658  -0.497  17.750  1.00  0.00    -0.206 OA
HETATM    9  O   UNL     1       7.466   0.632  18.812  1.00  0.00    -0.206 OA
ENDBRANCH   4   6
ENDBRANCH   3   4
ENDBRANCH   1   2
BRANCH   1  10
HETATM   10  C   UNL     1       7.438   2.669  22.268  1.00  0.00    -0.071 C 
BRANCH  10  11
HETATM   11  C   UNL     1       8.574   1.971  22.275  1.00  0.00     0.289 C 
HETATM   12  O   UNL     1       9.109   1.834  21.273  1.00  0.00    -0.259 OA
HETATM   13  N   UNL     1       8.896   1.546  23.473  1.00  0.00    -0.315 N 
ATOM     14  HN  UNL     1       8.310   1.798  24.268  1.00  0.00     0.170 HD
BRANCH  13  15
HETATM   15  C   UNL     1       9.912   0.835  23.659  1.00  0.00     0.057 A 
HETATM   16  C   UNL     1      11.185   1.080  23.957  1.00  0.00     0.117 A 
HETATM   17  N   UNL     1      12.325   0.722  24.196  1.00  0.00    -0.373 N 
HETATM   18  C   UNL     1      12.148  -0.579  24.006  1.00  0.00     0.088 A 
ATOM     19  HN  UNL     1      13.154   1.256  24.459  1.00  0.00     0.164 HD
HETATM   20  C   UNL     1      11.066  -1.179  23.748  1.00  0.00     0.026 A 
HETATM   21  C   UNL     1       9.826  -0.729  23.569  1.00  0.00    -0.033 A 
HETATM   22  C   UNL     1       8.551  -1.493  23.293  1.00  0.00     0.050 C 
ENDBRANCH  13  15
ENDBRANCH  10  11
ENDBRANCH   1  10
BRANCH   1  23
HETATM   23  C   UNL     1       6.493   4.874  22.126  1.00  0.00    -0.006 C 
BRANCH  23  24
HETATM   24  C   UNL     1       6.948   5.552  22.815  1.00  0.00    -0.002 C 
BRANCH  24  25
HETATM   25  C   UNL     1       8.055   6.449  22.522  1.00  0.00    -0.001 C 
HETATM   26  C   UNL     1       9.178   6.219  23.328  1.00  0.00    -0.010 C 
HETATM   27  C   UNL     1       9.446   5.512  24.037  1.00  0.00     0.011 C 
ENDBRANCH  24  25
ENDBRANCH  23  24
ENDBRANCH   1  23
TORSDOF 9
ENDMDL
MODEL 4
REMARK VINA RESULT:    -5.926      2.459      5.695
REMARK INTER + INTRA:         -10.608
REMARK INTER:                  -9.452
REMARK INTRA:                  -1.156
REMARK UNBOUND:                -1.564
REMARK  9 active torsions:
REMARK  status: ('A' for Active; 'I' for Inactive)
REMARK    1  A    between atoms: S_2  and  N_5 
REMARK    2  A    between atoms: N_5  and  C_7 
REMARK    3  A    between atoms: C_8  and  C_9 
REMARK    4  A    between atoms: C_9  and  C_15 
REMARK    5  A    between atoms: C_9  and  C_10 
REMARK    6  A    between atoms: C_10  and  C_11 
REMARK    7  A    between atoms: C_11  and  C_12 
REMARK    8  A    between atoms: C_15  and  C_16 
REMARK       I    between atoms: C_16  and  N_18 
REMARK    9  A    between atoms: N_18  and  C_20 
ROOT
HETATM    1  C   UNL     1       6.515  -1.502  21.455  1.00  0.00     0.109 C 
ENDROOT
BRANCH   1   2
HETATM    2  C   UNL     1       6.635  -2.575  22.174  1.00  0.00     0.011 C 
HETATM    3  C   UNL     1       7.006  -3.750  22.300  1.00  0.00     0.097 C 
BRANCH   3   4
HETATM    4  N   UNL     1       7.550  -4.649  22.903  1.00  0.00    -0.296 N 
ATOM      5  HN  UNL     1       7.748  -5.509  22.391  1.00  0.00     0.177 HD
BRANCH   4   6
HETATM    6  S   UNL     1       7.988  -4.586  24.467  1.00  0.00     0.226 S 
HETATM    7  C   UNL     1       6.475  -4.881  25.331  1.00  0.00     0.186 C 
HETATM    8  O   UNL     1       8.883  -5.653  24.842  1.00  0.00    -0.206 OA
HETATM    9  O   UNL     1       8.482  -3.306  24.847  1.00  0.00    -0.206 OA
ENDBRANCH   4   6
ENDBRANCH   3   4
ENDBRANCH   1   2
BRANCH   1  10
HETATM   10  C   UNL     1       7.625  -1.106  21.698  1.00  0.00    -0.071 C 
BRANCH  10  11
HETATM   11  C   UNL     1       8.875  -0.685  21.895  1.00  0.00     0.289 C 
HETATM   12  O   UNL     1       9.331  -0.007  21.094  1.00  0.00    -0.259 OA
HETATM   13  N   UNL     1       9.388  -1.137  23.014  1.00  0.00    -0.315 N 
ATOM     14  HN  UNL     1       8.813  -1.710  23.632  1.00  0.00     0.170 HD
BRANCH  13  15
HETATM   15  C   UNL     1      10.571  -0.878  23.340  1.00  0.00     0.057 A 
HETATM   16  C   UNL     1      11.752  -1.443  23.104  1.00  0.00     0.117 A 
HETATM   17  N   UNL     1      12.964  -1.495  23.216  1.00  0.00    -0.373 N 
HETATM   18  C   UNL     1      13.113  -0.460  24.033  1.00  0.00     0.088 A 
ATOM     19  HN  UNL     1      13.649  -2.133  22.810  1.00  0.00     0.164 HD
HETATM   20  C   UNL     1      12.218   0.333  24.441  1.00  0.00     0.026 A 
HETATM   21  C   UNL     1      10.906   0.376  24.219  1.00  0.00    -0.033 A 
HETATM   22  C   UNL     1       9.875   1.370  24.706  1.00  0.00     0.050 C 
ENDBRANCH  13  15
ENDBRANCH  10  11
ENDBRANCH   1  10
BRANCH   1  23
HETATM   23  C   UNL     1       5.999  -1.267  19.937  1.00  0.00    -0.006 C 
BRANCH  23  24
HETATM   24  C   UNL     1       5.666  -0.363  19.475  1.00  0.00    -0.002 C 
BRANCH  24  25
HETATM   25  C   UNL     1       6.024   0.985  19.886  1.00  0.00    -0.001 C 
HETATM   26  C   UNL     1       4.946   1.878  19.846  1.00  0.00    -0.010 C 
HETATM   27  C   UNL     1       3.928   1.800  19.667  1.00  0.00     0.011 C 
ENDBRANCH  24  25
ENDBRANCH  23  24
ENDBRANCH   1  23
TORSDOF 9
ENDMDL
MODEL 5
REMARK VINA RESULT:    -5.906      2.860      5.694
REMARK INTER + INTRA:         -10.577
REMARK INTER:                  -9.088
REMARK INTRA:                  -1.489
REMARK UNBOUND:                -1.564
REMARK  9 active torsions:
REMARK  status: ('A' for Active; 'I' for Inactive)
REMARK    1  A    between atoms: S_2  and  N_5 
REMARK    2  A    between atoms: N_5  and  C_7 
REMARK    3  A    between atoms: C_8  and  C_9 
REMARK    4  A    between atoms: C_9  and  C_15 
REMARK    5  A    between atoms: C_9  and  C_10 
REMARK    6  A    between atoms: C_10  and  C_11 
REMARK    7  A    between atoms: C_11  and  C_12 
REMARK    8  A    between atoms: C_15  and  C_16 
REMARK       I    between atoms: C_16  and  N_18 
REMARK    9  A    between atoms: N_18  and  C_20 
ROOT
HETATM    1  C   UNL     1       5.939   3.023  22.148  1.00  0.00     0.109 C 
ENDROOT
BRANCH   1   2
HETATM    2  C   UNL     1       5.423   2.259  21.234  1.00  0.00     0.011 C 
HETATM    3  C   UNL     1       5.213   2.000  20.041  1.00  0.00     0.097 C 
BRANCH   3   4
HETATM    4  N   UNL     1       5.168   1.245  19.094  1.00  0.00    -0.296 N 
ATOM      5  HN  UNL     1       4.421   1.384  18.414  1.00  0.00     0.177 HD
BRANCH   4   6
HETATM    6  S   UNL     1       6.211   0.026  18.829  1.00  0.00     0.226 S 
HETATM    7  C   UNL     1       6.003  -1.010  20.246  1.00  0.00     0.186 C 
HETATM    8  O   UNL     1       5.854  -0.777  17.685  1.00  0.00    -0.206 OA
HETATM    9  O   UNL     1       7.565   0.463  18.784  1.00  0.00    -0.206 OA
ENDBRANCH   4   6
ENDBRANCH   3   4
ENDBRANCH   1   2
BRANCH   1  10
HETATM   10  C   UNL     1       6.726   2.193  22.524  1.00  0.00    -0.071 C 
BRANCH  10  11
HETATM   11  C   UNL     1       7.564   1.223  22.894  1.00  0.00     0.289 C 
HETATM   12  O   UNL     1       7.223   0.533  23.741  1.00  0.00    -0.259 OA
HETATM   13  N   UNL     1       8.675   1.226  22.199  1.00  0.00    -0.315 N 
ATOM     14  HN  UNL     1       8.793   1.904  21.446  1.00  0.00     0.170 HD
BRANCH  13  15
HETATM   15  C   UNL     1       9.596   0.411  22.440  1.00  0.00     0.057 A 
HETATM   16  C   UNL     1       9.841  -0.854  22.105  1.00  0.00     0.117 A 
HETATM   17  N   UNL     1      10.524  -1.862  22.125  1.00  0.00    -0.373 N 
HETATM   18  C   UNL     1      11.466  -1.424  22.951  1.00  0.00     0.088 A 
ATOM     19  HN  UNL     1      10.408  -2.761  21.656  1.00  0.00     0.164 HD
HETATM   20  C   UNL     1      11.581  -0.265  23.441  1.00  0.00     0.026 A 
HETATM   21  C   UNL     1      10.828   0.826  23.319  1.00  0.00    -0.033 A 
HETATM   22  C   UNL     1      11.025   2.207  23.902  1.00  0.00     0.050 C 
ENDBRANCH  13  15
ENDBRANCH  10  11
ENDBRANCH   1  10
BRANCH   1  23
HETATM   23  C   UNL     1       6.489   4.546  22.103  1.00  0.00    -0.006 C 
BRANCH  23  24
HETATM   24  C   UNL     1       7.210   5.017  22.735  1.00  0.00    -0.002 C 
BRANCH  24  25
HETATM   25  C   UNL     1       7.834   6.310  22.500  1.00  0.00    -0.001 C 
HETATM   26  C   UNL     1       9.046   6.469  23.184  1.00  0.00    -0.010 C 
HETATM   27  C   UNL     1       9.654   5.859  23.762  1.00  0.00     0.011 C 
ENDBRANCH  24  25
ENDBRANCH  23  24
ENDBRANCH   1  23
TORSDOF 9
ENDMDL
MODEL 6
REMARK VINA RESULT:    -5.825      2.260      2.752
REMARK INTER + INTRA:         -10.453
REMARK INTER:                  -9.194
REMARK INTRA:                  -1.258
REMARK UNBOUND:                -1.564
REMARK  9 active torsions:
REMARK  status: ('A' for Active; 'I' for Inactive)
REMARK    1  A    between atoms: S_2  and  N_5 
REMARK    2  A    between atoms: N_5  and  C_7 
REMARK    3  A    between atoms: C_8  and  C_9 
REMARK    4  A    between atoms: C_9  and  C_15 
REMARK    5  A    between atoms: C_9  and  C_10 
REMARK    6  A    between atoms: C_10  and  C_11 
REMARK    7  A    between atoms: C_11  and  C_12 
REMARK    8  A    between atoms: C_15  and  C_16 
REMARK       I    between atoms: C_16  and  N_18 
REMARK    9  A    between atoms: N_18  and  C_20 
ROOT
HETATM    1  C   UNL     1       9.879  -1.888  22.546  1.00  0.00     0.109 C 
ENDROOT
BRANCH   1   2
HETATM    2  C   UNL     1       8.880  -2.446  23.156  1.00  0.00     0.011 C 
HETATM    3  C   UNL     1       8.103  -3.401  23.298  1.00  0.00     0.097 C 
BRANCH   3   4
HETATM    4  N   UNL     1       7.500  -4.208  23.972  1.00  0.00    -0.296 N 
ATOM      5  HN  UNL     1       6.682  -4.652  23.556  1.00  0.00     0.177 HD
BRANCH   4   6
HETATM    6  S   UNL     1       7.899  -4.634  25.489  1.00  0.00     0.226 S 
HETATM    7  C   UNL     1       6.437  -5.422  26.094  1.00  0.00     0.186 C 
HETATM    8  O   UNL     1       8.944  -5.627  25.536  1.00  0.00    -0.206 OA
HETATM    9  O   UNL     1       8.181  -3.511  26.317  1.00  0.00    -0.206 OA
ENDBRANCH   4   6
ENDBRANCH   3   4
ENDBRANCH   1   2
BRANCH   1  10
HETATM   10  C   UNL     1       9.197  -1.074  21.980  1.00  0.00    -0.071 C 
BRANCH  10  11
HETATM   11  C   UNL     1       8.505  -0.141  21.325  1.00  0.00     0.289 C 
HETATM   12  O   UNL     1       9.102   0.698  20.826  1.00  0.00    -0.259 OA
HETATM   13  N   UNL     1       7.211  -0.351  21.366  1.00  0.00    -0.315 N 
ATOM     14  HN  UNL     1       6.854  -1.183  21.834  1.00  0.00     0.170 HD
BRANCH  13  15
HETATM   15  C   UNL     1       6.405   0.452  20.840  1.00  0.00     0.057 A 
HETATM   16  C   UNL     1       5.938   1.656  21.159  1.00  0.00     0.117 A 
HETATM   17  N   UNL     1       5.248   2.637  20.947  1.00  0.00    -0.373 N 
HETATM   18  C   UNL     1       4.652   2.201  19.844  1.00  0.00     0.088 A 
ATOM     19  HN  UNL     1       5.155   3.516  21.456  1.00  0.00     0.164 HD
HETATM   20  C   UNL     1       4.871   1.119  19.228  1.00  0.00     0.026 A 
HETATM   21  C   UNL     1       5.704   0.111  19.479  1.00  0.00    -0.033 A 
HETATM   22  C   UNL     1       5.955  -1.154  18.690  1.00  0.00     0.050 C 
ENDBRANCH  13  15
ENDBRANCH  10  11
ENDBRANCH   1  10
BRANCH   1  23
HETATM   23  C   UNL     1      11.314  -1.356  23.080  1.00  0.00    -0.006 C 
BRANCH  23  24
HETATM   24  C   UNL     1      11.531  -0.771  23.947  1.00  0.00    -0.002 C 
BRANCH  24  25
HETATM   25  C   UNL     1      11.856   0.647  23.959  1.00  0.00    -0.001 C 
HETATM   26  C   UNL     1      10.792   1.453  24.383  1.00  0.00    -0.010 C 
HETATM   27  C   UNL     1       9.844   1.284  24.767  1.00  0.00     0.011 C 
ENDBRANCH  24  25
ENDBRANCH  23  24
ENDBRANCH   1  23
TORSDOF 9
ENDMDL
MODEL 7
REMARK VINA RESULT:    -5.734      1.488      2.496
REMARK INTER + INTRA:         -10.315
REMARK INTER:                  -8.512
REMARK INTRA:                  -1.803
REMARK UNBOUND:                -1.564
REMARK  9 active torsions:
REMARK  status: ('A' for Active; 'I' for Inactive)
REMARK    1  A    between atoms: S_2  and  N_5 
REMARK    2  A    between atoms: N_5  and  C_7 
REMARK    3  A    between atoms: C_8  and  C_9 
REMARK    4  A    between atoms: C_9  and  C_15 
REMARK    5  A    between atoms: C_9  and  C_10 
REMARK    6  A    between atoms: C_10  and  C_11 
REMARK    7  A    between atoms: C_11  and  C_12 
REMARK    8  A    between atoms: C_15  and  C_16 
REMARK       I    between atoms: C_16  and  N_18 
REMARK    9  A    between atoms: N_18  and  C_20 
ROOT
HETATM    1  C   UNL     1      10.140  -0.604  22.688  1.00  0.00     0.109 C 
ENDROOT
BRANCH   1   2
HETATM    2  C   UNL     1       9.579  -1.727  22.359  1.00  0.00     0.011 C 
HETATM    3  C   UNL     1       8.791  -2.650  22.608  1.00  0.00     0.097 C 
BRANCH   3   4
HETATM    4  N   UNL     1       7.911  -3.426  22.305  1.00  0.00    -0.296 N 
ATOM      5  HN  UNL     1       8.186  -4.303  21.863  1.00  0.00     0.177 HD
BRANCH   4   6
HETATM    6  S   UNL     1       6.324  -3.172  22.552  1.00  0.00     0.226 S 
HETATM    7  C   UNL     1       5.869  -4.462  23.671  1.00  0.00     0.186 C 
HETATM    8  O   UNL     1       6.056  -1.930  23.235  1.00  0.00    -0.206 OA
HETATM    9  O   UNL     1       5.555  -3.314  21.363  1.00  0.00    -0.206 OA
ENDBRANCH   4   6
ENDBRANCH   3   4
ENDBRANCH   1   2
BRANCH   1  10
HETATM   10  C   UNL     1       9.336   0.073  22.101  1.00  0.00    -0.071 C 
BRANCH  10  11
HETATM   11  C   UNL     1       8.461   0.880  21.500  1.00  0.00     0.289 C 
HETATM   12  O   UNL     1       8.847   1.897  21.143  1.00  0.00    -0.259 OA
HETATM   13  N   UNL     1       7.263   0.352  21.417  1.00  0.00    -0.315 N 
ATOM     14  HN  UNL     1       7.109  -0.595  21.762  1.00  0.00     0.170 HD
BRANCH  13  15
HETATM   15  C   UNL     1       6.304   0.989  20.920  1.00  0.00     0.057 A 
HETATM   16  C   UNL     1       5.596   2.053  21.288  1.00  0.00     0.117 A 
HETATM   17  N   UNL     1       4.713   2.875  21.113  1.00  0.00    -0.373 N 
HETATM   18  C   UNL     1       4.220   2.371  19.989  1.00  0.00     0.088 A 
ATOM     19  HN  UNL     1       4.439   3.692  21.659  1.00  0.00     0.164 HD
HETATM   20  C   UNL     1       4.661   1.388  19.328  1.00  0.00     0.026 A 
HETATM   21  C   UNL     1       5.687   0.567  19.541  1.00  0.00    -0.033 A 
HETATM   22  C   UNL     1       6.197  -0.581  18.701  1.00  0.00     0.050 C 
ENDBRANCH  13  15
ENDBRANCH  10  11
ENDBRANCH   1  10
BRANCH   1  23
HETATM   23  C   UNL     1      10.645  -0.022  24.113  1.00  0.00    -0.006 C 
BRANCH  23  24
HETATM   24  C   UNL     1      10.265  -0.224  25.092  1.00  0.00    -0.002 C 
BRANCH  24  25
HETATM   25  C   UNL     1       8.935   0.109  25.575  1.00  0.00    -0.001 C 
HETATM   26  C   UNL     1       8.210  -1.009  26.008  1.00  0.00    -0.010 C 
HETATM   27  C   UNL     1       8.415  -2.016  26.143  1.00  0.00     0.011 C 
ENDBRANCH  24  25
ENDBRANCH  23  24
ENDBRANCH   1  23
TORSDOF 9
ENDMDL
MODEL 8
REMARK VINA RESULT:    -5.659      3.909      6.238
REMARK INTER + INTRA:         -10.200
REMARK INTER:                  -8.762
REMARK INTRA:                  -1.438
REMARK UNBOUND:                -1.564
REMARK  9 active torsions:
REMARK  status: ('A' for Active; 'I' for Inactive)
REMARK    1  A    between atoms: S_2  and  N_5 
REMARK    2  A    between atoms: N_5  and  C_7 
REMARK    3  A    between atoms: C_8  and  C_9 
REMARK    4  A    between atoms: C_9  and  C_15 
REMARK    5  A    between atoms: C_9  and  C_10 
REMARK    6  A    between atoms: C_10  and  C_11 
REMARK    7  A    between atoms: C_11  and  C_12 
REMARK    8  A    between atoms: C_15  and  C_16 
REMARK       I    between atoms: C_16  and  N_18 
REMARK    9  A    between atoms: N_18  and  C_20 
ROOT
HETATM    1  C   UNL     1       6.074  -3.897  25.196  1.00  0.00     0.109 C 
ENDROOT
BRANCH   1   2
HETATM    2  C   UNL     1       6.803  -4.712  25.894  1.00  0.00     0.011 C 
HETATM    3  C   UNL     1       7.187  -5.141  26.992  1.00  0.00     0.097 C 
BRANCH   3   4
HETATM    4  N   UNL     1       7.455  -6.035  27.765  1.00  0.00    -0.296 N 
ATOM      5  HN  UNL     1       8.422  -6.356  27.798  1.00  0.00     0.177 HD
BRANCH   4   6
HETATM    6  S   UNL     1       6.387  -6.759  28.754  1.00  0.00     0.226 S 
HETATM    7  C   UNL     1       5.734  -5.421  29.706  1.00  0.00     0.186 C 
HETATM    8  O   UNL     1       5.270  -7.335  28.045  1.00  0.00    -0.206 OA
HETATM    9  O   UNL     1       7.002  -7.686  29.641  1.00  0.00    -0.206 OA
ENDBRANCH   4   6
ENDBRANCH   3   4
ENDBRANCH   1   2
BRANCH   1  10
HETATM   10  C   UNL     1       7.011  -3.422  24.607  1.00  0.00    -0.071 C 
BRANCH  10  11
HETATM   11  C   UNL     1       8.018  -2.825  23.969  1.00  0.00     0.289 C 
HETATM   12  O   UNL     1       8.967  -3.442  23.798  1.00  0.00    -0.259 OA
HETATM   13  N   UNL     1       7.741  -1.588  23.634  1.00  0.00    -0.315 N 
ATOM     14  HN  UNL     1       6.816  -1.210  23.839  1.00  0.00     0.170 HD
BRANCH  13  15
HETATM   15  C   UNL     1       8.589  -0.861  23.065  1.00  0.00     0.057 A 
HETATM   16  C   UNL     1       8.886  -0.582  21.799  1.00  0.00     0.117 A 
HETATM   17  N   UNL     1       9.538  -0.008  20.945  1.00  0.00    -0.373 N 
HETATM   18  C   UNL     1      10.399   0.597  21.754  1.00  0.00     0.088 A 
ATOM     19  HN  UNL     1       9.451   0.004  19.928  1.00  0.00     0.164 HD
HETATM   20  C   UNL     1      10.401   0.591  23.018  1.00  0.00     0.026 A 
HETATM   21  C   UNL     1       9.605  -0.007  23.901  1.00  0.00    -0.033 A 
HETATM   22  C   UNL     1       9.628   0.042  25.412  1.00  0.00     0.050 C 
ENDBRANCH  13  15
ENDBRANCH  10  11
ENDBRANCH   1  10
BRANCH   1  23
HETATM   23  C   UNL     1       4.732  -4.125  24.318  1.00  0.00    -0.006 C 
BRANCH  23  24
HETATM   24  C   UNL     1       4.639  -4.486  23.317  1.00  0.00    -0.002 C 
BRANCH  24  25
HETATM   25  C   UNL     1       4.878  -5.853  22.879  1.00  0.00    -0.001 C 
HETATM   26  C   UNL     1       5.890  -5.954  21.916  1.00  0.00    -0.010 C 
HETATM   27  C   UNL     1       6.571  -5.299  21.488  1.00  0.00     0.011 C 
ENDBRANCH  24  25
ENDBRANCH  23  24
ENDBRANCH   1  23
TORSDOF 9
ENDMDL
MODEL 9
REMARK VINA RESULT:    -5.626      4.124      7.648
REMARK INTER + INTRA:         -10.150
REMARK INTER:                  -8.972
REMARK INTRA:                  -1.178
REMARK UNBOUND:                -1.564
REMARK  9 active torsions:
REMARK  status: ('A' for Active; 'I' for Inactive)
REMARK    1  A    between atoms: S_2  and  N_5 
REMARK    2  A    between atoms: N_5  and  C_7 
REMARK    3  A    between atoms: C_8  and  C_9 
REMARK    4  A    between atoms: C_9  and  C_15 
REMARK    5  A    between atoms: C_9  and  C_10 
REMARK    6  A    between atoms: C_10  and  C_11 
REMARK    7  A    between atoms: C_11  and  C_12 
REMARK    8  A    between atoms: C_15  and  C_16 
REMARK       I    between atoms: C_16  and  N_18 
REMARK    9  A    between atoms: N_18  and  C_20 
ROOT
HETATM    1  C   UNL     1       4.723  -5.296  24.571  1.00  0.00     0.109 C 
ENDROOT
BRANCH   1   2
HETATM    2  C   UNL     1       5.012  -5.663  25.782  1.00  0.00     0.011 C 
HETATM    3  C   UNL     1       4.856  -6.435  26.738  1.00  0.00     0.097 C 
BRANCH   3   4
HETATM    4  N   UNL     1       5.271  -7.134  27.637  1.00  0.00    -0.296 N 
ATOM      5  HN  UNL     1       4.908  -8.085  27.701  1.00  0.00     0.177 HD
BRANCH   4   6
HETATM    6  S   UNL     1       6.364  -6.669  28.747  1.00  0.00     0.226 S 
HETATM    7  C   UNL     1       5.476  -5.503  29.736  1.00  0.00     0.186 C 
HETATM    8  O   UNL     1       6.753  -7.739  29.633  1.00  0.00    -0.206 OA
HETATM    9  O   UNL     1       7.485  -6.009  28.170  1.00  0.00    -0.206 OA
ENDBRANCH   4   6
ENDBRANCH   3   4
ENDBRANCH   1   2
BRANCH   1  10
HETATM   10  C   UNL     1       5.836  -4.905  24.328  1.00  0.00    -0.071 C 
BRANCH  10  11
HETATM   11  C   UNL     1       7.046  -4.462  23.985  1.00  0.00     0.289 C 
HETATM   12  O   UNL     1       7.880  -5.240  23.891  1.00  0.00    -0.259 OA
HETATM   13  N   UNL     1       7.075  -3.163  23.807  1.00  0.00    -0.315 N 
ATOM     14  HN  UNL     1       6.213  -2.626  23.900  1.00  0.00     0.170 HD
BRANCH  13  15
HETATM   15  C   UNL     1       8.142  -2.569  23.523  1.00  0.00     0.057 A 
HETATM   16  C   UNL     1       8.800  -2.311  22.396  1.00  0.00     0.117 A 
HETATM   17  N   UNL     1       9.732  -1.829  21.777  1.00  0.00    -0.373 N 
HETATM   18  C   UNL     1      10.429  -1.389  22.817  1.00  0.00     0.088 A 
ATOM     19  HN  UNL     1       9.918  -1.780  20.775  1.00  0.00     0.164 HD
HETATM   20  C   UNL     1      10.097  -1.425  24.036  1.00  0.00     0.026 A 
HETATM   21  C   UNL     1       9.016  -1.908  24.645  1.00  0.00    -0.033 A 
HETATM   22  C   UNL     1       8.648  -1.899  26.111  1.00  0.00     0.050 C 
ENDBRANCH  13  15
ENDBRANCH  10  11
ENDBRANCH   1  10
BRANCH   1  23
HETATM   23  C   UNL     1       3.963  -6.058  23.361  1.00  0.00    -0.006 C 
BRANCH  23  24
HETATM   24  C   UNL     1       2.914  -6.202  23.214  1.00  0.00    -0.002 C 
BRANCH  24  25
HETATM   25  C   UNL     1       1.859  -5.315  23.677  1.00  0.00    -0.001 C 
HETATM   26  C   UNL     1       0.663  -5.462  22.964  1.00  0.00    -0.010 C 
HETATM   27  C   UNL     1       0.314  -6.107  22.231  1.00  0.00     0.011 C 
ENDBRANCH  24  25
ENDBRANCH  23  24
ENDBRANCH   1  23
TORSDOF 9
ENDMDL
