REMARK  9 active torsions:
REMARK  status: ('A' for Active; 'I' for Inactive)
REMARK    1  A    between atoms: S_2  and  N_5 
REMARK    2  A    between atoms: N_5  and  C_7 
REMARK    3  A    between atoms: C_8  and  C_9 
REMARK    4  A    between atoms: C_9  and  C_15 
REMARK    5  A    between atoms: C_9  and  C_10 
REMARK    6  A    between atoms: C_10  and  C_11 
REMARK    7  A    between atoms: C_11  and  C_12 
REMARK    8  A    between atoms: C_15  and  C_16 
REMARK       I    between atoms: C_16  and  N_18 
REMARK    9  A    between atoms: N_18  and  C_20 
ROOT
HETATM    1  C   UNL     1      10.310  -1.056  23.292  1.00  0.00     0.109 C 
ENDROOT
BRANCH   1   2
HETATM    2  C   UNL     1       9.412  -1.972  23.485  1.00  0.00     0.011 C 
HETATM    3  C   UNL     1       8.974  -2.929  24.139  1.00  0.00     0.097 C 
BRANCH   3   4
HETATM    4  N   UNL     1       8.085  -3.539  24.692  1.00  0.00    -0.296 N 
ATOM      5  HN  UNL     1       7.182  -3.588  24.221  1.00  0.00     0.177 HD
BRANCH   4   6
HETATM    6  S   UNL     1       8.226  -4.285  26.130  1.00  0.00     0.226 S 
HETATM    7  C   UNL     1       6.585  -4.848  26.465  1.00  0.00     0.186 C 
HETATM    8  O   UNL     1       9.055  -5.464  26.070  1.00  0.00    -0.206 OA
HETATM    9  O   UNL     1       8.620  -3.398  27.171  1.00  0.00    -0.206 OA
ENDBRANCH   4   6
ENDBRANCH   3   4
ENDBRANCH   1   2
BRANCH   1  10
HETATM   10  C   UNL     1       9.732  -0.558  22.361  1.00  0.00    -0.071 C 
BRANCH  10  11
HETATM   11  C   UNL     1       9.071   0.052  21.376  1.00  0.00     0.289 C 
HETATM   12  O   UNL     1       9.531   1.011  20.954  1.00  0.00    -0.259 OA
HETATM   13  N   UNL     1       7.967  -0.574  21.047  1.00  0.00    -0.315 N 
ATOM     14  HN  UNL     1       7.730  -1.449  21.514  1.00  0.00     0.170 HD
BRANCH  13  15
HETATM   15  C   UNL     1       7.197  -0.118  20.169  1.00  0.00     0.057 A 
HETATM   16  C   UNL     1       7.230  -0.043  18.841  1.00  0.00     0.117 A 
HETATM   17  N   UNL     1       6.751   0.272  17.766  1.00  0.00    -0.373 N 
HETATM   18  C   UNL     1       5.666   0.883  18.226  1.00  0.00     0.088 A 
ATOM     19  HN  UNL     1       7.080   0.116  16.813  1.00  0.00     0.164 HD
HETATM   20  C   UNL     1       5.287   0.976  19.428  1.00  0.00     0.026 A 
HETATM   21  C   UNL     1       5.829   0.540  20.563  1.00  0.00    -0.033 A 
HETATM   22  C   UNL     1       5.318   0.648  21.982  1.00  0.00     0.050 C 
ENDBRANCH  13  15
ENDBRANCH  10  11
ENDBRANCH   1  10
BRANCH   1  23
HETATM   23  C   UNL     1      11.038  -0.022  24.305  1.00  0.00    -0.006 C 
BRANCH  23  24
HETATM   24  C   UNL     1      12.051   0.318  24.301  1.00  0.00    -0.002 C 
BRANCH  24  25
HETATM   25  C   UNL     1      13.112  -0.176  23.437  1.00  0.00    -0.001 C 
HETATM   26  C   UNL     1      12.715  -1.257  22.640  1.00  0.00    -0.010 C 
HETATM   27  C   UNL     1      11.822  -1.750  22.455  1.00  0.00     0.011 C 
ENDBRANCH  24  25
ENDBRANCH  23  24
ENDBRANCH   1  23
TORSDOF 9
