stable:False satoms:21 tatoms:24 sratio:0.875
  -OEChem-07092417303D

 24 24  0     1  0  0  0  0  0999 V2000
    7.4976   -2.8959   21.9946 H   0  0  0  0  0  0  0  0  0  0  0  0
   10.8169   -2.1546   24.7658 C   0  0  0  0  0  0  0  0  0  0  0  0
   11.1276   -3.0519   25.3209 H   0  0  0  0  0  0  0  0  0  0  0  0
    8.9792   -3.3099   24.5386 H   0  0  0  0  0  0  0  0  0  0  0  0
    9.3500   -2.3014   24.3789 C   0  0  0  0  0  0  0  0  0  0  0  0
    9.9543   -2.4775   22.3608 H   0  0  0  0  0  0  0  0  0  0  0  0
    8.7510   -1.6294   24.9899 H   0  0  0  0  0  0  0  0  0  0  0  0
    8.3173    0.6580   21.7053 H   0  0  0  0  0  0  0  0  0  0  0  0
   10.9759   -1.2604   25.3737 H   0  0  0  0  0  0  0  0  0  0  0  0
   11.4517   -2.0302   23.8882 H   0  0  0  0  0  0  0  0  0  0  0  0
    9.4048   -0.4025   23.0568 C   0  0  1  0  0  0  0  0  0  0  0  0
    9.2223   -1.8649   22.8780 C   0  0  2  0  0  0  0  0  0  0  0  0
   10.3999   -0.0768   22.7534 H   0  0  0  0  0  0  0  0  0  0  0  0
    6.3826   -0.1892   20.7893 H   0  0  0  0  0  0  0  0  0  0  0  0
    7.9066    0.3761   22.7124 C   0  0  0  0  0  0  0  0  0  0  0  0
    8.0465   -1.4481   20.3629 C   0  0  0  0  0  0  0  0  0  0  0  0
    7.1359   -0.4171   22.8581 H   0  0  0  0  0  0  0  0  0  0  0  0
    7.0337   -0.3740   19.9530 C   0  0  0  0  0  0  0  0  0  0  0  0
    8.7761   -1.8502   19.4844 O   0  0  0  0  0  0  0  0  0  0  0  0
    7.5474    0.5367   19.6674 H   0  0  0  0  0  0  0  0  0  0  0  0
    6.4597   -0.6974   19.0860 H   0  0  0  0  0  0  0  0  0  0  0  0
    8.7393    0.3596   23.8727 O   0  0  0  0  0  0  0  0  0  0  0  0
    8.0849   -2.0448   21.6903 C   0  5  1  0  0  0  0  0  0  0  0  0
    7.2230    1.2555   22.8152 H   0  0  0  0  0  0  0  0  0  0  0  0
 18 21  1  0  0  0  0
 16 19  2  0  0  0  0
 18 20  1  0  0  0  0
 16 18  1  0  0  0  0
 14 18  1  0  0  0  0
 16 23  1  0  0  0  0
  1 23  1  0  0  0  0
 12 23  1  0  0  0  0
  8 15  1  0  0  0  0
  6 12  1  0  0  0  0
 15 24  1  0  0  0  0
 15 17  1  0  0  0  0
 11 15  1  0  0  0  0
 15 22  1  0  0  0  0
 11 13  1  0  0  0  0
 11 12  1  0  0  0  0
  5 12  1  0  0  0  0
 11 22  1  0  0  0  0
  2 10  1  0  0  0  0
  4  5  1  0  0  0  0
  2  5  1  0  0  0  0
  5  7  1  0  0  0  0
  2  3  1  0  0  0  0
  2  9  1  0  0  0  0
M  CHG  1  23  -1
M  END
> <Shapegauss>
-77.841248

$$$$
