stable:False satoms:21 tatoms:24 sratio:0.875
  -OEChem-08052420553D

 25 25  0     1  0  0  0  0  0999 V2000
  -10.4176   -0.2505  -23.9701 H   0  0  0  0  0  0  0  0  0  0  0  0
  -10.1991    4.2475  -23.5486 C   0  0  0  0  0  0  0  0  0  0  0  0
   -9.8536    4.9628  -24.3094 H   0  0  0  0  0  0  0  0  0  0  0  0
   -9.3325    2.8147  -24.9485 H   0  0  0  0  0  0  0  0  0  0  0  0
   -9.7213    2.8526  -23.9349 C   0  0  0  0  0  0  0  0  0  0  0  0
  -11.7323    2.3285  -24.3228 H   0  0  0  0  0  0  0  0  0  0  0  0
   -8.9203    2.5512  -23.2631 H   0  0  0  0  0  0  0  0  0  0  0  0
  -11.5635    0.0446  -21.5486 H   0  0  0  0  0  0  0  0  0  0  0  0
   -9.8231    4.5332  -22.5630 H   0  0  0  0  0  0  0  0  0  0  0  0
  -11.2858    4.2916  -23.4728 H   0  0  0  0  0  0  0  0  0  0  0  0
  -10.9619    1.8535  -22.2557 C   0  0  1  0  0  0  0  0  0  0  0  0
  -10.9347    1.8784  -23.7398 C   0  0  2  0  0  0  0  0  0  0  0  0
  -11.7728    2.4610  -21.8536 H   0  0  0  0  0  0  0  0  0  0  0  0
  -11.2388   -1.8871  -22.7581 H   0  0  0  0  0  0  0  0  0  0  0  0
  -10.4811    0.2838  -21.7317 C   0  0  0  0  0  0  0  0  0  0  0  0
  -12.4303   -0.4953  -23.8439 C   0  0  0  0  0  0  0  0  0  0  0  0
   -9.8990   -0.1335  -22.5869 H   0  0  0  0  0  0  0  0  0  0  0  0
  -12.2832   -1.7506  -22.9778 C   0  0  0  0  0  0  0  0  0  0  0  0
  -13.5409   -0.2756  -24.2729 O   0  0  0  0  0  0  0  0  0  0  0  0
  -12.8498   -1.6419  -22.0601 H   0  0  0  0  0  0  0  0  0  0  0  0
  -12.6824   -2.6227  -23.4934 H   0  0  0  0  0  0  0  0  0  0  0  0
   -9.9578    1.5876  -21.4744 O   0  0  0  0  0  0  0  0  0  0  0  0
  -11.3055    0.3433  -24.2326 C   0  0  1  0  0  0  0  0  0  0  0  0
  -10.0718   -0.3929  -20.9407 H   0  0  0  0  0  0  0  0  0  0  0  0
  -11.3856    0.4189  -25.3270 H   0  0  0  0  0  0  0  0  0  0  0  0
 18 21  1  0  0  0  0
 16 19  2  0  0  0  0
 18 20  1  0  0  0  0
 16 18  1  0  0  0  0
 14 18  1  0  0  0  0
 16 23  1  0  0  0  0
  1 23  1  0  0  0  0
 12 23  1  0  0  0  0
  8 15  1  0  0  0  0
  6 12  1  0  0  0  0
 15 24  1  0  0  0  0
 15 17  1  0  0  0  0
 11 15  1  0  0  0  0
 15 22  1  0  0  0  0
 11 13  1  0  0  0  0
 11 12  1  0  0  0  0
  5 12  1  0  0  0  0
 11 22  1  0  0  0  0
  2 10  1  0  0  0  0
  4  5  1  0  0  0  0
  2  5  1  0  0  0  0
  5  7  1  0  0  0  0
  2  3  1  0  0  0  0
  2  9  1  0  0  0  0
 23 25  1  0  0  0  0
M  END
> <Chemgauss4>
-5.724941

$$$$
