stable:False satoms:21 tatoms:24 sratio:0.875
  -OEChem-08052420553D

 25 25  0     1  0  0  0  0  0999 V2000
   10.3270    0.2690   24.3340 H   0  0  0  0  0  0  0  0  0  0  0  0
   10.5296    4.7061   23.4804 C   0  0  0  0  0  0  0  0  0  0  0  0
   10.3210    5.5217   24.1883 H   0  0  0  0  0  0  0  0  0  0  0  0
    9.6397    3.5107   25.0750 H   0  0  0  0  0  0  0  0  0  0  0  0
    9.9467    3.4127   24.0376 C   0  0  0  0  0  0  0  0  0  0  0  0
   11.9193    2.7121   24.3320 H   0  0  0  0  0  0  0  0  0  0  0  0
    9.0674    3.1391   23.4581 H   0  0  0  0  0  0  0  0  0  0  0  0
   11.2962    0.2138   21.8198 H   0  0  0  0  0  0  0  0  0  0  0  0
   10.1055    4.9387   22.5004 H   0  0  0  0  0  0  0  0  0  0  0  0
   11.6055    4.6251   23.3234 H   0  0  0  0  0  0  0  0  0  0  0  0
   10.9395    2.1346   22.3830 C   0  0  1  0  0  0  0  0  0  0  0  0
   11.0357    2.2990   23.8553 C   0  0  2  0  0  0  0  0  0  0  0  0
   11.7722    2.6111   21.8653 H   0  0  0  0  0  0  0  0  0  0  0  0
   10.8778   -1.5516   23.2369 H   0  0  0  0  0  0  0  0  0  0  0  0
   10.2619    0.5846   22.0546 C   0  0  0  0  0  0  0  0  0  0  0  0
   12.2878   -0.2028   24.0900 C   0  0  0  0  0  0  0  0  0  0  0  0
    9.7121    0.3134   22.9865 H   0  0  0  0  0  0  0  0  0  0  0  0
   11.9449   -1.5093   23.3668 C   0  0  0  0  0  0  0  0  0  0  0  0
   13.4461   -0.0660   24.4147 O   0  0  0  0  0  0  0  0  0  0  0  0
   12.4431   -1.5476   22.4049 H   0  0  0  0  0  0  0  0  0  0  0  0
   12.2947   -2.3681   23.9375 H   0  0  0  0  0  0  0  0  0  0  0  0
    9.8535    1.9081   21.7057 O   0  0  0  0  0  0  0  0  0  0  0  0
   11.2886    0.7849   24.4718 C   0  0  1  0  0  0  0  0  0  0  0  0
    9.7234   -0.1138   21.3665 H   0  0  0  0  0  0  0  0  0  0  0  0
   11.4647    0.9519   25.5447 H   0  0  0  0  0  0  0  0  0  0  0  0
 18 21  1  0  0  0  0
 16 19  2  0  0  0  0
 18 20  1  0  0  0  0
 16 18  1  0  0  0  0
 14 18  1  0  0  0  0
 16 23  1  0  0  0  0
  1 23  1  0  0  0  0
 12 23  1  0  0  0  0
  8 15  1  0  0  0  0
  6 12  1  0  0  0  0
 15 24  1  0  0  0  0
 15 17  1  0  0  0  0
 11 15  1  0  0  0  0
 15 22  1  0  0  0  0
 11 13  1  0  0  0  0
 11 12  1  0  0  0  0
  5 12  1  0  0  0  0
 11 22  1  0  0  0  0
  2 10  1  0  0  0  0
  4  5  1  0  0  0  0
  2  5  1  0  0  0  0
  5  7  1  0  0  0  0
  2  3  1  0  0  0  0
  2  9  1  0  0  0  0
 23 25  1  0  0  0  0
M  END
> <Chemgauss4>
-5.812600

$$$$
