REMARK  3 active torsions:
REMARK  status: ('A' for Active; 'I' for Inactive)
REMARK    1  A    between atoms: S_2  and  N_5 
REMARK    2  A    between atoms: N_5  and  C_7 
REMARK    3  A    between atoms: C_15  and  C_16 
REMARK       I    between atoms: C_16  and  N_18 
ROOT
HETATM    1  C   UNL     1       8.926  -2.894  24.127  1.00  0.00     0.109 C 
HETATM    2  C   UNL     1       9.418  -1.927  23.473  1.00  0.00    -0.008 A 
HETATM    3  C   UNL     1      10.405  -1.142  23.189  1.00  0.00     0.057 A 
HETATM    4  C   UNL     1      11.071   0.057  24.273  1.00  0.00    -0.007 C 
HETATM    5  C   UNL     1      11.991   0.307  24.225  1.00  0.00    -0.025 C 
HETATM    6  C   UNL     1      13.166  -0.264  23.384  1.00  0.00     0.053 C 
HETATM    7  C   UNL     1      12.743  -1.238  22.712  1.00  0.00    -0.025 C 
HETATM    8  C   UNL     1      11.712  -1.730  22.596  1.00  0.00    -0.007 C 
HETATM    9  C   UNL     1       9.654  -0.635  22.383  1.00  0.00     0.040 A 
ENDROOT
BRANCH   9  10
HETATM   10  C   UNL     1       9.030   0.078  21.402  1.00  0.00     0.255 C 
HETATM   11  N   UNL     1       7.934  -0.573  21.049  1.00  0.00    -0.314 N 
HETATM   12  C   UNL     1       7.258  -0.100  20.144  1.00  0.00     0.121 A 
ATOM     13  HN  UNL     1       7.661  -1.439  21.514  1.00  0.00     0.170 HD
HETATM   14  C   UNL     1       7.176   0.018  18.887  1.00  0.00    -0.010 A 
HETATM   15  C   UNL     1       5.806   0.565  20.571  1.00  0.00     0.071 A 
HETATM   16  N   UNL     1       6.730   0.351  17.737  1.00  0.00    -0.331 N 
HETATM   17  C   UNL     1       5.686   0.849  18.267  1.00  0.00     0.099 A 
ATOM     18  HN  UNL     1       7.072   0.256  16.781  1.00  0.00     0.175 HD
HETATM   19  C   UNL     1       5.271   0.965  19.412  1.00  0.00     0.044 A 
HETATM   20 CL   UNL     1       5.334   0.638  22.074  1.00  0.00    -0.081 Cl
HETATM   21  O   UNL     1       9.531   1.063  21.064  1.00  0.00    -0.268 OA
ENDBRANCH   9  10
BRANCH   1  22
HETATM   22  N   UNL     1       8.129  -3.567  24.644  1.00  0.00    -0.295 N 
ATOM     23  HN  UNL     1       7.268  -3.701  24.114  1.00  0.00     0.177 HD
BRANCH  22  24
HETATM   24  S   UNL     1       8.179  -4.346  26.118  1.00  0.00     0.226 S 
HETATM   25  C   UNL     1       6.734  -4.828  26.445  1.00  0.00     0.186 C 
HETATM   26  O   UNL     1       9.047  -5.492  25.988  1.00  0.00    -0.206 OA
HETATM   27  O   UNL     1       8.654  -3.446  27.133  1.00  0.00    -0.206 OA
ENDBRANCH  22  24
ENDBRANCH   1  22
TORSDOF 3
