MODEL 1
REMARK VINA RESULT:    -8.045      0.000      0.000
REMARK INTER + INTRA:         -10.056
REMARK INTER:                  -9.455
REMARK INTRA:                  -0.601
REMARK UNBOUND:                -0.601
REMARK  3 active torsions:
REMARK  status: ('A' for Active; 'I' for Inactive)
REMARK    1  A    between atoms: S_2  and  N_5 
REMARK    2  A    between atoms: N_5  and  C_7 
REMARK    3  A    between atoms: C_15  and  C_16 
REMARK       I    between atoms: C_16  and  N_18 
ROOT
HETATM    1  C   UNL     1       8.593  -0.173  20.988  1.00  0.00     0.109 C 
HETATM    2  C   UNL     1       9.031  -0.826  21.981  1.00  0.00    -0.008 A 
HETATM    3  C   UNL     1       9.913  -1.018  22.907  1.00  0.00     0.057 A 
HETATM    4  C   UNL     1      11.559  -1.534  22.625  1.00  0.00    -0.007 C 
HETATM    5  C   UNL     1      12.264  -1.276  23.215  1.00  0.00    -0.025 C 
HETATM    6  C   UNL     1      12.282  -0.304  24.426  1.00  0.00     0.053 C 
HETATM    7  C   UNL     1      11.140   0.206  24.550  1.00  0.00    -0.025 C 
HETATM    8  C   UNL     1      10.149   0.072  23.985  1.00  0.00    -0.007 C 
HETATM    9  C   UNL     1       9.216  -1.947  23.255  1.00  0.00     0.040 A 
ENDROOT
BRANCH   9  10
HETATM   10  C   UNL     1       8.607  -3.009  23.856  1.00  0.00     0.255 C 
HETATM   11  N   UNL     1       8.640  -2.820  25.165  1.00  0.00    -0.314 N 
HETATM   12  C   UNL     1       8.171  -3.698  25.878  1.00  0.00     0.121 A 
ATOM     13  HN  UNL     1       9.043  -1.973  25.566  1.00  0.00     0.170 HD
HETATM   14  C   UNL     1       8.404  -4.834  26.385  1.00  0.00    -0.010 A 
HETATM   15  C   UNL     1       6.742  -3.355  26.635  1.00  0.00     0.071 A 
HETATM   16  N   UNL     1       8.240  -5.905  27.062  1.00  0.00    -0.331 N 
HETATM   17  C   UNL     1       7.132  -5.472  27.511  1.00  0.00     0.099 A 
ATOM     18  HN  UNL     1       8.780  -6.761  27.190  1.00  0.00     0.175 HD
HETATM   19  C   UNL     1       6.480  -4.447  27.361  1.00  0.00     0.044 A 
HETATM   20 CL   UNL     1       5.989  -1.987  26.411  1.00  0.00    -0.081 Cl
HETATM   21  O   UNL     1       8.194  -3.841  23.168  1.00  0.00    -0.268 OA
ENDBRANCH   9  10
BRANCH   1  22
HETATM   22  N   UNL     1       8.023   0.055  19.999  1.00  0.00    -0.295 N 
ATOM     23  HN  UNL     1       8.618   0.265  19.197  1.00  0.00     0.177 HD
BRANCH  22  24
HETATM   24  S   UNL     1       6.384   0.092  19.691  1.00  0.00     0.226 S 
HETATM   25  C   UNL     1       6.197   0.233  18.151  1.00  0.00     0.186 C 
HETATM   26  O   UNL     1       5.820  -1.162  20.128  1.00  0.00    -0.206 OA
HETATM   27  O   UNL     1       5.781   1.201  20.378  1.00  0.00    -0.206 OA
ENDBRANCH  22  24
ENDBRANCH   1  22
TORSDOF 3
ENDMDL
MODEL 2
REMARK VINA RESULT:    -8.005      2.688      6.468
REMARK INTER + INTRA:         -10.009
REMARK INTER:                  -9.579
REMARK INTRA:                  -0.430
REMARK UNBOUND:                -0.601
REMARK  3 active torsions:
REMARK  status: ('A' for Active; 'I' for Inactive)
REMARK    1  A    between atoms: S_2  and  N_5 
REMARK    2  A    between atoms: N_5  and  C_7 
REMARK    3  A    between atoms: C_15  and  C_16 
REMARK       I    between atoms: C_16  and  N_18 
ROOT
HETATM    1  C   UNL     1       8.649  -3.250  23.930  1.00  0.00     0.109 C 
HETATM    2  C   UNL     1       9.114  -2.168  23.462  1.00  0.00    -0.008 A 
HETATM    3  C   UNL     1       9.979  -1.208  23.484  1.00  0.00     0.057 A 
HETATM    4  C   UNL     1      10.092   0.005  24.737  1.00  0.00    -0.007 C 
HETATM    5  C   UNL     1      10.928   0.412  24.955  1.00  0.00    -0.025 C 
HETATM    6  C   UNL     1      12.372   0.112  24.466  1.00  0.00     0.053 C 
HETATM    7  C   UNL     1      12.335  -0.869  23.681  1.00  0.00    -0.025 C 
HETATM    8  C   UNL     1      11.483  -1.520  23.269  1.00  0.00    -0.007 C 
HETATM    9  C   UNL     1       9.396  -0.780  22.510  1.00  0.00     0.040 A 
ENDROOT
BRANCH   9  10
HETATM   10  C   UNL     1       8.943  -0.114  21.409  1.00  0.00     0.255 C 
HETATM   11  N   UNL     1       7.651  -0.366  21.275  1.00  0.00    -0.314 N 
HETATM   12  C   UNL     1       7.075   0.119  20.309  1.00  0.00     0.121 A 
ATOM     13  HN  UNL     1       7.152  -0.944  21.951  1.00  0.00     0.170 HD
HETATM   14  C   UNL     1       6.877  -0.016  19.067  1.00  0.00    -0.010 A 
HETATM   15  C   UNL     1       6.022   1.355  20.616  1.00  0.00     0.071 A 
HETATM   16  N   UNL     1       6.432   0.204  17.889  1.00  0.00    -0.331 N 
HETATM   17  C   UNL     1       5.711   1.159  18.321  1.00  0.00     0.099 A 
ATOM     18  HN  UNL     1       6.590  -0.216  16.974  1.00  0.00     0.175 HD
HETATM   19  C   UNL     1       5.517   1.666  19.417  1.00  0.00     0.044 A 
HETATM   20 CL   UNL     1       5.806   1.922  22.072  1.00  0.00    -0.081 Cl
HETATM   21  O   UNL     1       9.712   0.513  20.817  1.00  0.00    -0.268 OA
ENDBRANCH   9  10
BRANCH   1  22
HETATM   22  N   UNL     1       7.879  -4.084  24.187  1.00  0.00    -0.295 N 
ATOM     23  HN  UNL     1       7.386  -4.479  23.386  1.00  0.00     0.177 HD
BRANCH  22  24
HETATM   24  S   UNL     1       7.459  -4.735  25.664  1.00  0.00     0.226 S 
HETATM   25  C   UNL     1       7.010  -3.561  26.585  1.00  0.00     0.186 C 
HETATM   26  O   UNL     1       6.348  -5.632  25.457  1.00  0.00    -0.206 OA
HETATM   27  O   UNL     1       8.584  -5.424  26.235  1.00  0.00    -0.206 OA
ENDBRANCH  22  24
ENDBRANCH   1  22
TORSDOF 3
ENDMDL
MODEL 3
REMARK VINA RESULT:    -7.807      2.663      5.208
REMARK INTER + INTRA:          -9.777
REMARK INTER:                  -9.297
REMARK INTRA:                  -0.480
REMARK UNBOUND:                -0.601
REMARK  3 active torsions:
REMARK  status: ('A' for Active; 'I' for Inactive)
REMARK    1  A    between atoms: S_2  and  N_5 
REMARK    2  A    between atoms: N_5  and  C_7 
REMARK    3  A    between atoms: C_15  and  C_16 
REMARK       I    between atoms: C_16  and  N_18 
ROOT
HETATM    1  C   UNL     1       5.879  -1.690  20.586  1.00  0.00     0.109 C 
HETATM    2  C   UNL     1       6.399  -2.391  21.504  1.00  0.00    -0.008 A 
HETATM    3  C   UNL     1       6.387  -3.425  22.280  1.00  0.00     0.057 A 
HETATM    4  C   UNL     1       5.243  -3.686  23.576  1.00  0.00    -0.007 C 
HETATM    5  C   UNL     1       4.988  -4.568  23.838  1.00  0.00    -0.025 C 
HETATM    6  C   UNL     1       5.317  -5.955  23.220  1.00  0.00     0.053 C 
HETATM    7  C   UNL     1       6.010  -5.781  22.186  1.00  0.00    -0.025 C 
HETATM    8  C   UNL     1       6.436  -4.849  21.668  1.00  0.00    -0.007 C 
HETATM    9  C   UNL     1       7.443  -3.008  22.706  1.00  0.00     0.040 A 
ENDROOT
BRANCH   9  10
HETATM   10  C   UNL     1       8.636  -2.774  23.324  1.00  0.00     0.255 C 
HETATM   11  N   UNL     1       9.144  -1.655  22.835  1.00  0.00    -0.314 N 
HETATM   12  C   UNL     1      10.242  -1.301  23.246  1.00  0.00     0.121 A 
ATOM     13  HN  UNL     1       8.639  -1.105  22.140  1.00  0.00     0.170 HD
HETATM   14  C   UNL     1      11.486  -1.506  23.137  1.00  0.00    -0.010 A 
HETATM   15  C   UNL     1      10.274   0.019  24.240  1.00  0.00     0.071 A 
HETATM   16  N   UNL     1      12.745  -1.390  23.324  1.00  0.00    -0.331 N 
HETATM   17  C   UNL     1      12.556  -0.399  24.100  1.00  0.00     0.099 A 
ATOM     18  HN  UNL     1      13.568  -1.889  22.987  1.00  0.00     0.175 HD
HETATM   19  C   UNL     1      11.572   0.203  24.507  1.00  0.00     0.044 A 
HETATM   20 CL   UNL     1       8.953   0.758  24.684  1.00  0.00    -0.081 Cl
HETATM   21  O   UNL     1       8.981  -3.542  24.115  1.00  0.00    -0.268 OA
ENDBRANCH   9  10
BRANCH   1  22
HETATM   22  N   UNL     1       5.618  -0.754  19.945  1.00  0.00    -0.295 N 
ATOM     23  HN  UNL     1       4.646  -0.697  19.641  1.00  0.00     0.177 HD
BRANCH  22  24
HETATM   24  S   UNL     1       6.588   0.507  19.446  1.00  0.00     0.226 S 
HETATM   25  C   UNL     1       5.976   1.082  18.133  1.00  0.00     0.186 C 
HETATM   26  O   UNL     1       6.560   1.524  20.471  1.00  0.00    -0.206 OA
HETATM   27  O   UNL     1       7.926   0.036  19.216  1.00  0.00    -0.206 OA
ENDBRANCH  22  24
ENDBRANCH   1  22
TORSDOF 3
ENDMDL
MODEL 4
REMARK VINA RESULT:    -7.334     14.274     16.562
REMARK INTER + INTRA:          -9.221
REMARK INTER:                  -8.640
REMARK INTRA:                  -0.581
REMARK UNBOUND:                -0.601
REMARK  3 active torsions:
REMARK  status: ('A' for Active; 'I' for Inactive)
REMARK    1  A    between atoms: S_2  and  N_5 
REMARK    2  A    between atoms: N_5  and  C_7 
REMARK    3  A    between atoms: C_15  and  C_16 
REMARK       I    between atoms: C_16  and  N_18 
ROOT
HETATM    1  C   UNL     1      24.371  -3.525  24.234  1.00  0.00     0.109 C 
HETATM    2  C   UNL     1      23.693  -2.623  23.658  1.00  0.00    -0.008 A 
HETATM    3  C   UNL     1      23.059  -1.497  23.685  1.00  0.00     0.057 A 
HETATM    4  C   UNL     1      21.560  -1.215  24.539  1.00  0.00    -0.007 C 
HETATM    5  C   UNL     1      21.345  -0.351  24.884  1.00  0.00    -0.025 C 
HETATM    6  C   UNL     1      22.177   0.959  24.958  1.00  0.00     0.053 C 
HETATM    7  C   UNL     1      23.322   0.735  24.493  1.00  0.00    -0.025 C 
HETATM    8  C   UNL     1      23.821  -0.191  24.031  1.00  0.00    -0.007 C 
HETATM    9  C   UNL     1      22.861  -1.682  22.502  1.00  0.00     0.040 A 
ENDROOT
BRANCH   9  10
HETATM   10  C   UNL     1      22.532  -1.639  21.180  1.00  0.00     0.255 C 
HETATM   11  N   UNL     1      23.644  -1.495  20.479  1.00  0.00    -0.314 N 
HETATM   12  C   UNL     1      23.542  -1.396  19.263  1.00  0.00     0.121 A 
ATOM     13  HN  UNL     1      24.556  -1.468  20.936  1.00  0.00     0.170 HD
HETATM   14  C   UNL     1      23.259  -0.596  18.325  1.00  0.00    -0.010 A 
HETATM   15  C   UNL     1      24.051  -2.690  18.367  1.00  0.00     0.071 A 
HETATM   16  N   UNL     1      23.067  -0.146  17.145  1.00  0.00    -0.331 N 
HETATM   17  C   UNL     1      23.462  -1.247  16.643  1.00  0.00     0.099 A 
ATOM     18  HN  UNL     1      22.733   0.737  16.760  1.00  0.00     0.175 HD
HETATM   19  C   UNL     1      23.863  -2.308  17.099  1.00  0.00     0.044 A 
HETATM   20 CL   UNL     1      24.591  -4.009  19.042  1.00  0.00    -0.081 Cl
HETATM   21  O   UNL     1      21.411  -1.725  20.911  1.00  0.00    -0.268 OA
ENDBRANCH   9  10
BRANCH   1  22
HETATM   22  N   UNL     1      24.819  -4.576  24.458  1.00  0.00    -0.295 N 
ATOM     23  HN  UNL     1      25.732  -4.754  24.039  1.00  0.00     0.177 HD
BRANCH  22  24
HETATM   24  S   UNL     1      24.199  -5.834  25.361  1.00  0.00     0.226 S 
HETATM   25  C   UNL     1      25.369  -6.433  26.198  1.00  0.00     0.186 C 
HETATM   26  O   UNL     1      23.201  -5.295  26.252  1.00  0.00    -0.206 OA
HETATM   27  O   UNL     1      23.637  -6.831  24.491  1.00  0.00    -0.206 OA
ENDBRANCH  22  24
ENDBRANCH   1  22
TORSDOF 3
ENDMDL
MODEL 5
REMARK VINA RESULT:    -7.114     14.403     16.515
REMARK INTER + INTRA:          -8.962
REMARK INTER:                  -8.469
REMARK INTRA:                  -0.493
REMARK UNBOUND:                -0.601
REMARK  3 active torsions:
REMARK  status: ('A' for Active; 'I' for Inactive)
REMARK    1  A    between atoms: S_2  and  N_5 
REMARK    2  A    between atoms: N_5  and  C_7 
REMARK    3  A    between atoms: C_15  and  C_16 
REMARK       I    between atoms: C_16  and  N_18 
ROOT
HETATM    1  C   UNL     1      23.642  -4.574  24.677  1.00  0.00     0.109 C 
HETATM    2  C   UNL     1      23.339  -3.479  25.236  1.00  0.00    -0.008 A 
HETATM    3  C   UNL     1      22.702  -2.354  25.246  1.00  0.00     0.057 A 
HETATM    4  C   UNL     1      23.036  -1.008  24.182  1.00  0.00    -0.007 C 
HETATM    5  C   UNL     1      22.346  -0.403  23.920  1.00  0.00    -0.025 C 
HETATM    6  C   UNL     1      20.812  -0.429  24.170  1.00  0.00     0.053 C 
HETATM    7  C   UNL     1      20.525  -1.478  24.800  1.00  0.00    -0.025 C 
HETATM    8  C   UNL     1      21.151  -2.346  25.216  1.00  0.00    -0.007 C 
HETATM    9  C   UNL     1      23.199  -2.183  26.338  1.00  0.00     0.040 A 
ENDROOT
BRANCH   9  10
HETATM   10  C   UNL     1      23.599  -1.769  27.575  1.00  0.00     0.255 C 
HETATM   11  N   UNL     1      23.805  -2.839  28.324  1.00  0.00    -0.314 N 
HETATM   12  C   UNL     1      24.134  -2.662  29.490  1.00  0.00     0.121 A 
ATOM     13  HN  UNL     1      23.693  -3.779  27.945  1.00  0.00     0.170 HD
HETATM   14  C   UNL     1      23.696  -2.367  30.640  1.00  0.00    -0.010 A 
HETATM   15  C   UNL     1      25.698  -3.027  29.884  1.00  0.00     0.071 A 
HETATM   16  N   UNL     1      23.679  -2.125  31.895  1.00  0.00    -0.331 N 
HETATM   17  C   UNL     1      24.914  -2.416  31.986  1.00  0.00     0.099 A 
ATOM     18  HN  UNL     1      22.964  -1.823  32.556  1.00  0.00     0.175 HD
HETATM   19  C   UNL     1      25.775  -2.780  31.197  1.00  0.00     0.044 A 
HETATM   20 CL   UNL     1      26.733  -3.528  28.805  1.00  0.00    -0.081 Cl
HETATM   21  O   UNL     1      23.683  -0.630  27.749  1.00  0.00    -0.268 OA
ENDBRANCH   9  10
BRANCH   1  22
HETATM   22  N   UNL     1      24.256  -5.524  24.400  1.00  0.00    -0.295 N 
ATOM     23  HN  UNL     1      24.692  -5.502  23.478  1.00  0.00     0.177 HD
BRANCH  22  24
HETATM   24  S   UNL     1      24.534  -6.913  25.279  1.00  0.00     0.226 S 
HETATM   25  C   UNL     1      26.077  -7.100  25.390  1.00  0.00     0.186 C 
HETATM   26  O   UNL     1      23.980  -6.725  26.599  1.00  0.00    -0.206 OA
HETATM   27  O   UNL     1      23.935  -8.040  24.619  1.00  0.00    -0.206 OA
ENDBRANCH  22  24
ENDBRANCH   1  22
TORSDOF 3
ENDMDL
MODEL 6
REMARK VINA RESULT:    -6.987      6.607      8.807
REMARK INTER + INTRA:          -8.813
REMARK INTER:                  -8.216
REMARK INTRA:                  -0.598
REMARK UNBOUND:                -0.601
REMARK  3 active torsions:
REMARK  status: ('A' for Active; 'I' for Inactive)
REMARK    1  A    between atoms: S_2  and  N_5 
REMARK    2  A    between atoms: N_5  and  C_7 
REMARK    3  A    between atoms: C_15  and  C_16 
REMARK       I    between atoms: C_16  and  N_18 
ROOT
HETATM    1  C   UNL     1       5.566  -6.381  25.971  1.00  0.00     0.109 C 
HETATM    2  C   UNL     1       4.957  -6.057  24.909  1.00  0.00    -0.008 A 
HETATM    3  C   UNL     1       4.946  -5.522  23.732  1.00  0.00     0.057 A 
HETATM    4  C   UNL     1       5.142  -3.815  23.408  1.00  0.00    -0.007 C 
HETATM    5  C   UNL     1       5.534  -3.511  22.593  1.00  0.00    -0.025 C 
HETATM    6  C   UNL     1       6.209  -4.286  21.428  1.00  0.00     0.053 C 
HETATM    7  C   UNL     1       6.223  -5.509  21.714  1.00  0.00    -0.025 C 
HETATM    8  C   UNL     1       5.832  -6.117  22.607  1.00  0.00    -0.007 C 
HETATM    9  C   UNL     1       3.777  -5.844  23.694  1.00  0.00     0.040 A 
ENDROOT
BRANCH   9  10
HETATM   10  C   UNL     1       2.475  -6.117  23.392  1.00  0.00     0.255 C 
HETATM   11  N   UNL     1       2.394  -7.381  23.009  1.00  0.00    -0.314 N 
HETATM   12  C   UNL     1       1.299  -7.800  22.658  1.00  0.00     0.121 A 
ATOM     13  HN  UNL     1       3.216  -7.985  23.005  1.00  0.00     0.170 HD
HETATM   14  C   UNL     1       0.473  -7.817  21.700  1.00  0.00    -0.010 A 
HETATM   15  C   UNL     1       0.546  -8.859  23.680  1.00  0.00     0.071 A 
HETATM   16  N   UNL     1      -0.578  -8.081  21.022  1.00  0.00    -0.331 N 
HETATM   17  C   UNL     1      -1.008  -8.837  21.951  1.00  0.00     0.099 A 
ATOM     18  HN  UNL     1      -0.930  -7.800  20.107  1.00  0.00     0.175 HD
HETATM   19  C   UNL     1      -0.590  -9.177  23.050  1.00  0.00     0.044 A 
HETATM   20 CL   UNL     1       1.179  -9.272  25.064  1.00  0.00    -0.081 Cl
HETATM   21  O   UNL     1       1.713  -5.257  23.511  1.00  0.00    -0.268 OA
ENDBRANCH   9  10
BRANCH   1  22
HETATM   22  N   UNL     1       5.738  -6.644  27.092  1.00  0.00    -0.295 N 
ATOM     23  HN  UNL     1       5.302  -7.512  27.404  1.00  0.00     0.177 HD
BRANCH  22  24
HETATM   24  S   UNL     1       6.587  -5.819  28.267  1.00  0.00     0.226 S 
HETATM   25  C   UNL     1       5.586  -4.876  28.998  1.00  0.00     0.186 C 
HETATM   26  O   UNL     1       7.105  -6.786  29.205  1.00  0.00    -0.206 OA
HETATM   27  O   UNL     1       7.648  -5.060  27.664  1.00  0.00    -0.206 OA
ENDBRANCH  22  24
ENDBRANCH   1  22
TORSDOF 3
ENDMDL
MODEL 7
REMARK VINA RESULT:    -6.751      4.584      7.058
REMARK INTER + INTRA:          -8.535
REMARK INTER:                  -7.973
REMARK INTRA:                  -0.562
REMARK UNBOUND:                -0.601
REMARK  3 active torsions:
REMARK  status: ('A' for Active; 'I' for Inactive)
REMARK    1  A    between atoms: S_2  and  N_5 
REMARK    2  A    between atoms: N_5  and  C_7 
REMARK    3  A    between atoms: C_15  and  C_16 
REMARK       I    between atoms: C_16  and  N_18 
ROOT
HETATM    1  C   UNL     1       8.716   4.464  25.030  1.00  0.00     0.109 C 
HETATM    2  C   UNL     1       8.728   3.423  24.308  1.00  0.00    -0.008 A 
HETATM    3  C   UNL     1       9.219   2.267  24.002  1.00  0.00     0.057 A 
HETATM    4  C   UNL     1      10.811   2.004  23.329  1.00  0.00    -0.007 C 
HETATM    5  C   UNL     1      11.290   1.196  23.498  1.00  0.00    -0.025 C 
HETATM    6  C   UNL     1      10.974  -0.007  24.429  1.00  0.00     0.053 C 
HETATM    7  C   UNL     1       9.907   0.233  25.048  1.00  0.00    -0.025 C 
HETATM    8  C   UNL     1       9.163   1.108  25.031  1.00  0.00    -0.007 C 
HETATM    9  C   UNL     1       8.368   2.233  23.139  1.00  0.00     0.040 A 
ENDROOT
BRANCH   9  10
HETATM   10  C   UNL     1       7.501   1.940  22.127  1.00  0.00     0.255 C 
HETATM   11  N   UNL     1       7.952   0.872  21.490  1.00  0.00    -0.314 N 
HETATM   12  C   UNL     1       7.319   0.481  20.518  1.00  0.00     0.121 A 
ATOM     13  HN  UNL     1       8.797   0.391  21.797  1.00  0.00     0.170 HD
HETATM   14  C   UNL     1       7.100   0.694  19.290  1.00  0.00    -0.010 A 
HETATM   15  C   UNL     1       6.474  -0.928  20.700  1.00  0.00     0.071 A 
HETATM   16  N   UNL     1       6.623   0.560  18.112  1.00  0.00    -0.331 N 
HETATM   17  C   UNL     1       6.011  -0.500  18.462  1.00  0.00     0.099 A 
ATOM     18  HN  UNL     1       6.700   1.088  17.244  1.00  0.00     0.175 HD
HETATM   19  C   UNL     1       5.916  -1.137  19.502  1.00  0.00     0.044 A 
HETATM   20 CL   UNL     1       6.437  -1.706  22.071  1.00  0.00    -0.081 Cl
HETATM   21  O   UNL     1       6.581   2.629  22.003  1.00  0.00    -0.268 OA
ENDBRANCH   9  10
BRANCH   1  22
HETATM   22  N   UNL     1       8.542   5.572  25.342  1.00  0.00    -0.295 N 
ATOM     23  HN  UNL     1       7.567   5.871  25.347  1.00  0.00     0.177 HD
BRANCH  22  24
HETATM   24  S   UNL     1       9.643   6.745  25.784  1.00  0.00     0.226 S 
HETATM   25  C   UNL     1       9.029   8.128  25.416  1.00  0.00     0.186 C 
HETATM   26  O   UNL     1       9.827   6.669  27.213  1.00  0.00    -0.206 OA
HETATM   27  O   UNL     1      10.884   6.540  25.088  1.00  0.00    -0.206 OA
ENDBRANCH  22  24
ENDBRANCH   1  22
TORSDOF 3
ENDMDL
MODEL 8
REMARK VINA RESULT:    -6.692      3.280      5.722
REMARK INTER + INTRA:          -8.466
REMARK INTER:                  -7.982
REMARK INTRA:                  -0.485
REMARK UNBOUND:                -0.601
REMARK  3 active torsions:
REMARK  status: ('A' for Active; 'I' for Inactive)
REMARK    1  A    between atoms: S_2  and  N_5 
REMARK    2  A    between atoms: N_5  and  C_7 
REMARK    3  A    between atoms: C_15  and  C_16 
REMARK       I    between atoms: C_16  and  N_18 
ROOT
HETATM    1  C   UNL     1       6.275  -1.394  21.015  1.00  0.00     0.109 C 
HETATM    2  C   UNL     1       6.892  -1.379  22.121  1.00  0.00    -0.008 A 
HETATM    3  C   UNL     1       7.297  -1.971  23.197  1.00  0.00     0.057 A 
HETATM    4  C   UNL     1       6.254  -2.514  24.490  1.00  0.00    -0.007 C 
HETATM    5  C   UNL     1       6.487  -3.268  25.027  1.00  0.00    -0.025 C 
HETATM    6  C   UNL     1       7.654  -4.288  24.910  1.00  0.00     0.053 C 
HETATM    7  C   UNL     1       8.329  -4.011  23.887  1.00  0.00    -0.025 C 
HETATM    8  C   UNL     1       8.259  -3.183  23.094  1.00  0.00    -0.007 C 
HETATM    9  C   UNL     1       7.825  -0.915  23.474  1.00  0.00     0.040 A 
ENDROOT
BRANCH   9  10
HETATM   10  C   UNL     1       8.523   0.134  23.995  1.00  0.00     0.255 C 
HETATM   11  N   UNL     1       8.728   1.017  23.031  1.00  0.00    -0.314 N 
HETATM   12  C   UNL     1       9.380   2.017  23.305  1.00  0.00     0.121 A 
ATOM     13  HN  UNL     1       8.356   0.870  22.093  1.00  0.00     0.170 HD
HETATM   14  C   UNL     1      10.555   2.452  23.479  1.00  0.00    -0.010 A 
HETATM   15  C   UNL     1       8.550   3.444  23.389  1.00  0.00     0.071 A 
HETATM   16  N   UNL     1      11.514   3.261  23.719  1.00  0.00    -0.331 N 
HETATM   17  C   UNL     1      10.700   4.236  23.782  1.00  0.00     0.099 A 
ATOM     18  HN  UNL     1      12.524   3.164  23.820  1.00  0.00     0.175 HD
HETATM   19  C   UNL     1       9.488   4.357  23.662  1.00  0.00     0.044 A 
HETATM   20 CL   UNL     1       6.988   3.512  23.183  1.00  0.00    -0.081 Cl
HETATM   21  O   UNL     1       8.803   0.079  25.115  1.00  0.00    -0.268 OA
ENDBRANCH   9  10
BRANCH   1  22
HETATM   22  N   UNL     1       5.677  -1.005  20.095  1.00  0.00    -0.295 N 
ATOM     23  HN  UNL     1       4.801  -1.495  19.911  1.00  0.00     0.177 HD
BRANCH  22  24
HETATM   24  S   UNL     1       6.031   0.230  19.032  1.00  0.00     0.226 S 
HETATM   25  C   UNL     1       5.246   1.492  19.499  1.00  0.00     0.186 C 
HETATM   26  O   UNL     1       7.448   0.494  19.110  1.00  0.00    -0.206 OA
HETATM   27  O   UNL     1       5.644  -0.143  17.700  1.00  0.00    -0.206 OA
ENDBRANCH  22  24
ENDBRANCH   1  22
TORSDOF 3
ENDMDL
MODEL 9
REMARK VINA RESULT:    -6.398     14.731     17.121
REMARK INTER + INTRA:          -8.121
REMARK INTER:                  -7.582
REMARK INTRA:                  -0.539
REMARK UNBOUND:                -0.601
REMARK  3 active torsions:
REMARK  status: ('A' for Active; 'I' for Inactive)
REMARK    1  A    between atoms: S_2  and  N_5 
REMARK    2  A    between atoms: N_5  and  C_7 
REMARK    3  A    between atoms: C_15  and  C_16 
REMARK       I    between atoms: C_16  and  N_18 
ROOT
HETATM    1  C   UNL     1      25.838  -6.855  21.899  1.00  0.00     0.109 C 
HETATM    2  C   UNL     1      25.397  -6.178  22.874  1.00  0.00    -0.008 A 
HETATM    3  C   UNL     1      25.298  -5.960  24.145  1.00  0.00     0.057 A 
HETATM    4  C   UNL     1      24.443  -6.989  25.270  1.00  0.00    -0.007 C 
HETATM    5  C   UNL     1      24.715  -7.054  26.182  1.00  0.00    -0.025 C 
HETATM    6  C   UNL     1      25.949  -6.474  26.927  1.00  0.00     0.053 C 
HETATM    7  C   UNL     1      26.668  -5.861  26.098  1.00  0.00    -0.025 C 
HETATM    8  C   UNL     1      26.570  -5.646  24.975  1.00  0.00    -0.007 C 
HETATM    9  C   UNL     1      24.629  -4.996  23.838  1.00  0.00     0.040 A 
ENDROOT
BRANCH   9  10
HETATM   10  C   UNL     1      23.885  -3.856  23.759  1.00  0.00     0.255 C 
HETATM   11  N   UNL     1      23.174  -3.748  24.870  1.00  0.00    -0.314 N 
HETATM   12  C   UNL     1      22.408  -2.797  24.964  1.00  0.00     0.121 A 
ATOM     13  HN  UNL     1      23.260  -4.432  25.621  1.00  0.00     0.170 HD
HETATM   14  C   UNL     1      21.275  -2.361  24.607  1.00  0.00    -0.010 A 
HETATM   15  C   UNL     1      22.831  -1.604  26.027  1.00  0.00     0.071 A 
HETATM   16  N   UNL     1      20.265  -1.586  24.496  1.00  0.00    -0.331 N 
HETATM   17  C   UNL     1      20.783  -0.765  25.318  1.00  0.00     0.099 A 
ATOM     18  HN  UNL     1      19.396  -1.615  23.964  1.00  0.00     0.175 HD
HETATM   19  C   UNL     1      21.825  -0.726  25.959  1.00  0.00     0.044 A 
HETATM   20 CL   UNL     1      24.181  -1.657  26.842  1.00  0.00    -0.081 Cl
HETATM   21  O   UNL     1      23.990  -3.221  22.800  1.00  0.00    -0.268 OA
ENDBRANCH   9  10
BRANCH   1  22
HETATM   22  N   UNL     1      25.899  -7.317  20.832  1.00  0.00    -0.295 N 
ATOM     23  HN  UNL     1      25.755  -6.659  20.067  1.00  0.00     0.177 HD
BRANCH  22  24
HETATM   24  S   UNL     1      26.187  -8.892  20.363  1.00  0.00     0.226 S 
HETATM   25  C   UNL     1      27.065  -8.846  19.076  1.00  0.00     0.186 C 
HETATM   26  O   UNL     1      26.923  -9.545  21.419  1.00  0.00    -0.206 OA
HETATM   27  O   UNL     1      24.943  -9.562  20.103  1.00  0.00    -0.206 OA
ENDBRANCH  22  24
ENDBRANCH   1  22
TORSDOF 3
ENDMDL
