stable:False satoms:5 tatoms:24 sratio:0.20833333333333334
  -OEChem-07092417453D

 24 26  0     1  0  0  0  0  0999 V2000
    6.4979   -4.9102   26.4020 C   0  0  0  0  0  0  0  0  0  0  0  0
    8.2530   -4.2819   26.0925 S   0  0  0  0  0  0  0  0  0  0  0  0
    9.0774   -5.4564   26.0625 O   0  0  0  0  0  0  0  0  0  0  0  0
    8.5768   -3.3715   27.1513 O   0  0  0  0  0  0  0  0  0  0  0  0
    8.1362   -3.5685   24.6294 N   0  0  0  0  0  0  0  0  0  0  0  0
    8.9225   -2.8866   24.1126 C   0  0  0  0  0  0  0  0  0  0  0  0
    9.3962   -1.9700   23.5317 C   0  0  0  0  0  0  0  0  0  0  0  0
   10.3437   -1.0843   23.2400 C   0  0  1  0  0  0  0  0  0  0  0  0
   11.0959    0.0210   24.2965 C   0  0  0  0  0  0  0  0  0  0  0  0
   12.1777    0.3175   24.2864 C   0  0  0  0  0  0  0  0  0  0  0  0
   13.1466   -0.1489   23.5252 C   0  0  0  0  0  0  0  0  0  0  0  0
   12.7779   -1.2188   22.6793 C   0  0  0  0  0  0  0  0  0  0  0  0
   11.8583   -1.6671   22.5562 C   0  0  0  0  0  0  0  0  0  0  0  0
    9.6715   -0.6301   22.3866 C   0  0  3  0  0  0  0  0  0  0  0  0
    9.0461    0.0365   21.3945 C   0  0  0  0  0  0  0  0  0  0  0  0
    9.5699    0.9753   20.9667 O   0  0  0  0  0  0  0  0  0  0  0  0
    7.9058   -0.5507   21.1068 N   0  0  0  0  0  0  0  0  0  0  0  0
    7.1737   -0.0879   20.1984 C   0  0  0  0  0  0  0  0  0  0  0  0
    7.2434   -0.0152   18.8750 C   0  0  0  0  0  0  0  0  0  0  0  0
    6.7532    0.3106   17.7491 N   0  0  0  0  0  0  0  0  0  0  0  0
    5.6901    0.7987   18.2547 C   0  0  0  0  0  0  0  0  0  0  0  0
    5.2560    0.9103   19.3471 C   0  0  0  0  0  0  0  0  0  0  0  0
    5.7938    0.5269   20.5014 C   0  0  0  0  0  0  0  0  0  0  0  0
    5.2205    0.6612   21.9507 Cl  0  0  0  0  0  0  0  0  0  0  0  0
 20 21  2  0  0  0  0
 19 20  1  0  0  0  0
 21 22  1  0  0  0  0
 18 19  2  0  0  0  0
 22 23  2  0  0  0  0
 18 23  1  0  0  0  0
 17 18  1  0  0  0  0
 23 24  1  0  0  0  0
 15 16  2  0  0  0  0
 15 17  1  0  0  0  0
 14 15  1  0  0  0  0
  8 14  1  0  0  0  0
  7 14  1  0  0  0  0
 12 13  1  0  0  0  0
  8 13  1  0  0  0  0
 11 12  2  0  0  0  0
  7  8  1  0  0  0  0
  8  9  1  0  0  0  0
 10 11  1  0  0  0  0
  6  7  2  3  0  0  0
  5  6  1  0  0  0  0
  9 10  2  0  0  0  0
  2  5  1  0  0  0  0
  2  3  2  0  0  0  0
  1  2  1  0  0  0  0
  2  4  2  0  0  0  0
M  END
> <Shapegauss>
-286.753113

$$$$
