stable:False satoms:5 tatoms:24 sratio:0.20833333333333334
  -OEChem-08062413063D

 40 42  0     1  0  0  0  0  0999 V2000
   -6.0039   -5.2975  -25.7509 C   0  0  0  0  0  0  0  0  0  0  0  0
   -7.7919   -4.6875  -25.7081 S   0  0  0  0  0  0  0  0  0  0  0  0
   -8.5984   -5.8747  -25.7003 O   0  0  0  0  0  0  0  0  0  0  0  0
   -7.9907   -3.8574  -26.8598 O   0  0  0  0  0  0  0  0  0  0  0  0
   -7.8702   -3.8750  -24.2950 N   0  0  0  0  0  0  0  0  0  0  0  0
   -8.7242   -3.1769  -23.9294 C   0  0  0  0  0  0  0  0  0  0  0  0
   -9.2792   -2.2336  -23.4775 C   0  0  0  0  0  0  0  0  0  0  0  0
  -10.2672   -1.3508  -23.3690 C   0  0  1  0  0  0  0  0  0  0  0  0
  -10.8938   -0.3353  -24.5855 C   0  0  0  0  0  0  0  0  0  0  0  0
  -11.9718   -0.0620  -24.7317 C   0  0  0  0  0  0  0  0  0  0  0  0
  -13.0232   -0.4968  -24.0674 C   0  0  0  0  0  0  0  0  0  0  0  0
  -12.7509   -1.4993  -23.1098 C   0  0  0  0  0  0  0  0  0  0  0  0
  -11.8486   -1.9186  -22.8416 C   0  0  0  0  0  0  0  0  0  0  0  0
   -9.7142   -0.8260  -22.4716 C   0  0  3  0  0  0  0  0  0  0  0  0
   -9.2279   -0.0810  -21.4576 C   0  0  0  0  0  0  0  0  0  0  0  0
   -9.8135    0.8731  -21.1650 O   0  0  0  0  0  0  0  0  0  0  0  0
   -8.1258   -0.6230  -20.9892 N   0  0  0  0  0  0  0  0  0  0  0  0
   -7.5204   -0.0846  -20.0306 C   0  0  0  0  0  0  0  0  0  0  0  0
   -7.7579    0.0754  -18.7346 C   0  0  0  0  0  0  0  0  0  0  0  0
   -7.4183    0.4866  -17.5815 N   0  0  0  0  0  0  0  0  0  0  0  0
   -6.3061    0.9622  -17.9825 C   0  0  0  0  0  0  0  0  0  0  0  0
   -5.7387    1.0094  -19.0170 C   0  0  0  0  0  0  0  0  0  0  0  0
   -6.1212    0.5378  -20.2002 C   0  0  0  0  0  0  0  0  0  0  0  0
   -5.3709    0.5866  -21.5720 Cl  0  0  0  0  0  0  0  0  0  0  0  0
   -5.8327   -5.8684  -26.6754 H   0  0  0  0  0  0  0  0  0  0  0  0
   -5.3216   -4.4351  -25.7209 H   0  0  0  0  0  0  0  0  0  0  0  0
   -5.8162   -5.9439  -24.8809 H   0  0  0  0  0  0  0  0  0  0  0  0
   -7.0495   -3.3038  -24.2823 H   0  0  0  0  0  0  0  0  0  0  0  0
   -9.5767   -3.8041  -24.1442 H   0  0  0  0  0  0  0  0  0  0  0  0
  -10.1847    0.0856  -25.2830 H   0  0  0  0  0  0  0  0  0  0  0  0
  -12.1740    0.6494  -25.5187 H   0  0  0  0  0  0  0  0  0  0  0  0
  -14.0185   -0.1156  -24.2418 H   0  0  0  0  0  0  0  0  0  0  0  0
  -13.6127   -1.8813  -22.5829 H   0  0  0  0  0  0  0  0  0  0  0  0
  -11.8223   -1.8768  -21.7427 H   0  0  0  0  0  0  0  0  0  0  0  0
  -11.9058   -2.9677  -23.1674 H   0  0  0  0  0  0  0  0  0  0  0  0
  -10.2253   -1.4860  -21.7552 H   0  0  0  0  0  0  0  0  0  0  0  0
   -7.7697   -1.4640  -21.3966 H   0  0  0  0  0  0  0  0  0  0  0  0
   -8.7314   -0.3676  -18.5845 H   0  0  0  0  0  0  0  0  0  0  0  0
   -5.7498    1.4348  -17.1864 H   0  0  0  0  0  0  0  0  0  0  0  0
   -4.7781    1.5027  -19.0000 H   0  0  0  0  0  0  0  0  0  0  0  0
 20 21  2  0  0  0  0
 19 20  1  0  0  0  0
 21 22  1  0  0  0  0
 18 19  2  0  0  0  0
 22 23  2  0  0  0  0
 18 23  1  0  0  0  0
 17 18  1  0  0  0  0
 23 24  1  0  0  0  0
 15 16  2  0  0  0  0
 15 17  1  0  0  0  0
 14 15  1  0  0  0  0
  8 14  1  0  0  0  0
  7 14  1  0  0  0  0
 12 13  1  0  0  0  0
  8 13  1  0  0  0  0
 11 12  2  0  0  0  0
  7  8  1  0  0  0  0
  8  9  1  0  0  0  0
 10 11  1  0  0  0  0
  6  7  2  3  0  0  0
  5  6  1  0  0  0  0
  9 10  2  0  0  0  0
  2  5  1  0  0  0  0
  2  3  2  0  0  0  0
  1  2  1  0  0  0  0
  2  4  2  0  0  0  0
  1 25  1  0  0  0  0
  1 26  1  0  0  0  0
  1 27  1  0  0  0  0
  5 28  1  0  0  0  0
  6 29  1  0  0  0  0
  9 30  1  0  0  0  0
 10 31  1  0  0  0  0
 11 32  1  0  0  0  0
 12 33  1  0  0  0  0
 13 34  1  0  0  0  0
 13 35  1  0  0  0  0
 14 36  1  0  0  0  0
 17 37  1  0  0  0  0
 19 38  1  0  0  0  0
 21 39  1  0  0  0  0
 22 40  1  0  0  0  0
M  END
> <Chemgauss4>
-12.753095

$$$$
