stable:False satoms:5 tatoms:24 sratio:0.20833333333333334
  -OEChem-08062413063D

 40 42  0     1  0  0  0  0  0999 V2000
    6.1523   -5.0310   26.2598 C   0  0  0  0  0  0  0  0  0  0  0  0
    7.9278   -4.4035   26.1024 S   0  0  0  0  0  0  0  0  0  0  0  0
    8.7491   -5.5805   26.1119 O   0  0  0  0  0  0  0  0  0  0  0  0
    8.1698   -3.5171   27.2026 O   0  0  0  0  0  0  0  0  0  0  0  0
    7.9279   -3.6588   24.6503 N   0  0  0  0  0  0  0  0  0  0  0  0
    8.7540   -2.9693   24.2114 C   0  0  0  0  0  0  0  0  0  0  0  0
    9.2740   -2.0426   23.6892 C   0  0  0  0  0  0  0  0  0  0  0  0
   10.2437   -1.1548   23.4918 C   0  0  1  0  0  0  0  0  0  0  0  0
   10.9134   -0.0753   24.6275 C   0  0  0  0  0  0  0  0  0  0  0  0
   11.9934    0.2169   24.7085 C   0  0  0  0  0  0  0  0  0  0  0  0
   13.0178   -0.2373   24.0158 C   0  0  0  0  0  0  0  0  0  0  0  0
   12.7140   -1.2875   23.1208 C   0  0  0  0  0  0  0  0  0  0  0  0
   11.8058   -1.7293   22.9164 C   0  0  0  0  0  0  0  0  0  0  0  0
    9.6416   -0.6799   22.5983 C   0  0  3  0  0  0  0  0  0  0  0  0
    9.0976    0.0102   21.5747 C   0  0  0  0  0  0  0  0  0  0  0  0
    9.6556    0.9557   21.2096 O   0  0  0  0  0  0  0  0  0  0  0  0
    7.9819   -0.5660   21.1860 N   0  0  0  0  0  0  0  0  0  0  0  0
    7.3245   -0.0811   20.2332 C   0  0  0  0  0  0  0  0  0  0  0  0
    7.4979    0.0194   18.9212 C   0  0  0  0  0  0  0  0  0  0  0  0
    7.0984    0.3710   17.7676 N   0  0  0  0  0  0  0  0  0  0  0  0
    6.0001    0.8527   18.1987 C   0  0  0  0  0  0  0  0  0  0  0  0
    5.4819    0.9429   19.2558 C   0  0  0  0  0  0  0  0  0  0  0  0
    5.9266    0.5329   20.4403 C   0  0  0  0  0  0  0  0  0  0  0  0
    5.2417    0.6388   21.8427 Cl  0  0  0  0  0  0  0  0  0  0  0  0
    6.0330   -5.5589   27.2175 H   0  0  0  0  0  0  0  0  0  0  0  0
    5.4577   -4.1789   26.2220 H   0  0  0  0  0  0  0  0  0  0  0  0
    5.9324   -5.7204   25.4314 H   0  0  0  0  0  0  0  0  0  0  0  0
    7.0998   -3.0982   24.6500 H   0  0  0  0  0  0  0  0  0  0  0  0
    9.6242   -3.5759   24.4144 H   0  0  0  0  0  0  0  0  0  0  0  0
   10.2326    0.3705   25.3375 H   0  0  0  0  0  0  0  0  0  0  0  0
   12.2230    0.9674   25.4503 H   0  0  0  0  0  0  0  0  0  0  0  0
   14.0150    0.1631   24.1239 H   0  0  0  0  0  0  0  0  0  0  0  0
   13.5550   -1.6845   22.5717 H   0  0  0  0  0  0  0  0  0  0  0  0
   11.7268   -1.7404   21.8193 H   0  0  0  0  0  0  0  0  0  0  0  0
   11.8926   -2.7609   23.2883 H   0  0  0  0  0  0  0  0  0  0  0  0
   10.1270   -1.3676   21.8901 H   0  0  0  0  0  0  0  0  0  0  0  0
    7.6571   -1.3906   21.6493 H   0  0  0  0  0  0  0  0  0  0  0  0
    8.4691   -0.4192   18.7456 H   0  0  0  0  0  0  0  0  0  0  0  0
    5.4003    1.2803   17.4088 H   0  0  0  0  0  0  0  0  0  0  0  0
    4.5150    1.4240   19.2618 H   0  0  0  0  0  0  0  0  0  0  0  0
 20 21  2  0  0  0  0
 19 20  1  0  0  0  0
 21 22  1  0  0  0  0
 18 19  2  0  0  0  0
 22 23  2  0  0  0  0
 18 23  1  0  0  0  0
 17 18  1  0  0  0  0
 23 24  1  0  0  0  0
 15 16  2  0  0  0  0
 15 17  1  0  0  0  0
 14 15  1  0  0  0  0
  8 14  1  0  0  0  0
  7 14  1  0  0  0  0
 12 13  1  0  0  0  0
  8 13  1  0  0  0  0
 11 12  2  0  0  0  0
  7  8  1  0  0  0  0
  8  9  1  0  0  0  0
 10 11  1  0  0  0  0
  6  7  2  3  0  0  0
  5  6  1  0  0  0  0
  9 10  2  0  0  0  0
  2  5  1  0  0  0  0
  2  3  2  0  0  0  0
  1  2  1  0  0  0  0
  2  4  2  0  0  0  0
  1 25  1  0  0  0  0
  1 26  1  0  0  0  0
  1 27  1  0  0  0  0
  5 28  1  0  0  0  0
  6 29  1  0  0  0  0
  9 30  1  0  0  0  0
 10 31  1  0  0  0  0
 11 32  1  0  0  0  0
 12 33  1  0  0  0  0
 13 34  1  0  0  0  0
 13 35  1  0  0  0  0
 14 36  1  0  0  0  0
 17 37  1  0  0  0  0
 19 38  1  0  0  0  0
 21 39  1  0  0  0  0
 22 40  1  0  0  0  0
M  END
> <Chemgauss4>
-13.375532

$$$$
