MODEL 1
REMARK VINA RESULT:    -7.347      0.000      0.000
REMARK INTER + INTRA:         -11.045
REMARK INTER:                  -9.924
REMARK INTRA:                  -1.121
REMARK UNBOUND:                -1.121
REMARK  6 active torsions:
REMARK  status: ('A' for Active; 'I' for Inactive)
REMARK    1  A    between atoms: S_2  and  N_5 
REMARK    2  A    between atoms: N_5  and  C_7 
REMARK    3  A    between atoms: C_8  and  C_9 
REMARK    4  A    between atoms: C_9  and  C_15 
REMARK    5  A    between atoms: C_15  and  C_16 
REMARK       I    between atoms: C_16  and  N_18 
REMARK    6  A    between atoms: N_18  and  C_20 
ROOT
HETATM    1  C   UNL     1       9.589  -1.403  23.382  1.00  0.00     0.075 C 
HETATM    2  C   UNL     1       9.378  -0.469  24.699  1.00  0.00    -0.000 C 
HETATM    3  C   UNL     1      10.070   0.221  25.136  1.00  0.00    -0.025 C 
HETATM    4  C   UNL     1      11.445   0.489  24.823  1.00  0.00     0.054 C 
HETATM    5  C   UNL     1      11.894  -0.451  23.698  1.00  0.00    -0.025 C 
HETATM    6  C   UNL     1      11.343  -1.153  23.181  1.00  0.00    -0.000 C 
ENDROOT
BRANCH   1   7
HETATM    7  C   UNL     1       9.149  -2.595  23.152  1.00  0.00     0.021 C 
HETATM    8  C   UNL     1       8.221  -3.423  23.020  1.00  0.00     0.098 C 
BRANCH   8   9
HETATM    9  N   UNL     1       7.677  -4.325  22.558  1.00  0.00    -0.296 N 
ATOM     10  HN  UNL     1       8.260  -5.143  22.383  1.00  0.00     0.177 HD
BRANCH   9  11
HETATM   11  S   UNL     1       6.092  -4.485  22.138  1.00  0.00     0.226 S 
HETATM   12  C   UNL     1       5.984  -5.741  21.082  1.00  0.00     0.186 C 
HETATM   13  O   UNL     1       5.289  -4.755  23.307  1.00  0.00    -0.206 OA
HETATM   14  O   UNL     1       5.632  -3.313  21.472  1.00  0.00    -0.206 OA
ENDBRANCH   9  11
ENDBRANCH   8   9
ENDBRANCH   1   7
BRANCH   1  15
HETATM   15  C   UNL     1       9.093  -0.946  22.382  1.00  0.00    -0.061 C 
BRANCH  15  16
HETATM   16  C   UNL     1       8.556  -0.367  21.318  1.00  0.00     0.290 C 
HETATM   17  O   UNL     1       9.267   0.254  20.670  1.00  0.00    -0.259 OA
HETATM   18  N   UNL     1       7.270  -0.631  21.201  1.00  0.00    -0.315 N 
ATOM     19  HN  UNL     1       6.803  -1.202  21.906  1.00  0.00     0.170 HD
BRANCH  18  20
HETATM   20  C   UNL     1       6.616  -0.185  20.227  1.00  0.00     0.057 A 
HETATM   21  C   UNL     1       6.288  -0.598  19.033  1.00  0.00     0.117 A 
HETATM   22  N   UNL     1       5.743  -0.451  17.926  1.00  0.00    -0.373 N 
HETATM   23  C   UNL     1       5.237   0.816  18.128  1.00  0.00     0.088 A 
ATOM     24  HN  UNL     1       5.687  -1.073  17.119  1.00  0.00     0.164 HD
HETATM   25  C   UNL     1       5.328   1.458  19.124  1.00  0.00     0.026 A 
HETATM   26  C   UNL     1       5.948   1.213  20.325  1.00  0.00    -0.033 A 
HETATM   27  C   UNL     1       6.065   2.144  21.577  1.00  0.00     0.050 C 
ENDBRANCH  18  20
ENDBRANCH  15  16
ENDBRANCH   1  15
TORSDOF 6
ENDMDL
MODEL 2
REMARK VINA RESULT:    -7.139      2.759      5.816
REMARK INTER + INTRA:         -10.764
REMARK INTER:                  -9.791
REMARK INTRA:                  -0.973
REMARK UNBOUND:                -1.121
REMARK  6 active torsions:
REMARK  status: ('A' for Active; 'I' for Inactive)
REMARK    1  A    between atoms: S_2  and  N_5 
REMARK    2  A    between atoms: N_5  and  C_7 
REMARK    3  A    between atoms: C_8  and  C_9 
REMARK    4  A    between atoms: C_9  and  C_15 
REMARK    5  A    between atoms: C_15  and  C_16 
REMARK       I    between atoms: C_16  and  N_18 
REMARK    6  A    between atoms: N_18  and  C_20 
ROOT
HETATM    1  C   UNL     1      10.313  -0.908  23.216  1.00  0.00     0.075 C 
HETATM    2  C   UNL     1      11.719  -1.670  22.908  1.00  0.00    -0.000 C 
HETATM    3  C   UNL     1      12.687  -1.456  23.312  1.00  0.00    -0.025 C 
HETATM    4  C   UNL     1      13.133  -0.378  24.150  1.00  0.00     0.054 C 
HETATM    5  C   UNL     1      11.959   0.575  24.404  1.00  0.00    -0.025 C 
HETATM    6  C   UNL     1      10.979   0.495  24.091  1.00  0.00    -0.000 C 
ENDROOT
BRANCH   1   7
HETATM    7  C   UNL     1       9.326  -0.671  22.418  1.00  0.00     0.021 C 
HETATM    8  C   UNL     1       8.359  -1.043  21.717  1.00  0.00     0.098 C 
BRANCH   8   9
HETATM    9  N   UNL     1       7.305  -0.974  21.260  1.00  0.00    -0.296 N 
ATOM     10  HN  UNL     1       6.622  -1.630  21.638  1.00  0.00     0.177 HD
BRANCH   9  11
HETATM   11  S   UNL     1       6.742   0.032  20.083  1.00  0.00     0.226 S 
HETATM   12  C   UNL     1       6.266   1.428  20.812  1.00  0.00     0.186 C 
HETATM   13  O   UNL     1       7.783   0.311  19.122  1.00  0.00    -0.206 OA
HETATM   14  O   UNL     1       5.605  -0.537  19.443  1.00  0.00    -0.206 OA
ENDBRANCH   9  11
ENDBRANCH   8   9
ENDBRANCH   1   7
BRANCH   1  15
HETATM   15  C   UNL     1       9.622  -1.480  24.022  1.00  0.00    -0.061 C 
BRANCH  15  16
HETATM   16  C   UNL     1       8.929  -2.158  24.925  1.00  0.00     0.290 C 
HETATM   17  O   UNL     1       8.612  -1.576  25.859  1.00  0.00    -0.259 OA
HETATM   18  N   UNL     1       8.722  -3.408  24.561  1.00  0.00    -0.315 N 
ATOM     19  HN  UNL     1       9.108  -3.750  23.680  1.00  0.00     0.170 HD
BRANCH  18  20
HETATM   20  C   UNL     1       8.052  -4.179  25.290  1.00  0.00     0.057 A 
HETATM   21  C   UNL     1       8.281  -4.960  26.311  1.00  0.00     0.117 A 
HETATM   22  N   UNL     1       7.926  -5.782  27.172  1.00  0.00    -0.373 N 
HETATM   23  C   UNL     1       6.595  -5.865  26.821  1.00  0.00     0.088 A 
ATOM     24  HN  UNL     1       8.454  -6.250  27.909  1.00  0.00     0.164 HD
HETATM   25  C   UNL     1       6.057  -5.251  25.957  1.00  0.00     0.026 A 
HETATM   26  C   UNL     1       6.529  -4.340  25.043  1.00  0.00    -0.033 A 
HETATM   27  C   UNL     1       5.754  -3.613  23.895  1.00  0.00     0.050 C 
ENDBRANCH  18  20
ENDBRANCH  15  16
ENDBRANCH   1  15
TORSDOF 6
ENDMDL
MODEL 3
REMARK VINA RESULT:    -6.867      2.615      5.999
REMARK INTER + INTRA:         -10.398
REMARK INTER:                  -9.399
REMARK INTRA:                  -0.999
REMARK UNBOUND:                -1.121
REMARK  6 active torsions:
REMARK  status: ('A' for Active; 'I' for Inactive)
REMARK    1  A    between atoms: S_2  and  N_5 
REMARK    2  A    between atoms: N_5  and  C_7 
REMARK    3  A    between atoms: C_8  and  C_9 
REMARK    4  A    between atoms: C_9  and  C_15 
REMARK    5  A    between atoms: C_15  and  C_16 
REMARK       I    between atoms: C_16  and  N_18 
REMARK    6  A    between atoms: N_18  and  C_20 
ROOT
HETATM    1  C   UNL     1       6.494  -3.001  22.160  1.00  0.00     0.075 C 
HETATM    2  C   UNL     1       5.654  -2.973  23.555  1.00  0.00    -0.000 C 
HETATM    3  C   UNL     1       5.590  -3.738  24.302  1.00  0.00    -0.025 C 
HETATM    4  C   UNL     1       6.094  -5.082  24.309  1.00  0.00     0.054 C 
HETATM    5  C   UNL     1       6.775  -5.367  22.965  1.00  0.00    -0.025 C 
HETATM    6  C   UNL     1       6.919  -4.732  22.163  1.00  0.00    -0.000 C 
ENDROOT
BRANCH   1   7
HETATM    7  C   UNL     1       6.186  -2.488  21.017  1.00  0.00     0.021 C 
HETATM    8  C   UNL     1       5.629  -1.619  20.310  1.00  0.00     0.098 C 
BRANCH   8   9
HETATM    9  N   UNL     1       5.525  -0.898  19.420  1.00  0.00    -0.296 N 
ATOM     10  HN  UNL     1       4.852  -1.179  18.707  1.00  0.00     0.177 HD
BRANCH   9  11
HETATM   11  S   UNL     1       6.307   0.524  19.132  1.00  0.00     0.226 S 
HETATM   12  C   UNL     1       6.230   1.418  20.510  1.00  0.00     0.186 C 
HETATM   13  O   UNL     1       7.686   0.276  18.784  1.00  0.00    -0.206 OA
HETATM   14  O   UNL     1       5.651   1.253  18.100  1.00  0.00    -0.206 OA
ENDBRANCH   9  11
ENDBRANCH   8   9
ENDBRANCH   1   7
BRANCH   1  15
HETATM   15  C   UNL     1       7.549  -2.421  22.222  1.00  0.00    -0.061 C 
BRANCH  15  16
HETATM   16  C   UNL     1       8.668  -1.720  22.328  1.00  0.00     0.290 C 
HETATM   17  O   UNL     1       8.777  -0.833  21.612  1.00  0.00    -0.259 OA
HETATM   18  N   UNL     1       9.462  -2.185  23.272  1.00  0.00    -0.315 N 
ATOM     19  HN  UNL     1       9.190  -3.014  23.801  1.00  0.00     0.170 HD
BRANCH  18  20
HETATM   20  C   UNL     1      10.551  -1.613  23.525  1.00  0.00     0.057 A 
HETATM   21  C   UNL     1      11.793  -1.719  23.137  1.00  0.00     0.117 A 
HETATM   22  N   UNL     1      12.991  -1.390  23.171  1.00  0.00    -0.373 N 
HETATM   23  C   UNL     1      12.889  -0.392  24.117  1.00  0.00     0.088 A 
ATOM     24  HN  UNL     1      13.797  -1.748  22.659  1.00  0.00     0.164 HD
HETATM   25  C   UNL     1      11.889  -0.021  24.642  1.00  0.00     0.026 A 
HETATM   26  C   UNL     1      10.584  -0.438  24.538  1.00  0.00    -0.033 A 
HETATM   27  C   UNL     1       9.327   0.076  25.314  1.00  0.00     0.050 C 
ENDBRANCH  18  20
ENDBRANCH  15  16
ENDBRANCH   1  15
TORSDOF 6
ENDMDL
MODEL 4
REMARK VINA RESULT:    -6.763      2.624      4.663
REMARK INTER + INTRA:         -10.257
REMARK INTER:                  -9.425
REMARK INTRA:                  -0.832
REMARK UNBOUND:                -1.121
REMARK  6 active torsions:
REMARK  status: ('A' for Active; 'I' for Inactive)
REMARK    1  A    between atoms: S_2  and  N_5 
REMARK    2  A    between atoms: N_5  and  C_7 
REMARK    3  A    between atoms: C_8  and  C_9 
REMARK    4  A    between atoms: C_9  and  C_15 
REMARK    5  A    between atoms: C_15  and  C_16 
REMARK       I    between atoms: C_16  and  N_18 
REMARK    6  A    between atoms: N_18  and  C_20 
ROOT
HETATM    1  C   UNL     1       7.650  -2.749  23.864  1.00  0.00     0.075 C 
HETATM    2  C   UNL     1       7.865  -4.354  23.684  1.00  0.00    -0.000 C 
HETATM    3  C   UNL     1       7.122  -5.124  23.700  1.00  0.00    -0.025 C 
HETATM    4  C   UNL     1       5.719  -5.064  24.001  1.00  0.00     0.054 C 
HETATM    5  C   UNL     1       5.353  -3.626  24.387  1.00  0.00    -0.025 C 
HETATM    6  C   UNL     1       5.954  -2.787  24.409  1.00  0.00    -0.000 C 
ENDROOT
BRANCH   1   7
HETATM    7  C   UNL     1       8.419  -1.887  24.439  1.00  0.00     0.021 C 
HETATM    8  C   UNL     1       9.539  -1.366  24.639  1.00  0.00     0.098 C 
BRANCH   8   9
HETATM    9  N   UNL     1      10.276  -0.504  24.830  1.00  0.00    -0.296 N 
ATOM     10  HN  UNL     1      10.051   0.096  25.623  1.00  0.00     0.177 HD
BRANCH   9  11
HETATM   11  S   UNL     1      11.645  -0.100  24.006  1.00  0.00     0.226 S 
HETATM   12  C   UNL     1      12.004  -1.352  23.001  1.00  0.00     0.186 C 
HETATM   13  O   UNL     1      11.430   1.101  23.235  1.00  0.00    -0.206 OA
HETATM   14  O   UNL     1      12.737   0.067  24.904  1.00  0.00    -0.206 OA
ENDBRANCH   9  11
ENDBRANCH   8   9
ENDBRANCH   1   7
BRANCH   1  15
HETATM   15  C   UNL     1       7.629  -2.147  22.819  1.00  0.00    -0.061 C 
BRANCH  15  16
HETATM   16  C   UNL     1       7.580  -1.417  21.715  1.00  0.00     0.290 C 
HETATM   17  O   UNL     1       8.587  -1.078  21.289  1.00  0.00    -0.259 OA
HETATM   18  N   UNL     1       6.344  -1.222  21.299  1.00  0.00    -0.315 N 
ATOM     19  HN  UNL     1       5.562  -1.598  21.837  1.00  0.00     0.170 HD
BRANCH  18  20
HETATM   20  C   UNL     1       6.123  -0.576  20.245  1.00  0.00     0.057 A 
HETATM   21  C   UNL     1       5.923  -0.852  18.985  1.00  0.00     0.117 A 
HETATM   22  N   UNL     1       5.717  -0.527  17.804  1.00  0.00    -0.373 N 
HETATM   23  C   UNL     1       5.688   0.840  17.984  1.00  0.00     0.088 A 
ATOM     24  HN  UNL     1       5.605  -1.094  16.964  1.00  0.00     0.164 HD
HETATM   25  C   UNL     1       5.800   1.415  19.019  1.00  0.00     0.026 A 
HETATM   26  C   UNL     1       6.017   0.971  20.300  1.00  0.00    -0.033 A 
HETATM   27  C   UNL     1       6.207   1.808  21.608  1.00  0.00     0.050 C 
ENDBRANCH  18  20
ENDBRANCH  15  16
ENDBRANCH   1  15
TORSDOF 6
ENDMDL
MODEL 5
REMARK VINA RESULT:    -6.750      4.007      6.306
REMARK INTER + INTRA:         -10.239
REMARK INTER:                  -9.483
REMARK INTRA:                  -0.756
REMARK UNBOUND:                -1.121
REMARK  6 active torsions:
REMARK  status: ('A' for Active; 'I' for Inactive)
REMARK    1  A    between atoms: S_2  and  N_5 
REMARK    2  A    between atoms: N_5  and  C_7 
REMARK    3  A    between atoms: C_8  and  C_9 
REMARK    4  A    between atoms: C_9  and  C_15 
REMARK    5  A    between atoms: C_15  and  C_16 
REMARK       I    between atoms: C_16  and  N_18 
REMARK    6  A    between atoms: N_18  and  C_20 
ROOT
HETATM    1  C   UNL     1       7.031  -4.451  24.428  1.00  0.00     0.075 C 
HETATM    2  C   UNL     1       7.437  -5.279  23.085  1.00  0.00    -0.000 C 
HETATM    3  C   UNL     1       7.077  -5.135  22.088  1.00  0.00    -0.025 C 
HETATM    4  C   UNL     1       6.043  -4.277  21.582  1.00  0.00     0.054 C 
HETATM    5  C   UNL     1       5.397  -3.529  22.754  1.00  0.00    -0.025 C 
HETATM    6  C   UNL     1       5.641  -3.560  23.757  1.00  0.00    -0.000 C 
ENDROOT
BRANCH   1   7
HETATM    7  C   UNL     1       6.909  -4.877  25.640  1.00  0.00     0.021 C 
HETATM    8  C   UNL     1       7.253  -5.612  26.592  1.00  0.00     0.098 C 
BRANCH   8   9
HETATM    9  N   UNL     1       7.461  -5.875  27.692  1.00  0.00    -0.296 N 
ATOM     10  HN  UNL     1       8.441  -5.837  27.972  1.00  0.00     0.177 HD
BRANCH   9  11
HETATM   11  S   UNL     1       6.404  -6.308  28.880  1.00  0.00     0.226 S 
HETATM   12  C   UNL     1       4.908  -6.393  28.203  1.00  0.00     0.186 C 
HETATM   13  O   UNL     1       6.768  -7.592  29.431  1.00  0.00    -0.206 OA
HETATM   14  O   UNL     1       6.367  -5.315  29.900  1.00  0.00    -0.206 OA
ENDBRANCH   9  11
ENDBRANCH   8   9
ENDBRANCH   1   7
BRANCH   1  15
HETATM   15  C   UNL     1       7.831  -3.599  24.728  1.00  0.00    -0.061 C 
BRANCH  15  16
HETATM   16  C   UNL     1       8.661  -2.608  25.018  1.00  0.00     0.290 C 
HETATM   17  O   UNL     1       8.812  -2.385  26.131  1.00  0.00    -0.259 OA
HETATM   18  N   UNL     1       9.178  -2.058  23.937  1.00  0.00    -0.315 N 
ATOM     19  HN  UNL     1       8.900  -2.393  23.014  1.00  0.00     0.170 HD
BRANCH  18  20
HETATM   20  C   UNL     1      10.011  -1.124  24.037  1.00  0.00     0.057 A 
HETATM   21  C   UNL     1      11.311  -1.010  24.083  1.00  0.00     0.117 A 
HETATM   22  N   UNL     1      12.357  -0.348  24.184  1.00  0.00    -0.373 N 
HETATM   23  C   UNL     1      11.784   0.901  24.293  1.00  0.00     0.088 A 
ATOM     24  HN  UNL     1      13.335  -0.638  24.186  1.00  0.00     0.164 HD
HETATM   25  C   UNL     1      10.621   1.147  24.249  1.00  0.00     0.026 A 
HETATM   26  C   UNL     1       9.514   0.343  24.123  1.00  0.00    -0.033 A 
HETATM   27  C   UNL     1       8.003   0.749  24.128  1.00  0.00     0.050 C 
ENDBRANCH  18  20
ENDBRANCH  15  16
ENDBRANCH   1  15
TORSDOF 6
ENDMDL
MODEL 6
REMARK VINA RESULT:    -6.644      2.784      5.887
REMARK INTER + INTRA:         -10.095
REMARK INTER:                  -9.021
REMARK INTRA:                  -1.074
REMARK UNBOUND:                -1.121
REMARK  6 active torsions:
REMARK  status: ('A' for Active; 'I' for Inactive)
REMARK    1  A    between atoms: S_2  and  N_5 
REMARK    2  A    between atoms: N_5  and  C_7 
REMARK    3  A    between atoms: C_8  and  C_9 
REMARK    4  A    between atoms: C_9  and  C_15 
REMARK    5  A    between atoms: C_15  and  C_16 
REMARK       I    between atoms: C_16  and  N_18 
REMARK    6  A    between atoms: N_18  and  C_20 
ROOT
HETATM    1  C   UNL     1       7.697   0.353  20.821  1.00  0.00     0.075 C 
HETATM    2  C   UNL     1       6.499   1.377  21.235  1.00  0.00    -0.000 C 
HETATM    3  C   UNL     1       5.641   1.655  20.659  1.00  0.00    -0.025 C 
HETATM    4  C   UNL     1       5.287   1.349  19.302  1.00  0.00     0.054 C 
HETATM    5  C   UNL     1       6.412   0.524  18.666  1.00  0.00    -0.025 C 
HETATM    6  C   UNL     1       7.285   0.178  19.096  1.00  0.00    -0.000 C 
ENDROOT
BRANCH   1   7
HETATM    7  C   UNL     1       8.954   0.415  21.108  1.00  0.00     0.021 C 
HETATM    8  C   UNL     1       9.900   0.726  21.865  1.00  0.00     0.098 C 
BRANCH   8   9
HETATM    9  N   UNL     1      10.918   0.591  22.382  1.00  0.00    -0.296 N 
ATOM     10  HN  UNL     1      11.605   1.319  22.189  1.00  0.00     0.177 HD
BRANCH   9  11
HETATM   11  S   UNL     1      11.426  -0.611  23.389  1.00  0.00     0.226 S 
HETATM   12  C   UNL     1      10.254  -0.836  24.520  1.00  0.00     0.186 C 
HETATM   13  O   UNL     1      11.635  -1.832  22.647  1.00  0.00    -0.206 OA
HETATM   14  O   UNL     1      12.618  -0.223  24.065  1.00  0.00    -0.206 OA
ENDBRANCH   9  11
ENDBRANCH   8   9
ENDBRANCH   1   7
BRANCH   1  15
HETATM   15  C   UNL     1       7.568  -0.752  21.286  1.00  0.00    -0.061 C 
BRANCH  15  16
HETATM   16  C   UNL     1       7.375  -1.932  21.855  1.00  0.00     0.290 C 
HETATM   17  O   UNL     1       8.312  -2.467  22.238  1.00  0.00    -0.259 OA
HETATM   18  N   UNL     1       6.101  -2.272  21.881  1.00  0.00    -0.315 N 
ATOM     19  HN  UNL     1       5.403  -1.656  21.464  1.00  0.00     0.170 HD
BRANCH  18  20
HETATM   20  C   UNL     1       5.742  -3.349  22.417  1.00  0.00     0.057 A 
HETATM   21  C   UNL     1       5.602  -4.594  22.049  1.00  0.00     0.117 A 
HETATM   22  N   UNL     1       5.294  -5.779  22.261  1.00  0.00    -0.373 N 
HETATM   23  C   UNL     1       4.927  -5.648  23.584  1.00  0.00     0.088 A 
ATOM     24  HN  UNL     1       5.307  -6.594  21.648  1.00  0.00     0.164 HD
HETATM   25  C   UNL     1       4.974  -4.651  24.230  1.00  0.00     0.026 A 
HETATM   26  C   UNL     1       5.343  -3.366  23.916  1.00  0.00    -0.033 A 
HETATM   27  C   UNL     1       5.324  -2.091  24.824  1.00  0.00     0.050 C 
ENDBRANCH  18  20
ENDBRANCH  15  16
ENDBRANCH   1  15
TORSDOF 6
ENDMDL
MODEL 7
REMARK VINA RESULT:    -6.292      2.797      5.770
REMARK INTER + INTRA:          -9.620
REMARK INTER:                  -8.893
REMARK INTRA:                  -0.727
REMARK UNBOUND:                -1.121
REMARK  6 active torsions:
REMARK  status: ('A' for Active; 'I' for Inactive)
REMARK    1  A    between atoms: S_2  and  N_5 
REMARK    2  A    between atoms: N_5  and  C_7 
REMARK    3  A    between atoms: C_8  and  C_9 
REMARK    4  A    between atoms: C_9  and  C_15 
REMARK    5  A    between atoms: C_15  and  C_16 
REMARK       I    between atoms: C_16  and  N_18 
REMARK    6  A    between atoms: N_18  and  C_20 
ROOT
HETATM    1  C   UNL     1       9.119   0.740  22.208  1.00  0.00     0.075 C 
HETATM    2  C   UNL     1      10.500   1.603  22.155  1.00  0.00    -0.000 C 
HETATM    3  C   UNL     1      10.823   2.371  22.826  1.00  0.00    -0.025 C 
HETATM    4  C   UNL     1      10.139   3.009  23.916  1.00  0.00     0.054 C 
HETATM    5  C   UNL     1       8.716   2.446  24.010  1.00  0.00    -0.025 C 
HETATM    6  C   UNL     1       8.272   1.705  23.444  1.00  0.00    -0.000 C 
ENDROOT
BRANCH   1   7
HETATM    7  C   UNL     1       8.400   0.299  21.231  1.00  0.00     0.021 C 
HETATM    8  C   UNL     1       7.434  -0.354  20.778  1.00  0.00     0.098 C 
BRANCH   8   9
HETATM    9  N   UNL     1       6.553  -0.572  20.071  1.00  0.00    -0.296 N 
ATOM     10  HN  UNL     1       5.993  -1.389  20.310  1.00  0.00     0.177 HD
BRANCH   9  11
HETATM   11  S   UNL     1       6.067   0.249  18.727  1.00  0.00     0.226 S 
HETATM   12  C   UNL     1       4.826   1.233  19.171  1.00  0.00     0.186 C 
HETATM   13  O   UNL     1       7.155   1.037  18.200  1.00  0.00    -0.206 OA
HETATM   14  O   UNL     1       5.577  -0.655  17.742  1.00  0.00    -0.206 OA
ENDBRANCH   9  11
ENDBRANCH   8   9
ENDBRANCH   1   7
BRANCH   1  15
HETATM   15  C   UNL     1       9.253  -0.352  22.702  1.00  0.00    -0.061 C 
BRANCH  15  16
HETATM   16  C   UNL     1       9.397  -1.515  23.321  1.00  0.00     0.290 C 
HETATM   17  O   UNL     1      10.418  -2.020  23.213  1.00  0.00    -0.259 OA
HETATM   18  N   UNL     1       8.307  -1.873  23.971  1.00  0.00    -0.315 N 
ATOM     19  HN  UNL     1       7.475  -1.283  23.932  1.00  0.00     0.170 HD
BRANCH  18  20
HETATM   20  C   UNL     1       8.287  -2.936  24.639  1.00  0.00     0.057 A 
HETATM   21  C   UNL     1       8.581  -3.298  25.859  1.00  0.00     0.117 A 
HETATM   22  N   UNL     1       8.695  -4.145  26.760  1.00  0.00    -0.373 N 
HETATM   23  C   UNL     1       8.272  -5.245  26.044  1.00  0.00     0.088 A 
ATOM     24  HN  UNL     1       9.006  -4.055  27.728  1.00  0.00     0.164 HD
HETATM   25  C   UNL     1       7.897  -5.247  24.916  1.00  0.00     0.026 A 
HETATM   26  C   UNL     1       7.790  -4.249  23.979  1.00  0.00    -0.033 A 
HETATM   27  C   UNL     1       7.332  -4.351  22.486  1.00  0.00     0.050 C 
ENDBRANCH  18  20
ENDBRANCH  15  16
ENDBRANCH   1  15
TORSDOF 6
ENDMDL
MODEL 8
REMARK VINA RESULT:    -6.232     14.895     16.122
REMARK INTER + INTRA:          -9.539
REMARK INTER:                  -8.668
REMARK INTRA:                  -0.871
REMARK UNBOUND:                -1.121
REMARK  6 active torsions:
REMARK  status: ('A' for Active; 'I' for Inactive)
REMARK    1  A    between atoms: S_2  and  N_5 
REMARK    2  A    between atoms: N_5  and  C_7 
REMARK    3  A    between atoms: C_8  and  C_9 
REMARK    4  A    between atoms: C_9  and  C_15 
REMARK    5  A    between atoms: C_15  and  C_16 
REMARK       I    between atoms: C_16  and  N_18 
REMARK    6  A    between atoms: N_18  and  C_20 
ROOT
HETATM    1  C   UNL     1      23.185  -1.425  23.591  1.00  0.00     0.075 C 
HETATM    2  C   UNL     1      21.941  -0.983  24.546  1.00  0.00    -0.000 C 
HETATM    3  C   UNL     1      21.728  -0.013  24.944  1.00  0.00    -0.025 C 
HETATM    4  C   UNL     1      22.491   1.203  24.903  1.00  0.00     0.054 C 
HETATM    5  C   UNL     1      23.820   0.934  24.186  1.00  0.00    -0.025 C 
HETATM    6  C   UNL     1      24.156   0.062  23.747  1.00  0.00    -0.000 C 
ENDROOT
BRANCH   1   7
HETATM    7  C   UNL     1      23.839  -2.538  23.572  1.00  0.00     0.021 C 
HETATM    8  C   UNL     1      24.106  -3.670  24.031  1.00  0.00     0.098 C 
BRANCH   8   9
HETATM    9  N   UNL     1      24.375  -4.787  23.980  1.00  0.00    -0.296 N 
ATOM     10  HN  UNL     1      24.795  -5.095  23.103  1.00  0.00     0.177 HD
BRANCH   9  11
HETATM   11  S   UNL     1      24.181  -5.961  25.120  1.00  0.00     0.226 S 
HETATM   12  C   UNL     1      25.639  -6.192  25.844  1.00  0.00     0.186 C 
HETATM   13  O   UNL     1      23.205  -5.549  26.102  1.00  0.00    -0.206 OA
HETATM   14  O   UNL     1      23.795  -7.188  24.511  1.00  0.00    -0.206 OA
ENDBRANCH   9  11
ENDBRANCH   8   9
ENDBRANCH   1   7
BRANCH   1  15
HETATM   15  C   UNL     1      22.896  -1.487  22.422  1.00  0.00    -0.061 C 
BRANCH  15  16
HETATM   16  C   UNL     1      22.660  -1.572  21.121  1.00  0.00     0.290 C 
HETATM   17  O   UNL     1      21.588  -1.840  20.820  1.00  0.00    -0.259 OA
HETATM   18  N   UNL     1      23.733  -1.313  20.400  1.00  0.00    -0.315 N 
ATOM     19  HN  UNL     1      24.618  -1.108  20.864  1.00  0.00     0.170 HD
BRANCH  18  20
HETATM   20  C   UNL     1      23.672  -1.319  19.146  1.00  0.00     0.057 A 
HETATM   21  C   UNL     1      23.352  -0.471  18.206  1.00  0.00     0.117 A 
HETATM   22  N   UNL     1      23.175  -0.158  17.017  1.00  0.00    -0.373 N 
HETATM   23  C   UNL     1      23.511  -1.369  16.448  1.00  0.00     0.088 A 
ATOM     24  HN  UNL     1      22.874   0.720  16.594  1.00  0.00     0.164 HD
HETATM   25  C   UNL     1      23.883  -2.338  17.027  1.00  0.00     0.026 A 
HETATM   26  C   UNL     1      24.065  -2.600  18.364  1.00  0.00    -0.033 A 
HETATM   27  C   UNL     1      24.512  -3.933  19.049  1.00  0.00     0.050 C 
ENDBRANCH  18  20
ENDBRANCH  15  16
ENDBRANCH   1  15
TORSDOF 6
ENDMDL
MODEL 9
REMARK VINA RESULT:    -6.121      2.507      5.459
REMARK INTER + INTRA:          -9.389
REMARK INTER:                  -8.675
REMARK INTRA:                  -0.714
REMARK UNBOUND:                -1.121
REMARK  6 active torsions:
REMARK  status: ('A' for Active; 'I' for Inactive)
REMARK    1  A    between atoms: S_2  and  N_5 
REMARK    2  A    between atoms: N_5  and  C_7 
REMARK    3  A    between atoms: C_8  and  C_9 
REMARK    4  A    between atoms: C_9  and  C_15 
REMARK    5  A    between atoms: C_15  and  C_16 
REMARK       I    between atoms: C_16  and  N_18 
REMARK    6  A    between atoms: N_18  and  C_20 
ROOT
HETATM    1  C   UNL     1       9.263  -0.960  23.274  1.00  0.00     0.075 C 
HETATM    2  C   UNL     1      10.584  -1.367  22.411  1.00  0.00    -0.000 C 
HETATM    3  C   UNL     1      11.609  -1.323  22.716  1.00  0.00    -0.025 C 
HETATM    4  C   UNL     1      12.209  -0.790  23.907  1.00  0.00     0.054 C 
HETATM    5  C   UNL     1      11.112  -0.176  24.786  1.00  0.00    -0.025 C 
HETATM    6  C   UNL     1      10.092  -0.151  24.629  1.00  0.00    -0.000 C 
ENDROOT
BRANCH   1   7
HETATM    7  C   UNL     1       8.164  -0.419  22.868  1.00  0.00     0.021 C 
HETATM    8  C   UNL     1       7.451   0.105  21.983  1.00  0.00     0.098 C 
BRANCH   8   9
HETATM    9  N   UNL     1       6.477   0.322  21.412  1.00  0.00    -0.296 N 
ATOM     10  HN  UNL     1       5.657   0.489  21.995  1.00  0.00     0.177 HD
BRANCH   9  11
HETATM   11  S   UNL     1       6.215   0.401  19.787  1.00  0.00     0.226 S 
HETATM   12  C   UNL     1       5.620  -1.057  19.311  1.00  0.00     0.186 C 
HETATM   13  O   UNL     1       5.264   1.443  19.482  1.00  0.00    -0.206 OA
HETATM   14  O   UNL     1       7.440   0.620  19.095  1.00  0.00    -0.206 OA
ENDBRANCH   9  11
ENDBRANCH   8   9
ENDBRANCH   1   7
BRANCH   1  15
HETATM   15  C   UNL     1       8.703  -1.905  23.770  1.00  0.00    -0.061 C 
BRANCH  15  16
HETATM   16  C   UNL     1       8.025  -2.933  24.260  1.00  0.00     0.290 C 
HETATM   17  O   UNL     1       8.460  -3.423  25.198  1.00  0.00    -0.259 OA
HETATM   18  N   UNL     1       6.941  -3.197  23.557  1.00  0.00    -0.315 N 
ATOM     19  HN  UNL     1       6.729  -2.646  22.725  1.00  0.00     0.170 HD
BRANCH  18  20
HETATM   20  C   UNL     1       6.168  -4.122  23.907  1.00  0.00     0.057 A 
HETATM   21  C   UNL     1       5.250  -4.301  24.818  1.00  0.00     0.117 A 
HETATM   22  N   UNL     1       4.400  -4.990  25.407  1.00  0.00    -0.373 N 
HETATM   23  C   UNL     1       4.541  -6.144  24.664  1.00  0.00     0.088 A 
ATOM     24  HN  UNL     1       3.789  -4.771  26.193  1.00  0.00     0.164 HD
HETATM   25  C   UNL     1       5.267  -6.297  23.735  1.00  0.00     0.026 A 
HETATM   26  C   UNL     1       6.181  -5.467  23.133  1.00  0.00    -0.033 A 
HETATM   27  C   UNL     1       7.142  -5.771  21.936  1.00  0.00     0.050 C 
ENDBRANCH  18  20
ENDBRANCH  15  16
ENDBRANCH   1  15
TORSDOF 6
ENDMDL
