
  -OEChem-08092406183D

 39 42  0     1  0  0  0  0  0999 V2000
    6.7994   -4.3907   25.0951 Br  0  0  0  0  0  0  0  0  0  0  0  0
    7.9610   -2.9022   25.1574 C   0  0  0  0  0  0  0  0  0  0  0  0
    7.9677   -2.0756   26.2772 C   0  0  0  0  0  0  0  0  0  0  0  0
    8.8355   -0.9845   26.3242 C   0  0  0  0  0  0  0  0  0  0  0  0
    9.6768   -0.7061   25.2475 C   0  0  0  0  0  0  0  0  0  0  0  0
    9.6523   -1.5159   24.1072 C   0  0  0  0  0  0  0  0  0  0  0  0
    8.8022   -2.6363   24.0779 C   0  0  0  0  0  0  0  0  0  0  0  0
   10.5088   -1.1681   22.9146 C   0  0  3  0  0  0  0  0  0  0  0  0
    9.7890   -0.3468   21.8327 C   0  0  0  0  0  0  0  0  0  0  0  0
   10.4269    0.4014   21.0798 O   0  0  0  0  0  0  0  0  0  0  0  0
    8.4235   -0.5149   21.7279 N   0  0  0  0  0  0  0  0  0  0  0  0
    7.6758    0.1401   20.7227 C   0  0  0  0  0  0  0  0  0  0  0  0
    8.0164   -0.0342   19.3803 C   0  0  0  0  0  0  0  0  0  0  0  0
    7.2866    0.4326   18.3458 N   0  0  0  0  0  0  0  0  0  0  0  0
    6.1719    1.1233   18.6678 C   0  0  0  0  0  0  0  0  0  0  0  0
    5.7450    1.3948   19.9711 C   0  0  0  0  0  0  0  0  0  0  0  0
    4.5759    2.1356   20.2285 C   0  0  0  0  0  0  0  0  0  0  0  0
    4.1897    2.4279   21.5352 C   0  0  0  0  0  0  0  0  0  0  0  0
    4.9806    2.0035   22.5973 C   0  0  0  0  0  0  0  0  0  0  0  0
    6.1362    1.2561   22.3557 C   0  0  0  0  0  0  0  0  0  0  0  0
    6.5264    0.9054   21.0395 C   0  0  0  0  0  0  0  0  0  0  0  0
   11.7399   -0.4055   23.4131 C   0  0  0  0  0  0  0  0  0  0  0  0
   11.2784    0.7634   24.2765 C   0  0  0  0  0  0  0  0  0  0  0  0
   10.5240    0.3513   25.4191 O   0  0  0  0  0  0  0  0  0  0  0  0
    7.3171   -2.2780   27.1239 H   0  0  0  0  0  0  0  0  0  0  0  0
    8.8645   -0.3502   27.2069 H   0  0  0  0  0  0  0  0  0  0  0  0
    8.7917   -3.2917   23.2087 H   0  0  0  0  0  0  0  0  0  0  0  0
   10.8529   -2.0903   22.4283 H   0  0  0  0  0  0  0  0  0  0  0  0
    7.9250   -0.7389   22.5812 H   0  0  0  0  0  0  0  0  0  0  0  0
    8.8856   -0.6214   19.0928 H   0  0  0  0  0  0  0  0  0  0  0  0
    5.6044    1.4736   17.8073 H   0  0  0  0  0  0  0  0  0  0  0  0
    3.9577    2.4914   19.4059 H   0  0  0  0  0  0  0  0  0  0  0  0
    3.2810    2.9938   21.7224 H   0  0  0  0  0  0  0  0  0  0  0  0
    4.6995    2.2565   23.6179 H   0  0  0  0  0  0  0  0  0  0  0  0
    6.7478    0.9801   23.2113 H   0  0  0  0  0  0  0  0  0  0  0  0
   12.3580   -0.0410   22.5855 H   0  0  0  0  0  0  0  0  0  0  0  0
   12.3646   -1.0748   24.0178 H   0  0  0  0  0  0  0  0  0  0  0  0
   10.6743    1.4817   23.7107 H   0  0  0  0  0  0  0  0  0  0  0  0
   12.1521    1.3071   24.6464 H   0  0  0  0  0  0  0  0  0  0  0  0
  1  2  1  0  0  0  0
  2  3  1  0  0  0  0
  2  7  2  0  0  0  0
  3  4  2  0  0  0  0
  3 25  1  0  0  0  0
  4  5  1  0  0  0  0
  4 26  1  0  0  0  0
  5  6  2  0  0  0  0
  5 24  1  0  0  0  0
  6  7  1  0  0  0  0
  6  8  1  0  0  0  0
  7 27  1  0  0  0  0
  8  9  1  0  0  0  0
  8 22  1  0  0  0  0
  8 28  1  0  0  0  0
  9 10  2  0  0  0  0
  9 11  1  0  0  0  0
 11 12  1  0  0  0  0
 11 29  1  0  0  0  0
 12 13  1  0  0  0  0
 12 21  2  0  0  0  0
 13 14  2  0  0  0  0
 13 30  1  0  0  0  0
 14 15  1  0  0  0  0
 15 16  2  0  0  0  0
 15 31  1  0  0  0  0
 16 17  1  0  0  0  0
 16 21  1  0  0  0  0
 17 18  2  0  0  0  0
 17 32  1  0  0  0  0
 18 19  1  0  0  0  0
 18 33  1  0  0  0  0
 19 20  2  0  0  0  0
 19 34  1  0  0  0  0
 20 21  1  0  0  0  0
 20 35  1  0  0  0  0
 22 23  1  0  0  0  0
 22 36  1  0  0  0  0
 22 37  1  0  0  0  0
 23 24  1  0  0  0  0
 23 38  1  0  0  0  0
 23 39  1  0  0  0  0
M  END
> <Chemgauss4>
-10.592388

$$$$
