stable:False satoms:16 tatoms:24 sratio:0.6666666666666666
  -OEChem-07092417303D

 24 25  0     1  0  0  0  0  0999 V2000
    8.9762   -1.2889   24.8836 H   0  0  0  0  0  0  0  0  0  0  0  0
    8.7236   -2.9826   25.2938 H   0  0  0  0  0  0  0  0  0  0  0  0
    8.1663   -2.5188   23.3480 N   0  3  1  0  0  0  0  0  0  0  0  0
    6.7972   -1.2612   24.7447 O   0  0  0  0  0  0  0  0  0  0  0  0
    6.0964   -0.9969   23.6634 O   0  0  0  0  0  0  0  0  0  0  0  0
   10.5740   -3.5053   23.5773 H   0  0  0  0  0  0  0  0  0  0  0  0
    9.7825   -0.1787   22.4685 N   0  0  0  0  0  0  0  0  0  0  0  0
    9.0553   -2.3038   24.4794 C   0  0  0  0  0  0  0  0  0  0  0  0
   10.4313   -2.5829   24.0896 C   0  5  0  0  0  0  0  0  0  0  0  0
   11.0599   -0.0047   22.9504 O   0  0  0  0  0  0  0  0  0  0  0  0
   11.2452   -1.9260   24.2669 H   0  0  0  0  0  0  0  0  0  0  0  0
    9.4599   -2.3665   21.6480 H   0  0  0  0  0  0  0  0  0  0  0  0
   11.6837   -0.6173   22.4767 H   0  0  0  0  0  0  0  0  0  0  0  0
   10.5724    0.7904   20.8502 H   0  0  0  0  0  0  0  0  0  0  0  0
    9.6276    0.4350   21.2481 C   0  0  0  0  0  0  0  0  0  0  0  0
    8.5384    0.7868   20.3895 C   0  3  0  0  0  0  0  0  0  0  0  0
    7.1079   -1.5879   23.2479 C   0  0  0  0  0  0  0  0  0  0  0  0
    8.7816    0.9906   19.3544 H   0  0  0  0  0  0  0  0  0  0  0  0
    8.4164   -2.5841   21.9209 C   0  0  0  0  0  0  0  0  0  0  0  0
    7.1115   -1.4688   21.3167 S   0  3  2  0  0  0  0  0  0  0  0  0
    8.0855   -3.5341   21.4900 H   0  0  0  0  0  0  0  0  0  0  0  0
    7.2041    0.9310   20.5571 N   0  3  0  0  0  0  0  0  0  0  0  0
    6.5010    0.1160   21.2643 C   0  3  0  0  0  0  0  0  0  0  0  0
    5.5863    0.3686   21.7675 H   0  0  0  0  0  0  0  0  0  0  0  0
 16 18  1  0  0  0  0
 16 22  1  0  0  0  0
 15 16  1  0  0  0  0
 22 23  1  0  0  0  0
 14 15  1  0  0  0  0
  7 15  2  0  0  0  0
 20 23  1  0  0  0  0
 23 24  1  0  0  0  0
 19 20  1  0  0  0  0
 17 20  1  0  0  0  0
 19 21  1  0  0  0  0
 12 19  1  0  0  0  0
  3 19  1  0  0  0  0
  7 10  1  0  0  0  0
 10 13  1  0  0  0  0
  3 17  1  0  0  0  0
  5 17  1  0  0  0  0
  4 17  1  0  0  0  0
  3  8  1  0  0  0  0
  6  9  1  0  0  0  0
  4  5  1  0  0  0  0
  9 11  1  0  0  0  0
  8  9  1  0  0  0  0
  1  8  1  0  0  0  0
  2  8  1  0  0  0  0
M  CHG  6   3   1   9  -1  16   1  20   1  22   1  23   1
M  END
> <Shapegauss>
-120.878365

$$$$
