REMARK  5 active torsions:
REMARK  status: ('A' for Active; 'I' for Inactive)
REMARK    1  A    between atoms: N_1  and  C_6 
REMARK    2  A    between atoms: N_4  and  C_10 
REMARK    3  A    between atoms: N_4  and  O_8 
REMARK    4  A    between atoms: C_11  and  N_15 
REMARK    5  A    between atoms: S_14  and  C_17 
ROOT
HETATM    1  N   UNL     1       7.204   0.931  20.557  1.00  0.00    -0.369 N 
ATOM      2  HN  UNL     1       6.736   1.716  20.105  1.00  0.00     0.165 HD
HETATM    3  C   UNL     1       6.501   0.116  21.264  1.00  0.00     0.131 C 
ENDROOT
BRANCH   3   4
HETATM    4  S   UNL     1       7.112  -1.469  21.317  1.00  0.00    -0.054 SA
HETATM    5  C   UNL     1       7.108  -1.588  23.248  1.00  0.00     0.476 A 
HETATM    6  N   UNL     1       8.166  -2.519  23.348  1.00  0.00     0.176 N 
HETATM    7  O   UNL     1       6.797  -1.261  24.745  1.00  0.00    -0.150 OA
HETATM    8  O   UNL     1       6.096  -0.997  23.663  1.00  0.00    -0.150 OA
HETATM    9  C   UNL     1       8.416  -2.584  21.921  1.00  0.00     0.357 A 
BRANCH   6  10
HETATM   10  C   UNL     1       9.055  -2.304  24.479  1.00  0.00     0.277 C 
HETATM   11  C   UNL     1      10.431  -2.583  24.090  1.00  0.00     0.037 C 
ENDBRANCH   6  10
ENDBRANCH   3   4
BRANCH   1  12
HETATM   12  C   UNL     1       8.538   0.787  20.390  1.00  0.00     0.107 C 
HETATM   13  C   UNL     1       9.628   0.435  21.248  1.00  0.00     0.130 C 
BRANCH  13  14
HETATM   14  N   UNL     1       9.783  -0.179  22.468  1.00  0.00    -0.279 N 
ATOM     15  HN  UNL     1       9.048  -0.695  22.952  1.00  0.00     0.193 HD
BRANCH  14  16
HETATM   16  O   UNL     1      11.060  -0.005  22.950  1.00  0.00    -0.290 OA
HETATM   17  H   UNL     1      11.684  -0.617  22.477  1.00  0.00     0.244 HD
ENDBRANCH  14  16
ENDBRANCH  13  14
ENDBRANCH   1  12
TORSDOF 5
