REMARK  7 active torsions:
REMARK  status: ('A' for Active; 'I' for Inactive)
REMARK    1  A    between atoms: S_2  and  N_14 
REMARK    2  A    between atoms: S_2  and  O_5 
REMARK    3  A    between atoms: C_4  and  C_13 
REMARK    4  A    between atoms: O_5  and  C_10 
REMARK    5  A    between atoms: C_7  and  O_11 
REMARK    6  A    between atoms: C_7  and  C_10 
REMARK    7  A    between atoms: C_12  and  C_13 
REMARK       I    between atoms: C_12  and  N_14 
ROOT
HETATM    1  O   UNL     1       9.101  -3.286  25.127  1.00  0.00    -0.175 OA
HETATM    2  S   UNL     1       9.358  -2.918  23.795  1.00  0.00     0.369 S 
HETATM    3  O   UNL     1       9.673  -3.872  22.844  1.00  0.00    -0.175 OA
ENDROOT
BRANCH   2   4
HETATM    4  N   UNL     1       8.014  -1.938  22.963  1.00  0.00    -0.202 N 
HETATM    5  C   UNL     1       7.123  -2.064  23.892  1.00  0.00     0.146 C 
HETATM    6  C   UNL     1       8.202  -1.563  21.710  1.00  0.00     0.281 C 
HETATM    7  O   UNL     1       9.341  -1.690  21.226  1.00  0.00    -0.265 OA
BRANCH   6   8
HETATM    8  C   UNL     1       7.085  -0.988  20.973  1.00  0.00     0.104 C 
HETATM    9  C   UNL     1       7.073  -0.331  19.783  1.00  0.00     0.041 C 
BRANCH   8  10
HETATM   10  C   UNL     1       5.884  -0.872  21.624  1.00  0.00     0.104 C 
HETATM   11  N   UNL     1       4.851  -0.506  21.883  1.00  0.00    -0.191 NA
ENDBRANCH   8  10
ENDBRANCH   6   8
ENDBRANCH   2   4
BRANCH   2  12
HETATM   12  O   UNL     1      10.397  -1.778  23.702  1.00  0.00    -0.257 OA
BRANCH  12  13
HETATM   13  C   UNL     1      10.140  -0.401  23.794  1.00  0.00     0.218 C 
BRANCH  13  14
HETATM   14  C   UNL     1      11.263   0.177  22.933  1.00  0.00     0.191 C 
BRANCH  14  15
HETATM   15  O   UNL     1      11.014  -0.324  21.625  1.00  0.00    -0.399 OA
HETATM   16  H   UNL     1      10.674  -1.353  21.721  1.00  0.00     0.209 HD
ENDBRANCH  14  15
ENDBRANCH  13  14
ENDBRANCH  12  13
ENDBRANCH   2  12
TORSDOF 7
