MODEL 1
REMARK VINA RESULT:    -4.963      0.000      0.000
REMARK INTER + INTRA:          -6.794
REMARK INTER:                  -6.849
REMARK INTRA:                   0.056
REMARK UNBOUND:                 0.056
REMARK  7 active torsions:
REMARK  status: ('A' for Active; 'I' for Inactive)
REMARK    1  A    between atoms: S_2  and  N_14 
REMARK    2  A    between atoms: S_2  and  O_5 
REMARK    3  A    between atoms: C_4  and  C_13 
REMARK    4  A    between atoms: O_5  and  C_10 
REMARK    5  A    between atoms: C_7  and  O_11 
REMARK    6  A    between atoms: C_7  and  C_10 
REMARK    7  A    between atoms: C_12  and  C_13 
REMARK       I    between atoms: C_12  and  N_14 
ROOT
HETATM    1  O   UNL     1       7.175  11.251   4.802  1.00  0.00    -0.175 OA
HETATM    2  S   UNL     1       6.445  12.373   4.373  1.00  0.00     0.369 S 
HETATM    3  O   UNL     1       5.518  12.976   5.204  1.00  0.00    -0.175 OA
ENDROOT
BRANCH   2   4
HETATM    4  N   UNL     1       7.465  13.812   3.782  1.00  0.00    -0.202 N 
HETATM    5  C   UNL     1       6.492  14.650   3.635  1.00  0.00     0.146 C 
HETATM    6  C   UNL     1       8.740  13.600   3.509  1.00  0.00     0.281 C 
HETATM    7  O   UNL     1       9.243  12.519   3.865  1.00  0.00    -0.265 OA
BRANCH   6   8
HETATM    8  C   UNL     1       9.501  14.649   2.844  1.00  0.00     0.104 C 
HETATM    9  C   UNL     1       9.430  15.097   1.563  1.00  0.00     0.041 C 
BRANCH   8  10
HETATM   10  C   UNL     1      10.606  15.142   3.489  1.00  0.00     0.104 C 
HETATM   11  N   UNL     1      11.638  15.187   3.937  1.00  0.00    -0.191 NA
ENDBRANCH   8  10
ENDBRANCH   6   8
ENDBRANCH   2   4
BRANCH   2  12
HETATM   12  O   UNL     1       5.783  12.137   2.996  1.00  0.00    -0.257 OA
BRANCH  12  13
HETATM   13  C   UNL     1       6.079  11.107   2.090  1.00  0.00     0.218 C 
BRANCH  13  14
HETATM   14  C   UNL     1       6.624  11.896   0.899  1.00  0.00     0.191 C 
BRANCH  14  15
HETATM   15  O   UNL     1       7.093  10.907  -0.009  1.00  0.00    -0.399 OA
HETATM   16  H   UNL     1       6.349  10.796  -0.795  1.00  0.00     0.209 HD
ENDBRANCH  14  15
ENDBRANCH  13  14
ENDBRANCH  12  13
ENDBRANCH   2  12
TORSDOF 7
ENDMDL
MODEL 2
REMARK VINA RESULT:    -4.766     25.104     25.962
REMARK INTER + INTRA:          -6.522
REMARK INTER:                  -6.447
REMARK INTRA:                  -0.075
REMARK UNBOUND:                 0.056
REMARK  7 active torsions:
REMARK  status: ('A' for Active; 'I' for Inactive)
REMARK    1  A    between atoms: S_2  and  N_14 
REMARK    2  A    between atoms: S_2  and  O_5 
REMARK    3  A    between atoms: C_4  and  C_13 
REMARK    4  A    between atoms: O_5  and  C_10 
REMARK    5  A    between atoms: C_7  and  O_11 
REMARK    6  A    between atoms: C_7  and  C_10 
REMARK    7  A    between atoms: C_12  and  C_13 
REMARK       I    between atoms: C_12  and  N_14 
ROOT
HETATM    1  O   UNL     1       8.795  -3.159  26.118  1.00  0.00    -0.175 OA
HETATM    2  S   UNL     1       8.416  -2.594  24.887  1.00  0.00     0.369 S 
HETATM    3  O   UNL     1       7.219  -1.914  24.758  1.00  0.00    -0.175 OA
ENDROOT
BRANCH   2   4
HETATM    4  N   UNL     1       9.642  -1.413  24.139  1.00  0.00    -0.202 N 
HETATM    5  C   UNL     1       9.815  -2.044  23.023  1.00  0.00     0.146 C 
HETATM    6  C   UNL     1      10.121  -0.446  24.902  1.00  0.00     0.281 C 
HETATM    7  O   UNL     1       9.573  -0.242  26.000  1.00  0.00    -0.265 OA
BRANCH   6   8
HETATM    8  C   UNL     1      11.235   0.353  24.410  1.00  0.00     0.104 C 
HETATM    9  C   UNL     1      11.228   1.486  23.659  1.00  0.00     0.041 C 
BRANCH   8  10
HETATM   10  C   UNL     1      12.493  -0.184  24.501  1.00  0.00     0.104 C 
HETATM   11  N   UNL     1      13.573  -0.398  24.263  1.00  0.00    -0.191 NA
ENDBRANCH   8  10
ENDBRANCH   6   8
ENDBRANCH   2   4
BRANCH   2  12
HETATM   12  O   UNL     1       8.525  -3.611  23.729  1.00  0.00    -0.257 OA
BRANCH  12  13
HETATM   13  C   UNL     1       7.823  -4.821  23.608  1.00  0.00     0.218 C 
BRANCH  13  14
HETATM   14  C   UNL     1       7.126  -4.636  22.260  1.00  0.00     0.191 C 
BRANCH  14  15
HETATM   15  O   UNL     1       7.536  -5.754  21.481  1.00  0.00    -0.399 OA
HETATM   16  H   UNL     1       8.620  -5.723  21.399  1.00  0.00     0.209 HD
ENDBRANCH  14  15
ENDBRANCH  13  14
ENDBRANCH  12  13
ENDBRANCH   2  12
TORSDOF 7
ENDMDL
MODEL 3
REMARK VINA RESULT:    -4.494     33.225     35.115
REMARK INTER + INTRA:          -6.147
REMARK INTER:                  -6.039
REMARK INTRA:                  -0.108
REMARK UNBOUND:                 0.056
REMARK  7 active torsions:
REMARK  status: ('A' for Active; 'I' for Inactive)
REMARK    1  A    between atoms: S_2  and  N_14 
REMARK    2  A    between atoms: S_2  and  O_5 
REMARK    3  A    between atoms: C_4  and  C_13 
REMARK    4  A    between atoms: O_5  and  C_10 
REMARK    5  A    between atoms: C_7  and  O_11 
REMARK    6  A    between atoms: C_7  and  C_10 
REMARK    7  A    between atoms: C_12  and  C_13 
REMARK       I    between atoms: C_12  and  N_14 
ROOT
HETATM    1  O   UNL     1       3.484 -18.797   9.020  1.00  0.00    -0.175 OA
HETATM    2  S   UNL     1       2.287 -19.222   8.419  1.00  0.00     0.369 S 
HETATM    3  O   UNL     1       2.091 -19.089   7.056  1.00  0.00    -0.175 OA
ENDROOT
BRANCH   2   4
HETATM    4  N   UNL     1       1.824 -20.997   8.729  1.00  0.00    -0.202 N 
HETATM    5  C   UNL     1       0.720 -20.768   9.363  1.00  0.00     0.146 C 
HETATM    6  C   UNL     1       2.711 -21.932   8.434  1.00  0.00     0.281 C 
HETATM    7  O   UNL     1       3.710 -21.602   7.770  1.00  0.00    -0.265 OA
BRANCH   6   8
HETATM    8  C   UNL     1       2.459 -23.300   8.866  1.00  0.00     0.104 C 
HETATM    9  C   UNL     1       2.708 -23.895  10.062  1.00  0.00     0.041 C 
BRANCH   8  10
HETATM   10  C   UNL     1       2.127 -24.220   7.905  1.00  0.00     0.104 C 
HETATM   11  N   UNL     1       2.130 -25.174   7.306  1.00  0.00    -0.191 NA
ENDBRANCH   8  10
ENDBRANCH   6   8
ENDBRANCH   2   4
BRANCH   2  12
HETATM   12  O   UNL     1       1.045 -18.658   9.146  1.00  0.00    -0.257 OA
BRANCH  12  13
HETATM   13  C   UNL     1       0.648 -17.313   9.203  1.00  0.00     0.218 C 
BRANCH  13  14
HETATM   14  C   UNL     1      -0.071 -17.265  10.552  1.00  0.00     0.191 C 
BRANCH  14  15
HETATM   15  O   UNL     1       0.941 -16.924  11.492  1.00  0.00    -0.399 OA
HETATM   16  H   UNL     1       0.456 -16.722  12.445  1.00  0.00     0.209 HD
ENDBRANCH  14  15
ENDBRANCH  13  14
ENDBRANCH  12  13
ENDBRANCH   2  12
TORSDOF 7
ENDMDL
MODEL 4
REMARK VINA RESULT:    -4.459     25.905     27.031
REMARK INTER + INTRA:          -6.098
REMARK INTER:                  -5.908
REMARK INTRA:                  -0.191
REMARK UNBOUND:                 0.056
REMARK  7 active torsions:
REMARK  status: ('A' for Active; 'I' for Inactive)
REMARK    1  A    between atoms: S_2  and  N_14 
REMARK    2  A    between atoms: S_2  and  O_5 
REMARK    3  A    between atoms: C_4  and  C_13 
REMARK    4  A    between atoms: O_5  and  C_10 
REMARK    5  A    between atoms: C_7  and  O_11 
REMARK    6  A    between atoms: C_7  and  C_10 
REMARK    7  A    between atoms: C_12  and  C_13 
REMARK       I    between atoms: C_12  and  N_14 
ROOT
HETATM    1  O   UNL     1      24.289  -2.023  14.819  1.00  0.00    -0.175 OA
HETATM    2  S   UNL     1      23.828  -1.729  16.114  1.00  0.00     0.369 S 
HETATM    3  O   UNL     1      22.486  -1.842  16.431  1.00  0.00    -0.175 OA
ENDROOT
BRANCH   2   4
HETATM    4  N   UNL     1      24.655  -2.668  17.490  1.00  0.00    -0.202 N 
HETATM    5  C   UNL     1      25.245  -1.658  18.043  1.00  0.00     0.146 C 
HETATM    6  C   UNL     1      24.603  -3.988  17.461  1.00  0.00     0.281 C 
HETATM    7  O   UNL     1      23.829  -4.525  16.649  1.00  0.00    -0.265 OA
BRANCH   6   8
HETATM    8  C   UNL     1      25.421  -4.744  18.400  1.00  0.00     0.104 C 
HETATM    9  C   UNL     1      26.731  -5.097  18.325  1.00  0.00     0.041 C 
BRANCH   8  10
HETATM   10  C   UNL     1      24.779  -5.404  19.416  1.00  0.00     0.104 C 
HETATM   11  N   UNL     1      24.075  -5.599  20.273  1.00  0.00    -0.191 NA
ENDBRANCH   8  10
ENDBRANCH   6   8
ENDBRANCH   2   4
BRANCH   2  12
HETATM   12  O   UNL     1      24.328  -0.352  16.606  1.00  0.00    -0.257 OA
BRANCH  12  13
HETATM   13  C   UNL     1      23.848   0.905  16.207  1.00  0.00     0.218 C 
BRANCH  13  14
HETATM   14  C   UNL     1      24.774   1.226  15.033  1.00  0.00     0.191 C 
BRANCH  14  15
HETATM   15  O   UNL     1      24.012   0.916  13.873  1.00  0.00    -0.399 OA
HETATM   16  H   UNL     1      24.522   0.115  13.343  1.00  0.00     0.209 HD
ENDBRANCH  14  15
ENDBRANCH  13  14
ENDBRANCH  12  13
ENDBRANCH   2  12
TORSDOF 7
ENDMDL
MODEL 5
REMARK VINA RESULT:    -4.455     26.215     27.213
REMARK INTER + INTRA:          -6.092
REMARK INTER:                  -5.787
REMARK INTRA:                  -0.305
REMARK UNBOUND:                 0.056
REMARK  7 active torsions:
REMARK  status: ('A' for Active; 'I' for Inactive)
REMARK    1  A    between atoms: S_2  and  N_14 
REMARK    2  A    between atoms: S_2  and  O_5 
REMARK    3  A    between atoms: C_4  and  C_13 
REMARK    4  A    between atoms: O_5  and  C_10 
REMARK    5  A    between atoms: C_7  and  O_11 
REMARK    6  A    between atoms: C_7  and  C_10 
REMARK    7  A    between atoms: C_12  and  C_13 
REMARK       I    between atoms: C_12  and  N_14 
ROOT
HETATM    1  O   UNL     1       7.058  -3.548  23.371  1.00  0.00    -0.175 OA
HETATM    2  S   UNL     1       7.872  -3.755  24.498  1.00  0.00     0.369 S 
HETATM    3  O   UNL     1       8.814  -4.768  24.516  1.00  0.00    -0.175 OA
ENDROOT
BRANCH   2   4
HETATM    4  N   UNL     1       8.850  -2.275  25.059  1.00  0.00    -0.202 N 
HETATM    5  C   UNL     1       8.306  -2.154  26.226  1.00  0.00     0.146 C 
HETATM    6  C   UNL     1       9.624  -1.670  24.175  1.00  0.00     0.281 C 
HETATM    7  O   UNL     1       9.828  -2.240  23.088  1.00  0.00    -0.265 OA
BRANCH   6   8
HETATM    8  C   UNL     1      10.227  -0.392  24.528  1.00  0.00     0.104 C 
HETATM    9  C   UNL     1       9.674   0.850  24.570  1.00  0.00     0.041 C 
BRANCH   8  10
HETATM   10  C   UNL     1      11.593  -0.338  24.630  1.00  0.00     0.104 C 
HETATM   11  N   UNL     1      12.656  -0.010  24.455  1.00  0.00    -0.191 NA
ENDBRANCH   8  10
ENDBRANCH   6   8
ENDBRANCH   2   4
BRANCH   2  12
HETATM   12  O   UNL     1       7.045  -3.837  25.800  1.00  0.00    -0.257 OA
BRANCH  12  13
HETATM   13  C   UNL     1       6.266  -4.923  26.231  1.00  0.00     0.218 C 
BRANCH  13  14
HETATM   14  C   UNL     1       6.960  -5.295  27.541  1.00  0.00     0.191 C 
BRANCH  14  15
HETATM   15  O   UNL     1       8.059  -6.111  27.154  1.00  0.00    -0.399 OA
HETATM   16  H   UNL     1       7.862  -6.481  26.150  1.00  0.00     0.209 HD
ENDBRANCH  14  15
ENDBRANCH  13  14
ENDBRANCH  12  13
ENDBRANCH   2  12
TORSDOF 7
ENDMDL
MODEL 6
REMARK VINA RESULT:    -4.435     28.057     29.256
REMARK INTER + INTRA:          -6.064
REMARK INTER:                  -5.760
REMARK INTRA:                  -0.305
REMARK UNBOUND:                 0.056
REMARK  7 active torsions:
REMARK  status: ('A' for Active; 'I' for Inactive)
REMARK    1  A    between atoms: S_2  and  N_14 
REMARK    2  A    between atoms: S_2  and  O_5 
REMARK    3  A    between atoms: C_4  and  C_13 
REMARK    4  A    between atoms: O_5  and  C_10 
REMARK    5  A    between atoms: C_7  and  O_11 
REMARK    6  A    between atoms: C_7  and  C_10 
REMARK    7  A    between atoms: C_12  and  C_13 
REMARK       I    between atoms: C_12  and  N_14 
ROOT
HETATM    1  O   UNL     1       7.986  -2.970  24.867  1.00  0.00    -0.175 OA
HETATM    2  S   UNL     1       7.557  -4.295  24.678  1.00  0.00     0.369 S 
HETATM    3  O   UNL     1       8.470  -5.311  24.461  1.00  0.00    -0.175 OA
ENDROOT
BRANCH   2   4
HETATM    4  N   UNL     1       6.484  -4.988  26.029  1.00  0.00    -0.202 N 
HETATM    5  C   UNL     1       5.395  -5.084  25.338  1.00  0.00     0.146 C 
HETATM    6  C   UNL     1       6.975  -5.030  27.255  1.00  0.00     0.281 C 
HETATM    7  O   UNL     1       8.191  -4.812  27.405  1.00  0.00    -0.265 OA
BRANCH   6   8
HETATM    8  C   UNL     1       6.085  -5.363  28.358  1.00  0.00     0.104 C 
HETATM    9  C   UNL     1       5.178  -4.589  29.010  1.00  0.00     0.041 C 
BRANCH   8  10
HETATM   10  C   UNL     1       6.302  -6.546  29.017  1.00  0.00     0.104 C 
HETATM   11  N   UNL     1       6.767  -7.533  29.296  1.00  0.00    -0.191 NA
ENDBRANCH   8  10
ENDBRANCH   6   8
ENDBRANCH   2   4
BRANCH   2  12
HETATM   12  O   UNL     1       6.454  -4.395  23.600  1.00  0.00    -0.257 OA
BRANCH  12  13
HETATM   13  C   UNL     1       6.537  -3.950  22.272  1.00  0.00     0.218 C 
BRANCH  13  14
HETATM   14  C   UNL     1       6.354  -5.256  21.500  1.00  0.00     0.191 C 
BRANCH  14  15
HETATM   15  O   UNL     1       7.606  -5.923  21.609  1.00  0.00    -0.399 OA
HETATM   16  H   UNL     1       7.461  -6.957  21.305  1.00  0.00     0.209 HD
ENDBRANCH  14  15
ENDBRANCH  13  14
ENDBRANCH  12  13
ENDBRANCH   2  12
TORSDOF 7
ENDMDL
MODEL 7
REMARK VINA RESULT:    -4.404     20.867     21.849
REMARK INTER + INTRA:          -6.022
REMARK INTER:                  -6.074
REMARK INTRA:                   0.052
REMARK UNBOUND:                 0.056
REMARK  7 active torsions:
REMARK  status: ('A' for Active; 'I' for Inactive)
REMARK    1  A    between atoms: S_2  and  N_14 
REMARK    2  A    between atoms: S_2  and  O_5 
REMARK    3  A    between atoms: C_4  and  C_13 
REMARK    4  A    between atoms: O_5  and  C_10 
REMARK    5  A    between atoms: C_7  and  O_11 
REMARK    6  A    between atoms: C_7  and  C_10 
REMARK    7  A    between atoms: C_12  and  C_13 
REMARK       I    between atoms: C_12  and  N_14 
ROOT
HETATM    1  O   UNL     1       8.586  -0.057  19.823  1.00  0.00    -0.175 OA
HETATM    2  S   UNL     1       7.487   0.054  20.693  1.00  0.00     0.369 S 
HETATM    3  O   UNL     1       6.835  -1.074  21.158  1.00  0.00    -0.175 OA
ENDROOT
BRANCH   2   4
HETATM    4  N   UNL     1       7.796   1.021  22.251  1.00  0.00    -0.202 N 
HETATM    5  C   UNL     1       6.737   0.642  22.889  1.00  0.00     0.146 C 
HETATM    6  C   UNL     1       8.788   1.894  22.255  1.00  0.00     0.281 C 
HETATM    7  O   UNL     1       9.593   1.869  21.307  1.00  0.00    -0.265 OA
BRANCH   6   8
HETATM    8  C   UNL     1       8.912   2.812  23.379  1.00  0.00     0.104 C 
HETATM    9  C   UNL     1       9.332   2.579  24.651  1.00  0.00     0.041 C 
BRANCH   8  10
HETATM   10  C   UNL     1       8.335   4.050  23.258  1.00  0.00     0.104 C 
HETATM   11  N   UNL     1       7.550   4.841  23.100  1.00  0.00    -0.191 NA
ENDBRANCH   8  10
ENDBRANCH   6   8
ENDBRANCH   2   4
BRANCH   2  12
HETATM   12  O   UNL     1       6.427   1.043  20.159  1.00  0.00    -0.257 OA
BRANCH  12  13
HETATM   13  C   UNL     1       5.258   0.717  19.453  1.00  0.00     0.218 C 
BRANCH  13  14
HETATM   14  C   UNL     1       5.764   0.709  18.011  1.00  0.00     0.191 C 
BRANCH  14  15
HETATM   15  O   UNL     1       5.665  -0.648  17.597  1.00  0.00    -0.399 OA
HETATM   16  H   UNL     1       4.938  -1.141  18.240  1.00  0.00     0.209 HD
ENDBRANCH  14  15
ENDBRANCH  13  14
ENDBRANCH  12  13
ENDBRANCH   2  12
TORSDOF 7
ENDMDL
MODEL 8
REMARK VINA RESULT:    -4.291     25.244     26.288
REMARK INTER + INTRA:          -5.865
REMARK INTER:                  -5.903
REMARK INTRA:                   0.038
REMARK UNBOUND:                 0.056
REMARK  7 active torsions:
REMARK  status: ('A' for Active; 'I' for Inactive)
REMARK    1  A    between atoms: S_2  and  N_14 
REMARK    2  A    between atoms: S_2  and  O_5 
REMARK    3  A    between atoms: C_4  and  C_13 
REMARK    4  A    between atoms: O_5  and  C_10 
REMARK    5  A    between atoms: C_7  and  O_11 
REMARK    6  A    between atoms: C_7  and  C_10 
REMARK    7  A    between atoms: C_12  and  C_13 
REMARK       I    between atoms: C_12  and  N_14 
ROOT
HETATM    1  O   UNL     1       6.737  -2.219  24.197  1.00  0.00    -0.175 OA
HETATM    2  S   UNL     1       7.919  -2.701  23.609  1.00  0.00     0.369 S 
HETATM    3  O   UNL     1       7.892  -3.340  22.382  1.00  0.00    -0.175 OA
ENDROOT
BRANCH   2   4
HETATM    4  N   UNL     1       9.271  -1.444  23.385  1.00  0.00    -0.202 N 
HETATM    5  C   UNL     1       9.552  -1.725  22.155  1.00  0.00     0.146 C 
HETATM    6  C   UNL     1       9.692  -0.787  24.452  1.00  0.00     0.281 C 
HETATM    7  O   UNL     1       9.024  -0.879  25.497  1.00  0.00    -0.265 OA
BRANCH   6   8
HETATM    8  C   UNL     1      10.887   0.039  24.343  1.00  0.00     0.104 C 
HETATM    9  C   UNL     1      12.197  -0.304  24.472  1.00  0.00     0.041 C 
BRANCH   8  10
HETATM   10  C   UNL     1      10.723   1.400  24.323  1.00  0.00     0.104 C 
HETATM   11  N   UNL     1      10.822   2.474  23.999  1.00  0.00    -0.191 NA
ENDBRANCH   8  10
ENDBRANCH   6   8
ENDBRANCH   2   4
BRANCH   2  12
HETATM   12  O   UNL     1       8.739  -3.569  24.590  1.00  0.00    -0.257 OA
BRANCH  12  13
HETATM   13  C   UNL     1       8.333  -4.775  25.181  1.00  0.00     0.218 C 
BRANCH  13  14
HETATM   14  C   UNL     1       8.492  -4.455  26.667  1.00  0.00     0.191 C 
BRANCH  14  15
HETATM   15  O   UNL     1       8.358  -5.709  27.327  1.00  0.00    -0.399 OA
HETATM   16  H   UNL     1       9.033  -5.711  28.180  1.00  0.00     0.209 HD
ENDBRANCH  14  15
ENDBRANCH  13  14
ENDBRANCH  12  13
ENDBRANCH   2  12
TORSDOF 7
ENDMDL
MODEL 9
REMARK VINA RESULT:    -4.262     24.136     25.514
REMARK INTER + INTRA:          -5.827
REMARK INTER:                  -5.750
REMARK INTRA:                  -0.077
REMARK UNBOUND:                 0.056
REMARK  7 active torsions:
REMARK  status: ('A' for Active; 'I' for Inactive)
REMARK    1  A    between atoms: S_2  and  N_14 
REMARK    2  A    between atoms: S_2  and  O_5 
REMARK    3  A    between atoms: C_4  and  C_13 
REMARK    4  A    between atoms: O_5  and  C_10 
REMARK    5  A    between atoms: C_7  and  O_11 
REMARK    6  A    between atoms: C_7  and  C_10 
REMARK    7  A    between atoms: C_12  and  C_13 
REMARK       I    between atoms: C_12  and  N_14 
ROOT
HETATM    1  O   UNL     1       9.311  -1.719  25.115  1.00  0.00    -0.175 OA
HETATM    2  S   UNL     1       9.325  -1.709  23.710  1.00  0.00     0.369 S 
HETATM    3  O   UNL     1      10.392  -2.241  23.007  1.00  0.00    -0.175 OA
ENDROOT
BRANCH   2   4
HETATM    4  N   UNL     1       7.857  -2.503  22.890  1.00  0.00    -0.202 N 
HETATM    5  C   UNL     1       7.474  -1.472  22.209  1.00  0.00     0.146 C 
HETATM    6  C   UNL     1       7.496  -3.709  23.293  1.00  0.00     0.281 C 
HETATM    7  O   UNL     1       8.274  -4.335  24.034  1.00  0.00    -0.265 OA
BRANCH   6   8
HETATM    8  C   UNL     1       6.231  -4.257  22.823  1.00  0.00     0.104 C 
HETATM    9  C   UNL     1       5.009  -4.261  23.418  1.00  0.00     0.041 C 
BRANCH   8  10
HETATM   10  C   UNL     1       6.262  -5.088  21.733  1.00  0.00     0.104 C 
HETATM   11  N   UNL     1       5.958  -5.577  20.765  1.00  0.00    -0.191 NA
ENDBRANCH   8  10
ENDBRANCH   6   8
ENDBRANCH   2   4
BRANCH   2  12
HETATM   12  O   UNL     1       9.021  -0.305  23.141  1.00  0.00    -0.257 OA
BRANCH  12  13
HETATM   13  C   UNL     1       9.817   0.843  23.274  1.00  0.00     0.218 C 
BRANCH  13  14
HETATM   14  C   UNL     1      10.389   0.983  21.863  1.00  0.00     0.191 C 
BRANCH  14  15
HETATM   15  O   UNL     1      10.169   2.345  21.514  1.00  0.00    -0.399 OA
HETATM   16  H   UNL     1      10.921   2.626  20.779  1.00  0.00     0.209 HD
ENDBRANCH  14  15
ENDBRANCH  13  14
ENDBRANCH  12  13
ENDBRANCH   2  12
TORSDOF 7
ENDMDL
