stable:False satoms:11 tatoms:24 sratio:0.4583333333333333
  -OEChem-08062411293D

 29 30  0     1  0  0  0  0  0999 V2000
   -5.9036   -6.1038  -23.2108 Cl  0  0  0  0  0  0  0  0  0  0  0  0
   -5.2282   -4.7351  -22.0509 S   0  0  0  0  0  0  0  0  0  0  0  0
   -3.8829   -4.5292  -22.4240 O   0  0  0  0  0  0  0  0  0  0  0  0
   -5.4569   -5.1185  -20.7172 O   0  0  0  0  0  0  0  0  0  0  0  0
   -6.1870   -3.5507  -22.4915 N   0  0  0  0  0  0  0  0  0  0  0  0
   -6.3320   -2.5093  -21.9243 C   0  0  0  0  0  0  0  0  0  0  0  0
   -6.7555   -1.5867  -21.3791 C   0  0  0  0  0  0  0  0  0  0  0  0
   -7.0738   -0.6560  -20.4575 C   0  0  3  0  0  0  0  0  0  0  0  0
   -6.5186   -0.7651  -19.2644 O   0  0  0  0  0  0  0  0  0  0  0  0
   -5.9952    0.5869  -18.9306 C   0  0  0  0  0  2  0  0  0  0  0  0
   -5.1527    0.9887  -19.0582 C   0  0  0  0  0  2  0  0  0  0  0  0
   -5.8467    1.0686  -19.9959 H   0  0  0  0  0  0  0  0  0  0  0  0
   -8.0051    0.1261  -20.7889 C   0  0  0  0  0  0  0  0  0  0  0  0
   -9.0759    0.6861  -21.3778 C   0  0  0  0  0  0  0  0  0  0  0  0
   -9.6673    1.5464  -20.8263 O   0  0  0  0  0  0  0  0  0  0  0  0
   -9.3291    0.0935  -22.5791 N   0  0  0  0  0  0  0  0  0  0  0  0
  -10.4231    0.4805  -23.1795 C   0  0  0  0  0  0  0  0  0  0  0  0
  -10.8545    1.5288  -23.8787 C   0  0  0  0  0  0  0  0  0  0  0  0
  -11.5266    2.2307  -24.5458 N   0  0  0  0  0  0  0  0  0  0  0  0
  -12.3708    1.3363  -24.4041 C   0  0  0  0  0  0  0  0  0  0  0  0
  -12.6220    0.2629  -24.0179 C   0  0  0  0  0  0  0  0  0  0  0  0
  -11.6692   -0.2938  -23.3722 C   0  0  0  0  0  0  0  0  0  0  0  0
  -11.7652   -1.8029  -22.7505 Cl  0  0  0  0  0  0  0  0  0  0  0  0
   -7.1005   -3.9557  -22.5305 H   0  0  0  0  0  0  0  0  0  0  0  0
   -6.2950    0.0346  -20.8131 H   0  0  0  0  0  0  0  0  0  0  0  0
   -7.3364    0.9738  -20.9995 H   0  0  0  0  0  0  0  0  0  0  0  0
   -8.4068    0.2205  -19.7693 H   0  0  0  0  0  0  0  0  0  0  0  0
   -8.7179   -0.5920  -22.9746 H   0  0  0  0  0  0  0  0  0  0  0  0
  -13.5742   -0.2165  -24.1908 H   0  0  0  0  0  0  0  0  0  0  0  0
 19 20  2  0  0  0  0
 18 19  1  0  0  0  0
 18 20  1  0  0  0  0
 20 21  1  0  0  0  0
 17 18  2  0  0  0  0
 21 22  2  0  0  0  0
 17 22  1  0  0  0  0
 16 17  1  0  0  0  0
 22 23  1  0  0  0  0
 14 15  2  0  0  0  0
 14 16  1  0  0  0  0
 13 14  1  0  0  0  0
  8 13  1  0  0  0  0
 11 12  1  0  0  0  0
 10 11  1  0  0  0  0
  7  8  1  0  0  0  0
  8  9  1  0  0  0  0
  9 10  1  0  0  0  0
  6  7  3  0  0  0  0
  5  6  1  0  0  0  0
  2  5  1  0  0  0  0
  2  3  2  0  0  0  0
  1  2  1  0  0  0  0
  2  4  2  0  0  0  0
  5 24  1  0  0  0  0
  8 25  1  0  0  0  0
 13 26  1  0  0  0  0
 13 27  1  0  0  0  0
 16 28  1  0  0  0  0
 21 29  1  0  0  0  0
M  END
> <Chemgauss4>
-6.944516

$$$$
