stable:False satoms:11 tatoms:24 sratio:0.4583333333333333
  -OEChem-08062411293D

 29 30  0     1  0  0  0  0  0999 V2000
    5.9775   -6.0173   23.2218 Cl  0  0  0  0  0  0  0  0  0  0  0  0
    5.2825   -4.6614   22.0585 S   0  0  0  0  0  0  0  0  0  0  0  0
    3.9269   -4.4935   22.4129 O   0  0  0  0  0  0  0  0  0  0  0  0
    5.5407   -5.0318   20.7265 O   0  0  0  0  0  0  0  0  0  0  0  0
    6.2026   -3.4540   22.5186 N   0  0  0  0  0  0  0  0  0  0  0  0
    6.3277   -2.4062   21.9584 C   0  0  0  0  0  0  0  0  0  0  0  0
    6.7342   -1.4699   21.4237 C   0  0  0  0  0  0  0  0  0  0  0  0
    7.0406   -0.5264   20.5112 C   0  0  3  0  0  0  0  0  0  0  0  0
    6.5059   -0.6443   19.3096 O   0  0  0  0  0  0  0  0  0  0  0  0
    5.9513    0.6949   18.9745 C   0  0  0  0  0  2  0  0  0  0  0  0
    5.0965    1.0733   19.0916 C   0  0  0  0  0  2  0  0  0  0  0  0
    5.7744    1.1670   20.0397 H   0  0  0  0  0  0  0  0  0  0  0  0
    7.9457    0.2788   20.8598 C   0  0  0  0  0  0  0  0  0  0  0  0
    8.9924    0.8642   21.4669 C   0  0  0  0  0  0  0  0  0  0  0  0
    9.5684    1.7429   20.9281 O   0  0  0  0  0  0  0  0  0  0  0  0
    9.2440    0.2727   22.6689 N   0  0  0  0  0  0  0  0  0  0  0  0
   10.3185    0.6859   23.2871 C   0  0  0  0  0  0  0  0  0  0  0  0
   10.7113    1.7418   23.9974 C   0  0  0  0  0  0  0  0  0  0  0  0
   11.3546    2.4580   24.6774 N   0  0  0  0  0  0  0  0  0  0  0  0
   12.2244    1.5873   24.5439 C   0  0  0  0  0  0  0  0  0  0  0  0
   12.5100    0.5230   24.1565 C   0  0  0  0  0  0  0  0  0  0  0  0
   11.5819   -0.0558   23.4943 C   0  0  0  0  0  0  0  0  0  0  0  0
   11.7275   -1.5586   22.8671 Cl  0  0  0  0  0  0  0  0  0  0  0  0
    7.1260   -3.8345   22.5690 H   0  0  0  0  0  0  0  0  0  0  0  0
    6.2385    0.1414   20.8586 H   0  0  0  0  0  0  0  0  0  0  0  0
    7.2515    1.1072   21.0645 H   0  0  0  0  0  0  0  0  0  0  0  0
    8.3594    0.3891   19.8466 H   0  0  0  0  0  0  0  0  0  0  0  0
    8.6458   -0.4310   23.0523 H   0  0  0  0  0  0  0  0  0  0  0  0
   13.4722    0.0684   24.3411 H   0  0  0  0  0  0  0  0  0  0  0  0
 19 20  2  0  0  0  0
 18 19  1  0  0  0  0
 18 20  1  0  0  0  0
 20 21  1  0  0  0  0
 17 18  2  0  0  0  0
 21 22  2  0  0  0  0
 17 22  1  0  0  0  0
 16 17  1  0  0  0  0
 22 23  1  0  0  0  0
 14 15  2  0  0  0  0
 14 16  1  0  0  0  0
 13 14  1  0  0  0  0
  8 13  1  0  0  0  0
 11 12  1  0  0  0  0
 10 11  1  0  0  0  0
  7  8  1  0  0  0  0
  8  9  1  0  0  0  0
  9 10  1  0  0  0  0
  6  7  3  0  0  0  0
  5  6  1  0  0  0  0
  2  5  1  0  0  0  0
  2  3  2  0  0  0  0
  1  2  1  0  0  0  0
  2  4  2  0  0  0  0
  5 24  1  0  0  0  0
  8 25  1  0  0  0  0
 13 26  1  0  0  0  0
 13 27  1  0  0  0  0
 16 28  1  0  0  0  0
 21 29  1  0  0  0  0
M  END
> <Chemgauss4>
-6.937136

$$$$
