stable:False satoms:7 tatoms:24 sratio:0.2916666666666667
  -OEChem-08062415523D

 43 44  0     0  0  0  0  0  0999 V2000
   -5.8993   -5.3489  -25.6664 C   0  0  0  0  0  0  0  0  0  0  0  0
   -7.5182   -4.8257  -25.5481 S   0  0  0  0  0  0  0  0  0  0  0  0
   -8.3552   -5.9919  -25.4903 O   0  0  0  0  0  0  0  0  0  0  0  0
   -7.8035   -4.0381  -26.7007 O   0  0  0  0  0  0  0  0  0  0  0  0
   -7.5960   -3.9783  -24.1938 N   0  0  0  0  0  0  0  0  0  0  0  0
   -8.5287   -3.3189  -23.8121 C   0  0  0  0  0  0  0  0  0  0  0  0
   -9.0329   -2.2564  -23.2871 C   0  0  0  0  0  0  0  0  0  0  0  0
   -9.8196   -1.3292  -23.3374 C   0  0  0  0  0  0  0  0  0  0  0  0
  -10.5987   -0.4519  -24.4338 C   0  0  0  0  0  0  0  0  0  0  0  0
  -11.6052   -0.1790  -24.5356 C   0  0  0  0  0  0  0  0  0  0  0  0
  -12.7670   -0.6671  -23.7417 C   0  0  0  0  0  0  0  0  0  0  0  0
  -12.3808   -1.6061  -22.8887 C   0  0  0  0  0  0  0  0  0  0  0  0
  -11.6267   -2.1035  -22.5277 C   0  0  0  0  0  0  0  0  0  0  0  0
   -9.4710   -0.8108  -22.3051 C   0  0  0  0  0  0  0  0  0  0  0  0
   -8.9304   -0.1024  -21.3389 C   0  0  0  0  0  0  0  0  0  0  0  0
   -9.4585    0.8579  -21.0811 O   0  0  0  0  0  0  0  0  0  0  0  0
   -7.8249   -0.6607  -20.8441 N   0  0  0  0  0  0  0  0  0  0  0  0
   -7.2303   -0.1259  -19.9345 C   0  0  0  0  0  0  0  0  0  0  0  0
   -7.4265    0.0982  -18.5919 C   0  0  0  0  0  0  0  0  0  0  0  0
   -7.1111    0.4877  -17.5793 N   0  0  0  0  0  0  0  0  0  0  0  0
   -5.8614    1.0974  -17.9240 C   0  0  0  0  0  0  0  0  0  0  0  0
   -5.3716    1.0579  -19.0367 C   0  0  0  0  0  0  0  0  0  0  0  0
   -5.8042    0.5356  -20.2014 C   0  0  0  0  0  0  0  0  0  0  0  0
   -5.1409    0.5265  -21.4884 C   0  0  0  0  0  0  0  0  0  0  0  0
   -5.7715   -5.9434  -26.5830 H   0  0  0  0  0  0  0  0  0  0  0  0
   -5.2330   -4.4744  -25.7009 H   0  0  0  0  0  0  0  0  0  0  0  0
   -5.6488   -5.9664  -24.7912 H   0  0  0  0  0  0  0  0  0  0  0  0
   -6.8290   -3.3386  -24.2437 H   0  0  0  0  0  0  0  0  0  0  0  0
   -9.3876   -3.9412  -24.0155 H   0  0  0  0  0  0  0  0  0  0  0  0
   -9.9622   -0.0691  -25.2179 H   0  0  0  0  0  0  0  0  0  0  0  0
  -11.8266    0.5423  -25.3083 H   0  0  0  0  0  0  0  0  0  0  0  0
  -13.5223   -1.0850  -24.4235 H   0  0  0  0  0  0  0  0  0  0  0  0
  -13.2031    0.1737  -23.1824 H   0  0  0  0  0  0  0  0  0  0  0  0
  -13.2681   -1.9668  -22.3896 H   0  0  0  0  0  0  0  0  0  0  0  0
  -11.7886   -2.8539  -21.7681 H   0  0  0  0  0  0  0  0  0  0  0  0
  -10.6275   -1.9053  -22.8866 H   0  0  0  0  0  0  0  0  0  0  0  0
   -7.4866   -1.5215  -21.2244 H   0  0  0  0  0  0  0  0  0  0  0  0
   -8.4035   -0.3230  -18.4064 H   0  0  0  0  0  0  0  0  0  0  0  0
   -5.3223    1.6234  -17.1500 H   0  0  0  0  0  0  0  0  0  0  0  0
   -4.4038    1.5325  -19.1043 H   0  0  0  0  0  0  0  0  0  0  0  0
   -4.5167   -0.3753  -21.5734 H   0  0  0  0  0  0  0  0  0  0  0  0
   -5.8948    0.5272  -22.2894 H   0  0  0  0  0  0  0  0  0  0  0  0
   -4.5072    1.4209  -21.5806 H   0  0  0  0  0  0  0  0  0  0  0  0
 20 21  2  0  0  0  0
 19 20  1  0  0  0  0
 21 22  1  0  0  0  0
 18 19  2  0  0  0  0
 22 23  2  0  0  0  0
 18 23  1  0  0  0  0
 17 18  1  0  0  0  0
 23 24  1  0  0  0  0
 15 16  2  0  0  0  0
 15 17  1  0  0  0  0
 14 15  1  0  0  0  0
  8 14  2  0  0  0  0
  7 14  1  0  0  0  0
 12 13  2  0  0  0  0
 11 12  1  0  0  0  0
  7  8  1  0  0  0  0
  8  9  1  0  0  0  0
 10 11  1  0  0  0  0
  6  7  2  3  0  0  0
  5  6  1  0  0  0  0
  9 10  2  0  0  0  0
  2  5  1  0  0  0  0
  2  3  2  0  0  0  0
  1  2  1  0  0  0  0
  2  4  2  0  0  0  0
  1 25  1  0  0  0  0
  1 26  1  0  0  0  0
  1 27  1  0  0  0  0
  5 28  1  0  0  0  0
  6 29  1  0  0  0  0
  9 30  1  0  0  0  0
 10 31  1  0  0  0  0
 11 32  1  0  0  0  0
 11 33  1  0  0  0  0
 12 34  1  0  0  0  0
 13 35  1  0  0  0  0
 13 36  1  0  0  0  0
 17 37  1  0  0  0  0
 19 38  1  0  0  0  0
 21 39  1  0  0  0  0
 22 40  1  0  0  0  0
 24 41  1  0  0  0  0
 24 42  1  0  0  0  0
 24 43  1  0  0  0  0
M  END
> <Chemgauss4>
-12.412073

$$$$
