stable:False satoms:7 tatoms:24 sratio:0.2916666666666667
  -OEChem-08062415523D

 43 44  0     0  0  0  0  0  0999 V2000
    6.0191   -5.2227   25.9000 C   0  0  0  0  0  0  0  0  0  0  0  0
    7.6381   -4.6995   25.7818 S   0  0  0  0  0  0  0  0  0  0  0  0
    8.4751   -5.8657   25.7239 O   0  0  0  0  0  0  0  0  0  0  0  0
    7.9233   -3.9119   26.9343 O   0  0  0  0  0  0  0  0  0  0  0  0
    7.7159   -3.8521   24.4275 N   0  0  0  0  0  0  0  0  0  0  0  0
    8.6486   -3.1927   24.0458 C   0  0  0  0  0  0  0  0  0  0  0  0
    9.1528   -2.1302   23.5208 C   0  0  0  0  0  0  0  0  0  0  0  0
    9.9395   -1.2030   23.5710 C   0  0  0  0  0  0  0  0  0  0  0  0
   10.7186   -0.3257   24.6675 C   0  0  0  0  0  0  0  0  0  0  0  0
   11.7251   -0.0528   24.7692 C   0  0  0  0  0  0  0  0  0  0  0  0
   12.8869   -0.5409   23.9753 C   0  0  0  0  0  0  0  0  0  0  0  0
   12.5007   -1.4799   23.1223 C   0  0  0  0  0  0  0  0  0  0  0  0
   11.7466   -1.9773   22.7614 C   0  0  0  0  0  0  0  0  0  0  0  0
    9.5909   -0.6846   22.5388 C   0  0  0  0  0  0  0  0  0  0  0  0
    9.0503    0.0238   21.5726 C   0  0  0  0  0  0  0  0  0  0  0  0
    9.5784    0.9841   21.3148 O   0  0  0  0  0  0  0  0  0  0  0  0
    7.9448   -0.5345   21.0778 N   0  0  0  0  0  0  0  0  0  0  0  0
    7.3502    0.0003   20.1682 C   0  0  0  0  0  0  0  0  0  0  0  0
    7.5464    0.2244   18.8255 C   0  0  0  0  0  0  0  0  0  0  0  0
    7.2309    0.6139   17.8129 N   0  0  0  0  0  0  0  0  0  0  0  0
    5.9813    1.2236   18.1576 C   0  0  0  0  0  0  0  0  0  0  0  0
    5.4915    1.1841   19.2703 C   0  0  0  0  0  0  0  0  0  0  0  0
    5.9241    0.6618   20.4350 C   0  0  0  0  0  0  0  0  0  0  0  0
    5.2608    0.6527   21.7221 C   0  0  0  0  0  0  0  0  0  0  0  0
    5.8914   -5.8172   26.8167 H   0  0  0  0  0  0  0  0  0  0  0  0
    5.3529   -4.3482   25.9345 H   0  0  0  0  0  0  0  0  0  0  0  0
    5.7687   -5.8402   25.0248 H   0  0  0  0  0  0  0  0  0  0  0  0
    6.9489   -3.2124   24.4773 H   0  0  0  0  0  0  0  0  0  0  0  0
    9.5075   -3.8150   24.2491 H   0  0  0  0  0  0  0  0  0  0  0  0
   10.0820    0.0571   25.4515 H   0  0  0  0  0  0  0  0  0  0  0  0
   11.9465    0.6685   25.5419 H   0  0  0  0  0  0  0  0  0  0  0  0
   13.6422   -0.9588   24.6572 H   0  0  0  0  0  0  0  0  0  0  0  0
   13.3230    0.2999   23.4161 H   0  0  0  0  0  0  0  0  0  0  0  0
   13.3879   -1.8406   22.6232 H   0  0  0  0  0  0  0  0  0  0  0  0
   11.9085   -2.7277   22.0018 H   0  0  0  0  0  0  0  0  0  0  0  0
   10.7474   -1.7791   23.1203 H   0  0  0  0  0  0  0  0  0  0  0  0
    7.6065   -1.3953   21.4581 H   0  0  0  0  0  0  0  0  0  0  0  0
    8.5234   -0.1968   18.6401 H   0  0  0  0  0  0  0  0  0  0  0  0
    5.4422    1.7496   17.3836 H   0  0  0  0  0  0  0  0  0  0  0  0
    4.5237    1.6587   19.3379 H   0  0  0  0  0  0  0  0  0  0  0  0
    4.6366   -0.2491   21.8070 H   0  0  0  0  0  0  0  0  0  0  0  0
    6.0147    0.6534   22.5230 H   0  0  0  0  0  0  0  0  0  0  0  0
    4.6271    1.5471   21.8142 H   0  0  0  0  0  0  0  0  0  0  0  0
 20 21  2  0  0  0  0
 19 20  1  0  0  0  0
 21 22  1  0  0  0  0
 18 19  2  0  0  0  0
 22 23  2  0  0  0  0
 18 23  1  0  0  0  0
 17 18  1  0  0  0  0
 23 24  1  0  0  0  0
 15 16  2  0  0  0  0
 15 17  1  0  0  0  0
 14 15  1  0  0  0  0
  8 14  2  0  0  0  0
  7 14  1  0  0  0  0
 12 13  2  0  0  0  0
 11 12  1  0  0  0  0
  7  8  1  0  0  0  0
  8  9  1  0  0  0  0
 10 11  1  0  0  0  0
  6  7  2  3  0  0  0
  5  6  1  0  0  0  0
  9 10  2  0  0  0  0
  2  5  1  0  0  0  0
  2  3  2  0  0  0  0
  1  2  1  0  0  0  0
  2  4  2  0  0  0  0
  1 25  1  0  0  0  0
  1 26  1  0  0  0  0
  1 27  1  0  0  0  0
  5 28  1  0  0  0  0
  6 29  1  0  0  0  0
  9 30  1  0  0  0  0
 10 31  1  0  0  0  0
 11 32  1  0  0  0  0
 11 33  1  0  0  0  0
 12 34  1  0  0  0  0
 13 35  1  0  0  0  0
 13 36  1  0  0  0  0
 17 37  1  0  0  0  0
 19 38  1  0  0  0  0
 21 39  1  0  0  0  0
 22 40  1  0  0  0  0
 24 41  1  0  0  0  0
 24 42  1  0  0  0  0
 24 43  1  0  0  0  0
M  END
> <Chemgauss4>
-12.626438

$$$$
