REMARK  8 active torsions:
REMARK  status: ('A' for Active; 'I' for Inactive)
REMARK    1  A    between atoms: S_2  and  N_5 
REMARK    2  A    between atoms: N_5  and  C_7 
REMARK    3  A    between atoms: C_7  and  C_8 
REMARK    4  A    between atoms: C_8  and  C_9 
REMARK    5  A    between atoms: C_9  and  C_10 
REMARK    6  A    between atoms: C_10  and  C_11 
REMARK       I    between atoms: C_11  and  N_13 
REMARK    7  A    between atoms: N_13  and  C_15 
REMARK    8  A    between atoms: C_15  and  C_23 
ROOT
HETATM    1  C   UNL     1       7.064  -0.068  20.262  1.00  0.00     0.148 C 
HETATM    2  N   UNL     1       7.307  -0.197  18.942  1.00  0.00    -0.226 N 
ATOM      3  HN  UNL     1       8.079  -0.791  18.639  1.00  0.00     0.203 HD
HETATM    4  N   UNL     1       6.657   0.354  18.124  1.00  0.00    -0.378 NA
HETATM    5  H   UNL     1       6.043   0.682  17.496  1.00  0.00     0.295 HD
ENDROOT
BRANCH   1   6
HETATM    6  N   UNL     1       7.812  -0.495  21.233  1.00  0.00    -0.300 N 
HETATM    7  C   UNL     1       9.091  -0.011  21.408  1.00  0.00     0.290 C 
HETATM    8  O   UNL     1       9.591   0.802  20.695  1.00  0.00    -0.259 OA
ATOM      9  HN  UNL     1       7.448  -1.199  21.876  1.00  0.00     0.171 HD
BRANCH   7  10
HETATM   10  C   UNL     1       9.728  -0.597  22.512  1.00  0.00    -0.071 C 
BRANCH  10  11
HETATM   11  C   UNL     1      10.097  -0.981  23.577  1.00  0.00     0.186 C 
BRANCH  11  12
HETATM   12  C   UNL     1       9.285  -2.010  23.853  1.00  0.00    -0.071 C 
BRANCH  12  13
HETATM   13  C   UNL     1       8.751  -2.832  24.281  1.00  0.00     0.022 C 
BRANCH  13  14
HETATM   14  N   UNL     1       8.010  -3.483  24.720  1.00  0.00    -0.230 N 
ATOM     15  HN  UNL     1       7.118  -3.599  24.240  1.00  0.00     0.190 HD
BRANCH  14  16
HETATM   16  S   UNL     1       8.246  -4.269  26.080  1.00  0.00     0.327 S 
HETATM   17 CL   UNL     1       6.395  -4.671  26.541  1.00  0.00     0.042 Cl
HETATM   18  O   UNL     1       8.854  -5.486  25.836  1.00  0.00    -0.188 OA
HETATM   19  O   UNL     1       8.797  -3.520  27.113  1.00  0.00    -0.188 OA
ENDBRANCH  14  16
ENDBRANCH  13  14
ENDBRANCH  12  13
ENDBRANCH  11  12
ENDBRANCH  10  11
ENDBRANCH   7  10
ENDBRANCH   1   6
BRANCH   1  20
HETATM   20  C   UNL     1       5.767   0.519  20.470  1.00  0.00     0.131 C 
HETATM   21  N   UNL     1       5.197   0.923  19.500  1.00  0.00    -0.405 N 
ATOM     22  HN2 UNL     1       5.587   0.871  18.559  1.00  0.00     0.155 HD
ATOM     23  HN1 UNL     1       4.278   1.339  19.647  1.00  0.00     0.155 HD
ENDBRANCH   1  20
TORSDOF 8
