stable:False satoms:21 tatoms:24 sratio:0.875
  -OEChem-07092417313D

 24 24  0     1  0  0  0  0  0999 V2000
    7.4071   -3.8023   23.8793 H   0  0  0  0  0  0  0  0  0  0  0  0
    8.1716   -3.2392   23.5007 N   0  0  0  0  0  0  0  0  0  0  0  0
    9.1206   -3.3995   25.3153 H   0  0  0  0  0  0  0  0  0  0  0  0
   10.4403   -1.0865   25.1893 C   0  0  0  0  0  0  0  0  0  0  0  0
    6.1389   -0.4236   21.9968 C   0  0  0  0  0  0  0  0  0  0  0  0
    6.2161   -1.3844   22.4899 H   0  0  0  0  0  0  0  0  0  0  0  0
    8.5253   -1.6725   21.6667 N   0  0  0  0  0  0  0  0  0  0  0  0
   10.4472   -0.4905   20.9900 O   0  0  0  0  0  0  0  0  0  0  0  0
    6.6305    0.3279   22.6312 H   0  0  0  0  0  0  0  0  0  0  0  0
   11.3994   -0.2577   24.6399 C   0  0  0  0  0  0  0  0  0  0  0  0
   12.2540    0.2362   25.0684 H   0  0  0  0  0  0  0  0  0  0  0  0
    9.0471   -2.8796   24.3342 C   0  0  0  0  0  0  0  0  0  0  0  0
    9.9190   -1.8299   24.1717 N   0  0  0  0  0  0  0  0  0  0  0  0
    6.7960   -0.4509   20.6264 C   0  0  0  0  0  0  0  0  0  0  0  0
   10.2205   -1.0334   23.0947 C   0  0  3  0  0  0  0  0  0  0  0  0
   11.1629   -0.1100   23.3269 O   0  0  0  0  0  0  0  0  0  0  0  0
    9.6456   -1.1488   21.9043 N   0  0  3  0  0  0  0  0  0  0  0  0
   10.0185   -1.1045   26.1566 H   0  0  0  0  0  0  0  0  0  0  0  0
    8.4189   -1.1113   18.4328 H   0  0  0  0  0  0  0  0  0  0  0  0
    8.4685   -1.0532   19.3942 N   0  0  0  0  0  0  0  0  0  0  0  0
    6.3321   -0.1259   19.6112 N   0  3  0  0  0  0  0  0  0  0  0  0
    9.6909   -0.0459   20.5100 H   0  0  0  0  0  0  0  0  0  0  0  0
    5.1114   -0.1501   21.7961 H   0  0  0  0  0  0  0  0  0  0  0  0
    8.0016   -1.0544   20.5704 N   0  3  0  0  0  0  0  0  0  0  0  0
 19 20  1  0  0  0  0
 20 24  2  3  0  0  0
 14 21  2  0  0  0  0
  8 22  1  0  0  0  0
 14 24  1  0  0  0  0
  7 24  1  0  0  0  0
  5 14  1  0  0  0  0
  8 17  1  0  0  0  0
  7 17  1  0  0  0  0
  5 23  1  0  0  0  0
 15 17  1  0  0  0  0
  5  6  1  0  0  0  0
  5  9  1  0  0  0  0
 15 16  1  0  0  0  0
 13 15  1  0  0  0  0
 10 16  1  0  0  0  0
  1  2  1  0  0  0  0
  2 12  2  0  0  0  0
 12 13  1  0  0  0  0
  4 13  1  0  0  0  0
  3 12  1  0  0  0  0
 10 11  1  0  0  0  0
  4 10  2  0  0  0  0
  4 18  1  0  0  0  0
M  CHG  2  21   1  24   1
M  END
> <Shapegauss>
-142.857635

$$$$
