stable:False satoms:18 tatoms:24 sratio:0.75
  -OEChem-07092417363D

 24 24  0     0  0  0  0  0  0999 V2000
    6.8812   -4.0646   25.5411 H   0  0  0  0  0  0  0  0  0  0  0  0
    8.0435   -4.0239   25.6011 C   0  0  0  0  0  0  0  0  0  0  0  0
    8.9919   -4.5624   25.9640 H   0  0  0  0  0  0  0  0  0  0  0  0
    8.0240   -3.3375   26.5051 H   0  0  0  0  0  0  0  0  0  0  0  0
    8.1609   -4.3506   24.5369 H   0  0  0  0  0  0  0  0  0  0  0  0
    8.9114   -2.3061   24.2261 C   0  0  0  0  0  0  0  0  0  0  0  0
    9.7311   -2.0211   24.8934 N   0  0  0  0  0  0  0  0  0  0  0  0
   10.7161   -0.7538   23.2679 C   0  0  0  0  0  0  0  0  0  0  0  0
   10.6699   -1.0787   24.4989 C   0  0  0  0  0  0  0  0  0  0  0  0
   11.3316   -0.7075   25.2865 H   0  0  0  0  0  0  0  0  0  0  0  0
   11.7031   -0.2936   22.9153 H   0  0  0  0  0  0  0  0  0  0  0  0
   11.2147   -0.0140   20.6564 Cl  0  0  0  0  0  0  0  0  0  0  0  0
    9.4337   -1.0504   22.5347 C   0  0  0  0  0  0  0  0  0  0  0  0
    8.6129   -1.7437   23.0965 N   0  0  0  0  0  0  0  0  0  0  0  0
    8.8204    1.1194   19.8491 C   0  0  0  0  0  0  0  0  0  0  0  0
    9.4305    1.9323   19.5054 H   0  0  0  0  0  0  0  0  0  0  0  0
    8.6486   -0.6155   21.3116 N   0  3  0  0  0  0  0  0  0  0  0  0
    5.6335   -0.0333   19.9025 H   0  0  0  0  0  0  0  0  0  0  0  0
    7.3450   -0.7894   20.9192 C   0  0  0  0  0  0  0  0  0  0  0  0
    9.4040    0.1900   20.5565 C   0  0  0  0  0  0  0  0  0  0  0  0
    6.9887    1.6891   18.7872 H   0  0  0  0  0  0  0  0  0  0  0  0
    6.7940   -1.6327   21.2685 H   0  0  0  0  0  0  0  0  0  0  0  0
    7.4162    1.0578   19.5355 C   0  0  0  0  0  0  0  0  0  0  0  0
    6.6772    0.1001   20.1374 C   0  0  0  0  0  0  0  0  0  0  0  0
 21 23  1  0  0  0  0
 15 16  1  0  0  0  0
 15 23  2  0  0  0  0
 23 24  1  0  0  0  0
 15 20  1  0  0  0  0
 18 24  1  0  0  0  0
 19 24  2  0  0  0  0
 12 20  1  0  0  0  0
 17 20  2  0  0  0  0
 19 22  1  0  0  0  0
 17 19  1  0  0  0  0
 13 17  1  0  0  0  0
 13 14  2  0  0  0  0
  8 13  1  0  0  0  0
  8 11  1  0  0  0  0
  6 14  1  0  0  0  0
  8  9  2  0  0  0  0
  6  7  2  0  0  0  0
  7  9  1  0  0  0  0
  9 10  1  0  0  0  0
  2  5  1  0  0  0  0
  1  2  1  0  0  0  0
  2  3  1  0  0  0  0
  2  4  1  0  0  0  0
M  CHG  1  17   1
M  END
> <Shapegauss>
-129.347595

$$$$
