REMARK  8 active torsions:
REMARK  status: ('A' for Active; 'I' for Inactive)
REMARK    1  A    between atoms: C_2  and  N_5 
REMARK    2  A    between atoms: N_5  and  C_7 
REMARK    3  A    between atoms: C_6  and  C_7 
REMARK    4  A    between atoms: C_7  and  S_18 
REMARK    5  A    between atoms: C_8  and  C_12 
REMARK    6  A    between atoms: C_12  and  S_18 
REMARK    7  A    between atoms: N_13  and  O_16 
REMARK    8  A    between atoms: N_13  and  N_15 
ROOT
HETATM    1  S   UNL     1       7.354  -1.715  22.993  1.00  0.00    -0.049 SA
ENDROOT
BRANCH   1   2
HETATM    2  C   UNL     1       8.264  -2.757  24.155  1.00  0.00     0.134 C 
BRANCH   2   3
HETATM    3  N   UNL     1       7.735  -3.746  24.954  1.00  0.00    -0.325 N 
HETATM    4  H   UNL     1       6.779  -4.172  25.097  1.00  0.00     0.169 HD
BRANCH   3   5
HETATM    5  C   UNL     1       8.376  -4.343  25.874  1.00  0.00     0.353 C 
HETATM    6  O   UNL     1       8.594  -5.043  26.711  1.00  0.00    -0.283 OA
ENDBRANCH   3   5
ENDBRANCH   2   3
BRANCH   2   7
HETATM    7  C   UNL     1       9.698  -2.678  24.439  1.00  0.00     0.224 A 
HETATM    8  O   UNL     1      10.186  -3.002  25.441  1.00  0.00    -0.213 OA
HETATM    9  N   UNL     1      10.710  -2.354  23.976  1.00  0.00    -0.233 N 
HETATM   10  H   UNL     1      11.477  -2.256  23.376  1.00  0.00     0.197 HD
ENDBRANCH   2   7
ENDBRANCH   1   2
BRANCH   1  11
HETATM   11  C   UNL     1       8.610  -0.690  22.318  1.00  0.00     0.091 C 
HETATM   12  N   UNL     1       7.907  -0.023  21.367  1.00  0.00    -0.275 N 
HETATM   13  H   UNL     1       6.873   0.137  21.407  1.00  0.00     0.189 HD
BRANCH  11  14
HETATM   14  C   UNL     1      10.042  -0.377  22.388  1.00  0.00     0.028 C 
HETATM   15  C   UNL     1      11.012   0.252  23.100  1.00  0.00     0.014 C 
ENDBRANCH  11  14
BRANCH  12  16
HETATM   16  N   UNL     1       8.691   0.621  20.553  1.00  0.00    -0.207 N 
ATOM     17  HN  UNL     1       9.635   0.942  20.768  1.00  0.00     0.216 HD
BRANCH  16  18
HETATM   18  O   UNL     1       8.068   0.791  19.408  1.00  0.00    -0.270 OA
HETATM   19  C   UNL     1       6.749   0.862  19.013  1.00  0.00     0.239 C 
ENDBRANCH  16  18
ENDBRANCH  12  16
ENDBRANCH   1  11
TORSDOF 8
