MODEL 1
REMARK VINA RESULT:    -5.033      0.000      0.000
REMARK INTER + INTRA:          -7.933
REMARK INTER:                  -7.386
REMARK INTRA:                  -0.547
REMARK UNBOUND:                -0.547
REMARK  8 active torsions:
REMARK  status: ('A' for Active; 'I' for Inactive)
REMARK    1  A    between atoms: C_2  and  N_5 
REMARK    2  A    between atoms: N_5  and  C_7 
REMARK    3  A    between atoms: C_6  and  C_7 
REMARK    4  A    between atoms: C_7  and  S_18 
REMARK    5  A    between atoms: C_8  and  C_12 
REMARK    6  A    between atoms: C_12  and  S_18 
REMARK    7  A    between atoms: N_13  and  O_16 
REMARK    8  A    between atoms: N_13  and  N_15 
ROOT
HETATM    1  S   UNL     1       7.706  16.479   2.579  1.00  0.00    -0.049 SA
ENDROOT
BRANCH   1   2
HETATM    2  C   UNL     1       8.529  14.955   2.065  1.00  0.00     0.134 C 
BRANCH   2   3
HETATM    3  N   UNL     1       8.273  14.234   0.919  1.00  0.00    -0.325 N 
HETATM    4  H   UNL     1       8.659  14.215  -0.064  1.00  0.00     0.169 HD
BRANCH   3   5
HETATM    5  C   UNL     1       7.315  13.410   0.791  1.00  0.00     0.353 C 
HETATM    6  O   UNL     1       6.778  12.446   0.651  1.00  0.00    -0.283 OA
ENDBRANCH   3   5
ENDBRANCH   2   3
BRANCH   2   7
HETATM    7  C   UNL     1       9.570  14.246   2.811  1.00  0.00     0.224 A 
HETATM    8  O   UNL     1      10.635  14.664   3.006  1.00  0.00    -0.213 OA
HETATM    9  N   UNL     1       9.785  13.255   3.373  1.00  0.00    -0.233 N 
HETATM   10  H   UNL     1       9.728  12.495   3.986  1.00  0.00     0.197 HD
ENDBRANCH   2   7
ENDBRANCH   1   2
BRANCH   1  11
HETATM   11  C   UNL     1       8.796  17.728   2.001  1.00  0.00     0.091 C 
HETATM   12  N   UNL     1       9.736  17.717   2.980  1.00  0.00    -0.275 N 
HETATM   13  H   UNL     1       9.942  16.887   3.585  1.00  0.00     0.189 HD
BRANCH  11  14
HETATM   14  C   UNL     1       8.991  18.727   0.944  1.00  0.00     0.028 C 
HETATM   15  C   UNL     1       8.528  19.200  -0.242  1.00  0.00     0.014 C 
ENDBRANCH  11  14
BRANCH  12  16
HETATM   16  N   UNL     1      10.526  18.747   2.901  1.00  0.00    -0.207 N 
ATOM     17  HN  UNL     1      10.450  19.502   2.219  1.00  0.00     0.216 HD
BRANCH  16  18
HETATM   18  O   UNL     1      11.438  18.657   3.843  1.00  0.00    -0.270 OA
HETATM   19  C   UNL     1      12.587  19.350   4.162  1.00  0.00     0.239 C 
ENDBRANCH  16  18
ENDBRANCH  12  16
ENDBRANCH   1  11
TORSDOF 8
ENDMDL
MODEL 2
REMARK VINA RESULT:    -4.667      2.619      4.039
REMARK INTER + INTRA:          -7.397
REMARK INTER:                  -7.010
REMARK INTRA:                  -0.388
REMARK UNBOUND:                -0.547
REMARK  8 active torsions:
REMARK  status: ('A' for Active; 'I' for Inactive)
REMARK    1  A    between atoms: C_2  and  N_5 
REMARK    2  A    between atoms: N_5  and  C_7 
REMARK    3  A    between atoms: C_6  and  C_7 
REMARK    4  A    between atoms: C_7  and  S_18 
REMARK    5  A    between atoms: C_8  and  C_12 
REMARK    6  A    between atoms: C_12  and  S_18 
REMARK    7  A    between atoms: N_13  and  O_16 
REMARK    8  A    between atoms: N_13  and  N_15 
ROOT
HETATM    1  S   UNL     1       7.459  13.116   3.529  1.00  0.00    -0.049 SA
ENDROOT
BRANCH   1   2
HETATM    2  C   UNL     1       6.027  12.954   2.440  1.00  0.00     0.134 C 
BRANCH   2   3
HETATM    3  N   UNL     1       6.042  12.545   1.125  1.00  0.00    -0.325 N 
HETATM    4  H   UNL     1       5.521  12.810   0.245  1.00  0.00     0.169 HD
BRANCH   3   5
HETATM    5  C   UNL     1       6.712  11.558   0.689  1.00  0.00     0.353 C 
HETATM    6  O   UNL     1       7.037  10.728   0.023  1.00  0.00    -0.283 OA
ENDBRANCH   3   5
ENDBRANCH   2   3
BRANCH   2   7
HETATM    7  C   UNL     1       4.640  13.265   2.791  1.00  0.00     0.224 A 
HETATM    8  O   UNL     1       3.732  13.095   2.088  1.00  0.00    -0.213 OA
HETATM    9  N   UNL     1       3.983  13.697   3.642  1.00  0.00    -0.233 N 
HETATM   10  H   UNL     1       3.564  13.860   4.512  1.00  0.00     0.197 HD
ENDBRANCH   2   7
ENDBRANCH   1   2
BRANCH   1  11
HETATM   11  C   UNL     1       8.527  14.171   2.619  1.00  0.00     0.091 C 
HETATM   12  N   UNL     1       9.739  13.715   3.026  1.00  0.00    -0.275 N 
HETATM   13  H   UNL     1       9.912  12.745   3.379  1.00  0.00     0.189 HD
BRANCH  11  14
HETATM   14  C   UNL     1       8.553  15.311   1.695  1.00  0.00     0.028 C 
HETATM   15  C   UNL     1       8.216  16.615   1.524  1.00  0.00     0.014 C 
ENDBRANCH  11  14
BRANCH  12  16
HETATM   16  N   UNL     1      10.699  14.521   2.676  1.00  0.00    -0.207 N 
ATOM     17  HN  UNL     1      10.970  14.738   1.717  1.00  0.00     0.216 HD
BRANCH  16  18
HETATM   18  O   UNL     1      11.262  15.008   3.759  1.00  0.00    -0.270 OA
HETATM   19  C   UNL     1      10.954  16.008   4.656  1.00  0.00     0.239 C 
ENDBRANCH  16  18
ENDBRANCH  12  16
ENDBRANCH   1  11
TORSDOF 8
ENDMDL
MODEL 3
REMARK VINA RESULT:    -4.661      2.473      4.536
REMARK INTER + INTRA:          -7.388
REMARK INTER:                  -6.912
REMARK INTRA:                  -0.476
REMARK UNBOUND:                -0.547
REMARK  8 active torsions:
REMARK  status: ('A' for Active; 'I' for Inactive)
REMARK    1  A    between atoms: C_2  and  N_5 
REMARK    2  A    between atoms: N_5  and  C_7 
REMARK    3  A    between atoms: C_6  and  C_7 
REMARK    4  A    between atoms: C_7  and  S_18 
REMARK    5  A    between atoms: C_8  and  C_12 
REMARK    6  A    between atoms: C_12  and  S_18 
REMARK    7  A    between atoms: N_13  and  O_16 
REMARK    8  A    between atoms: N_13  and  N_15 
ROOT
HETATM    1  S   UNL     1       9.208  17.982   3.940  1.00  0.00    -0.049 SA
ENDROOT
BRANCH   1   2
HETATM    2  C   UNL     1      10.816  17.497   4.605  1.00  0.00     0.134 C 
BRANCH   2   3
HETATM    3  N   UNL     1      11.125  16.296   5.203  1.00  0.00    -0.325 N 
HETATM    4  H   UNL     1      11.699  15.991   6.036  1.00  0.00     0.169 HD
BRANCH   3   5
HETATM    5  C   UNL     1      10.814  15.159   4.730  1.00  0.00     0.353 C 
HETATM    6  O   UNL     1      10.475  14.100   4.693  1.00  0.00    -0.283 OA
ENDBRANCH   3   5
ENDBRANCH   2   3
BRANCH   2   7
HETATM    7  C   UNL     1      12.021  18.328   4.632  1.00  0.00     0.224 A 
HETATM    8  O   UNL     1      12.025  19.468   4.849  1.00  0.00    -0.213 OA
HETATM    9  N   UNL     1      13.170  18.285   4.488  1.00  0.00    -0.233 N 
HETATM   10  H   UNL     1      14.115  18.041   4.562  1.00  0.00     0.197 HD
ENDBRANCH   2   7
ENDBRANCH   1   2
BRANCH   1  11
HETATM   11  C   UNL     1       9.156  17.152   2.394  1.00  0.00     0.091 C 
HETATM   12  N   UNL     1       9.774  18.062   1.598  1.00  0.00    -0.275 N 
HETATM   13  H   UNL     1      10.460  18.773   1.945  1.00  0.00     0.189 HD
BRANCH  11  14
HETATM   14  C   UNL     1       8.667  15.944   1.719  1.00  0.00     0.028 C 
HETATM   15  C   UNL     1       7.991  14.777   1.873  1.00  0.00     0.014 C 
ENDBRANCH  11  14
BRANCH  12  16
HETATM   16  N   UNL     1       9.628  17.777   0.338  1.00  0.00    -0.207 N 
ATOM     17  HN  UNL     1       9.680  16.843  -0.069  1.00  0.00     0.216 HD
BRANCH  16  18
HETATM   18  O   UNL     1       9.401  18.888  -0.327  1.00  0.00    -0.270 OA
HETATM   19  C   UNL     1       8.847  20.114  -0.023  1.00  0.00     0.239 C 
ENDBRANCH  16  18
ENDBRANCH  12  16
ENDBRANCH   1  11
TORSDOF 8
ENDMDL
MODEL 4
REMARK VINA RESULT:    -4.510     28.995     30.882
REMARK INTER + INTRA:          -7.166
REMARK INTER:                  -6.640
REMARK INTRA:                  -0.526
REMARK UNBOUND:                -0.547
REMARK  8 active torsions:
REMARK  status: ('A' for Active; 'I' for Inactive)
REMARK    1  A    between atoms: C_2  and  N_5 
REMARK    2  A    between atoms: N_5  and  C_7 
REMARK    3  A    between atoms: C_6  and  C_7 
REMARK    4  A    between atoms: C_7  and  S_18 
REMARK    5  A    between atoms: C_8  and  C_12 
REMARK    6  A    between atoms: C_12  and  S_18 
REMARK    7  A    between atoms: N_13  and  O_16 
REMARK    8  A    between atoms: N_13  and  N_15 
ROOT
HETATM    1  S   UNL     1       6.236  -3.544  25.068  1.00  0.00    -0.049 SA
ENDROOT
BRANCH   1   2
HETATM    2  C   UNL     1       6.288  -5.063  26.044  1.00  0.00     0.134 C 
BRANCH   2   3
HETATM    3  N   UNL     1       5.262  -5.966  26.207  1.00  0.00    -0.325 N 
HETATM    4  H   UNL     1       4.756  -6.397  27.029  1.00  0.00     0.169 HD
BRANCH   3   5
HETATM    5  C   UNL     1       4.726  -6.621  25.259  1.00  0.00     0.353 C 
HETATM    6  O   UNL     1       4.445  -7.480  24.611  1.00  0.00    -0.283 OA
ENDBRANCH   3   5
ENDBRANCH   2   3
BRANCH   2   7
HETATM    7  C   UNL     1       7.426  -5.539  26.833  1.00  0.00     0.224 A 
HETATM    8  O   UNL     1       7.346  -5.954  27.914  1.00  0.00    -0.213 OA
HETATM    9  N   UNL     1       8.576  -5.679  26.795  1.00  0.00    -0.233 N 
HETATM   10  H   UNL     1       9.480  -5.939  26.523  1.00  0.00     0.197 HD
ENDBRANCH   2   7
ENDBRANCH   1   2
BRANCH   1  11
HETATM   11  C   UNL     1       7.241  -3.933  23.682  1.00  0.00     0.091 C 
HETATM   12  N   UNL     1       8.077  -2.863  23.669  1.00  0.00    -0.275 N 
HETATM   13  H   UNL     1       8.308  -2.289  24.514  1.00  0.00     0.189 HD
BRANCH  11  14
HETATM   14  C   UNL     1       7.433  -4.904  22.599  1.00  0.00     0.028 C 
HETATM   15  C   UNL     1       7.052  -6.108  22.101  1.00  0.00     0.014 C 
ENDBRANCH  11  14
BRANCH  12  16
HETATM   16  N   UNL     1       8.759  -2.800  22.563  1.00  0.00    -0.207 N 
ATOM     17  HN  UNL     1       8.426  -3.087  21.643  1.00  0.00     0.216 HD
BRANCH  16  18
HETATM   18  O   UNL     1       9.949  -2.306  22.825  1.00  0.00    -0.270 OA
HETATM   19  C   UNL     1      10.444  -1.354  23.691  1.00  0.00     0.239 C 
ENDBRANCH  16  18
ENDBRANCH  12  16
ENDBRANCH   1  11
TORSDOF 8
ENDMDL
MODEL 5
REMARK VINA RESULT:    -4.460     24.103     25.395
REMARK INTER + INTRA:          -7.094
REMARK INTER:                  -6.625
REMARK INTRA:                  -0.469
REMARK UNBOUND:                -0.547
REMARK  8 active torsions:
REMARK  status: ('A' for Active; 'I' for Inactive)
REMARK    1  A    between atoms: C_2  and  N_5 
REMARK    2  A    between atoms: N_5  and  C_7 
REMARK    3  A    between atoms: C_6  and  C_7 
REMARK    4  A    between atoms: C_7  and  S_18 
REMARK    5  A    between atoms: C_8  and  C_12 
REMARK    6  A    between atoms: C_12  and  S_18 
REMARK    7  A    between atoms: N_13  and  O_16 
REMARK    8  A    between atoms: N_13  and  N_15 
ROOT
HETATM    1  S   UNL     1       8.802   1.299  22.767  1.00  0.00    -0.049 SA
ENDROOT
BRANCH   1   2
HETATM    2  C   UNL     1       9.248  -0.156  21.794  1.00  0.00     0.134 C 
BRANCH   2   3
HETATM    3  N   UNL     1       9.028  -0.338  20.447  1.00  0.00    -0.325 N 
HETATM    4  H   UNL     1       9.581  -0.730  19.636  1.00  0.00     0.169 HD
BRANCH   3   5
HETATM    5  C   UNL     1       8.007   0.090  19.824  1.00  0.00     0.353 C 
HETATM    6  O   UNL     1       7.377   0.721  19.158  1.00  0.00    -0.283 OA
ENDBRANCH   3   5
ENDBRANCH   2   3
BRANCH   2   7
HETATM    7  C   UNL     1       9.883  -1.372  22.307  1.00  0.00     0.224 A 
HETATM    8  O   UNL     1      11.006  -1.631  22.172  1.00  0.00    -0.213 OA
HETATM    9  N   UNL     1       9.661  -2.349  22.889  1.00  0.00    -0.233 N 
HETATM   10  H   UNL     1       9.365  -2.988  23.570  1.00  0.00     0.197 HD
ENDBRANCH   2   7
ENDBRANCH   1   2
BRANCH   1  11
HETATM   11  C   UNL     1      10.356   1.874  23.349  1.00  0.00     0.091 C 
HETATM   12  N   UNL     1      10.336   3.155  22.899  1.00  0.00    -0.275 N 
HETATM   13  H   UNL     1       9.459   3.695  22.710  1.00  0.00     0.189 HD
BRANCH  11  14
HETATM   14  C   UNL     1      11.582   1.463  24.044  1.00  0.00     0.028 C 
HETATM   15  C   UNL     1      12.341   0.407  24.434  1.00  0.00     0.014 C 
ENDBRANCH  11  14
BRANCH  12  16
HETATM   16  N   UNL     1      11.506   3.715  22.991  1.00  0.00    -0.207 N 
ATOM     17  HN  UNL     1      12.402   3.237  22.898  1.00  0.00     0.216 HD
BRANCH  16  18
HETATM   18  O   UNL     1      11.346   4.999  23.223  1.00  0.00    -0.270 OA
HETATM   19  C   UNL     1      11.036   5.762  24.329  1.00  0.00     0.239 C 
ENDBRANCH  16  18
ENDBRANCH  12  16
ENDBRANCH   1  11
TORSDOF 8
ENDMDL
MODEL 6
REMARK VINA RESULT:    -4.442     24.775     26.536
REMARK INTER + INTRA:          -7.066
REMARK INTER:                  -6.502
REMARK INTRA:                  -0.564
REMARK UNBOUND:                -0.547
REMARK  8 active torsions:
REMARK  status: ('A' for Active; 'I' for Inactive)
REMARK    1  A    between atoms: C_2  and  N_5 
REMARK    2  A    between atoms: N_5  and  C_7 
REMARK    3  A    between atoms: C_6  and  C_7 
REMARK    4  A    between atoms: C_7  and  S_18 
REMARK    5  A    between atoms: C_8  and  C_12 
REMARK    6  A    between atoms: C_12  and  S_18 
REMARK    7  A    between atoms: N_13  and  O_16 
REMARK    8  A    between atoms: N_13  and  N_15 
ROOT
HETATM    1  S   UNL     1      10.279   0.351  21.693  1.00  0.00    -0.049 SA
ENDROOT
BRANCH   1   2
HETATM    2  C   UNL     1      10.894  -1.083  22.605  1.00  0.00     0.134 C 
BRANCH   2   3
HETATM    3  N   UNL     1      10.190  -2.229  22.898  1.00  0.00    -0.325 N 
HETATM    4  H   UNL     1      10.099  -3.191  22.470  1.00  0.00     0.169 HD
BRANCH   3   5
HETATM    5  C   UNL     1       9.312  -2.317  23.812  1.00  0.00     0.353 C 
HETATM    6  O   UNL     1       8.861  -2.341  24.829  1.00  0.00    -0.283 OA
ENDBRANCH   3   5
ENDBRANCH   2   3
BRANCH   2   7
HETATM    7  C   UNL     1      12.227  -1.220  23.193  1.00  0.00     0.224 A 
HETATM    8  O   UNL     1      13.006  -2.018  22.873  1.00  0.00    -0.213 OA
HETATM    9  N   UNL     1      12.926  -0.768  24.000  1.00  0.00    -0.233 N 
HETATM   10  H   UNL     1      13.455  -0.146  24.540  1.00  0.00     0.197 HD
ENDBRANCH   2   7
ENDBRANCH   1   2
BRANCH   1  11
HETATM   11  C   UNL     1       9.959   1.518  22.966  1.00  0.00     0.091 C 
HETATM   12  N   UNL     1      10.395   2.660  22.376  1.00  0.00    -0.275 N 
HETATM   13  H   UNL     1      10.435   2.806  21.340  1.00  0.00     0.189 HD
BRANCH  11  14
HETATM   14  C   UNL     1       9.476   1.657  24.345  1.00  0.00     0.028 C 
HETATM   15  C   UNL     1       8.617   1.175  25.279  1.00  0.00     0.014 C 
ENDBRANCH  11  14
BRANCH  12  16
HETATM   16  N   UNL     1      10.494   3.635  23.231  1.00  0.00    -0.207 N 
ATOM     17  HN  UNL     1       9.733   4.006  23.799  1.00  0.00     0.216 HD
BRANCH  16  18
HETATM   18  O   UNL     1      11.737   4.064  23.245  1.00  0.00    -0.270 OA
HETATM   19  C   UNL     1      12.354   5.265  23.520  1.00  0.00     0.239 C 
ENDBRANCH  16  18
ENDBRANCH  12  16
ENDBRANCH   1  11
TORSDOF 8
ENDMDL
MODEL 7
REMARK VINA RESULT:    -4.320     29.136     31.288
REMARK INTER + INTRA:          -6.887
REMARK INTER:                  -6.481
REMARK INTRA:                  -0.406
REMARK UNBOUND:                -0.547
REMARK  8 active torsions:
REMARK  status: ('A' for Active; 'I' for Inactive)
REMARK    1  A    between atoms: C_2  and  N_5 
REMARK    2  A    between atoms: N_5  and  C_7 
REMARK    3  A    between atoms: C_6  and  C_7 
REMARK    4  A    between atoms: C_7  and  S_18 
REMARK    5  A    between atoms: C_8  and  C_12 
REMARK    6  A    between atoms: C_12  and  S_18 
REMARK    7  A    between atoms: N_13  and  O_16 
REMARK    8  A    between atoms: N_13  and  N_15 
ROOT
HETATM    1  S   UNL     1       6.890  -3.277  24.931  1.00  0.00    -0.049 SA
ENDROOT
BRANCH   1   2
HETATM    2  C   UNL     1       7.597  -3.690  23.320  1.00  0.00     0.134 C 
BRANCH   2   3
HETATM    3  N   UNL     1       8.618  -3.024  22.680  1.00  0.00    -0.325 N 
HETATM    4  H   UNL     1       8.984  -2.973  21.691  1.00  0.00     0.169 HD
BRANCH   3   5
HETATM    5  C   UNL     1       9.500  -2.328  23.272  1.00  0.00     0.353 C 
HETATM    6  O   UNL     1      10.485  -1.863  23.500  1.00  0.00    -0.283 OA
ENDBRANCH   3   5
ENDBRANCH   2   3
BRANCH   2   7
HETATM    7  C   UNL     1       7.161  -4.780  22.444  1.00  0.00     0.224 A 
HETATM    8  O   UNL     1       6.057  -4.981  22.149  1.00  0.00    -0.213 OA
HETATM    9  N   UNL     1       7.558  -5.681  21.832  1.00  0.00    -0.233 N 
HETATM   10  H   UNL     1       8.061  -6.238  21.205  1.00  0.00     0.197 HD
ENDBRANCH   2   7
ENDBRANCH   1   2
BRANCH   1  11
HETATM   11  C   UNL     1       6.603  -4.854  25.650  1.00  0.00     0.091 C 
HETATM   12  N   UNL     1       7.560  -4.869  26.612  1.00  0.00    -0.275 N 
HETATM   13  H   UNL     1       7.969  -4.009  27.047  1.00  0.00     0.189 HD
BRANCH  11  14
HETATM   14  C   UNL     1       5.792  -6.071  25.539  1.00  0.00     0.028 C 
HETATM   15  C   UNL     1       4.547  -6.598  25.672  1.00  0.00     0.014 C 
ENDBRANCH  11  14
BRANCH  12  16
HETATM   16  N   UNL     1       7.712  -6.057  27.120  1.00  0.00    -0.207 N 
ATOM     17  HN  UNL     1       8.010  -6.888  26.608  1.00  0.00     0.216 HD
BRANCH  16  18
HETATM   18  O   UNL     1       7.418  -6.013  28.401  1.00  0.00    -0.270 OA
HETATM   19  C   UNL     1       6.316  -6.338  29.163  1.00  0.00     0.239 C 
ENDBRANCH  16  18
ENDBRANCH  12  16
ENDBRANCH   1  11
TORSDOF 8
ENDMDL
MODEL 8
REMARK VINA RESULT:    -4.318     25.781     28.097
REMARK INTER + INTRA:          -6.884
REMARK INTER:                  -6.459
REMARK INTRA:                  -0.426
REMARK UNBOUND:                -0.547
REMARK  8 active torsions:
REMARK  status: ('A' for Active; 'I' for Inactive)
REMARK    1  A    between atoms: C_2  and  N_5 
REMARK    2  A    between atoms: N_5  and  C_7 
REMARK    3  A    between atoms: C_6  and  C_7 
REMARK    4  A    between atoms: C_7  and  S_18 
REMARK    5  A    between atoms: C_8  and  C_12 
REMARK    6  A    between atoms: C_12  and  S_18 
REMARK    7  A    between atoms: N_13  and  O_16 
REMARK    8  A    between atoms: N_13  and  N_15 
ROOT
HETATM    1  S   UNL     1      10.175  -1.315  22.200  1.00  0.00    -0.049 SA
ENDROOT
BRANCH   1   2
HETATM    2  C   UNL     1      10.771   0.199  22.987  1.00  0.00     0.134 C 
BRANCH   2   3
HETATM    3  N   UNL     1      11.441   0.288  24.187  1.00  0.00    -0.325 N 
HETATM    4  H   UNL     1      11.282   0.782  25.107  1.00  0.00     0.169 HD
BRANCH   3   5
HETATM    5  C   UNL     1      12.595  -0.198  24.401  1.00  0.00     0.353 C 
HETATM    6  O   UNL     1      13.689  -0.376  24.301  1.00  0.00    -0.283 OA
ENDBRANCH   3   5
ENDBRANCH   2   3
BRANCH   2   7
HETATM    7  C   UNL     1      10.599   1.559  22.474  1.00  0.00     0.224 A 
HETATM    8  O   UNL     1      10.562   1.834  21.347  1.00  0.00    -0.213 OA
HETATM    9  N   UNL     1      10.472   2.660  22.813  1.00  0.00    -0.233 N 
HETATM   10  H   UNL     1      10.151   3.474  23.252  1.00  0.00     0.197 HD
ENDBRANCH   2   7
ENDBRANCH   1   2
BRANCH   1  11
HETATM   11  C   UNL     1       9.116  -2.000  23.421  1.00  0.00     0.091 C 
HETATM   12  N   UNL     1       8.682  -3.116  22.780  1.00  0.00    -0.275 N 
HETATM   13  H   UNL     1       9.215  -3.600  22.020  1.00  0.00     0.189 HD
BRANCH  11  14
HETATM   14  C   UNL     1       8.548  -1.771  24.755  1.00  0.00     0.028 C 
HETATM   15  C   UNL     1       8.776  -1.254  25.990  1.00  0.00     0.014 C 
ENDBRANCH  11  14
BRANCH  12  16
HETATM   16  N   UNL     1       7.676  -3.664  23.397  1.00  0.00    -0.207 N 
ATOM     17  HN  UNL     1       7.080  -3.204  24.086  1.00  0.00     0.216 HD
BRANCH  16  18
HETATM   18  O   UNL     1       7.552  -4.907  22.988  1.00  0.00    -0.270 OA
HETATM   19  C   UNL     1       6.494  -5.734  22.676  1.00  0.00     0.239 C 
ENDBRANCH  16  18
ENDBRANCH  12  16
ENDBRANCH   1  11
TORSDOF 8
ENDMDL
MODEL 9
REMARK VINA RESULT:    -4.303     23.461     24.971
REMARK INTER + INTRA:          -6.862
REMARK INTER:                  -6.373
REMARK INTRA:                  -0.490
REMARK UNBOUND:                -0.547
REMARK  8 active torsions:
REMARK  status: ('A' for Active; 'I' for Inactive)
REMARK    1  A    between atoms: C_2  and  N_5 
REMARK    2  A    between atoms: N_5  and  C_7 
REMARK    3  A    between atoms: C_6  and  C_7 
REMARK    4  A    between atoms: C_7  and  S_18 
REMARK    5  A    between atoms: C_8  and  C_12 
REMARK    6  A    between atoms: C_12  and  S_18 
REMARK    7  A    between atoms: N_13  and  O_16 
REMARK    8  A    between atoms: N_13  and  N_15 
ROOT
HETATM    1  S   UNL     1       6.983   1.338  21.452  1.00  0.00    -0.049 SA
ENDROOT
BRANCH   1   2
HETATM    2  C   UNL     1       6.430   0.016  20.353  1.00  0.00     0.134 C 
BRANCH   2   3
HETATM    3  N   UNL     1       5.881  -1.188  20.734  1.00  0.00    -0.325 N 
HETATM    4  H   UNL     1       4.976  -1.700  20.547  1.00  0.00     0.169 HD
BRANCH   3   5
HETATM    5  C   UNL     1       6.399  -1.973  21.588  1.00  0.00     0.353 C 
HETATM    6  O   UNL     1       6.585  -2.486  22.558  1.00  0.00    -0.283 OA
ENDBRANCH   3   5
ENDBRANCH   2   3
BRANCH   2   7
HETATM    7  C   UNL     1       6.515   0.021  18.891  1.00  0.00     0.224 A 
HETATM    8  O   UNL     1       5.949  -0.719  18.200  1.00  0.00    -0.213 OA
HETATM    9  N   UNL     1       7.021   0.566  18.002  1.00  0.00    -0.233 N 
HETATM   10  H   UNL     1       7.336   1.255  17.382  1.00  0.00     0.197 HD
ENDBRANCH   2   7
ENDBRANCH   1   2
BRANCH   1  11
HETATM   11  C   UNL     1       8.684   0.970  21.685  1.00  0.00     0.091 C 
HETATM   12  N   UNL     1       9.180   2.211  21.926  1.00  0.00    -0.275 N 
HETATM   13  H   UNL     1       8.615   3.002  22.315  1.00  0.00     0.189 HD
BRANCH  11  14
HETATM   14  C   UNL     1       9.671  -0.115  21.655  1.00  0.00     0.028 C 
HETATM   15  C   UNL     1      10.018  -1.322  22.173  1.00  0.00     0.014 C 
ENDBRANCH  11  14
BRANCH  12  16
HETATM   16  N   UNL     1      10.480   2.227  21.878  1.00  0.00    -0.207 N 
ATOM     17  HN  UNL     1      11.047   1.954  21.076  1.00  0.00     0.216 HD
BRANCH  16  18
HETATM   18  O   UNL     1      10.943   2.651  23.033  1.00  0.00    -0.270 OA
HETATM   19  C   UNL     1      11.235   3.883  23.577  1.00  0.00     0.239 C 
ENDBRANCH  16  18
ENDBRANCH  12  16
ENDBRANCH   1  11
TORSDOF 8
ENDMDL
