stable:False satoms:15 tatoms:24 sratio:0.625
  -OEChem-07092417363D

 24 24  0     1  0  0  0  0  0999 V2000
    6.7786   -4.1723   25.0974 H   0  0  0  0  0  0  0  0  0  0  0  0
    8.3761   -4.3435   25.8740 C   0  0  0  0  0  0  0  0  0  0  0  0
    8.5941   -5.0428   26.7114 O   0  0  0  0  0  0  0  0  0  0  0  0
   10.1862   -3.0019   25.4408 O   0  0  0  0  0  0  0  0  0  0  0  0
    7.7354   -3.7458   24.9538 N   0  0  0  0  0  0  0  0  0  0  0  0
    9.6980   -2.6782   24.4385 C   0  0  3  0  0  0  0  0  0  0  0  0
    8.2643   -2.7569   24.1554 C   0  0  3  0  0  0  0  0  0  0  0  0
   10.0420   -0.3769   22.3884 C   0  0  0  0  0  0  0  0  0  0  0  0
   11.0120    0.2519   23.0997 C   0  0  0  0  0  0  0  0  0  0  0  0
   11.4902   -0.0484   24.0035 H   0  0  0  0  0  0  0  0  0  0  0  0
   11.4607    1.1258   22.6954 H   0  0  0  0  0  0  0  0  0  0  0  0
   11.4767   -2.2563   23.3764 H   0  0  0  0  0  0  0  0  0  0  0  0
   10.7096   -2.3538   23.9761 N   0  0  0  0  0  0  0  0  0  0  0  0
    8.6102   -0.6903   22.3184 C   0  0  3  0  0  0  0  0  0  0  0  0
   10.3520   -0.5447   21.3629 H   0  0  0  0  0  0  0  0  0  0  0  0
    8.6909    0.6208   20.5532 N   0  0  0  0  0  0  0  0  0  0  0  0
    7.9068   -0.0230   21.3670 N   0  0  0  0  0  0  0  0  0  0  0  0
    8.0681    0.7913   19.4082 O   0  0  0  0  0  0  0  0  0  0  0  0
    6.7491    0.8621   19.0133 C   0  0  0  0  0  0  0  0  0  0  0  0
    6.7429    1.1974   17.9779 H   0  0  0  0  0  0  0  0  0  0  0  0
    6.2243   -0.0898   19.0453 H   0  0  0  0  0  0  0  0  0  0  0  0
    6.1884    1.5637   19.6407 H   0  0  0  0  0  0  0  0  0  0  0  0
    7.3542   -1.7152   22.9926 S   0  0  0  0  0  0  0  0  0  0  0  0
    6.8733    0.1367   21.4065 H   0  0  0  0  0  0  0  0  0  0  0  0
 19 20  1  0  0  0  0
 19 21  1  0  0  0  0
 18 19  1  0  0  0  0
 19 22  1  0  0  0  0
 16 18  1  0  0  0  0
 16 17  1  0  0  0  0
  8 15  1  0  0  0  0
 17 24  1  0  0  0  0
 14 17  1  0  0  0  0
  8 14  1  0  0  0  0
 14 23  1  0  0  0  0
  8  9  2  0  0  0  0
  9 11  1  0  0  0  0
  7 23  1  0  0  0  0
  9 10  1  0  0  0  0
 12 13  1  0  0  0  0
  6 13  1  0  0  0  0
  4 13  1  0  0  0  0
  6  7  1  0  0  0  0
  5  7  1  0  0  0  0
  4  6  1  0  0  0  0
  1  5  1  0  0  0  0
  2  5  1  0  0  0  0
  2  3  2  0  0  0  0
M  END
> <Shapegauss>
-149.215240

$$$$
