stable:False satoms:20 tatoms:24 sratio:0.8333333333333334
  -OEChem-07092417283D

 24 25  0     0  0  0  0  0  0999 V2000
    9.3037   -4.3371   23.7976 C   0  0  0  0  0  0  0  0  0  0  0  0
    8.9825   -0.7893   23.2992 N   0  0  0  0  0  0  0  0  0  0  0  0
    7.8915    1.1355   20.3568 C   0  0  0  0  0  0  0  0  0  0  0  0
   11.1466   -5.3650   23.6681 H   0  0  0  0  0  0  0  0  0  0  0  0
    6.6940    1.8259   20.6903 C   0  3  0  0  0  0  0  0  0  0  0  0
    6.1998    2.3787   19.8946 H   0  0  0  0  0  0  0  0  0  0  0  0
    7.0902   -0.3666   24.6194 H   0  0  0  0  0  0  0  0  0  0  0  0
    6.9577   -2.9822   23.8064 Cl  0  0  0  0  0  0  0  0  0  0  0  0
   10.6589   -2.2332   22.5537 C   0  0  0  0  0  0  0  0  0  0  0  0
    8.3953    0.0989   22.5459 C   0  0  0  0  0  0  0  0  0  0  0  0
    7.5439    0.5205   24.7272 O   0  0  0  0  0  0  0  0  0  0  0  0
   11.1048   -1.4452   21.9827 H   0  0  0  0  0  0  0  0  0  0  0  0
   10.6359   -4.4542   23.4442 C   0  0  0  0  0  0  0  0  0  0  0  0
    8.7345    0.4568   21.2097 C   0  0  0  0  0  0  0  0  0  0  0  0
    8.6458   -3.1623   23.5745 C   0  0  0  0  0  0  0  0  0  0  0  0
    7.3616    0.7213   23.3634 C   0  0  0  0  0  0  0  0  0  0  0  0
   11.3186   -3.4137   22.8173 C   0  0  0  0  0  0  0  0  0  0  0  0
    9.7551    0.2575   20.8901 H   0  0  0  0  0  0  0  0  0  0  0  0
    8.7828   -5.1684   24.2784 H   0  0  0  0  0  0  0  0  0  0  0  0
    9.3856   -2.0191   23.1109 C   0  0  0  0  0  0  0  0  0  0  0  0
    8.1755    1.1944   19.3026 H   0  0  0  0  0  0  0  0  0  0  0  0
   12.3541   -3.5314   22.5412 H   0  0  0  0  0  0  0  0  0  0  0  0
    6.1314    1.9638   21.8309 N   0  0  0  0  0  0  0  0  0  0  0  0
    6.3343    1.4241   22.9914 N   0  0  0  0  0  0  0  0  0  0  0  0
  3 21  1  0  0  0  0
  5  6  1  0  0  0  0
  3  5  1  0  0  0  0
  3 14  2  0  0  0  0
  5 23  1  0  0  0  0
 14 18  1  0  0  0  0
 10 14  1  0  0  0  0
 23 24  2  0  0  0  0
  9 12  1  0  0  0  0
 17 22  1  0  0  0  0
  2 10  1  0  0  0  0
 10 16  2  0  0  0  0
  9 17  2  0  0  0  0
  9 20  1  0  0  0  0
 13 17  1  0  0  0  0
 16 24  1  0  0  0  0
  2 20  1  0  0  0  0
 15 20  2  0  0  0  0
 11 16  1  0  0  0  0
  4 13  1  0  0  0  0
  1 13  2  0  0  0  0
  1 15  1  0  0  0  0
  8 15  1  0  0  0  0
  1 19  1  0  0  0  0
  7 11  1  0  0  0  0
M  CHG  1   5   1
M  END
> <Shapegauss>
-111.694679

$$$$
