MODEL 1
REMARK VINA RESULT:    -6.276      0.000      0.000
REMARK INTER + INTRA:          -7.649
REMARK INTER:                  -7.193
REMARK INTRA:                  -0.456
REMARK UNBOUND:                -0.456
REMARK  3 active torsions:
REMARK  status: ('A' for Active; 'I' for Inactive)
REMARK    1  A    between atoms: N_2  and  C_9 
REMARK    2  A    between atoms: N_2  and  C_16 
REMARK    3  A    between atoms: O_10  and  C_14 
ROOT
HETATM    1  C   UNL     1       6.803  13.656   2.479  1.00  0.00     0.021 C 
HETATM    2  C   UNL     1       7.422  12.479   2.982  1.00  0.00     0.107 C 
HETATM    3  C   UNL     1       8.771  15.152   2.386  1.00  0.00     0.085 C 
HETATM    4  C   UNL     1       7.370  14.902   2.324  1.00  0.00     0.035 C 
HETATM    5  C   UNL     1       9.765  14.301   3.025  1.00  0.00     0.182 C 
HETATM    6  N   UNL     1       8.624  12.307   3.386  1.00  0.00    -0.310 N 
ATOM      7  HN  UNL     1       8.773  11.408   3.845  1.00  0.00     0.186 HD
HETATM    8  N   UNL     1       9.691  13.040   3.331  1.00  0.00    -0.279 N 
ATOM      9  HN  UNL     1      10.572  12.576   3.553  1.00  0.00     0.189 HD
ENDROOT
BRANCH   3  10
HETATM   10  N   UNL     1       9.406  16.205   1.951  1.00  0.00    -0.351 N 
ATOM     11  HN  UNL     1      10.408  16.049   1.843  1.00  0.00     0.166 HD
BRANCH  10  12
HETATM   12  C   UNL     1       9.040  17.417   1.622  1.00  0.00     0.054 C 
HETATM   13  C   UNL     1       9.124  17.804   0.273  1.00  0.00     0.031 C 
HETATM   14  C   UNL     1       8.302  18.807  -0.192  1.00  0.00     0.002 C 
HETATM   15  C   UNL     1       7.562  19.561   0.717  1.00  0.00     0.002 C 
HETATM   16  C   UNL     1       7.643  19.338   2.080  1.00  0.00     0.026 C 
HETATM   17  C   UNL     1       8.427  18.326   2.553  1.00  0.00     0.060 C 
HETATM   18 CL   UNL     1       8.736  18.091   4.222  1.00  0.00    -0.082 Cl
ENDBRANCH  10  12
ENDBRANCH   3  10
BRANCH   5  19
HETATM   19  O   UNL     1      10.940  14.973   3.347  1.00  0.00    -0.344 OA
HETATM   20  H   UNL     1      10.560  15.779   2.888  1.00  0.00     0.219 HD
ENDBRANCH   5  19
TORSDOF 3
ENDMDL
MODEL 2
REMARK VINA RESULT:    -6.025     34.572     36.260
REMARK INTER + INTRA:          -7.361
REMARK INTER:                  -7.053
REMARK INTRA:                  -0.309
REMARK UNBOUND:                -0.456
REMARK  3 active torsions:
REMARK  status: ('A' for Active; 'I' for Inactive)
REMARK    1  A    between atoms: N_2  and  C_9 
REMARK    2  A    between atoms: N_2  and  C_16 
REMARK    3  A    between atoms: O_10  and  C_14 
ROOT
HETATM    1  C   UNL     1      -1.405 -16.161   8.604  1.00  0.00     0.021 C 
HETATM    2  C   UNL     1      -2.099 -15.504   9.657  1.00  0.00     0.107 C 
HETATM    3  C   UNL     1       0.384 -17.263   9.910  1.00  0.00     0.085 C 
HETATM    4  C   UNL     1      -0.215 -16.852   8.685  1.00  0.00     0.035 C 
HETATM    5  C   UNL     1       0.127 -16.689  11.224  1.00  0.00     0.182 C 
HETATM    6  N   UNL     1      -1.792 -15.417  10.896  1.00  0.00    -0.310 N 
ATOM      7  HN  UNL     1      -2.375 -14.757  11.413  1.00  0.00     0.186 HD
HETATM    8  N   UNL     1      -0.893 -15.993  11.630  1.00  0.00    -0.279 N 
ATOM      9  HN  UNL     1      -0.997 -15.889  12.639  1.00  0.00     0.189 HD
ENDROOT
BRANCH   3  10
HETATM   10  N   UNL     1       1.311 -18.166  10.072  1.00  0.00    -0.351 N 
ATOM     11  HN  UNL     1       1.809 -18.070  10.957  1.00  0.00     0.166 HD
BRANCH  10  12
HETATM   12  C   UNL     1       1.743 -19.168   9.350  1.00  0.00     0.054 C 
HETATM   13  C   UNL     1       3.051 -19.115   8.839  1.00  0.00     0.031 C 
HETATM   14  C   UNL     1       3.710 -20.292   8.552  1.00  0.00     0.002 C 
HETATM   15  C   UNL     1       3.003 -21.492   8.569  1.00  0.00     0.002 C 
HETATM   16  C   UNL     1       1.650 -21.533   8.852  1.00  0.00     0.026 C 
HETATM   17  C   UNL     1       0.991 -20.381   9.171  1.00  0.00     0.060 C 
HETATM   18 CL   UNL     1      -0.711 -20.301   9.354  1.00  0.00    -0.082 Cl
ENDBRANCH  10  12
ENDBRANCH   3  10
BRANCH   5  19
HETATM   19  O   UNL     1       1.144 -16.934  12.140  1.00  0.00    -0.344 OA
HETATM   20  H   UNL     1       0.437 -17.018  12.846  1.00  0.00     0.219 HD
ENDBRANCH   5  19
TORSDOF 3
ENDMDL
MODEL 3
REMARK VINA RESULT:    -5.937      1.727      2.168
REMARK INTER + INTRA:          -7.260
REMARK INTER:                  -6.801
REMARK INTRA:                  -0.459
REMARK UNBOUND:                -0.456
REMARK  3 active torsions:
REMARK  status: ('A' for Active; 'I' for Inactive)
REMARK    1  A    between atoms: N_2  and  C_9 
REMARK    2  A    between atoms: N_2  and  C_16 
REMARK    3  A    between atoms: O_10  and  C_14 
ROOT
HETATM    1  C   UNL     1       6.748  14.371   3.173  1.00  0.00     0.021 C 
HETATM    2  C   UNL     1       7.192  13.029   3.327  1.00  0.00     0.107 C 
HETATM    3  C   UNL     1       8.922  15.487   2.793  1.00  0.00     0.085 C 
HETATM    4  C   UNL     1       7.523  15.505   3.057  1.00  0.00     0.035 C 
HETATM    5  C   UNL     1       9.824  14.368   3.027  1.00  0.00     0.182 C 
HETATM    6  N   UNL     1       8.387  12.574   3.379  1.00  0.00    -0.310 N 
ATOM      7  HN  UNL     1       8.435  11.592   3.652  1.00  0.00     0.186 HD
HETATM    8  N   UNL     1       9.548  13.105   3.158  1.00  0.00    -0.279 N 
ATOM      9  HN  UNL     1      10.334  12.460   3.078  1.00  0.00     0.189 HD
ENDROOT
BRANCH   3  10
HETATM   10  N   UNL     1       9.657  16.476   2.365  1.00  0.00    -0.351 N 
ATOM     11  HN  UNL     1      10.450  16.167   1.803  1.00  0.00     0.166 HD
BRANCH  10  12
HETATM   12  C   UNL     1       9.601  17.776   2.498  1.00  0.00     0.054 C 
HETATM   13  C   UNL     1       9.956  18.344   3.734  1.00  0.00     0.031 C 
HETATM   14  C   UNL     1      10.413  19.643   3.772  1.00  0.00     0.002 C 
HETATM   15  C   UNL     1      10.313  20.437   2.631  1.00  0.00     0.002 C 
HETATM   16  C   UNL     1       9.753  19.956   1.461  1.00  0.00     0.026 C 
HETATM   17  C   UNL     1       9.327  18.661   1.397  1.00  0.00     0.060 C 
HETATM   18 CL   UNL     1       8.457  18.032   0.062  1.00  0.00    -0.082 Cl
ENDBRANCH  10  12
ENDBRANCH   3  10
BRANCH   5  19
HETATM   19  O   UNL     1      11.158  14.749   3.130  1.00  0.00    -0.344 OA
HETATM   20  H   UNL     1      10.923  15.202   3.993  1.00  0.00     0.219 HD
ENDBRANCH   5  19
TORSDOF 3
ENDMDL
MODEL 4
REMARK VINA RESULT:    -5.929     34.427     36.239
REMARK INTER + INTRA:          -7.251
REMARK INTER:                  -6.927
REMARK INTRA:                  -0.323
REMARK UNBOUND:                -0.456
REMARK  3 active torsions:
REMARK  status: ('A' for Active; 'I' for Inactive)
REMARK    1  A    between atoms: N_2  and  C_9 
REMARK    2  A    between atoms: N_2  and  C_16 
REMARK    3  A    between atoms: O_10  and  C_14 
ROOT
HETATM    1  C   UNL     1       1.662 -21.982   8.738  1.00  0.00     0.021 C 
HETATM    2  C   UNL     1       2.811 -22.306   7.967  1.00  0.00     0.107 C 
HETATM    3  C   UNL     1       2.172 -19.621   9.272  1.00  0.00     0.085 C 
HETATM    4  C   UNL     1       1.419 -20.818   9.436  1.00  0.00     0.035 C 
HETATM    5  C   UNL     1       3.519 -19.524   8.724  1.00  0.00     0.182 C 
HETATM    6  N   UNL     1       3.856 -21.603   7.739  1.00  0.00    -0.310 N 
ATOM      7  HN  UNL     1       4.605 -22.126   7.284  1.00  0.00     0.186 HD
HETATM    8  N   UNL     1       4.159 -20.364   7.966  1.00  0.00    -0.279 N 
ATOM      9  HN  UNL     1       4.992 -20.007   7.499  1.00  0.00     0.189 HD
ENDROOT
BRANCH   3  10
HETATM   10  N   UNL     1       1.832 -18.417   9.640  1.00  0.00    -0.351 N 
ATOM     11  HN  UNL     1       2.576 -17.928  10.138  1.00  0.00     0.166 HD
BRANCH  10  12
HETATM   12  C   UNL     1       0.747 -17.698   9.511  1.00  0.00     0.054 C 
HETATM   13  C   UNL     1       0.051 -17.313  10.671  1.00  0.00     0.031 C 
HETATM   14  C   UNL     1      -0.733 -16.180  10.641  1.00  0.00     0.002 C 
HETATM   15  C   UNL     1      -0.995 -15.562   9.420  1.00  0.00     0.002 C 
HETATM   16  C   UNL     1      -0.498 -16.066   8.231  1.00  0.00     0.026 C 
HETATM   17  C   UNL     1       0.309 -17.167   8.248  1.00  0.00     0.060 C 
HETATM   18 CL   UNL     1       0.818 -17.970   6.823  1.00  0.00    -0.082 Cl
ENDBRANCH  10  12
ENDBRANCH   3  10
BRANCH   5  19
HETATM   19  O   UNL     1       4.182 -18.360   9.097  1.00  0.00    -0.344 OA
HETATM   20  H   UNL     1       4.895 -18.939   9.498  1.00  0.00     0.219 HD
ENDBRANCH   5  19
TORSDOF 3
ENDMDL
MODEL 5
REMARK VINA RESULT:    -5.915     34.266     36.325
REMARK INTER + INTRA:          -7.235
REMARK INTER:                  -6.734
REMARK INTRA:                  -0.501
REMARK UNBOUND:                -0.456
REMARK  3 active torsions:
REMARK  status: ('A' for Active; 'I' for Inactive)
REMARK    1  A    between atoms: N_2  and  C_9 
REMARK    2  A    between atoms: N_2  and  C_16 
REMARK    3  A    between atoms: O_10  and  C_14 
ROOT
HETATM    1  C   UNL     1      -0.433 -16.782   7.409  1.00  0.00     0.021 C 
HETATM    2  C   UNL     1      -1.331 -15.945   8.126  1.00  0.00     0.107 C 
HETATM    3  C   UNL     1       0.895 -17.677   9.294  1.00  0.00     0.085 C 
HETATM    4  C   UNL     1       0.653 -17.470   7.906  1.00  0.00     0.035 C 
HETATM    5  C   UNL     1       0.348 -16.885  10.387  1.00  0.00     0.182 C 
HETATM    6  N   UNL     1      -1.344 -15.654   9.373  1.00  0.00    -0.310 N 
ATOM      7  HN  UNL     1      -1.998 -14.907   9.607  1.00  0.00     0.186 HD
HETATM    8  N   UNL     1      -0.697 -16.113  10.397  1.00  0.00    -0.279 N 
ATOM      9  HN  UNL     1      -1.047 -15.838  11.315  1.00  0.00     0.189 HD
ENDROOT
BRANCH   3  10
HETATM   10  N   UNL     1       1.695 -18.555   9.833  1.00  0.00    -0.351 N 
ATOM     11  HN  UNL     1       2.061 -18.257  10.737  1.00  0.00     0.166 HD
BRANCH  10  12
HETATM   12  C   UNL     1       2.130 -19.734   9.471  1.00  0.00     0.054 C 
HETATM   13  C   UNL     1       1.238 -20.821   9.499  1.00  0.00     0.031 C 
HETATM   14  C   UNL     1       1.464 -21.899   8.671  1.00  0.00     0.002 C 
HETATM   15  C   UNL     1       2.673 -21.992   7.984  1.00  0.00     0.002 C 
HETATM   16  C   UNL     1       3.662 -21.035   8.124  1.00  0.00     0.026 C 
HETATM   17  C   UNL     1       3.440 -19.944   8.914  1.00  0.00     0.060 C 
HETATM   18 CL   UNL     1       4.663 -18.807   9.295  1.00  0.00    -0.082 Cl
ENDBRANCH  10  12
ENDBRANCH   3  10
BRANCH   5  19
HETATM   19  O   UNL     1       1.083 -16.989  11.563  1.00  0.00    -0.344 OA
HETATM   20  H   UNL     1       0.227 -17.213  12.034  1.00  0.00     0.219 HD
ENDBRANCH   5  19
TORSDOF 3
ENDMDL
MODEL 6
REMARK VINA RESULT:    -5.839     22.649     24.724
REMARK INTER + INTRA:          -7.148
REMARK INTER:                  -6.799
REMARK INTRA:                  -0.349
REMARK UNBOUND:                -0.456
REMARK  3 active torsions:
REMARK  status: ('A' for Active; 'I' for Inactive)
REMARK    1  A    between atoms: N_2  and  C_9 
REMARK    2  A    between atoms: N_2  and  C_16 
REMARK    3  A    between atoms: O_10  and  C_14 
ROOT
HETATM    1  C   UNL     1       5.158   1.799  20.635  1.00  0.00     0.021 C 
HETATM    2  C   UNL     1       4.682   1.848  19.296  1.00  0.00     0.107 C 
HETATM    3  C   UNL     1       7.369   0.758  20.252  1.00  0.00     0.085 C 
HETATM    4  C   UNL     1       6.310   1.199  21.096  1.00  0.00     0.035 C 
HETATM    5  C   UNL     1       7.263   0.458  18.831  1.00  0.00     0.182 C 
HETATM    6  N   UNL     1       5.208   1.367  18.233  1.00  0.00    -0.310 N 
ATOM      7  HN  UNL     1       4.589   1.401  17.423  1.00  0.00     0.186 HD
HETATM    8  N   UNL     1       6.366   0.845  17.974  1.00  0.00    -0.279 N 
ATOM      9  HN  UNL     1       6.599   0.725  16.989  1.00  0.00     0.189 HD
ENDROOT
BRANCH   3  10
HETATM   10  N   UNL     1       8.593   0.479  20.603  1.00  0.00    -0.351 N 
ATOM     11  HN  UNL     1       9.277   0.722  19.886  1.00  0.00     0.166 HD
BRANCH  10  12
HETATM   12  C   UNL     1       9.138  -0.046  21.670  1.00  0.00     0.054 C 
HETATM   13  C   UNL     1       8.641  -1.271  22.149  1.00  0.00     0.031 C 
HETATM   14  C   UNL     1       9.466  -2.088  22.890  1.00  0.00     0.002 C 
HETATM   15  C   UNL     1      10.694  -1.601  23.333  1.00  0.00     0.002 C 
HETATM   16  C   UNL     1      11.102  -0.308  23.058  1.00  0.00     0.026 C 
HETATM   17  C   UNL     1      10.311   0.503  22.296  1.00  0.00     0.060 C 
HETATM   18 CL   UNL     1      10.640   2.168  22.059  1.00  0.00    -0.082 Cl
ENDBRANCH  10  12
ENDBRANCH   3  10
BRANCH   5  19
HETATM   19  O   UNL     1       8.279  -0.372  18.367  1.00  0.00    -0.344 OA
HETATM   20  H   UNL     1       8.233   0.121  17.496  1.00  0.00     0.219 HD
ENDBRANCH   5  19
TORSDOF 3
ENDMDL
MODEL 7
REMARK VINA RESULT:    -5.768     29.053     31.419
REMARK INTER + INTRA:          -7.066
REMARK INTER:                  -6.563
REMARK INTRA:                  -0.503
REMARK UNBOUND:                -0.456
REMARK  3 active torsions:
REMARK  status: ('A' for Active; 'I' for Inactive)
REMARK    1  A    between atoms: N_2  and  C_9 
REMARK    2  A    between atoms: N_2  and  C_16 
REMARK    3  A    between atoms: O_10  and  C_14 
ROOT
HETATM    1  C   UNL     1       4.616  -6.424  27.076  1.00  0.00     0.021 C 
HETATM    2  C   UNL     1       5.207  -7.044  28.211  1.00  0.00     0.107 C 
HETATM    3  C   UNL     1       6.604  -5.285  26.143  1.00  0.00     0.085 C 
HETATM    4  C   UNL     1       5.202  -5.529  26.207  1.00  0.00     0.035 C 
HETATM    5  C   UNL     1       7.570  -5.560  27.198  1.00  0.00     0.182 C 
HETATM    6  N   UNL     1       6.396  -6.925  28.670  1.00  0.00    -0.310 N 
ATOM      7  HN  UNL     1       6.521  -7.354  29.587  1.00  0.00     0.186 HD
HETATM    8  N   UNL     1       7.473  -6.371  28.209  1.00  0.00    -0.279 N 
ATOM      9  HN  UNL     1       8.342  -6.596  28.693  1.00  0.00     0.189 HD
ENDROOT
BRANCH   3  10
HETATM   10  N   UNL     1       7.262  -4.714  25.174  1.00  0.00    -0.351 N 
ATOM     11  HN  UNL     1       8.113  -4.249  25.490  1.00  0.00     0.166 HD
BRANCH  10  12
HETATM   12  C   UNL     1       7.073  -4.606  23.884  1.00  0.00     0.054 C 
HETATM   13  C   UNL     1       7.569  -5.616  23.042  1.00  0.00     0.031 C 
HETATM   14  C   UNL     1       6.973  -5.826  21.817  1.00  0.00     0.002 C 
HETATM   15  C   UNL     1       6.038  -4.906  21.346  1.00  0.00     0.002 C 
HETATM   16  C   UNL     1       5.703  -3.777  22.070  1.00  0.00     0.026 C 
HETATM   17  C   UNL     1       6.260  -3.572  23.299  1.00  0.00     0.060 C 
HETATM   18 CL   UNL     1       6.052  -2.121  24.186  1.00  0.00    -0.082 Cl
ENDBRANCH  10  12
ENDBRANCH   3  10
BRANCH   5  19
HETATM   19  O   UNL     1       8.743  -4.824  27.075  1.00  0.00    -0.344 OA
HETATM   20  H   UNL     1       8.884  -5.266  26.186  1.00  0.00     0.219 HD
ENDBRANCH   5  19
TORSDOF 3
ENDMDL
MODEL 8
REMARK VINA RESULT:    -5.589     24.761     25.714
REMARK INTER + INTRA:          -6.862
REMARK INTER:                  -6.442
REMARK INTRA:                  -0.420
REMARK UNBOUND:                -0.456
REMARK  3 active torsions:
REMARK  status: ('A' for Active; 'I' for Inactive)
REMARK    1  A    between atoms: N_2  and  C_9 
REMARK    2  A    between atoms: N_2  and  C_16 
REMARK    3  A    between atoms: O_10  and  C_14 
ROOT
HETATM    1  C   UNL     1      12.396  -0.233  24.066  1.00  0.00     0.021 C 
HETATM    2  C   UNL     1      12.150  -1.382  23.266  1.00  0.00     0.107 C 
HETATM    3  C   UNL     1      10.743   1.322  23.080  1.00  0.00     0.085 C 
HETATM    4  C   UNL     1      11.861   1.028  23.913  1.00  0.00     0.035 C 
HETATM    5  C   UNL     1      10.269   0.512  21.966  1.00  0.00     0.182 C 
HETATM    6  N   UNL     1      11.382  -1.510  22.250  1.00  0.00    -0.310 N 
ATOM      7  HN  UNL     1      11.504  -2.396  21.759  1.00  0.00     0.186 HD
HETATM    8  N   UNL     1      10.482  -0.745  21.716  1.00  0.00    -0.279 N 
ATOM      9  HN  UNL     1       9.873  -1.178  21.022  1.00  0.00     0.189 HD
ENDROOT
BRANCH   3  10
HETATM   10  N   UNL     1       9.992   2.386  23.114  1.00  0.00    -0.351 N 
ATOM     11  HN  UNL     1       9.375   2.464  22.305  1.00  0.00     0.166 HD
BRANCH  10  12
HETATM   12  C   UNL     1       9.853   3.378  23.957  1.00  0.00     0.054 C 
HETATM   13  C   UNL     1      10.693   4.498  23.824  1.00  0.00     0.031 C 
HETATM   14  C   UNL     1      10.266   5.719  24.299  1.00  0.00     0.002 C 
HETATM   15  C   UNL     1       9.118   5.783  25.086  1.00  0.00     0.002 C 
HETATM   16  C   UNL     1       8.401   4.647  25.416  1.00  0.00     0.026 C 
HETATM   17  C   UNL     1       8.792   3.435  24.926  1.00  0.00     0.060 C 
HETATM   18 CL   UNL     1       8.084   1.957  25.425  1.00  0.00    -0.082 Cl
ENDBRANCH  10  12
ENDBRANCH   3  10
BRANCH   5  19
HETATM   19  O   UNL     1       9.493   1.225  21.059  1.00  0.00    -0.344 OA
HETATM   20  H   UNL     1       9.845   0.623  20.340  1.00  0.00     0.219 HD
ENDBRANCH   5  19
TORSDOF 3
ENDMDL
MODEL 9
REMARK VINA RESULT:    -5.513     25.051     26.425
REMARK INTER + INTRA:          -6.774
REMARK INTER:                  -6.401
REMARK INTRA:                  -0.373
REMARK UNBOUND:                -0.456
REMARK  3 active torsions:
REMARK  status: ('A' for Active; 'I' for Inactive)
REMARK    1  A    between atoms: N_2  and  C_9 
REMARK    2  A    between atoms: N_2  and  C_16 
REMARK    3  A    between atoms: O_10  and  C_14 
ROOT
HETATM    1  C   UNL     1       7.741  -3.149  23.549  1.00  0.00     0.021 C 
HETATM    2  C   UNL     1       6.358  -2.961  23.275  1.00  0.00     0.107 C 
HETATM    3  C   UNL     1       8.701  -1.465  22.013  1.00  0.00     0.085 C 
HETATM    4  C   UNL     1       8.812  -2.573  22.900  1.00  0.00     0.035 C 
HETATM    5  C   UNL     1       7.495  -1.044  21.313  1.00  0.00     0.182 C 
HETATM    6  N   UNL     1       5.803  -2.221  22.391  1.00  0.00    -0.310 N 
ATOM      7  HN  UNL     1       4.800  -2.384  22.298  1.00  0.00     0.186 HD
HETATM    8  N   UNL     1       6.252  -1.307  21.590  1.00  0.00    -0.279 N 
ATOM      9  HN  UNL     1       5.553  -0.728  21.124  1.00  0.00     0.189 HD
ENDROOT
BRANCH   3  10
HETATM   10  N   UNL     1       9.659  -0.676  21.612  1.00  0.00    -0.351 N 
ATOM     11  HN  UNL     1       9.877  -0.786  20.622  1.00  0.00     0.166 HD
BRANCH  10  12
HETATM   12  C   UNL     1      10.402   0.227  22.200  1.00  0.00     0.054 C 
HETATM   13  C   UNL     1      10.063   1.583  22.047  1.00  0.00     0.031 C 
HETATM   14  C   UNL     1      10.449   2.486  23.014  1.00  0.00     0.002 C 
HETATM   15  C   UNL     1      11.341   2.086  24.006  1.00  0.00     0.002 C 
HETATM   16  C   UNL     1      11.863   0.806  24.039  1.00  0.00     0.026 C 
HETATM   17  C   UNL     1      11.465  -0.110  23.108  1.00  0.00     0.060 C 
HETATM   18 CL   UNL     1      12.189  -1.655  22.954  1.00  0.00    -0.082 Cl
ENDBRANCH  10  12
ENDBRANCH   3  10
BRANCH   5  19
HETATM   19  O   UNL     1       7.753  -0.263  20.192  1.00  0.00    -0.344 OA
HETATM   20  H   UNL     1       6.762  -0.181  20.067  1.00  0.00     0.219 HD
ENDBRANCH   5  19
TORSDOF 3
ENDMDL
