REMARK  3 active torsions:
REMARK  status: ('A' for Active; 'I' for Inactive)
REMARK    1  A    between atoms: N_2  and  C_9 
REMARK    2  A    between atoms: N_2  and  C_16 
REMARK    3  A    between atoms: O_10  and  C_14 
ROOT
HETATM    1  C   UNL     1       7.891   1.135  20.357  1.00  0.00     0.021 C 
HETATM    2  C   UNL     1       6.694   1.826  20.690  1.00  0.00     0.107 C 
HETATM    3  C   UNL     1       8.395   0.099  22.546  1.00  0.00     0.085 C 
HETATM    4  C   UNL     1       8.735   0.457  21.210  1.00  0.00     0.035 C 
HETATM    5  C   UNL     1       7.362   0.721  23.363  1.00  0.00     0.182 C 
HETATM    6  N   UNL     1       6.131   1.964  21.831  1.00  0.00    -0.310 N 
ATOM      7  HN  UNL     1       5.365   2.638  21.826  1.00  0.00     0.186 HD
HETATM    8  N   UNL     1       6.334   1.424  22.991  1.00  0.00    -0.279 N 
ATOM      9  HN  UNL     1       5.606   1.566  23.691  1.00  0.00     0.189 HD
ENDROOT
BRANCH   3  10
HETATM   10  N   UNL     1       8.982  -0.789  23.299  1.00  0.00    -0.351 N 
ATOM     11  HN  UNL     1       9.167  -0.450  24.243  1.00  0.00     0.166 HD
BRANCH  10  12
HETATM   12  C   UNL     1       9.386  -2.019  23.111  1.00  0.00     0.054 C 
HETATM   13  C   UNL     1      10.659  -2.233  22.554  1.00  0.00     0.031 C 
HETATM   14  C   UNL     1      11.319  -3.414  22.817  1.00  0.00     0.002 C 
HETATM   15  C   UNL     1      10.636  -4.454  23.444  1.00  0.00     0.002 C 
HETATM   16  C   UNL     1       9.304  -4.337  23.798  1.00  0.00     0.026 C 
HETATM   17  C   UNL     1       8.646  -3.162  23.575  1.00  0.00     0.060 C 
HETATM   18 CL   UNL     1       6.958  -2.982  23.806  1.00  0.00    -0.082 Cl
ENDBRANCH  10  12
ENDBRANCH   3  10
BRANCH   5  19
HETATM   19  O   UNL     1       7.544   0.520  24.727  1.00  0.00    -0.344 OA
HETATM   20  H   UNL     1       7.090  -0.367  24.619  1.00  0.00     0.219 HD
ENDBRANCH   5  19
TORSDOF 3
