stable:False satoms:8 tatoms:24 sratio:0.3333333333333333
  -OEChem-08062417073D

 45 46  0     1  0  0  0  0  0999 V2000
   -6.2481   -5.0291  -26.1641 C   0  0  0  0  0  0  0  0  0  0  0  0
   -7.8186   -4.5284  -26.0362 S   0  0  0  0  0  0  0  0  0  0  0  0
   -8.7087   -5.6573  -25.9916 O   0  0  0  0  0  0  0  0  0  0  0  0
   -8.0775   -3.7288  -27.1823 O   0  0  0  0  0  0  0  0  0  0  0  0
   -7.9588   -3.6997  -24.6489 N   0  0  0  0  0  0  0  0  0  0  0  0
   -8.8334   -3.0522  -24.2636 C   0  0  0  0  0  0  0  0  0  0  0  0
   -9.3409   -2.0706  -23.7042 C   0  0  0  0  0  0  0  0  0  0  0  0
  -10.2800   -1.2441  -23.6173 C   0  0  1  0  0  0  0  0  0  0  0  0
  -10.9624   -0.1332  -24.8458 C   0  0  0  0  0  0  0  0  0  0  0  0
  -11.9190    0.1084  -24.9361 C   0  0  0  0  0  0  0  0  0  0  0  0
  -13.1169   -0.3500  -24.1829 C   0  0  0  0  0  0  0  0  0  0  0  0
  -12.7537   -1.3811  -23.2665 C   0  0  0  0  0  0  0  0  0  0  0  0
  -11.8712   -1.8105  -23.0110 C   0  0  0  0  0  0  0  0  0  0  0  0
   -9.8404   -0.6233  -22.7181 C   0  0  0  0  0  0  0  0  0  0  0  0
   -9.2833    0.0851  -21.7123 C   0  0  0  0  0  0  0  0  0  0  0  0
   -9.8315    1.0314  -21.4115 O   0  0  0  0  0  0  0  0  0  0  0  0
   -8.1934   -0.4753  -21.2658 N   0  0  0  0  0  0  0  0  0  0  0  0
   -7.5571    0.0505  -20.2995 C   0  0  0  0  0  0  0  0  0  0  0  0
   -7.7690    0.1978  -19.0266 C   0  0  0  0  0  0  0  0  0  0  0  0
   -7.4123    0.6150  -17.9024 N   0  0  0  0  0  0  0  0  0  0  0  0
   -6.2476    1.1810  -18.2636 C   0  0  0  0  0  0  0  0  0  0  0  0
   -5.7342    1.1954  -19.3778 C   0  0  0  0  0  0  0  0  0  0  0  0
   -6.1488    0.6976  -20.5605 C   0  0  0  0  0  0  0  0  0  0  0  0
   -5.4944    0.7580  -21.9684 C   0  0  0  0  0  0  0  0  0  0  0  0
   -6.1184   -5.5963  -27.0977 H   0  0  0  0  0  0  0  0  0  0  0  0
   -5.5834   -4.1527  -26.1725 H   0  0  0  0  0  0  0  0  0  0  0  0
   -5.9972   -5.6715  -25.3071 H   0  0  0  0  0  0  0  0  0  0  0  0
   -7.1759   -3.0776  -24.6540 H   0  0  0  0  0  0  0  0  0  0  0  0
   -9.6986   -3.6281  -24.5571 H   0  0  0  0  0  0  0  0  0  0  0  0
   -8.6475   -1.7978  -22.9224 H   0  0  0  0  0  0  0  0  0  0  0  0
  -10.2723    0.3111  -25.5478 H   0  0  0  0  0  0  0  0  0  0  0  0
  -12.1277    0.8274  -25.7145 H   0  0  0  0  0  0  0  0  0  0  0  0
  -14.1156    0.0407  -24.3111 H   0  0  0  0  0  0  0  0  0  0  0  0
  -13.5973   -1.7914  -22.7313 H   0  0  0  0  0  0  0  0  0  0  0  0
  -11.8138   -1.7491  -21.9142 H   0  0  0  0  0  0  0  0  0  0  0  0
  -11.9508   -2.8645  -23.3156 H   0  0  0  0  0  0  0  0  0  0  0  0
  -10.2506   -1.3478  -21.9992 H   0  0  0  0  0  0  0  0  0  0  0  0
  -10.5753    0.1763  -22.8927 H   0  0  0  0  0  0  0  0  0  0  0  0
   -7.8582   -1.3194  -21.6842 H   0  0  0  0  0  0  0  0  0  0  0  0
   -8.7259   -0.2718  -18.8528 H   0  0  0  0  0  0  0  0  0  0  0  0
   -5.6989    1.6824  -17.4801 H   0  0  0  0  0  0  0  0  0  0  0  0
   -4.7785    1.6969  -19.4188 H   0  0  0  0  0  0  0  0  0  0  0  0
   -4.8647   -0.1313  -22.1192 H   0  0  0  0  0  0  0  0  0  0  0  0
   -6.2806    0.7851  -22.7372 H   0  0  0  0  0  0  0  0  0  0  0  0
   -4.8745    1.6634  -22.0459 H   0  0  0  0  0  0  0  0  0  0  0  0
 20 21  2  0  0  0  0
 19 20  1  0  0  0  0
 21 22  1  0  0  0  0
 18 19  2  0  0  0  0
 22 23  2  0  0  0  0
 18 23  1  0  0  0  0
 17 18  1  0  0  0  0
 23 24  1  0  0  0  0
 15 16  2  0  0  0  0
 15 17  1  0  0  0  0
 14 15  1  0  0  0  0
  8 14  1  0  0  0  0
 12 13  1  0  0  0  0
  8 13  1  0  0  0  0
 11 12  2  0  0  0  0
  7  8  1  0  0  0  0
  8  9  1  0  0  0  0
 10 11  1  0  0  0  0
  6  7  2  3  0  0  0
  5  6  1  0  0  0  0
  9 10  2  0  0  0  0
  2  5  1  0  0  0  0
  2  3  2  0  0  0  0
  1  2  1  0  0  0  0
  2  4  2  0  0  0  0
  1 25  1  0  0  0  0
  1 26  1  0  0  0  0
  1 27  1  0  0  0  0
  5 28  1  0  0  0  0
  6 29  1  0  0  0  0
  7 30  1  0  0  0  0
  9 31  1  0  0  0  0
 10 32  1  0  0  0  0
 11 33  1  0  0  0  0
 12 34  1  0  0  0  0
 13 35  1  0  0  0  0
 13 36  1  0  0  0  0
 14 37  1  0  0  0  0
 14 38  1  0  0  0  0
 17 39  1  0  0  0  0
 19 40  1  0  0  0  0
 21 41  1  0  0  0  0
 22 42  1  0  0  0  0
 24 43  1  0  0  0  0
 24 44  1  0  0  0  0
 24 45  1  0  0  0  0
M  END
> <Chemgauss4>
-12.600167

$$$$
