stable:False satoms:8 tatoms:24 sratio:0.3333333333333333
  -OEChem-08062417073D

 45 46  0     1  0  0  0  0  0999 V2000
    6.0246   -5.0851   26.0886 C   0  0  0  0  0  0  0  0  0  0  0  0
    7.5951   -4.5843   25.9607 S   0  0  0  0  0  0  0  0  0  0  0  0
    8.4852   -5.7133   25.9161 O   0  0  0  0  0  0  0  0  0  0  0  0
    7.8539   -3.7848   27.1068 O   0  0  0  0  0  0  0  0  0  0  0  0
    7.7352   -3.7557   24.5734 N   0  0  0  0  0  0  0  0  0  0  0  0
    8.6099   -3.1081   24.1881 C   0  0  0  0  0  0  0  0  0  0  0  0
    9.1174   -2.1266   23.6287 C   0  0  0  0  0  0  0  0  0  0  0  0
   10.0564   -1.3001   23.5418 C   0  0  1  0  0  0  0  0  0  0  0  0
   10.7389   -0.1891   24.7703 C   0  0  0  0  0  0  0  0  0  0  0  0
   11.6955    0.0524   24.8606 C   0  0  0  0  0  0  0  0  0  0  0  0
   12.8934   -0.4059   24.1074 C   0  0  0  0  0  0  0  0  0  0  0  0
   12.5302   -1.4371   23.1910 C   0  0  0  0  0  0  0  0  0  0  0  0
   11.6477   -1.8665   22.9355 C   0  0  0  0  0  0  0  0  0  0  0  0
    9.6168   -0.6793   22.6426 C   0  0  0  0  0  0  0  0  0  0  0  0
    9.0598    0.0291   21.6368 C   0  0  0  0  0  0  0  0  0  0  0  0
    9.6080    0.9754   21.3360 O   0  0  0  0  0  0  0  0  0  0  0  0
    7.9699   -0.5312   21.1903 N   0  0  0  0  0  0  0  0  0  0  0  0
    7.3335   -0.0055   20.2240 C   0  0  0  0  0  0  0  0  0  0  0  0
    7.5455    0.1419   18.9511 C   0  0  0  0  0  0  0  0  0  0  0  0
    7.1888    0.5591   17.8269 N   0  0  0  0  0  0  0  0  0  0  0  0
    6.0241    1.1250   18.1881 C   0  0  0  0  0  0  0  0  0  0  0  0
    5.5107    1.1394   19.3023 C   0  0  0  0  0  0  0  0  0  0  0  0
    5.9253    0.6416   20.4850 C   0  0  0  0  0  0  0  0  0  0  0  0
    5.2708    0.7021   21.8929 C   0  0  0  0  0  0  0  0  0  0  0  0
    5.8949   -5.6523   27.0222 H   0  0  0  0  0  0  0  0  0  0  0  0
    5.3599   -4.2086   26.0970 H   0  0  0  0  0  0  0  0  0  0  0  0
    5.7737   -5.7274   25.2316 H   0  0  0  0  0  0  0  0  0  0  0  0
    6.9524   -3.1335   24.5785 H   0  0  0  0  0  0  0  0  0  0  0  0
    9.4751   -3.6841   24.4816 H   0  0  0  0  0  0  0  0  0  0  0  0
    8.4240   -1.8538   22.8469 H   0  0  0  0  0  0  0  0  0  0  0  0
   10.0488    0.2551   25.4723 H   0  0  0  0  0  0  0  0  0  0  0  0
   11.9042    0.7714   25.6390 H   0  0  0  0  0  0  0  0  0  0  0  0
   13.8921   -0.0153   24.2356 H   0  0  0  0  0  0  0  0  0  0  0  0
   13.3738   -1.8474   22.6558 H   0  0  0  0  0  0  0  0  0  0  0  0
   11.5903   -1.8051   21.8387 H   0  0  0  0  0  0  0  0  0  0  0  0
   11.7273   -2.9205   23.2401 H   0  0  0  0  0  0  0  0  0  0  0  0
   10.0271   -1.4038   21.9237 H   0  0  0  0  0  0  0  0  0  0  0  0
   10.3518    0.1203   22.8172 H   0  0  0  0  0  0  0  0  0  0  0  0
    7.6347   -1.3754   21.6087 H   0  0  0  0  0  0  0  0  0  0  0  0
    8.5024   -0.3278   18.7773 H   0  0  0  0  0  0  0  0  0  0  0  0
    5.4754    1.6264   17.4046 H   0  0  0  0  0  0  0  0  0  0  0  0
    4.5550    1.6409   19.3433 H   0  0  0  0  0  0  0  0  0  0  0  0
    4.6412   -0.1872   22.0437 H   0  0  0  0  0  0  0  0  0  0  0  0
    6.0571    0.7291   22.6617 H   0  0  0  0  0  0  0  0  0  0  0  0
    4.6510    1.6075   21.9704 H   0  0  0  0  0  0  0  0  0  0  0  0
 20 21  2  0  0  0  0
 19 20  1  0  0  0  0
 21 22  1  0  0  0  0
 18 19  2  0  0  0  0
 22 23  2  0  0  0  0
 18 23  1  0  0  0  0
 17 18  1  0  0  0  0
 23 24  1  0  0  0  0
 15 16  2  0  0  0  0
 15 17  1  0  0  0  0
 14 15  1  0  0  0  0
  8 14  1  0  0  0  0
 12 13  1  0  0  0  0
  8 13  1  0  0  0  0
 11 12  2  0  0  0  0
  7  8  1  0  0  0  0
  8  9  1  0  0  0  0
 10 11  1  0  0  0  0
  6  7  2  3  0  0  0
  5  6  1  0  0  0  0
  9 10  2  0  0  0  0
  2  5  1  0  0  0  0
  2  3  2  0  0  0  0
  1  2  1  0  0  0  0
  2  4  2  0  0  0  0
  1 25  1  0  0  0  0
  1 26  1  0  0  0  0
  1 27  1  0  0  0  0
  5 28  1  0  0  0  0
  6 29  1  0  0  0  0
  7 30  1  0  0  0  0
  9 31  1  0  0  0  0
 10 32  1  0  0  0  0
 11 33  1  0  0  0  0
 12 34  1  0  0  0  0
 13 35  1  0  0  0  0
 13 36  1  0  0  0  0
 14 37  1  0  0  0  0
 14 38  1  0  0  0  0
 17 39  1  0  0  0  0
 19 40  1  0  0  0  0
 21 41  1  0  0  0  0
 22 42  1  0  0  0  0
 24 43  1  0  0  0  0
 24 44  1  0  0  0  0
 24 45  1  0  0  0  0
M  END
> <Chemgauss4>
-13.073556

$$$$
