stable:False satoms:17 tatoms:24 sratio:0.7083333333333334
  -OEChem-07092417383D

 24 24  0     0  0  0  0  0  0999 V2000
    7.0342   -4.6551   26.5861 F   0  0  0  0  0  0  0  0  0  0  0  0
    8.3208   -4.1552   26.2849 C   0  0  0  0  0  0  0  0  0  0  0  0
    9.0904   -5.2175   26.3548 F   0  0  0  0  0  0  0  0  0  0  0  0
    8.5722   -3.4491   27.1143 H   0  0  0  0  0  0  0  0  0  0  0  0
    8.3201   -3.5585   25.0209 N   0  0  0  0  0  0  0  0  0  0  0  0
    9.4248   -3.1471   24.5135 N   0  0  0  0  0  0  0  0  0  0  0  0
    9.6765   -2.2041   23.8687 C   0  0  0  0  0  0  0  0  0  0  0  0
    9.5976   -0.6374   22.3902 C   0  0  0  0  0  0  0  0  0  0  0  0
   11.4019   -0.4997   23.8668 C   0  0  0  0  0  0  0  0  0  0  0  0
   11.4292    0.0634   24.7595 H   0  0  0  0  0  0  0  0  0  0  0  0
   13.4128   -0.4251   23.4745 H   0  0  0  0  0  0  0  0  0  0  0  0
   12.3973   -0.9607   22.0889 H   0  0  0  0  0  0  0  0  0  0  0  0
   12.4490   -0.6734   23.1069 C   0  0  0  0  0  0  0  0  0  0  0  0
   10.1589   -1.0828   23.3101 C   0  0  0  0  0  0  0  0  0  0  0  0
    8.9559    0.0425   21.2656 C   0  0  0  0  0  0  0  0  0  0  0  0
    9.6157    0.9638   20.8229 O   0  0  0  0  0  0  0  0  0  0  0  0
    7.7983   -0.5216   20.9529 N   0  0  0  0  0  0  0  0  0  0  0  0
    7.1782   -0.0484   20.2602 C   0  0  0  0  0  0  0  0  0  0  0  0
    6.5844   -0.0352   18.5633 C   0  0  0  0  0  0  0  0  0  0  0  0
    6.9152   -0.3775   17.6642 H   0  0  0  0  0  0  0  0  0  0  0  0
    4.7485    1.0746   18.3898 H   0  0  0  0  0  0  0  0  0  0  0  0
    5.5005    0.6673   19.0657 C   0  0  0  0  0  0  0  0  0  0  0  0
    5.7228    0.6524   20.3236 C   0  0  0  0  0  0  0  0  0  0  0  0
    5.2789    0.8943   21.2483 H   0  0  0  0  0  0  0  0  0  0  0  0
 19 20  1  0  0  0  0
 21 22  1  0  0  0  0
 19 22  2  0  0  0  0
 18 19  1  0  0  0  0
 22 23  1  0  0  0  0
 18 23  2  0  0  0  0
 17 18  1  0  0  0  0
 23 24  1  0  0  0  0
 15 16  2  0  0  0  0
 15 17  1  0  0  0  0
  8 15  1  0  0  0  0
 12 13  1  0  0  0  0
  8 14  2  0  0  0  0
 11 13  1  0  0  0  0
  9 13  2  0  0  0  0
  9 14  1  0  0  0  0
  7 14  1  0  0  0  0
  9 10  1  0  0  0  0
  6  7  1  0  0  0  0
  5  6  2  3  0  0  0
  2  5  1  0  0  0  0
  2  3  1  0  0  0  0
  1  2  1  0  0  0  0
  2  4  1  0  0  0  0
M  END
> <Shapegauss>
-193.347366

$$$$
