stable:False satoms:17 tatoms:24 sratio:0.7083333333333334
  -OEChem-08062405263D

 28 28  0     0  0  0  0  0  0999 V2000
  -13.0990    0.3087  -23.8632 F   0  0  0  0  0  0  0  0  0  0  0  0
  -12.1894   -0.6173  -24.4209 C   0  0  0  0  0  0  0  0  0  0  0  0
  -12.1883   -0.3188  -25.7002 F   0  0  0  0  0  0  0  0  0  0  0  0
  -12.6504   -1.6239  -24.2664 H   0  0  0  0  0  0  0  0  0  0  0  0
  -10.9341   -0.4772  -23.8222 N   0  0  0  0  0  0  0  0  0  0  0  0
   -9.9380   -1.1489  -24.2734 N   0  0  0  0  0  0  0  0  0  0  0  0
   -9.0434   -1.6678  -23.7268 C   0  0  0  0  0  0  0  0  0  0  0  0
   -7.4011   -2.0760  -22.3915 C   0  0  0  0  0  0  0  0  0  0  0  0
   -7.9328   -3.8203  -23.8507 C   0  0  0  0  0  0  0  0  0  0  0  0
   -8.5750   -4.6309  -23.6380 H   0  0  0  0  0  0  0  0  0  0  0  0
   -6.7477   -4.8022  -25.2052 H   0  0  0  0  0  0  0  0  0  0  0  0
   -6.0683   -3.2495  -24.6005 H   0  0  0  0  0  0  0  0  0  0  0  0
   -6.8763   -3.9340  -24.6090 C   0  0  0  0  0  0  0  0  0  0  0  0
   -8.0882   -2.4778  -23.2436 C   0  0  0  0  0  0  0  0  0  0  0  0
   -6.5109   -1.7049  -21.2921 C   0  0  0  0  0  0  0  0  0  0  0  0
   -5.6328   -2.5223  -21.0898 O   0  0  0  0  0  0  0  0  0  0  0  0
   -6.8420   -0.5313  -20.7734 N   0  0  0  0  0  0  0  0  0  0  0  0
   -6.3727   -0.2179  -19.8960 C   0  0  0  0  0  0  0  0  0  0  0  0
   -5.1165    0.8533  -19.1841 C   0  0  0  0  0  0  0  0  0  0  0  0
   -4.2700    1.3139  -19.5101 H   0  0  0  0  0  0  0  0  0  0  0  0
   -5.4506    1.1524  -17.0791 H   0  0  0  0  0  0  0  0  0  0  0  0
   -5.8357    0.7274  -18.0061 C   0  0  0  0  0  0  0  0  0  0  0  0
   -6.8571    0.0565  -18.3784 C   0  0  0  0  0  0  0  0  0  0  0  0
   -7.7962   -0.2823  -18.0408 H   0  0  0  0  0  0  0  0  0  0  0  0
   -9.4266   -1.4178  -22.7265 H   0  0  0  0  0  0  0  0  0  0  0  0
   -8.3215   -0.9012  -24.0450 H   0  0  0  0  0  0  0  0  0  0  0  0
   -7.6220   -1.0458  -22.6288 H   0  0  0  0  0  0  0  0  0  0  0  0
   -7.5300    0.0442  -21.2155 H   0  0  0  0  0  0  0  0  0  0  0  0
 19 20  1  0  0  0  0
 21 22  1  0  0  0  0
 19 22  2  0  0  0  0
 18 19  1  0  0  0  0
 22 23  1  0  0  0  0
 18 23  2  0  0  0  0
 17 18  1  0  0  0  0
 23 24  1  0  0  0  0
 15 16  2  0  0  0  0
 15 17  1  0  0  0  0
  8 15  1  0  0  0  0
 12 13  1  0  0  0  0
  8 14  2  0  0  0  0
 11 13  1  0  0  0  0
  9 13  2  0  0  0  0
  9 14  1  0  0  0  0
  7 14  1  0  0  0  0
  9 10  1  0  0  0  0
  6  7  1  0  0  0  0
  5  6  2  3  0  0  0
  2  5  1  0  0  0  0
  2  3  1  0  0  0  0
  1  2  1  0  0  0  0
  2  4  1  0  0  0  0
  7 25  1  0  0  0  0
  7 26  1  0  0  0  0
  8 27  1  0  0  0  0
 17 28  1  0  0  0  0
M  END
> <Chemgauss4>
-7.022048

$$$$
