stable:False satoms:17 tatoms:24 sratio:0.7083333333333334
  -OEChem-08062405263D

 28 28  0     0  0  0  0  0  0999 V2000
   13.2504    0.3820   23.6601 F   0  0  0  0  0  0  0  0  0  0  0  0
   12.4573   -0.6355   24.2360 C   0  0  0  0  0  0  0  0  0  0  0  0
   12.5622   -0.4170   25.5271 F   0  0  0  0  0  0  0  0  0  0  0  0
   12.9617   -1.5975   23.9717 H   0  0  0  0  0  0  0  0  0  0  0  0
   11.1437   -0.5435   23.7673 N   0  0  0  0  0  0  0  0  0  0  0  0
   10.2390   -1.3071   24.2625 N   0  0  0  0  0  0  0  0  0  0  0  0
    9.3288   -1.8504   23.7676 C   0  0  0  0  0  0  0  0  0  0  0  0
    7.5928   -2.2850   22.5660 C   0  0  0  0  0  0  0  0  0  0  0  0
    8.3689   -4.0761   23.8484 C   0  0  0  0  0  0  0  0  0  0  0  0
    9.0357   -4.8271   23.5226 H   0  0  0  0  0  0  0  0  0  0  0  0
    7.3830   -5.2168   25.2376 H   0  0  0  0  0  0  0  0  0  0  0  0
    6.5546   -3.6791   24.8049 H   0  0  0  0  0  0  0  0  0  0  0  0
    7.3999   -4.3070   24.6921 C   0  0  0  0  0  0  0  0  0  0  0  0
    8.3825   -2.6915   23.3216 C   0  0  0  0  0  0  0  0  0  0  0  0
    6.5791   -1.9077   21.5817 C   0  0  0  0  0  0  0  0  0  0  0  0
    5.7370   -2.7682   21.4070 O   0  0  0  0  0  0  0  0  0  0  0  0
    6.7861   -0.6848   21.1150 N   0  0  0  0  0  0  0  0  0  0  0  0
    6.2156   -0.3503   20.3083 C   0  0  0  0  0  0  0  0  0  0  0  0
    4.8332    0.6758   19.7901 C   0  0  0  0  0  0  0  0  0  0  0  0
    3.9958    1.0576   20.2236 H   0  0  0  0  0  0  0  0  0  0  0  0
    4.9427    1.1255   17.6882 H   0  0  0  0  0  0  0  0  0  0  0  0
    5.4411    0.6712   18.5446 C   0  0  0  0  0  0  0  0  0  0  0  0
    6.5328    0.0488   18.7742 C   0  0  0  0  0  0  0  0  0  0  0  0
    7.4536   -0.2048   18.3288 H   0  0  0  0  0  0  0  0  0  0  0  0
    9.5972   -1.5142   22.7552 H   0  0  0  0  0  0  0  0  0  0  0  0
    8.5958   -1.1550   24.2026 H   0  0  0  0  0  0  0  0  0  0  0  0
    7.7723   -1.2589   22.8509 H   0  0  0  0  0  0  0  0  0  0  0  0
    7.4773   -0.0928   21.5292 H   0  0  0  0  0  0  0  0  0  0  0  0
 19 20  1  0  0  0  0
 21 22  1  0  0  0  0
 19 22  2  0  0  0  0
 18 19  1  0  0  0  0
 22 23  1  0  0  0  0
 18 23  2  0  0  0  0
 17 18  1  0  0  0  0
 23 24  1  0  0  0  0
 15 16  2  0  0  0  0
 15 17  1  0  0  0  0
  8 15  1  0  0  0  0
 12 13  1  0  0  0  0
  8 14  2  0  0  0  0
 11 13  1  0  0  0  0
  9 13  2  0  0  0  0
  9 14  1  0  0  0  0
  7 14  1  0  0  0  0
  9 10  1  0  0  0  0
  6  7  1  0  0  0  0
  5  6  2  3  0  0  0
  2  5  1  0  0  0  0
  2  3  1  0  0  0  0
  1  2  1  0  0  0  0
  2  4  1  0  0  0  0
  7 25  1  0  0  0  0
  7 26  1  0  0  0  0
  8 27  1  0  0  0  0
 17 28  1  0  0  0  0
M  END
> <Chemgauss4>
-7.068173

$$$$
