stable:False satoms:9 tatoms:24 sratio:0.375
  -OEChem-07092417433D

 24 25  0     0  0  0  0  0  0999 V2000
    6.7358   -4.9107   26.3343 C   0  0  0  0  0  0  0  0  0  0  0  0
    8.1962   -4.4179   26.0771 S   0  0  0  0  0  0  0  0  0  0  0  0
    9.0427   -5.5541   25.9665 O   0  0  0  0  0  0  0  0  0  0  0  0
    8.5559   -3.5340   27.1232 O   0  0  0  0  0  0  0  0  0  0  0  0
    8.1125   -3.7116   24.6366 N   0  0  0  0  0  0  0  0  0  0  0  0
    8.8896   -2.9358   24.2013 C   0  0  0  0  0  0  0  0  0  0  0  0
    9.4742   -2.0795   23.6416 C   0  0  0  0  0  0  0  0  0  0  0  0
   10.3288   -1.2100   22.9943 C   0  0  0  0  0  0  0  0  0  0  0  0
   11.4696    0.3764   24.5033 H   0  0  0  0  0  0  0  0  0  0  0  0
   12.2665   -0.0051   23.9776 C   0  5  0  0  0  0  0  0  0  0  0  0
   13.2823    0.1366   23.9222 H   0  0  0  0  0  0  0  0  0  0  0  0
   12.6062   -1.5772   22.5125 C   0  0  0  0  0  0  0  0  0  0  0  0
   11.7634   -1.1413   22.9738 C   0  0  0  0  0  0  0  0  0  0  0  0
    9.8147   -0.5057   22.2216 C   0  0  0  0  0  0  0  0  0  0  0  0
    8.9738    0.1420   21.3017 C   0  0  0  0  0  0  0  0  0  0  0  0
    9.3994    1.1560   20.7751 O   0  0  0  0  0  0  0  0  0  0  0  0
    7.8272   -0.5410   21.2166 N   0  0  0  0  0  0  0  0  0  0  0  0
    7.1300   -0.0662   20.2585 C   0  0  0  0  0  0  0  0  0  0  0  0
    7.1232    0.0632   18.9452 C   0  0  0  0  0  0  0  0  0  0  0  0
    6.6719    0.2959   17.8356 N   0  0  0  0  0  0  0  0  0  0  0  0
    5.6507    0.7711   18.3141 C   0  0  0  0  0  0  0  0  0  0  0  0
    5.1627    0.8920   19.4593 C   0  0  0  0  0  0  0  0  0  0  0  0
    5.7368    0.5023   20.5518 C   0  0  0  0  0  0  0  0  0  0  0  0
    5.3701    0.5646   21.5529 H   0  0  0  0  0  0  0  0  0  0  0  0
 20 21  2  0  0  0  0
 19 20  1  0  0  0  0
 19 21  1  0  0  0  0
 21 22  1  0  0  0  0
 18 19  2  0  0  0  0
 22 23  2  0  0  0  0
 18 23  1  0  0  0  0
 17 18  1  0  0  0  0
 23 24  1  0  0  0  0
 15 16  2  0  0  0  0
 15 17  1  0  0  0  0
 14 15  1  0  0  0  0
  8 14  2  0  0  0  0
 12 13  2  0  0  0  0
  8 13  1  0  0  0  0
 10 13  1  0  0  0  0
  7  8  1  0  0  0  0
  6  7  3  0  0  0  0
 10 11  1  0  0  0  0
  9 10  1  0  0  0  0
  5  6  1  0  0  0  0
  2  5  1  0  0  0  0
  2  3  2  0  0  0  0
  1  2  1  0  0  0  0
  2  4  2  0  0  0  0
M  CHG  1  10  -1
M  END
> <Shapegauss>
-261.095184

$$$$
