stable:False satoms:9 tatoms:24 sratio:0.375
  -OEChem-08062410013D

 34 35  0     0  0  0  0  0  0999 V2000
    6.7694   -5.3825   25.8054 C   0  0  0  0  0  0  0  0  0  0  0  0
    8.2095   -4.7789   25.7456 S   0  0  0  0  0  0  0  0  0  0  0  0
    9.1417   -5.8461   25.6370 O   0  0  0  0  0  0  0  0  0  0  0  0
    8.3973   -3.9672   26.8905 O   0  0  0  0  0  0  0  0  0  0  0  0
    8.2222   -3.9582   24.3645 N   0  0  0  0  0  0  0  0  0  0  0  0
    8.9822   -3.1007   24.0774 C   0  0  0  0  0  0  0  0  0  0  0  0
    9.5580   -2.1646   23.6527 C   0  0  0  0  0  0  0  0  0  0  0  0
   10.4097   -1.1909   23.1711 C   0  0  0  0  0  0  0  0  0  0  0  0
   12.7519   -0.4252   25.2375 H   0  0  0  0  0  0  0  0  0  0  0  0
   12.1468    0.0442   24.4479 C   0  0  0  0  0  0  0  0  0  0  0  0
   11.2035    0.4114   24.8785 H   0  0  0  0  0  0  0  0  0  0  0  0
   12.7446   -1.3720   22.9083 C   0  0  0  0  0  0  0  0  0  0  0  0
   11.8304   -1.0310   23.3097 C   0  0  0  0  0  0  0  0  0  0  0  0
    9.9278   -0.4565   22.4057 C   0  0  0  0  0  0  0  0  0  0  0  0
    9.1405    0.2137   21.4550 C   0  0  0  0  0  0  0  0  0  0  0  0
    9.5440    1.2939   21.0585 O   0  0  0  0  0  0  0  0  0  0  0  0
    8.0601   -0.5299   21.1942 N   0  0  0  0  0  0  0  0  0  0  0  0
    7.4317   -0.0193   20.2074 C   0  0  0  0  0  0  0  0  0  0  0  0
    7.5489    0.2216   18.9152 C   0  0  0  0  0  0  0  0  0  0  0  0
    7.1971    0.5200   17.7855 N   0  0  0  0  0  0  0  0  0  0  0  0
    6.1014    0.8874   18.1879 C   0  0  0  0  0  0  0  0  0  0  0  0
    5.4923    0.8788   19.2802 C   0  0  0  0  0  0  0  0  0  0  0  0
    5.9789    0.4335   20.3938 C   0  0  0  0  0  0  0  0  0  0  0  0
    5.5090    0.3866   21.3517 H   0  0  0  0  0  0  0  0  0  0  0  0
    6.6562   -5.9717   26.7274 H   0  0  0  0  0  0  0  0  0  0  0  0
    6.0300   -4.5681   25.7977 H   0  0  0  0  0  0  0  0  0  0  0  0
    6.6079   -6.0325   24.9328 H   0  0  0  0  0  0  0  0  0  0  0  0
    7.3164   -3.5397   24.2989 H   0  0  0  0  0  0  0  0  0  0  0  0
   12.7032    0.8869   24.0117 H   0  0  0  0  0  0  0  0  0  0  0  0
   13.6787   -0.9838   23.2867 H   0  0  0  0  0  0  0  0  0  0  0  0
   12.7463   -2.1092   22.1191 H   0  0  0  0  0  0  0  0  0  0  0  0
   10.6720    0.3196   22.5067 H   0  0  0  0  0  0  0  0  0  0  0  0
    7.7883   -1.3535   21.6920 H   0  0  0  0  0  0  0  0  0  0  0  0
    4.4865    1.2717   19.2954 H   0  0  0  0  0  0  0  0  0  0  0  0
 20 21  2  0  0  0  0
 19 20  1  0  0  0  0
 19 21  1  0  0  0  0
 21 22  1  0  0  0  0
 18 19  2  0  0  0  0
 22 23  2  0  0  0  0
 18 23  1  0  0  0  0
 17 18  1  0  0  0  0
 23 24  1  0  0  0  0
 15 16  2  0  0  0  0
 15 17  1  0  0  0  0
 14 15  1  0  0  0  0
  8 14  2  0  0  0  0
 12 13  2  0  0  0  0
  8 13  1  0  0  0  0
 10 13  1  0  0  0  0
  7  8  1  0  0  0  0
  6  7  3  0  0  0  0
 10 11  1  0  0  0  0
  9 10  1  0  0  0  0
  5  6  1  0  0  0  0
  2  5  1  0  0  0  0
  2  3  2  0  0  0  0
  1  2  1  0  0  0  0
  2  4  2  0  0  0  0
  1 25  1  0  0  0  0
  1 26  1  0  0  0  0
  1 27  1  0  0  0  0
  5 28  1  0  0  0  0
 10 29  1  0  0  0  0
 12 30  1  0  0  0  0
 12 31  1  0  0  0  0
 14 32  1  0  0  0  0
 17 33  1  0  0  0  0
 22 34  1  0  0  0  0
M  END
> <Chemgauss4>
-8.561251

$$$$
