stable:False satoms:9 tatoms:24 sratio:0.375
  -OEChem-08062410013D

 34 35  0     0  0  0  0  0  0999 V2000
   -6.8901   -5.4915  -25.8054 C   0  0  0  0  0  0  0  0  0  0  0  0
   -8.3301   -4.8879  -25.7456 S   0  0  0  0  0  0  0  0  0  0  0  0
   -9.2623   -5.9551  -25.6370 O   0  0  0  0  0  0  0  0  0  0  0  0
   -8.5179   -4.0762  -26.8905 O   0  0  0  0  0  0  0  0  0  0  0  0
   -8.3429   -4.0672  -24.3645 N   0  0  0  0  0  0  0  0  0  0  0  0
   -9.1029   -3.2097  -24.0774 C   0  0  0  0  0  0  0  0  0  0  0  0
   -9.6787   -2.2736  -23.6527 C   0  0  0  0  0  0  0  0  0  0  0  0
  -10.5304   -1.2999  -23.1711 C   0  0  0  0  0  0  0  0  0  0  0  0
  -12.8726   -0.5342  -25.2375 H   0  0  0  0  0  0  0  0  0  0  0  0
  -12.2674   -0.0648  -24.4479 C   0  0  0  0  0  0  0  0  0  0  0  0
  -11.3242    0.3024  -24.8785 H   0  0  0  0  0  0  0  0  0  0  0  0
  -12.8653   -1.4810  -22.9083 C   0  0  0  0  0  0  0  0  0  0  0  0
  -11.9511   -1.1400  -23.3097 C   0  0  0  0  0  0  0  0  0  0  0  0
  -10.0484   -0.5655  -22.4057 C   0  0  0  0  0  0  0  0  0  0  0  0
   -9.2612    0.1048  -21.4550 C   0  0  0  0  0  0  0  0  0  0  0  0
   -9.6646    1.1849  -21.0585 O   0  0  0  0  0  0  0  0  0  0  0  0
   -8.1808   -0.6389  -21.1942 N   0  0  0  0  0  0  0  0  0  0  0  0
   -7.5523   -0.1283  -20.2074 C   0  0  0  0  0  0  0  0  0  0  0  0
   -7.6696    0.1126  -18.9152 C   0  0  0  0  0  0  0  0  0  0  0  0
   -7.3178    0.4110  -17.7855 N   0  0  0  0  0  0  0  0  0  0  0  0
   -6.2220    0.7784  -18.1879 C   0  0  0  0  0  0  0  0  0  0  0  0
   -5.6130    0.7698  -19.2802 C   0  0  0  0  0  0  0  0  0  0  0  0
   -6.0996    0.3245  -20.3938 C   0  0  0  0  0  0  0  0  0  0  0  0
   -5.6297    0.2776  -21.3517 H   0  0  0  0  0  0  0  0  0  0  0  0
   -6.7769   -6.0807  -26.7274 H   0  0  0  0  0  0  0  0  0  0  0  0
   -6.1507   -4.6771  -25.7977 H   0  0  0  0  0  0  0  0  0  0  0  0
   -6.7286   -6.1415  -24.9328 H   0  0  0  0  0  0  0  0  0  0  0  0
   -7.4371   -3.6487  -24.2989 H   0  0  0  0  0  0  0  0  0  0  0  0
  -12.8239    0.7779  -24.0117 H   0  0  0  0  0  0  0  0  0  0  0  0
  -13.7994   -1.0928  -23.2867 H   0  0  0  0  0  0  0  0  0  0  0  0
  -12.8669   -2.2182  -22.1191 H   0  0  0  0  0  0  0  0  0  0  0  0
  -10.7926    0.2106  -22.5067 H   0  0  0  0  0  0  0  0  0  0  0  0
   -7.9089   -1.4625  -21.6920 H   0  0  0  0  0  0  0  0  0  0  0  0
   -4.6071    1.1627  -19.2954 H   0  0  0  0  0  0  0  0  0  0  0  0
 20 21  2  0  0  0  0
 19 20  1  0  0  0  0
 19 21  1  0  0  0  0
 21 22  1  0  0  0  0
 18 19  2  0  0  0  0
 22 23  2  0  0  0  0
 18 23  1  0  0  0  0
 17 18  1  0  0  0  0
 23 24  1  0  0  0  0
 15 16  2  0  0  0  0
 15 17  1  0  0  0  0
 14 15  1  0  0  0  0
  8 14  2  0  0  0  0
 12 13  2  0  0  0  0
  8 13  1  0  0  0  0
 10 13  1  0  0  0  0
  7  8  1  0  0  0  0
  6  7  3  0  0  0  0
 10 11  1  0  0  0  0
  9 10  1  0  0  0  0
  5  6  1  0  0  0  0
  2  5  1  0  0  0  0
  2  3  2  0  0  0  0
  1  2  1  0  0  0  0
  2  4  2  0  0  0  0
  1 25  1  0  0  0  0
  1 26  1  0  0  0  0
  1 27  1  0  0  0  0
  5 28  1  0  0  0  0
 10 29  1  0  0  0  0
 12 30  1  0  0  0  0
 12 31  1  0  0  0  0
 14 32  1  0  0  0  0
 17 33  1  0  0  0  0
 22 34  1  0  0  0  0
M  END
> <Chemgauss4>
-8.504982

$$$$
