stable:False satoms:9 tatoms:24 sratio:0.375
  -OEChem-07092417413D

 24 25  0     0  0  0  0  0  0999 V2000
    6.5740   -4.9162   26.5236 Cl  0  0  0  0  0  0  0  0  0  0  0  0
    8.3709   -4.4170   26.1615 S   0  0  0  0  0  0  0  0  0  0  0  0
    9.1338   -5.5936   26.0039 O   0  0  0  0  0  0  0  0  0  0  0  0
    8.7616   -3.5461   27.1707 O   0  0  0  0  0  0  0  0  0  0  0  0
    8.1728   -3.7051   24.7289 N   0  0  0  0  0  0  0  0  0  0  0  0
    8.8999   -3.0021   24.1522 C   0  0  0  0  0  0  0  0  0  0  0  0
    9.4305   -2.2258   23.5458 C   0  0  0  0  0  0  0  0  0  0  0  0
   10.3571   -1.3696   22.9940 C   0  0  0  0  0  0  0  0  0  0  0  0
   11.5432    0.2260   24.3481 C   0  0  0  0  0  0  0  0  0  0  0  0
   12.2939    0.3291   24.3420 C   0  0  0  0  0  0  0  0  0  0  0  0
   12.5519   -0.5653   23.4158 C   0  0  0  0  0  0  0  0  0  0  0  0
   13.3376   -0.7639   22.8264 H   0  0  0  0  0  0  0  0  0  0  0  0
   11.5980   -1.6644   23.0314 C   0  0  0  0  0  0  0  0  0  0  0  0
    9.8612   -0.3918   22.3000 C   0  0  0  0  0  0  0  0  0  0  0  0
    9.1349    0.1379   21.3327 C   0  0  0  0  0  0  0  0  0  0  0  0
    9.5397    1.0869   20.7008 O   0  0  0  0  0  0  0  0  0  0  0  0
    7.9618   -0.5221   21.1644 N   0  0  0  0  0  0  0  0  0  0  0  0
    7.1672   -0.0087   20.1964 C   0  0  0  0  0  0  0  0  0  0  0  0
    7.2517    0.0602   18.9338 C   0  0  0  0  0  0  0  0  0  0  0  0
    6.5243    0.4564   17.9550 N   0  0  0  0  0  0  0  0  0  0  0  0
    5.6001    0.7813   18.7097 C   0  0  0  0  0  0  0  0  0  0  0  0
    4.6435    1.1238   18.6507 H   0  0  0  0  0  0  0  0  0  0  0  0
    5.9012    0.5085   20.3047 C   0  0  0  0  0  0  0  0  0  0  0  0
    4.9730    0.6914   21.8044 Br  0  0  0  0  0  0  0  0  0  0  0  0
 20 21  1  0  0  0  0
 19 20  1  0  0  0  0
 21 22  1  0  0  0  0
 21 23  2  0  0  0  0
 18 19  2  0  0  0  0
 18 23  1  0  0  0  0
 17 18  1  0  0  0  0
 23 24  1  0  0  0  0
 15 16  2  0  0  0  0
 15 17  1  0  0  0  0
 14 15  1  0  0  0  0
  8 14  2  3  0  0  0
 11 12  1  0  0  0  0
  8 13  1  0  0  0  0
  7  8  1  0  0  0  0
 11 13  1  0  0  0  0
 10 11  1  0  0  0  0
  9 11  1  0  0  0  0
  6  7  3  0  0  0  0
  5  6  1  0  0  0  0
  9 10  1  0  0  0  0
  2  5  1  0  0  0  0
  2  3  2  0  0  0  0
  1  2  1  0  0  0  0
  2  4  2  0  0  0  0
M  END
> <Shapegauss>
-263.145050

$$$$
