stable:False satoms:9 tatoms:24 sratio:0.375
  -OEChem-08062411333D

 35 36  0     0  0  0  0  0  0999 V2000
    6.6331   -5.2317   26.0544 Cl  0  0  0  0  0  0  0  0  0  0  0  0
    8.4157   -4.6572   25.7358 S   0  0  0  0  0  0  0  0  0  0  0  0
    9.2084   -5.7961   25.4792 O   0  0  0  0  0  0  0  0  0  0  0  0
    8.7860   -3.8650   26.8151 O   0  0  0  0  0  0  0  0  0  0  0  0
    8.1961   -3.8321   24.3686 N   0  0  0  0  0  0  0  0  0  0  0  0
    8.9035   -3.0642   23.8534 C   0  0  0  0  0  0  0  0  0  0  0  0
    9.4126   -2.2258   23.3149 C   0  0  0  0  0  0  0  0  0  0  0  0
   10.3155   -1.3023   22.8376 C   0  0  0  0  0  0  0  0  0  0  0  0
   11.4630    0.2033   24.3218 C   0  0  0  0  0  0  0  0  0  0  0  0
   12.2107    0.3260   24.3245 C   0  0  0  0  0  0  0  0  0  0  0  0
   12.4897   -0.4799   23.3259 C   0  0  0  0  0  0  0  0  0  0  0  0
   13.2790   -0.6075   22.7218 H   0  0  0  0  0  0  0  0  0  0  0  0
   11.5637   -1.5669   22.8499 C   0  0  0  0  0  0  0  0  0  0  0  0
    9.7930   -0.2825   22.2288 C   0  0  0  0  0  0  0  0  0  0  0  0
    9.0511    0.3082   21.3098 C   0  0  0  0  0  0  0  0  0  0  0  0
    9.4298    1.3174   20.7605 O   0  0  0  0  0  0  0  0  0  0  0  0
    7.8951   -0.3654   21.0863 N   0  0  0  0  0  0  0  0  0  0  0  0
    7.0853    0.2072   20.1652 C   0  0  0  0  0  0  0  0  0  0  0  0
    7.1653    0.3849   18.9130 C   0  0  0  0  0  0  0  0  0  0  0  0
    6.4257    0.8435   17.9712 N   0  0  0  0  0  0  0  0  0  0  0  0
    5.4951    1.0793   18.7507 C   0  0  0  0  0  0  0  0  0  0  0  0
    4.5298    1.4006   18.7209 H   0  0  0  0  0  0  0  0  0  0  0  0
    5.8066    0.6804   20.3169 C   0  0  0  0  0  0  0  0  0  0  0  0
    4.8773    0.7116   21.8267 Br  0  0  0  0  0  0  0  0  0  0  0  0
    7.3467   -3.3259   24.5178 H   0  0  0  0  0  0  0  0  0  0  0  0
   10.7673    0.9784   23.9678 H   0  0  0  0  0  0  0  0  0  0  0  0
   10.9859   -0.3788   25.1241 H   0  0  0  0  0  0  0  0  0  0  0  0
   12.6881    0.0161   25.2658 H   0  0  0  0  0  0  0  0  0  0  0  0
   12.4695    1.3732   24.1095 H   0  0  0  0  0  0  0  0  0  0  0  0
   11.7113   -2.4384   23.5046 H   0  0  0  0  0  0  0  0  0  0  0  0
   11.8577   -1.8263   21.8221 H   0  0  0  0  0  0  0  0  0  0  0  0
   10.1857    0.5535   22.7886 H   0  0  0  0  0  0  0  0  0  0  0  0
    7.6609   -1.2134   21.5618 H   0  0  0  0  0  0  0  0  0  0  0  0
    8.1226    0.0595   18.5334 H   0  0  0  0  0  0  0  0  0  0  0  0
    6.5525    0.9639   16.9866 H   0  0  0  0  0  0  0  0  0  0  0  0
 20 21  1  0  0  0  0
 19 20  1  0  0  0  0
 21 22  1  0  0  0  0
 21 23  2  0  0  0  0
 18 19  2  0  0  0  0
 18 23  1  0  0  0  0
 17 18  1  0  0  0  0
 23 24  1  0  0  0  0
 15 16  2  0  0  0  0
 15 17  1  0  0  0  0
 14 15  1  0  0  0  0
  8 14  2  3  0  0  0
 11 12  1  0  0  0  0
  8 13  1  0  0  0  0
  7  8  1  0  0  0  0
 11 13  1  0  0  0  0
 10 11  1  0  0  0  0
  9 11  1  0  0  0  0
  6  7  3  0  0  0  0
  5  6  1  0  0  0  0
  9 10  1  0  0  0  0
  2  5  1  0  0  0  0
  2  3  2  0  0  0  0
  1  2  1  0  0  0  0
  2  4  2  0  0  0  0
  5 25  1  0  0  0  0
  9 26  1  0  0  0  0
  9 27  1  0  0  0  0
 10 28  1  0  0  0  0
 10 29  1  0  0  0  0
 13 30  1  0  0  0  0
 13 31  1  0  0  0  0
 14 32  1  0  0  0  0
 17 33  1  0  0  0  0
 19 34  1  0  0  0  0
 20 35  1  0  0  0  0
M  END
> <Chemgauss4>
-8.635242

$$$$
