stable:False satoms:9 tatoms:24 sratio:0.375
  -OEChem-08062411333D

 35 36  0     0  0  0  0  0  0999 V2000
   -6.0069   -5.5067  -25.7233 Cl  0  0  0  0  0  0  0  0  0  0  0  0
   -7.8277   -4.9804  -25.5932 S   0  0  0  0  0  0  0  0  0  0  0  0
   -8.6122   -6.1403  -25.4193 O   0  0  0  0  0  0  0  0  0  0  0  0
   -8.1043   -4.1966  -26.7063 O   0  0  0  0  0  0  0  0  0  0  0  0
   -7.7741   -4.1517  -24.2116 N   0  0  0  0  0  0  0  0  0  0  0  0
   -8.5516   -3.4038  -23.7741 C   0  0  0  0  0  0  0  0  0  0  0  0
   -9.1362   -2.5801  -23.2927 C   0  0  0  0  0  0  0  0  0  0  0  0
  -10.1083   -1.6817  -22.9133 C   0  0  0  0  0  0  0  0  0  0  0  0
  -11.1343   -0.2049  -24.5111 C   0  0  0  0  0  0  0  0  0  0  0  0
  -11.8807   -0.1022  -24.5919 C   0  0  0  0  0  0  0  0  0  0  0  0
  -12.2408   -0.9167  -23.6269 C   0  0  0  0  0  0  0  0  0  0  0  0
  -13.0851   -1.0662  -23.1083 H   0  0  0  0  0  0  0  0  0  0  0  0
  -11.3409   -1.9794  -23.0555 C   0  0  0  0  0  0  0  0  0  0  0  0
   -9.6795   -0.6492  -22.2546 C   0  0  0  0  0  0  0  0  0  0  0  0
   -9.0536   -0.0405  -21.2640 C   0  0  0  0  0  0  0  0  0  0  0  0
   -9.5144    0.9575  -20.7584 O   0  0  0  0  0  0  0  0  0  0  0  0
   -7.9097   -0.6834  -20.9201 N   0  0  0  0  0  0  0  0  0  0  0  0
   -7.2161   -0.0908  -19.9203 C   0  0  0  0  0  0  0  0  0  0  0  0
   -7.4309    0.0827  -18.6835 C   0  0  0  0  0  0  0  0  0  0  0  0
   -6.8062    0.5594  -17.6703 N   0  0  0  0  0  0  0  0  0  0  0  0
   -5.8059    0.8211  -18.3487 C   0  0  0  0  0  0  0  0  0  0  0  0
   -4.8579    1.1680  -18.2187 H   0  0  0  0  0  0  0  0  0  0  0  0
   -5.9416    0.4165  -19.9383 C   0  0  0  0  0  0  0  0  0  0  0  0
   -4.8609    0.4748  -21.3429 Br  0  0  0  0  0  0  0  0  0  0  0  0
   -6.9275   -3.6229  -24.2720 H   0  0  0  0  0  0  0  0  0  0  0  0
  -10.5003    0.5879  -24.0874 H   0  0  0  0  0  0  0  0  0  0  0  0
  -10.5608   -0.7729  -25.2585 H   0  0  0  0  0  0  0  0  0  0  0  0
  -12.2489   -0.4233  -25.5775 H   0  0  0  0  0  0  0  0  0  0  0  0
  -12.1884    0.9375  -24.4064 H   0  0  0  0  0  0  0  0  0  0  0  0
  -11.3961   -2.8536  -23.7209 H   0  0  0  0  0  0  0  0  0  0  0  0
  -11.7335   -2.2482  -22.0637 H   0  0  0  0  0  0  0  0  0  0  0  0
  -10.0338    0.1768  -22.8533 H   0  0  0  0  0  0  0  0  0  0  0  0
   -7.6047   -1.5241  -21.3675 H   0  0  0  0  0  0  0  0  0  0  0  0
   -8.4136   -0.2686  -18.4055 H   0  0  0  0  0  0  0  0  0  0  0  0
   -7.0382    0.6749  -16.7044 H   0  0  0  0  0  0  0  0  0  0  0  0
 20 21  1  0  0  0  0
 19 20  1  0  0  0  0
 21 22  1  0  0  0  0
 21 23  2  0  0  0  0
 18 19  2  0  0  0  0
 18 23  1  0  0  0  0
 17 18  1  0  0  0  0
 23 24  1  0  0  0  0
 15 16  2  0  0  0  0
 15 17  1  0  0  0  0
 14 15  1  0  0  0  0
  8 14  2  3  0  0  0
 11 12  1  0  0  0  0
  8 13  1  0  0  0  0
  7  8  1  0  0  0  0
 11 13  1  0  0  0  0
 10 11  1  0  0  0  0
  9 11  1  0  0  0  0
  6  7  3  0  0  0  0
  5  6  1  0  0  0  0
  9 10  1  0  0  0  0
  2  5  1  0  0  0  0
  2  3  2  0  0  0  0
  1  2  1  0  0  0  0
  2  4  2  0  0  0  0
  5 25  1  0  0  0  0
  9 26  1  0  0  0  0
  9 27  1  0  0  0  0
 10 28  1  0  0  0  0
 10 29  1  0  0  0  0
 13 30  1  0  0  0  0
 13 31  1  0  0  0  0
 14 32  1  0  0  0  0
 17 33  1  0  0  0  0
 19 34  1  0  0  0  0
 20 35  1  0  0  0  0
M  END
> <Chemgauss4>
-8.373845

$$$$
