stable:False satoms:11 tatoms:24 sratio:0.4583333333333333
  -OEChem-07092417503D

 24 24  0     1  0  0  0  0  0999 V2000
    6.5847   -4.8475   26.4646 C   0  0  0  0  0  0  0  0  0  0  0  0
    8.2265   -4.2845   26.1298 S   0  0  0  0  0  0  0  0  0  0  0  0
    9.0545   -5.4642   26.0702 O   0  0  0  0  0  0  0  0  0  0  0  0
    8.6203   -3.3984   27.1711 O   0  0  0  0  0  0  0  0  0  0  0  0
    8.0854   -3.5392   24.6919 N   0  0  0  0  0  0  0  0  0  0  0  0
    8.9744   -2.9293   24.1389 C   0  0  0  0  0  0  0  0  0  0  0  0
    9.4124   -1.9721   23.4855 C   0  0  0  0  0  0  0  0  0  0  0  0
   10.3098   -1.0562   23.2924 C   0  0  2  0  0  0  0  0  0  0  0  0
   11.0380   -0.0220   24.3048 C   0  0  0  0  0  0  0  0  0  0  0  0
   12.0510    0.3180   24.3012 C   0  0  0  0  0  0  0  0  0  0  0  0
   13.1116   -0.1762   23.4372 C   0  0  0  0  0  0  0  0  0  0  0  0
   12.7150   -1.2572   22.6399 C   0  0  0  0  0  0  0  0  0  0  0  0
   11.8215   -1.7500   22.4554 C   0  0  0  0  0  0  0  0  0  0  0  0
    9.7316   -0.5576   22.3615 C   0  0  0  0  0  0  0  0  0  0  0  0
    9.0709    0.0525   21.3756 C   0  0  0  0  0  0  0  0  0  0  0  0
    9.5313    1.0110   20.9539 O   0  0  0  0  0  0  0  0  0  0  0  0
    7.9668   -0.5743   21.0471 N   0  0  0  0  0  0  0  0  0  0  0  0
    7.1971   -0.1181   20.1690 C   0  0  0  0  0  0  0  0  0  0  0  0
    7.2303   -0.0435   18.8411 C   0  0  0  0  0  0  0  0  0  0  0  0
    6.7512    0.2716   17.7661 N   0  0  0  0  0  0  0  0  0  0  0  0
    5.6663    0.8833   18.2259 C   0  0  0  0  0  0  0  0  0  0  0  0
    5.2869    0.9763   19.4282 C   0  0  0  0  0  0  0  0  0  0  0  0
    5.8287    0.5397   20.5630 C   0  0  0  0  0  0  0  0  0  0  0  0
    5.3180    0.6478   21.9824 C   0  0  0  0  0  0  0  0  0  0  0  0
 20 21  2  0  0  0  0
 19 20  1  0  0  0  0
 21 22  1  0  0  0  0
 18 19  2  0  0  0  0
 22 23  2  0  0  0  0
 18 23  1  0  0  0  0
 17 18  1  0  0  0  0
 23 24  1  0  0  0  0
 15 16  2  0  0  0  0
 15 17  1  0  0  0  0
 14 15  1  0  0  0  0
  8 14  1  0  0  0  0
 12 13  2  0  0  0  0
 11 12  1  0  0  0  0
  7  8  1  0  0  0  0
  8  9  1  0  0  0  0
 10 11  1  0  0  0  0
  6  7  2  3  0  0  0
  5  6  1  0  0  0  0
  9 10  2  0  0  0  0
  2  5  1  0  0  0  0
  2  3  2  0  0  0  0
  1  2  1  0  0  0  0
  2  4  2  0  0  0  0
M  END
> <Shapegauss>
-285.475586

$$$$
