stable:False satoms:11 tatoms:24 sratio:0.4583333333333333
  -OEChem-08062416063D

 47 47  0     1  0  0  0  0  0999 V2000
   -6.3332   -5.1511  -26.2839 C   0  0  0  0  0  0  0  0  0  0  0  0
   -7.9822   -4.5473  -26.0823 S   0  0  0  0  0  0  0  0  0  0  0  0
   -8.8349   -5.7095  -26.0283 O   0  0  0  0  0  0  0  0  0  0  0  0
   -8.2900   -3.7005  -27.1836 O   0  0  0  0  0  0  0  0  0  0  0  0
   -7.9211   -3.7431  -24.6707 N   0  0  0  0  0  0  0  0  0  0  0  0
   -8.8324   -3.0954  -24.2038 C   0  0  0  0  0  0  0  0  0  0  0  0
   -9.2937   -2.1039  -23.6215 C   0  0  0  0  0  0  0  0  0  0  0  0
  -10.1840   -1.1659  -23.5267 C   0  0  2  0  0  0  0  0  0  0  0  0
  -10.8244   -0.1644  -24.6275 C   0  0  0  0  0  0  0  0  0  0  0  0
  -11.8288    0.1920  -24.7051 C   0  0  0  0  0  0  0  0  0  0  0  0
  -12.9529   -0.2470  -23.8932 C   0  0  0  0  0  0  0  0  0  0  0  0
  -12.6302   -1.2990  -23.0268 C   0  0  0  0  0  0  0  0  0  0  0  0
  -11.7603   -1.7980  -22.7632 C   0  0  0  0  0  0  0  0  0  0  0  0
   -9.6584   -0.6372  -22.5813 C   0  0  0  0  0  0  0  0  0  0  0  0
   -9.0520    0.0038  -21.5803 C   0  0  0  0  0  0  0  0  0  0  0  0
   -9.5204    0.9870  -21.2305 O   0  0  0  0  0  0  0  0  0  0  0  0
   -7.9840   -0.6263  -21.1535 N   0  0  0  0  0  0  0  0  0  0  0  0
   -7.2647   -0.1455  -20.2463 C   0  0  0  0  0  0  0  0  0  0  0  0
   -7.3832   -0.0132  -18.9278 C   0  0  0  0  0  0  0  0  0  0  0  0
   -6.9695    0.3400  -17.8376 N   0  0  0  0  0  0  0  0  0  0  0  0
   -5.8452    0.9134  -18.2499 C   0  0  0  0  0  0  0  0  0  0  0  0
   -5.3863    0.9482  -19.4273 C   0  0  0  0  0  0  0  0  0  0  0  0
   -5.8611    0.4721  -20.5762 C   0  0  0  0  0  0  0  0  0  0  0  0
   -5.2567    0.5106  -21.9619 C   0  0  0  0  0  0  0  0  0  0  0  0
   -6.2624   -5.7191  -27.2233 H   0  0  0  0  0  0  0  0  0  0  0  0
   -5.6335   -4.3029  -26.3149 H   0  0  0  0  0  0  0  0  0  0  0  0
   -6.0771   -5.8070  -25.4388 H   0  0  0  0  0  0  0  0  0  0  0  0
   -7.1570   -3.1042  -24.7598 H   0  0  0  0  0  0  0  0  0  0  0  0
   -9.7030   -3.7045  -24.3978 H   0  0  0  0  0  0  0  0  0  0  0  0
   -8.6309   -1.9417  -22.7844 H   0  0  0  0  0  0  0  0  0  0  0  0
  -11.0797   -1.6683  -23.1324 H   0  0  0  0  0  0  0  0  0  0  0  0
  -10.1433    0.1914  -25.3863 H   0  0  0  0  0  0  0  0  0  0  0  0
  -12.0268    0.9454  -25.4532 H   0  0  0  0  0  0  0  0  0  0  0  0
  -13.7589   -0.5806  -24.5633 H   0  0  0  0  0  0  0  0  0  0  0  0
  -13.3044    0.6051  -23.2928 H   0  0  0  0  0  0  0  0  0  0  0  0
  -13.4962   -1.6832  -22.5083 H   0  0  0  0  0  0  0  0  0  0  0  0
  -11.7961   -2.6021  -22.0430 H   0  0  0  0  0  0  0  0  0  0  0  0
  -10.8185   -1.5138  -23.2087 H   0  0  0  0  0  0  0  0  0  0  0  0
   -9.1046   -1.5592  -22.3506 H   0  0  0  0  0  0  0  0  0  0  0  0
  -10.6107   -0.6340  -22.0306 H   0  0  0  0  0  0  0  0  0  0  0  0
   -7.7388   -1.5068  -21.5593 H   0  0  0  0  0  0  0  0  0  0  0  0
   -8.3500   -0.4428  -18.7107 H   0  0  0  0  0  0  0  0  0  0  0  0
   -5.2548    1.4068  -17.4921 H   0  0  0  0  0  0  0  0  0  0  0  0
   -4.4375    1.4562  -19.5174 H   0  0  0  0  0  0  0  0  0  0  0  0
   -4.6530   -0.3945  -22.1245 H   0  0  0  0  0  0  0  0  0  0  0  0
   -6.0607    0.5544  -22.7114 H   0  0  0  0  0  0  0  0  0  0  0  0
   -4.6168    1.4001  -22.0582 H   0  0  0  0  0  0  0  0  0  0  0  0
 20 21  2  0  0  0  0
 19 20  1  0  0  0  0
 21 22  1  0  0  0  0
 18 19  2  0  0  0  0
 22 23  2  0  0  0  0
 18 23  1  0  0  0  0
 17 18  1  0  0  0  0
 23 24  1  0  0  0  0
 15 16  2  0  0  0  0
 15 17  1  0  0  0  0
 14 15  1  0  0  0  0
  8 14  1  0  0  0  0
 12 13  2  0  0  0  0
 11 12  1  0  0  0  0
  7  8  1  0  0  0  0
  8  9  1  0  0  0  0
 10 11  1  0  0  0  0
  6  7  2  3  0  0  0
  5  6  1  0  0  0  0
  9 10  2  0  0  0  0
  2  5  1  0  0  0  0
  2  3  2  0  0  0  0
  1  2  1  0  0  0  0
  2  4  2  0  0  0  0
  1 25  1  0  0  0  0
  1 26  1  0  0  0  0
  1 27  1  0  0  0  0
  5 28  1  0  0  0  0
  6 29  1  0  0  0  0
  7 30  1  0  0  0  0
  8 31  1  0  0  0  0
  9 32  1  0  0  0  0
 10 33  1  0  0  0  0
 11 34  1  0  0  0  0
 11 35  1  0  0  0  0
 12 36  1  0  0  0  0
 13 37  1  0  0  0  0
 13 38  1  0  0  0  0
 14 39  1  0  0  0  0
 14 40  1  0  0  0  0
 17 41  1  0  0  0  0
 19 42  1  0  0  0  0
 21 43  1  0  0  0  0
 22 44  1  0  0  0  0
 24 45  1  0  0  0  0
 24 46  1  0  0  0  0
 24 47  1  0  0  0  0
M  END
> <Chemgauss4>
-13.240629

$$$$
