REMARK  2 active torsions:
REMARK  status: ('A' for Active; 'I' for Inactive)
REMARK    1  A    between atoms: C_5  and  C_8 
REMARK    2  A    between atoms: C_5  and  C_11 
ROOT
HETATM    1  C   UNL     1       7.918  -1.716  24.399  1.00  0.00     0.004 C 
HETATM    2  C   UNL     1       7.852   0.566  23.554  1.00  0.00     0.004 C 
HETATM    3  C   UNL     1       7.088  -0.778  23.654  1.00  0.00    -0.009 C 
ENDROOT
TORSDOF 2
