stable:False satoms:21 tatoms:24 sratio:0.875
  -OEChem-07092417333D

 24 23  0     1  0  0  0  0  0999 V2000
    7.9176   -1.7164   24.3986 C   0  5  0  0  0  0  0  0  0  0  0  0
    7.5137   -2.5950   24.8205 H   0  0  0  0  0  0  0  0  0  0  0  0
   11.9333   -2.9503   22.0473 H   0  0  0  0  0  0  0  0  0  0  0  0
    8.8733    0.4052   23.1872 H   0  0  0  0  0  0  0  0  0  0  0  0
    6.1322   -0.5735   24.1621 H   0  0  0  0  0  0  0  0  0  0  0  0
   10.6389   -3.2693   23.1360 H   0  0  0  0  0  0  0  0  0  0  0  0
    7.9628    0.9874   24.5370 H   0  0  0  0  0  0  0  0  0  0  0  0
   11.7498   -1.9425   23.4949 H   0  0  0  0  0  0  0  0  0  0  0  0
    7.8517    0.5660   23.5543 C   0  0  0  0  0  0  0  0  0  0  0  0
   11.2428   -2.4563   22.7080 C   0  0  0  0  0  0  0  0  0  0  0  0
    8.0440    0.2052   21.1855 N   0  0  0  0  0  0  0  0  0  0  0  0
    8.9763   -1.5250   24.4703 H   0  0  0  0  0  0  0  0  0  0  0  0
    9.2031   -2.0620   21.4762 C   0  0  0  0  0  0  0  0  0  0  0  0
    7.0881   -0.7781   23.6542 C   0  0  0  0  0  0  0  0  0  0  0  0
    8.7643   -2.6002   22.2950 H   0  0  0  0  0  0  0  0  0  0  0  0
   10.7652   -0.2551   21.7158 O   0  0  0  0  0  0  0  0  0  0  0  0
    6.7858   -1.2398   22.7109 H   0  0  0  0  0  0  0  0  0  0  0  0
    8.0930   -1.0816   20.8257 C   0  0  2  0  0  0  0  0  0  0  0  0
    7.0456    0.4633   20.9024 H   0  0  0  0  0  0  0  0  0  0  0  0
    7.2936   -1.8128   20.5180 H   0  0  0  0  0  0  0  0  0  0  0  0
    8.5827   -0.2006   19.9787 O   0  0  0  0  0  0  0  0  0  0  0  0
   10.4120   -1.3997   21.9199 C   0  0  0  0  0  0  0  0  0  0  0  0
    7.2613    1.2569   22.9523 H   0  0  0  0  0  0  0  0  0  0  0  0
    9.4530   -2.7158   20.6458 H   0  0  0  0  0  0  0  0  0  0  0  0
 18 21  1  0  0  0  0
 11 21  1  0  0  0  0
 18 20  1  0  0  0  0
 13 24  1  0  0  0  0
 11 18  1  0  0  0  0
 13 18  1  0  0  0  0
 11 19  1  0  0  0  0
 13 22  1  0  0  0  0
 13 15  1  0  0  0  0
 16 22  2  0  0  0  0
 10 22  1  0  0  0  0
  3 10  1  0  0  0  0
  6 10  1  0  0  0  0
  8 10  1  0  0  0  0
 14 17  1  0  0  0  0
  9 23  1  0  0  0  0
  4  9  1  0  0  0  0
  9 14  1  0  0  0  0
  7  9  1  0  0  0  0
  5 14  1  0  0  0  0
  1 14  1  0  0  0  0
  1 12  1  0  0  0  0
  1  2  1  0  0  0  0
M  CHG  1   1  -1
M  END
> <Shapegauss>
-77.955856

$$$$
