MODEL 1
REMARK VINA RESULT:    -4.366      0.000      0.000
REMARK INTER + INTRA:          -6.038
REMARK INTER:                  -5.643
REMARK INTRA:                  -0.395
REMARK UNBOUND:                -0.395
REMARK  5 active torsions:
REMARK  status: ('A' for Active; 'I' for Inactive)
REMARK    1  A    between atoms: O_4  and  C_6 
REMARK    2  A    between atoms: O_4  and  C_11 
REMARK    3  A    between atoms: C_6  and  C_14 
REMARK    4  A    between atoms: C_9  and  C_15 
REMARK    5  A    between atoms: C_11  and  C_13 
ROOT
HETATM    1  C   UNL     1       8.965  -2.920  23.652  1.00  0.00     0.027 C 
HETATM    2  C   UNL     1       7.649  -1.844  22.090  1.00  0.00     0.037 C 
HETATM    3  C   UNL     1       8.850  -1.279  22.128  1.00  0.00     0.046 C 
HETATM    4 CL   UNL     1       9.259   0.111  21.246  1.00  0.00    -0.083 Cl
HETATM    5  C   UNL     1       9.781  -1.999  22.970  1.00  0.00     0.008 C 
HETATM    6  C   UNL     1       7.744  -3.043  22.888  1.00  0.00    -0.023 C 
ENDROOT
BRANCH   5   7
HETATM    7  C   UNL     1      11.149  -1.735  22.831  1.00  0.00     0.148 C 
BRANCH   7   8
HETATM    8  O   UNL     1      12.010  -1.112  23.629  1.00  0.00    -0.357 OA
BRANCH   8   9
HETATM    9  C   UNL     1      11.428  -0.168  24.540  1.00  0.00     0.218 C 
BRANCH   9  10
HETATM   10  C   UNL     1      11.722   1.192  24.094  1.00  0.00     0.081 C 
HETATM   11  N   UNL     1      10.785   2.141  24.137  1.00  0.00    -0.404 N 
HETATM   12  C   UNL     1      11.073   3.421  23.517  1.00  0.00     0.145 C 
HETATM   13  H   UNL     1       9.824   1.828  24.162  1.00  0.00     0.158 HD
ENDBRANCH   9  10
ENDBRANCH   8   9
ENDBRANCH   7   8
ENDBRANCH   5   7
BRANCH   6  14
HETATM   14  C   UNL     1       7.064  -4.116  22.891  1.00  0.00     0.096 C 
HETATM   15 CL   UNL     1       7.375  -5.593  22.257  1.00  0.00    -0.096 Cl
ENDBRANCH   6  14
TORSDOF 5
ENDMDL
MODEL 2
REMARK VINA RESULT:    -4.345      3.014      6.550
REMARK INTER + INTRA:          -6.010
REMARK INTER:                  -5.794
REMARK INTRA:                  -0.216
REMARK UNBOUND:                -0.395
REMARK  5 active torsions:
REMARK  status: ('A' for Active; 'I' for Inactive)
REMARK    1  A    between atoms: O_4  and  C_6 
REMARK    2  A    between atoms: O_4  and  C_11 
REMARK    3  A    between atoms: C_6  and  C_14 
REMARK    4  A    between atoms: C_9  and  C_15 
REMARK    5  A    between atoms: C_11  and  C_13 
ROOT
HETATM    1  C   UNL     1      11.346   3.747  23.438  1.00  0.00     0.027 C 
HETATM    2  C   UNL     1       9.264   4.245  24.304  1.00  0.00     0.037 C 
HETATM    3  C   UNL     1       9.477   2.936  24.375  1.00  0.00     0.046 C 
HETATM    4 CL   UNL     1       8.306   1.825  24.899  1.00  0.00    -0.083 Cl
HETATM    5  C   UNL     1      10.823   2.566  23.996  1.00  0.00     0.008 C 
HETATM    6  C   UNL     1      10.523   4.835  23.917  1.00  0.00    -0.023 C 
ENDROOT
BRANCH   5   7
HETATM    7  C   UNL     1      11.292   1.296  24.353  1.00  0.00     0.148 C 
BRANCH   7   8
HETATM    8  O   UNL     1      12.514   0.774  24.345  1.00  0.00    -0.357 OA
BRANCH   8   9
HETATM    9  C   UNL     1      12.590  -0.600  23.938  1.00  0.00     0.218 C 
BRANCH   9  10
HETATM   10  C   UNL     1      11.241  -1.130  23.741  1.00  0.00     0.081 C 
HETATM   11  N   UNL     1      10.878  -1.649  22.566  1.00  0.00    -0.404 N 
HETATM   12  C   UNL     1       9.483  -1.992  22.368  1.00  0.00     0.145 C 
HETATM   13  H   UNL     1      11.421  -1.369  21.760  1.00  0.00     0.158 HD
ENDBRANCH   9  10
ENDBRANCH   8   9
ENDBRANCH   7   8
ENDBRANCH   5   7
BRANCH   6  14
HETATM   14  C   UNL     1      10.993   6.005  24.066  1.00  0.00     0.096 C 
HETATM   15 CL   UNL     1      12.200   6.573  25.015  1.00  0.00    -0.096 Cl
ENDBRANCH   6  14
TORSDOF 5
ENDMDL
MODEL 3
REMARK VINA RESULT:    -4.222      3.179      6.147
REMARK INTER + INTRA:          -5.852
REMARK INTER:                  -5.552
REMARK INTRA:                  -0.299
REMARK UNBOUND:                -0.395
REMARK  5 active torsions:
REMARK  status: ('A' for Active; 'I' for Inactive)
REMARK    1  A    between atoms: O_4  and  C_6 
REMARK    2  A    between atoms: O_4  and  C_11 
REMARK    3  A    between atoms: C_6  and  C_14 
REMARK    4  A    between atoms: C_9  and  C_15 
REMARK    5  A    between atoms: C_11  and  C_13 
ROOT
HETATM    1  C   UNL     1       9.726   1.105  23.533  1.00  0.00     0.027 C 
HETATM    2  C   UNL     1      11.978   0.924  24.011  1.00  0.00     0.037 C 
HETATM    3  C   UNL     1      11.555  -0.189  23.421  1.00  0.00     0.046 C 
HETATM    4 CL   UNL     1      12.528  -1.562  23.206  1.00  0.00    -0.083 Cl
HETATM    5  C   UNL     1      10.190  -0.088  22.950  1.00  0.00     0.008 C 
HETATM    6  C   UNL     1      10.895   1.872  23.903  1.00  0.00    -0.023 C 
ENDROOT
BRANCH   5   7
HETATM    7  C   UNL     1       9.736  -1.028  22.017  1.00  0.00     0.148 C 
BRANCH   7   8
HETATM    8  O   UNL     1       9.305  -2.276  22.163  1.00  0.00    -0.357 OA
BRANCH   8   9
HETATM    9  C   UNL     1       8.697  -2.569  23.430  1.00  0.00     0.218 C 
BRANCH   9  10
HETATM   10  C   UNL     1       7.622  -3.543  23.245  1.00  0.00     0.081 C 
HETATM   11  N   UNL     1       7.837  -4.676  22.572  1.00  0.00    -0.404 N 
HETATM   12  C   UNL     1       6.697  -5.519  22.264  1.00  0.00     0.145 C 
HETATM   13  H   UNL     1       8.622  -4.682  21.937  1.00  0.00     0.158 HD
ENDBRANCH   9  10
ENDBRANCH   8   9
ENDBRANCH   7   8
ENDBRANCH   5   7
BRANCH   6  14
HETATM   14  C   UNL     1      10.872   3.141  23.936  1.00  0.00     0.096 C 
HETATM   15 CL   UNL     1      12.051   4.250  23.692  1.00  0.00    -0.096 Cl
ENDBRANCH   6  14
TORSDOF 5
ENDMDL
MODEL 4
REMARK VINA RESULT:    -4.176      3.848      5.955
REMARK INTER + INTRA:          -5.792
REMARK INTER:                  -5.492
REMARK INTRA:                  -0.300
REMARK UNBOUND:                -0.395
REMARK  5 active torsions:
REMARK  status: ('A' for Active; 'I' for Inactive)
REMARK    1  A    between atoms: O_4  and  C_6 
REMARK    2  A    between atoms: O_4  and  C_11 
REMARK    3  A    between atoms: C_6  and  C_14 
REMARK    4  A    between atoms: C_9  and  C_15 
REMARK    5  A    between atoms: C_11  and  C_13 
ROOT
HETATM    1  C   UNL     1      10.315  -1.197  23.262  1.00  0.00     0.027 C 
HETATM    2  C   UNL     1      10.563   0.075  25.173  1.00  0.00     0.037 C 
HETATM    3  C   UNL     1       9.390  -0.548  25.199  1.00  0.00     0.046 C 
HETATM    4 CL   UNL     1       8.226  -0.300  26.408  1.00  0.00    -0.083 Cl
HETATM    5  C   UNL     1       9.231  -1.487  24.110  1.00  0.00     0.008 C 
HETATM    6  C   UNL     1      11.289  -0.484  24.058  1.00  0.00    -0.023 C 
ENDROOT
BRANCH   5   7
HETATM    7  C   UNL     1       8.221  -2.452  24.204  1.00  0.00     0.148 C 
BRANCH   7   8
HETATM    8  O   UNL     1       8.078  -3.501  25.007  1.00  0.00    -0.357 OA
BRANCH   8   9
HETATM    9  C   UNL     1       8.207  -4.781  24.370  1.00  0.00     0.218 C 
BRANCH   9  10
HETATM   10  C   UNL     1       7.525  -4.757  23.077  1.00  0.00     0.081 C 
HETATM   11  N   UNL     1       6.692  -5.740  22.728  1.00  0.00    -0.404 N 
HETATM   12  C   UNL     1       6.185  -5.760  21.369  1.00  0.00     0.145 C 
HETATM   13  H   UNL     1       6.804  -6.621  23.209  1.00  0.00     0.158 HD
ENDBRANCH   9  10
ENDBRANCH   8   9
ENDBRANCH   7   8
ENDBRANCH   5   7
BRANCH   6  14
HETATM   14  C   UNL     1      12.531  -0.551  23.802  1.00  0.00     0.096 C 
HETATM   15 CL   UNL     1      13.450  -1.773  23.217  1.00  0.00    -0.096 Cl
ENDBRANCH   6  14
TORSDOF 5
ENDMDL
MODEL 5
REMARK VINA RESULT:    -4.164      3.132      4.316
REMARK INTER + INTRA:          -5.776
REMARK INTER:                  -5.427
REMARK INTRA:                  -0.349
REMARK UNBOUND:                -0.395
REMARK  5 active torsions:
REMARK  status: ('A' for Active; 'I' for Inactive)
REMARK    1  A    between atoms: O_4  and  C_6 
REMARK    2  A    between atoms: O_4  and  C_11 
REMARK    3  A    between atoms: C_6  and  C_14 
REMARK    4  A    between atoms: C_9  and  C_15 
REMARK    5  A    between atoms: C_11  and  C_13 
ROOT
HETATM    1  C   UNL     1       9.430  -1.589  22.187  1.00  0.00     0.027 C 
HETATM    2  C   UNL     1      10.080  -1.421  24.396  1.00  0.00     0.037 C 
HETATM    3  C   UNL     1      10.323  -0.275  23.769  1.00  0.00     0.046 C 
HETATM    4 CL   UNL     1      11.124   1.035  24.492  1.00  0.00    -0.083 Cl
HETATM    5  C   UNL     1       9.798  -0.252  22.422  1.00  0.00     0.008 C 
HETATM    6  C   UNL     1       9.302  -2.221  23.481  1.00  0.00    -0.023 C 
ENDROOT
BRANCH   5   7
HETATM    7  C   UNL     1       9.666   0.985  21.778  1.00  0.00     0.148 C 
BRANCH   7   8
HETATM    8  O   UNL     1       8.761   1.437  20.917  1.00  0.00    -0.357 OA
BRANCH   8   9
HETATM    9  C   UNL     1       7.409   1.448  21.399  1.00  0.00     0.218 C 
BRANCH   9  10
HETATM   10  C   UNL     1       6.511   0.955  20.356  1.00  0.00     0.081 C 
HETATM   11  N   UNL     1       6.913   0.013  19.501  1.00  0.00    -0.404 N 
HETATM   12  C   UNL     1       6.052  -0.309  18.378  1.00  0.00     0.145 C 
HETATM   13  H   UNL     1       7.911  -0.098  19.385  1.00  0.00     0.158 HD
ENDBRANCH   9  10
ENDBRANCH   8   9
ENDBRANCH   7   8
ENDBRANCH   5   7
BRANCH   6  14
HETATM   14  C   UNL     1       8.502  -3.189  23.669  1.00  0.00     0.096 C 
HETATM   15 CL   UNL     1       7.530  -4.005  22.635  1.00  0.00    -0.096 Cl
ENDBRANCH   6  14
TORSDOF 5
ENDMDL
MODEL 6
REMARK VINA RESULT:    -4.122     25.190     26.949
REMARK INTER + INTRA:          -5.722
REMARK INTER:                  -5.473
REMARK INTRA:                  -0.249
REMARK UNBOUND:                -0.395
REMARK  5 active torsions:
REMARK  status: ('A' for Active; 'I' for Inactive)
REMARK    1  A    between atoms: O_4  and  C_6 
REMARK    2  A    between atoms: O_4  and  C_11 
REMARK    3  A    between atoms: C_6  and  C_14 
REMARK    4  A    between atoms: C_9  and  C_15 
REMARK    5  A    between atoms: C_11  and  C_13 
ROOT
HETATM    1  C   UNL     1       7.523  13.898   1.534  1.00  0.00     0.027 C 
HETATM    2  C   UNL     1       8.465  13.021   3.451  1.00  0.00     0.037 C 
HETATM    3  C   UNL     1       9.033  14.187   3.167  1.00  0.00     0.046 C 
HETATM    4 CL   UNL     1      10.347  14.823   4.031  1.00  0.00    -0.083 Cl
HETATM    5  C   UNL     1       8.387  14.872   2.068  1.00  0.00     0.008 C 
HETATM    6  C   UNL     1       7.336  12.897   2.560  1.00  0.00    -0.023 C 
ENDROOT
BRANCH   5   7
HETATM    7  C   UNL     1       8.642  16.237   1.890  1.00  0.00     0.148 C 
BRANCH   7   8
HETATM    8  O   UNL     1       9.635  16.875   1.280  1.00  0.00    -0.357 OA
BRANCH   8   9
HETATM    9  C   UNL     1       9.233  17.949   0.416  1.00  0.00     0.218 C 
BRANCH   9  10
HETATM   10  C   UNL     1       9.765  19.213   0.924  1.00  0.00     0.081 C 
HETATM   11  N   UNL     1      10.704  19.224   1.872  1.00  0.00    -0.404 N 
HETATM   12  C   UNL     1      11.066  20.498   2.466  1.00  0.00     0.145 C 
HETATM   13  H   UNL     1      10.784  18.392   2.440  1.00  0.00     0.158 HD
ENDBRANCH   9  10
ENDBRANCH   8   9
ENDBRANCH   7   8
ENDBRANCH   5   7
BRANCH   6  14
HETATM   14  C   UNL     1       6.265  12.219   2.637  1.00  0.00     0.096 C 
HETATM   15 CL   UNL     1       4.789  12.448   1.965  1.00  0.00    -0.096 Cl
ENDBRANCH   6  14
TORSDOF 5
ENDMDL
MODEL 7
REMARK VINA RESULT:    -4.115      3.697      5.591
REMARK INTER + INTRA:          -5.714
REMARK INTER:                  -5.395
REMARK INTRA:                  -0.318
REMARK UNBOUND:                -0.395
REMARK  5 active torsions:
REMARK  status: ('A' for Active; 'I' for Inactive)
REMARK    1  A    between atoms: O_4  and  C_6 
REMARK    2  A    between atoms: O_4  and  C_11 
REMARK    3  A    between atoms: C_6  and  C_14 
REMARK    4  A    between atoms: C_9  and  C_15 
REMARK    5  A    between atoms: C_11  and  C_13 
ROOT
HETATM    1  C   UNL     1      10.798  -0.812  24.286  1.00  0.00     0.027 C 
HETATM    2  C   UNL     1      11.535   1.356  23.990  1.00  0.00     0.037 C 
HETATM    3  C   UNL     1      10.309   1.366  24.501  1.00  0.00     0.046 C 
HETATM    4 CL   UNL     1       9.408   2.783  24.746  1.00  0.00    -0.083 Cl
HETATM    5  C   UNL     1       9.842   0.044  24.861  1.00  0.00     0.008 C 
HETATM    6  C   UNL     1      11.980  -0.016  24.043  1.00  0.00    -0.023 C 
ENDROOT
BRANCH   5   7
HETATM    7  C   UNL     1       8.740  -0.064  25.718  1.00  0.00     0.148 C 
BRANCH   7   8
HETATM    8  O   UNL     1       7.472  -0.388  25.486  1.00  0.00    -0.357 OA
BRANCH   8   9
HETATM    9  C   UNL     1       7.046  -1.634  26.057  1.00  0.00     0.218 C 
BRANCH   9  10
HETATM   10  C   UNL     1       7.298  -2.720  25.112  1.00  0.00     0.081 C 
HETATM   11  N   UNL     1       7.903  -3.842  25.509  1.00  0.00    -0.404 N 
HETATM   12  C   UNL     1       8.290  -4.809  24.499  1.00  0.00     0.145 C 
HETATM   13  H   UNL     1       8.456  -3.784  26.352  1.00  0.00     0.158 HD
ENDBRANCH   9  10
ENDBRANCH   8   9
ENDBRANCH   7   8
ENDBRANCH   5   7
BRANCH   6  14
HETATM   14  C   UNL     1      13.141  -0.531  24.055  1.00  0.00     0.096 C 
HETATM   15 CL   UNL     1      13.740  -1.863  23.314  1.00  0.00    -0.096 Cl
ENDBRANCH   6  14
TORSDOF 5
ENDMDL
MODEL 8
REMARK VINA RESULT:    -4.026      3.037      5.235
REMARK INTER + INTRA:          -5.598
REMARK INTER:                  -5.291
REMARK INTRA:                  -0.307
REMARK UNBOUND:                -0.395
REMARK  5 active torsions:
REMARK  status: ('A' for Active; 'I' for Inactive)
REMARK    1  A    between atoms: O_4  and  C_6 
REMARK    2  A    between atoms: O_4  and  C_11 
REMARK    3  A    between atoms: C_6  and  C_14 
REMARK    4  A    between atoms: C_9  and  C_15 
REMARK    5  A    between atoms: C_11  and  C_13 
ROOT
HETATM    1  C   UNL     1       9.812   0.545  24.951  1.00  0.00     0.027 C 
HETATM    2  C   UNL     1      11.850   0.941  23.941  1.00  0.00     0.037 C 
HETATM    3  C   UNL     1      11.572  -0.357  23.893  1.00  0.00     0.046 C 
HETATM    4 CL   UNL     1      12.650  -1.524  23.297  1.00  0.00    -0.083 Cl
HETATM    5  C   UNL     1      10.239  -0.661  24.366  1.00  0.00     0.008 C 
HETATM    6  C   UNL     1      10.651   1.591  24.410  1.00  0.00    -0.023 C 
ENDROOT
BRANCH   5   7
HETATM    7  C   UNL     1       9.687  -1.909  24.050  1.00  0.00     0.148 C 
BRANCH   7   8
HETATM    8  O   UNL     1       8.737  -2.259  23.189  1.00  0.00    -0.357 OA
BRANCH   8   9
HETATM    9  C   UNL     1       8.939  -1.811  21.840  1.00  0.00     0.218 C 
BRANCH   9  10
HETATM   10  C   UNL     1       7.879  -0.876  21.469  1.00  0.00     0.081 C 
HETATM   11  N   UNL     1       7.893  -0.265  20.283  1.00  0.00    -0.404 N 
HETATM   12  C   UNL     1       6.922   0.784  20.038  1.00  0.00     0.145 C 
HETATM   13  H   UNL     1       8.787  -0.207  19.814  1.00  0.00     0.158 HD
ENDBRANCH   9  10
ENDBRANCH   8   9
ENDBRANCH   7   8
ENDBRANCH   5   7
BRANCH   6  14
HETATM   14  C   UNL     1      10.228   2.782  24.287  1.00  0.00     0.096 C 
HETATM   15 CL   UNL     1       8.865   3.507  24.832  1.00  0.00    -0.096 Cl
ENDBRANCH   6  14
TORSDOF 5
ENDMDL
MODEL 9
REMARK VINA RESULT:    -4.014      3.245      5.391
REMARK INTER + INTRA:          -5.583
REMARK INTER:                  -5.251
REMARK INTRA:                  -0.331
REMARK UNBOUND:                -0.395
REMARK  5 active torsions:
REMARK  status: ('A' for Active; 'I' for Inactive)
REMARK    1  A    between atoms: O_4  and  C_6 
REMARK    2  A    between atoms: O_4  and  C_11 
REMARK    3  A    between atoms: C_6  and  C_14 
REMARK    4  A    between atoms: C_9  and  C_15 
REMARK    5  A    between atoms: C_11  and  C_13 
ROOT
HETATM    1  C   UNL     1      10.100  -2.123  22.994  1.00  0.00     0.027 C 
HETATM    2  C   UNL     1      10.373  -0.136  21.851  1.00  0.00     0.037 C 
HETATM    3  C   UNL     1       9.192  -0.665  21.553  1.00  0.00     0.046 C 
HETATM    4 CL   UNL     1       8.141  -0.012  20.391  1.00  0.00    -0.083 Cl
HETATM    5  C   UNL     1       8.883  -1.831  22.351  1.00  0.00     0.008 C 
HETATM    6  C   UNL     1      10.899  -0.920  22.943  1.00  0.00    -0.023 C 
ENDROOT
BRANCH   5   7
HETATM    7  C   UNL     1       7.556  -2.274  22.400  1.00  0.00     0.148 C 
BRANCH   7   8
HETATM    8  O   UNL     1       6.947  -3.144  23.198  1.00  0.00    -0.357 OA
BRANCH   8   9
HETATM    9  C   UNL     1       7.333  -4.515  23.017  1.00  0.00     0.218 C 
BRANCH   9  10
HETATM   10  C   UNL     1       7.978  -5.009  24.232  1.00  0.00     0.081 C 
HETATM   11  N   UNL     1       7.689  -4.476  25.421  1.00  0.00    -0.404 N 
HETATM   12  C   UNL     1       8.486  -4.877  26.566  1.00  0.00     0.145 C 
HETATM   13  H   UNL     1       7.294  -3.546  25.417  1.00  0.00     0.158 HD
ENDBRANCH   9  10
ENDBRANCH   8   9
ENDBRANCH   7   8
ENDBRANCH   5   7
BRANCH   6  14
HETATM   14  C   UNL     1      11.758  -0.655  23.840  1.00  0.00     0.096 C 
HETATM   15 CL   UNL     1      11.997   0.689  24.745  1.00  0.00    -0.096 Cl
ENDBRANCH   6  14
TORSDOF 5
ENDMDL
