REMARK  5 active torsions:
REMARK  status: ('A' for Active; 'I' for Inactive)
REMARK    1  A    between atoms: O_4  and  C_6 
REMARK    2  A    between atoms: O_4  and  C_11 
REMARK    3  A    between atoms: C_6  and  C_14 
REMARK    4  A    between atoms: C_9  and  C_15 
REMARK    5  A    between atoms: C_11  and  C_13 
ROOT
HETATM    1  C   UNL     1       7.822   0.216  23.359  1.00  0.00     0.027 C 
HETATM    2  C   UNL     1       9.254  -0.052  25.150  1.00  0.00     0.037 C 
HETATM    3  C   UNL     1       9.893  -0.334  24.020  1.00  0.00     0.046 C 
HETATM    4 CL   UNL     1      11.479  -0.935  23.967  1.00  0.00    -0.083 Cl
HETATM    5  C   UNL     1       9.106  -0.037  22.843  1.00  0.00     0.008 C 
HETATM    6  C   UNL     1       7.988   0.522  24.762  1.00  0.00    -0.023 C 
ENDROOT
BRANCH   5   7
HETATM    7  C   UNL     1       9.760   0.052  21.608  1.00  0.00     0.148 C 
BRANCH   7   8
HETATM    8  O   UNL     1       9.416  -0.373  20.397  1.00  0.00    -0.357 OA
BRANCH   8   9
HETATM    9  C   UNL     1       8.139  -1.024  20.317  1.00  0.00     0.218 C 
BRANCH   9  10
HETATM   10  C   UNL     1       8.124  -2.187  21.203  1.00  0.00     0.081 C 
HETATM   11  N   UNL     1       9.233  -2.900  21.410  1.00  0.00    -0.404 N 
HETATM   12  C   UNL     1       9.123  -4.143  22.150  1.00  0.00     0.145 C 
HETATM   13  H   UNL     1       9.958  -2.823  20.710  1.00  0.00     0.158 HD
ENDBRANCH   9  10
ENDBRANCH   8   9
ENDBRANCH   7   8
ENDBRANCH   5   7
BRANCH   6  14
HETATM   14  C   UNL     1       7.182   1.290  25.373  1.00  0.00     0.096 C 
HETATM   15 CL   UNL     1       6.084   2.369  24.815  1.00  0.00    -0.096 Cl
ENDBRANCH   6  14
TORSDOF 5
