stable:False satoms:19 tatoms:24 sratio:0.7916666666666666
  -OEChem-07092417273D

 24 24  0     0  0  0  0  0  0999 V2000
    7.8220    0.2164   23.3591 C   0  0  0  0  0  0  0  0  0  0  0  0
    9.2536   -0.0523   25.1503 C   0  0  0  0  0  0  0  0  0  0  0  0
   10.7287    0.5421   21.5789 H   0  0  0  0  0  0  0  0  0  0  0  0
    8.5007   -3.9897   23.0349 H   0  0  0  0  0  0  0  0  0  0  0  0
    9.1235   -4.1427   22.1503 C   0  0  0  0  0  0  0  0  0  0  0  0
    9.4158   -0.3730   20.3973 O   0  0  0  0  0  0  0  0  0  0  0  0
    6.8819    0.1660   22.8505 H   0  0  0  0  0  0  0  0  0  0  0  0
    9.9583   -2.8226   20.7099 H   0  0  0  0  0  0  0  0  0  0  0  0
    8.1385   -1.0243   20.3175 C   0  0  0  0  0  0  0  0  0  0  0  0
    9.8934   -0.3339   24.0197 C   0  0  0  0  0  0  0  0  0  0  0  0
    6.0839    2.3690   24.8152 Cl  0  0  0  0  0  0  0  0  0  0  0  0
   10.0941   -4.4915   22.4726 H   0  0  0  0  0  0  0  0  0  0  0  0
    7.1818    1.2900   25.3734 C   0  0  0  0  0  0  0  0  0  0  0  0
    7.3557   -0.2948   20.6061 H   0  0  0  0  0  0  0  0  0  0  0  0
    9.5850   -0.1897   26.1507 H   0  0  0  0  0  0  0  0  0  0  0  0
    7.9767   -1.3077   19.2758 H   0  0  0  0  0  0  0  0  0  0  0  0
   11.4790   -0.9352   23.9669 Cl  0  0  0  0  0  0  0  0  0  0  0  0
    9.7601    0.0523   21.6079 C   0  3  0  0  0  0  0  0  0  0  0  0
    7.2321   -2.4641   21.7243 H   0  0  0  0  0  0  0  0  0  0  0  0
    9.2335   -2.9001   21.4095 N   0  0  0  0  0  0  0  0  0  0  0  0
    9.1064   -0.0373   22.8429 C   0  0  0  0  0  0  0  0  0  0  0  0
    8.1245   -2.1874   21.2033 C   0  3  0  0  0  0  0  0  0  0  0  0
    8.6668   -4.9013   21.5177 H   0  0  0  0  0  0  0  0  0  0  0  0
    7.9880    0.5217   24.7620 C   0  0  0  0  0  0  0  0  0  0  0  0
  9 16  1  0  0  0  0
  6  9  1  0  0  0  0
  9 14  1  0  0  0  0
  9 22  1  0  0  0  0
  6 18  1  0  0  0  0
  8 20  1  0  0  0  0
 20 22  1  0  0  0  0
 19 22  1  0  0  0  0
  5 20  1  0  0  0  0
  5 23  1  0  0  0  0
  3 18  1  0  0  0  0
 18 21  1  0  0  0  0
  5 12  1  0  0  0  0
  4  5  1  0  0  0  0
  1 21  2  0  0  0  0
 10 21  1  0  0  0  0
  1  7  1  0  0  0  0
  1 24  1  0  0  0  0
 10 17  1  0  0  0  0
  2 10  2  0  0  0  0
  2 24  1  0  0  0  0
 13 24  2  0  0  0  0
 11 13  1  0  0  0  0
  2 15  1  0  0  0  0
M  CHG  2  18   1  22   1
M  END
> <Shapegauss>
-99.029984

$$$$
