stable:False satoms:21 tatoms:24 sratio:0.875
  -OEChem-07092417343D

 24 23  0     1  0  0  0  0  0999 V2000
    7.4595   -3.5004   26.0201 N   0  0  0  0  0  0  0  0  0  0  0  0
    7.4157   -2.6402   26.4714 H   0  0  0  0  0  0  0  0  0  0  0  0
    9.2571   -4.7756   24.9519 S   0  0  0  0  0  0  0  0  0  0  0  0
    7.3431   -4.2817   26.5738 H   0  0  0  0  0  0  0  0  0  0  0  0
    8.6894   -2.2581   22.4542 H   0  0  0  0  0  0  0  0  0  0  0  0
   10.6417   -2.2849   23.4087 C   0  0  0  0  0  0  0  0  0  0  0  0
    8.1806   -3.4435   24.8335 C   0  0  0  0  0  0  0  0  0  0  0  0
    9.8991   -0.3338   22.7218 C   0  0  0  0  0  0  0  0  0  0  0  0
   11.0322   -0.0474   23.5203 C   0  0  0  0  0  0  0  0  0  0  0  0
   11.3489    0.9409   23.8198 H   0  0  0  0  0  0  0  0  0  0  0  0
   11.6259   -1.2031   23.7419 C   0  0  0  0  0  0  0  0  0  0  0  0
   12.6180   -1.4058   24.1016 H   0  0  0  0  0  0  0  0  0  0  0  0
   10.9138   -3.3022   23.4668 H   0  0  0  0  0  0  0  0  0  0  0  0
    9.5904   -1.7162   22.8215 C   0  5  3  0  0  0  0  0  0  0  0  0
    9.0653   -0.4614   19.8427 O   0  0  0  0  0  0  0  0  0  0  0  0
    9.3587    0.6104   21.9826 O   0  0  0  0  0  0  0  0  0  0  0  0
    7.8171   -2.6500   23.9760 O   0  0  0  0  0  0  0  0  0  0  0  0
    6.9744    0.7335   19.5242 C   0  0  3  0  0  0  0  0  0  0  0  0
    8.1242    0.1669   20.1996 C   0  0  0  0  0  0  0  0  0  0  0  0
    6.1083    0.2156   17.2637 N   0  0  0  0  0  0  0  0  0  0  0  0
    6.4733    0.4532   18.2790 C   0  0  0  0  0  0  0  0  0  0  0  0
    5.4134    1.7899   19.6952 H   0  0  0  0  0  0  0  0  0  0  0  0
    6.2539    1.6110   20.1275 O   0  0  0  0  0  0  0  0  0  0  0  0
    7.9801    0.4927   21.4989 O   0  0  0  0  0  0  0  0  0  0  0  0
 20 21  3  0  0  0  0
 18 21  1  0  0  0  0
 18 23  1  0  0  0  0
 18 19  1  0  0  0  0
 22 23  1  0  0  0  0
 15 19  2  0  0  0  0
 19 24  1  0  0  0  0
 16 24  1  0  0  0  0
  8 16  1  0  0  0  0
  5 14  1  0  0  0  0
  8 14  1  0  0  0  0
  8  9  2  0  0  0  0
  6 14  1  0  0  0  0
  6 13  1  0  0  0  0
  6 11  2  0  0  0  0
  9 11  1  0  0  0  0
  9 10  1  0  0  0  0
 11 12  1  0  0  0  0
  7 17  2  0  0  0  0
  3  7  1  0  0  0  0
  1  7  1  0  0  0  0
  1  2  1  0  0  0  0
  1  4  1  0  0  0  0
M  CHG  1  14  -1
M  END
> <Shapegauss>
-187.913162

$$$$
