REMARK  5 active torsions:
REMARK  status: ('A' for Active; 'I' for Inactive)
REMARK       I    between atoms: N_1  and  C_5 
REMARK    1  A    between atoms: C_8  and  O_13 
REMARK    2  A    between atoms: O_13  and  O_20 
REMARK    3  A    between atoms: C_14  and  O_19 
REMARK    4  A    between atoms: C_14  and  C_15 
REMARK    5  A    between atoms: C_15  and  O_20 
ROOT
HETATM    1  C   UNL     2       6.974   0.734  19.524  1.00  0.00     0.226 C 
HETATM    2  N   UNL     2       6.108   0.216  17.264  1.00  0.00    -0.189 NA
HETATM    3  C   UNL     2       6.473   0.453  18.279  1.00  0.00     0.131 C 
ENDROOT
BRANCH   1   4
HETATM    4  O   UNL     2       6.254   1.611  20.128  1.00  0.00    -0.347 OA
HETATM    5  H   UNL     2       5.413   1.790  19.695  1.00  0.00     0.218 HD
ENDBRANCH   1   4
BRANCH   1   6
HETATM    6  C   UNL     2       8.124   0.167  20.200  1.00  0.00     0.356 C 
HETATM    7  O   UNL     2       9.065  -0.461  19.843  1.00  0.00    -0.254 OA
BRANCH   6   8
HETATM    8  O   UNL     2       7.980   0.493  21.499  1.00  0.00    -0.145 OA
BRANCH   8   9
HETATM    9  O   UNL     2       9.359   0.610  21.983  1.00  0.00    -0.189 OA
BRANCH   9  10
HETATM   10  C   UNL     2       9.899  -0.334  22.722  1.00  0.00     0.107 C 
HETATM   11  C   UNL     2       9.590  -1.716  22.822  1.00  0.00     0.040 C 
HETATM   12  C   UNL     2      10.642  -2.285  23.409  1.00  0.00     0.003 C 
HETATM   13  C   UNL     2      11.626  -1.203  23.742  1.00  0.00     0.003 C 
HETATM   14  C   UNL     2      11.032  -0.047  23.520  1.00  0.00     0.040 C 
ENDBRANCH   9  10
ENDBRANCH   8   9
ENDBRANCH   6   8
ENDBRANCH   1   6
TORSDOF 5
