stable:False satoms:6 tatoms:24 sratio:0.25
  -OEChem-07092417443D

 24 24  0     1  0  0  0  0  0999 V2000
    6.5473   -4.8722   26.4864 C   0  0  0  0  0  0  0  0  0  0  0  0
    8.2438   -4.3095   26.0955 S   0  0  0  0  0  0  0  0  0  0  0  0
    9.0673   -5.4839   25.9885 O   0  0  0  0  0  0  0  0  0  0  0  0
    8.6368   -3.4471   27.1546 O   0  0  0  0  0  0  0  0  0  0  0  0
    8.0885   -3.5670   24.6720 N   0  0  0  0  0  0  0  0  0  0  0  0
    8.9312   -2.9046   24.1425 C   0  0  0  0  0  0  0  0  0  0  0  0
    9.4312   -1.9962   23.5442 C   0  0  0  0  0  0  0  0  0  0  0  0
   10.2870   -1.2071   23.1886 C   0  0  1  0  0  0  0  0  0  0  0  0
   11.0500    0.0148   24.3040 C   0  0  0  0  0  0  0  0  0  0  0  0
   12.1039    0.2578   24.2226 C   0  0  0  0  0  0  0  0  0  0  0  0
   13.0908   -0.1277   23.5851 C   0  0  0  0  0  0  0  0  0  0  0  0
   12.7296   -1.3200   22.6457 C   0  0  0  0  0  0  0  0  0  0  0  0
   11.8501   -1.7533   22.5215 C   0  0  0  0  0  0  0  0  0  0  0  0
    9.7192   -0.5883   22.3193 C   0  0  0  0  0  0  0  0  0  0  0  0
    9.0847    0.0691   21.3819 C   0  0  0  0  0  0  0  0  0  0  0  0
    9.5883    1.0179   21.0272 O   0  0  0  0  0  0  0  0  0  0  0  0
    7.9365   -0.5536   21.0516 N   0  0  0  0  0  0  0  0  0  0  0  0
    7.2291   -0.0599   20.1736 C   0  0  0  0  0  0  0  0  0  0  0  0
    7.2491    0.0559   18.8919 C   0  0  0  0  0  0  0  0  0  0  0  0
    6.7480    0.3506   17.7568 N   0  0  0  0  0  0  0  0  0  0  0  0
    5.6587    0.8402   18.2757 C   0  0  0  0  0  0  0  0  0  0  0  0
    5.2134    0.9674   19.3892 C   0  0  0  0  0  0  0  0  0  0  0  0
    5.8003    0.5926   20.5484 C   0  0  0  0  0  0  0  0  0  0  0  0
    5.2993    0.7341   21.9300 C   0  0  0  0  0  0  0  0  0  0  0  0
 20 21  2  0  0  0  0
 19 20  1  0  0  0  0
 21 22  1  0  0  0  0
 18 19  2  0  0  0  0
 22 23  2  0  0  0  0
 18 23  1  0  0  0  0
 17 18  1  0  0  0  0
 23 24  1  0  0  0  0
 15 16  2  0  0  0  0
 15 17  1  0  0  0  0
 14 15  1  0  0  0  0
  8 14  1  0  0  0  0
 12 13  2  0  0  0  0
  8 13  1  0  0  0  0
 11 12  1  0  0  0  0
  7  8  1  0  0  0  0
  6  7  3  0  0  0  0
 10 11  1  0  0  0  0
  5  6  1  0  0  0  0
  9 10  2  0  0  0  0
  2  5  1  0  0  0  0
  2  3  2  0  0  0  0
  1  2  1  0  0  0  0
  2  4  2  0  0  0  0
M  END
> <Shapegauss>
-287.034363

$$$$
