stable:False satoms:6 tatoms:24 sratio:0.25
  -OEChem-08062415103D

 45 45  0     1  0  0  0  0  0999 V2000
   -6.2902   -5.1607  -26.3064 C   0  0  0  0  0  0  0  0  0  0  0  0
   -7.9972   -4.5518  -26.0555 S   0  0  0  0  0  0  0  0  0  0  0  0
   -8.8497   -5.7058  -25.9539 O   0  0  0  0  0  0  0  0  0  0  0  0
   -8.3010   -3.7305  -27.1749 O   0  0  0  0  0  0  0  0  0  0  0  0
   -7.9221   -3.7497  -24.6581 N   0  0  0  0  0  0  0  0  0  0  0  0
   -8.7846   -3.0499  -24.2157 C   0  0  0  0  0  0  0  0  0  0  0  0
   -9.3048   -2.1073  -23.6922 C   0  0  0  0  0  0  0  0  0  0  0  0
  -10.1662   -1.2885  -23.4295 C   0  0  1  0  0  0  0  0  0  0  0  0
  -10.8280   -0.1041  -24.6455 C   0  0  0  0  0  0  0  0  0  0  0  0
  -11.8799    0.1605  -24.6459 C   0  0  0  0  0  0  0  0  0  0  0  0
  -12.9147   -0.1791  -24.0605 C   0  0  0  0  0  0  0  0  0  0  0  0
  -12.6413   -1.3347  -23.0484 C   0  0  0  0  0  0  0  0  0  0  0  0
  -11.7811   -1.7773  -22.8466 C   0  0  0  0  0  0  0  0  0  0  0  0
   -9.6451   -0.6417  -22.5513 C   0  0  0  0  0  0  0  0  0  0  0  0
   -9.0613    0.0454  -21.6024 C   0  0  0  0  0  0  0  0  0  0  0  0
   -9.5680    1.0177  -21.3237 O   0  0  0  0  0  0  0  0  0  0  0  0
   -7.9506   -0.5819  -21.1688 N   0  0  0  0  0  0  0  0  0  0  0  0
   -7.2934   -0.0621  -20.2671 C   0  0  0  0  0  0  0  0  0  0  0  0
   -7.3965    0.1107  -18.9959 C   0  0  0  0  0  0  0  0  0  0  0  0
   -6.9664    0.4467  -17.8433 N   0  0  0  0  0  0  0  0  0  0  0  0
   -5.8351    0.8937  -18.3080 C   0  0  0  0  0  0  0  0  0  0  0  0
   -5.3141    0.9637  -19.3934 C   0  0  0  0  0  0  0  0  0  0  0  0
   -5.8299    0.5481  -20.5723 C   0  0  0  0  0  0  0  0  0  0  0  0
   -5.2350    0.6195  -21.9218 C   0  0  0  0  0  0  0  0  0  0  0  0
   -6.2374   -5.7285  -27.2470 H   0  0  0  0  0  0  0  0  0  0  0  0
   -5.5995   -4.3059  -26.3549 H   0  0  0  0  0  0  0  0  0  0  0  0
   -6.0070   -5.8137  -25.4677 H   0  0  0  0  0  0  0  0  0  0  0  0
   -7.1161   -3.1625  -24.7323 H   0  0  0  0  0  0  0  0  0  0  0  0
  -10.3808   -0.6573  -24.3044 H   0  0  0  0  0  0  0  0  0  0  0  0
  -10.4655   -0.8750  -23.9816 H   0  0  0  0  0  0  0  0  0  0  0  0
  -10.1432    0.4032  -25.3088 H   0  0  0  0  0  0  0  0  0  0  0  0
  -12.0805    0.9440  -25.3617 H   0  0  0  0  0  0  0  0  0  0  0  0
  -13.6509   -0.5202  -24.8033 H   0  0  0  0  0  0  0  0  0  0  0  0
  -13.3183    0.6867  -23.5151 H   0  0  0  0  0  0  0  0  0  0  0  0
  -13.4989   -1.6958  -22.5002 H   0  0  0  0  0  0  0  0  0  0  0  0
  -11.8222   -2.6467  -22.2071 H   0  0  0  0  0  0  0  0  0  0  0  0
  -10.4899   -0.8600  -21.8814 H   0  0  0  0  0  0  0  0  0  0  0  0
   -9.8477    0.2860  -23.1065 H   0  0  0  0  0  0  0  0  0  0  0  0
   -7.6660   -1.4519  -21.5713 H   0  0  0  0  0  0  0  0  0  0  0  0
   -8.4097   -0.2028  -18.7922 H   0  0  0  0  0  0  0  0  0  0  0  0
   -5.2088    1.3030  -17.5292 H   0  0  0  0  0  0  0  0  0  0  0  0
   -4.3293    1.4059  -19.4274 H   0  0  0  0  0  0  0  0  0  0  0  0
   -4.6626   -0.2987  -22.1197 H   0  0  0  0  0  0  0  0  0  0  0  0
   -6.0349    0.7212  -22.6700 H   0  0  0  0  0  0  0  0  0  0  0  0
   -4.5645    1.4895  -21.9812 H   0  0  0  0  0  0  0  0  0  0  0  0
 20 21  2  0  0  0  0
 19 20  1  0  0  0  0
 21 22  1  0  0  0  0
 18 19  2  0  0  0  0
 22 23  2  0  0  0  0
 18 23  1  0  0  0  0
 17 18  1  0  0  0  0
 23 24  1  0  0  0  0
 15 16  2  0  0  0  0
 15 17  1  0  0  0  0
 14 15  1  0  0  0  0
  8 14  1  0  0  0  0
 12 13  2  0  0  0  0
  8 13  1  0  0  0  0
 11 12  1  0  0  0  0
  7  8  1  0  0  0  0
  6  7  3  0  0  0  0
 10 11  1  0  0  0  0
  5  6  1  0  0  0  0
  9 10  2  0  0  0  0
  2  5  1  0  0  0  0
  2  3  2  0  0  0  0
  1  2  1  0  0  0  0
  2  4  2  0  0  0  0
  1 25  1  0  0  0  0
  1 26  1  0  0  0  0
  1 27  1  0  0  0  0
  5 28  1  0  0  0  0
  8 29  1  0  0  0  0
  9 30  1  0  0  0  0
  9 31  1  0  0  0  0
 10 32  1  0  0  0  0
 11 33  1  0  0  0  0
 11 34  1  0  0  0  0
 12 35  1  0  0  0  0
 13 36  1  0  0  0  0
 14 37  1  0  0  0  0
 14 38  1  0  0  0  0
 17 39  1  0  0  0  0
 19 40  1  0  0  0  0
 21 41  1  0  0  0  0
 22 42  1  0  0  0  0
 24 43  1  0  0  0  0
 24 44  1  0  0  0  0
 24 45  1  0  0  0  0
M  END
> <Chemgauss4>
-13.426050

$$$$
