stable:False satoms:13 tatoms:24 sratio:0.5416666666666666
  -OEChem-08062407383D

 34 35  0     1  0  0  0  0  0999 V2000
    6.2493   -2.8361   22.9258 O   0  0  0  0  0  0  0  0  0  0  0  0
    7.6916   -3.3064   22.9132 S   0  0  0  0  0  0  0  0  0  0  0  0
    7.8747   -4.2486   21.8269 O   0  0  0  0  0  0  0  0  0  0  0  0
    8.0297   -3.9623   24.1349 O   0  5  0  0  0  0  0  0  0  0  0  0
    8.4535   -1.9969   22.6889 N   0  0  0  0  0  0  0  0  0  0  0  0
    9.5704   -1.6376   22.8824 C   0  0  3  0  0  0  0  0  0  0  0  0
   10.2360   -0.5360   22.8900 N   0  3  0  0  0  0  0  0  0  0  0  0
   11.0531   -1.3477   23.2168 C   0  0  0  0  0  0  0  0  0  0  0  0
   12.3061   -1.3240   23.6367 C   0  0  0  0  0  0  0  0  0  0  0  0
   13.8588   -2.6771   24.1992 H   0  0  0  0  0  0  0  0  0  0  0  0
   13.5251   -2.1505   23.3359 C   0  0  0  0  0  0  0  0  0  0  0  0
   14.2995   -1.4742   23.0026 H   0  0  0  0  0  0  0  0  0  0  0  0
   13.2803   -2.7479   22.4628 H   0  0  0  0  0  0  0  0  0  0  0  0
   12.2803   -0.0603   23.8943 C   0  0  0  0  0  0  0  0  0  0  0  0
   11.5553    1.6736   23.5444 C   0  0  2  0  0  0  0  0  0  0  0  0
   12.5312    1.1673   24.1521 N   0  3  0  0  0  0  0  0  0  0  0  0
   10.6847    2.0838   22.7220 N   0  0  0  0  0  0  0  0  0  0  0  0
   10.5133    2.9283   23.7497 C   0  0  2  0  0  0  0  0  0  0  0  0
   10.5641    5.4627   22.0409 H   0  0  0  0  0  0  0  0  0  0  0  0
   11.1712    4.9343   22.6344 N   0  3  0  0  0  0  0  0  0  0  0  0
   11.8575    5.5408   23.0359 H   0  0  0  0  0  0  0  0  0  0  0  0
   10.4524    4.3639   23.6216 C   0  0  0  0  0  2  0  0  0  0  0  0
    9.8862    2.6812   24.9772 F   0  0  0  0  0  0  0  0  0  0  0  0
    7.9130   -1.3331   23.2059 H   0  0  0  0  0  0  0  0  0  0  0  0
    9.8267   -1.8049   21.8259 H   0  0  0  0  0  0  0  0  0  0  0  0
    9.9758    0.1445   23.5749 H   0  0  0  0  0  0  0  0  0  0  0  0
   11.6235   -0.1815   24.7683 H   0  0  0  0  0  0  0  0  0  0  0  0
   11.6724    0.1780   23.0090 H   0  0  0  0  0  0  0  0  0  0  0  0
   10.8481    0.9686   24.0058 H   0  0  0  0  0  0  0  0  0  0  0  0
   13.4084    1.4628   23.7737 H   0  0  0  0  0  0  0  0  0  0  0  0
    9.9280    1.4612   22.5223 H   0  0  0  0  0  0  0  0  0  0  0  0
   10.3741   -0.0854   22.0080 H   0  0  0  0  0  0  0  0  0  0  0  0
   12.5091    1.3610   25.1329 H   0  0  0  0  0  0  0  0  0  0  0  0
   11.6259    4.2233   22.0979 H   0  0  0  0  0  0  0  0  0  0  0  0
 20 21  1  0  0  0  0
 19 20  1  0  0  0  0
 20 22  1  0  0  0  0
 18 22  1  0  0  0  0
 17 18  1  0  0  0  0
 15 17  1  0  0  0  0
 15 18  1  0  0  0  0
 18 23  1  0  0  0  0
 15 16  1  0  0  0  0
 14 16  1  0  0  0  0
 11 12  1  0  0  0  0
  9 14  1  0  0  0  0
  7  8  1  0  0  0  0
  6  7  1  0  0  0  0
  9 11  1  0  0  0  0
 11 13  1  0  0  0  0
 10 11  1  0  0  0  0
  8  9  2  0  0  0  0
  6  8  1  0  0  0  0
  5  6  1  0  0  0  0
  2  5  1  0  0  0  0
  2  3  2  0  0  0  0
  1  2  2  0  0  0  0
  2  4  1  0  0  0  0
  5 24  1  0  0  0  0
  6 25  1  0  0  0  0
  7 26  1  0  0  0  0
 14 27  1  0  0  0  0
 14 28  1  0  0  0  0
 15 29  1  0  0  0  0
 16 30  1  0  0  0  0
 17 31  1  0  0  0  0
  7 32  1  0  0  0  0
 16 33  1  0  0  0  0
 20 34  1  0  0  0  0
M  CHG  4   4  -1   7   1  16   1  20   1
M  END
> <Chemgauss4>
-6.331448

$$$$
