stable:False satoms:13 tatoms:24 sratio:0.5416666666666666
  -OEChem-08062407383D

 34 35  0     1  0  0  0  0  0999 V2000
   -6.2828   -2.7162  -22.8237 O   0  0  0  0  0  0  0  0  0  0  0  0
   -7.7251   -3.1865  -22.8112 S   0  0  0  0  0  0  0  0  0  0  0  0
   -7.9082   -4.1286  -21.7248 O   0  0  0  0  0  0  0  0  0  0  0  0
   -8.0632   -3.8424  -24.0329 O   0  5  0  0  0  0  0  0  0  0  0  0
   -8.4870   -1.8770  -22.5869 N   0  0  0  0  0  0  0  0  0  0  0  0
   -9.6039   -1.5177  -22.7804 C   0  0  3  0  0  0  0  0  0  0  0  0
  -10.2695   -0.4161  -22.7879 N   0  3  0  0  0  0  0  0  0  0  0  0
  -11.0866   -1.2278  -23.1148 C   0  0  0  0  0  0  0  0  0  0  0  0
  -12.3396   -1.2041  -23.5347 C   0  0  0  0  0  0  0  0  0  0  0  0
  -13.8923   -2.5572  -24.0972 H   0  0  0  0  0  0  0  0  0  0  0  0
  -13.5587   -2.0306  -23.2338 C   0  0  0  0  0  0  0  0  0  0  0  0
  -14.3330   -1.3543  -22.9006 H   0  0  0  0  0  0  0  0  0  0  0  0
  -13.3138   -2.6280  -22.3608 H   0  0  0  0  0  0  0  0  0  0  0  0
  -12.3138    0.0596  -23.7923 C   0  0  0  0  0  0  0  0  0  0  0  0
  -11.5888    1.7935  -23.4424 C   0  0  2  0  0  0  0  0  0  0  0  0
  -12.5647    1.2872  -24.0501 N   0  3  0  0  0  0  0  0  0  0  0  0
  -10.7182    2.2037  -22.6200 N   0  0  0  0  0  0  0  0  0  0  0  0
  -10.5468    3.0482  -23.6477 C   0  0  2  0  0  0  0  0  0  0  0  0
  -10.5976    5.5826  -21.9389 H   0  0  0  0  0  0  0  0  0  0  0  0
  -11.2047    5.0542  -22.5324 N   0  3  0  0  0  0  0  0  0  0  0  0
  -11.8910    5.6607  -22.9338 H   0  0  0  0  0  0  0  0  0  0  0  0
  -10.4859    4.4838  -23.5196 C   0  0  0  0  0  2  0  0  0  0  0  0
   -9.9197    2.8011  -24.8752 F   0  0  0  0  0  0  0  0  0  0  0  0
   -7.9465   -1.2132  -23.1039 H   0  0  0  0  0  0  0  0  0  0  0  0
   -9.8602   -1.6850  -21.7238 H   0  0  0  0  0  0  0  0  0  0  0  0
  -10.0093    0.2644  -23.4729 H   0  0  0  0  0  0  0  0  0  0  0  0
  -11.6570   -0.0616  -24.6663 H   0  0  0  0  0  0  0  0  0  0  0  0
  -11.7059    0.2979  -22.9070 H   0  0  0  0  0  0  0  0  0  0  0  0
  -10.8816    1.0885  -23.9037 H   0  0  0  0  0  0  0  0  0  0  0  0
  -13.4419    1.5827  -23.6716 H   0  0  0  0  0  0  0  0  0  0  0  0
   -9.9615    1.5812  -22.4203 H   0  0  0  0  0  0  0  0  0  0  0  0
  -10.4076    0.0346  -21.9060 H   0  0  0  0  0  0  0  0  0  0  0  0
  -12.5426    1.4809  -25.0309 H   0  0  0  0  0  0  0  0  0  0  0  0
  -11.6594    4.3432  -21.9959 H   0  0  0  0  0  0  0  0  0  0  0  0
 20 21  1  0  0  0  0
 19 20  1  0  0  0  0
 20 22  1  0  0  0  0
 18 22  1  0  0  0  0
 17 18  1  0  0  0  0
 15 17  1  0  0  0  0
 15 18  1  0  0  0  0
 18 23  1  0  0  0  0
 15 16  1  0  0  0  0
 14 16  1  0  0  0  0
 11 12  1  0  0  0  0
  9 14  1  0  0  0  0
  7  8  1  0  0  0  0
  6  7  1  0  0  0  0
  9 11  1  0  0  0  0
 11 13  1  0  0  0  0
 10 11  1  0  0  0  0
  8  9  2  0  0  0  0
  6  8  1  0  0  0  0
  5  6  1  0  0  0  0
  2  5  1  0  0  0  0
  2  3  2  0  0  0  0
  1  2  2  0  0  0  0
  2  4  1  0  0  0  0
  5 24  1  0  0  0  0
  6 25  1  0  0  0  0
  7 26  1  0  0  0  0
 14 27  1  0  0  0  0
 14 28  1  0  0  0  0
 15 29  1  0  0  0  0
 16 30  1  0  0  0  0
 17 31  1  0  0  0  0
  7 32  1  0  0  0  0
 16 33  1  0  0  0  0
 20 34  1  0  0  0  0
M  CHG  4   4  -1   7   1  16   1  20   1
M  END
> <Chemgauss4>
-6.098448

$$$$
