REMARK  0 active torsions:
REMARK  status: ('A' for Active; 'I' for Inactive)
ROOT
HETATM    1  O   UNL     1      11.736   0.205  22.658  1.00  0.00    -0.298 OA
HETATM    2  C   UNL     1       7.390  -1.200  23.126  1.00  0.00    -0.000 C 
HETATM    3  C   UNL     1       8.032  -2.146  24.120  1.00  0.00     0.011 C 
HETATM    4  C   UNL     1       9.402   0.449  23.088  1.00  0.00     0.079 C 
HETATM    5  C   UNL     1       9.142  -1.819  20.946  1.00  0.00     0.099 A 
HETATM    6  C   UNL     1       7.527  -1.696  21.617  1.00  0.00     0.125 A 
HETATM    7  H   UNL     1       8.669  -3.581  22.046  1.00  0.00     0.153 HD
HETATM    8  C   UNL     1      10.617  -0.224  22.419  1.00  0.00     0.129 C 
HETATM    9  C   UNL     1      10.518  -1.381  21.492  1.00  0.00     0.104 C 
HETATM   10  C   UNL     1       7.875   0.227  23.292  1.00  0.00     0.013 C 
HETATM   11  N   UNL     1       8.519  -2.778  21.523  1.00  0.00    -0.414 N 
ENDROOT
TORSDOF 0
