MODEL 1
REMARK VINA RESULT:    -4.671      0.000      0.000
REMARK INTER + INTRA:          -4.671
REMARK INTER:                  -4.671
REMARK INTRA:                   0.000
REMARK UNBOUND:                 0.000
REMARK  0 active torsions:
REMARK  status: ('A' for Active; 'I' for Inactive)
ROOT
HETATM    1  O   UNL     1      13.437  -0.304  24.639  1.00  0.00    -0.298 OA
HETATM    2  C   UNL     1       8.858  -0.596  24.459  1.00  0.00    -0.000 C 
HETATM    3  C   UNL     1       9.111  -1.736  25.424  1.00  0.00     0.011 C 
HETATM    4  C   UNL     1      11.195   0.492  24.816  1.00  0.00     0.079 C 
HETATM    5  C   UNL     1      10.690  -1.492  22.448  1.00  0.00     0.099 A 
HETATM    6  C   UNL     1       9.077  -1.010  22.935  1.00  0.00     0.125 A 
HETATM    7  H   UNL     1       9.660  -3.146  23.309  1.00  0.00     0.153 HD
HETATM    8  C   UNL     1      12.291  -0.421  24.231  1.00  0.00     0.129 C 
HETATM    9  C   UNL     1      12.043  -1.452  23.190  1.00  0.00     0.104 C 
HETATM   10  C   UNL     1       9.646   0.649  24.819  1.00  0.00     0.013 C 
HETATM   11  N   UNL     1       9.781  -2.299  22.852  1.00  0.00    -0.414 N 
ENDROOT
TORSDOF 0
ENDMDL
MODEL 2
REMARK VINA RESULT:    -4.540     23.458     24.751
REMARK INTER + INTRA:          -4.540
REMARK INTER:                  -4.540
REMARK INTRA:                   0.000
REMARK UNBOUND:                 0.000
REMARK  0 active torsions:
REMARK  status: ('A' for Active; 'I' for Inactive)
ROOT
HETATM    1  O   UNL     1      22.406 -23.715  15.973  1.00  0.00    -0.298 OA
HETATM    2  C   UNL     1      20.245 -20.253  13.869  1.00  0.00    -0.000 C 
HETATM    3  C   UNL     1      21.591 -19.584  14.059  1.00  0.00     0.011 C 
HETATM    4  C   UNL     1      21.162 -22.660  14.231  1.00  0.00     0.079 C 
HETATM    5  C   UNL     1      19.912 -21.043  16.602  1.00  0.00     0.099 A 
HETATM    6  C   UNL     1      19.334 -20.202  15.176  1.00  0.00     0.125 A 
HETATM    7  H   UNL     1      20.791 -19.106  16.488  1.00  0.00     0.153 HD
HETATM    8  C   UNL     1      21.601 -22.838  15.698  1.00  0.00     0.129 C 
HETATM    9  C   UNL     1      21.106 -21.997  16.819  1.00  0.00     0.104 C 
HETATM   10  C   UNL     1      20.373 -21.665  13.331  1.00  0.00     0.013 C 
HETATM   11  N   UNL     1      20.138 -19.809  16.344  1.00  0.00    -0.414 N 
ENDROOT
TORSDOF 0
ENDMDL
MODEL 3
REMARK VINA RESULT:    -4.132      1.484      2.801
REMARK INTER + INTRA:          -4.132
REMARK INTER:                  -4.132
REMARK INTRA:                   0.000
REMARK UNBOUND:                 0.000
REMARK  0 active torsions:
REMARK  status: ('A' for Active; 'I' for Inactive)
ROOT
HETATM    1  O   UNL     1      13.182  -0.057  24.460  1.00  0.00    -0.298 OA
HETATM    2  C   UNL     1       9.172  -0.712  22.322  1.00  0.00    -0.000 C 
HETATM    3  C   UNL     1       9.678   0.444  21.484  1.00  0.00     0.011 C 
HETATM    4  C   UNL     1      11.514  -1.299  23.291  1.00  0.00     0.079 C 
HETATM    5  C   UNL     1       9.547   0.566  24.857  1.00  0.00     0.099 A 
HETATM    6  C   UNL     1       8.513  -0.244  23.696  1.00  0.00     0.125 A 
HETATM    7  H   UNL     1       8.828   1.962  23.418  1.00  0.00     0.153 HD
HETATM    8  C   UNL     1      11.987  -0.174  24.233  1.00  0.00     0.129 C 
HETATM    9  C   UNL     1      11.073   0.797  24.890  1.00  0.00     0.104 C 
HETATM   10  C   UNL     1      10.233  -1.772  22.543  1.00  0.00     0.013 C 
HETATM   11  N   UNL     1       8.845   1.163  23.968  1.00  0.00    -0.414 N 
ENDROOT
TORSDOF 0
ENDMDL
MODEL 4
REMARK VINA RESULT:    -4.121      2.406      3.200
REMARK INTER + INTRA:          -4.121
REMARK INTER:                  -4.121
REMARK INTRA:                   0.000
REMARK UNBOUND:                 0.000
REMARK  0 active torsions:
REMARK  status: ('A' for Active; 'I' for Inactive)
ROOT
HETATM    1  O   UNL     1       8.671   1.774  21.104  1.00  0.00    -0.298 OA
HETATM    2  C   UNL     1      10.812   0.191  24.844  1.00  0.00    -0.000 C 
HETATM    3  C   UNL     1      12.016   0.780  24.138  1.00  0.00     0.011 C 
HETATM    4  C   UNL     1       9.079   1.533  23.442  1.00  0.00     0.079 C 
HETATM    5  C   UNL     1       9.898  -1.377  22.628  1.00  0.00     0.099 A 
HETATM    6  C   UNL     1      10.415  -1.253  24.299  1.00  0.00     0.125 A 
HETATM    7  H   UNL     1      12.025  -1.416  22.743  1.00  0.00     0.153 HD
HETATM    8  C   UNL     1       9.090   1.036  21.983  1.00  0.00     0.129 C 
HETATM    9  C   UNL     1       9.589  -0.300  21.566  1.00  0.00     0.104 C 
HETATM   10  C   UNL     1       9.625   1.135  24.844  1.00  0.00     0.013 C 
HETATM   11  N   UNL     1      11.105  -1.528  23.030  1.00  0.00    -0.414 N 
ENDROOT
TORSDOF 0
ENDMDL
MODEL 5
REMARK VINA RESULT:    -4.091      5.016      6.298
REMARK INTER + INTRA:          -4.091
REMARK INTER:                  -4.091
REMARK INTRA:                   0.000
REMARK UNBOUND:                 0.000
REMARK  0 active torsions:
REMARK  status: ('A' for Active; 'I' for Inactive)
ROOT
HETATM    1  O   UNL     1       6.845  -5.988  26.632  1.00  0.00    -0.298 OA
HETATM    2  C   UNL     1       6.084  -5.006  22.211  1.00  0.00    -0.000 C 
HETATM    3  C   UNL     1       7.060  -6.148  22.015  1.00  0.00     0.011 C 
HETATM    4  C   UNL     1       5.528  -5.637  24.673  1.00  0.00     0.079 C 
HETATM    5  C   UNL     1       7.729  -3.510  24.017  1.00  0.00     0.099 A 
HETATM    6  C   UNL     1       6.804  -3.620  22.532  1.00  0.00     0.125 A 
HETATM    7  H   UNL     1       8.915  -4.383  22.478  1.00  0.00     0.153 HD
HETATM    8  C   UNL     1       6.761  -5.395  25.567  1.00  0.00     0.129 C 
HETATM    9  C   UNL     1       7.875  -4.478  25.212  1.00  0.00     0.104 C 
HETATM   10  C   UNL     1       5.015  -5.331  23.236  1.00  0.00     0.013 C 
HETATM   11  N   UNL     1       8.215  -3.846  22.881  1.00  0.00    -0.414 N 
ENDROOT
TORSDOF 0
ENDMDL
MODEL 6
REMARK VINA RESULT:    -4.050     10.709     12.273
REMARK INTER + INTRA:          -4.050
REMARK INTER:                  -4.050
REMARK INTRA:                   0.000
REMARK UNBOUND:                 0.000
REMARK  0 active torsions:
REMARK  status: ('A' for Active; 'I' for Inactive)
ROOT
HETATM    1  O   UNL     1      22.927   1.162  27.738  1.00  0.00    -0.298 OA
HETATM    2  C   UNL     1      21.826  -1.494  24.158  1.00  0.00    -0.000 C 
HETATM    3  C   UNL     1      20.503  -1.562  24.894  1.00  0.00     0.011 C 
HETATM    4  C   UNL     1      22.656   0.618  25.431  1.00  0.00     0.079 C 
HETATM    5  C   UNL     1      23.451  -2.254  26.391  1.00  0.00     0.099 A 
HETATM    6  C   UNL     1      22.914  -2.503  24.741  1.00  0.00     0.125 A 
HETATM    7  H   UNL     1      21.641  -3.376  26.371  1.00  0.00     0.153 HD
HETATM    8  C   UNL     1      22.927   0.266  26.907  1.00  0.00     0.129 C 
HETATM    9  C   UNL     1      23.187  -1.113  27.397  1.00  0.00     0.104 C 
HETATM   10  C   UNL     1      22.364  -0.080  24.070  1.00  0.00     0.013 C 
HETATM   11  N   UNL     1      22.483  -3.020  26.049  1.00  0.00    -0.414 N 
ENDROOT
TORSDOF 0
ENDMDL
MODEL 7
REMARK VINA RESULT:    -3.902     13.847     15.002
REMARK INTER + INTRA:          -3.902
REMARK INTER:                  -3.902
REMARK INTRA:                   0.000
REMARK UNBOUND:                 0.000
REMARK  0 active torsions:
REMARK  status: ('A' for Active; 'I' for Inactive)
ROOT
HETATM    1  O   UNL     1      23.974  -2.265  15.123  1.00  0.00    -0.298 OA
HETATM    2  C   UNL     1      23.655  -1.330  19.606  1.00  0.00    -0.000 C 
HETATM    3  C   UNL     1      24.926  -0.559  19.314  1.00  0.00     0.011 C 
HETATM    4  C   UNL     1      22.926  -1.471  17.113  1.00  0.00     0.079 C 
HETATM    5  C   UNL     1      24.530  -3.802  18.452  1.00  0.00     0.099 A 
HETATM    6  C   UNL     1      23.908  -2.891  19.815  1.00  0.00     0.125 A 
HETATM    7  H   UNL     1      26.130  -2.857  19.495  1.00  0.00     0.153 HD
HETATM    8  C   UNL     1      23.894  -2.386  16.336  1.00  0.00     0.129 C 
HETATM    9  C   UNL     1      24.753  -3.417  16.974  1.00  0.00     0.104 C 
HETATM   10  C   UNL     1      22.573  -1.072  18.576  1.00  0.00     0.013 C 
HETATM   11  N   UNL     1      25.257  -3.255  19.355  1.00  0.00    -0.414 N 
ENDROOT
TORSDOF 0
ENDMDL
MODEL 8
REMARK VINA RESULT:    -3.896      2.248      3.307
REMARK INTER + INTRA:          -3.896
REMARK INTER:                  -3.896
REMARK INTRA:                   0.000
REMARK UNBOUND:                 0.000
REMARK  0 active torsions:
REMARK  status: ('A' for Active; 'I' for Inactive)
ROOT
HETATM    1  O   UNL     1       7.219  -0.848  24.545  1.00  0.00    -0.298 OA
HETATM    2  C   UNL     1      11.565   0.469  23.868  1.00  0.00    -0.000 C 
HETATM    3  C   UNL     1      10.901   1.388  22.863  1.00  0.00     0.011 C 
HETATM    4  C   UNL     1       9.369  -0.025  25.172  1.00  0.00     0.079 C 
HETATM    5  C   UNL     1      10.361  -1.947  22.909  1.00  0.00     0.099 A 
HETATM    6  C   UNL     1      11.786  -1.007  23.310  1.00  0.00     0.125 A 
HETATM    7  H   UNL     1      10.883  -0.676  21.281  1.00  0.00     0.153 HD
HETATM    8  C   UNL     1       8.415  -0.858  24.293  1.00  0.00     0.129 C 
HETATM    9  C   UNL     1       8.858  -1.682  23.139  1.00  0.00     0.104 C 
HETATM   10  C   UNL     1      10.847   0.460  25.204  1.00  0.00     0.013 C 
HETATM   11  N   UNL     1      11.004  -1.211  22.081  1.00  0.00    -0.414 N 
ENDROOT
TORSDOF 0
ENDMDL
MODEL 9
REMARK VINA RESULT:    -3.895     14.039     15.589
REMARK INTER + INTRA:          -3.895
REMARK INTER:                  -3.895
REMARK INTRA:                   0.000
REMARK UNBOUND:                 0.000
REMARK  0 active torsions:
REMARK  status: ('A' for Active; 'I' for Inactive)
ROOT
HETATM    1  O   UNL     1      24.112  -1.624  14.132  1.00  0.00    -0.298 OA
HETATM    2  C   UNL     1      24.106  -0.715  18.632  1.00  0.00    -0.000 C 
HETATM    3  C   UNL     1      22.620  -0.951  18.457  1.00  0.00     0.011 C 
HETATM    4  C   UNL     1      24.762  -1.899  16.411  1.00  0.00     0.079 C 
HETATM    5  C   UNL     1      24.359   1.203  16.520  1.00  0.00     0.099 A 
HETATM    6  C   UNL     1      24.559   0.752  18.203  1.00  0.00     0.125 A 
HETATM    7  H   UNL     1      22.534   1.497  17.580  1.00  0.00     0.153 HD
HETATM    8  C   UNL     1      24.267  -1.069  15.210  1.00  0.00     0.129 C 
HETATM    9  C   UNL     1      23.955   0.382  15.277  1.00  0.00     0.104 C 
HETATM   10  C   UNL     1      24.943  -1.781  17.952  1.00  0.00     0.013 C 
HETATM   11  N   UNL     1      23.490   1.413  17.438  1.00  0.00    -0.414 N 
ENDROOT
TORSDOF 0
ENDMDL
