MODEL 1
REMARK VINA RESULT:    -4.529      0.000      0.000
REMARK INTER + INTRA:          -5.471
REMARK INTER:                  -5.324
REMARK INTRA:                  -0.147
REMARK UNBOUND:                -0.147
REMARK  3 active torsions:
REMARK  status: ('A' for Active; 'I' for Inactive)
REMARK    1  A    between atoms: C_8  and  C_12 
REMARK    2  A    between atoms: C_9  and  C_13 
REMARK    3  A    between atoms: C_12  and  C_15 
ROOT
HETATM    1  O   UNL     1      10.091   1.692  21.428  1.00  0.00    -0.246 OA
HETATM    2  C   UNL     1      10.087   0.511  21.700  1.00  0.00     0.330 C 
HETATM    3  N   UNL     1       9.081  -0.373  21.322  1.00  0.00    -0.276 N 
HETATM    4  N   UNL     1      10.935  -0.238  22.439  1.00  0.00    -0.316 N 
ATOM      5  HN  UNL     1      11.841   0.077  22.785  1.00  0.00     0.170 HD
HETATM    6  C   UNL     1      10.396  -1.497  22.661  1.00  0.00     0.124 C 
HETATM    7  C   UNL     1       9.160  -1.545  22.204  1.00  0.00     0.073 C 
HETATM    8  C   UNL     1       8.254  -0.158  20.356  1.00  0.00     0.075 C 
ENDROOT
BRANCH   7   9
HETATM    9  C   UNL     1       8.041  -2.295  22.587  1.00  0.00     0.112 C 
HETATM   10  N   UNL     1       8.065  -3.604  22.397  1.00  0.00    -0.406 N 
HETATM   11  H   UNL     1       7.414  -3.953  21.697  1.00  0.00     0.155 HD
HETATM   12  H   UNL     1       8.907  -3.913  22.905  1.00  0.00     0.155 HD
ENDBRANCH   7   9
BRANCH   8  13
HETATM   13  C   UNL     1       6.935   0.335  20.697  1.00  0.00     0.045 C 
BRANCH  13  14
HETATM   14  C   UNL     1       5.973  -0.432  19.790  1.00  0.00     0.001 C 
HETATM   15  C   UNL     1       5.797   0.101  18.269  1.00  0.00     0.005 C 
ENDBRANCH  13  14
ENDBRANCH   8  13
TORSDOF 3
ENDMDL
MODEL 2
REMARK VINA RESULT:    -4.454      2.423      4.191
REMARK INTER + INTRA:          -5.382
REMARK INTER:                  -5.253
REMARK INTRA:                  -0.129
REMARK UNBOUND:                -0.147
REMARK  3 active torsions:
REMARK  status: ('A' for Active; 'I' for Inactive)
REMARK    1  A    between atoms: C_8  and  C_12 
REMARK    2  A    between atoms: C_9  and  C_13 
REMARK    3  A    between atoms: C_12  and  C_15 
ROOT
HETATM    1  O   UNL     1       9.336  -1.984  22.027  1.00  0.00    -0.246 OA
HETATM    2  C   UNL     1       8.599  -1.211  21.452  1.00  0.00     0.330 C 
HETATM    3  N   UNL     1       7.214  -1.336  21.418  1.00  0.00    -0.276 N 
HETATM    4  N   UNL     1       8.862  -0.133  20.681  1.00  0.00    -0.316 N 
ATOM      5  HN  UNL     1       9.779   0.301  20.578  1.00  0.00     0.170 HD
HETATM    6  C   UNL     1       7.704   0.299  20.049  1.00  0.00     0.124 C 
HETATM    7  C   UNL     1       6.722  -0.550  20.279  1.00  0.00     0.073 C 
HETATM    8  C   UNL     1       6.529  -2.025  22.265  1.00  0.00     0.075 C 
ENDROOT
BRANCH   7   9
HETATM    9  C   UNL     1       5.585  -0.899  19.539  1.00  0.00     0.112 C 
HETATM   10  N   UNL     1       5.611  -0.730  18.227  1.00  0.00    -0.406 N 
HETATM   11  H   UNL     1       4.987  -0.009  17.870  1.00  0.00     0.155 HD
HETATM   12  H   UNL     1       6.430  -1.276  17.922  1.00  0.00     0.155 HD
ENDBRANCH   7   9
BRANCH   8  13
HETATM   13  C   UNL     1       6.107  -3.352  21.867  1.00  0.00     0.045 C 
BRANCH  13  14
HETATM   14  C   UNL     1       6.919  -4.310  22.738  1.00  0.00     0.001 C 
HETATM   15  C   UNL     1       7.160  -5.810  22.173  1.00  0.00     0.005 C 
ENDBRANCH  13  14
ENDBRANCH   8  13
TORSDOF 3
ENDMDL
MODEL 3
REMARK VINA RESULT:    -4.439      2.969      5.217
REMARK INTER + INTRA:          -5.364
REMARK INTER:                  -5.096
REMARK INTRA:                  -0.268
REMARK UNBOUND:                -0.147
REMARK  3 active torsions:
REMARK  status: ('A' for Active; 'I' for Inactive)
REMARK    1  A    between atoms: C_8  and  C_12 
REMARK    2  A    between atoms: C_9  and  C_13 
REMARK    3  A    between atoms: C_12  and  C_15 
ROOT
HETATM    1  O   UNL     1       6.572   2.713  22.038  1.00  0.00    -0.246 OA
HETATM    2  C   UNL     1       5.794   2.247  21.234  1.00  0.00     0.330 C 
HETATM    3  N   UNL     1       6.022   1.079  20.514  1.00  0.00    -0.276 N 
HETATM    4  N   UNL     1       4.607   2.702  20.773  1.00  0.00    -0.316 N 
ATOM      5  HN  UNL     1       4.092   3.489  21.166  1.00  0.00     0.170 HD
HETATM    6  C   UNL     1       4.191   1.945  19.688  1.00  0.00     0.124 C 
HETATM    7  C   UNL     1       5.138   1.095  19.342  1.00  0.00     0.073 C 
HETATM    8  C   UNL     1       6.867   0.169  20.862  1.00  0.00     0.075 C 
ENDROOT
BRANCH   7   9
HETATM    9  C   UNL     1       5.478   0.510  18.115  1.00  0.00     0.112 C 
HETATM   10  N   UNL     1       6.109   1.250  17.218  1.00  0.00    -0.406 N 
HETATM   11  H   UNL     1       5.573   1.464  16.379  1.00  0.00     0.155 HD
HETATM   12  H   UNL     1       6.950   1.580  17.714  1.00  0.00     0.155 HD
ENDBRANCH   7   9
BRANCH   8  13
HETATM   13  C   UNL     1       8.162   0.170  20.211  1.00  0.00     0.045 C 
BRANCH  13  14
HETATM   14  C   UNL     1       9.180   0.031  21.343  1.00  0.00     0.001 C 
HETATM   15  C   UNL     1       9.889   1.386  21.879  1.00  0.00     0.005 C 
ENDBRANCH  13  14
ENDBRANCH   8  13
TORSDOF 3
ENDMDL
MODEL 4
REMARK VINA RESULT:    -4.392      2.786      4.658
REMARK INTER + INTRA:          -5.309
REMARK INTER:                  -5.185
REMARK INTRA:                  -0.124
REMARK UNBOUND:                -0.147
REMARK  3 active torsions:
REMARK  status: ('A' for Active; 'I' for Inactive)
REMARK    1  A    between atoms: C_8  and  C_12 
REMARK    2  A    between atoms: C_9  and  C_13 
REMARK    3  A    between atoms: C_12  and  C_15 
ROOT
HETATM    1  O   UNL     1       9.220   0.937  21.116  1.00  0.00    -0.246 OA
HETATM    2  C   UNL     1       9.808   0.188  21.866  1.00  0.00     0.330 C 
HETATM    3  N   UNL     1      10.287   0.557  23.119  1.00  0.00    -0.276 N 
HETATM    4  N   UNL     1      10.209  -1.094  21.716  1.00  0.00    -0.316 N 
ATOM      5  HN  UNL     1       9.932  -1.705  20.948  1.00  0.00     0.170 HD
HETATM    6  C   UNL     1      11.051  -1.460  22.756  1.00  0.00     0.124 C 
HETATM    7  C   UNL     1      11.321  -0.410  23.507  1.00  0.00     0.073 C 
HETATM    8  C   UNL     1       9.859   1.575  23.785  1.00  0.00     0.075 C 
ENDROOT
BRANCH   7   9
HETATM    9  C   UNL     1      12.428  -0.076  24.298  1.00  0.00     0.112 C 
HETATM   10  N   UNL     1      13.568  -0.713  24.086  1.00  0.00    -0.406 N 
HETATM   11  H   UNL     1      13.868  -1.328  24.840  1.00  0.00     0.155 HD
HETATM   12  H   UNL     1      13.765  -0.545  23.088  1.00  0.00     0.155 HD
ENDBRANCH   7   9
BRANCH   8  13
HETATM   13  C   UNL     1      10.645   2.791  23.735  1.00  0.00     0.045 C 
BRANCH  13  14
HETATM   14  C   UNL     1       9.626   3.930  23.731  1.00  0.00     0.001 C 
HETATM   15  C   UNL     1      10.181   5.429  23.995  1.00  0.00     0.005 C 
ENDBRANCH  13  14
ENDBRANCH   8  13
TORSDOF 3
ENDMDL
MODEL 5
REMARK VINA RESULT:    -4.367      6.506      7.822
REMARK INTER + INTRA:          -5.280
REMARK INTER:                  -5.172
REMARK INTRA:                  -0.108
REMARK UNBOUND:                -0.147
REMARK  3 active torsions:
REMARK  status: ('A' for Active; 'I' for Inactive)
REMARK    1  A    between atoms: C_8  and  C_12 
REMARK    2  A    between atoms: C_9  and  C_13 
REMARK    3  A    between atoms: C_12  and  C_15 
ROOT
HETATM    1  O   UNL     1       4.311  -7.553  24.445  1.00  0.00    -0.246 OA
HETATM    2  C   UNL     1       4.628  -6.905  25.420  1.00  0.00     0.330 C 
HETATM    3  N   UNL     1       5.463  -5.793  25.378  1.00  0.00    -0.276 N 
HETATM    4  N   UNL     1       4.357  -7.076  26.733  1.00  0.00    -0.316 N 
ATOM      5  HN  UNL     1       3.683  -7.743  27.107  1.00  0.00     0.170 HD
HETATM    6  C   UNL     1       5.128  -6.213  27.498  1.00  0.00     0.124 C 
HETATM    7  C   UNL     1       5.993  -5.580  26.731  1.00  0.00     0.073 C 
HETATM    8  C   UNL     1       5.693  -5.100  24.315  1.00  0.00     0.075 C 
ENDROOT
BRANCH   7   9
HETATM    9  C   UNL     1       7.263  -5.046  26.983  1.00  0.00     0.112 C 
HETATM   10  N   UNL     1       8.305  -5.863  26.965  1.00  0.00    -0.406 N 
HETATM   11  H   UNL     1       8.756  -6.009  27.866  1.00  0.00     0.155 HD
HETATM   12  H   UNL     1       8.266  -6.294  26.030  1.00  0.00     0.155 HD
ENDBRANCH   7   9
BRANCH   8  13
HETATM   13  C   UNL     1       6.921  -5.363  23.593  1.00  0.00     0.045 C 
BRANCH  13  14
HETATM   14  C   UNL     1       6.507  -6.219  22.395  1.00  0.00     0.001 C 
HETATM   15  C   UNL     1       6.103  -5.445  21.030  1.00  0.00     0.005 C 
ENDBRANCH  13  14
ENDBRANCH   8  13
TORSDOF 3
ENDMDL
MODEL 6
REMARK VINA RESULT:    -4.344     24.015     25.799
REMARK INTER + INTRA:          -5.253
REMARK INTER:                  -4.980
REMARK INTRA:                  -0.273
REMARK UNBOUND:                -0.147
REMARK  3 active torsions:
REMARK  status: ('A' for Active; 'I' for Inactive)
REMARK    1  A    between atoms: C_8  and  C_12 
REMARK    2  A    between atoms: C_9  and  C_13 
REMARK    3  A    between atoms: C_12  and  C_15 
ROOT
HETATM    1  O   UNL     1       9.167  17.623   0.671  1.00  0.00    -0.246 OA
HETATM    2  C   UNL     1       9.130  16.654   1.398  1.00  0.00     0.330 C 
HETATM    3  N   UNL     1       9.263  16.712   2.782  1.00  0.00    -0.276 N 
HETATM    4  N   UNL     1       9.028  15.334   1.123  1.00  0.00    -0.316 N 
ATOM      5  HN  UNL     1       8.811  14.945   0.206  1.00  0.00     0.170 HD
HETATM    6  C   UNL     1       9.259  14.585   2.268  1.00  0.00     0.124 C 
HETATM    7  C   UNL     1       9.645  15.374   3.251  1.00  0.00     0.073 C 
HETATM    8  C   UNL     1       9.066  17.775   3.483  1.00  0.00     0.075 C 
ENDROOT
BRANCH   7   9
HETATM    9  C   UNL     1      10.459  15.156   4.371  1.00  0.00     0.112 C 
HETATM   10  N   UNL     1      11.766  15.053   4.189  1.00  0.00    -0.406 N 
HETATM   11  H   UNL     1      12.157  14.131   4.370  1.00  0.00     0.155 HD
HETATM   12  H   UNL     1      12.020  15.932   3.714  1.00  0.00     0.155 HD
ENDBRANCH   7   9
BRANCH   8  13
HETATM   13  C   UNL     1      10.229  18.537   3.891  1.00  0.00     0.045 C 
BRANCH  13  14
HETATM   14  C   UNL     1      10.044  19.919   3.266  1.00  0.00     0.001 C 
HETATM   15  C   UNL     1      11.104  20.371   2.127  1.00  0.00     0.005 C 
ENDBRANCH  13  14
ENDBRANCH   8  13
TORSDOF 3
ENDMDL
MODEL 7
REMARK VINA RESULT:    -4.323     21.824     23.335
REMARK INTER + INTRA:          -5.228
REMARK INTER:                  -5.101
REMARK INTRA:                  -0.126
REMARK UNBOUND:                -0.147
REMARK  3 active torsions:
REMARK  status: ('A' for Active; 'I' for Inactive)
REMARK    1  A    between atoms: C_8  and  C_12 
REMARK    2  A    between atoms: C_9  and  C_13 
REMARK    3  A    between atoms: C_12  and  C_15 
ROOT
HETATM    1  O   UNL     1       0.124 -18.048   5.848  1.00  0.00    -0.246 OA
HETATM    2  C   UNL     1       0.140 -17.325   6.821  1.00  0.00     0.330 C 
HETATM    3  N   UNL     1       0.780 -17.639   8.016  1.00  0.00    -0.276 N 
HETATM    4  N   UNL     1      -0.456 -16.136   7.059  1.00  0.00    -0.316 N 
ATOM      5  HN  UNL     1      -0.925 -15.567   6.354  1.00  0.00     0.170 HD
HETATM    6  C   UNL     1      -0.339 -15.799   8.400  1.00  0.00     0.124 C 
HETATM    7  C   UNL     1       0.196 -16.800   9.070  1.00  0.00     0.073 C 
HETATM    8  C   UNL     1       1.719 -18.515   8.124  1.00  0.00     0.075 C 
ENDROOT
BRANCH   7   9
HETATM    9  C   UNL     1       0.074 -17.215  10.402  1.00  0.00     0.112 C 
HETATM   10  N   UNL     1       0.864 -16.663  11.309  1.00  0.00    -0.406 N 
HETATM   11  H   UNL     1       1.555 -17.287  11.720  1.00  0.00     0.155 HD
HETATM   12  H   UNL     1       0.677 -15.653  11.219  1.00  0.00     0.155 HD
ENDBRANCH   7   9
BRANCH   8  13
HETATM   13  C   UNL     1       1.358 -19.832   8.610  1.00  0.00     0.045 C 
BRANCH  13  14
HETATM   14  C   UNL     1       2.683 -20.504   8.971  1.00  0.00     0.001 C 
HETATM   15  C   UNL     1       3.527 -21.185   7.767  1.00  0.00     0.005 C 
ENDBRANCH  13  14
ENDBRANCH   8  13
TORSDOF 3
ENDMDL
MODEL 8
REMARK VINA RESULT:    -4.292      2.703      3.846
REMARK INTER + INTRA:          -5.192
REMARK INTER:                  -5.039
REMARK INTRA:                  -0.153
REMARK UNBOUND:                -0.147
REMARK  3 active torsions:
REMARK  status: ('A' for Active; 'I' for Inactive)
REMARK    1  A    between atoms: C_8  and  C_12 
REMARK    2  A    between atoms: C_9  and  C_13 
REMARK    3  A    between atoms: C_12  and  C_15 
ROOT
HETATM    1  O   UNL     1      12.888  -1.988  22.409  1.00  0.00    -0.246 OA
HETATM    2  C   UNL     1      12.450  -1.281  23.291  1.00  0.00     0.330 C 
HETATM    3  N   UNL     1      11.098  -1.167  23.600  1.00  0.00    -0.276 N 
HETATM    4  N   UNL     1      13.061  -0.412  24.127  1.00  0.00    -0.316 N 
ATOM      5  HN  UNL     1      14.071  -0.323  24.238  1.00  0.00     0.170 HD
HETATM    6  C   UNL     1      12.118   0.341  24.811  1.00  0.00     0.124 C 
HETATM    7  C   UNL     1      10.912   0.084  24.345  1.00  0.00     0.073 C 
HETATM    8  C   UNL     1      10.206  -2.039  23.272  1.00  0.00     0.075 C 
ENDROOT
BRANCH   7   9
HETATM    9  C   UNL     1       9.745   0.854  24.275  1.00  0.00     0.112 C 
HETATM   10  N   UNL     1       9.088   1.108  25.396  1.00  0.00    -0.406 N 
HETATM   11  H   UNL     1       8.174   0.667  25.473  1.00  0.00     0.155 HD
HETATM   12  H   UNL     1       9.792   1.560  25.998  1.00  0.00     0.155 HD
ENDBRANCH   7   9
BRANCH   8  13
HETATM   13  C   UNL     1       9.397  -1.766  22.101  1.00  0.00     0.045 C 
BRANCH  13  14
HETATM   14  C   UNL     1       7.971  -2.144  22.500  1.00  0.00     0.001 C 
HETATM   15  C   UNL     1       6.760  -1.526  21.618  1.00  0.00     0.005 C 
ENDBRANCH  13  14
ENDBRANCH   8  13
TORSDOF 3
ENDMDL
MODEL 9
REMARK VINA RESULT:    -4.245      5.362      6.781
REMARK INTER + INTRA:          -5.136
REMARK INTER:                  -4.837
REMARK INTRA:                  -0.299
REMARK UNBOUND:                -0.147
REMARK  3 active torsions:
REMARK  status: ('A' for Active; 'I' for Inactive)
REMARK    1  A    between atoms: C_8  and  C_12 
REMARK    2  A    between atoms: C_9  and  C_13 
REMARK    3  A    between atoms: C_12  and  C_15 
ROOT
HETATM    1  O   UNL     1       8.966  -4.562  27.030  1.00  0.00    -0.246 OA
HETATM    2  C   UNL     1       7.941  -5.189  26.866  1.00  0.00     0.330 C 
HETATM    3  N   UNL     1       7.294  -5.318  25.640  1.00  0.00    -0.276 N 
HETATM    4  N   UNL     1       7.142  -5.840  27.740  1.00  0.00    -0.316 N 
ATOM      5  HN  UNL     1       7.376  -6.029  28.715  1.00  0.00     0.170 HD
HETATM    6  C   UNL     1       5.957  -6.213  27.123  1.00  0.00     0.124 C 
HETATM    7  C   UNL     1       5.903  -5.704  25.908  1.00  0.00     0.073 C 
HETATM    8  C   UNL     1       7.863  -5.128  24.499  1.00  0.00     0.075 C 
ENDROOT
BRANCH   7   9
HETATM    9  C   UNL     1       4.830  -5.323  25.092  1.00  0.00     0.112 C 
HETATM   10  N   UNL     1       4.336  -6.212  24.245  1.00  0.00    -0.406 N 
HETATM   11  H   UNL     1       4.486  -6.002  23.260  1.00  0.00     0.155 HD
HETATM   12  H   UNL     1       4.077  -7.009  24.845  1.00  0.00     0.155 HD
ENDBRANCH   7   9
BRANCH   8  13
HETATM   13  C   UNL     1       7.658  -3.849  23.850  1.00  0.00     0.045 C 
BRANCH  13  14
HETATM   14  C   UNL     1       7.302  -4.186  22.402  1.00  0.00     0.001 C 
HETATM   15  C   UNL     1       7.108  -5.750  22.026  1.00  0.00     0.005 C 
ENDBRANCH  13  14
ENDBRANCH   8  13
TORSDOF 3
ENDMDL
