stable:False satoms:21 tatoms:24 sratio:0.875
  -OEChem-07092417333D

 24 24  0     0  0  0  0  0  0999 V2000
    9.6899   -4.3995   23.8136 O   0  0  0  0  0  0  0  0  0  0  0  0
    7.3794   -1.8705   22.2536 H   0  0  0  0  0  0  0  0  0  0  0  0
   10.2944   -3.5498   23.1944 C   0  0  0  0  0  0  0  0  0  0  0  0
    9.8437   -2.2448   23.0185 N   0  0  0  0  0  0  0  0  0  0  0  0
   11.4455   -3.6089   22.4875 N   0  0  0  0  0  0  0  0  0  0  0  0
    8.8369   -0.1690   21.3543 N   0  0  0  0  0  0  0  0  0  0  0  0
    6.2914   -0.4321   24.2453 H   0  0  0  0  0  0  0  0  0  0  0  0
   11.6217   -2.4425   21.7589 C   0  0  0  0  0  0  0  0  0  0  0  0
    7.8281    0.3755   24.1830 H   0  0  0  0  0  0  0  0  0  0  0  0
    9.2639   -1.3832   24.7471 H   0  0  0  0  0  0  0  0  0  0  0  0
    7.1130   -0.2118   23.6034 C   0  0  0  0  0  0  0  0  0  0  0  0
   10.5514   -1.6804   21.8620 C   0  0  0  0  0  0  0  0  0  0  0  0
    9.0370    0.2443   22.2768 H   0  0  0  0  0  0  0  0  0  0  0  0
   12.4831   -2.1943   21.1843 H   0  0  0  0  0  0  0  0  0  0  0  0
    7.1368   -2.4677   23.8062 H   0  0  0  0  0  0  0  0  0  0  0  0
   10.4502   -0.3910   20.1171 H   0  0  0  0  0  0  0  0  0  0  0  0
    6.5826    0.6866   22.3626 C   0  0  0  0  0  0  0  0  0  0  0  0
    7.5993   -1.6273   23.2890 C   0  0  0  0  0  0  0  0  0  0  0  0
    9.9825   -0.7324   21.0024 C   0  3  0  0  0  0  0  0  0  0  0  0
    6.6328    0.6168   21.2160 H   0  0  0  0  0  0  0  0  0  0  0  0
    8.0366   -0.4136   20.7744 H   0  0  0  0  0  0  0  0  0  0  0  0
    6.9919    1.6554   22.5115 H   0  0  0  0  0  0  0  0  0  0  0  0
    5.5271    0.6263   22.4647 H   0  0  0  0  0  0  0  0  0  0  0  0
    8.9648   -1.6763   23.7700 C   0  3  0  0  0  0  0  0  0  0  0  0
 16 19  1  0  0  0  0
  6 21  1  0  0  0  0
  6 19  1  0  0  0  0
 12 19  1  0  0  0  0
  8 14  1  0  0  0  0
 17 20  1  0  0  0  0
  6 13  1  0  0  0  0
  8 12  2  0  0  0  0
  5  8  1  0  0  0  0
  4 12  1  0  0  0  0
  2 18  1  0  0  0  0
 17 23  1  0  0  0  0
 17 22  1  0  0  0  0
 11 17  1  0  0  0  0
  3  5  1  0  0  0  0
  3  4  1  0  0  0  0
  4 24  1  0  0  0  0
  1  3  2  0  0  0  0
 11 18  1  0  0  0  0
 18 24  1  0  0  0  0
 15 18  1  0  0  0  0
  9 11  1  0  0  0  0
  7 11  1  0  0  0  0
 10 24  1  0  0  0  0
M  CHG  2  19   1  24   1
M  END
> <Shapegauss>
-74.656601

$$$$
