REMARK  3 active torsions:
REMARK  status: ('A' for Active; 'I' for Inactive)
REMARK    1  A    between atoms: C_8  and  C_12 
REMARK    2  A    between atoms: C_9  and  C_13 
REMARK    3  A    between atoms: C_12  and  C_15 
ROOT
HETATM    1  O   UNL     1       9.690  -4.399  23.814  1.00  0.00    -0.246 OA
HETATM    2  C   UNL     1      10.294  -3.550  23.194  1.00  0.00     0.330 C 
HETATM    3  N   UNL     1       9.844  -2.245  23.018  1.00  0.00    -0.276 N 
HETATM    4  N   UNL     1      11.445  -3.609  22.488  1.00  0.00    -0.316 N 
ATOM      5  HN  UNL     1      12.091  -4.398  22.491  1.00  0.00     0.170 HD
HETATM    6  C   UNL     1      11.622  -2.442  21.759  1.00  0.00     0.124 C 
HETATM    7  C   UNL     1      10.551  -1.680  21.862  1.00  0.00     0.073 C 
HETATM    8  C   UNL     1       8.965  -1.676  23.770  1.00  0.00     0.075 C 
ENDROOT
BRANCH   7   9
HETATM    9  C   UNL     1       9.982  -0.732  21.002  1.00  0.00     0.112 C 
HETATM   10  N   UNL     1       8.837  -0.169  21.354  1.00  0.00    -0.406 N 
HETATM   11  H   UNL     1       8.037  -0.414  20.774  1.00  0.00     0.155 HD
HETATM   12  H   UNL     1       9.037   0.244  22.277  1.00  0.00     0.155 HD
ENDBRANCH   7   9
BRANCH   8  13
HETATM   13  C   UNL     1       7.599  -1.627  23.289  1.00  0.00     0.045 C 
BRANCH  13  14
HETATM   14  C   UNL     1       7.113  -0.212  23.603  1.00  0.00     0.001 C 
HETATM   15  C   UNL     1       6.583   0.687  22.363  1.00  0.00     0.005 C 
ENDBRANCH  13  14
ENDBRANCH   8  13
TORSDOF 3
