MODEL 1
REMARK VINA RESULT:    -6.724      0.000      0.000
REMARK INTER + INTRA:         -10.547
REMARK INTER:                 -10.065
REMARK INTRA:                  -0.482
REMARK UNBOUND:                -0.482
REMARK  10 active torsions:
REMARK  status: ('A' for Active; 'I' for Inactive)
REMARK    1  A    between atoms: S_2  and  N_5 
REMARK    2  A    between atoms: N_5  and  C_7 
REMARK    3  A    between atoms: C_7  and  C_8 
REMARK    4  A    between atoms: C_9  and  C_15 
REMARK    5  A    between atoms: C_9  and  C_10 
REMARK    6  A    between atoms: C_10  and  C_11 
REMARK    7  A    between atoms: C_11  and  C_12 
REMARK    8  A    between atoms: C_12  and  C_13 
REMARK    9  A    between atoms: C_15  and  C_16 
REMARK       I    between atoms: C_16  and  N_18 
REMARK   10  A    between atoms: N_18  and  C_20 
ROOT
HETATM    1  C   UNL     1       8.638  -2.962  23.467  1.00  0.00     0.095 C 
HETATM    2  C   UNL     1       9.435  -1.932  23.459  1.00  0.00     0.023 C 
ENDROOT
BRANCH   2   3
HETATM    3  C   UNL     1       8.872  -1.376  22.538  1.00  0.00    -0.043 C 
BRANCH   3   4
HETATM    4  C   UNL     1       8.393  -0.737  21.475  1.00  0.00     0.294 C 
HETATM    5  O   UNL     1       9.194  -0.209  20.862  1.00  0.00    -0.258 OA
HETATM    6  N   UNL     1       7.086  -0.854  21.399  1.00  0.00    -0.315 N 
ATOM      7  HN  UNL     1       6.563  -1.332  22.133  1.00  0.00     0.170 HD
BRANCH   6   8
HETATM    8  C   UNL     1       6.498  -0.370  20.410  1.00  0.00     0.057 A 
HETATM    9  C   UNL     1       6.074  -0.777  19.259  1.00  0.00     0.117 A 
HETATM   10  N   UNL     1       5.511  -0.545  18.170  1.00  0.00    -0.373 N 
HETATM   11  C   UNL     1       5.234   0.663  18.377  1.00  0.00     0.088 A 
ATOM     12  HN  UNL     1       5.332  -1.147  17.365  1.00  0.00     0.164 HD
HETATM   13  C   UNL     1       5.414   1.391  19.308  1.00  0.00     0.026 A 
HETATM   14  C   UNL     1       6.000   1.150  20.472  1.00  0.00    -0.033 A 
HETATM   15  C   UNL     1       6.223   1.949  21.615  1.00  0.00     0.050 C 
ENDBRANCH   6   8
ENDBRANCH   3   4
ENDBRANCH   2   3
BRANCH   2  16
HETATM   16  C   UNL     1       9.994  -1.046  24.587  1.00  0.00     0.017 C 
BRANCH  16  17
HETATM   17  C   UNL     1      10.951  -0.332  24.464  1.00  0.00    -0.021 C 
BRANCH  17  18
HETATM   18  C   UNL     1      11.434   0.590  24.797  1.00  0.00     0.053 C 
BRANCH  18  19
HETATM   19  C   UNL     1      11.058   1.702  23.562  1.00  0.00    -0.033 C 
HETATM   20  C   UNL     1      11.116   2.637  23.597  1.00  0.00     0.007 C 
ENDBRANCH  18  19
ENDBRANCH  17  18
ENDBRANCH  16  17
ENDBRANCH   2  16
BRANCH   1  21
HETATM   21  C   UNL     1       8.200  -3.977  23.906  1.00  0.00    -0.030 C 
BRANCH  21  22
HETATM   22  N   UNL     1       7.956  -4.892  24.671  1.00  0.00    -0.250 N 
ATOM     23  HN  UNL     1       7.849  -5.813  24.246  1.00  0.00     0.188 HD
BRANCH  22  24
HETATM   24  S   UNL     1       7.781  -4.827  26.251  1.00  0.00     0.233 S 
HETATM   25  C   UNL     1       6.612  -3.462  26.539  1.00  0.00     0.186 C 
HETATM   26  O   UNL     1       7.124  -6.009  26.764  1.00  0.00    -0.205 OA
HETATM   27  O   UNL     1       8.976  -4.506  26.981  1.00  0.00    -0.205 OA
ENDBRANCH  22  24
ENDBRANCH  21  22
ENDBRANCH   1  21
TORSDOF 10
ENDMDL
MODEL 2
REMARK VINA RESULT:    -6.633      2.035      2.170
REMARK INTER + INTRA:         -10.410
REMARK INTER:                  -9.982
REMARK INTRA:                  -0.428
REMARK UNBOUND:                -0.482
REMARK  10 active torsions:
REMARK  status: ('A' for Active; 'I' for Inactive)
REMARK    1  A    between atoms: S_2  and  N_5 
REMARK    2  A    between atoms: N_5  and  C_7 
REMARK    3  A    between atoms: C_7  and  C_8 
REMARK    4  A    between atoms: C_9  and  C_15 
REMARK    5  A    between atoms: C_9  and  C_10 
REMARK    6  A    between atoms: C_10  and  C_11 
REMARK    7  A    between atoms: C_11  and  C_12 
REMARK    8  A    between atoms: C_12  and  C_13 
REMARK    9  A    between atoms: C_15  and  C_16 
REMARK       I    between atoms: C_16  and  N_18 
REMARK   10  A    between atoms: N_18  and  C_20 
ROOT
HETATM    1  C   UNL     1       8.672  -2.547  23.069  1.00  0.00     0.095 C 
HETATM    2  C   UNL     1       9.674  -1.714  23.082  1.00  0.00     0.023 C 
ENDROOT
BRANCH   2   3
HETATM    3  C   UNL     1       9.235  -1.012  22.194  1.00  0.00    -0.043 C 
BRANCH   3   4
HETATM    4  C   UNL     1       8.641  -0.345  21.209  1.00  0.00     0.294 C 
HETATM    5  O   UNL     1       9.321   0.413  20.698  1.00  0.00    -0.258 OA
HETATM    6  N   UNL     1       7.387  -0.713  21.073  1.00  0.00    -0.315 N 
ATOM      7  HN  UNL     1       6.968  -1.381  21.719  1.00  0.00     0.170 HD
BRANCH   6   8
HETATM    8  C   UNL     1       6.718  -0.227  20.137  1.00  0.00     0.057 A 
HETATM    9  C   UNL     1       6.350  -0.574  18.948  1.00  0.00     0.117 A 
HETATM   10  N   UNL     1       5.745  -0.322  17.886  1.00  0.00    -0.373 N 
HETATM   11  C   UNL     1       5.284   0.800  18.217  1.00  0.00     0.088 A 
ATOM     12  HN  UNL     1       5.654  -0.857  17.022  1.00  0.00     0.164 HD
HETATM   13  C   UNL     1       5.359   1.446  19.220  1.00  0.00     0.026 A 
HETATM   14  C   UNL     1       5.988   1.181  20.355  1.00  0.00    -0.033 A 
HETATM   15  C   UNL     1       6.096   1.882  21.576  1.00  0.00     0.050 C 
ENDBRANCH   6   8
ENDBRANCH   3   4
ENDBRANCH   2   3
BRANCH   2  16
HETATM   16  C   UNL     1      10.424  -1.015  24.231  1.00  0.00     0.017 C 
BRANCH  16  17
HETATM   17  C   UNL     1      10.749   0.140  24.212  1.00  0.00    -0.021 C 
BRANCH  17  18
HETATM   18  C   UNL     1      11.589   0.838  24.162  1.00  0.00     0.053 C 
BRANCH  18  19
HETATM   19  C   UNL     1      10.873   2.278  23.601  1.00  0.00    -0.033 C 
HETATM   20  C   UNL     1      11.239   3.142  23.614  1.00  0.00     0.007 C 
ENDBRANCH  18  19
ENDBRANCH  17  18
ENDBRANCH  16  17
ENDBRANCH   2  16
BRANCH   1  21
HETATM   21  C   UNL     1       8.030  -3.460  23.479  1.00  0.00    -0.030 C 
BRANCH  21  22
HETATM   22  N   UNL     1       7.238  -4.382  23.527  1.00  0.00    -0.250 N 
ATOM     23  HN  UNL     1       7.096  -4.803  24.446  1.00  0.00     0.188 HD
BRANCH  22  24
HETATM   24  S   UNL     1       6.398  -5.015  22.333  1.00  0.00     0.233 S 
HETATM   25  C   UNL     1       5.143  -6.056  23.141  1.00  0.00     0.186 C 
HETATM   26  O   UNL     1       5.653  -4.007  21.612  1.00  0.00    -0.205 OA
HETATM   27  O   UNL     1       7.143  -5.876  21.456  1.00  0.00    -0.205 OA
ENDBRANCH  22  24
ENDBRANCH  21  22
ENDBRANCH   1  21
TORSDOF 10
ENDMDL
MODEL 3
REMARK VINA RESULT:    -6.618      2.819      6.422
REMARK INTER + INTRA:         -10.389
REMARK INTER:                  -9.604
REMARK INTRA:                  -0.785
REMARK UNBOUND:                -0.482
REMARK  10 active torsions:
REMARK  status: ('A' for Active; 'I' for Inactive)
REMARK    1  A    between atoms: S_2  and  N_5 
REMARK    2  A    between atoms: N_5  and  C_7 
REMARK    3  A    between atoms: C_7  and  C_8 
REMARK    4  A    between atoms: C_9  and  C_15 
REMARK    5  A    between atoms: C_9  and  C_10 
REMARK    6  A    between atoms: C_10  and  C_11 
REMARK    7  A    between atoms: C_11  and  C_12 
REMARK    8  A    between atoms: C_12  and  C_13 
REMARK    9  A    between atoms: C_15  and  C_16 
REMARK       I    between atoms: C_16  and  N_18 
REMARK   10  A    between atoms: N_18  and  C_20 
ROOT
HETATM    1  C   UNL     1       8.244   0.084  21.520  1.00  0.00     0.095 C 
HETATM    2  C   UNL     1       8.600   0.431  22.724  1.00  0.00     0.023 C 
ENDROOT
BRANCH   2   3
HETATM    3  C   UNL     1       8.756  -0.707  23.116  1.00  0.00    -0.043 C 
BRANCH   3   4
HETATM    4  C   UNL     1       8.813  -1.928  23.642  1.00  0.00     0.294 C 
HETATM    5  O   UNL     1       9.676  -2.555  23.244  1.00  0.00    -0.258 OA
HETATM    6  N   UNL     1       7.831  -2.125  24.493  1.00  0.00    -0.315 N 
ATOM      7  HN  UNL     1       7.113  -1.414  24.633  1.00  0.00     0.170 HD
BRANCH   6   8
HETATM    8  C   UNL     1       7.794  -3.200  25.126  1.00  0.00     0.057 A 
HETATM    9  C   UNL     1       8.363  -3.715  26.165  1.00  0.00     0.117 A 
HETATM   10  N   UNL     1       8.515  -4.670  26.954  1.00  0.00    -0.373 N 
HETATM   11  C   UNL     1       7.665  -5.444  26.447  1.00  0.00     0.088 A 
ATOM     12  HN  UNL     1       9.135  -4.785  27.757  1.00  0.00     0.164 HD
HETATM   13  C   UNL     1       6.916  -5.336  25.522  1.00  0.00     0.026 A 
HETATM   14  C   UNL     1       6.739  -4.322  24.688  1.00  0.00    -0.033 A 
HETATM   15  C   UNL     1       5.863  -4.120  23.598  1.00  0.00     0.050 C 
ENDBRANCH   6   8
ENDBRANCH   3   4
ENDBRANCH   2   3
BRANCH   2  16
HETATM   16  C   UNL     1       9.577   1.501  23.247  1.00  0.00     0.017 C 
BRANCH  16  17
HETATM   17  C   UNL     1      10.756   1.322  23.377  1.00  0.00    -0.021 C 
BRANCH  17  18
HETATM   18  C   UNL     1      11.622   1.470  24.028  1.00  0.00     0.053 C 
BRANCH  18  19
HETATM   19  C   UNL     1      12.259  -0.100  24.200  1.00  0.00    -0.033 C 
HETATM   20  C   UNL     1      13.160  -0.345  24.300  1.00  0.00     0.007 C 
ENDBRANCH  18  19
ENDBRANCH  17  18
ENDBRANCH  16  17
ENDBRANCH   2  16
BRANCH   1  21
HETATM   21  C   UNL     1       7.965   0.288  20.382  1.00  0.00    -0.030 C 
BRANCH  21  22
HETATM   22  N   UNL     1       7.348   0.315  19.334  1.00  0.00    -0.250 N 
ATOM     23  HN  UNL     1       7.829   0.746  18.543  1.00  0.00     0.188 HD
BRANCH  22  24
HETATM   24  S   UNL     1       5.885  -0.238  19.044  1.00  0.00     0.233 S 
HETATM   25  C   UNL     1       4.769   1.127  19.496  1.00  0.00     0.186 C 
HETATM   26  O   UNL     1       5.668  -0.458  17.631  1.00  0.00    -0.205 OA
HETATM   27  O   UNL     1       5.495  -1.369  19.840  1.00  0.00    -0.205 OA
ENDBRANCH  22  24
ENDBRANCH  21  22
ENDBRANCH   1  21
TORSDOF 10
ENDMDL
MODEL 4
REMARK VINA RESULT:    -6.306      3.603      6.755
REMARK INTER + INTRA:          -9.922
REMARK INTER:                  -9.259
REMARK INTRA:                  -0.663
REMARK UNBOUND:                -0.482
REMARK  10 active torsions:
REMARK  status: ('A' for Active; 'I' for Inactive)
REMARK    1  A    between atoms: S_2  and  N_5 
REMARK    2  A    between atoms: N_5  and  C_7 
REMARK    3  A    between atoms: C_7  and  C_8 
REMARK    4  A    between atoms: C_9  and  C_15 
REMARK    5  A    between atoms: C_9  and  C_10 
REMARK    6  A    between atoms: C_10  and  C_11 
REMARK    7  A    between atoms: C_11  and  C_12 
REMARK    8  A    between atoms: C_12  and  C_13 
REMARK    9  A    between atoms: C_15  and  C_16 
REMARK       I    between atoms: C_16  and  N_18 
REMARK   10  A    between atoms: N_18  and  C_20 
ROOT
HETATM    1  C   UNL     1       9.494   0.061  21.461  1.00  0.00     0.095 C 
HETATM    2  C   UNL     1      10.443  -0.473  22.175  1.00  0.00     0.023 C 
ENDROOT
BRANCH   2   3
HETATM    3  C   UNL     1      10.696   0.545  22.786  1.00  0.00    -0.043 C 
BRANCH   3   4
HETATM    4  C   UNL     1      10.843   1.637  23.531  1.00  0.00     0.294 C 
HETATM    5  O   UNL     1      10.866   1.426  24.649  1.00  0.00    -0.258 OA
HETATM    6  N   UNL     1      10.907   2.717  22.784  1.00  0.00    -0.315 N 
ATOM      7  HN  UNL     1      10.785   2.658  21.773  1.00  0.00     0.170 HD
BRANCH   6   8
HETATM    8  C   UNL     1      11.122   3.816  23.337  1.00  0.00     0.057 A 
HETATM    9  C   UNL     1      12.137   4.569  23.599  1.00  0.00     0.117 A 
HETATM   10  N   UNL     1      12.612   5.613  24.092  1.00  0.00    -0.373 N 
HETATM   11  C   UNL     1      11.529   6.131  24.463  1.00  0.00     0.088 A 
ATOM     12  HN  UNL     1      13.575   5.941  24.168  1.00  0.00     0.164 HD
HETATM   13  C   UNL     1      10.389   5.783  24.376  1.00  0.00     0.026 A 
HETATM   14  C   UNL     1       9.876   4.683  23.844  1.00  0.00    -0.033 A 
HETATM   15  C   UNL     1       8.549   4.225  23.688  1.00  0.00     0.050 C 
ENDBRANCH   6   8
ENDBRANCH   3   4
ENDBRANCH   2   3
BRANCH   2  16
HETATM   16  C   UNL     1      10.537  -1.804  22.944  1.00  0.00     0.017 C 
BRANCH  16  17
HETATM   17  C   UNL     1       9.753  -2.144  23.786  1.00  0.00    -0.021 C 
BRANCH  17  18
HETATM   18  C   UNL     1       8.861  -2.740  23.998  1.00  0.00     0.053 C 
BRANCH  18  19
HETATM   19  C   UNL     1       8.685  -2.602  25.686  1.00  0.00    -0.033 C 
HETATM   20  C   UNL     1       8.078  -3.058  26.237  1.00  0.00     0.007 C 
ENDBRANCH  18  19
ENDBRANCH  17  18
ENDBRANCH  16  17
ENDBRANCH   2  16
BRANCH   1  21
HETATM   21  C   UNL     1       8.589   0.039  20.689  1.00  0.00    -0.030 C 
BRANCH  21  22
HETATM   22  N   UNL     1       7.965   0.008  19.645  1.00  0.00    -0.250 N 
ATOM     23  HN  UNL     1       8.496  -0.255  18.815  1.00  0.00     0.188 HD
BRANCH  22  24
HETATM   24  S   UNL     1       6.424   0.328  19.415  1.00  0.00     0.233 S 
HETATM   25  C   UNL     1       6.005   1.560  20.688  1.00  0.00     0.186 C 
HETATM   26  O   UNL     1       6.200   0.993  18.151  1.00  0.00    -0.205 OA
HETATM   27  O   UNL     1       5.537  -0.785  19.613  1.00  0.00    -0.205 OA
ENDBRANCH  22  24
ENDBRANCH  21  22
ENDBRANCH   1  21
TORSDOF 10
ENDMDL
MODEL 5
REMARK VINA RESULT:    -6.258     19.960     23.427
REMARK INTER + INTRA:          -9.849
REMARK INTER:                  -8.869
REMARK INTRA:                  -0.980
REMARK UNBOUND:                -0.482
REMARK  10 active torsions:
REMARK  status: ('A' for Active; 'I' for Inactive)
REMARK    1  A    between atoms: S_2  and  N_5 
REMARK    2  A    between atoms: N_5  and  C_7 
REMARK    3  A    between atoms: C_7  and  C_8 
REMARK    4  A    between atoms: C_9  and  C_15 
REMARK    5  A    between atoms: C_9  and  C_10 
REMARK    6  A    between atoms: C_10  and  C_11 
REMARK    7  A    between atoms: C_11  and  C_12 
REMARK    8  A    between atoms: C_12  and  C_13 
REMARK    9  A    between atoms: C_15  and  C_16 
REMARK       I    between atoms: C_16  and  N_18 
REMARK   10  A    between atoms: N_18  and  C_20 
ROOT
HETATM    1  C   UNL     1       7.237  11.438   3.384  1.00  0.00     0.095 C 
HETATM    2  C   UNL     1       6.103  11.093   2.843  1.00  0.00     0.023 C 
ENDROOT
BRANCH   2   3
HETATM    3  C   UNL     1       5.943  10.121   3.552  1.00  0.00    -0.043 C 
BRANCH   3   4
HETATM    4  C   UNL     1       5.619   9.077   4.310  1.00  0.00     0.294 C 
HETATM    5  O   UNL     1       6.015   9.148   5.375  1.00  0.00    -0.258 OA
HETATM    6  N   UNL     1       4.926   8.192   3.629  1.00  0.00    -0.315 N 
ATOM      7  HN  UNL     1       4.753   8.322   2.633  1.00  0.00     0.170 HD
BRANCH   6   8
HETATM    8  C   UNL     1       4.484   7.189   4.227  1.00  0.00     0.057 A 
HETATM    9  C   UNL     1       4.924   6.037   4.611  1.00  0.00     0.117 A 
HETATM   10  N   UNL     1       4.734   4.937   5.169  1.00  0.00    -0.373 N 
HETATM   11  C   UNL     1       3.540   5.127   5.512  1.00  0.00     0.088 A 
ATOM     12  HN  UNL     1       5.352   4.136   5.303  1.00  0.00     0.164 HD
HETATM   13  C   UNL     1       2.794   6.052   5.385  1.00  0.00     0.026 A 
HETATM   14  C   UNL     1       2.992   7.227   4.805  1.00  0.00    -0.033 A 
HETATM   15  C   UNL     1       2.170   8.364   4.643  1.00  0.00     0.050 C 
ENDBRANCH   6   8
ENDBRANCH   3   4
ENDBRANCH   2   3
BRANCH   2  16
HETATM   16  C   UNL     1       4.851  11.903   2.457  1.00  0.00     0.017 C 
BRANCH  16  17
HETATM   17  C   UNL     1       3.832  11.409   2.062  1.00  0.00    -0.021 C 
BRANCH  17  18
HETATM   18  C   UNL     1       2.758  11.298   2.237  1.00  0.00     0.053 C 
BRANCH  18  19
HETATM   19  C   UNL     1       2.323  10.004   1.218  1.00  0.00    -0.033 C 
HETATM   20  C   UNL     1       1.501   9.555   1.183  1.00  0.00     0.007 C 
ENDBRANCH  18  19
ENDBRANCH  17  18
ENDBRANCH  16  17
ENDBRANCH   2  16
BRANCH   1  21
HETATM   21  C   UNL     1       8.166  12.158   3.562  1.00  0.00    -0.030 C 
BRANCH  21  22
HETATM   22  N   UNL     1       9.233  12.722   3.409  1.00  0.00    -0.250 N 
ATOM     23  HN  UNL     1      10.030  12.121   3.198  1.00  0.00     0.188 HD
BRANCH  22  24
HETATM   24  S   UNL     1       9.539  14.280   3.498  1.00  0.00     0.233 S 
HETATM   25  C   UNL     1       8.453  15.045   2.254  1.00  0.00     0.186 C 
HETATM   26  O   UNL     1       9.118  14.835   4.766  1.00  0.00    -0.205 OA
HETATM   27  O   UNL     1      10.883  14.656   3.156  1.00  0.00    -0.205 OA
ENDBRANCH  22  24
ENDBRANCH  21  22
ENDBRANCH   1  21
TORSDOF 10
ENDMDL
MODEL 6
REMARK VINA RESULT:    -6.258      2.859      6.969
REMARK INTER + INTRA:          -9.849
REMARK INTER:                  -9.282
REMARK INTRA:                  -0.567
REMARK UNBOUND:                -0.482
REMARK  10 active torsions:
REMARK  status: ('A' for Active; 'I' for Inactive)
REMARK    1  A    between atoms: S_2  and  N_5 
REMARK    2  A    between atoms: N_5  and  C_7 
REMARK    3  A    between atoms: C_7  and  C_8 
REMARK    4  A    between atoms: C_9  and  C_15 
REMARK    5  A    between atoms: C_9  and  C_10 
REMARK    6  A    between atoms: C_10  and  C_11 
REMARK    7  A    between atoms: C_11  and  C_12 
REMARK    8  A    between atoms: C_12  and  C_13 
REMARK    9  A    between atoms: C_15  and  C_16 
REMARK       I    between atoms: C_16  and  N_18 
REMARK   10  A    between atoms: N_18  and  C_20 
ROOT
HETATM    1  C   UNL     1       9.331  -2.018  22.695  1.00  0.00     0.095 C 
HETATM    2  C   UNL     1       8.141  -2.316  22.255  1.00  0.00     0.023 C 
ENDROOT
BRANCH   2   3
HETATM    3  C   UNL     1       7.968  -3.227  23.038  1.00  0.00    -0.043 C 
BRANCH   3   4
HETATM    4  C   UNL     1       7.641  -4.241  23.834  1.00  0.00     0.294 C 
HETATM    5  O   UNL     1       7.790  -5.263  23.355  1.00  0.00    -0.258 OA
HETATM    6  N   UNL     1       7.200  -3.812  24.995  1.00  0.00    -0.315 N 
ATOM      7  HN  UNL     1       7.084  -2.814  25.170  1.00  0.00     0.170 HD
BRANCH   6   8
HETATM    8  C   UNL     1       6.925  -4.649  25.879  1.00  0.00     0.057 A 
HETATM    9  C   UNL     1       7.547  -5.293  26.809  1.00  0.00     0.117 A 
HETATM   10  N   UNL     1       7.538  -6.115  27.749  1.00  0.00    -0.373 N 
HETATM   11  C   UNL     1       6.308  -6.370  27.738  1.00  0.00     0.088 A 
ATOM     12  HN  UNL     1       8.292  -6.467  28.340  1.00  0.00     0.164 HD
HETATM   13  C   UNL     1       5.399  -5.966  27.074  1.00  0.00     0.026 A 
HETATM   14  C   UNL     1       5.398  -5.086  26.084  1.00  0.00    -0.033 A 
HETATM   15  C   UNL     1       4.367  -4.551  25.280  1.00  0.00     0.050 C 
ENDBRANCH   6   8
ENDBRANCH   3   4
ENDBRANCH   2   3
BRANCH   2  16
HETATM   16  C   UNL     1       6.921  -1.446  21.898  1.00  0.00     0.017 C 
BRANCH  16  17
HETATM   17  C   UNL     1       6.819  -0.827  20.876  1.00  0.00    -0.021 C 
BRANCH  17  18
HETATM   18  C   UNL     1       6.895   0.159  20.409  1.00  0.00     0.053 C 
BRANCH  18  19
HETATM   19  C   UNL     1       5.676   0.129  19.220  1.00  0.00    -0.033 C 
HETATM   20  C   UNL     1       5.645   0.616  18.419  1.00  0.00     0.007 C 
ENDBRANCH  18  19
ENDBRANCH  17  18
ENDBRANCH  16  17
ENDBRANCH   2  16
BRANCH   1  21
HETATM   21  C   UNL     1      10.316  -1.355  22.762  1.00  0.00    -0.030 C 
BRANCH  21  22
HETATM   22  N   UNL     1      11.051  -0.391  22.859  1.00  0.00    -0.250 N 
ATOM     23  HN  UNL     1      11.407  -0.011  21.982  1.00  0.00     0.188 HD
BRANCH  22  24
HETATM   24  S   UNL     1      11.528   0.349  24.184  1.00  0.00     0.233 S 
HETATM   25  C   UNL     1      11.314   2.122  23.835  1.00  0.00     0.186 C 
HETATM   26  O   UNL     1      10.648   0.069  25.297  1.00  0.00    -0.205 OA
HETATM   27  O   UNL     1      12.912   0.160  24.520  1.00  0.00    -0.205 OA
ENDBRANCH  22  24
ENDBRANCH  21  22
ENDBRANCH   1  21
TORSDOF 10
ENDMDL
MODEL 7
REMARK VINA RESULT:    -6.245      2.115      2.522
REMARK INTER + INTRA:          -9.830
REMARK INTER:                  -9.134
REMARK INTRA:                  -0.697
REMARK UNBOUND:                -0.482
REMARK  10 active torsions:
REMARK  status: ('A' for Active; 'I' for Inactive)
REMARK    1  A    between atoms: S_2  and  N_5 
REMARK    2  A    between atoms: N_5  and  C_7 
REMARK    3  A    between atoms: C_7  and  C_8 
REMARK    4  A    between atoms: C_9  and  C_15 
REMARK    5  A    between atoms: C_9  and  C_10 
REMARK    6  A    between atoms: C_10  and  C_11 
REMARK    7  A    between atoms: C_11  and  C_12 
REMARK    8  A    between atoms: C_12  and  C_13 
REMARK    9  A    between atoms: C_15  and  C_16 
REMARK       I    between atoms: C_16  and  N_18 
REMARK   10  A    between atoms: N_18  and  C_20 
ROOT
HETATM    1  C   UNL     1       8.997  -2.286  22.695  1.00  0.00     0.095 C 
HETATM    2  C   UNL     1       9.896  -1.480  22.205  1.00  0.00     0.023 C 
ENDROOT
BRANCH   2   3
HETATM    3  C   UNL     1       9.091  -0.683  21.769  1.00  0.00    -0.043 C 
BRANCH   3   4
HETATM    4  C   UNL     1       8.327   0.273  21.247  1.00  0.00     0.294 C 
HETATM    5  O   UNL     1       8.904   1.212  20.962  1.00  0.00    -0.258 OA
HETATM    6  N   UNL     1       7.067  -0.097  21.203  1.00  0.00    -0.315 N 
ATOM      7  HN  UNL     1       6.773  -0.990  21.599  1.00  0.00     0.170 HD
BRANCH   6   8
HETATM    8  C   UNL     1       6.237   0.667  20.668  1.00  0.00     0.057 A 
HETATM    9  C   UNL     1       5.667   1.794  20.936  1.00  0.00     0.117 A 
HETATM   10  N   UNL     1       4.875   2.707  20.626  1.00  0.00    -0.373 N 
HETATM   11  C   UNL     1       4.530   2.257  19.504  1.00  0.00     0.088 A 
ATOM     12  HN  UNL     1       4.595   3.552  21.125  1.00  0.00     0.164 HD
HETATM   13  C   UNL     1       4.847   1.284  18.886  1.00  0.00     0.026 A 
HETATM   14  C   UNL     1       5.696   0.318  19.202  1.00  0.00    -0.033 A 
HETATM   15  C   UNL     1       6.131  -0.837  18.515  1.00  0.00     0.050 C 
ENDBRANCH   6   8
ENDBRANCH   3   4
ENDBRANCH   2   3
BRANCH   2  16
HETATM   16  C   UNL     1      11.208  -0.918  22.784  1.00  0.00     0.017 C 
BRANCH  16  17
HETATM   17  C   UNL     1      11.265   0.049  23.492  1.00  0.00    -0.021 C 
BRANCH  17  18
HETATM   18  C   UNL     1      11.186   0.419  24.519  1.00  0.00     0.053 C 
BRANCH  18  19
HETATM   19  C   UNL     1      10.261   1.839  24.356  1.00  0.00    -0.033 C 
HETATM   20  C   UNL     1       9.401   2.004  24.692  1.00  0.00     0.007 C 
ENDBRANCH  18  19
ENDBRANCH  17  18
ENDBRANCH  16  17
ENDBRANCH   2  16
BRANCH   1  21
HETATM   21  C   UNL     1       8.625  -3.222  23.328  1.00  0.00    -0.030 C 
BRANCH  21  22
HETATM   22  N   UNL     1       8.155  -4.308  23.611  1.00  0.00    -0.250 N 
ATOM     23  HN  UNL     1       8.568  -4.777  24.418  1.00  0.00     0.188 HD
BRANCH  22  24
HETATM   24  S   UNL     1       6.976  -5.086  22.879  1.00  0.00     0.233 S 
HETATM   25  C   UNL     1       5.846  -5.591  24.214  1.00  0.00     0.186 C 
HETATM   26  O   UNL     1       6.200  -4.206  22.034  1.00  0.00    -0.205 OA
HETATM   27  O   UNL     1       7.373  -6.288  22.200  1.00  0.00    -0.205 OA
ENDBRANCH  22  24
ENDBRANCH  21  22
ENDBRANCH   1  21
TORSDOF 10
ENDMDL
MODEL 8
REMARK VINA RESULT:    -6.215      3.371      6.851
REMARK INTER + INTRA:          -9.785
REMARK INTER:                  -9.274
REMARK INTRA:                  -0.511
REMARK UNBOUND:                -0.482
REMARK  10 active torsions:
REMARK  status: ('A' for Active; 'I' for Inactive)
REMARK    1  A    between atoms: S_2  and  N_5 
REMARK    2  A    between atoms: N_5  and  C_7 
REMARK    3  A    between atoms: C_7  and  C_8 
REMARK    4  A    between atoms: C_9  and  C_15 
REMARK    5  A    between atoms: C_9  and  C_10 
REMARK    6  A    between atoms: C_10  and  C_11 
REMARK    7  A    between atoms: C_11  and  C_12 
REMARK    8  A    between atoms: C_12  and  C_13 
REMARK    9  A    between atoms: C_15  and  C_16 
REMARK       I    between atoms: C_16  and  N_18 
REMARK   10  A    between atoms: N_18  and  C_20 
ROOT
HETATM    1  C   UNL     1       6.996  -2.053  21.980  1.00  0.00     0.095 C 
HETATM    2  C   UNL     1       7.848  -2.412  22.897  1.00  0.00     0.023 C 
ENDROOT
BRANCH   2   3
HETATM    3  C   UNL     1       7.258  -3.431  23.191  1.00  0.00    -0.043 C 
BRANCH   3   4
HETATM    4  C   UNL     1       6.629  -4.590  23.369  1.00  0.00     0.294 C 
HETATM    5  O   UNL     1       7.182  -5.480  22.925  1.00  0.00    -0.258 OA
HETATM    6  N   UNL     1       5.494  -4.421  24.009  1.00  0.00    -0.315 N 
ATOM      7  HN  UNL     1       5.166  -3.486  24.248  1.00  0.00     0.170 HD
BRANCH   6   8
HETATM    8  C   UNL     1       4.825  -5.429  24.318  1.00  0.00     0.057 A 
HETATM    9  C   UNL     1       3.936  -6.188  23.768  1.00  0.00     0.117 A 
HETATM   10  N   UNL     1       3.163  -7.166  23.826  1.00  0.00    -0.373 N 
HETATM   11  C   UNL     1       3.472  -7.557  24.980  1.00  0.00     0.088 A 
ATOM     12  HN  UNL     1       2.493  -7.533  23.150  1.00  0.00     0.164 HD
HETATM   13  C   UNL     1       4.259  -7.162  25.789  1.00  0.00     0.026 A 
HETATM   14  C   UNL     1       5.091  -6.133  25.731  1.00  0.00    -0.033 A 
HETATM   15  C   UNL     1       6.056  -5.629  26.631  1.00  0.00     0.050 C 
ENDBRANCH   6   8
ENDBRANCH   3   4
ENDBRANCH   2   3
BRANCH   2  16
HETATM   16  C   UNL     1       9.387  -2.452  22.922  1.00  0.00     0.017 C 
BRANCH  16  17
HETATM   17  C   UNL     1      10.075  -1.521  23.239  1.00  0.00    -0.021 C 
BRANCH  17  18
HETATM   18  C   UNL     1      10.108  -0.567  23.772  1.00  0.00     0.053 C 
BRANCH  18  19
HETATM   19  C   UNL     1      11.758  -0.388  24.158  1.00  0.00    -0.033 C 
HETATM   20  C   UNL     1      12.194   0.386  24.460  1.00  0.00     0.007 C 
ENDBRANCH  18  19
ENDBRANCH  17  18
ENDBRANCH  16  17
ENDBRANCH   2  16
BRANCH   1  21
HETATM   21  C   UNL     1       6.607  -1.377  21.082  1.00  0.00    -0.030 C 
BRANCH  21  22
HETATM   22  N   UNL     1       5.927  -0.608  20.429  1.00  0.00    -0.250 N 
ATOM     23  HN  UNL     1       5.070  -0.280  20.875  1.00  0.00     0.188 HD
BRANCH  22  24
HETATM   24  S   UNL     1       6.209  -0.051  18.966  1.00  0.00     0.233 S 
HETATM   25  C   UNL     1       5.155   1.425  18.813  1.00  0.00     0.186 C 
HETATM   26  O   UNL     1       7.565   0.432  18.831  1.00  0.00    -0.205 OA
HETATM   27  O   UNL     1       5.834  -0.936  17.897  1.00  0.00    -0.205 OA
ENDBRANCH  22  24
ENDBRANCH  21  22
ENDBRANCH   1  21
TORSDOF 10
ENDMDL
MODEL 9
REMARK VINA RESULT:    -6.177     14.000     15.882
REMARK INTER + INTRA:          -9.729
REMARK INTER:                  -9.059
REMARK INTRA:                  -0.670
REMARK UNBOUND:                -0.482
REMARK  10 active torsions:
REMARK  status: ('A' for Active; 'I' for Inactive)
REMARK    1  A    between atoms: S_2  and  N_5 
REMARK    2  A    between atoms: N_5  and  C_7 
REMARK    3  A    between atoms: C_7  and  C_8 
REMARK    4  A    between atoms: C_9  and  C_15 
REMARK    5  A    between atoms: C_9  and  C_10 
REMARK    6  A    between atoms: C_10  and  C_11 
REMARK    7  A    between atoms: C_11  and  C_12 
REMARK    8  A    between atoms: C_12  and  C_13 
REMARK    9  A    between atoms: C_15  and  C_16 
REMARK       I    between atoms: C_16  and  N_18 
REMARK   10  A    between atoms: N_18  and  C_20 
ROOT
HETATM    1  C   UNL     1      24.285  -3.109  23.295  1.00  0.00     0.095 C 
HETATM    2  C   UNL     1      24.360  -1.813  23.188  1.00  0.00     0.023 C 
ENDROOT
BRANCH   2   3
HETATM    3  C   UNL     1      23.778  -1.765  22.124  1.00  0.00    -0.043 C 
BRANCH   3   4
HETATM    4  C   UNL     1      23.265  -1.770  20.897  1.00  0.00     0.294 C 
HETATM    5  O   UNL     1      22.131  -1.874  20.877  1.00  0.00    -0.258 OA
HETATM    6  N   UNL     1      24.208  -1.670  19.987  1.00  0.00    -0.315 N 
ATOM      7  HN  UNL     1      25.191  -1.663  20.256  1.00  0.00     0.170 HD
BRANCH   6   8
HETATM    8  C   UNL     1      23.875  -1.585  18.786  1.00  0.00     0.057 A 
HETATM    9  C   UNL     1      23.455  -0.672  17.976  1.00  0.00     0.117 A 
HETATM   10  N   UNL     1      23.076  -0.326  16.838  1.00  0.00    -0.373 N 
HETATM   11  C   UNL     1      23.225  -1.435  16.266  1.00  0.00     0.088 A 
ATOM     12  HN  UNL     1      22.749   0.574  16.485  1.00  0.00     0.164 HD
HETATM   13  C   UNL     1      23.617  -2.499  16.644  1.00  0.00     0.026 A 
HETATM   14  C   UNL     1      24.033  -2.871  17.846  1.00  0.00    -0.033 A 
HETATM   15  C   UNL     1      24.529  -4.094  18.351  1.00  0.00     0.050 C 
ENDBRANCH   6   8
ENDBRANCH   3   4
ENDBRANCH   2   3
BRANCH   2  16
HETATM   16  C   UNL     1      24.099  -0.674  24.191  1.00  0.00     0.017 C 
BRANCH  16  17
HETATM   17  C   UNL     1      23.249  -0.712  25.037  1.00  0.00    -0.021 C 
BRANCH  17  18
HETATM   18  C   UNL     1      22.307  -0.280  25.387  1.00  0.00     0.053 C 
BRANCH  18  19
HETATM   19  C   UNL     1      21.158  -1.478  25.005  1.00  0.00    -0.033 C 
HETATM   20  C   UNL     1      20.243  -1.480  25.211  1.00  0.00     0.007 C 
ENDBRANCH  18  19
ENDBRANCH  17  18
ENDBRANCH  16  17
ENDBRANCH   2  16
BRANCH   1  21
HETATM   21  C   UNL     1      24.408  -4.148  23.859  1.00  0.00    -0.030 C 
BRANCH  21  22
HETATM   22  N   UNL     1      24.281  -5.322  24.153  1.00  0.00    -0.250 N 
ATOM     23  HN  UNL     1      24.307  -5.983  23.377  1.00  0.00     0.188 HD
BRANCH  22  24
HETATM   24  S   UNL     1      24.078  -5.953  25.599  1.00  0.00     0.233 S 
HETATM   25  C   UNL     1      25.634  -5.619  26.481  1.00  0.00     0.186 C 
HETATM   26  O   UNL     1      23.057  -5.255  26.348  1.00  0.00    -0.205 OA
HETATM   27  O   UNL     1      23.892  -7.378  25.619  1.00  0.00    -0.205 OA
ENDBRANCH  22  24
ENDBRANCH  21  22
ENDBRANCH   1  21
TORSDOF 10
ENDMDL
