REMARK  10 active torsions:
REMARK  status: ('A' for Active; 'I' for Inactive)
REMARK    1  A    between atoms: S_2  and  N_5 
REMARK    2  A    between atoms: N_5  and  C_7 
REMARK    3  A    between atoms: C_7  and  C_8 
REMARK    4  A    between atoms: C_9  and  C_15 
REMARK    5  A    between atoms: C_9  and  C_10 
REMARK    6  A    between atoms: C_10  and  C_11 
REMARK    7  A    between atoms: C_11  and  C_12 
REMARK    8  A    between atoms: C_12  and  C_13 
REMARK    9  A    between atoms: C_15  and  C_16 
REMARK       I    between atoms: C_16  and  N_18 
REMARK   10  A    between atoms: N_18  and  C_20 
ROOT
HETATM    1  C   UNL     1       9.441  -1.991  23.501  1.00  0.00     0.095 C 
HETATM    2  C   UNL     1      10.313  -1.048  23.283  1.00  0.00     0.023 C 
ENDROOT
BRANCH   2   3
HETATM    3  C   UNL     1       9.717  -0.575  22.337  1.00  0.00    -0.043 C 
BRANCH   3   4
HETATM    4  C   UNL     1       9.046   0.067  21.385  1.00  0.00     0.294 C 
HETATM    5  O   UNL     1       9.580   0.995  20.998  1.00  0.00    -0.258 OA
HETATM    6  N   UNL     1       7.900  -0.524  21.130  1.00  0.00    -0.315 N 
ATOM      7  HN  UNL     1       7.597  -1.329  21.678  1.00  0.00     0.170 HD
BRANCH   6   8
HETATM    8  C   UNL     1       7.190  -0.080  20.204  1.00  0.00     0.057 A 
HETATM    9  C   UNL     1       7.227  -0.031  18.914  1.00  0.00     0.117 A 
HETATM   10  N   UNL     1       6.716   0.315  17.829  1.00  0.00    -0.373 N 
HETATM   11  C   UNL     1       5.665   0.825  18.293  1.00  0.00     0.088 A 
ATOM     12  HN  UNL     1       7.047   0.215  16.869  1.00  0.00     0.164 HD
HETATM   13  C   UNL     1       5.241   0.945  19.404  1.00  0.00     0.026 A 
HETATM   14  C   UNL     1       5.771   0.570  20.559  1.00  0.00    -0.033 A 
HETATM   15  C   UNL     1       5.317   0.658  21.894  1.00  0.00     0.050 C 
ENDBRANCH   6   8
ENDBRANCH   3   4
ENDBRANCH   2   3
BRANCH   2  16
HETATM   16  C   UNL     1      11.037  -0.069  24.226  1.00  0.00     0.017 C 
BRANCH  16  17
HETATM   17  C   UNL     1      12.200   0.211  24.133  1.00  0.00    -0.021 C 
BRANCH  17  18
HETATM   18  C   UNL     1      13.142  -0.012  23.624  1.00  0.00     0.053 C 
BRANCH  18  19
HETATM   19  C   UNL     1      12.737  -1.306  22.593  1.00  0.00    -0.033 C 
HETATM   20  C   UNL     1      11.898  -1.712  22.487  1.00  0.00     0.007 C 
ENDBRANCH  18  19
ENDBRANCH  17  18
ENDBRANCH  16  17
ENDBRANCH   2  16
BRANCH   1  21
HETATM   21  C   UNL     1       8.965  -2.892  24.114  1.00  0.00    -0.030 C 
BRANCH  21  22
HETATM   22  N   UNL     1       8.147  -3.621  24.643  1.00  0.00    -0.250 N 
ATOM     23  HN  UNL     1       7.314  -3.832  24.093  1.00  0.00     0.188 HD
BRANCH  22  24
HETATM   24  S   UNL     1       8.216  -4.285  26.087  1.00  0.00     0.233 S 
HETATM   25  C   UNL     1       6.527  -4.880  26.412  1.00  0.00     0.186 C 
HETATM   26  O   UNL     1       9.046  -5.469  26.091  1.00  0.00    -0.205 OA
HETATM   27  O   UNL     1       8.546  -3.382  27.155  1.00  0.00    -0.205 OA
ENDBRANCH  22  24
ENDBRANCH  21  22
ENDBRANCH   1  21
TORSDOF 10
