MODEL 1
REMARK VINA RESULT:    -3.832      0.000      0.000
REMARK INTER + INTRA:          -5.422
REMARK INTER:                  -4.952
REMARK INTRA:                  -0.470
REMARK UNBOUND:                -0.470
REMARK  5 active torsions:
REMARK  status: ('A' for Active; 'I' for Inactive)
REMARK    1  A    between atoms: N_2  and  C_4 
REMARK    2  A    between atoms: N_5  and  C_7 
REMARK    3  A    between atoms: C_7  and  C_10 
REMARK    4  A    between atoms: C_10  and  O_11 
REMARK    5  A    between atoms: O_11  and  C_12 
ROOT
HETATM    1  C   UNL     1      11.819  -0.870  23.712  1.00  0.00     0.052 A 
HETATM    2  C   UNL     1      13.291  -1.259  23.635  1.00  0.00     0.035 A 
HETATM    3  C   UNL     1      13.005  -0.227  24.190  1.00  0.00     0.035 A 
ENDROOT
BRANCH   1   4
HETATM    4  N   UNL     1      11.223  -0.996  22.545  1.00  0.00    -0.375 N 
HETATM    5  C   UNL     1      10.027  -0.917  22.069  1.00  0.00     0.171 C 
ATOM      6  HN  UNL     1      11.896  -1.219  21.811  1.00  0.00     0.161 HD
BRANCH   5   7
HETATM    7  N   UNL     1       9.589  -0.201  21.035  1.00  0.00    -0.391 N 
HETATM    8  C   UNL     1       8.198  -0.226  20.687  1.00  0.00     0.147 C 
ATOM      9  HN  UNL     1      10.242   0.363  20.492  1.00  0.00     0.159 HD
ENDBRANCH   5   7
ENDBRANCH   1   4
BRANCH   1  10
HETATM   10  C   UNL     1      10.594  -0.561  24.637  1.00  0.00     0.198 C 
BRANCH  10  11
HETATM   11  O   UNL     1      10.558   0.746  25.107  1.00  0.00    -0.389 OA
BRANCH  11  12
HETATM   12  C   UNL     1       9.916   1.885  24.512  1.00  0.00     0.163 C 
HETATM   13  C   UNL     1      10.795   2.744  23.621  1.00  0.00     0.033 C 
ENDBRANCH  11  12
ENDBRANCH  10  11
ENDBRANCH   1  10
TORSDOF 5
ENDMDL
MODEL 2
REMARK VINA RESULT:    -3.774      5.401      6.806
REMARK INTER + INTRA:          -5.348
REMARK INTER:                  -4.963
REMARK INTRA:                  -0.385
REMARK UNBOUND:                -0.470
REMARK  5 active torsions:
REMARK  status: ('A' for Active; 'I' for Inactive)
REMARK    1  A    between atoms: N_2  and  C_4 
REMARK    2  A    between atoms: N_5  and  C_7 
REMARK    3  A    between atoms: C_7  and  C_10 
REMARK    4  A    between atoms: C_10  and  O_11 
REMARK    5  A    between atoms: O_11  and  C_12 
ROOT
HETATM    1  C   UNL     1       7.255  -4.829  22.743  1.00  0.00     0.052 A 
HETATM    2  C   UNL     1       6.482  -5.294  21.514  1.00  0.00     0.035 A 
HETATM    3  C   UNL     1       7.152  -6.105  22.103  1.00  0.00     0.035 A 
ENDROOT
BRANCH   1   4
HETATM    4  N   UNL     1       7.909  -3.710  22.510  1.00  0.00    -0.375 N 
HETATM    5  C   UNL     1       8.595  -2.847  23.180  1.00  0.00     0.171 C 
ATOM      6  HN  UNL     1       7.859  -3.454  21.524  1.00  0.00     0.161 HD
BRANCH   5   7
HETATM    7  N   UNL     1       9.818  -2.383  22.930  1.00  0.00    -0.391 N 
HETATM    8  C   UNL     1       9.982  -1.171  22.181  1.00  0.00     0.147 C 
ATOM      9  HN  UNL     1      10.635  -2.888  23.270  1.00  0.00     0.159 HD
ENDBRANCH   5   7
ENDBRANCH   1   4
BRANCH   1  10
HETATM   10  C   UNL     1       7.475  -4.984  24.285  1.00  0.00     0.198 C 
BRANCH  10  11
HETATM   11  O   UNL     1       6.304  -4.924  25.031  1.00  0.00    -0.389 OA
BRANCH  11  12
HETATM   12  C   UNL     1       5.607  -6.002  25.676  1.00  0.00     0.163 C 
HETATM   13  C   UNL     1       4.645  -6.783  24.798  1.00  0.00     0.033 C 
ENDBRANCH  11  12
ENDBRANCH  10  11
ENDBRANCH   1  10
TORSDOF 5
ENDMDL
MODEL 3
REMARK VINA RESULT:    -3.638      3.759      6.026
REMARK INTER + INTRA:          -5.172
REMARK INTER:                  -4.979
REMARK INTRA:                  -0.192
REMARK UNBOUND:                -0.470
REMARK  5 active torsions:
REMARK  status: ('A' for Active; 'I' for Inactive)
REMARK    1  A    between atoms: N_2  and  C_4 
REMARK    2  A    between atoms: N_5  and  C_7 
REMARK    3  A    between atoms: C_7  and  C_10 
REMARK    4  A    between atoms: C_10  and  O_11 
REMARK    5  A    between atoms: O_11  and  C_12 
ROOT
HETATM    1  C   UNL     1       6.042   0.017  19.563  1.00  0.00     0.052 A 
HETATM    2  C   UNL     1       5.721   0.072  18.074  1.00  0.00     0.035 A 
HETATM    3  C   UNL     1       5.527   1.062  18.734  1.00  0.00     0.035 A 
ENDROOT
BRANCH   1   4
HETATM    4  N   UNL     1       5.549  -1.067  20.125  1.00  0.00    -0.375 N 
HETATM    5  C   UNL     1       5.977  -2.055  20.836  1.00  0.00     0.171 C 
ATOM      6  HN  UNL     1       4.548  -1.150  19.948  1.00  0.00     0.161 HD
BRANCH   5   7
HETATM    7  N   UNL     1       5.506  -2.510  21.995  1.00  0.00    -0.391 N 
HETATM    8  C   UNL     1       6.272  -2.338  23.195  1.00  0.00     0.147 C 
ATOM      9  HN  UNL     1       4.602  -2.980  22.030  1.00  0.00     0.159 HD
ENDBRANCH   5   7
ENDBRANCH   1   4
BRANCH   1  10
HETATM   10  C   UNL     1       6.899   0.594  20.739  1.00  0.00     0.198 C 
BRANCH  10  11
HETATM   11  O   UNL     1       8.257   0.682  20.457  1.00  0.00    -0.389 OA
BRANCH  11  12
HETATM   12  C   UNL     1       9.361   0.255  21.270  1.00  0.00     0.163 C 
HETATM   13  C   UNL     1      10.234   1.363  21.832  1.00  0.00     0.033 C 
ENDBRANCH  11  12
ENDBRANCH  10  11
ENDBRANCH   1  10
TORSDOF 5
ENDMDL
MODEL 4
REMARK VINA RESULT:    -3.620     25.201     26.622
REMARK INTER + INTRA:          -5.148
REMARK INTER:                  -4.896
REMARK INTRA:                  -0.252
REMARK UNBOUND:                -0.470
REMARK  5 active torsions:
REMARK  status: ('A' for Active; 'I' for Inactive)
REMARK    1  A    between atoms: N_2  and  C_4 
REMARK    2  A    between atoms: N_5  and  C_7 
REMARK    3  A    between atoms: C_7  and  C_10 
REMARK    4  A    between atoms: C_10  and  O_11 
REMARK    5  A    between atoms: O_11  and  C_12 
ROOT
HETATM    1  C   UNL     1      11.631  18.358   4.576  1.00  0.00     0.052 A 
HETATM    2  C   UNL     1      12.728  19.058   5.370  1.00  0.00     0.035 A 
HETATM    3  C   UNL     1      12.427  19.512   4.295  1.00  0.00     0.035 A 
ENDROOT
BRANCH   1   4
HETATM    4  N   UNL     1      11.817  17.055   4.537  1.00  0.00    -0.375 N 
HETATM    5  C   UNL     1      11.094  15.987   4.498  1.00  0.00     0.171 C 
ATOM      6  HN  UNL     1      12.811  16.825   4.539  1.00  0.00     0.161 HD
BRANCH   5   7
HETATM    7  N   UNL     1      11.167  14.966   3.647  1.00  0.00    -0.391 N 
HETATM    8  C   UNL     1      10.050  14.662   2.799  1.00  0.00     0.147 C 
ATOM      9  HN  UNL     1      12.014  14.401   3.598  1.00  0.00     0.159 HD
ENDBRANCH   5   7
ENDBRANCH   1   4
BRANCH   1  10
HETATM   10  C   UNL     1      10.213  18.473   3.922  1.00  0.00     0.198 C 
BRANCH  10  11
HETATM   11  O   UNL     1      10.241  18.716   2.554  1.00  0.00    -0.389 OA
BRANCH  11  12
HETATM   12  C   UNL     1       9.136  18.755   1.637  1.00  0.00     0.163 C 
HETATM   13  C   UNL     1       9.263  17.866   0.413  1.00  0.00     0.033 C 
ENDBRANCH  11  12
ENDBRANCH  10  11
ENDBRANCH   1  10
TORSDOF 5
ENDMDL
MODEL 5
REMARK VINA RESULT:    -3.589     25.318     26.888
REMARK INTER + INTRA:          -5.109
REMARK INTER:                  -4.806
REMARK INTRA:                  -0.302
REMARK UNBOUND:                -0.470
REMARK  5 active torsions:
REMARK  status: ('A' for Active; 'I' for Inactive)
REMARK    1  A    between atoms: N_2  and  C_4 
REMARK    2  A    between atoms: N_5  and  C_7 
REMARK    3  A    between atoms: C_7  and  C_10 
REMARK    4  A    between atoms: C_10  and  O_11 
REMARK    5  A    between atoms: O_11  and  C_12 
ROOT
HETATM    1  C   UNL     1       8.844  17.147   2.401  1.00  0.00     0.052 A 
HETATM    2  C   UNL     1       7.910  17.234   1.198  1.00  0.00     0.035 A 
HETATM    3  C   UNL     1       7.451  17.454   2.291  1.00  0.00     0.035 A 
ENDROOT
BRANCH   1   4
HETATM    4  N   UNL     1       9.570  16.049   2.372  1.00  0.00    -0.375 N 
HETATM    5  C   UNL     1       9.927  15.118   3.190  1.00  0.00     0.171 C 
ATOM      6  HN  UNL     1       9.960  15.891   1.443  1.00  0.00     0.161 HD
BRANCH   5   7
HETATM    7  N   UNL     1       9.823  13.799   3.044  1.00  0.00    -0.391 N 
HETATM    8  C   UNL     1       8.627  13.126   3.461  1.00  0.00     0.147 C 
ATOM      9  HN  UNL     1      10.592  13.268   2.635  1.00  0.00     0.159 HD
ENDBRANCH   5   7
ENDBRANCH   1   4
BRANCH   1  10
HETATM   10  C   UNL     1       9.498  17.903   3.606  1.00  0.00     0.198 C 
BRANCH  10  11
HETATM   11  O   UNL     1      10.708  18.514   3.298  1.00  0.00    -0.389 OA
BRANCH  11  12
HETATM   12  C   UNL     1      10.951  19.896   2.990  1.00  0.00     0.163 C 
HETATM   13  C   UNL     1      10.489  20.356   1.619  1.00  0.00     0.033 C 
ENDBRANCH  11  12
ENDBRANCH  10  11
ENDBRANCH   1  10
TORSDOF 5
ENDMDL
MODEL 6
REMARK VINA RESULT:    -3.550      2.283      3.553
REMARK INTER + INTRA:          -5.058
REMARK INTER:                  -4.495
REMARK INTRA:                  -0.563
REMARK UNBOUND:                -0.470
REMARK  5 active torsions:
REMARK  status: ('A' for Active; 'I' for Inactive)
REMARK    1  A    between atoms: N_2  and  C_4 
REMARK    2  A    between atoms: N_5  and  C_7 
REMARK    3  A    between atoms: C_7  and  C_10 
REMARK    4  A    between atoms: C_10  and  O_11 
REMARK    5  A    between atoms: O_11  and  C_12 
ROOT
HETATM    1  C   UNL     1      11.991  -0.491  23.707  1.00  0.00     0.052 A 
HETATM    2  C   UNL     1      13.472  -0.713  23.991  1.00  0.00     0.035 A 
HETATM    3  C   UNL     1      12.895  -1.527  23.313  1.00  0.00     0.035 A 
ENDROOT
BRANCH   1   4
HETATM    4  N   UNL     1      11.327  -0.189  24.804  1.00  0.00    -0.375 N 
HETATM    5  C   UNL     1      10.292   0.507  25.133  1.00  0.00     0.171 C 
ATOM      6  HN  UNL     1      11.750  -0.627  25.622  1.00  0.00     0.161 HD
BRANCH   5   7
HETATM    7  N   UNL     1       9.235   0.134  25.853  1.00  0.00    -0.391 N 
HETATM    8  C   UNL     1       7.912   0.363  25.350  1.00  0.00     0.147 C 
ATOM      9  HN  UNL     1       9.367  -0.314  26.759  1.00  0.00     0.159 HD
ENDBRANCH   5   7
ENDBRANCH   1   4
BRANCH   1  10
HETATM   10  C   UNL     1      10.887  -0.257  22.621  1.00  0.00     0.198 C 
BRANCH  10  11
HETATM   11  O   UNL     1      10.321  -1.428  22.130  1.00  0.00    -0.389 OA
BRANCH  11  12
HETATM   12  C   UNL     1       9.026  -1.976  22.420  1.00  0.00     0.163 C 
HETATM   13  C   UNL     1       8.950  -2.874  23.643  1.00  0.00     0.033 C 
ENDBRANCH  11  12
ENDBRANCH  10  11
ENDBRANCH   1  10
TORSDOF 5
ENDMDL
MODEL 7
REMARK VINA RESULT:    -3.543     26.554     28.170
REMARK INTER + INTRA:          -5.049
REMARK INTER:                  -4.797
REMARK INTRA:                  -0.252
REMARK UNBOUND:                -0.470
REMARK  5 active torsions:
REMARK  status: ('A' for Active; 'I' for Inactive)
REMARK    1  A    between atoms: N_2  and  C_4 
REMARK    2  A    between atoms: N_5  and  C_7 
REMARK    3  A    between atoms: C_7  and  C_10 
REMARK    4  A    between atoms: C_10  and  O_11 
REMARK    5  A    between atoms: O_11  and  C_12 
ROOT
HETATM    1  C   UNL     1       9.637  18.939   1.472  1.00  0.00     0.052 A 
HETATM    2  C   UNL     1       9.030  19.613   0.247  1.00  0.00     0.035 A 
HETATM    3  C   UNL     1       9.045  18.408   0.283  1.00  0.00     0.035 A 
ENDROOT
BRANCH   1   4
HETATM    4  N   UNL     1      10.802  19.466   1.788  1.00  0.00    -0.375 N 
HETATM    5  C   UNL     1      11.429  19.826   2.857  1.00  0.00     0.171 C 
ATOM      6  HN  UNL     1      11.365  19.638   0.956  1.00  0.00     0.161 HD
BRANCH   5   7
HETATM    7  N   UNL     1      12.656  19.491   3.252  1.00  0.00    -0.391 N 
HETATM    8  C   UNL     1      12.845  18.829   4.510  1.00  0.00     0.147 C 
ATOM      9  HN  UNL     1      13.459  19.704   2.661  1.00  0.00     0.159 HD
ENDBRANCH   5   7
ENDBRANCH   1   4
BRANCH   1  10
HETATM   10  C   UNL     1       9.400  17.991   2.696  1.00  0.00     0.198 C 
BRANCH  10  11
HETATM   11  O   UNL     1       9.401  16.640   2.372  1.00  0.00    -0.389 OA
BRANCH  11  12
HETATM   12  C   UNL     1       8.394  15.657   2.661  1.00  0.00     0.163 C 
HETATM   13  C   UNL     1       8.331  14.478   1.706  1.00  0.00     0.033 C 
ENDBRANCH  11  12
ENDBRANCH  10  11
ENDBRANCH   1  10
TORSDOF 5
ENDMDL
MODEL 8
REMARK VINA RESULT:    -3.519     10.891     13.144
REMARK INTER + INTRA:          -5.017
REMARK INTER:                  -4.753
REMARK INTRA:                  -0.265
REMARK UNBOUND:                -0.470
REMARK  5 active torsions:
REMARK  status: ('A' for Active; 'I' for Inactive)
REMARK    1  A    between atoms: N_2  and  C_4 
REMARK    2  A    between atoms: N_5  and  C_7 
REMARK    3  A    between atoms: C_7  and  C_10 
REMARK    4  A    between atoms: C_10  and  O_11 
REMARK    5  A    between atoms: O_11  and  C_12 
ROOT
HETATM    1  C   UNL     1      21.874  -1.881  25.200  1.00  0.00     0.052 A 
HETATM    2  C   UNL     1      20.433  -1.536  24.841  1.00  0.00     0.035 A 
HETATM    3  C   UNL     1      21.308  -1.161  24.101  1.00  0.00     0.035 A 
ENDROOT
BRANCH   1   4
HETATM    4  N   UNL     1      22.135  -1.617  26.463  1.00  0.00    -0.375 N 
HETATM    5  C   UNL     1      23.077  -1.063  27.149  1.00  0.00     0.171 C 
ATOM      6  HN  UNL     1      21.381  -1.940  27.070  1.00  0.00     0.161 HD
BRANCH   5   7
HETATM    7  N   UNL     1      22.985  -0.092  28.054  1.00  0.00    -0.391 N 
HETATM    8  C   UNL     1      23.945   0.974  28.059  1.00  0.00     0.147 C 
ATOM      9  HN  UNL     1      22.233  -0.105  28.743  1.00  0.00     0.159 HD
ENDBRANCH   5   7
ENDBRANCH   1   4
BRANCH   1  10
HETATM   10  C   UNL     1      23.185  -2.624  24.777  1.00  0.00     0.198 C 
BRANCH  10  11
HETATM   11  O   UNL     1      23.001  -3.970  24.481  1.00  0.00    -0.389 OA
BRANCH  11  12
HETATM   12  C   UNL     1      23.415  -5.111  25.248  1.00  0.00     0.163 C 
HETATM   13  C   UNL     1      23.909  -4.816  26.653  1.00  0.00     0.033 C 
ENDBRANCH  11  12
ENDBRANCH  10  11
ENDBRANCH   1  10
TORSDOF 5
ENDMDL
MODEL 9
REMARK VINA RESULT:    -3.473      1.877      2.445
REMARK INTER + INTRA:          -4.959
REMARK INTER:                  -4.756
REMARK INTRA:                  -0.202
REMARK UNBOUND:                -0.470
REMARK  5 active torsions:
REMARK  status: ('A' for Active; 'I' for Inactive)
REMARK    1  A    between atoms: N_2  and  C_4 
REMARK    2  A    between atoms: N_5  and  C_7 
REMARK    3  A    between atoms: C_7  and  C_10 
REMARK    4  A    between atoms: C_10  and  O_11 
REMARK    5  A    between atoms: O_11  and  C_12 
ROOT
HETATM    1  C   UNL     1      10.904   1.036  23.626  1.00  0.00     0.052 A 
HETATM    2  C   UNL     1      11.357   0.280  24.870  1.00  0.00     0.035 A 
HETATM    3  C   UNL     1      12.203   0.762  24.160  1.00  0.00     0.035 A 
ENDROOT
BRANCH   1   4
HETATM    4  N   UNL     1      10.004   0.356  22.947  1.00  0.00    -0.375 N 
HETATM    5  C   UNL     1       9.255   0.532  21.912  1.00  0.00     0.171 C 
ATOM      6  HN  UNL     1       9.858  -0.568  23.353  1.00  0.00     0.161 HD
BRANCH   5   7
HETATM    7  N   UNL     1       9.122  -0.248  20.841  1.00  0.00    -0.391 N 
HETATM    8  C   UNL     1       8.048  -0.017  19.918  1.00  0.00     0.147 C 
ATOM      9  HN  UNL     1       9.782  -1.007  20.676  1.00  0.00     0.159 HD
ENDBRANCH   5   7
ENDBRANCH   1   4
BRANCH   1  10
HETATM   10  C   UNL     1      10.881   2.402  22.862  1.00  0.00     0.198 C 
BRANCH  10  11
HETATM   11  O   UNL     1      11.029   3.512  23.685  1.00  0.00    -0.389 OA
BRANCH  11  12
HETATM   12  C   UNL     1      12.093   4.476  23.691  1.00  0.00     0.163 C 
HETATM   13  C   UNL     1      11.749   5.833  24.280  1.00  0.00     0.033 C 
ENDBRANCH  11  12
ENDBRANCH  10  11
ENDBRANCH   1  10
TORSDOF 5
ENDMDL
