stable:False satoms:10 tatoms:24 sratio:0.4166666666666667
  -OEChem-08062411033D

 35 35  0     0  0  0  0  0  0999 V2000
   -6.1194   -5.3094  -25.9690 O   0  0  0  0  0  0  0  0  0  0  0  0
   -7.5574   -4.8700  -25.7596 S   0  0  0  0  0  0  0  0  0  0  0  0
   -8.4110   -6.0167  -25.6353 O   0  0  0  0  0  0  0  0  0  0  0  0
   -8.0002   -4.0275  -26.8419 O   0  5  0  0  0  0  0  0  0  0  0  0
   -7.5359   -4.0526  -24.3945 N   0  0  0  0  0  0  0  0  0  0  0  0
   -8.4091   -3.3604  -23.9393 C   0  0  0  0  0  0  0  0  0  0  0  0
   -9.0291   -2.6039  -23.4673 C   0  0  0  0  0  0  0  0  0  0  0  0
   -9.9608   -1.8414  -22.9227 C   0  0  0  0  0  0  0  0  0  0  0  0
  -11.6112    0.3275  -23.6635 H   0  0  0  0  0  0  0  0  0  0  0  0
  -12.1976   -0.4844  -24.1186 C   0  0  0  0  0  0  0  0  0  0  0  0
  -13.2102   -0.1211  -24.3479 H   0  0  0  0  0  0  0  0  0  0  0  0
  -12.2895   -1.7136  -23.0967 C   0  0  0  0  0  0  0  0  0  0  0  0
  -11.3087   -2.0963  -22.8491 C   0  0  0  0  0  0  0  0  0  0  0  0
   -9.7001   -0.8032  -22.2160 C   0  0  0  0  0  0  0  0  0  0  0  0
   -9.0650   -0.1328  -21.2595 C   0  0  0  0  0  0  0  0  0  0  0  0
   -9.5777    0.8247  -20.7539 O   0  0  0  0  0  0  0  0  0  0  0  0
   -7.8705   -0.7230  -20.9580 N   0  0  0  0  0  0  0  0  0  0  0  0
   -7.2299   -0.0612  -20.0405 C   0  0  0  0  0  0  0  0  0  0  0  0
   -7.4177    0.0895  -18.7454 C   0  0  0  0  0  0  0  0  0  0  0  0
   -6.9800    0.4554  -17.7583 N   0  0  0  0  0  0  0  0  0  0  0  0
   -5.8822    0.9968  -18.1433 C   0  0  0  0  0  0  0  0  0  0  0  0
   -5.4633    1.0542  -19.2702 C   0  0  0  0  0  0  0  0  0  0  0  0
   -5.9276    0.6177  -20.3735 C   0  0  0  0  0  0  0  0  0  0  0  0
   -5.5287    0.6903  -21.3502 H   0  0  0  0  0  0  0  0  0  0  0  0
   -6.7446   -3.4462  -24.4730 H   0  0  0  0  0  0  0  0  0  0  0  0
  -11.7078   -0.8149  -25.0464 H   0  0  0  0  0  0  0  0  0  0  0  0
  -12.8815   -2.5182  -23.5574 H   0  0  0  0  0  0  0  0  0  0  0  0
  -12.7849   -1.3758  -22.1745 H   0  0  0  0  0  0  0  0  0  0  0  0
  -11.3495   -3.0750  -23.3495 H   0  0  0  0  0  0  0  0  0  0  0  0
  -11.4219   -2.2345  -21.7637 H   0  0  0  0  0  0  0  0  0  0  0  0
  -10.3683   -0.0604  -22.6260 H   0  0  0  0  0  0  0  0  0  0  0  0
   -7.5313   -1.5593  -21.3889 H   0  0  0  0  0  0  0  0  0  0  0  0
   -8.4020   -0.2969  -18.5259 H   0  0  0  0  0  0  0  0  0  0  0  0
   -5.2703    1.4480  -17.3763 H   0  0  0  0  0  0  0  0  0  0  0  0
   -4.5197    1.5712  -19.3633 H   0  0  0  0  0  0  0  0  0  0  0  0
 20 21  2  0  0  0  0
 19 20  1  0  0  0  0
 21 22  1  0  0  0  0
 18 19  2  0  0  0  0
 22 23  2  0  0  0  0
 18 23  1  0  0  0  0
 17 18  1  0  0  0  0
 23 24  1  0  0  0  0
 15 16  2  0  0  0  0
 15 17  1  0  0  0  0
 14 15  1  0  0  0  0
  8 14  2  3  0  0  0
  8 13  1  0  0  0  0
 12 13  1  0  0  0  0
  7  8  1  0  0  0  0
 10 12  1  0  0  0  0
  6  7  3  0  0  0  0
 10 11  1  0  0  0  0
  9 10  1  0  0  0  0
  5  6  1  0  0  0  0
  2  5  1  0  0  0  0
  2  3  2  0  0  0  0
  1  2  2  0  0  0  0
  2  4  1  0  0  0  0
  5 25  1  0  0  0  0
 10 26  1  0  0  0  0
 12 27  1  0  0  0  0
 12 28  1  0  0  0  0
 13 29  1  0  0  0  0
 13 30  1  0  0  0  0
 14 31  1  0  0  0  0
 17 32  1  0  0  0  0
 19 33  1  0  0  0  0
 21 34  1  0  0  0  0
 22 35  1  0  0  0  0
M  CHG  1   4  -1
M  END
> <Chemgauss4>
-11.986915

$$$$
