stable:False satoms:10 tatoms:24 sratio:0.4166666666666667
  -OEChem-08062411043D

 35 35  0     0  0  0  0  0  0999 V2000
    6.6843   -5.5629   25.7939 O   0  0  0  0  0  0  0  0  0  0  0  0
    8.0262   -4.8622   25.6788 S   0  0  0  0  0  0  0  0  0  0  0  0
    9.0849   -5.8292   25.6220 O   0  0  0  0  0  0  0  0  0  0  0  0
    8.2295   -3.9568   26.7815 O   0  5  0  0  0  0  0  0  0  0  0  0
    7.9458   -4.0570   24.3086 N   0  0  0  0  0  0  0  0  0  0  0  0
    8.7037   -3.2122   23.9079 C   0  0  0  0  0  0  0  0  0  0  0  0
    9.2026   -2.3512   23.4727 C   0  0  0  0  0  0  0  0  0  0  0  0
   10.0109   -1.4260   22.9862 C   0  0  0  0  0  0  0  0  0  0  0  0
   11.1741    1.0092   23.8192 H   0  0  0  0  0  0  0  0  0  0  0  0
   11.8691    0.3188   24.3196 C   0  0  0  0  0  0  0  0  0  0  0  0
   12.7783    0.8634   24.6140 H   0  0  0  0  0  0  0  0  0  0  0  0
   12.2577   -0.8672   23.3165 C   0  0  0  0  0  0  0  0  0  0  0  0
   11.3846   -1.4248   23.0062 C   0  0  0  0  0  0  0  0  0  0  0  0
    9.6101   -0.4514   22.2549 C   0  0  0  0  0  0  0  0  0  0  0  0
    8.9279    0.0933   21.2521 C   0  0  0  0  0  0  0  0  0  0  0  0
    9.2865    1.1317   20.7745 O   0  0  0  0  0  0  0  0  0  0  0  0
    7.8875   -0.7079   20.8752 N   0  0  0  0  0  0  0  0  0  0  0  0
    7.1989   -0.1729   19.9111 C   0  0  0  0  0  0  0  0  0  0  0  0
    7.4430    0.0159   18.6304 C   0  0  0  0  0  0  0  0  0  0  0  0
    7.0131    0.2984   17.6129 N   0  0  0  0  0  0  0  0  0  0  0  0
    5.8100    0.6239   17.9183 C   0  0  0  0  0  0  0  0  0  0  0  0
    5.3121    0.5971   19.0136 C   0  0  0  0  0  0  0  0  0  0  0  0
    5.7733    0.2498   20.1495 C   0  0  0  0  0  0  0  0  0  0  0  0
    5.3023    0.2424   21.0962 H   0  0  0  0  0  0  0  0  0  0  0  0
    7.0520   -3.6090   24.3283 H   0  0  0  0  0  0  0  0  0  0  0  0
   11.3874   -0.1014   25.2148 H   0  0  0  0  0  0  0  0  0  0  0  0
   12.9564   -1.5494   23.8228 H   0  0  0  0  0  0  0  0  0  0  0  0
   12.7431   -0.4388   22.4272 H   0  0  0  0  0  0  0  0  0  0  0  0
   11.5727   -2.3811   23.5163 H   0  0  0  0  0  0  0  0  0  0  0  0
   11.5951   -1.5346   21.9321 H   0  0  0  0  0  0  0  0  0  0  0  0
   10.0988    0.4011   22.7030 H   0  0  0  0  0  0  0  0  0  0  0  0
    7.6815   -1.5947   21.2891 H   0  0  0  0  0  0  0  0  0  0  0  0
    8.4947   -0.1792   18.4813 H   0  0  0  0  0  0  0  0  0  0  0  0
    5.1785    0.9566   17.1078 H   0  0  0  0  0  0  0  0  0  0  0  0
    4.2846    0.9288   19.0384 H   0  0  0  0  0  0  0  0  0  0  0  0
 20 21  2  0  0  0  0
 19 20  1  0  0  0  0
 21 22  1  0  0  0  0
 18 19  2  0  0  0  0
 22 23  2  0  0  0  0
 18 23  1  0  0  0  0
 17 18  1  0  0  0  0
 23 24  1  0  0  0  0
 15 16  2  0  0  0  0
 15 17  1  0  0  0  0
 14 15  1  0  0  0  0
  8 14  2  3  0  0  0
  8 13  1  0  0  0  0
 12 13  1  0  0  0  0
  7  8  1  0  0  0  0
 10 12  1  0  0  0  0
  6  7  3  0  0  0  0
 10 11  1  0  0  0  0
  9 10  1  0  0  0  0
  5  6  1  0  0  0  0
  2  5  1  0  0  0  0
  2  3  2  0  0  0  0
  1  2  2  0  0  0  0
  2  4  1  0  0  0  0
  5 25  1  0  0  0  0
 10 26  1  0  0  0  0
 12 27  1  0  0  0  0
 12 28  1  0  0  0  0
 13 29  1  0  0  0  0
 13 30  1  0  0  0  0
 14 31  1  0  0  0  0
 17 32  1  0  0  0  0
 19 33  1  0  0  0  0
 21 34  1  0  0  0  0
 22 35  1  0  0  0  0
M  CHG  1   4  -1
M  END
> <Chemgauss4>
-12.156654

$$$$
