REMARK  4 active torsions:
REMARK  status: ('A' for Active; 'I' for Inactive)
REMARK    1  A    between atoms: C_2  and  C_14 
REMARK    2  A    between atoms: C_3  and  C_4 
REMARK    3  A    between atoms: C_3  and  N_5 
REMARK    4  A    between atoms: C_4  and  C_10 
REMARK       I    between atoms: C_14  and  N_15 
ROOT
HETATM    1  C   UNL     1       7.901  -1.575  23.026  1.00  0.00     0.030 A 
HETATM    2  C   UNL     1       9.209  -1.588  23.678  1.00  0.00     0.083 A 
HETATM    3  C   UNL     1       8.338  -2.555  23.121  1.00  0.00     0.011 A 
ENDROOT
BRANCH   1   4
HETATM    4  C   UNL     1       6.632  -0.888  22.497  1.00  0.00     0.265 C 
HETATM    5  N   UNL     1       6.796  -0.365  21.279  1.00  0.00    -0.259 N 
HETATM    6  C   UNL     1       7.957  -0.346  20.607  1.00  0.00     0.109 C 
HETATM    7  S   UNL     1       5.572   0.608  20.698  1.00  0.00    -0.017 SA
HETATM    8  C   UNL     1       7.954   0.702  19.727  1.00  0.00     0.027 C 
HETATM    9  C   UNL     1       6.683   1.266  19.639  1.00  0.00     0.070 C 
HETATM   10  O   UNL     1       5.689  -0.834  23.151  1.00  0.00    -0.267 OA
ENDBRANCH   1   4
BRANCH   2  11
HETATM   11  C   UNL     1      10.093  -2.316  24.781  1.00  0.00     0.093 C 
HETATM   12  C   UNL     1      11.480  -2.321  24.004  1.00  0.00     0.033 C 
BRANCH  11  13
HETATM   13  N   UNL     1       9.325  -3.389  25.219  1.00  0.00    -0.425 N 
HETATM   14  H   UNL     1       8.385  -3.189  25.439  1.00  0.00     0.150 HD
ATOM     15  HN  UNL     1       9.712  -4.329  25.308  1.00  0.00     0.150 HD
ENDBRANCH  11  13
ENDBRANCH   2  11
BRANCH   2  16
HETATM   16  C   UNL     1       9.854  -0.379  23.134  1.00  0.00     0.252 C 
HETATM   17  O   UNL     1      10.083   0.423  22.502  1.00  0.00    -0.305 OA
ENDBRANCH   2  16
TORSDOF 4
