stable:False satoms:15 tatoms:24 sratio:0.625
  -OEChem-07092417323D

 24 25  0     1  0  0  0  0  0999 V2000
    8.3848   -3.1892   25.4387 H   0  0  0  0  0  0  0  0  0  0  0  0
    7.9008   -1.5745   23.0263 C   0  0  0  0  0  0  0  0  0  0  0  0
   10.0928   -2.3160   24.7810 C   0  0  1  0  0  0  0  0  0  0  0  0
    9.2085   -1.5883   23.6779 C   0  0  1  0  0  0  0  0  0  0  0  0
    9.3251   -3.3885   25.2192 N   0  5  0  0  0  0  0  0  0  0  0  0
   10.2932   -1.6977   25.6359 H   0  0  0  0  0  0  0  0  0  0  0  0
    8.3382   -2.5548   23.1214 C   0  0  0  0  0  0  0  0  0  0  0  0
   11.8942   -3.2457   24.3236 H   0  0  0  0  0  0  0  0  0  0  0  0
    7.9565   -0.3460   20.6070 C   0  0  0  0  0  0  0  0  0  0  0  0
   11.3948   -2.3149   22.9339 H   0  0  0  0  0  0  0  0  0  0  0  0
   12.1238   -1.5119   24.2834 H   0  0  0  0  0  0  0  0  0  0  0  0
   11.4799   -2.3206   24.0040 C   0  0  0  0  0  0  0  0  0  0  0  0
    8.8227    0.9664   19.1741 H   0  0  0  0  0  0  0  0  0  0  0  0
    9.8544   -0.3785   23.1343 C   0  0  0  0  0  0  0  0  0  0  0  0
   10.0826    0.4230   22.5017 O   0  0  0  0  0  0  0  0  0  0  0  0
    7.9539    0.7024   19.7270 C   0  0  0  0  0  0  0  0  0  0  0  0
    8.1461   -3.6087   22.8645 H   0  0  0  0  0  0  0  0  0  0  0  0
    5.5716    0.6075   20.6982 S   0  0  0  0  0  0  0  0  0  0  0  0
    6.6316   -0.8876   22.4968 C   0  0  0  0  0  0  0  0  0  0  0  0
    8.6172   -1.1663   20.5613 H   0  0  0  0  0  0  0  0  0  0  0  0
    6.7961   -0.3648   21.2786 N   0  3  0  0  0  0  0  0  0  0  0  0
    6.6828    1.2663   19.6391 C   0  0  0  0  0  0  0  0  0  0  0  0
    5.6894   -0.8337   23.1508 O   0  0  0  0  0  0  0  0  0  0  0  0
    6.3431    2.0323   19.0180 H   0  0  0  0  0  0  0  0  0  0  0  0
 22 24  1  0  0  0  0
 13 16  1  0  0  0  0
 16 22  2  0  0  0  0
 18 22  1  0  0  0  0
  9 16  1  0  0  0  0
  9 20  1  0  0  0  0
  9 21  2  0  0  0  0
 18 21  1  0  0  0  0
 19 21  1  0  0  0  0
  2 19  1  0  0  0  0
 19 23  2  0  0  0  0
 14 15  1  0  0  0  0
  7 17  1  0  0  0  0
 10 12  1  0  0  0  0
  2  7  2  0  0  0  0
  2  4  1  0  0  0  0
  4  7  1  0  0  0  0
  4 14  1  0  0  0  0
  3  4  1  0  0  0  0
 11 12  1  0  0  0  0
  8 12  1  0  0  0  0
  3 12  1  0  0  0  0
  3  5  1  0  0  0  0
  3  6  1  0  0  0  0
  1  5  1  0  0  0  0
M  CHG  2   5  -1  21   1
M  END
> <Shapegauss>
-134.395889

$$$$
