REMARK  6 active torsions:
REMARK  status: ('A' for Active; 'I' for Inactive)
REMARK    1  A    between atoms: C_4  and  C_5 
REMARK    2  A    between atoms: C_5  and  C_12 
REMARK    3  A    between atoms: O_13  and  O_15 
REMARK    4  A    between atoms: O_13  and  C_14 
REMARK    5  A    between atoms: O_15  and  C_18 
REMARK    6  A    between atoms: O_17  and  C_18 
ROOT
HETATM    1  H   UNL     1       7.467  -4.907  25.237  1.00  0.00     0.146 HD
HETATM    2  H   UNL     1       8.984  -4.296  24.782  1.00  0.00     0.146 HD
HETATM    3  H   UNL     1       8.887  -5.575  25.804  1.00  0.00     0.146 HD
HETATM    4  N   UNL     2       8.433  -4.845  25.305  1.00  0.00    -0.439 N 
ENDROOT
TORSDOF 6
