REMARK  7 active torsions:
REMARK  status: ('A' for Active; 'I' for Inactive)
REMARK    1  A    between atoms: S_2  and  N_5 
REMARK    2  A    between atoms: C_7  and  N_8 
REMARK    3  A    between atoms: C_10  and  C_14 
REMARK    4  A    between atoms: C_11  and  O_12 
REMARK    5  A    between atoms: C_14  and  C_15 
REMARK       I    between atoms: C_15  and  N_17 
REMARK    6  A    between atoms: N_17  and  N_20 
REMARK    7  A    between atoms: C_19  and  N_20 
ROOT
HETATM    1  N   UNL     1       8.798  -1.921  23.222  1.00  0.00    -0.347 N 
ATOM      2  HN  UNL     1       7.936  -1.844  22.683  1.00  0.00     0.167 HD
HETATM    3  C   UNL     1       9.649  -1.029  22.718  1.00  0.00     0.105 C 
ENDROOT
BRANCH   3   4
HETATM    4  C   UNL     1      10.917  -1.141  23.210  1.00  0.00     0.059 C 
HETATM    5  C   UNL     1      11.804  -0.233  23.769  1.00  0.00     0.133 C 
BRANCH   5   6
HETATM    6  O   UNL     1      13.072  -0.371  23.436  1.00  0.00    -0.373 OA
HETATM    7  H   UNL     1      13.191  -1.019  22.712  1.00  0.00     0.216 HD
ENDBRANCH   5   6
ENDBRANCH   3   4
BRANCH   3   8
HETATM    8  C   UNL     1       9.168  -0.122  21.606  1.00  0.00     0.286 C 
HETATM    9  N   UNL     1       7.963  -0.438  21.100  1.00  0.00    -0.264 N 
ATOM     10  HN  UNL     1       7.301  -0.961  21.673  1.00  0.00     0.190 HD
HETATM   11  O   UNL     1       9.830   0.792  21.184  1.00  0.00    -0.264 OA
BRANCH   9  12
HETATM   12  N   UNL     1       7.624  -0.088  19.887  1.00  0.00    -0.292 N 
ATOM     13  HN  UNL     1       8.255  -0.197  19.093  1.00  0.00     0.187 HD
BRANCH  12  14
HETATM   14  C   UNL     1       6.430   0.408  19.759  1.00  0.00     0.070 C 
HETATM   15  C   UNL     1       5.995   0.894  18.437  1.00  0.00     0.052 C 
HETATM   16  C   UNL     1       5.719   0.430  20.838  1.00  0.00    -0.015 C 
ENDBRANCH  12  14
ENDBRANCH   9  12
ENDBRANCH   3   8
BRANCH   1  17
HETATM   17  C   UNL     1       8.622  -2.761  24.028  1.00  0.00     0.193 C 
HETATM   18  N   UNL     1       8.044  -3.497  24.738  1.00  0.00    -0.268 N 
ATOM     19  HN  UNL     1       7.101  -3.654  24.382  1.00  0.00     0.180 HD
BRANCH  18  20
HETATM   20  S   UNL     1       8.259  -4.318  26.063  1.00  0.00     0.321 S 
HETATM   21 CL   UNL     1       6.532  -4.875  26.417  1.00  0.00     0.041 Cl
HETATM   22  O   UNL     1       9.113  -5.379  25.911  1.00  0.00    -0.188 OA
HETATM   23  O   UNL     1       8.579  -3.433  27.126  1.00  0.00    -0.188 OA
ENDBRANCH  18  20
ENDBRANCH   1  17
TORSDOF 7
