MODEL 1
REMARK VINA RESULT:    -5.923      0.000      0.000
REMARK INTER + INTRA:          -8.647
REMARK INTER:                  -8.174
REMARK INTRA:                  -0.474
REMARK UNBOUND:                -0.474
REMARK  7 active torsions:
REMARK  status: ('A' for Active; 'I' for Inactive)
REMARK    1  A    between atoms: S_2  and  N_5 
REMARK    2  A    between atoms: C_7  and  N_8 
REMARK    3  A    between atoms: C_10  and  C_14 
REMARK    4  A    between atoms: C_11  and  O_12 
REMARK    5  A    between atoms: C_14  and  C_15 
REMARK       I    between atoms: C_15  and  N_17 
REMARK    6  A    between atoms: N_17  and  N_20 
REMARK    7  A    between atoms: C_19  and  N_20 
ROOT
HETATM    1  N   UNL     1       8.145  15.060   2.460  1.00  0.00    -0.347 N 
ATOM      2  HN  UNL     1       7.178  14.740   2.503  1.00  0.00     0.167 HD
HETATM    3  C   UNL     1       8.869  14.200   3.173  1.00  0.00     0.105 C 
ENDROOT
BRANCH   3   4
HETATM    4  C   UNL     1      10.159  14.599   3.369  1.00  0.00     0.059 C 
HETATM    5  C   UNL     1      10.872  14.996   4.491  1.00  0.00     0.133 C 
BRANCH   5   6
HETATM    6  O   UNL     1      11.721  15.991   4.324  1.00  0.00    -0.373 OA
HETATM    7  H   UNL     1      11.570  16.712   4.969  1.00  0.00     0.216 HD
ENDBRANCH   5   6
ENDBRANCH   3   4
BRANCH   3   8
HETATM    8  C   UNL     1       8.174  12.997   3.774  1.00  0.00     0.286 C 
HETATM    9  N   UNL     1       8.299  11.860   3.067  1.00  0.00    -0.264 N 
ATOM     10  HN  UNL     1       9.094  11.746   2.439  1.00  0.00     0.190 HD
HETATM   11  O   UNL     1       7.530  13.063   4.790  1.00  0.00    -0.264 OA
BRANCH   9  12
HETATM   12  N   UNL     1       7.420  10.898   3.170  1.00  0.00    -0.292 N 
ATOM     13  HN  UNL     1       7.411  10.251   3.958  1.00  0.00     0.187 HD
BRANCH  12  14
HETATM   14  C   UNL     1       6.557  10.821   2.201  1.00  0.00     0.070 C 
HETATM   15  C   UNL     1       6.777  11.620   0.982  1.00  0.00     0.052 C 
HETATM   16  C   UNL     1       5.558  10.028   2.409  1.00  0.00    -0.015 C 
ENDBRANCH  12  14
ENDBRANCH   9  12
ENDBRANCH   3   8
BRANCH   1  17
HETATM   17  C   UNL     1       8.151  16.036   1.800  1.00  0.00     0.193 C 
HETATM   18  N   UNL     1       8.402  16.753   0.905  1.00  0.00    -0.268 N 
ATOM     19  HN  UNL     1       8.657  16.206   0.082  1.00  0.00     0.180 HD
BRANCH  18  20
HETATM   20  S   UNL     1       8.471  18.289   0.568  1.00  0.00     0.321 S 
HETATM   21 CL   UNL     1       7.968  19.028   2.187  1.00  0.00     0.041 Cl
HETATM   22  O   UNL     1       9.720  18.705   0.187  1.00  0.00    -0.188 OA
HETATM   23  O   UNL     1       7.422  18.629  -0.326  1.00  0.00    -0.188 OA
ENDBRANCH  18  20
ENDBRANCH   1  17
TORSDOF 7
ENDMDL
MODEL 2
REMARK VINA RESULT:    -5.886     22.921     24.794
REMARK INTER + INTRA:          -8.596
REMARK INTER:                  -7.997
REMARK INTRA:                  -0.599
REMARK UNBOUND:                -0.474
REMARK  7 active torsions:
REMARK  status: ('A' for Active; 'I' for Inactive)
REMARK    1  A    between atoms: S_2  and  N_5 
REMARK    2  A    between atoms: C_7  and  N_8 
REMARK    3  A    between atoms: C_10  and  C_14 
REMARK    4  A    between atoms: C_11  and  O_12 
REMARK    5  A    between atoms: C_14  and  C_15 
REMARK       I    between atoms: C_15  and  N_17 
REMARK    6  A    between atoms: N_17  and  N_20 
REMARK    7  A    between atoms: C_19  and  N_20 
ROOT
HETATM    1  N   UNL     1       8.104  -0.780  21.243  1.00  0.00    -0.347 N 
ATOM      2  HN  UNL     1       7.472  -1.462  21.662  1.00  0.00     0.167 HD
HETATM    3  C   UNL     1       9.250  -0.851  21.918  1.00  0.00     0.105 C 
ENDROOT
BRANCH   3   4
HETATM    4  C   UNL     1      10.136   0.136  21.600  1.00  0.00     0.059 C 
HETATM    5  C   UNL     1      10.474   1.341  22.199  1.00  0.00     0.133 C 
BRANCH   5   6
HETATM    6  O   UNL     1      10.698   2.356  21.389  1.00  0.00    -0.373 OA
HETATM    7  H   UNL     1      10.217   2.260  20.541  1.00  0.00     0.216 HD
ENDBRANCH   5   6
ENDBRANCH   3   4
BRANCH   3   8
HETATM    8  C   UNL     1       9.380  -1.891  23.011  1.00  0.00     0.286 C 
HETATM    9  N   UNL     1       8.908  -3.108  22.692  1.00  0.00    -0.264 N 
ATOM     10  HN  UNL     1       8.853  -3.383  21.711  1.00  0.00     0.190 HD
HETATM   11  O   UNL     1       9.840  -1.636  24.095  1.00  0.00    -0.264 OA
BRANCH   9  12
HETATM   12  N   UNL     1       8.516  -3.947  23.615  1.00  0.00    -0.292 N 
ATOM     13  HN  UNL     1       9.095  -4.175  24.423  1.00  0.00     0.187 HD
BRANCH  12  14
HETATM   14  C   UNL     1       7.341  -4.472  23.435  1.00  0.00     0.070 C 
HETATM   15  C   UNL     1       7.006  -5.042  22.118  1.00  0.00     0.052 C 
HETATM   16  C   UNL     1       6.555  -4.439  24.460  1.00  0.00    -0.015 C 
ENDBRANCH  12  14
ENDBRANCH   9  12
ENDBRANCH   3   8
BRANCH   1  17
HETATM   17  C   UNL     1       7.513  -0.262  20.367  1.00  0.00     0.193 C 
HETATM   18  N   UNL     1       6.845   0.528  19.810  1.00  0.00    -0.268 N 
ATOM     19  HN  UNL     1       6.879   1.420  20.303  1.00  0.00     0.180 HD
BRANCH  18  20
HETATM   20  S   UNL     1       5.915   0.649  18.546  1.00  0.00     0.321 S 
HETATM   21 CL   UNL     1       4.320   1.158  19.331  1.00  0.00     0.041 Cl
HETATM   22  O   UNL     1       6.352   1.578  17.638  1.00  0.00    -0.188 OA
HETATM   23  O   UNL     1       5.662  -0.642  18.015  1.00  0.00    -0.188 OA
ENDBRANCH  18  20
ENDBRANCH   1  17
TORSDOF 7
ENDMDL
MODEL 3
REMARK VINA RESULT:    -5.883     23.626     25.983
REMARK INTER + INTRA:          -8.593
REMARK INTER:                  -8.017
REMARK INTRA:                  -0.576
REMARK UNBOUND:                -0.474
REMARK  7 active torsions:
REMARK  status: ('A' for Active; 'I' for Inactive)
REMARK    1  A    between atoms: S_2  and  N_5 
REMARK    2  A    between atoms: C_7  and  N_8 
REMARK    3  A    between atoms: C_10  and  C_14 
REMARK    4  A    between atoms: C_11  and  O_12 
REMARK    5  A    between atoms: C_14  and  C_15 
REMARK       I    between atoms: C_15  and  N_17 
REMARK    6  A    between atoms: N_17  and  N_20 
REMARK    7  A    between atoms: C_19  and  N_20 
ROOT
HETATM    1  N   UNL     1       6.904  -1.603  21.646  1.00  0.00    -0.347 N 
ATOM      2  HN  UNL     1       7.658  -1.530  22.328  1.00  0.00     0.167 HD
HETATM    3  C   UNL     1       7.072  -0.608  20.777  1.00  0.00     0.105 C 
ENDROOT
BRANCH   3   4
HETATM    4  C   UNL     1       6.030  -0.455  19.908  1.00  0.00     0.059 C 
HETATM    5  C   UNL     1       5.922  -0.537  18.528  1.00  0.00     0.133 C 
BRANCH   5   6
HETATM    6  O   UNL     1       5.134   0.346  17.948  1.00  0.00    -0.373 OA
HETATM    7  H   UNL     1       5.158   1.212  18.404  1.00  0.00     0.216 HD
ENDBRANCH   5   6
ENDBRANCH   3   4
BRANCH   3   8
HETATM    8  C   UNL     1       8.282   0.288  20.932  1.00  0.00     0.286 C 
HETATM    9  N   UNL     1       9.441  -0.359  21.145  1.00  0.00    -0.264 N 
ATOM     10  HN  UNL     1       9.540  -1.324  20.830  1.00  0.00     0.190 HD
HETATM   11  O   UNL     1       8.205   1.490  20.901  1.00  0.00    -0.264 OA
BRANCH   9  12
HETATM   12  N   UNL     1      10.443   0.225  21.747  1.00  0.00    -0.292 N 
ATOM     13  HN  UNL     1      10.840   1.103  21.415  1.00  0.00     0.187 HD
BRANCH  12  14
HETATM   14  C   UNL     1      10.899  -0.387  22.799  1.00  0.00     0.070 C 
HETATM   15  C   UNL     1      11.536   0.404  23.867  1.00  0.00     0.052 C 
HETATM   16  C   UNL     1      10.748  -1.671  22.804  1.00  0.00    -0.015 C 
ENDBRANCH  12  14
ENDBRANCH   9  12
ENDBRANCH   3   8
BRANCH   1  17
HETATM   17  C   UNL     1       6.251  -2.532  21.957  1.00  0.00     0.193 C 
HETATM   18  N   UNL     1       5.342  -3.141  22.385  1.00  0.00    -0.268 N 
ATOM     19  HN  UNL     1       4.498  -2.568  22.362  1.00  0.00     0.180 HD
BRANCH  18  20
HETATM   20  S   UNL     1       5.010  -4.558  22.983  1.00  0.00     0.321 S 
HETATM   21 CL   UNL     1       5.836  -5.663  21.753  1.00  0.00     0.041 Cl
HETATM   22  O   UNL     1       5.508  -4.744  24.246  1.00  0.00    -0.188 OA
HETATM   23  O   UNL     1       3.623  -4.825  22.835  1.00  0.00    -0.188 OA
ENDBRANCH  18  20
ENDBRANCH   1  17
TORSDOF 7
ENDMDL
MODEL 4
REMARK VINA RESULT:    -5.838      3.484      6.215
REMARK INTER + INTRA:          -8.530
REMARK INTER:                  -8.198
REMARK INTRA:                  -0.333
REMARK UNBOUND:                -0.474
REMARK  7 active torsions:
REMARK  status: ('A' for Active; 'I' for Inactive)
REMARK    1  A    between atoms: S_2  and  N_5 
REMARK    2  A    between atoms: C_7  and  N_8 
REMARK    3  A    between atoms: C_10  and  C_14 
REMARK    4  A    between atoms: C_11  and  O_12 
REMARK    5  A    between atoms: C_14  and  C_15 
REMARK       I    between atoms: C_15  and  N_17 
REMARK    6  A    between atoms: N_17  and  N_20 
REMARK    7  A    between atoms: C_19  and  N_20 
ROOT
HETATM    1  N   UNL     1       8.282  14.791   2.101  1.00  0.00    -0.347 N 
ATOM      2  HN  UNL     1       7.864  15.386   1.386  1.00  0.00     0.167 HD
HETATM    3  C   UNL     1       9.244  15.505   2.684  1.00  0.00     0.105 C 
ENDROOT
BRANCH   3   4
HETATM    4  C   UNL     1      10.026  14.780   3.536  1.00  0.00     0.059 C 
HETATM    5  C   UNL     1      10.793  15.117   4.641  1.00  0.00     0.133 C 
BRANCH   5   6
HETATM    6  O   UNL     1      11.949  14.494   4.764  1.00  0.00    -0.373 OA
HETATM    7  H   UNL     1      12.700  15.062   4.496  1.00  0.00     0.216 HD
ENDBRANCH   5   6
ENDBRANCH   3   4
BRANCH   3   8
HETATM    8  C   UNL     1       9.437  16.942   2.251  1.00  0.00     0.286 C 
HETATM    9  N   UNL     1       9.268  17.164   0.936  1.00  0.00    -0.264 N 
ATOM     10  HN  UNL     1       8.688  16.527   0.391  1.00  0.00     0.190 HD
HETATM   11  O   UNL     1       9.752  17.813   3.022  1.00  0.00    -0.264 OA
BRANCH   9  12
HETATM   12  N   UNL     1       9.834  18.182   0.342  1.00  0.00    -0.292 N 
ATOM     13  HN  UNL     1      10.787  18.140  -0.020  1.00  0.00     0.187 HD
BRANCH  12  14
HETATM   14  C   UNL     1       9.103  19.251   0.243  1.00  0.00     0.070 C 
HETATM   15  C   UNL     1       7.678  19.114  -0.112  1.00  0.00     0.052 C 
HETATM   16  C   UNL     1       9.716  20.367   0.469  1.00  0.00    -0.015 C 
ENDBRANCH  12  14
ENDBRANCH   9  12
ENDBRANCH   3   8
BRANCH   1  17
HETATM   17  C   UNL     1       7.712  13.761   2.064  1.00  0.00     0.193 C 
HETATM   18  N   UNL     1       7.527  12.605   2.155  1.00  0.00    -0.268 N 
ATOM     19  HN  UNL     1       8.206  12.195   2.796  1.00  0.00     0.180 HD
BRANCH  18  20
HETATM   20  S   UNL     1       6.567  11.486   1.605  1.00  0.00     0.321 S 
HETATM   21 CL   UNL     1       4.942  12.367   1.642  1.00  0.00     0.041 Cl
HETATM   22  O   UNL     1       6.889  11.069   0.340  1.00  0.00    -0.188 OA
HETATM   23  O   UNL     1       6.440  10.451   2.568  1.00  0.00    -0.188 OA
ENDBRANCH  18  20
ENDBRANCH   1  17
TORSDOF 7
ENDMDL
MODEL 5
REMARK VINA RESULT:    -5.558     26.771     28.924
REMARK INTER + INTRA:          -8.143
REMARK INTER:                  -7.604
REMARK INTRA:                  -0.540
REMARK UNBOUND:                -0.474
REMARK  7 active torsions:
REMARK  status: ('A' for Active; 'I' for Inactive)
REMARK    1  A    between atoms: S_2  and  N_5 
REMARK    2  A    between atoms: C_7  and  N_8 
REMARK    3  A    between atoms: C_10  and  C_14 
REMARK    4  A    between atoms: C_11  and  O_12 
REMARK    5  A    between atoms: C_14  and  C_15 
REMARK       I    between atoms: C_15  and  N_17 
REMARK    6  A    between atoms: N_17  and  N_20 
REMARK    7  A    between atoms: C_19  and  N_20 
ROOT
HETATM    1  N   UNL     1       7.988  -3.782  23.020  1.00  0.00    -0.347 N 
ATOM      2  HN  UNL     1       7.528  -3.799  22.110  1.00  0.00     0.167 HD
HETATM    3  C   UNL     1       7.404  -4.719  23.765  1.00  0.00     0.105 C 
ENDROOT
BRANCH   3   4
HETATM    4  C   UNL     1       7.780  -4.692  25.076  1.00  0.00     0.059 C 
HETATM    5  C   UNL     1       8.688  -5.430  25.821  1.00  0.00     0.133 C 
BRANCH   5   6
HETATM    6  O   UNL     1       8.320  -5.749  27.046  1.00  0.00    -0.373 OA
HETATM    7  H   UNL     1       7.894  -4.997  27.507  1.00  0.00     0.216 HD
ENDBRANCH   5   6
ENDBRANCH   3   4
BRANCH   3   8
HETATM    8  C   UNL     1       6.335  -5.582  23.130  1.00  0.00     0.286 C 
HETATM    9  N   UNL     1       5.196  -5.683  23.837  1.00  0.00    -0.264 N 
ATOM     10  HN  UNL     1       4.950  -4.947  24.498  1.00  0.00     0.190 HD
HETATM   11  O   UNL     1       6.505  -6.162  22.087  1.00  0.00    -0.264 OA
BRANCH   9  12
HETATM   12  N   UNL     1       4.397  -6.708  23.693  1.00  0.00    -0.292 N 
ATOM     13  HN  UNL     1       4.162  -7.090  22.777  1.00  0.00     0.187 HD
BRANCH  12  14
HETATM   14  C   UNL     1       3.921  -7.207  24.794  1.00  0.00     0.070 C 
HETATM   15  C   UNL     1       4.593  -6.898  26.069  1.00  0.00     0.052 C 
HETATM   16  C   UNL     1       2.873  -7.951  24.659  1.00  0.00    -0.015 C 
ENDBRANCH  12  14
ENDBRANCH   9  12
ENDBRANCH   3   8
BRANCH   1  17
HETATM   17  C   UNL     1       8.811  -2.942  22.971  1.00  0.00     0.193 C 
HETATM   18  N   UNL     1       9.718  -2.316  22.562  1.00  0.00    -0.268 N 
ATOM     19  HN  UNL     1       9.805  -2.448  21.554  1.00  0.00     0.180 HD
BRANCH  18  20
HETATM   20  S   UNL     1      10.841  -1.340  23.073  1.00  0.00     0.321 S 
HETATM   21 CL   UNL     1      10.522   0.146  22.021  1.00  0.00     0.041 Cl
HETATM   22  O   UNL     1      10.740  -1.048  24.408  1.00  0.00    -0.188 OA
HETATM   23  O   UNL     1      12.112  -1.814  22.653  1.00  0.00    -0.188 OA
ENDBRANCH  18  20
ENDBRANCH   1  17
TORSDOF 7
ENDMDL
MODEL 6
REMARK VINA RESULT:    -5.466     23.572     25.826
REMARK INTER + INTRA:          -8.016
REMARK INTER:                  -7.449
REMARK INTRA:                  -0.568
REMARK UNBOUND:                -0.474
REMARK  7 active torsions:
REMARK  status: ('A' for Active; 'I' for Inactive)
REMARK    1  A    between atoms: S_2  and  N_5 
REMARK    2  A    between atoms: C_7  and  N_8 
REMARK    3  A    between atoms: C_10  and  C_14 
REMARK    4  A    between atoms: C_11  and  O_12 
REMARK    5  A    between atoms: C_14  and  C_15 
REMARK       I    between atoms: C_15  and  N_17 
REMARK    6  A    between atoms: N_17  and  N_20 
REMARK    7  A    between atoms: C_19  and  N_20 
ROOT
HETATM    1  N   UNL     1       6.839  -1.722  22.013  1.00  0.00    -0.347 N 
ATOM      2  HN  UNL     1       5.993  -1.184  21.830  1.00  0.00     0.167 HD
HETATM    3  C   UNL     1       7.870  -0.942  21.691  1.00  0.00     0.105 C 
ENDROOT
BRANCH   3   4
HETATM    4  C   UNL     1       9.072  -1.588  21.701  1.00  0.00     0.059 C 
HETATM    5  C   UNL     1      10.151  -1.576  22.572  1.00  0.00     0.133 C 
BRANCH   5   6
HETATM    6  O   UNL     1      11.349  -1.615  22.022  1.00  0.00    -0.373 OA
HETATM    7  H   UNL     1      12.059  -1.516  22.688  1.00  0.00     0.216 HD
ENDBRANCH   5   6
ENDBRANCH   3   4
BRANCH   3   8
HETATM    8  C   UNL     1       7.587   0.475  21.239  1.00  0.00     0.286 C 
HETATM    9  N   UNL     1       6.283   0.788  21.142  1.00  0.00    -0.264 N 
ATOM     10  HN  UNL     1       5.601   0.269  21.695  1.00  0.00     0.190 HD
HETATM   11  O   UNL     1       8.464   1.250  20.955  1.00  0.00    -0.264 OA
BRANCH   9  12
HETATM   12  N   UNL     1       5.873   1.746  20.352  1.00  0.00    -0.292 N 
ATOM     13  HN  UNL     1       6.227   2.700  20.425  1.00  0.00     0.187 HD
BRANCH  12  14
HETATM   14  C   UNL     1       4.985   1.402  19.469  1.00  0.00     0.070 C 
HETATM   15  C   UNL     1       5.386   0.525  18.354  1.00  0.00     0.052 C 
HETATM   16  C   UNL     1       3.799   1.881  19.658  1.00  0.00    -0.015 C 
ENDBRANCH  12  14
ENDBRANCH   9  12
ENDBRANCH   3   8
BRANCH   1  17
HETATM   17  C   UNL     1       6.494  -2.772  22.420  1.00  0.00     0.193 C 
HETATM   18  N   UNL     1       6.518  -3.772  23.035  1.00  0.00    -0.268 N 
ATOM     19  HN  UNL     1       7.118  -3.663  23.853  1.00  0.00     0.180 HD
BRANCH  18  20
HETATM   20  S   UNL     1       5.920  -5.227  23.002  1.00  0.00     0.321 S 
HETATM   21 CL   UNL     1       7.123  -6.077  21.884  1.00  0.00     0.041 Cl
HETATM   22  O   UNL     1       5.868  -5.821  24.236  1.00  0.00    -0.188 OA
HETATM   23  O   UNL     1       4.697  -5.224  22.281  1.00  0.00    -0.188 OA
ENDBRANCH  18  20
ENDBRANCH   1  17
TORSDOF 7
ENDMDL
MODEL 7
REMARK VINA RESULT:    -5.433     27.242     29.563
REMARK INTER + INTRA:          -7.971
REMARK INTER:                  -7.414
REMARK INTRA:                  -0.557
REMARK UNBOUND:                -0.474
REMARK  7 active torsions:
REMARK  status: ('A' for Active; 'I' for Inactive)
REMARK    1  A    between atoms: S_2  and  N_5 
REMARK    2  A    between atoms: C_7  and  N_8 
REMARK    3  A    between atoms: C_10  and  C_14 
REMARK    4  A    between atoms: C_11  and  O_12 
REMARK    5  A    between atoms: C_14  and  C_15 
REMARK       I    between atoms: C_15  and  N_17 
REMARK    6  A    between atoms: N_17  and  N_20 
REMARK    7  A    between atoms: C_19  and  N_20 
ROOT
HETATM    1  N   UNL     1       7.546  -3.652  24.870  1.00  0.00    -0.347 N 
ATOM      2  HN  UNL     1       7.717  -2.665  25.061  1.00  0.00     0.167 HD
HETATM    3  C   UNL     1       7.849  -3.855  23.589  1.00  0.00     0.105 C 
ENDROOT
BRANCH   3   4
HETATM    4  C   UNL     1       7.492  -5.089  23.129  1.00  0.00     0.059 C 
HETATM    5  C   UNL     1       7.017  -5.549  21.909  1.00  0.00     0.133 C 
BRANCH   5   6
HETATM    6  O   UNL     1       6.084  -6.479  21.957  1.00  0.00    -0.373 OA
HETATM    7  H   UNL     1       6.385  -7.319  21.556  1.00  0.00     0.216 HD
ENDBRANCH   5   6
ENDBRANCH   3   4
BRANCH   3   8
HETATM    8  C   UNL     1       8.405  -2.698  22.788  1.00  0.00     0.286 C 
HETATM    9  N   UNL     1       9.729  -2.503  22.921  1.00  0.00    -0.264 N 
ATOM     10  HN  UNL     1      10.325  -3.283  23.197  1.00  0.00     0.190 HD
HETATM   11  O   UNL     1       7.709  -1.985  22.110  1.00  0.00    -0.264 OA
BRANCH   9  12
HETATM   12  N   UNL     1      10.267  -1.331  22.703  1.00  0.00    -0.292 N 
ATOM     13  HN  UNL     1      10.191  -0.857  21.803  1.00  0.00     0.187 HD
BRANCH  12  14
HETATM   14  C   UNL     1      10.906  -0.811  23.708  1.00  0.00     0.070 C 
HETATM   15  C   UNL     1      10.135  -0.201  24.806  1.00  0.00     0.052 C 
HETATM   16  C   UNL     1      12.195  -0.880  23.642  1.00  0.00    -0.015 C 
ENDBRANCH  12  14
ENDBRANCH   9  12
ENDBRANCH   3   8
BRANCH   1  17
HETATM   17  C   UNL     1       7.164  -4.133  25.874  1.00  0.00     0.193 C 
HETATM   18  N   UNL     1       7.193  -4.547  26.973  1.00  0.00    -0.268 N 
ATOM     19  HN  UNL     1       7.979  -4.138  27.479  1.00  0.00     0.180 HD
BRANCH  18  20
HETATM   20  S   UNL     1       6.407  -5.533  27.915  1.00  0.00     0.321 S 
HETATM   21 CL   UNL     1       5.391  -6.463  26.682  1.00  0.00     0.041 Cl
HETATM   22  O   UNL     1       7.226  -6.368  28.630  1.00  0.00    -0.188 OA
HETATM   23  O   UNL     1       5.464  -4.806  28.687  1.00  0.00    -0.188 OA
ENDBRANCH  18  20
ENDBRANCH   1  17
TORSDOF 7
ENDMDL
MODEL 8
REMARK VINA RESULT:    -5.425     22.736     24.230
REMARK INTER + INTRA:          -7.960
REMARK INTER:                  -7.408
REMARK INTRA:                  -0.552
REMARK UNBOUND:                -0.474
REMARK  7 active torsions:
REMARK  status: ('A' for Active; 'I' for Inactive)
REMARK    1  A    between atoms: S_2  and  N_5 
REMARK    2  A    between atoms: C_7  and  N_8 
REMARK    3  A    between atoms: C_10  and  C_14 
REMARK    4  A    between atoms: C_11  and  O_12 
REMARK    5  A    between atoms: C_14  and  C_15 
REMARK       I    between atoms: C_15  and  N_17 
REMARK    6  A    between atoms: N_17  and  N_20 
REMARK    7  A    between atoms: C_19  and  N_20 
ROOT
HETATM    1  N   UNL     1       9.059   1.585  21.974  1.00  0.00    -0.347 N 
ATOM      2  HN  UNL     1       9.295   2.540  21.704  1.00  0.00     0.167 HD
HETATM    3  C   UNL     1       9.904   1.239  22.944  1.00  0.00     0.105 C 
ENDROOT
BRANCH   3   4
HETATM    4  C   UNL     1       9.839  -0.081  23.283  1.00  0.00     0.059 C 
HETATM    5  C   UNL     1      10.583  -1.194  22.918  1.00  0.00     0.133 C 
BRANCH   5   6
HETATM    6  O   UNL     1       9.911  -2.313  22.735  1.00  0.00    -0.373 OA
HETATM    7  H   UNL     1       9.643  -2.721  23.584  1.00  0.00     0.216 HD
ENDBRANCH   5   6
ENDBRANCH   3   4
BRANCH   3   8
HETATM    8  C   UNL     1      10.891   2.272  23.443  1.00  0.00     0.286 C 
HETATM    9  N   UNL     1      10.560   3.547  23.172  1.00  0.00    -0.264 N 
ATOM     10  HN  UNL     1       9.581   3.789  23.019  1.00  0.00     0.190 HD
HETATM   11  O   UNL     1      11.911   1.972  24.009  1.00  0.00    -0.264 OA
BRANCH   9  12
HETATM   12  N   UNL     1      11.470   4.483  23.101  1.00  0.00    -0.292 N 
ATOM     13  HN  UNL     1      12.339   4.359  22.582  1.00  0.00     0.187 HD
BRANCH  12  14
HETATM   14  C   UNL     1      11.195   5.583  23.736  1.00  0.00     0.070 C 
HETATM   15  C   UNL     1      12.197   6.147  24.658  1.00  0.00     0.052 C 
HETATM   16  C   UNL     1      10.031   6.089  23.491  1.00  0.00    -0.015 C 
ENDBRANCH  12  14
ENDBRANCH   9  12
ENDBRANCH   3   8
BRANCH   1  17
HETATM   17  C   UNL     1       8.154   1.253  21.298  1.00  0.00     0.193 C 
HETATM   18  N   UNL     1       7.369   0.546  20.785  1.00  0.00    -0.268 N 
ATOM     19  HN  UNL     1       7.261  -0.308  21.332  1.00  0.00     0.180 HD
BRANCH  18  20
HETATM   20  S   UNL     1       6.430   0.495  19.523  1.00  0.00     0.321 S 
HETATM   21 CL   UNL     1       5.216   1.829  19.932  1.00  0.00     0.041 Cl
HETATM   22  O   UNL     1       7.087   0.750  18.348  1.00  0.00    -0.188 OA
HETATM   23  O   UNL     1       5.670  -0.704  19.542  1.00  0.00    -0.188 OA
ENDBRANCH  18  20
ENDBRANCH   1  17
TORSDOF 7
ENDMDL
MODEL 9
REMARK VINA RESULT:    -5.379      3.993      6.540
REMARK INTER + INTRA:          -7.896
REMARK INTER:                  -7.344
REMARK INTRA:                  -0.552
REMARK UNBOUND:                -0.474
REMARK  7 active torsions:
REMARK  status: ('A' for Active; 'I' for Inactive)
REMARK    1  A    between atoms: S_2  and  N_5 
REMARK    2  A    between atoms: C_7  and  N_8 
REMARK    3  A    between atoms: C_10  and  C_14 
REMARK    4  A    between atoms: C_11  and  O_12 
REMARK    5  A    between atoms: C_14  and  C_15 
REMARK       I    between atoms: C_15  and  N_17 
REMARK    6  A    between atoms: N_17  and  N_20 
REMARK    7  A    between atoms: C_19  and  N_20 
ROOT
HETATM    1  N   UNL     1       7.539  13.316   1.761  1.00  0.00    -0.347 N 
ATOM      2  HN  UNL     1       7.986  13.391   0.848  1.00  0.00     0.167 HD
HETATM    3  C   UNL     1       8.008  14.318   2.503  1.00  0.00     0.105 C 
ENDROOT
BRANCH   3   4
HETATM    4  C   UNL     1       7.647  14.243   3.817  1.00  0.00     0.059 C 
HETATM    5  C   UNL     1       7.403  15.198   4.793  1.00  0.00     0.133 C 
BRANCH   5   6
HETATM    6  O   UNL     1       7.836  14.922   6.006  1.00  0.00    -0.373 OA
HETATM    7  H   UNL     1       7.306  14.217   6.432  1.00  0.00     0.216 HD
ENDBRANCH   5   6
ENDBRANCH   3   4
BRANCH   3   8
HETATM    8  C   UNL     1       8.957  15.307   1.862  1.00  0.00     0.286 C 
HETATM    9  N   UNL     1       8.364  16.371   1.292  1.00  0.00    -0.264 N 
ATOM     10  HN  UNL     1       7.442  16.663   1.615  1.00  0.00     0.190 HD
HETATM   11  O   UNL     1      10.149  15.136   1.836  1.00  0.00    -0.264 OA
BRANCH   9  12
HETATM   12  N   UNL     1       8.948  17.038   0.331  1.00  0.00    -0.292 N 
ATOM     13  HN  UNL     1       9.423  16.573  -0.443  1.00  0.00     0.187 HD
BRANCH  12  14
HETATM   14  C   UNL     1       8.882  18.332   0.425  1.00  0.00     0.070 C 
HETATM   15  C   UNL     1       9.916  19.047   1.195  1.00  0.00     0.052 C 
HETATM   16  C   UNL     1       7.882  18.883  -0.182  1.00  0.00    -0.015 C 
ENDBRANCH  12  14
ENDBRANCH   9  12
ENDBRANCH   3   8
BRANCH   1  17
HETATM   17  C   UNL     1       6.826  12.380   1.716  1.00  0.00     0.193 C 
HETATM   18  N   UNL     1       5.848  11.753   1.546  1.00  0.00    -0.268 N 
ATOM     19  HN  UNL     1       5.228  12.244   0.901  1.00  0.00     0.180 HD
BRANCH  18  20
HETATM   20  S   UNL     1       5.186  10.397   1.994  1.00  0.00     0.321 S 
HETATM   21 CL   UNL     1       6.021  10.118   3.620  1.00  0.00     0.041 Cl
HETATM   22  O   UNL     1       3.825  10.477   2.130  1.00  0.00    -0.188 OA
HETATM   23  O   UNL     1       5.649   9.343   1.164  1.00  0.00    -0.188 OA
ENDBRANCH  18  20
ENDBRANCH   1  17
TORSDOF 7
ENDMDL
