stable:False satoms:10 tatoms:24 sratio:0.4166666666666667
  -OEChem-07092417493D

 24 24  0     1  0  0  0  0  0999 V2000
    6.5475   -4.8527   26.4815 C   0  0  0  0  0  0  0  0  0  0  0  0
    8.2456   -4.2951   26.0821 S   0  0  0  0  0  0  0  0  0  0  0  0
    9.0519   -5.4724   26.0479 O   0  0  0  0  0  0  0  0  0  0  0  0
    8.6007   -3.4161   27.1335 O   0  0  0  0  0  0  0  0  0  0  0  0
    8.0779   -3.5382   24.6827 N   0  0  0  0  0  0  0  0  0  0  0  0
    8.9674   -2.9011   24.1641 C   0  0  0  0  0  0  0  0  0  0  0  0
    9.4206   -1.9552   23.5135 C   0  0  0  0  0  0  0  0  0  0  0  0
   10.3204   -1.1904   23.2167 C   0  0  1  0  0  0  0  0  0  0  0  0
   11.0879    0.0525   24.3280 C   0  0  0  0  0  0  0  0  0  0  0  0
   11.9755    0.3345   24.3007 C   0  0  0  0  0  0  0  0  0  0  0  0
   13.1567   -0.2887   23.3507 C   0  0  0  0  0  0  0  0  0  0  0  0
   12.7339   -1.2599   22.6533 C   0  0  0  0  0  0  0  0  0  0  0  0
   11.7802   -1.7599   22.5021 C   0  0  0  0  0  0  0  0  0  0  0  0
    9.7408   -0.5466   22.3216 C   0  0  0  0  0  0  0  0  0  0  0  0
    9.0957    0.0424   21.3822 C   0  0  0  0  0  0  0  0  0  0  0  0
    9.5764    0.9795   20.9865 O   0  0  0  0  0  0  0  0  0  0  0  0
    7.9406   -0.5737   21.0762 N   0  0  0  0  0  0  0  0  0  0  0  0
    7.2038   -0.1251   20.1763 C   0  0  0  0  0  0  0  0  0  0  0  0
    7.2402   -0.0287   18.8584 C   0  0  0  0  0  0  0  0  0  0  0  0
    6.7699    0.3155   17.7942 N   0  0  0  0  0  0  0  0  0  0  0  0
    5.6398    0.8989   18.2381 C   0  0  0  0  0  0  0  0  0  0  0  0
    5.2599    1.0163   19.4751 C   0  0  0  0  0  0  0  0  0  0  0  0
    5.8174    0.5913   20.5824 C   0  0  0  0  0  0  0  0  0  0  0  0
    5.3336    0.6825   21.9488 C   0  0  0  0  0  0  0  0  0  0  0  0
 20 21  2  0  0  0  0
 19 20  1  0  0  0  0
 21 22  1  0  0  0  0
 18 19  2  0  0  0  0
 22 23  2  0  0  0  0
 18 23  1  0  0  0  0
 17 18  1  0  0  0  0
 23 24  1  0  0  0  0
 15 16  2  0  0  0  0
 15 17  1  0  0  0  0
 14 15  1  0  0  0  0
  8 14  1  0  0  0  0
 12 13  2  0  0  0  0
  8 13  1  0  0  0  0
 11 12  1  0  0  0  0
  7  8  1  0  0  0  0
 10 11  1  0  0  0  0
  6  7  2  0  0  0  0
  5  6  1  0  0  0  0
  9 10  2  0  0  0  0
  2  5  1  0  0  0  0
  2  3  2  0  0  0  0
  1  2  1  0  0  0  0
  2  4  2  0  0  0  0
M  END
> <Shapegauss>
-286.049103

$$$$
