stable:False satoms:10 tatoms:24 sratio:0.4166666666666667
  -OEChem-08062416353D

 47 47  0     1  0  0  0  0  0999 V2000
    6.2706   -5.1877   26.2830 C   0  0  0  0  0  0  0  0  0  0  0  0
    7.9797   -4.5834   26.0226 S   0  0  0  0  0  0  0  0  0  0  0  0
    8.8103   -5.7437   25.9920 O   0  0  0  0  0  0  0  0  0  0  0  0
    8.2464   -3.7455   27.1321 O   0  0  0  0  0  0  0  0  0  0  0  0
    7.8895   -3.7685   24.6488 N   0  0  0  0  0  0  0  0  0  0  0  0
    8.7982   -3.0936   24.2188 C   0  0  0  0  0  0  0  0  0  0  0  0
    9.2741   -2.1122   23.6412 C   0  0  0  0  0  0  0  0  0  0  0  0
   10.1758   -1.3194   23.4384 C   0  0  1  0  0  0  0  0  0  0  0  0
   10.8425   -0.1135   24.6509 C   0  0  0  0  0  0  0  0  0  0  0  0
   11.7241    0.1849   24.6952 C   0  0  0  0  0  0  0  0  0  0  0  0
   12.9780   -0.3750   23.8006 C   0  0  0  0  0  0  0  0  0  0  0  0
   12.6222   -1.3217   23.0355 C   0  0  0  0  0  0  0  0  0  0  0  0
   11.6910   -1.8311   22.7994 C   0  0  0  0  0  0  0  0  0  0  0  0
    9.6437   -0.6469   22.5349 C   0  0  0  0  0  0  0  0  0  0  0  0
    9.0502   -0.0284   21.5805 C   0  0  0  0  0  0  0  0  0  0  0  0
    9.5369    0.9335   21.2584 O   0  0  0  0  0  0  0  0  0  0  0  0
    7.9307   -0.6505   21.1717 N   0  0  0  0  0  0  0  0  0  0  0  0
    7.2461   -0.1756   20.2445 C   0  0  0  0  0  0  0  0  0  0  0  0
    7.3676   -0.0205   18.9373 C   0  0  0  0  0  0  0  0  0  0  0  0
    6.9619    0.3621   17.8598 N   0  0  0  0  0  0  0  0  0  0  0  0
    5.7932    0.9054   18.2516 C   0  0  0  0  0  0  0  0  0  0  0  0
    5.3300    0.9614   19.4642 C   0  0  0  0  0  0  0  0  0  0  0  0
    5.8215    0.4978   20.5871 C   0  0  0  0  0  0  0  0  0  0  0  0
    5.2466    0.5201   21.9207 C   0  0  0  0  0  0  0  0  0  0  0  0
    6.2248   -5.7689   27.2158 H   0  0  0  0  0  0  0  0  0  0  0  0
    5.5850   -4.3302   26.3514 H   0  0  0  0  0  0  0  0  0  0  0  0
    5.9751   -5.8269   25.4380 H   0  0  0  0  0  0  0  0  0  0  0  0
    7.1101   -3.1497   24.7469 H   0  0  0  0  0  0  0  0  0  0  0  0
    9.6741   -3.6645   24.4895 H   0  0  0  0  0  0  0  0  0  0  0  0
    8.4877   -1.7929   22.9733 H   0  0  0  0  0  0  0  0  0  0  0  0
   10.4133   -0.7110   24.3235 H   0  0  0  0  0  0  0  0  0  0  0  0
   10.5726   -0.8997   23.9613 H   0  0  0  0  0  0  0  0  0  0  0  0
   10.0906    0.3268   25.2890 H   0  0  0  0  0  0  0  0  0  0  0  0
   11.9396    0.9729   25.4016 H   0  0  0  0  0  0  0  0  0  0  0  0
   13.7641   -0.7402   24.4779 H   0  0  0  0  0  0  0  0  0  0  0  0
   13.3748    0.4483   23.1884 H   0  0  0  0  0  0  0  0  0  0  0  0
   13.4546   -1.7236   22.4770 H   0  0  0  0  0  0  0  0  0  0  0  0
   11.7172   -2.6874   22.1417 H   0  0  0  0  0  0  0  0  0  0  0  0
   10.6285   -0.3519   22.1437 H   0  0  0  0  0  0  0  0  0  0  0  0
    9.2994    0.1015   23.2639 H   0  0  0  0  0  0  0  0  0  0  0  0
    7.6452   -1.5004   21.6146 H   0  0  0  0  0  0  0  0  0  0  0  0
    8.3255   -0.4652   18.7111 H   0  0  0  0  0  0  0  0  0  0  0  0
    5.1775    1.3394   17.4776 H   0  0  0  0  0  0  0  0  0  0  0  0
    4.3847    1.4743   19.5630 H   0  0  0  0  0  0  0  0  0  0  0  0
    4.6376   -0.3831   22.0732 H   0  0  0  0  0  0  0  0  0  0  0  0
    6.0538    0.5483   22.6674 H   0  0  0  0  0  0  0  0  0  0  0  0
    4.6130    1.4124   22.0318 H   0  0  0  0  0  0  0  0  0  0  0  0
 20 21  2  0  0  0  0
 19 20  1  0  0  0  0
 21 22  1  0  0  0  0
 18 19  2  0  0  0  0
 22 23  2  0  0  0  0
 18 23  1  0  0  0  0
 17 18  1  0  0  0  0
 23 24  1  0  0  0  0
 15 16  2  0  0  0  0
 15 17  1  0  0  0  0
 14 15  1  0  0  0  0
  8 14  1  0  0  0  0
 12 13  2  0  0  0  0
  8 13  1  0  0  0  0
 11 12  1  0  0  0  0
  7  8  1  0  0  0  0
 10 11  1  0  0  0  0
  6  7  2  0  0  0  0
  5  6  1  0  0  0  0
  9 10  2  0  0  0  0
  2  5  1  0  0  0  0
  2  3  2  0  0  0  0
  1  2  1  0  0  0  0
  2  4  2  0  0  0  0
  1 25  1  0  0  0  0
  1 26  1  0  0  0  0
  1 27  1  0  0  0  0
  5 28  1  0  0  0  0
  6 29  1  0  0  0  0
  7 30  1  0  0  0  0
  8 31  1  0  0  0  0
  9 32  1  0  0  0  0
  9 33  1  0  0  0  0
 10 34  1  0  0  0  0
 11 35  1  0  0  0  0
 11 36  1  0  0  0  0
 12 37  1  0  0  0  0
 13 38  1  0  0  0  0
 14 39  1  0  0  0  0
 14 40  1  0  0  0  0
 17 41  1  0  0  0  0
 19 42  1  0  0  0  0
 21 43  1  0  0  0  0
 22 44  1  0  0  0  0
 24 45  1  0  0  0  0
 24 46  1  0  0  0  0
 24 47  1  0  0  0  0
M  END
> <Chemgauss4>
-13.177330

$$$$
