REMARK  10 active torsions:
REMARK  status: ('A' for Active; 'I' for Inactive)
REMARK    1  A    between atoms: P_1  and  O5'_29 
REMARK    2  A    between atoms: C1'_15  and  N10_17 
REMARK    3  A    between atoms: C1'_15  and  C2'_19 
REMARK    4  A    between atoms: C2'_19  and  O2'_20 
REMARK    5  A    between atoms: C2'_19  and  C3'_22 
REMARK    6  A    between atoms: C3'_22  and  O3'_23 
REMARK    7  A    between atoms: C3'_22  and  C4'_25 
REMARK    8  A    between atoms: C4'_25  and  O4'_26 
REMARK    9  A    between atoms: C4'_25  and  C5'_28 
REMARK   10  A    between atoms: C5'_28  and  O5'_29 
ROOT
HETATM    1  N1  FMN B 177     -19.091  56.315  18.896  1.00 15.89    -0.292 N 
ATOM      2  H1  FMN B 177     -19.646  56.516  18.064  1.00  0.00     0.172 HD
HETATM    3  C2  FMN B 177     -19.700  55.983  20.084  1.00 16.80     0.328 A 
HETATM    4  O2  FMN B 177     -20.897  56.003  20.186  1.00 20.01    -0.247 OA
HETATM    5  N3  FMN B 177     -18.955  55.627  21.216  1.00 16.03    -0.273 N 
HETATM    6  C4  FMN B 177     -17.590  55.652  21.233  1.00 18.69     0.280 A 
HETATM    7  O4  FMN B 177     -16.950  55.380  22.217  1.00 18.14    -0.265 OA
HETATM    8  N5  FMN B 177     -15.595  55.983  19.943  1.00 16.07    -0.347 N 
ATOM      9  H5  FMN B 177     -15.056  55.696  20.760  1.00  0.00     0.166 HD
HETATM   10  C6  FMN B 177     -13.562  56.151  18.628  1.00 17.19     0.039 C 
HETATM   11  C7  FMN B 177     -12.904  56.464  17.419  1.00 18.31    -0.054 C 
HETATM   12  C8  FMN B 177     -13.685  56.946  16.287  1.00 15.51    -0.054 C 
HETATM   13  C9  FMN B 177     -15.024  57.194  16.471  1.00 15.28     0.039 C 
HETATM   14  C10 FMN B 177     -17.776  56.368  18.857  1.00 16.66     0.145 A 
HETATM   15  N10 FMN B 177     -17.139  56.862  17.754  1.00 17.38    -0.327 N 
HETATM   16  C4A FMN B 177     -16.909  56.025  19.977  1.00 16.57     0.146 A 
HETATM   17  C5A FMN B 177     -14.974  56.338  18.772  1.00 17.67     0.060 C 
HETATM   18  C7M FMN B 177     -11.404  56.322  17.302  1.00 17.23     0.049 C 
HETATM   19  C8M FMN B 177     -13.076  57.189  14.916  1.00 15.72     0.049 C 
HETATM   20  C9A FMN B 177     -15.712  56.853  17.661  1.00 17.10     0.063 C 
HETATM   21  H3  FMN B 177     -19.441  55.344  22.043  1.00 20.00     0.173 HD
ENDROOT
BRANCH  15  22
HETATM   22  C1' FMN B 177     -17.927  57.359  16.618  1.00 14.49     0.165 C 
BRANCH  22  23
HETATM   23  C2' FMN B 177     -18.056  58.883  16.607  1.00 15.21     0.167 C 
BRANCH  23  24
HETATM   24  O2' FMN B 177     -18.748  59.425  17.740  1.00 13.85    -0.391 OA
HETATM   25  H2' FMN B 177     -18.363  59.085  18.539  1.00 20.00     0.210 HD
ENDBRANCH  23  24
BRANCH  23  26
HETATM   26  C3' FMN B 177     -18.760  59.324  15.318  1.00 16.36     0.179 C 
BRANCH  26  27
HETATM   27  O3' FMN B 177     -17.900  59.078  14.188  1.00 13.59    -0.390 OA
HETATM   28  H3' FMN B 177     -18.336  58.494  13.579  1.00 20.00     0.210 HD
ENDBRANCH  26  27
BRANCH  26  29
HETATM   29  C4' FMN B 177     -19.363  60.754  15.260  1.00 16.96     0.173 C 
BRANCH  29  30
HETATM   30  O4' FMN B 177     -20.206  60.886  14.106  1.00 17.30    -0.391 OA
HETATM   31  H4' FMN B 177     -20.335  60.033  13.708  1.00 20.00     0.210 HD
ENDBRANCH  29  30
BRANCH  29  32
HETATM   32  C5' FMN B 177     -18.292  61.832  15.474  1.00 16.03     0.217 C 
BRANCH  32  33
HETATM   33  O5' FMN B 177     -18.871  63.132  15.627  1.00 13.26    -0.280 OA
BRANCH  33  34
HETATM   34  P   FMN B 177     -18.036  64.343  15.448  1.00 15.16     0.422 P 
HETATM   35  O1P FMN B 177     -17.777  64.640  14.070  1.00 15.36    -0.617 OA
HETATM   36  O2P FMN B 177     -16.852  64.296  16.291  1.00 16.12    -0.617 OA
HETATM   37  O3P FMN B 177     -18.920  65.371  15.907  1.00 12.97    -0.617 OA
ENDBRANCH  33  34
ENDBRANCH  32  33
ENDBRANCH  29  32
ENDBRANCH  26  29
ENDBRANCH  23  26
ENDBRANCH  22  23
ENDBRANCH  15  22
TORSDOF 10
