stable:False satoms:15 tatoms:24 sratio:0.625
  -OEChem-07092417353D

 24 25  0     1  0  0  0  0  0999 V2000
    7.4907   -4.8550   26.0837 N   0  0  0  0  0  0  0  0  0  0  0  0
    8.4920   -3.2335   24.7073 N   0  0  0  0  0  0  0  0  0  0  0  0
    8.2122   -4.1737   25.2991 C   0  0  1  0  0  0  0  0  0  0  0  0
    7.8567   -4.2268   27.0285 O   0  0  0  0  0  0  0  0  0  0  0  0
    8.3819   -2.6041   23.4961 N   0  0  0  0  0  0  0  0  0  0  0  0
    7.6970   -3.0953   22.9583 H   0  0  0  0  0  0  0  0  0  0  0  0
   10.5076   -0.6233   25.2866 O   0  0  0  0  0  0  0  0  0  0  0  0
   10.1496   -1.1684   24.3277 C   0  0  0  0  0  0  0  0  0  0  0  0
    9.9493   -1.8949   25.3057 N   0  0  0  0  0  0  0  0  0  0  0  0
   11.7555    0.3605   23.3585 H   0  0  0  0  0  0  0  0  0  0  0  0
   12.3515   -1.2771   23.2175 H   0  0  0  0  0  0  0  0  0  0  0  0
   11.8628   -0.4293   21.7842 H   0  0  0  0  0  0  0  0  0  0  0  0
   11.6060   -0.5782   22.8203 C   0  0  0  0  0  0  0  0  0  0  0  0
   10.1178   -0.9693   22.9842 C   0  0  0  0  0  0  0  0  0  0  0  0
    8.8225   -1.3805   22.5215 C   0  0  0  0  0  0  0  0  0  0  0  0
    9.4070    0.6109   21.2156 H   0  0  0  0  0  0  0  0  0  0  0  0
    8.4852    0.8254   20.8758 N   0  5  0  0  0  0  0  0  0  0  0  0
    7.7297   -0.2380   20.7035 C   0  0  0  0  0  0  0  0  0  0  0  0
    6.9913   -0.4453   19.5945 N   0  0  0  0  0  0  0  0  0  0  0  0
    6.6790    1.1165   18.3107 H   0  0  0  0  0  0  0  0  0  0  0  0
    5.2439    0.1815   18.7217 H   0  0  0  0  0  0  0  0  0  0  0  0
    5.8693    1.3421   19.8951 H   0  0  0  0  0  0  0  0  0  0  0  0
    7.7610   -1.1291   21.6604 N   0  3  0  0  0  0  0  0  0  0  0  0
    6.1646    0.5945   19.1402 C   0  0  0  0  0  0  0  0  0  0  0  0
 20 24  1  0  0  0  0
 21 24  1  0  0  0  0
 19 24  1  0  0  0  0
 22 24  1  0  0  0  0
 18 19  1  0  0  0  0
 17 18  1  0  0  0  0
 18 23  2  0  0  0  0
 16 17  1  0  0  0  0
 15 23  2  0  0  0  0
 12 13  1  0  0  0  0
 14 15  1  0  0  0  0
  5 15  1  0  0  0  0
 13 14  1  0  0  0  0
 11 13  1  0  0  0  0
 10 13  1  0  0  0  0
  5  6  1  0  0  0  0
  8 14  2  3  0  0  0
  2  5  1  0  0  0  0
  7  8  1  0  0  0  0
  8  9  1  0  0  0  0
  2  3  1  0  0  0  0
  7  9  1  0  0  0  0
  1  3  1  0  0  0  0
  3  4  1  0  0  0  0
  1  4  1  0  0  0  0
M  CHG  2  17  -1  23   1
M  END
> <Shapegauss>
-169.050690

$$$$
