stable:False satoms:15 tatoms:24 sratio:0.625
  -OEChem-08062402463D

 31 32  0     1  0  0  0  0  0999 V2000
    5.9254   -0.7184   23.3272 N   0  0  0  0  0  0  0  0  0  0  0  0
    8.1107    0.0719   23.6827 N   0  3  0  0  0  0  0  0  0  0  0  0
    7.1650   -0.4660   23.3237 C   0  0  1  0  0  0  0  0  0  0  0  0
    6.0081   -1.3053   24.3615 O   0  0  0  0  0  0  0  0  0  0  0  0
    8.9416    1.1368   23.4574 N   0  0  0  0  0  0  0  0  0  0  0  0
    8.4876    1.7458   22.8074 H   0  0  0  0  0  0  0  0  0  0  0  0
   10.5051   -0.6503   25.9090 O   0  0  0  0  0  0  0  0  0  0  0  0
   10.4746   -0.0278   24.9310 C   0  0  0  0  0  0  0  0  0  0  0  0
    9.4918   -0.7742   24.9673 N   0  0  0  0  0  0  0  0  0  0  0  0
   12.8462    0.0614   25.4035 H   0  0  0  0  0  0  0  0  0  0  0  0
   12.5737   -0.8988   23.9680 H   0  0  0  0  0  0  0  0  0  0  0  0
   13.3472    0.6474   23.8162 H   0  0  0  0  0  0  0  0  0  0  0  0
   12.5672    0.1290   24.3496 C   0  0  0  0  0  0  0  0  0  0  0  0
   11.2257    0.8971   24.2783 C   0  0  0  0  0  0  0  0  0  0  0  0
   10.3310    1.9099   23.7938 C   0  0  0  0  0  0  0  0  0  0  0  0
   11.9872    3.1583   25.0937 H   0  0  0  0  0  0  0  0  0  0  0  0
   11.9629    4.0117   24.5731 N   0  0  0  0  0  0  0  0  0  0  0  0
   11.0025    4.2217   23.6985 C   0  0  0  0  0  0  0  0  0  0  0  0
   10.9331    5.3290   22.9322 N   0  0  0  0  0  0  0  0  0  0  0  0
   12.0956    6.9404   23.4190 H   0  0  0  0  0  0  0  0  0  0  0  0
   10.4103    7.3084   23.0623 H   0  0  0  0  0  0  0  0  0  0  0  0
   10.8161    6.6104   24.6318 H   0  0  0  0  0  0  0  0  0  0  0  0
   10.1197    3.2652   23.5703 N   0  3  0  0  0  0  0  0  0  0  0  0
   11.0579    6.5804   23.5563 C   0  0  0  0  0  0  0  0  0  0  0  0
    5.3495    0.0978   23.3736 H   0  0  0  0  0  0  0  0  0  0  0  0
    8.7695   -0.6788   23.6332 H   0  0  0  0  0  0  0  0  0  0  0  0
    7.5679   -1.3420   22.7943 H   0  0  0  0  0  0  0  0  0  0  0  0
    8.5745   -0.4162   25.1420 H   0  0  0  0  0  0  0  0  0  0  0  0
   12.6685    4.7056   24.7171 H   0  0  0  0  0  0  0  0  0  0  0  0
   10.7961    5.2606   21.9440 H   0  0  0  0  0  0  0  0  0  0  0  0
    7.8663    0.2385   24.6379 H   0  0  0  0  0  0  0  0  0  0  0  0
 20 24  1  0  0  0  0
 21 24  1  0  0  0  0
 19 24  1  0  0  0  0
 22 24  1  0  0  0  0
 18 19  1  0  0  0  0
 17 18  1  0  0  0  0
 18 23  2  0  0  0  0
 16 17  1  0  0  0  0
 15 23  2  0  0  0  0
 12 13  1  0  0  0  0
 14 15  1  0  0  0  0
  5 15  1  0  0  0  0
 13 14  1  0  0  0  0
 11 13  1  0  0  0  0
 10 13  1  0  0  0  0
  5  6  1  0  0  0  0
  8 14  2  3  0  0  0
  2  5  1  0  0  0  0
  7  8  1  0  0  0  0
  8  9  1  0  0  0  0
  2  3  1  0  0  0  0
  7  9  1  0  0  0  0
  1  3  1  0  0  0  0
  3  4  1  0  0  0  0
  1  4  1  0  0  0  0
  1 25  1  0  0  0  0
  2 26  1  0  0  0  0
  3 27  1  0  0  0  0
  9 28  1  0  0  0  0
 17 29  1  0  0  0  0
 19 30  1  0  0  0  0
  2 31  1  0  0  0  0
M  CHG  2   2   1  23   1
M  END
> <Chemgauss4>
-6.023402

$$$$
