stable:False satoms:15 tatoms:24 sratio:0.625
  -OEChem-08062402463D

 31 32  0     1  0  0  0  0  0999 V2000
   -6.0142   -1.0583  -23.2684 N   0  0  0  0  0  0  0  0  0  0  0  0
   -8.1411   -0.0982  -23.5529 N   0  3  0  0  0  0  0  0  0  0  0  0
   -7.2257   -0.6981  -23.2143 C   0  0  1  0  0  0  0  0  0  0  0  0
   -6.2049   -1.6874  -24.2629 O   0  0  0  0  0  0  0  0  0  0  0  0
   -8.8646    1.0455  -23.3440 N   0  0  0  0  0  0  0  0  0  0  0  0
   -8.3244    1.6445  -22.7533 H   0  0  0  0  0  0  0  0  0  0  0  0
  -10.7105   -0.7194  -25.6080 O   0  0  0  0  0  0  0  0  0  0  0  0
  -10.5719   -0.0532  -24.6690 C   0  0  0  0  0  0  0  0  0  0  0  0
   -9.6596   -0.8839  -24.7150 N   0  0  0  0  0  0  0  0  0  0  0  0
  -12.9503    0.2198  -25.0215 H   0  0  0  0  0  0  0  0  0  0  0  0
  -12.6795   -0.6866  -23.5512 H   0  0  0  0  0  0  0  0  0  0  0  0
  -13.3090    0.9272  -23.4453 H   0  0  0  0  0  0  0  0  0  0  0  0
  -12.6073    0.3160  -23.9889 C   0  0  0  0  0  0  0  0  0  0  0  0
  -11.2035    0.9659  -24.0302 C   0  0  0  0  0  0  0  0  0  0  0  0
  -10.2001    1.9196  -23.6499 C   0  0  0  0  0  0  0  0  0  0  0  0
  -11.8154    3.2410  -24.9290 H   0  0  0  0  0  0  0  0  0  0  0  0
  -11.6892    4.1143  -24.4585 N   0  0  0  0  0  0  0  0  0  0  0  0
  -10.6665    4.2833  -23.6481 C   0  0  0  0  0  0  0  0  0  0  0  0
  -10.4600    5.4176  -22.9490 N   0  0  0  0  0  0  0  0  0  0  0  0
  -11.5072    7.0981  -23.4631 H   0  0  0  0  0  0  0  0  0  0  0  0
   -9.7793    7.3343  -23.2156 H   0  0  0  0  0  0  0  0  0  0  0  0
  -10.3311    6.5959  -24.7207 H   0  0  0  0  0  0  0  0  0  0  0  0
   -9.8622    3.2607  -23.5132 N   0  3  0  0  0  0  0  0  0  0  0  0
  -10.5133    6.6419  -23.6341 C   0  0  0  0  0  0  0  0  0  0  0  0
   -5.3747   -0.2991  -23.3899 H   0  0  0  0  0  0  0  0  0  0  0  0
   -8.8574   -0.7847  -23.4276 H   0  0  0  0  0  0  0  0  0  0  0  0
   -7.6709   -1.5075  -22.6170 H   0  0  0  0  0  0  0  0  0  0  0  0
   -8.7267   -0.6171  -24.9568 H   0  0  0  0  0  0  0  0  0  0  0  0
  -12.3404    4.8592  -24.6038 H   0  0  0  0  0  0  0  0  0  0  0  0
  -10.2736    5.3876  -21.9670 H   0  0  0  0  0  0  0  0  0  0  0  0
   -7.9380   -0.0024  -24.5273 H   0  0  0  0  0  0  0  0  0  0  0  0
 20 24  1  0  0  0  0
 21 24  1  0  0  0  0
 19 24  1  0  0  0  0
 22 24  1  0  0  0  0
 18 19  1  0  0  0  0
 17 18  1  0  0  0  0
 18 23  2  0  0  0  0
 16 17  1  0  0  0  0
 15 23  2  0  0  0  0
 12 13  1  0  0  0  0
 14 15  1  0  0  0  0
  5 15  1  0  0  0  0
 13 14  1  0  0  0  0
 11 13  1  0  0  0  0
 10 13  1  0  0  0  0
  5  6  1  0  0  0  0
  8 14  2  3  0  0  0
  2  5  1  0  0  0  0
  7  8  1  0  0  0  0
  8  9  1  0  0  0  0
  2  3  1  0  0  0  0
  7  9  1  0  0  0  0
  1  3  1  0  0  0  0
  3  4  1  0  0  0  0
  1  4  1  0  0  0  0
  1 25  1  0  0  0  0
  2 26  1  0  0  0  0
  3 27  1  0  0  0  0
  9 28  1  0  0  0  0
 17 29  1  0  0  0  0
 19 30  1  0  0  0  0
  2 31  1  0  0  0  0
M  CHG  2   2   1  23   1
M  END
> <Chemgauss4>
-5.969445

$$$$
