stable:False satoms:16 tatoms:24 sratio:0.6666666666666666
  -OEChem-07092417343D

 24 23  0     0  0  0  0  0  0999 V2000
    7.6589   -2.8026   25.3961 H   0  0  0  0  0  0  0  0  0  0  0  0
    8.7783   -5.1102   25.2119 H   0  0  0  0  0  0  0  0  0  0  0  0
    9.0882   -4.3238   26.7082 H   0  0  0  0  0  0  0  0  0  0  0  0
    9.1162   -4.1577   25.6353 C   0  0  0  0  0  0  0  0  0  0  0  0
    8.6076   -3.0458   24.8861 C   0  0  0  0  0  0  0  0  0  0  0  0
    9.9664   -3.3105   25.1422 O   0  0  0  0  0  0  0  0  0  0  0  0
    8.5842   -2.6140   23.8869 H   0  0  0  0  0  0  0  0  0  0  0  0
   11.8114   -0.3917   22.9223 C   0  0  0  0  0  0  0  0  0  0  0  0
   10.3094   -0.5404   24.8744 O   0  0  0  0  0  0  0  0  0  0  0  0
   10.9233   -0.4001   23.9847 C   0  0  0  0  0  0  0  0  0  0  0  0
   12.7897   -0.1106   23.3217 H   0  0  0  0  0  0  0  0  0  0  0  0
   11.5909    0.3153   22.1288 H   0  0  0  0  0  0  0  0  0  0  0  0
   11.8191   -1.3825   22.4857 H   0  0  0  0  0  0  0  0  0  0  0  0
    9.6317   -0.4222   21.7721 N   0  5  0  0  0  0  0  0  0  0  0  0
    7.8005   -0.2071   21.2153 C   0  0  0  0  0  0  0  0  0  0  0  0
    8.4579   -0.4441   23.0886 H   0  0  0  0  0  0  0  0  0  0  0  0
    8.6262   -0.5450   22.1066 N   0  3  0  0  0  0  0  0  0  0  0  0
    7.9160   -0.5868   19.5116 S   0  0  0  0  0  0  0  0  0  0  0  0
    6.4773    0.2673   19.2575 C   0  0  0  0  0  0  0  0  0  0  0  0
    6.2378   -0.1090   17.2262 N   0  0  0  0  0  0  0  0  0  0  0  0
    5.9549    0.4786   18.0544 O   0  0  0  0  0  0  0  0  0  0  0  0
    5.8919    0.6503   20.4428 C   0  0  0  0  0  0  0  0  0  0  0  0
    4.9600    1.1458   20.5296 H   0  0  0  0  0  0  0  0  0  0  0  0
    6.5865    0.3568   21.5075 N   0  0  0  0  0  0  0  0  0  0  0  0
 20 21  1  0  0  0  0
 19 21  1  0  0  0  0
 18 19  1  0  0  0  0
 19 22  2  0  0  0  0
 15 18  1  0  0  0  0
 22 23  1  0  0  0  0
 22 24  1  0  0  0  0
 15 24  2  0  0  0  0
 15 17  1  0  0  0  0
 14 17  2  0  0  0  0
 16 17  1  0  0  0  0
  8 12  1  0  0  0  0
  8 13  1  0  0  0  0
  8 11  1  0  0  0  0
  8 10  1  0  0  0  0
  5  7  1  0  0  0  0
  9 10  1  0  0  0  0
  5  6  1  0  0  0  0
  1  5  1  0  0  0  0
  4  5  1  0  0  0  0
  4  6  1  0  0  0  0
  2  4  1  0  0  0  0
  3  4  1  0  0  0  0
M  CHG  2  14  -1  17   1
M  END
> <Shapegauss>
-171.989288

$$$$
