stable:False satoms:13 tatoms:24 sratio:0.5416666666666666
  -OEChem-07092417363D

 24 25  0     1  0  0  0  0  0999 V2000
    7.5231   -4.6764   25.7791 H   0  0  0  0  0  0  0  0  0  0  0  0
    8.5153   -4.3635   25.6852 C   0  3  0  0  0  0  0  0  0  0  0  0
    9.2858   -5.0778   25.7258 H   0  0  0  0  0  0  0  0  0  0  0  0
    8.9098   -2.7430   25.6090 S   0  0  0  0  0  0  0  0  0  0  0  0
    7.3667   -1.6442   23.6416 Cl  0  0  0  0  0  0  0  0  0  0  0  0
    9.8997   -3.3756   23.6148 H   0  0  0  0  0  0  0  0  0  0  0  0
   11.6069   -0.9465   23.1399 C   0  0  0  0  0  0  0  0  0  0  0  0
    9.7879   -2.4042   24.0177 C   0  3  0  0  0  0  0  0  0  0  0  0
    9.8607   -0.4187   24.1596 H   0  0  0  0  0  0  0  0  0  0  0  0
   12.2399   -1.2327   24.0058 H   0  0  0  0  0  0  0  0  0  0  0  0
    9.8480   -0.4242   21.9973 C   0  0  3  0  0  0  0  0  0  0  0  0
   12.0195   -1.5112   22.3042 H   0  0  0  0  0  0  0  0  0  0  0  0
   10.2313   -1.0996   23.4034 C   0  0  2  0  0  0  0  0  0  0  0  0
   11.8352    0.0793   22.9926 H   0  0  0  0  0  0  0  0  0  0  0  0
    9.0523   -0.5164   21.0707 N   0  0  0  0  0  0  0  0  0  0  0  0
   10.0066    0.5023   21.3361 O   0  0  0  0  0  0  0  0  0  0  0  0
    5.8614    0.2050   22.3547 O   0  0  0  0  0  0  0  0  0  0  0  0
    6.8199    0.2470   20.2717 C   0  0  0  0  0  0  0  0  0  0  0  0
    6.9515    0.4560   19.0925 C   0  0  0  0  0  0  0  0  0  0  0  0
    7.6003    0.4344   18.2789 H   0  0  0  0  0  0  0  0  0  0  0  0
    5.9274    0.7243   19.3886 C   0  5  3  0  0  0  0  0  0  0  0  0
    4.9818    1.0612   19.2797 H   0  0  0  0  0  0  0  0  0  0  0  0
    6.6866   -0.0530   21.6192 C   0  0  0  0  0  0  0  0  0  0  0  0
    6.7663   -0.5125   22.5286 C   0  0  0  0  0  0  0  0  0  0  0  0
 19 20  1  0  0  0  0
 19 21  1  0  0  0  0
 18 19  2  0  0  0  0
 21 22  1  0  0  0  0
 18 21  1  0  0  0  0
 18 23  1  0  0  0  0
 15 16  1  0  0  0  0
 11 15  1  0  0  0  0
 11 16  1  0  0  0  0
 17 23  1  0  0  0  0
 23 24  2  0  0  0  0
 11 13  1  0  0  0  0
  7 12  1  0  0  0  0
 17 24  1  0  0  0  0
  5 24  1  0  0  0  0
  7 14  1  0  0  0  0
  7 13  1  0  0  0  0
  7 10  1  0  0  0  0
  8 13  1  0  0  0  0
  9 13  1  0  0  0  0
  6  8  1  0  0  0  0
  4  8  1  0  0  0  0
  2  4  1  0  0  0  0
  2  3  1  0  0  0  0
  1  2  1  0  0  0  0
M  CHG  3   2   1   8   1  21  -1
M  END
> <Shapegauss>
-164.806488

$$$$
