stable:False satoms:9 tatoms:24 sratio:0.375
  -OEChem-07092417423D

 24 25  0     1  0  0  0  0  0999 V2000
    6.6411   -4.9016   26.3383 O   0  0  0  0  0  0  0  0  0  0  0  0
    8.2230   -4.3694   26.1323 S   0  0  0  0  0  0  0  0  0  0  0  0
    9.1347   -5.4991   26.0382 O   0  0  0  0  0  0  0  0  0  0  0  0
    8.6062   -3.4902   27.1764 O   0  5  0  0  0  0  0  0  0  0  0  0
    8.1544   -3.6070   24.7089 N   0  0  0  0  0  0  0  0  0  0  0  0
    8.9829   -2.8954   24.2201 C   0  0  0  0  0  0  0  0  0  0  0  0
    9.5467   -1.9928   23.6838 C   0  0  0  0  0  0  0  0  0  0  0  0
   10.1893   -0.9582   23.4171 C   0  0  1  0  0  0  0  0  0  0  0  0
   10.4390   -0.3456   24.3201 H   0  0  0  0  0  0  0  0  0  0  0  0
   12.6529    0.2652   23.9614 H   0  0  0  0  0  0  0  0  0  0  0  0
   12.6740   -0.5087   23.3162 C   0  5  3  0  0  0  0  0  0  0  0  0
   12.7760   -1.2304   22.7464 C   0  0  0  0  0  0  0  0  0  0  0  0
   11.7712   -1.2621   22.6751 C   0  0  1  0  0  0  0  0  0  0  0  0
    9.8635   -0.4493   22.3512 C   0  0  0  0  0  0  0  0  0  0  0  0
    9.0819    0.1963   21.3656 C   0  0  0  0  0  0  0  0  0  0  0  0
    9.4336    1.1904   20.8771 O   0  0  0  0  0  0  0  0  0  0  0  0
    7.9060   -0.4936   21.1284 N   0  0  0  0  0  0  0  0  0  0  0  0
    7.1203   -0.0326   20.1703 C   0  0  0  0  0  0  0  0  0  0  0  0
    7.4158   -0.0986   18.9004 N   0  0  0  0  0  0  0  0  0  0  0  0
    6.7005    0.2618   17.9550 N   0  0  0  0  0  0  0  0  0  0  0  0
    5.7744    0.7469   18.4046 C   0  0  0  0  0  0  0  0  0  0  0  0
    5.2236    0.9579   19.4525 C   0  0  0  0  0  0  0  0  0  0  0  0
    5.8149    0.5761   20.4770 C   0  0  0  0  0  0  0  0  0  0  0  0
    5.4583    0.6497   21.4803 H   0  0  0  0  0  0  0  0  0  0  0  0
 20 21  2  0  0  0  0
 19 20  1  0  0  0  0
 21 22  1  0  0  0  0
 18 19  2  0  0  0  0
 22 23  2  0  0  0  0
 18 23  1  0  0  0  0
 17 18  1  0  0  0  0
 23 24  1  0  0  0  0
 15 16  2  0  0  0  0
 15 17  1  0  0  0  0
 14 15  1  0  0  0  0
  8 14  1  0  0  0  0
 12 13  1  0  0  0  0
 11 13  1  0  0  0  0
  8 13  1  0  0  0  0
 11 12  1  0  0  0  0
 10 11  1  0  0  0  0
  7  8  1  0  0  0  0
  8  9  1  0  0  0  0
  6  7  3  0  0  0  0
  5  6  1  0  0  0  0
  2  5  1  0  0  0  0
  2  3  2  0  0  0  0
  1  2  2  0  0  0  0
  2  4  1  0  0  0  0
M  CHG  2   4  -1  11  -1
M  END
> <Shapegauss>
-259.399597

$$$$
