stable:False satoms:9 tatoms:24 sratio:0.375
  -OEChem-08062411173D

 34 35  0     1  0  0  0  0  0999 V2000
   -6.0077   -5.4601  -25.7426 O   0  0  0  0  0  0  0  0  0  0  0  0
   -7.6093   -4.9476  -25.7325 S   0  0  0  0  0  0  0  0  0  0  0  0
   -8.5104   -6.0867  -25.6488 O   0  0  0  0  0  0  0  0  0  0  0  0
   -7.8980   -4.1512  -26.8693 O   0  5  0  0  0  0  0  0  0  0  0  0
   -7.6940   -4.0869  -24.3672 N   0  0  0  0  0  0  0  0  0  0  0  0
   -8.5769   -3.3603  -24.0147 C   0  0  0  0  0  0  0  0  0  0  0  0
   -9.2038   -2.4344  -23.6024 C   0  0  0  0  0  0  0  0  0  0  0  0
   -9.8839   -1.3973  -23.4750 C   0  0  1  0  0  0  0  0  0  0  0  0
  -10.0503   -0.8542  -24.4396 H   0  0  0  0  0  0  0  0  0  0  0  0
  -12.6458    0.0486  -23.4301 H   0  0  0  0  0  0  0  0  0  0  0  0
  -12.3721   -0.9933  -23.6526 C   0  0  3  0  0  0  0  0  0  0  0  0
  -12.5208   -1.6756  -23.0458 C   0  0  0  0  0  0  0  0  0  0  0  0
  -11.5279   -1.6815  -22.8733 C   0  0  1  0  0  0  0  0  0  0  0  0
   -9.6734   -0.8089  -22.4210 C   0  0  0  0  0  0  0  0  0  0  0  0
   -9.0033   -0.0804  -21.4114 C   0  0  0  0  0  0  0  0  0  0  0  0
   -9.4157    0.9378  -21.0322 O   0  0  0  0  0  0  0  0  0  0  0  0
   -7.8478   -0.7277  -21.0106 N   0  0  0  0  0  0  0  0  0  0  0  0
   -7.1683   -0.1851  -20.0147 C   0  0  0  0  0  0  0  0  0  0  0  0
   -7.5886   -0.1688  -18.7788 N   0  0  0  0  0  0  0  0  0  0  0  0
   -6.9765    0.2712  -17.7954 N   0  0  0  0  0  0  0  0  0  0  0  0
   -6.0168    0.7429  -18.1845 C   0  0  0  0  0  0  0  0  0  0  0  0
   -5.3667    0.8918  -19.1852 C   0  0  0  0  0  0  0  0  0  0  0  0
   -5.8472    0.4276  -20.2333 C   0  0  0  0  0  0  0  0  0  0  0  0
   -5.3930    0.4387  -21.1991 H   0  0  0  0  0  0  0  0  0  0  0  0
   -6.8781   -3.5088  -24.3796 H   0  0  0  0  0  0  0  0  0  0  0  0
  -12.4259   -1.1627  -24.7382 H   0  0  0  0  0  0  0  0  0  0  0  0
  -12.9151   -2.6031  -23.4865 H   0  0  0  0  0  0  0  0  0  0  0  0
  -13.1350   -1.3918  -22.1784 H   0  0  0  0  0  0  0  0  0  0  0  0
  -11.4695   -0.9586  -22.0463 H   0  0  0  0  0  0  0  0  0  0  0  0
   -9.9712   -1.6445  -21.7705 H   0  0  0  0  0  0  0  0  0  0  0  0
  -10.5130   -0.1054  -22.5216 H   0  0  0  0  0  0  0  0  0  0  0  0
   -7.5402   -1.5692  -21.4547 H   0  0  0  0  0  0  0  0  0  0  0  0
   -5.5100    1.2292  -17.3642 H   0  0  0  0  0  0  0  0  0  0  0  0
   -4.4151    1.4024  -19.1737 H   0  0  0  0  0  0  0  0  0  0  0  0
 20 21  2  0  0  0  0
 19 20  1  0  0  0  0
 21 22  1  0  0  0  0
 18 19  2  0  0  0  0
 22 23  2  0  0  0  0
 18 23  1  0  0  0  0
 17 18  1  0  0  0  0
 23 24  1  0  0  0  0
 15 16  2  0  0  0  0
 15 17  1  0  0  0  0
 14 15  1  0  0  0  0
  8 14  1  0  0  0  0
 12 13  1  0  0  0  0
 11 13  1  0  0  0  0
  8 13  1  0  0  0  0
 11 12  1  0  0  0  0
 10 11  1  0  0  0  0
  7  8  1  0  0  0  0
  8  9  1  0  0  0  0
  6  7  3  0  0  0  0
  5  6  1  0  0  0  0
  2  5  1  0  0  0  0
  2  3  2  0  0  0  0
  1  2  2  0  0  0  0
  2  4  1  0  0  0  0
  5 25  1  0  0  0  0
 11 26  1  0  0  0  0
 12 27  1  0  0  0  0
 12 28  1  0  0  0  0
 13 29  1  0  0  0  0
 14 30  1  0  0  0  0
 14 31  1  0  0  0  0
 17 32  1  0  0  0  0
 21 33  1  0  0  0  0
 22 34  1  0  0  0  0
M  CHG  1   4  -1
M  END
> <Chemgauss4>
-10.876421

$$$$
