stable:False satoms:9 tatoms:24 sratio:0.375
  -OEChem-08062411173D

 34 35  0     1  0  0  0  0  0999 V2000
    6.1964   -5.3206   25.8161 O   0  0  0  0  0  0  0  0  0  0  0  0
    7.7981   -4.8082   25.8060 S   0  0  0  0  0  0  0  0  0  0  0  0
    8.6991   -5.9472   25.7224 O   0  0  0  0  0  0  0  0  0  0  0  0
    8.0867   -4.0117   26.9429 O   0  5  0  0  0  0  0  0  0  0  0  0
    7.8827   -3.9474   24.4408 N   0  0  0  0  0  0  0  0  0  0  0  0
    8.7656   -3.2208   24.0882 C   0  0  0  0  0  0  0  0  0  0  0  0
    9.3925   -2.2950   23.6760 C   0  0  0  0  0  0  0  0  0  0  0  0
   10.0726   -1.2578   23.5485 C   0  0  1  0  0  0  0  0  0  0  0  0
   10.2390   -0.7147   24.5131 H   0  0  0  0  0  0  0  0  0  0  0  0
   12.8345    0.1881   23.5037 H   0  0  0  0  0  0  0  0  0  0  0  0
   12.5608   -0.8538   23.7262 C   0  0  3  0  0  0  0  0  0  0  0  0
   12.7095   -1.5361   23.1193 C   0  0  0  0  0  0  0  0  0  0  0  0
   11.7166   -1.5420   22.9469 C   0  0  1  0  0  0  0  0  0  0  0  0
    9.8622   -0.6694   22.4946 C   0  0  0  0  0  0  0  0  0  0  0  0
    9.1921    0.0591   21.4850 C   0  0  0  0  0  0  0  0  0  0  0  0
    9.6044    1.0773   21.1057 O   0  0  0  0  0  0  0  0  0  0  0  0
    8.0365   -0.5882   21.0841 N   0  0  0  0  0  0  0  0  0  0  0  0
    7.3571   -0.0456   20.0883 C   0  0  0  0  0  0  0  0  0  0  0  0
    7.7773   -0.0293   18.8524 N   0  0  0  0  0  0  0  0  0  0  0  0
    7.1653    0.4107   17.8689 N   0  0  0  0  0  0  0  0  0  0  0  0
    6.2055    0.8824   18.2581 C   0  0  0  0  0  0  0  0  0  0  0  0
    5.5554    1.0313   19.2587 C   0  0  0  0  0  0  0  0  0  0  0  0
    6.0359    0.5671   20.3069 C   0  0  0  0  0  0  0  0  0  0  0  0
    5.5817    0.5782   21.2727 H   0  0  0  0  0  0  0  0  0  0  0  0
    7.0668   -3.3693   24.4532 H   0  0  0  0  0  0  0  0  0  0  0  0
   12.6146   -1.0232   24.8117 H   0  0  0  0  0  0  0  0  0  0  0  0
   13.1038   -2.4637   23.5600 H   0  0  0  0  0  0  0  0  0  0  0  0
   13.3237   -1.2523   22.2520 H   0  0  0  0  0  0  0  0  0  0  0  0
   11.6583   -0.8191   22.1199 H   0  0  0  0  0  0  0  0  0  0  0  0
   10.1599   -1.5050   21.8441 H   0  0  0  0  0  0  0  0  0  0  0  0
   10.7017    0.0341   22.5951 H   0  0  0  0  0  0  0  0  0  0  0  0
    7.7289   -1.4297   21.5283 H   0  0  0  0  0  0  0  0  0  0  0  0
    5.6987    1.3687   17.4377 H   0  0  0  0  0  0  0  0  0  0  0  0
    4.6038    1.5419   19.2473 H   0  0  0  0  0  0  0  0  0  0  0  0
 20 21  2  0  0  0  0
 19 20  1  0  0  0  0
 21 22  1  0  0  0  0
 18 19  2  0  0  0  0
 22 23  2  0  0  0  0
 18 23  1  0  0  0  0
 17 18  1  0  0  0  0
 23 24  1  0  0  0  0
 15 16  2  0  0  0  0
 15 17  1  0  0  0  0
 14 15  1  0  0  0  0
  8 14  1  0  0  0  0
 12 13  1  0  0  0  0
 11 13  1  0  0  0  0
  8 13  1  0  0  0  0
 11 12  1  0  0  0  0
 10 11  1  0  0  0  0
  7  8  1  0  0  0  0
  8  9  1  0  0  0  0
  6  7  3  0  0  0  0
  5  6  1  0  0  0  0
  2  5  1  0  0  0  0
  2  3  2  0  0  0  0
  1  2  2  0  0  0  0
  2  4  1  0  0  0  0
  5 25  1  0  0  0  0
 11 26  1  0  0  0  0
 12 27  1  0  0  0  0
 12 28  1  0  0  0  0
 13 29  1  0  0  0  0
 14 30  1  0  0  0  0
 14 31  1  0  0  0  0
 17 32  1  0  0  0  0
 21 33  1  0  0  0  0
 22 34  1  0  0  0  0
M  CHG  1   4  -1
M  END
> <Chemgauss4>
-11.408230

$$$$
