stable:False satoms:20 tatoms:24 sratio:0.8333333333333334
  -OEChem-07092417303D

 24 23  0     1  0  0  0  0  0999 V2000
    6.9388    1.4064   22.9236 C   0  5  3  0  0  0  0  0  0  0  0  0
    6.8773    0.2959   20.6979 C   0  0  0  0  0  0  0  0  0  0  0  0
    8.8497    1.8265   23.6342 H   0  0  0  0  0  0  0  0  0  0  0  0
    8.8870   -0.6964   21.8077 C   0  0  0  0  0  0  0  0  0  0  0  0
   11.1763   -5.4841   24.0334 H   0  0  0  0  0  0  0  0  0  0  0  0
   11.4169   -1.7012   22.7901 O   0  0  0  0  0  0  0  0  0  0  0  0
    6.4330    1.1952   21.6560 C   0  0  0  0  0  0  0  0  0  0  0  0
   10.2349   -5.4220   21.4548 O   0  0  0  0  0  0  0  0  0  0  0  0
    9.8193   -1.1288   21.4786 H   0  0  0  0  0  0  0  0  0  0  0  0
    8.1670    0.9696   23.6674 C   0  0  0  0  0  0  0  0  0  0  0  0
    7.9426   -0.5870   20.8245 C   0  0  0  0  0  0  0  0  0  0  0  0
    8.5666   -1.1771   23.8307 H   0  0  0  0  0  0  0  0  0  0  0  0
    7.8846    0.8449   24.7288 H   0  0  0  0  0  0  0  0  0  0  0  0
    8.0585   -1.2717   19.9969 H   0  0  0  0  0  0  0  0  0  0  0  0
    6.3476    2.0697   23.5385 H   0  0  0  0  0  0  0  0  0  0  0  0
    9.7179   -4.4105   24.5255 H   0  0  0  0  0  0  0  0  0  0  0  0
    9.9873   -3.3610   22.3964 O   0  0  0  0  0  0  0  0  0  0  0  0
   10.1982   -4.6393   22.4279 C   0  0  0  0  0  0  0  0  0  0  0  0
   10.9281   -2.6876   23.1564 N   0  0  0  0  0  0  0  0  0  0  0  0
    9.9737   -0.2154   23.5536 H   0  0  0  0  0  0  0  0  0  0  0  0
    8.9262   -0.3224   23.2490 C   0  0  0  0  0  0  0  0  0  0  0  0
    5.5858    1.8121   21.3679 H   0  0  0  0  0  0  0  0  0  0  0  0
    6.3183    0.2573   19.7703 H   0  0  0  0  0  0  0  0  0  0  0  0
   10.3485   -4.8632   23.7867 C   0  5  0  0  0  0  0  0  0  0  0  0
  2 23  1  0  0  0  0
 11 14  1  0  0  0  0
  2 11  1  0  0  0  0
  2  7  2  0  0  0  0
  4 11  2  0  0  0  0
  7 22  1  0  0  0  0
  8 18  2  0  0  0  0
  4  9  1  0  0  0  0
  1  7  1  0  0  0  0
  4 21  1  0  0  0  0
 17 18  1  0  0  0  0
 17 19  1  0  0  0  0
 18 24  1  0  0  0  0
  6 19  2  0  0  0  0
  1 15  1  0  0  0  0
  1 10  1  0  0  0  0
 20 21  1  0  0  0  0
 10 21  1  0  0  0  0
 12 21  1  0  0  0  0
  3 10  1  0  0  0  0
 10 13  1  0  0  0  0
  5 24  1  0  0  0  0
 16 24  1  0  0  0  0
M  CHG  2   1  -1  24  -1
M  END
> <Shapegauss>
-79.497360

$$$$
