REMARK  3 active torsions:
REMARK  status: ('A' for Active; 'I' for Inactive)
REMARK    1  A    between atoms: O_8  and  N_13 
REMARK    2  A    between atoms: O_11  and  C_12 
REMARK    3  A    between atoms: O_11  and  N_13 
ROOT
HETATM    1  O   UNL     2       9.987  -3.361  22.396  1.00  0.00    -0.175 OA
ENDROOT
BRANCH   1   2
HETATM    2  C   UNL     2      10.198  -4.639  22.428  1.00  0.00     0.297 C 
HETATM    3  O   UNL     2      10.235  -5.422  21.455  1.00  0.00    -0.259 OA
HETATM    4  C   UNL     2      10.348  -4.863  23.787  1.00  0.00     0.101 C 
ENDBRANCH   1   2
BRANCH   1   5
HETATM    5  N   UNL     2      10.928  -2.688  23.156  1.00  0.00    -0.165 N 
ATOM      6  HN  UNL     2      11.199  -3.070  24.062  1.00  0.00     0.224 HD
BRANCH   5   7
HETATM    7  O   UNL     2      11.417  -1.701  22.790  1.00  0.00    -0.269 OA
ATOM      8  HO  UNL     2      12.063  -1.239  23.312  1.00  0.00     0.246 HD
ENDBRANCH   5   7
ENDBRANCH   1   5
TORSDOF 3
