stable:False satoms:10 tatoms:24 sratio:0.4166666666666667
  -OEChem-07092417513D

 24 25  0     1  0  0  0  0  0999 V2000
    6.5724   -4.8561   26.4593 C   0  0  0  0  0  0  0  0  0  0  0  0
    8.1974   -4.2969   26.1180 S   0  0  0  0  0  0  0  0  0  0  0  0
    9.0354   -5.4656   26.0449 O   0  0  0  0  0  0  0  0  0  0  0  0
    8.6152   -3.4155   27.1825 O   0  0  0  0  0  0  0  0  0  0  0  0
    8.1192   -3.5369   24.6711 N   0  0  0  0  0  0  0  0  0  0  0  0
    8.9819   -2.9192   24.1455 C   0  0  0  0  0  0  0  0  0  0  0  0
    9.4159   -1.9193   23.4909 C   0  0  0  0  0  0  0  0  0  0  0  0
   10.3304   -1.0192   23.3476 C   0  0  2  0  0  0  0  0  0  0  0  0
   11.0402   -0.0125   24.2824 C   0  0  0  0  0  0  0  0  0  0  0  0
   12.1200    0.3025   24.2757 C   0  0  0  0  0  0  0  0  0  0  0  0
   13.2133   -0.1777   23.4563 C   0  0  0  0  0  0  0  0  0  0  0  0
   12.6982   -1.3194   22.6228 C   0  0  0  0  0  0  0  0  0  0  0  0
   11.8197   -1.7503   22.4756 C   0  0  0  0  0  0  0  0  0  0  0  0
    9.7216   -0.5788   22.3655 C   0  0  2  0  0  0  0  0  0  0  0  0
    9.0672    0.0359   21.3761 C   0  0  0  0  0  0  0  0  0  0  0  0
    9.5308    0.9907   20.9477 O   0  0  0  0  0  0  0  0  0  0  0  0
    7.9296   -0.5780   21.0628 N   0  0  0  0  0  0  0  0  0  0  0  0
    7.2191   -0.1198   20.1495 C   0  0  0  0  0  0  0  0  0  0  0  0
    7.2400   -0.0369   18.8574 C   0  0  0  0  0  0  0  0  0  0  0  0
    6.7259    0.2790   17.7718 N   0  0  0  0  0  0  0  0  0  0  0  0
    5.6367    0.8867   18.2228 C   0  0  0  0  0  0  0  0  0  0  0  0
    5.2246    0.9904   19.4415 C   0  0  0  0  0  0  0  0  0  0  0  0
    5.7878    0.5782   20.5501 C   0  0  0  0  0  0  0  0  0  0  0  0
    5.3415    0.6485   21.9790 C   0  0  0  0  0  0  0  0  0  0  0  0
 20 21  2  0  0  0  0
 19 20  1  0  0  0  0
 21 22  1  0  0  0  0
 18 19  2  0  0  0  0
 22 23  2  0  0  0  0
 18 23  1  0  0  0  0
 17 18  1  0  0  0  0
 23 24  1  0  0  0  0
 15 16  2  0  0  0  0
 15 17  1  0  0  0  0
 14 15  1  0  0  0  0
  8 14  1  0  0  0  0
  7 14  1  0  0  0  0
 12 13  2  0  0  0  0
 11 12  1  0  0  0  0
  7  8  1  0  0  0  0
  8  9  1  0  0  0  0
 10 11  1  0  0  0  0
  6  7  2  3  0  0  0
  5  6  1  0  0  0  0
  9 10  2  0  0  0  0
  2  5  1  0  0  0  0
  2  3  2  0  0  0  0
  1  2  1  0  0  0  0
  2  4  2  0  0  0  0
M  END
> <Shapegauss>
-284.365997

$$$$
