stable:False satoms:10 tatoms:24 sratio:0.4166666666666667
  -OEChem-08062416333D

 45 46  0     1  0  0  0  0  0999 V2000
    6.3360   -5.2508   26.0520 C   0  0  0  0  0  0  0  0  0  0  0  0
    7.9741   -4.6491   25.8950 S   0  0  0  0  0  0  0  0  0  0  0  0
    8.8360   -5.7995   25.8100 O   0  0  0  0  0  0  0  0  0  0  0  0
    8.2831   -3.8444   27.0533 O   0  0  0  0  0  0  0  0  0  0  0  0
    8.0068   -3.7848   24.5061 N   0  0  0  0  0  0  0  0  0  0  0  0
    8.9003   -3.1199   24.1040 C   0  0  0  0  0  0  0  0  0  0  0  0
    9.3709   -2.0692   23.5643 C   0  0  0  0  0  0  0  0  0  0  0  0
   10.2781   -1.1505   23.5671 C   0  0  2  0  0  0  0  0  0  0  0  0
   10.8869   -0.2079   24.6311 C   0  0  0  0  0  0  0  0  0  0  0  0
   11.9575    0.1192   24.7413 C   0  0  0  0  0  0  0  0  0  0  0  0
   13.1255   -0.2863   23.9872 C   0  0  0  0  0  0  0  0  0  0  0  0
   12.7044   -1.3688   23.0310 C   0  0  0  0  0  0  0  0  0  0  0  0
   11.8496   -1.7976   22.7769 C   0  0  0  0  0  0  0  0  0  0  0  0
    9.7481   -0.6454   22.5706 C   0  0  2  0  0  0  0  0  0  0  0  0
    9.1702    0.0335   21.5755 C   0  0  0  0  0  0  0  0  0  0  0  0
    9.6517    1.0227   21.2599 O   0  0  0  0  0  0  0  0  0  0  0  0
    8.0748   -0.5685   21.1206 N   0  0  0  0  0  0  0  0  0  0  0  0
    7.4373   -0.0520   20.1848 C   0  0  0  0  0  0  0  0  0  0  0  0
    7.5676    0.1268   18.9089 C   0  0  0  0  0  0  0  0  0  0  0  0
    7.1430    0.5165   17.8087 N   0  0  0  0  0  0  0  0  0  0  0  0
    6.0084    1.0765   18.2064 C   0  0  0  0  0  0  0  0  0  0  0  0
    5.4914    1.0847   19.3890 C   0  0  0  0  0  0  0  0  0  0  0  0
    5.9646    0.5978   20.5093 C   0  0  0  0  0  0  0  0  0  0  0  0
    5.3961    0.5567   21.8953 C   0  0  0  0  0  0  0  0  0  0  0  0
    6.2497   -5.8445   26.9740 H   0  0  0  0  0  0  0  0  0  0  0  0
    5.6367   -4.4028   26.0953 H   0  0  0  0  0  0  0  0  0  0  0  0
    6.0930   -5.8827   25.1851 H   0  0  0  0  0  0  0  0  0  0  0  0
    7.2293   -3.1595   24.5728 H   0  0  0  0  0  0  0  0  0  0  0  0
    9.7753   -3.7227   24.2971 H   0  0  0  0  0  0  0  0  0  0  0  0
   11.1738   -1.6581   23.1799 H   0  0  0  0  0  0  0  0  0  0  0  0
   10.1961    0.1868   25.3615 H   0  0  0  0  0  0  0  0  0  0  0  0
   12.1411    0.8408   25.5236 H   0  0  0  0  0  0  0  0  0  0  0  0
   13.8970   -0.6704   24.6707 H   0  0  0  0  0  0  0  0  0  0  0  0
   13.5258    0.5720   23.4276 H   0  0  0  0  0  0  0  0  0  0  0  0
   13.5424   -1.7794   22.4874 H   0  0  0  0  0  0  0  0  0  0  0  0
   11.8383   -2.5801   22.0326 H   0  0  0  0  0  0  0  0  0  0  0  0
   10.9279   -1.4833   23.2439 H   0  0  0  0  0  0  0  0  0  0  0  0
   10.3563   -1.2439   21.8764 H   0  0  0  0  0  0  0  0  0  0  0  0
    7.7663   -1.4286   21.5268 H   0  0  0  0  0  0  0  0  0  0  0  0
    8.5501   -0.2633   18.6881 H   0  0  0  0  0  0  0  0  0  0  0  0
    5.4448    1.5918   17.4427 H   0  0  0  0  0  0  0  0  0  0  0  0
    4.5264    1.5635   19.4663 H   0  0  0  0  0  0  0  0  0  0  0  0
    4.8101   -0.3652   22.0246 H   0  0  0  0  0  0  0  0  0  0  0  0
    6.2159    0.5758   22.6285 H   0  0  0  0  0  0  0  0  0  0  0  0
    4.7450    1.4297   22.0505 H   0  0  0  0  0  0  0  0  0  0  0  0
 20 21  2  0  0  0  0
 19 20  1  0  0  0  0
 21 22  1  0  0  0  0
 18 19  2  0  0  0  0
 22 23  2  0  0  0  0
 18 23  1  0  0  0  0
 17 18  1  0  0  0  0
 23 24  1  0  0  0  0
 15 16  2  0  0  0  0
 15 17  1  0  0  0  0
 14 15  1  0  0  0  0
  8 14  1  0  0  0  0
  7 14  1  0  0  0  0
 12 13  2  0  0  0  0
 11 12  1  0  0  0  0
  7  8  1  0  0  0  0
  8  9  1  0  0  0  0
 10 11  1  0  0  0  0
  6  7  2  3  0  0  0
  5  6  1  0  0  0  0
  9 10  2  0  0  0  0
  2  5  1  0  0  0  0
  2  3  2  0  0  0  0
  1  2  1  0  0  0  0
  2  4  2  0  0  0  0
  1 25  1  0  0  0  0
  1 26  1  0  0  0  0
  1 27  1  0  0  0  0
  5 28  1  0  0  0  0
  6 29  1  0  0  0  0
  8 30  1  0  0  0  0
  9 31  1  0  0  0  0
 10 32  1  0  0  0  0
 11 33  1  0  0  0  0
 11 34  1  0  0  0  0
 12 35  1  0  0  0  0
 13 36  1  0  0  0  0
 13 37  1  0  0  0  0
 14 38  1  0  0  0  0
 17 39  1  0  0  0  0
 19 40  1  0  0  0  0
 21 41  1  0  0  0  0
 22 42  1  0  0  0  0
 24 43  1  0  0  0  0
 24 44  1  0  0  0  0
 24 45  1  0  0  0  0
M  END
> <Chemgauss4>
-13.507286

$$$$
