REMARK  7 active torsions:
REMARK  status: ('A' for Active; 'I' for Inactive)
REMARK    1  A    between atoms: C_1  and  C_4 
REMARK    2  A    between atoms: C_2  and  O_5 
REMARK    3  A    between atoms: C_2  and  C_4 
REMARK    4  A    between atoms: O_5  and  C_8 
REMARK    5  A    between atoms: O_10  and  C_11 
REMARK    6  A    between atoms: C_12  and  N_15 
REMARK    7  A    between atoms: N_15  and  O_18 
ROOT
HETATM    1  C   UNL     1      12.113   0.049  23.656  1.00  0.00     0.020 C 
HETATM    2  C   UNL     1      11.159  -0.342  23.247  1.00  0.00    -0.051 C 
HETATM    3  C   UNL     1      10.017  -0.855  22.816  1.00  0.00     0.143 C 
HETATM    4  C   UNL     1       9.025  -0.370  21.902  1.00  0.00     0.177 C 
ENDROOT
BRANCH   3   5
HETATM    5  O   UNL     1       9.725  -1.993  23.216  1.00  0.00    -0.341 OA
BRANCH   5   6
HETATM    6  C   UNL     1       9.889  -2.475  24.545  1.00  0.00     0.183 C 
BRANCH   6   7
HETATM    7  C   UNL     1       8.516  -3.197  24.767  1.00  0.00     0.096 C 
BRANCH   7   8
HETATM    8  C   UNL     1       8.209  -3.999  25.843  1.00  0.00     0.233 C 
HETATM    9  O   UNL     1       8.351  -4.915  26.363  1.00  0.00    -0.307 OA
ENDBRANCH   7   8
ENDBRANCH   6   7
ENDBRANCH   5   6
ENDBRANCH   3   5
BRANCH   4  10
HETATM   10  O   UNL     1       9.099   0.732  21.254  1.00  0.00    -0.369 OA
HETATM   11  H   UNL     1       9.916   1.187  21.382  1.00  0.00     0.216 HD
ENDBRANCH   4  10
TORSDOF 7
