stable:False satoms:14 tatoms:24 sratio:0.5833333333333334
  -OEChem-07092417343D

 24 23  0     1  0  0  0  0  0999 V2000
    8.2090   -3.9989   25.8427 C   0  0  0  0  0  0  0  0  0  0  0  0
    9.8893   -2.4752   24.5450 C   0  0  0  0  0  0  0  0  0  0  0  0
    8.3507   -4.9145   26.3629 O   0  0  0  0  0  0  0  0  0  0  0  0
    8.5156   -3.1973   24.7668 C   0  0  0  0  0  0  0  0  0  0  0  0
    7.7402   -2.4948   24.5308 H   0  0  0  0  0  0  0  0  0  0  0  0
    8.5300   -3.9741   24.0035 H   0  0  0  0  0  0  0  0  0  0  0  0
    8.2125   -1.0353   21.8875 H   0  0  0  0  0  0  0  0  0  0  0  0
    9.7245   -1.9934   23.2163 O   0  0  0  0  0  0  0  0  0  0  0  0
   10.0724   -1.6511   25.1996 H   0  0  0  0  0  0  0  0  0  0  0  0
   12.1132    0.0494   23.6562 C   0  0  0  0  0  0  0  0  0  0  0  0
   13.0552    0.2913   23.7590 H   0  0  0  0  0  0  0  0  0  0  0  0
   11.1588   -0.3415   23.2465 C   0  0  0  0  0  0  0  0  0  0  0  0
   10.7865   -3.0745   24.4440 H   0  0  0  0  0  0  0  0  0  0  0  0
   10.0167   -0.8545   22.8157 C   0  0  3  0  0  0  0  0  0  0  0  0
    9.9157    1.1871   21.3822 H   0  0  0  0  0  0  0  0  0  0  0  0
    9.0991    0.7316   21.2541 O   0  0  0  0  0  0  0  0  0  0  0  0
    9.0251   -0.3702   21.9019 C   0  3  0  0  0  0  0  0  0  0  0  0
    7.1635    0.0725   19.9676 C   0  0  0  0  0  0  0  0  0  0  0  0
    8.1950   -0.1725   19.2896 O   0  0  0  0  0  0  0  0  0  0  0  0
    6.4033    0.3528   18.0156 H   0  0  0  0  0  0  0  0  0  0  0  0
    7.0048    0.1479   18.8697 C   0  0  0  0  0  0  0  0  0  0  0  0
    6.4139    0.2409   21.1205 N   0  0  0  0  0  0  0  0  0  0  0  0
    4.7642    0.0997   20.1816 H   0  0  0  0  0  0  0  0  0  0  0  0
    5.2248    0.0844   21.0373 O   0  0  0  0  0  0  0  0  0  0  0  0
 20 21  1  0  0  0  0
 19 21  1  0  0  0  0
 18 21  2  0  0  0  0
 18 19  1  0  0  0  0
 18 22  1  0  0  0  0
 23 24  1  0  0  0  0
 22 24  1  0  0  0  0
 15 16  1  0  0  0  0
 16 17  1  0  0  0  0
  7 17  1  0  0  0  0
 14 17  1  0  0  0  0
  8 14  1  0  0  0  0
 12 14  1  0  0  0  0
  2  8  1  0  0  0  0
 10 12  3  0  0  0  0
 10 11  1  0  0  0  0
  4  6  1  0  0  0  0
  2 13  1  0  0  0  0
  4  5  1  0  0  0  0
  2  4  1  0  0  0  0
  2  9  1  0  0  0  0
  1  4  1  0  0  0  0
  1  3  2  0  0  0  0
M  CHG  1  17   1
M  END
> <Shapegauss>
-165.647888

$$$$
