MODEL 1
REMARK VINA RESULT:    -5.710      0.000      0.000
REMARK INTER + INTRA:          -8.298
REMARK INTER:                  -7.880
REMARK INTRA:                  -0.418
REMARK UNBOUND:                -0.418
REMARK  7 active torsions:
REMARK  status: ('A' for Active; 'I' for Inactive)
REMARK    1  A    between atoms: S_3  and  C_9 
REMARK    2  A    between atoms: S_3  and  C_4 
REMARK    3  A    between atoms: C_4  and  C_19 
REMARK    4  A    between atoms: O_12  and  C_19 
REMARK    5  A    between atoms: N_14  and  C_17 
REMARK    6  A    between atoms: N_14  and  C_19 
REMARK    7  A    between atoms: C_18  and  N_20 
ROOT
HETATM    1  C   UNL     1       9.040  17.556   0.648  1.00  0.00     0.200 C 
ENDROOT
BRANCH   1   2
HETATM    2  C   UNL     1       9.485  18.981   1.039  1.00  0.00     0.264 C 
HETATM    3  O   UNL     1       9.645  19.773   0.147  1.00  0.00    -0.276 OA
BRANCH   2   4
HETATM    4  S   UNL     1       9.789  19.600   2.583  1.00  0.00    -0.038 SA
BRANCH   4   5
HETATM    5  C   UNL     1      11.463  19.992   2.441  1.00  0.00     0.142 C 
HETATM    6  N   UNL     1      12.158  20.193   3.484  1.00  0.00    -0.356 N 
ATOM      7  HN  UNL     1      12.657  21.071   3.621  1.00  0.00     0.166 HD
BRANCH   6   8
HETATM    8  C   UNL     1      12.219  19.212   4.405  1.00  0.00     0.173 C 
HETATM    9  N   UNL     1      13.104  18.254   4.251  1.00  0.00    -0.395 N 
HETATM   10  H   UNL     1      12.761  17.391   4.633  1.00  0.00     0.156 HD
ATOM     11  HN  UNL     1      14.014  18.371   3.807  1.00  0.00     0.156 HD
ENDBRANCH   6   8
ENDBRANCH   4   5
ENDBRANCH   2   4
ENDBRANCH   1   2
BRANCH   1  12
HETATM   12  O   UNL     1       7.932  17.814   0.028  1.00  0.00    -0.343 OA
HETATM   13  H   UNL     1       8.095  17.755  -0.925  1.00  0.00     0.219 HD
ENDBRANCH   1  12
BRANCH   1  14
HETATM   14  N   UNL     1       9.522  16.261   0.683  1.00  0.00    -0.319 N 
HETATM   15  H   UNL     1      10.192  15.887   0.035  1.00  0.00     0.169 HD
BRANCH  14  16
HETATM   16  C   UNL     1       9.066  15.201   1.523  1.00  0.00     0.109 C 
HETATM   17  C   UNL     1       9.709  14.812   2.722  1.00  0.00     0.065 C 
HETATM   18  C   UNL     1       9.245  13.649   3.332  1.00  0.00     0.092 C 
HETATM   19  N   UNL     1       8.143  13.043   2.909  1.00  0.00    -0.362 N 
HETATM   20  C   UNL     1       7.482  13.653   1.960  1.00  0.00     0.181 C 
ATOM     21  HN  UNL     1       7.830  12.155   3.302  1.00  0.00     0.165 HD
HETATM   22  N   UNL     1       7.957  14.615   1.139  1.00  0.00    -0.339 N 
ATOM     23  HN  UNL     1       7.483  14.870   0.273  1.00  0.00     0.168 HD
ENDBRANCH  14  16
ENDBRANCH   1  14
TORSDOF 7
ENDMDL
MODEL 2
REMARK VINA RESULT:    -5.662      2.619      3.751
REMARK INTER + INTRA:          -8.232
REMARK INTER:                  -7.382
REMARK INTRA:                  -0.850
REMARK UNBOUND:                -0.418
REMARK  7 active torsions:
REMARK  status: ('A' for Active; 'I' for Inactive)
REMARK    1  A    between atoms: S_3  and  C_9 
REMARK    2  A    between atoms: S_3  and  C_4 
REMARK    3  A    between atoms: C_4  and  C_19 
REMARK    4  A    between atoms: O_12  and  C_19 
REMARK    5  A    between atoms: N_14  and  C_17 
REMARK    6  A    between atoms: N_14  and  C_19 
REMARK    7  A    between atoms: C_18  and  N_20 
ROOT
HETATM    1  C   UNL     1       9.930  14.596   3.068  1.00  0.00     0.200 C 
ENDROOT
BRANCH   1   2
HETATM    2  C   UNL     1      10.237  15.879   3.869  1.00  0.00     0.264 C 
HETATM    3  O   UNL     1      11.382  16.069   4.191  1.00  0.00    -0.276 OA
BRANCH   2   4
HETATM    4  S   UNL     1       9.164  17.085   4.373  1.00  0.00    -0.038 SA
BRANCH   4   5
HETATM    5  C   UNL     1      10.013  18.497   3.860  1.00  0.00     0.142 C 
HETATM    6  N   UNL     1      10.395  18.604   2.654  1.00  0.00    -0.356 N 
ATOM      7  HN  UNL     1      11.378  18.752   2.427  1.00  0.00     0.166 HD
BRANCH   6   8
HETATM    8  C   UNL     1       9.466  18.517   1.684  1.00  0.00     0.173 C 
HETATM    9  N   UNL     1       9.790  17.943   0.547  1.00  0.00    -0.395 N 
HETATM   10  H   UNL     1       9.281  18.353  -0.215  1.00  0.00     0.156 HD
ATOM     11  HN  UNL     1      10.465  17.185   0.452  1.00  0.00     0.156 HD
ENDBRANCH   6   8
ENDBRANCH   4   5
ENDBRANCH   2   4
ENDBRANCH   1   2
BRANCH   1  12
HETATM   12  O   UNL     1      10.211  14.993   1.866  1.00  0.00    -0.343 OA
HETATM   13  H   UNL     1      10.135  14.234   1.269  1.00  0.00     0.219 HD
ENDBRANCH   1  12
BRANCH   1  14
HETATM   14  N   UNL     1       9.595  13.275   3.294  1.00  0.00    -0.319 N 
HETATM   15  H   UNL     1      10.257  12.524   3.360  1.00  0.00     0.169 HD
BRANCH  14  16
HETATM   16  C   UNL     1       8.280  12.721   3.327  1.00  0.00     0.109 C 
HETATM   17  C   UNL     1       7.098  13.495   3.396  1.00  0.00     0.065 C 
HETATM   18  C   UNL     1       5.907  12.804   3.601  1.00  0.00     0.092 C 
HETATM   19  N   UNL     1       5.864  11.479   3.551  1.00  0.00    -0.362 N 
HETATM   20  C   UNL     1       6.976  10.882   3.209  1.00  0.00     0.181 C 
ATOM     21  HN  UNL     1       5.014  10.957   3.766  1.00  0.00     0.165 HD
HETATM   22  N   UNL     1       8.217  11.414   3.242  1.00  0.00    -0.339 N 
ATOM     23  HN  UNL     1       9.055  10.833   3.204  1.00  0.00     0.168 HD
ENDBRANCH  14  16
ENDBRANCH   1  14
TORSDOF 7
ENDMDL
MODEL 3
REMARK VINA RESULT:    -5.638     35.351     36.930
REMARK INTER + INTRA:          -8.198
REMARK INTER:                  -7.276
REMARK INTRA:                  -0.922
REMARK UNBOUND:                -0.418
REMARK  7 active torsions:
REMARK  status: ('A' for Active; 'I' for Inactive)
REMARK    1  A    between atoms: S_3  and  C_9 
REMARK    2  A    between atoms: S_3  and  C_4 
REMARK    3  A    between atoms: C_4  and  C_19 
REMARK    4  A    between atoms: O_12  and  C_19 
REMARK    5  A    between atoms: N_14  and  C_17 
REMARK    6  A    between atoms: N_14  and  C_19 
REMARK    7  A    between atoms: C_18  and  N_20 
ROOT
HETATM    1  C   UNL     1      -0.064 -16.650  11.868  1.00  0.00     0.200 C 
ENDROOT
BRANCH   1   2
HETATM    2  C   UNL     1      -0.214 -17.012  10.375  1.00  0.00     0.264 C 
HETATM    3  O   UNL     1       0.775 -17.377   9.793  1.00  0.00    -0.276 OA
BRANCH   2   4
HETATM    4  S   UNL     1      -1.607 -16.963   9.417  1.00  0.00    -0.038 SA
BRANCH   4   5
HETATM    5  C   UNL     1      -1.268 -15.584   8.438  1.00  0.00     0.142 C 
HETATM    6  N   UNL     1      -0.335 -15.630   7.579  1.00  0.00    -0.356 N 
ATOM      7  HN  UNL     1       0.433 -14.960   7.603  1.00  0.00     0.166 HD
BRANCH   6   8
HETATM    8  C   UNL     1      -0.389 -16.587   6.634  1.00  0.00     0.173 C 
HETATM    9  N   UNL     1       0.577 -17.476   6.579  1.00  0.00    -0.395 N 
HETATM   10  H   UNL     1       0.725 -17.780   5.633  1.00  0.00     0.156 HD
ATOM     11  HN  UNL     1       1.104 -17.811   7.385  1.00  0.00     0.156 HD
ENDBRANCH   6   8
ENDBRANCH   4   5
ENDBRANCH   2   4
ENDBRANCH   1   2
BRANCH   1  12
HETATM   12  O   UNL     1       1.168 -16.996  12.074  1.00  0.00    -0.343 OA
HETATM   13  H   UNL     1       1.660 -16.213  12.361  1.00  0.00     0.219 HD
ENDBRANCH   1  12
BRANCH   1  14
HETATM   14  N   UNL     1      -0.778 -16.023  12.871  1.00  0.00    -0.319 N 
HETATM   15  H   UNL     1      -1.202 -15.117  12.785  1.00  0.00     0.169 HD
BRANCH  14  16
HETATM   16  C   UNL     1      -0.919 -16.460  14.223  1.00  0.00     0.109 C 
HETATM   17  C   UNL     1      -2.164 -16.695  14.850  1.00  0.00     0.065 C 
HETATM   18  C   UNL     1      -2.137 -16.943  16.220  1.00  0.00     0.092 C 
HETATM   19  N   UNL     1      -0.992 -17.132  16.863  1.00  0.00    -0.362 N 
HETATM   20  C   UNL     1       0.084 -17.160  16.120  1.00  0.00     0.181 C 
ATOM     21  HN  UNL     1      -0.953 -17.247  17.876  1.00  0.00     0.165 HD
HETATM   22  N   UNL     1       0.204 -16.685  14.861  1.00  0.00    -0.339 N 
ATOM     23  HN  UNL     1       1.114 -16.513  14.433  1.00  0.00     0.168 HD
ENDBRANCH  14  16
ENDBRANCH   1  14
TORSDOF 7
ENDMDL
MODEL 4
REMARK VINA RESULT:    -5.610      5.424      8.933
REMARK INTER + INTRA:          -8.160
REMARK INTER:                  -7.531
REMARK INTRA:                  -0.629
REMARK UNBOUND:                -0.418
REMARK  7 active torsions:
REMARK  status: ('A' for Active; 'I' for Inactive)
REMARK    1  A    between atoms: S_3  and  C_9 
REMARK    2  A    between atoms: S_3  and  C_4 
REMARK    3  A    between atoms: C_4  and  C_19 
REMARK    4  A    between atoms: O_12  and  C_19 
REMARK    5  A    between atoms: N_14  and  C_17 
REMARK    6  A    between atoms: N_14  and  C_19 
REMARK    7  A    between atoms: C_18  and  N_20 
ROOT
HETATM    1  C   UNL     1       7.359  11.645   2.690  1.00  0.00     0.200 C 
ENDROOT
BRANCH   1   2
HETATM    2  C   UNL     1       6.290  10.538   2.811  1.00  0.00     0.264 C 
HETATM    3  O   UNL     1       5.911  10.023   1.790  1.00  0.00    -0.276 OA
BRANCH   2   4
HETATM    4  S   UNL     1       5.557   9.933   4.209  1.00  0.00    -0.038 SA
BRANCH   4   5
HETATM    5  C   UNL     1       4.476   8.777   3.523  1.00  0.00     0.142 C 
HETATM    6  N   UNL     1       4.795   7.549   3.496  1.00  0.00    -0.356 N 
ATOM      7  HN  UNL     1       4.829   7.036   2.615  1.00  0.00     0.166 HD
BRANCH   6   8
HETATM    8  C   UNL     1       5.087   6.942   4.661  1.00  0.00     0.173 C 
HETATM    9  N   UNL     1       5.485   5.690   4.641  1.00  0.00    -0.395 N 
HETATM   10  H   UNL     1       5.194   5.212   5.475  1.00  0.00     0.156 HD
ATOM     11  HN  UNL     1       6.017   5.263   3.883  1.00  0.00     0.156 HD
ENDBRANCH   6   8
ENDBRANCH   4   5
ENDBRANCH   2   4
ENDBRANCH   1   2
BRANCH   1  12
HETATM   12  O   UNL     1       8.324  11.121   3.377  1.00  0.00    -0.343 OA
HETATM   13  H   UNL     1       8.143  10.176   3.486  1.00  0.00     0.219 HD
ENDBRANCH   1  12
BRANCH   1  14
HETATM   14  N   UNL     1       7.560  12.838   2.023  1.00  0.00    -0.319 N 
HETATM   15  H   UNL     1       7.254  13.023   1.085  1.00  0.00     0.169 HD
BRANCH  14  16
HETATM   16  C   UNL     1       8.345  13.945   2.467  1.00  0.00     0.109 C 
HETATM   17  C   UNL     1       7.886  15.282   2.483  1.00  0.00     0.065 C 
HETATM   18  C   UNL     1       8.829  16.265   2.775  1.00  0.00     0.092 C 
HETATM   19  N   UNL     1      10.047  15.946   3.194  1.00  0.00    -0.362 N 
HETATM   20  C   UNL     1      10.267  14.674   3.400  1.00  0.00     0.181 C 
ATOM     21  HN  UNL     1      10.768  16.651   3.346  1.00  0.00     0.165 HD
HETATM   22  N   UNL     1       9.539  13.643   2.918  1.00  0.00    -0.339 N 
ATOM     23  HN  UNL     1       9.897  12.688   2.906  1.00  0.00     0.168 HD
ENDBRANCH  14  16
ENDBRANCH   1  14
TORSDOF 7
ENDMDL
MODEL 5
REMARK VINA RESULT:    -5.608      2.480      3.383
REMARK INTER + INTRA:          -8.158
REMARK INTER:                  -7.228
REMARK INTRA:                  -0.930
REMARK UNBOUND:                -0.418
REMARK  7 active torsions:
REMARK  status: ('A' for Active; 'I' for Inactive)
REMARK    1  A    between atoms: S_3  and  C_9 
REMARK    2  A    between atoms: S_3  and  C_4 
REMARK    3  A    between atoms: C_4  and  C_19 
REMARK    4  A    between atoms: O_12  and  C_19 
REMARK    5  A    between atoms: N_14  and  C_17 
REMARK    6  A    between atoms: N_14  and  C_19 
REMARK    7  A    between atoms: C_18  and  N_20 
ROOT
HETATM    1  C   UNL     1       9.058  15.087   1.620  1.00  0.00     0.200 C 
ENDROOT
BRANCH   1   2
HETATM    2  C   UNL     1       9.108  16.518   2.196  1.00  0.00     0.264 C 
HETATM    3  O   UNL     1       9.407  17.407   1.441  1.00  0.00    -0.276 OA
BRANCH   2   4
HETATM    4  S   UNL     1       8.794  17.026   3.778  1.00  0.00    -0.038 SA
BRANCH   4   5
HETATM    5  C   UNL     1      10.402  17.283   4.350  1.00  0.00     0.142 C 
HETATM    6  N   UNL     1      10.831  16.629   5.349  1.00  0.00    -0.356 N 
ATOM      7  HN  UNL     1      11.182  17.108   6.178  1.00  0.00     0.166 HD
BRANCH   6   8
HETATM    8  C   UNL     1      10.812  15.284   5.284  1.00  0.00     0.173 C 
HETATM    9  N   UNL     1      11.719  14.673   4.557  1.00  0.00    -0.395 N 
HETATM   10  H   UNL     1      11.351  13.822   4.172  1.00  0.00     0.156 HD
ATOM     11  HN  UNL     1      12.668  15.016   4.404  1.00  0.00     0.156 HD
ENDBRANCH   6   8
ENDBRANCH   4   5
ENDBRANCH   2   4
ENDBRANCH   1   2
BRANCH   1  12
HETATM   12  O   UNL     1      10.247  14.668   1.920  1.00  0.00    -0.343 OA
HETATM   13  H   UNL     1      10.708  15.374   2.395  1.00  0.00     0.219 HD
ENDBRANCH   1  12
BRANCH   1  14
HETATM   14  N   UNL     1       8.146  14.218   1.051  1.00  0.00    -0.319 N 
HETATM   15  H   UNL     1       7.714  14.354   0.156  1.00  0.00     0.169 HD
BRANCH  14  16
HETATM   16  C   UNL     1       7.552  13.077   1.670  1.00  0.00     0.109 C 
HETATM   17  C   UNL     1       6.439  12.383   1.142  1.00  0.00     0.065 C 
HETATM   18  C   UNL     1       5.869  11.405   1.953  1.00  0.00     0.092 C 
HETATM   19  N   UNL     1       6.453  11.020   3.081  1.00  0.00    -0.362 N 
HETATM   20  C   UNL     1       7.625  11.545   3.327  1.00  0.00     0.181 C 
ATOM     21  HN  UNL     1       6.014  10.355   3.717  1.00  0.00     0.165 HD
HETATM   22  N   UNL     1       8.139  12.662   2.767  1.00  0.00    -0.339 N 
ATOM     23  HN  UNL     1       8.936  13.152   3.173  1.00  0.00     0.168 HD
ENDBRANCH  14  16
ENDBRANCH   1  14
TORSDOF 7
ENDMDL
MODEL 6
REMARK VINA RESULT:    -5.497     25.618     27.994
REMARK INTER + INTRA:          -8.005
REMARK INTER:                  -7.609
REMARK INTRA:                  -0.395
REMARK UNBOUND:                -0.418
REMARK  7 active torsions:
REMARK  status: ('A' for Active; 'I' for Inactive)
REMARK    1  A    between atoms: S_3  and  C_9 
REMARK    2  A    between atoms: S_3  and  C_4 
REMARK    3  A    between atoms: C_4  and  C_19 
REMARK    4  A    between atoms: O_12  and  C_19 
REMARK    5  A    between atoms: N_14  and  C_17 
REMARK    6  A    between atoms: N_14  and  C_19 
REMARK    7  A    between atoms: C_18  and  N_20 
ROOT
HETATM    1  C   UNL     1       8.841  -2.324  22.690  1.00  0.00     0.200 C 
ENDROOT
BRANCH   1   2
HETATM    2  C   UNL     1       8.231  -0.959  22.304  1.00  0.00     0.264 C 
HETATM    3  O   UNL     1       8.702   0.021  22.820  1.00  0.00    -0.276 OA
BRANCH   2   4
HETATM    4  S   UNL     1       6.961  -0.641  21.234  1.00  0.00    -0.038 SA
BRANCH   4   5
HETATM    5  C   UNL     1       7.806   0.199  19.985  1.00  0.00     0.142 C 
HETATM    6  N   UNL     1       7.463   0.043  18.773  1.00  0.00    -0.356 N 
ATOM      7  HN  UNL     1       8.133  -0.284  18.077  1.00  0.00     0.166 HD
BRANCH   6   8
HETATM    8  C   UNL     1       6.191   0.321  18.431  1.00  0.00     0.173 C 
HETATM    9  N   UNL     1       5.592  -0.443  17.546  1.00  0.00    -0.395 N 
HETATM   10  H   UNL     1       4.926   0.087  17.014  1.00  0.00     0.156 HD
ATOM     11  HN  UNL     1       5.778  -1.438  17.418  1.00  0.00     0.156 HD
ENDBRANCH   6   8
ENDBRANCH   4   5
ENDBRANCH   2   4
ENDBRANCH   1   2
BRANCH   1  12
HETATM   12  O   UNL     1      10.076  -2.141  22.340  1.00  0.00    -0.343 OA
HETATM   13  H   UNL     1      10.554  -1.769  23.096  1.00  0.00     0.219 HD
ENDBRANCH   1  12
BRANCH   1  14
HETATM   14  N   UNL     1       8.477  -3.489  23.338  1.00  0.00    -0.319 N 
HETATM   15  H   UNL     1       8.974  -3.886  24.114  1.00  0.00     0.169 HD
BRANCH  14  16
HETATM   16  C   UNL     1       7.446  -4.397  22.949  1.00  0.00     0.109 C 
HETATM   17  C   UNL     1       6.204  -4.514  23.614  1.00  0.00     0.065 C 
HETATM   18  C   UNL     1       5.381  -5.567  23.224  1.00  0.00     0.092 C 
HETATM   19  N   UNL     1       5.669  -6.308  22.162  1.00  0.00    -0.362 N 
HETATM   20  C   UNL     1       6.708  -5.929  21.464  1.00  0.00     0.181 C 
ATOM     21  HN  UNL     1       5.113  -7.123  21.904  1.00  0.00     0.165 HD
HETATM   22  N   UNL     1       7.700  -5.111  21.879  1.00  0.00    -0.339 N 
ATOM     23  HN  UNL     1       8.593  -5.053  21.389  1.00  0.00     0.168 HD
ENDBRANCH  14  16
ENDBRANCH   1  14
TORSDOF 7
ENDMDL
MODEL 7
REMARK VINA RESULT:    -5.479      3.169      6.557
REMARK INTER + INTRA:          -7.979
REMARK INTER:                  -7.235
REMARK INTRA:                  -0.744
REMARK UNBOUND:                -0.418
REMARK  7 active torsions:
REMARK  status: ('A' for Active; 'I' for Inactive)
REMARK    1  A    between atoms: S_3  and  C_9 
REMARK    2  A    between atoms: S_3  and  C_4 
REMARK    3  A    between atoms: C_4  and  C_19 
REMARK    4  A    between atoms: O_12  and  C_19 
REMARK    5  A    between atoms: N_14  and  C_17 
REMARK    6  A    between atoms: N_14  and  C_19 
REMARK    7  A    between atoms: C_18  and  N_20 
ROOT
HETATM    1  C   UNL     1       9.668  14.924   2.273  1.00  0.00     0.200 C 
ENDROOT
BRANCH   1   2
HETATM    2  C   UNL     1       8.838  13.933   3.117  1.00  0.00     0.264 C 
HETATM    3  O   UNL     1       9.443  13.112   3.758  1.00  0.00    -0.276 OA
BRANCH   2   4
HETATM    4  S   UNL     1       7.157  13.835   3.270  1.00  0.00    -0.038 SA
BRANCH   4   5
HETATM    5  C   UNL     1       6.807  12.604   2.112  1.00  0.00     0.142 C 
HETATM    6  N   UNL     1       7.198  11.414   2.315  1.00  0.00    -0.356 N 
ATOM      7  HN  UNL     1       7.794  10.936   1.639  1.00  0.00     0.166 HD
BRANCH   6   8
HETATM    8  C   UNL     1       6.803  10.799   3.445  1.00  0.00     0.173 C 
HETATM    9  N   UNL     1       7.687  10.594   4.396  1.00  0.00    -0.395 N 
HETATM   10  H   UNL     1       7.471   9.756   4.906  1.00  0.00     0.156 HD
ATOM     11  HN  UNL     1       8.483  11.201   4.589  1.00  0.00     0.156 HD
ENDBRANCH   6   8
ENDBRANCH   4   5
ENDBRANCH   2   4
ENDBRANCH   1   2
BRANCH   1  12
HETATM   12  O   UNL     1      10.869  14.608   2.646  1.00  0.00    -0.343 OA
HETATM   13  H   UNL     1      11.263  14.048   1.962  1.00  0.00     0.219 HD
ENDBRANCH   1  12
BRANCH   1  14
HETATM   14  N   UNL     1       9.484  15.852   1.266  1.00  0.00    -0.319 N 
HETATM   15  H   UNL     1       9.753  15.713   0.309  1.00  0.00     0.169 HD
BRANCH  14  16
HETATM   16  C   UNL     1       9.029  17.197   1.416  1.00  0.00     0.109 C 
HETATM   17  C   UNL     1       7.855  17.704   0.812  1.00  0.00     0.065 C 
HETATM   18  C   UNL     1       7.645  19.078   0.908  1.00  0.00     0.092 C 
HETATM   19  N   UNL     1       8.409  19.838   1.681  1.00  0.00    -0.362 N 
HETATM   20  C   UNL     1       9.297  19.208   2.406  1.00  0.00     0.181 C 
ATOM     21  HN  UNL     1       8.310  20.853   1.709  1.00  0.00     0.165 HD
HETATM   22  N   UNL     1       9.753  17.952   2.206  1.00  0.00    -0.339 N 
ATOM     23  HN  UNL     1      10.610  17.612   2.644  1.00  0.00     0.168 HD
ENDBRANCH  14  16
ENDBRANCH   1  14
TORSDOF 7
ENDMDL
MODEL 8
REMARK VINA RESULT:    -5.366     36.224     38.010
REMARK INTER + INTRA:          -7.823
REMARK INTER:                  -7.171
REMARK INTRA:                  -0.652
REMARK UNBOUND:                -0.418
REMARK  7 active torsions:
REMARK  status: ('A' for Active; 'I' for Inactive)
REMARK    1  A    between atoms: S_3  and  C_9 
REMARK    2  A    between atoms: S_3  and  C_4 
REMARK    3  A    between atoms: C_4  and  C_19 
REMARK    4  A    between atoms: O_12  and  C_19 
REMARK    5  A    between atoms: N_14  and  C_17 
REMARK    6  A    between atoms: N_14  and  C_19 
REMARK    7  A    between atoms: C_18  and  N_20 
ROOT
HETATM    1  C   UNL     1       2.258 -18.419   8.115  1.00  0.00     0.200 C 
ENDROOT
BRANCH   1   2
HETATM    2  C   UNL     1       0.829 -18.307   7.541  1.00  0.00     0.264 C 
HETATM    3  O   UNL     1       0.723 -18.074   6.365  1.00  0.00    -0.276 OA
BRANCH   2   4
HETATM    4  S   UNL     1      -0.645 -18.468   8.354  1.00  0.00    -0.038 SA
BRANCH   4   5
HETATM    5  C   UNL     1      -0.957 -16.823   8.769  1.00  0.00     0.142 C 
HETATM    6  N   UNL     1      -1.322 -16.525   9.948  1.00  0.00    -0.356 N 
ATOM      7  HN  UNL     1      -2.196 -16.028  10.115  1.00  0.00     0.166 HD
BRANCH   6   8
HETATM    8  C   UNL     1      -0.522 -16.882  10.970  1.00  0.00     0.173 C 
HETATM    9  N   UNL     1       0.726 -16.472  10.971  1.00  0.00    -0.395 N 
HETATM   10  H   UNL     1       1.319 -17.144  11.422  1.00  0.00     0.156 HD
ATOM     11  HN  UNL     1       1.047 -15.591  10.569  1.00  0.00     0.156 HD
ENDBRANCH   6   8
ENDBRANCH   4   5
ENDBRANCH   2   4
ENDBRANCH   1   2
BRANCH   1  12
HETATM   12  O   UNL     1       2.391 -17.247   8.653  1.00  0.00    -0.343 OA
HETATM   13  H   UNL     1       1.897 -16.608   8.118  1.00  0.00     0.219 HD
ENDBRANCH   1  12
BRANCH   1  14
HETATM   14  N   UNL     1       3.248 -19.368   8.282  1.00  0.00    -0.319 N 
HETATM   15  H   UNL     1       4.233 -19.173   8.255  1.00  0.00     0.169 HD
BRANCH  14  16
HETATM   16  C   UNL     1       3.071 -20.782   8.373  1.00  0.00     0.109 C 
HETATM   17  C   UNL     1       2.157 -21.407   9.252  1.00  0.00     0.065 C 
HETATM   18  C   UNL     1       2.231 -22.794   9.349  1.00  0.00     0.092 C 
HETATM   19  N   UNL     1       2.992 -23.502   8.525  1.00  0.00    -0.362 N 
HETATM   20  C   UNL     1       3.584 -22.829   7.572  1.00  0.00     0.181 C 
ATOM     21  HN  UNL     1       3.109 -24.510   8.627  1.00  0.00     0.165 HD
HETATM   22  N   UNL     1       3.790 -21.494   7.539  1.00  0.00    -0.339 N 
ATOM     23  HN  UNL     1       4.464 -21.066   6.904  1.00  0.00     0.168 HD
ENDBRANCH  14  16
ENDBRANCH   1  14
TORSDOF 7
ENDMDL
MODEL 9
REMARK VINA RESULT:    -5.299     24.251     26.310
REMARK INTER + INTRA:          -7.730
REMARK INTER:                  -7.188
REMARK INTRA:                  -0.542
REMARK UNBOUND:                -0.418
REMARK  7 active torsions:
REMARK  status: ('A' for Active; 'I' for Inactive)
REMARK    1  A    between atoms: S_3  and  C_9 
REMARK    2  A    between atoms: S_3  and  C_4 
REMARK    3  A    between atoms: C_4  and  C_19 
REMARK    4  A    between atoms: O_12  and  C_19 
REMARK    5  A    between atoms: N_14  and  C_17 
REMARK    6  A    between atoms: N_14  and  C_19 
REMARK    7  A    between atoms: C_18  and  N_20 
ROOT
HETATM    1  C   UNL     1       8.939   1.815  22.448  1.00  0.00     0.200 C 
ENDROOT
BRANCH   1   2
HETATM    2  C   UNL     1       7.625   2.481  21.989  1.00  0.00     0.264 C 
HETATM    3  O   UNL     1       7.524   3.670  22.146  1.00  0.00    -0.276 OA
BRANCH   2   4
HETATM    4  S   UNL     1       6.272   1.756  21.280  1.00  0.00    -0.038 SA
BRANCH   4   5
HETATM    5  C   UNL     1       6.931   0.224  20.837  1.00  0.00     0.142 C 
HETATM    6  N   UNL     1       6.390  -0.455  19.911  1.00  0.00    -0.356 N 
ATOM      7  HN  UNL     1       6.060  -1.404  20.082  1.00  0.00     0.166 HD
BRANCH   6   8
HETATM    8  C   UNL     1       6.265   0.113  18.697  1.00  0.00     0.173 C 
HETATM    9  N   UNL     1       5.686  -0.569  17.736  1.00  0.00    -0.395 N 
HETATM   10  H   UNL     1       6.072  -0.322  16.843  1.00  0.00     0.156 HD
ATOM     11  HN  UNL     1       4.945  -1.256  17.877  1.00  0.00     0.156 HD
ENDBRANCH   6   8
ENDBRANCH   4   5
ENDBRANCH   2   4
ENDBRANCH   1   2
BRANCH   1  12
HETATM   12  O   UNL     1       9.726   2.139  21.470  1.00  0.00    -0.343 OA
HETATM   13  H   UNL     1      10.566   1.672  21.587  1.00  0.00     0.219 HD
ENDBRANCH   1  12
BRANCH   1  14
HETATM   14  N   UNL     1       9.450   1.154  23.550  1.00  0.00    -0.319 N 
HETATM   15  H   UNL     1       9.115   1.273  24.488  1.00  0.00     0.169 HD
BRANCH  14  16
HETATM   16  C   UNL     1      10.607   0.319  23.585  1.00  0.00     0.109 C 
HETATM   17  C   UNL     1      11.685   0.502  24.482  1.00  0.00     0.065 C 
HETATM   18  C   UNL     1      12.816  -0.284  24.271  1.00  0.00     0.092 C 
HETATM   19  N   UNL     1      12.809  -1.276  23.390  1.00  0.00    -0.362 N 
HETATM   20  C   UNL     1      11.661  -1.522  22.813  1.00  0.00     0.181 C 
ATOM     21  HN  UNL     1      13.648  -1.815  23.177  1.00  0.00     0.165 HD
HETATM   22  N   UNL     1      10.600  -0.688  22.745  1.00  0.00    -0.339 N 
ATOM     23  HN  UNL     1       9.840  -0.834  22.081  1.00  0.00     0.168 HD
ENDBRANCH  14  16
ENDBRANCH   1  14
TORSDOF 7
ENDMDL
