stable:False satoms:20 tatoms:24 sratio:0.8333333333333334
  -OEChem-07092417273D

 24 24  0     1  0  0  0  0  0999 V2000
    6.2849    2.9209   20.8591 H   0  0  0  0  0  0  0  0  0  0  0  0
   12.1177   -5.2217   24.2466 N   0  0  0  0  0  0  0  0  0  0  0  0
    8.3811   -3.2967   24.9512 S   0  0  0  0  0  0  0  0  0  0  0  0
    7.6407   -1.7932   24.7291 C   0  0  0  0  0  0  0  0  0  0  0  0
    5.9923   -0.0416   22.9104 H   0  0  0  0  0  0  0  0  0  0  0  0
    9.2265    0.7108   20.5220 C   0  0  0  0  0  0  0  0  0  0  0  0
    8.2201    2.8329   20.2037 N   0  0  0  0  0  0  0  0  0  0  0  0
    9.2958   -3.4163   23.4926 C   0  3  0  0  0  0  0  0  0  0  0  0
    7.2038    2.3465   20.8682 C   0  0  0  0  0  0  0  0  0  0  0  0
    9.9564   -0.0333   20.2466 H   0  0  0  0  0  0  0  0  0  0  0  0
   12.2440   -6.2171   24.2014 H   0  0  0  0  0  0  0  0  0  0  0  0
    6.4817   -0.2285   23.7240 O   0  0  0  0  0  0  0  0  0  0  0  0
    8.7872   -1.4552   21.8146 H   0  0  0  0  0  0  0  0  0  0  0  0
    8.1642   -0.7869   22.2308 N   0  0  0  0  0  0  0  0  0  0  0  0
    7.2041    1.2360   21.6379 N   0  0  0  0  0  0  0  0  0  0  0  0
    8.2097    0.4141   21.4596 C   0  0  0  0  0  0  0  0  0  0  0  0
   10.0507   -5.5497   24.4732 H   0  0  0  0  0  0  0  0  0  0  0  0
   10.0275    2.3990   19.3764 H   0  0  0  0  0  0  0  0  0  0  0  0
   10.8479   -4.9094   24.1232 C   0  0  0  0  0  0  0  0  0  0  0  0
    7.4975   -0.9780   23.4256 C   0  0  3  0  0  0  0  0  0  0  0  0
   10.5219   -3.7415   23.5391 N   0  0  0  0  0  0  0  0  0  0  0  0
    7.1745   -1.3171   25.7318 O   0  0  0  0  0  0  0  0  0  0  0  0
    8.8276   -3.1601   22.5447 H   0  0  0  0  0  0  0  0  0  0  0  0
    9.2262    1.9959   19.9852 C   0  0  0  0  0  0  0  0  0  0  0  0
 18 24  1  0  0  0  0
  7 24  2  0  0  0  0
  6 24  1  0  0  0  0
  7  9  1  0  0  0  0
  6 10  1  0  0  0  0
  6 16  2  0  0  0  0
  1  9  1  0  0  0  0
  9 15  2  0  0  0  0
 15 16  1  0  0  0  0
 14 16  1  0  0  0  0
 13 14  1  0  0  0  0
 14 20  1  0  0  0  0
  8 23  1  0  0  0  0
  5 12  1  0  0  0  0
 12 20  1  0  0  0  0
  4 20  1  0  0  0  0
  8 21  1  0  0  0  0
  3  8  1  0  0  0  0
 19 21  1  0  0  0  0
  2 19  2  3  0  0  0
 17 19  1  0  0  0  0
  2 11  1  0  0  0  0
  3  4  1  0  0  0  0
  4 22  2  0  0  0  0
M  CHG  1   8   1
M  END
> <Shapegauss>
-92.646233

$$$$
