REMARK  7 active torsions:
REMARK  status: ('A' for Active; 'I' for Inactive)
REMARK    1  A    between atoms: S_3  and  C_9 
REMARK    2  A    between atoms: S_3  and  C_4 
REMARK    3  A    between atoms: C_4  and  C_19 
REMARK    4  A    between atoms: O_12  and  C_19 
REMARK    5  A    between atoms: N_14  and  C_17 
REMARK    6  A    between atoms: N_14  and  C_19 
REMARK    7  A    between atoms: C_18  and  N_20 
ROOT
HETATM    1  C   UNL     1       7.497  -0.978  23.426  1.00  0.00     0.200 C 
ENDROOT
BRANCH   1   2
HETATM    2  C   UNL     1       7.641  -1.793  24.729  1.00  0.00     0.264 C 
HETATM    3  O   UNL     1       7.175  -1.317  25.732  1.00  0.00    -0.276 OA
BRANCH   2   4
HETATM    4  S   UNL     1       8.381  -3.297  24.951  1.00  0.00    -0.038 SA
BRANCH   4   5
HETATM    5  C   UNL     1       9.296  -3.416  23.493  1.00  0.00     0.142 C 
HETATM    6  N   UNL     1      10.522  -3.741  23.539  1.00  0.00    -0.356 N 
ATOM      7  HN  UNL     1      11.240  -3.134  23.144  1.00  0.00     0.166 HD
BRANCH   6   8
HETATM    8  C   UNL     1      10.848  -4.909  24.123  1.00  0.00     0.173 C 
HETATM    9  N   UNL     1      12.118  -5.222  24.247  1.00  0.00    -0.395 N 
HETATM   10  H   UNL     1      12.244  -6.217  24.201  1.00  0.00     0.156 HD
ATOM     11  HN  UNL     1      12.872  -4.547  24.373  1.00  0.00     0.156 HD
ENDBRANCH   6   8
ENDBRANCH   4   5
ENDBRANCH   2   4
ENDBRANCH   1   2
BRANCH   1  12
HETATM   12  O   UNL     1       6.482  -0.229  23.724  1.00  0.00    -0.343 OA
HETATM   13  H   UNL     1       5.992  -0.042  22.910  1.00  0.00     0.219 HD
ENDBRANCH   1  12
BRANCH   1  14
HETATM   14  N   UNL     1       8.164  -0.787  22.231  1.00  0.00    -0.319 N 
HETATM   15  H   UNL     1       8.787  -1.455  21.815  1.00  0.00     0.169 HD
BRANCH  14  16
HETATM   16  C   UNL     1       8.210   0.414  21.460  1.00  0.00     0.109 C 
HETATM   17  C   UNL     1       9.226   0.711  20.522  1.00  0.00     0.065 C 
HETATM   18  C   UNL     1       9.226   1.996  19.985  1.00  0.00     0.092 C 
HETATM   19  N   UNL     1       8.220   2.833  20.204  1.00  0.00    -0.362 N 
HETATM   20  C   UNL     1       7.204   2.346  20.868  1.00  0.00     0.181 C 
ATOM     21  HN  UNL     1       8.238   3.798  19.874  1.00  0.00     0.165 HD
HETATM   22  N   UNL     1       7.204   1.236  21.638  1.00  0.00    -0.339 N 
ATOM     23  HN  UNL     1       6.466   1.049  22.317  1.00  0.00     0.168 HD
ENDBRANCH  14  16
ENDBRANCH   1  14
TORSDOF 7
