REMARK  5 active torsions:
REMARK  status: ('A' for Active; 'I' for Inactive)
REMARK    1  A    between atoms: S_2  and  N_5 
REMARK    2  A    between atoms: N_5  and  C_7 
REMARK    3  A    between atoms: C_7  and  C_8 
REMARK    4  A    between atoms: C_15  and  C_16 
REMARK       I    between atoms: C_16  and  N_18 
REMARK    5  A    between atoms: N_18  and  C_20 
ROOT
HETATM    1  C   UNL     1       9.415  -2.007  23.509  1.00  0.00     0.040 A 
HETATM    2  C   UNL     1      10.317  -1.129  23.201  1.00  0.00     0.066 A 
HETATM    3  C   UNL     1      11.006   0.021  24.273  1.00  0.00    -0.003 C 
HETATM    4  C   UNL     1      12.014   0.248  24.227  1.00  0.00    -0.002 C 
HETATM    5  C   UNL     1      13.116  -0.228  23.501  1.00  0.00    -0.001 C 
HETATM    6  C   UNL     1      12.739  -1.293  22.731  1.00  0.00    -0.002 C 
HETATM    7  C   UNL     1      11.815  -1.772  22.534  1.00  0.00    -0.003 C 
HETATM    8  C   UNL     1       9.700  -0.661  22.335  1.00  0.00     0.049 A 
ENDROOT
BRANCH   8   9
HETATM    9  C   UNL     1       9.062   0.051  21.350  1.00  0.00     0.255 C 
HETATM   10  O   UNL     1       9.538   1.026  20.963  1.00  0.00    -0.268 OA
HETATM   11  N   UNL     1       7.919  -0.570  21.055  1.00  0.00    -0.321 N 
ATOM     12  HN  UNL     1       7.626  -1.418  21.540  1.00  0.00     0.169 HD
BRANCH  11  13
HETATM   13  C   UNL     1       7.236  -0.061  20.163  1.00  0.00     0.068 A 
HETATM   14  C   UNL     1       7.261   0.072  18.851  1.00  0.00     0.118 A 
HETATM   15  N   UNL     1       6.754   0.385  17.789  1.00  0.00    -0.373 N 
HETATM   16  C   UNL     1       5.690   0.869  18.276  1.00  0.00     0.089 A 
ATOM     17  HN  UNL     1       7.079   0.289  16.827  1.00  0.00     0.164 HD
HETATM   18  C   UNL     1       5.276   0.972  19.411  1.00  0.00     0.038 A 
HETATM   19  C   UNL     1       5.816   0.610  20.535  1.00  0.00     0.040 A 
HETATM   20 BR   UNL     1       5.341   0.720  22.094  1.00  0.00    -0.049 Br
ENDBRANCH  11  13
ENDBRANCH   8   9
BRANCH   1  21
HETATM   21  C   UNL     1       8.936  -2.911  24.142  1.00  0.00    -0.022 C 
BRANCH  21  22
HETATM   22  N   UNL     1       8.139  -3.591  24.648  1.00  0.00    -0.249 N 
ATOM     23  HN  UNL     1       7.288  -3.764  24.113  1.00  0.00     0.188 HD
BRANCH  22  24
HETATM   24  S   UNL     1       8.226  -4.294  26.104  1.00  0.00     0.233 S 
HETATM   25  C   UNL     1       6.607  -4.865  26.421  1.00  0.00     0.186 C 
HETATM   26  O   UNL     1       9.083  -5.466  26.032  1.00  0.00    -0.205 OA
HETATM   27  O   UNL     1       8.579  -3.418  27.151  1.00  0.00    -0.205 OA
ENDBRANCH  22  24
ENDBRANCH  21  22
ENDBRANCH   1  21
TORSDOF 5
