stable:False satoms:6 tatoms:24 sratio:0.25
  -OEChem-08062414083D

 45 46  0     1  0  0  0  0  0999 V2000
    6.2461   -5.3877   25.8506 C   0  0  0  0  0  0  0  0  0  0  0  0
    7.6638   -4.8846   25.7393 S   0  0  0  0  0  0  0  0  0  0  0  0
    8.6080   -5.9817   25.6428 O   0  0  0  0  0  0  0  0  0  0  0  0
    7.9665   -4.0578   26.8839 O   0  0  0  0  0  0  0  0  0  0  0  0
    7.7687   -3.9870   24.3758 N   0  0  0  0  0  0  0  0  0  0  0  0
    8.6158   -3.2963   23.9947 C   0  0  0  0  0  0  0  0  0  0  0  0
    9.1795   -2.3460   23.4614 C   0  0  0  0  0  0  0  0  0  0  0  0
   10.2886   -1.5592   23.2830 C   0  0  1  0  0  0  0  0  0  0  0  0
   10.8849   -0.5494   24.3809 C   0  0  0  0  0  0  0  0  0  0  0  0
   11.7216   -0.2108   24.5331 C   0  0  0  0  0  0  0  0  0  0  0  0
   12.7172   -0.6737   23.7846 C   0  0  0  0  0  0  0  0  0  0  0  0
   13.0599   -1.2141   23.1121 C   0  0  0  0  0  0  0  0  0  0  0  0
   11.2485   -2.1377   22.8852 C   0  0  0  0  0  0  0  0  0  0  0  0
    9.5177   -1.0672   22.5281 C   0  0  3  0  0  0  0  0  0  0  0  0
    8.9016   -0.2024   21.5325 C   0  0  0  0  0  0  0  0  0  0  0  0
    9.4367    0.8206   21.2484 O   0  0  0  0  0  0  0  0  0  0  0  0
    7.7963   -0.7514   21.0720 N   0  0  0  0  0  0  0  0  0  0  0  0
    7.2286   -0.2131   20.1211 C   0  0  0  0  0  0  0  0  0  0  0  0
    7.3275    0.0463   18.8582 C   0  0  0  0  0  0  0  0  0  0  0  0
    7.0525    0.4215   17.7279 N   0  0  0  0  0  0  0  0  0  0  0  0
    5.8844    0.9346   18.1669 C   0  0  0  0  0  0  0  0  0  0  0  0
    5.3684    0.9367   19.2456 C   0  0  0  0  0  0  0  0  0  0  0  0
    5.7673    0.4461   20.4142 C   0  0  0  0  0  0  0  0  0  0  0  0
    5.1872    0.4513   21.7032 C   0  0  0  0  0  0  0  0  0  0  0  0
    6.1430   -5.9969   26.7607 H   0  0  0  0  0  0  0  0  0  0  0  0
    5.5566   -4.5321   25.9022 H   0  0  0  0  0  0  0  0  0  0  0  0
    6.0045   -6.0007   24.9698 H   0  0  0  0  0  0  0  0  0  0  0  0
    6.9690   -3.3881   24.4182 H   0  0  0  0  0  0  0  0  0  0  0  0
    9.4760   -3.8581   24.3276 H   0  0  0  0  0  0  0  0  0  0  0  0
   10.1457   -0.1971   25.0851 H   0  0  0  0  0  0  0  0  0  0  0  0
   11.8933    0.5373   25.2929 H   0  0  0  0  0  0  0  0  0  0  0  0
   13.5824   -0.1416   24.1516 H   0  0  0  0  0  0  0  0  0  0  0  0
   14.1149   -1.1870   22.8825 H   0  0  0  0  0  0  0  0  0  0  0  0
   12.4036   -1.8698   22.5591 H   0  0  0  0  0  0  0  0  0  0  0  0
   11.8295   -2.5158   23.7392 H   0  0  0  0  0  0  0  0  0  0  0  0
   10.9326   -2.9816   22.2543 H   0  0  0  0  0  0  0  0  0  0  0  0
   11.8714   -1.4506   22.2935 H   0  0  0  0  0  0  0  0  0  0  0  0
    9.8664   -1.7397   21.7305 H   0  0  0  0  0  0  0  0  0  0  0  0
    7.4275   -1.5844   21.4843 H   0  0  0  0  0  0  0  0  0  0  0  0
    8.3328   -0.3084   18.6850 H   0  0  0  0  0  0  0  0  0  0  0  0
    5.3091    1.4361   17.4028 H   0  0  0  0  0  0  0  0  0  0  0  0
    4.4055    1.4249   19.2754 H   0  0  0  0  0  0  0  0  0  0  0  0
    4.5738   -0.4525   21.8333 H   0  0  0  0  0  0  0  0  0  0  0  0
    5.9825    0.4670   22.4630 H   0  0  0  0  0  0  0  0  0  0  0  0
    4.5540    1.3436   21.8166 H   0  0  0  0  0  0  0  0  0  0  0  0
 20 21  2  0  0  0  0
 19 20  1  0  0  0  0
 21 22  1  0  0  0  0
 18 19  2  0  0  0  0
 22 23  2  0  0  0  0
 18 23  1  0  0  0  0
 17 18  1  0  0  0  0
 23 24  1  0  0  0  0
 15 16  2  0  0  0  0
 15 17  1  0  0  0  0
 14 15  1  0  0  0  0
  8 14  1  0  0  0  0
  7 14  1  0  0  0  0
 11 12  2  0  0  0  0
  8 13  1  0  0  0  0
  7  8  1  0  0  0  0
  8  9  1  0  0  0  0
 10 11  1  0  0  0  0
  6  7  2  0  0  0  0
  9 10  2  0  0  0  0
  5  6  1  0  0  0  0
  2  5  1  0  0  0  0
  2  3  2  0  0  0  0
  1  2  1  0  0  0  0
  2  4  2  0  0  0  0
  1 25  1  0  0  0  0
  1 26  1  0  0  0  0
  1 27  1  0  0  0  0
  5 28  1  0  0  0  0
  6 29  1  0  0  0  0
  9 30  1  0  0  0  0
 10 31  1  0  0  0  0
 11 32  1  0  0  0  0
 12 33  1  0  0  0  0
 12 34  1  0  0  0  0
 13 35  1  0  0  0  0
 13 36  1  0  0  0  0
 13 37  1  0  0  0  0
 14 38  1  0  0  0  0
 17 39  1  0  0  0  0
 19 40  1  0  0  0  0
 21 41  1  0  0  0  0
 22 42  1  0  0  0  0
 24 43  1  0  0  0  0
 24 44  1  0  0  0  0
 24 45  1  0  0  0  0
M  END
> <Chemgauss4>
-12.998350

$$$$
