stable:False satoms:6 tatoms:24 sratio:0.25
  -OEChem-08062414083D

 45 46  0     1  0  0  0  0  0999 V2000
   -6.4899   -5.2503  -25.8764 C   0  0  0  0  0  0  0  0  0  0  0  0
   -7.9076   -4.7472  -25.7651 S   0  0  0  0  0  0  0  0  0  0  0  0
   -8.8518   -5.8443  -25.6686 O   0  0  0  0  0  0  0  0  0  0  0  0
   -8.2103   -3.9204  -26.9098 O   0  0  0  0  0  0  0  0  0  0  0  0
   -8.0125   -3.8496  -24.4016 N   0  0  0  0  0  0  0  0  0  0  0  0
   -8.8596   -3.1589  -24.0205 C   0  0  0  0  0  0  0  0  0  0  0  0
   -9.4232   -2.2086  -23.4872 C   0  0  0  0  0  0  0  0  0  0  0  0
  -10.5323   -1.4218  -23.3088 C   0  0  1  0  0  0  0  0  0  0  0  0
  -11.1287   -0.4120  -24.4067 C   0  0  0  0  0  0  0  0  0  0  0  0
  -11.9654   -0.0734  -24.5589 C   0  0  0  0  0  0  0  0  0  0  0  0
  -12.9610   -0.5363  -23.8104 C   0  0  0  0  0  0  0  0  0  0  0  0
  -13.3037   -1.0767  -23.1379 C   0  0  0  0  0  0  0  0  0  0  0  0
  -11.4922   -2.0003  -22.9110 C   0  0  0  0  0  0  0  0  0  0  0  0
   -9.7615   -0.9298  -22.5539 C   0  0  3  0  0  0  0  0  0  0  0  0
   -9.1453   -0.0650  -21.5583 C   0  0  0  0  0  0  0  0  0  0  0  0
   -9.6805    0.9580  -21.2742 O   0  0  0  0  0  0  0  0  0  0  0  0
   -8.0401   -0.6140  -21.0978 N   0  0  0  0  0  0  0  0  0  0  0  0
   -7.4723   -0.0757  -20.1469 C   0  0  0  0  0  0  0  0  0  0  0  0
   -7.5713    0.1837  -18.8840 C   0  0  0  0  0  0  0  0  0  0  0  0
   -7.2963    0.5589  -17.7537 N   0  0  0  0  0  0  0  0  0  0  0  0
   -6.1282    1.0720  -18.1927 C   0  0  0  0  0  0  0  0  0  0  0  0
   -5.6122    1.0741  -19.2714 C   0  0  0  0  0  0  0  0  0  0  0  0
   -6.0111    0.5836  -20.4400 C   0  0  0  0  0  0  0  0  0  0  0  0
   -5.4310    0.5887  -21.7290 C   0  0  0  0  0  0  0  0  0  0  0  0
   -6.3868   -5.8595  -26.7865 H   0  0  0  0  0  0  0  0  0  0  0  0
   -5.8004   -4.3947  -25.9280 H   0  0  0  0  0  0  0  0  0  0  0  0
   -6.2483   -5.8633  -24.9956 H   0  0  0  0  0  0  0  0  0  0  0  0
   -7.2128   -3.2507  -24.4440 H   0  0  0  0  0  0  0  0  0  0  0  0
   -9.7198   -3.7207  -24.3534 H   0  0  0  0  0  0  0  0  0  0  0  0
  -10.3894   -0.0597  -25.1109 H   0  0  0  0  0  0  0  0  0  0  0  0
  -12.1371    0.6747  -25.3188 H   0  0  0  0  0  0  0  0  0  0  0  0
  -13.8262   -0.0042  -24.1774 H   0  0  0  0  0  0  0  0  0  0  0  0
  -14.3587   -1.0496  -22.9084 H   0  0  0  0  0  0  0  0  0  0  0  0
  -12.6474   -1.7324  -22.5850 H   0  0  0  0  0  0  0  0  0  0  0  0
  -12.0732   -2.3784  -23.7650 H   0  0  0  0  0  0  0  0  0  0  0  0
  -11.1764   -2.8442  -22.2801 H   0  0  0  0  0  0  0  0  0  0  0  0
  -12.1151   -1.3132  -22.3194 H   0  0  0  0  0  0  0  0  0  0  0  0
  -10.1102   -1.6023  -21.7563 H   0  0  0  0  0  0  0  0  0  0  0  0
   -7.6713   -1.4470  -21.5102 H   0  0  0  0  0  0  0  0  0  0  0  0
   -8.5766   -0.1710  -18.7108 H   0  0  0  0  0  0  0  0  0  0  0  0
   -5.5529    1.5735  -17.4286 H   0  0  0  0  0  0  0  0  0  0  0  0
   -4.6493    1.5623  -19.3012 H   0  0  0  0  0  0  0  0  0  0  0  0
   -4.8176   -0.3151  -21.8592 H   0  0  0  0  0  0  0  0  0  0  0  0
   -6.2263    0.6044  -22.4888 H   0  0  0  0  0  0  0  0  0  0  0  0
   -4.7978    1.4810  -21.8424 H   0  0  0  0  0  0  0  0  0  0  0  0
 20 21  2  0  0  0  0
 19 20  1  0  0  0  0
 21 22  1  0  0  0  0
 18 19  2  0  0  0  0
 22 23  2  0  0  0  0
 18 23  1  0  0  0  0
 17 18  1  0  0  0  0
 23 24  1  0  0  0  0
 15 16  2  0  0  0  0
 15 17  1  0  0  0  0
 14 15  1  0  0  0  0
  8 14  1  0  0  0  0
  7 14  1  0  0  0  0
 11 12  2  0  0  0  0
  8 13  1  0  0  0  0
  7  8  1  0  0  0  0
  8  9  1  0  0  0  0
 10 11  1  0  0  0  0
  6  7  2  0  0  0  0
  9 10  2  0  0  0  0
  5  6  1  0  0  0  0
  2  5  1  0  0  0  0
  2  3  2  0  0  0  0
  1  2  1  0  0  0  0
  2  4  2  0  0  0  0
  1 25  1  0  0  0  0
  1 26  1  0  0  0  0
  1 27  1  0  0  0  0
  5 28  1  0  0  0  0
  6 29  1  0  0  0  0
  9 30  1  0  0  0  0
 10 31  1  0  0  0  0
 11 32  1  0  0  0  0
 12 33  1  0  0  0  0
 12 34  1  0  0  0  0
 13 35  1  0  0  0  0
 13 36  1  0  0  0  0
 13 37  1  0  0  0  0
 14 38  1  0  0  0  0
 17 39  1  0  0  0  0
 19 40  1  0  0  0  0
 21 41  1  0  0  0  0
 22 42  1  0  0  0  0
 24 43  1  0  0  0  0
 24 44  1  0  0  0  0
 24 45  1  0  0  0  0
M  END
> <Chemgauss4>
-13.078590

$$$$
