stable:False satoms:21 tatoms:24 sratio:0.875
  -OEChem-08062404513D

 26 26  0     0  0  0  0  0  0999 V2000
   -5.0091    1.6595  -19.6470 C   0  0  0  0  0  0  0  0  0  0  0  0
   -5.4738    2.6090  -19.6992 H   0  0  0  0  0  0  0  0  0  0  0  0
   -4.7963    1.4035  -18.6050 H   0  0  0  0  0  0  0  0  0  0  0  0
   -4.0654    1.6640  -20.2217 H   0  0  0  0  0  0  0  0  0  0  0  0
   -5.9096    0.7029  -20.2187 N   0  0  0  0  0  0  0  0  0  0  0  0
   -5.8422   -0.4899  -20.4990 N   0  0  0  0  0  0  0  0  0  0  0  0
   -7.3345   -1.2830  -21.9861 N   0  3  0  0  0  0  0  0  0  0  0  0
   -6.3116   -1.5108  -21.3322 C   0  0  0  0  0  0  0  0  0  0  0  0
   -5.4458   -3.5918  -22.4612 C   0  0  0  0  0  0  0  0  0  0  0  0
   -4.7799   -3.0551  -23.1235 H   0  0  0  0  0  0  0  0  0  0  0  0
   -6.1376   -4.1379  -23.0712 H   0  0  0  0  0  0  0  0  0  0  0  0
   -5.0074   -4.4062  -21.8559 H   0  0  0  0  0  0  0  0  0  0  0  0
   -5.9599   -2.7769  -21.4155 O   0  0  0  0  0  0  0  0  0  0  0  0
   -7.7293   -2.1454  -22.7283 N   0  0  0  0  0  0  0  0  0  0  0  0
   -9.0063   -2.0778  -23.2199 C   0  0  0  0  0  0  0  0  0  0  0  0
   -9.2936   -2.8446  -24.1197 O   0  0  0  0  0  0  0  0  0  0  0  0
   -9.7943   -1.1086  -22.6262 N   0  0  0  0  0  0  0  0  0  0  0  0
  -11.0496   -0.9541  -23.0834 C   0  0  0  0  0  0  0  0  0  0  0  0
  -12.0346   -1.7751  -22.7187 O   0  0  0  0  0  0  0  0  0  0  0  0
  -13.1843   -1.8376  -23.3503 N   0  0  0  0  0  0  0  0  0  0  0  0
  -13.5462   -0.8230  -23.9489 N   0  0  0  0  0  0  0  0  0  0  0  0
  -12.7165    0.1541  -24.2450 N   0  0  0  0  0  0  0  0  0  0  0  0
  -11.4563    0.1254  -23.8864 C   0  0  0  0  0  0  0  0  0  0  0  0
  -10.7335    0.9067  -24.1571 H   0  0  0  0  0  0  0  0  0  0  0  0
   -9.4424   -0.5415  -21.8815 H   0  0  0  0  0  0  0  0  0  0  0  0
  -13.7398   -2.6692  -23.3457 H   0  0  0  0  0  0  0  0  0  0  0  0
 20 21  1  0  0  0  0
 19 20  1  0  0  0  0
 21 22  2  0  0  0  0
 18 19  1  0  0  0  0
 22 23  1  0  0  0  0
 18 23  2  0  0  0  0
 17 18  1  0  0  0  0
 23 24  1  0  0  0  0
 15 16  2  0  0  0  0
 15 17  1  0  0  0  0
 14 15  1  0  0  0  0
  7 14  2  0  0  0  0
  9 11  1  0  0  0  0
  7  8  2  0  0  0  0
  9 13  1  0  0  0  0
  8 13  1  0  0  0  0
  9 12  1  0  0  0  0
  9 10  1  0  0  0  0
  6  8  1  0  0  0  0
  5  6  2  0  0  0  0
  1  5  1  0  0  0  0
  1  3  1  0  0  0  0
  1  2  1  0  0  0  0
  1  4  1  0  0  0  0
 17 25  1  0  0  0  0
 20 26  1  0  0  0  0
M  CHG  1   7   1
M  END
> <Chemgauss4>
-6.931786

$$$$
