stable:False satoms:21 tatoms:24 sratio:0.875
  -OEChem-08062404513D

 26 26  0     0  0  0  0  0  0999 V2000
    5.2640    1.5257   19.7304 C   0  0  0  0  0  0  0  0  0  0  0  0
    5.7286    2.4752   19.7825 H   0  0  0  0  0  0  0  0  0  0  0  0
    5.0512    1.2697   18.6884 H   0  0  0  0  0  0  0  0  0  0  0  0
    4.3203    1.5302   20.3050 H   0  0  0  0  0  0  0  0  0  0  0  0
    6.1644    0.5691   20.3021 N   0  0  0  0  0  0  0  0  0  0  0  0
    6.0970   -0.6237   20.5823 N   0  0  0  0  0  0  0  0  0  0  0  0
    7.5894   -1.4168   22.0694 N   0  3  0  0  0  0  0  0  0  0  0  0
    6.5664   -1.6446   21.4155 C   0  0  0  0  0  0  0  0  0  0  0  0
    5.7007   -3.7256   22.5445 C   0  0  0  0  0  0  0  0  0  0  0  0
    5.0348   -3.1889   23.2068 H   0  0  0  0  0  0  0  0  0  0  0  0
    6.3925   -4.2717   23.1545 H   0  0  0  0  0  0  0  0  0  0  0  0
    5.2622   -4.5401   21.9392 H   0  0  0  0  0  0  0  0  0  0  0  0
    6.2147   -2.9107   21.4988 O   0  0  0  0  0  0  0  0  0  0  0  0
    7.9842   -2.2792   22.8117 N   0  0  0  0  0  0  0  0  0  0  0  0
    9.2612   -2.2116   23.3033 C   0  0  0  0  0  0  0  0  0  0  0  0
    9.5485   -2.9784   24.2031 O   0  0  0  0  0  0  0  0  0  0  0  0
   10.0492   -1.2424   22.7095 N   0  0  0  0  0  0  0  0  0  0  0  0
   11.3045   -1.0879   23.1668 C   0  0  0  0  0  0  0  0  0  0  0  0
   12.2895   -1.9089   22.8020 O   0  0  0  0  0  0  0  0  0  0  0  0
   13.4392   -1.9714   23.4336 N   0  0  0  0  0  0  0  0  0  0  0  0
   13.8011   -0.9568   24.0322 N   0  0  0  0  0  0  0  0  0  0  0  0
   12.9714    0.0203   24.3283 N   0  0  0  0  0  0  0  0  0  0  0  0
   11.7112   -0.0084   23.9697 C   0  0  0  0  0  0  0  0  0  0  0  0
   10.9883    0.7729   24.2405 H   0  0  0  0  0  0  0  0  0  0  0  0
    9.6972   -0.6753   21.9649 H   0  0  0  0  0  0  0  0  0  0  0  0
   13.9947   -2.8030   23.4290 H   0  0  0  0  0  0  0  0  0  0  0  0
 20 21  1  0  0  0  0
 19 20  1  0  0  0  0
 21 22  2  0  0  0  0
 18 19  1  0  0  0  0
 22 23  1  0  0  0  0
 18 23  2  0  0  0  0
 17 18  1  0  0  0  0
 23 24  1  0  0  0  0
 15 16  2  0  0  0  0
 15 17  1  0  0  0  0
 14 15  1  0  0  0  0
  7 14  2  0  0  0  0
  9 11  1  0  0  0  0
  7  8  2  0  0  0  0
  9 13  1  0  0  0  0
  8 13  1  0  0  0  0
  9 12  1  0  0  0  0
  9 10  1  0  0  0  0
  6  8  1  0  0  0  0
  5  6  2  0  0  0  0
  1  5  1  0  0  0  0
  1  3  1  0  0  0  0
  1  2  1  0  0  0  0
  1  4  1  0  0  0  0
 17 25  1  0  0  0  0
 20 26  1  0  0  0  0
M  CHG  1   7   1
M  END
> <Chemgauss4>
-6.802063

$$$$
