stable:False satoms:6 tatoms:24 sratio:0.25
  -OEChem-08062413273D

 43 45  0     1  0  0  0  0  0999 V2000
    6.0874   -4.9542   26.1500 C   0  0  0  0  0  0  0  0  0  0  0  0
    7.5384   -4.4542   26.0110 S   0  0  0  0  0  0  0  0  0  0  0  0
    8.4368   -5.5943   25.9386 O   0  0  0  0  0  0  0  0  0  0  0  0
    7.8959   -3.6278   27.1415 O   0  0  0  0  0  0  0  0  0  0  0  0
    7.6623   -3.5887   24.6220 N   0  0  0  0  0  0  0  0  0  0  0  0
    8.5604   -2.9154   24.1991 C   0  0  0  0  0  0  0  0  0  0  0  0
    9.1477   -1.9856   23.6835 C   0  0  0  0  0  0  0  0  0  0  0  0
   10.1591   -1.1671   23.5321 C   0  0  1  0  0  0  0  0  0  0  0  0
   10.7796   -0.1014   24.7316 C   0  0  0  0  0  0  0  0  0  0  0  0
   11.7436    0.2191   24.8841 C   0  0  0  0  0  0  0  0  0  0  0  0
   12.9722   -0.3665   24.0526 C   0  0  0  0  0  0  0  0  0  0  0  0
   12.6103   -1.1683   23.2870 C   0  0  0  0  0  0  0  0  0  0  0  0
   11.5772   -1.6523   23.0045 C   0  0  0  0  0  0  0  0  0  0  0  0
    9.5220   -0.5807   22.6686 C   0  0  1  0  0  0  0  0  0  0  0  0
    8.9761    0.1236   21.6725 C   0  0  0  0  0  0  0  0  0  0  0  0
    9.5447    1.0807   21.3688 O   0  0  0  0  0  0  0  0  0  0  0  0
    7.8609   -0.4342   21.2525 N   0  0  0  0  0  0  0  0  0  0  0  0
    7.2787    0.0496   20.2786 C   0  0  0  0  0  0  0  0  0  0  0  0
    7.4071    0.2356   18.9954 C   0  0  0  0  0  0  0  0  0  0  0  0
    7.0899    0.5941   17.8668 N   0  0  0  0  0  0  0  0  0  0  0  0
    5.9915    1.1400   18.2587 C   0  0  0  0  0  0  0  0  0  0  0  0
    5.4630    1.2146   19.3408 C   0  0  0  0  0  0  0  0  0  0  0  0
    5.8201    0.7682   20.5235 C   0  0  0  0  0  0  0  0  0  0  0  0
    5.2054    0.8381   21.7726 C   0  0  0  0  0  0  0  0  0  0  0  0
    5.9872   -5.5371   27.0775 H   0  0  0  0  0  0  0  0  0  0  0  0
    5.4044   -4.0925   26.1831 H   0  0  0  0  0  0  0  0  0  0  0  0
    5.8346   -5.5897   25.2886 H   0  0  0  0  0  0  0  0  0  0  0  0
    6.8862   -2.9593   24.6599 H   0  0  0  0  0  0  0  0  0  0  0  0
    9.3970   -3.5595   24.4260 H   0  0  0  0  0  0  0  0  0  0  0  0
   10.0491    0.2874   25.4256 H   0  0  0  0  0  0  0  0  0  0  0  0
   11.9311    0.9764   25.6309 H   0  0  0  0  0  0  0  0  0  0  0  0
   14.0003   -0.0617   24.1811 H   0  0  0  0  0  0  0  0  0  0  0  0
   13.4219   -1.5618   22.6931 H   0  0  0  0  0  0  0  0  0  0  0  0
   11.5168   -1.5909   21.9079 H   0  0  0  0  0  0  0  0  0  0  0  0
   11.6563   -2.7064   23.3089 H   0  0  0  0  0  0  0  0  0  0  0  0
    9.0854    0.0972   23.4168 H   0  0  0  0  0  0  0  0  0  0  0  0
    7.4905   -1.2390   21.7163 H   0  0  0  0  0  0  0  0  0  0  0  0
    8.3898   -0.1760   18.8188 H   0  0  0  0  0  0  0  0  0  0  0  0
    5.4374    1.6235   17.4677 H   0  0  0  0  0  0  0  0  0  0  0  0
    4.5230    1.7463   19.3362 H   0  0  0  0  0  0  0  0  0  0  0  0
    4.5625   -0.0430   21.9153 H   0  0  0  0  0  0  0  0  0  0  0  0
    5.9745    0.8618   22.5588 H   0  0  0  0  0  0  0  0  0  0  0  0
    4.5943    1.7509   21.8298 H   0  0  0  0  0  0  0  0  0  0  0  0
 20 21  2  0  0  0  0
 19 20  1  0  0  0  0
 21 22  1  0  0  0  0
 18 19  2  0  0  0  0
 22 23  2  0  0  0  0
 18 23  1  0  0  0  0
 17 18  1  0  0  0  0
 23 24  1  0  0  0  0
 15 16  2  0  0  0  0
 15 17  1  0  0  0  0
 14 15  1  0  0  0  0
  8 14  1  0  0  0  0
  7 14  1  0  0  0  0
 12 13  1  0  0  0  0
  8 13  1  0  0  0  0
 11 12  2  0  0  0  0
  7  8  1  0  0  0  0
  8  9  1  0  0  0  0
 10 11  1  0  0  0  0
  6  7  2  0  0  0  0
  5  6  1  0  0  0  0
  9 10  2  0  0  0  0
  2  5  1  0  0  0  0
  2  3  2  0  0  0  0
  1  2  1  0  0  0  0
  2  4  2  0  0  0  0
  1 25  1  0  0  0  0
  1 26  1  0  0  0  0
  1 27  1  0  0  0  0
  5 28  1  0  0  0  0
  6 29  1  0  0  0  0
  9 30  1  0  0  0  0
 10 31  1  0  0  0  0
 11 32  1  0  0  0  0
 12 33  1  0  0  0  0
 13 34  1  0  0  0  0
 13 35  1  0  0  0  0
 14 36  1  0  0  0  0
 17 37  1  0  0  0  0
 19 38  1  0  0  0  0
 21 39  1  0  0  0  0
 22 40  1  0  0  0  0
 24 41  1  0  0  0  0
 24 42  1  0  0  0  0
 24 43  1  0  0  0  0
M  END
> <Chemgauss4>
-12.898205

$$$$
