stable:False satoms:6 tatoms:24 sratio:0.25
  -OEChem-08062413263D

 43 45  0     1  0  0  0  0  0999 V2000
   -6.2284   -4.9744  -25.9280 C   0  0  0  0  0  0  0  0  0  0  0  0
   -7.6794   -4.4744  -25.7890 S   0  0  0  0  0  0  0  0  0  0  0  0
   -8.5778   -5.6145  -25.7166 O   0  0  0  0  0  0  0  0  0  0  0  0
   -8.0369   -3.6480  -26.9194 O   0  0  0  0  0  0  0  0  0  0  0  0
   -7.8033   -3.6089  -24.4000 N   0  0  0  0  0  0  0  0  0  0  0  0
   -8.7014   -2.9356  -23.9771 C   0  0  0  0  0  0  0  0  0  0  0  0
   -9.2887   -2.0058  -23.4614 C   0  0  0  0  0  0  0  0  0  0  0  0
  -10.3001   -1.1873  -23.3101 C   0  0  1  0  0  0  0  0  0  0  0  0
  -10.9206   -0.1216  -24.5096 C   0  0  0  0  0  0  0  0  0  0  0  0
  -11.8846    0.1989  -24.6621 C   0  0  0  0  0  0  0  0  0  0  0  0
  -13.1132   -0.3867  -23.8305 C   0  0  0  0  0  0  0  0  0  0  0  0
  -12.7513   -1.1885  -23.0650 C   0  0  0  0  0  0  0  0  0  0  0  0
  -11.7182   -1.6725  -22.7825 C   0  0  0  0  0  0  0  0  0  0  0  0
   -9.6630   -0.6009  -22.4466 C   0  0  1  0  0  0  0  0  0  0  0  0
   -9.1171    0.1034  -21.4504 C   0  0  0  0  0  0  0  0  0  0  0  0
   -9.6857    1.0605  -21.1467 O   0  0  0  0  0  0  0  0  0  0  0  0
   -8.0019   -0.4544  -21.0304 N   0  0  0  0  0  0  0  0  0  0  0  0
   -7.4197    0.0294  -20.0566 C   0  0  0  0  0  0  0  0  0  0  0  0
   -7.5481    0.2154  -18.7734 C   0  0  0  0  0  0  0  0  0  0  0  0
   -7.2309    0.5739  -17.6448 N   0  0  0  0  0  0  0  0  0  0  0  0
   -6.1325    1.1198  -18.0367 C   0  0  0  0  0  0  0  0  0  0  0  0
   -5.6040    1.1944  -19.1188 C   0  0  0  0  0  0  0  0  0  0  0  0
   -5.9611    0.7480  -20.3015 C   0  0  0  0  0  0  0  0  0  0  0  0
   -5.3464    0.8179  -21.5506 C   0  0  0  0  0  0  0  0  0  0  0  0
   -6.1282   -5.5573  -26.8555 H   0  0  0  0  0  0  0  0  0  0  0  0
   -5.5454   -4.1127  -25.9611 H   0  0  0  0  0  0  0  0  0  0  0  0
   -5.9756   -5.6099  -25.0665 H   0  0  0  0  0  0  0  0  0  0  0  0
   -7.0272   -2.9795  -24.4379 H   0  0  0  0  0  0  0  0  0  0  0  0
   -9.5380   -3.5797  -24.2039 H   0  0  0  0  0  0  0  0  0  0  0  0
  -10.1901    0.2672  -25.2036 H   0  0  0  0  0  0  0  0  0  0  0  0
  -12.0721    0.9562  -25.4089 H   0  0  0  0  0  0  0  0  0  0  0  0
  -14.1413   -0.0819  -23.9591 H   0  0  0  0  0  0  0  0  0  0  0  0
  -13.5629   -1.5820  -22.4711 H   0  0  0  0  0  0  0  0  0  0  0  0
  -11.6578   -1.6111  -21.6859 H   0  0  0  0  0  0  0  0  0  0  0  0
  -11.7973   -2.7266  -23.0869 H   0  0  0  0  0  0  0  0  0  0  0  0
   -9.2264    0.0770  -23.1948 H   0  0  0  0  0  0  0  0  0  0  0  0
   -7.6315   -1.2592  -21.4943 H   0  0  0  0  0  0  0  0  0  0  0  0
   -8.5308   -0.1962  -18.5968 H   0  0  0  0  0  0  0  0  0  0  0  0
   -5.5784    1.6033  -17.2457 H   0  0  0  0  0  0  0  0  0  0  0  0
   -4.6640    1.7261  -19.1142 H   0  0  0  0  0  0  0  0  0  0  0  0
   -4.7035   -0.0632  -21.6933 H   0  0  0  0  0  0  0  0  0  0  0  0
   -6.1155    0.8416  -22.3368 H   0  0  0  0  0  0  0  0  0  0  0  0
   -4.7353    1.7307  -21.6078 H   0  0  0  0  0  0  0  0  0  0  0  0
 20 21  2  0  0  0  0
 19 20  1  0  0  0  0
 21 22  1  0  0  0  0
 18 19  2  0  0  0  0
 22 23  2  0  0  0  0
 18 23  1  0  0  0  0
 17 18  1  0  0  0  0
 23 24  1  0  0  0  0
 15 16  2  0  0  0  0
 15 17  1  0  0  0  0
 14 15  1  0  0  0  0
  8 14  1  0  0  0  0
  7 14  1  0  0  0  0
 12 13  1  0  0  0  0
  8 13  1  0  0  0  0
 11 12  2  0  0  0  0
  7  8  1  0  0  0  0
  8  9  1  0  0  0  0
 10 11  1  0  0  0  0
  6  7  2  0  0  0  0
  5  6  1  0  0  0  0
  9 10  2  0  0  0  0
  2  5  1  0  0  0  0
  2  3  2  0  0  0  0
  1  2  1  0  0  0  0
  2  4  2  0  0  0  0
  1 25  1  0  0  0  0
  1 26  1  0  0  0  0
  1 27  1  0  0  0  0
  5 28  1  0  0  0  0
  6 29  1  0  0  0  0
  9 30  1  0  0  0  0
 10 31  1  0  0  0  0
 11 32  1  0  0  0  0
 12 33  1  0  0  0  0
 13 34  1  0  0  0  0
 13 35  1  0  0  0  0
 14 36  1  0  0  0  0
 17 37  1  0  0  0  0
 19 38  1  0  0  0  0
 21 39  1  0  0  0  0
 22 40  1  0  0  0  0
 24 41  1  0  0  0  0
 24 42  1  0  0  0  0
 24 43  1  0  0  0  0
M  END
> <Chemgauss4>
-13.180834

$$$$
