stable:False satoms:6 tatoms:24 sratio:0.25
  -OEChem-07092417503D

 24 25  0     1  0  0  0  0  0999 V2000
    6.6554   -4.8523   26.4316 C   0  0  0  0  0  0  0  0  0  0  0  0
    8.1822   -4.3180   26.1290 S   0  0  0  0  0  0  0  0  0  0  0  0
    9.0814   -5.4449   26.0707 O   0  0  0  0  0  0  0  0  0  0  0  0
    8.5748   -3.3938   27.1708 O   0  0  0  0  0  0  0  0  0  0  0  0
    8.0892   -3.5783   24.7094 N   0  0  0  0  0  0  0  0  0  0  0  0
    8.9668   -2.9387   24.1349 C   0  0  0  0  0  0  0  0  0  0  0  0
    9.4258   -1.9923   23.4857 C   0  0  0  0  0  0  0  0  0  0  0  0
   10.3171   -1.1527   23.2389 C   0  0  1  0  0  0  0  0  0  0  0  0
   11.0211    0.0124   24.2591 C   0  0  0  0  0  0  0  0  0  0  0  0
   12.0954    0.2963   24.2043 C   0  0  0  0  0  0  0  0  0  0  0  0
   13.1644   -0.1459   23.4675 C   0  0  0  0  0  0  0  0  0  0  0  0
   12.7255   -1.3073   22.6824 C   0  0  0  0  0  0  0  0  0  0  0  0
   11.8329   -1.7750   22.5711 C   0  0  0  0  0  0  0  0  0  0  0  0
    9.7416   -0.6176   22.3253 C   0  0  0  0  0  0  0  0  0  0  0  0
    9.0901    0.0353   21.3620 C   0  0  0  0  0  0  0  0  0  0  0  0
    9.5671    0.9870   20.9384 O   0  0  0  0  0  0  0  0  0  0  0  0
    7.9370   -0.5373   21.0719 N   0  0  0  0  0  0  0  0  0  0  0  0
    7.1863   -0.0904   20.1951 C   0  0  0  0  0  0  0  0  0  0  0  0
    7.2581   -0.0152   18.8819 C   0  0  0  0  0  0  0  0  0  0  0  0
    6.7446    0.3128   17.8253 N   0  0  0  0  0  0  0  0  0  0  0  0
    5.6267    0.9035   18.2472 C   0  0  0  0  0  0  0  0  0  0  0  0
    5.2331    0.9952   19.3619 C   0  0  0  0  0  0  0  0  0  0  0  0
    5.8019    0.5700   20.5398 C   0  0  0  0  0  0  0  0  0  0  0  0
    5.2656    0.7569   21.9927 C   0  0  0  0  0  0  0  0  0  0  0  0
 20 21  2  0  0  0  0
 19 20  1  0  0  0  0
 21 22  1  0  0  0  0
 18 19  2  0  0  0  0
 22 23  2  0  0  0  0
 18 23  1  0  0  0  0
 17 18  1  0  0  0  0
 23 24  1  0  0  0  0
 15 16  2  0  0  0  0
 15 17  1  0  0  0  0
 14 15  1  0  0  0  0
  8 14  1  0  0  0  0
 12 13  1  0  0  0  0
  8 13  1  0  0  0  0
 11 12  2  0  0  0  0
  7  8  1  0  0  0  0
  8  9  1  0  0  0  0
 10 11  1  0  0  0  0
  6  7  2  3  0  0  0
  5  6  1  0  0  0  0
  9 10  2  0  0  0  0
  2  5  1  0  0  0  0
  2  3  2  0  0  0  0
  1  2  1  0  0  0  0
  2  4  2  0  0  0  0
M  END
> <Shapegauss>
-286.067047

$$$$
