stable:False satoms:6 tatoms:24 sratio:0.25
  -OEChem-08062415533D

 45 46  0     1  0  0  0  0  0999 V2000
   -6.2230   -5.2130  -25.8111 C   0  0  0  0  0  0  0  0  0  0  0  0
   -7.7782   -4.6811  -25.7311 S   0  0  0  0  0  0  0  0  0  0  0  0
   -8.6700   -5.8141  -25.6781 O   0  0  0  0  0  0  0  0  0  0  0  0
   -8.0555   -3.8556  -26.8867 O   0  0  0  0  0  0  0  0  0  0  0  0
   -7.8538   -3.8218  -24.3794 N   0  0  0  0  0  0  0  0  0  0  0  0
   -8.7960   -3.1508  -23.9657 C   0  0  0  0  0  0  0  0  0  0  0  0
   -9.3332   -2.1605  -23.4570 C   0  0  0  0  0  0  0  0  0  0  0  0
  -10.2529   -1.3183  -23.3865 C   0  0  1  0  0  0  0  0  0  0  0  0
  -10.8438   -0.2564  -24.5768 C   0  0  0  0  0  0  0  0  0  0  0  0
  -11.9193    0.0128  -24.6691 C   0  0  0  0  0  0  0  0  0  0  0  0
  -13.0625   -0.3833  -24.0230 C   0  0  0  0  0  0  0  0  0  0  0  0
  -12.7080   -1.4661  -23.0957 C   0  0  0  0  0  0  0  0  0  0  0  0
  -11.8307   -1.9073  -22.8438 C   0  0  0  0  0  0  0  0  0  0  0  0
   -9.7898   -0.6977  -22.4631 C   0  0  0  0  0  0  0  0  0  0  0  0
   -9.2576    0.0457  -21.4922 C   0  0  0  0  0  0  0  0  0  0  0  0
   -9.7869    1.0217  -21.2093 O   0  0  0  0  0  0  0  0  0  0  0  0
   -8.1413   -0.4804  -21.0246 N   0  0  0  0  0  0  0  0  0  0  0  0
   -7.4992    0.0522  -20.1102 C   0  0  0  0  0  0  0  0  0  0  0  0
   -7.7215    0.2376  -18.8251 C   0  0  0  0  0  0  0  0  0  0  0  0
   -7.3348    0.6629  -17.7494 N   0  0  0  0  0  0  0  0  0  0  0  0
   -6.1802    1.2346  -18.0911 C   0  0  0  0  0  0  0  0  0  0  0  0
   -5.6622    1.2379  -19.1576 C   0  0  0  0  0  0  0  0  0  0  0  0
   -6.0892    0.7044  -20.3513 C   0  0  0  0  0  0  0  0  0  0  0  0
   -5.3914    0.7762  -21.7446 C   0  0  0  0  0  0  0  0  0  0  0  0
   -6.0878   -5.8172  -26.7204 H   0  0  0  0  0  0  0  0  0  0  0  0
   -5.5414   -4.3501  -25.8397 H   0  0  0  0  0  0  0  0  0  0  0  0
   -5.9997   -5.8274  -24.9263 H   0  0  0  0  0  0  0  0  0  0  0  0
   -7.0922   -3.1771  -24.4453 H   0  0  0  0  0  0  0  0  0  0  0  0
   -9.6397   -3.7977  -24.1554 H   0  0  0  0  0  0  0  0  0  0  0  0
   -8.6584   -1.8769  -22.6629 H   0  0  0  0  0  0  0  0  0  0  0  0
  -10.1427    0.1764  -25.2751 H   0  0  0  0  0  0  0  0  0  0  0  0
  -12.1042    0.7489  -25.4375 H   0  0  0  0  0  0  0  0  0  0  0  0
  -14.0499    0.0286  -24.1701 H   0  0  0  0  0  0  0  0  0  0  0  0
  -13.5592   -1.8778  -22.5737 H   0  0  0  0  0  0  0  0  0  0  0  0
  -11.7937   -1.8979  -21.7444 H   0  0  0  0  0  0  0  0  0  0  0  0
  -11.9030   -2.9457  -23.1994 H   0  0  0  0  0  0  0  0  0  0  0  0
   -9.1518   -1.5499  -22.1859 H   0  0  0  0  0  0  0  0  0  0  0  0
  -10.7431   -0.7608  -21.9181 H   0  0  0  0  0  0  0  0  0  0  0  0
   -7.8041   -1.3344  -21.4208 H   0  0  0  0  0  0  0  0  0  0  0  0
   -8.6991   -0.1811  -18.6368 H   0  0  0  0  0  0  0  0  0  0  0  0
   -5.6551    1.7558  -17.3044 H   0  0  0  0  0  0  0  0  0  0  0  0
   -4.7057    1.7378  -19.1981 H   0  0  0  0  0  0  0  0  0  0  0  0
   -4.7472   -0.1053  -21.8785 H   0  0  0  0  0  0  0  0  0  0  0  0
   -6.1548    0.7959  -22.5363 H   0  0  0  0  0  0  0  0  0  0  0  0
   -4.7801    1.6889  -21.8018 H   0  0  0  0  0  0  0  0  0  0  0  0
 20 21  2  0  0  0  0
 19 20  1  0  0  0  0
 21 22  1  0  0  0  0
 18 19  2  0  0  0  0
 22 23  2  0  0  0  0
 18 23  1  0  0  0  0
 17 18  1  0  0  0  0
 23 24  1  0  0  0  0
 15 16  2  0  0  0  0
 15 17  1  0  0  0  0
 14 15  1  0  0  0  0
  8 14  1  0  0  0  0
 12 13  1  0  0  0  0
  8 13  1  0  0  0  0
 11 12  2  0  0  0  0
  7  8  1  0  0  0  0
  8  9  1  0  0  0  0
 10 11  1  0  0  0  0
  6  7  2  3  0  0  0
  5  6  1  0  0  0  0
  9 10  2  0  0  0  0
  2  5  1  0  0  0  0
  2  3  2  0  0  0  0
  1  2  1  0  0  0  0
  2  4  2  0  0  0  0
  1 25  1  0  0  0  0
  1 26  1  0  0  0  0
  1 27  1  0  0  0  0
  5 28  1  0  0  0  0
  6 29  1  0  0  0  0
  7 30  1  0  0  0  0
  9 31  1  0  0  0  0
 10 32  1  0  0  0  0
 11 33  1  0  0  0  0
 12 34  1  0  0  0  0
 13 35  1  0  0  0  0
 13 36  1  0  0  0  0
 14 37  1  0  0  0  0
 14 38  1  0  0  0  0
 17 39  1  0  0  0  0
 19 40  1  0  0  0  0
 21 41  1  0  0  0  0
 22 42  1  0  0  0  0
 24 43  1  0  0  0  0
 24 44  1  0  0  0  0
 24 45  1  0  0  0  0
M  END
> <Chemgauss4>
-13.108126

$$$$
