stable:False satoms:6 tatoms:24 sratio:0.25
  -OEChem-08062415533D

 45 46  0     1  0  0  0  0  0999 V2000
    6.1568   -5.4492   25.8617 C   0  0  0  0  0  0  0  0  0  0  0  0
    7.7120   -4.9172   25.7817 S   0  0  0  0  0  0  0  0  0  0  0  0
    8.6038   -6.0502   25.7287 O   0  0  0  0  0  0  0  0  0  0  0  0
    7.9893   -4.0918   26.9373 O   0  0  0  0  0  0  0  0  0  0  0  0
    7.7876   -4.0580   24.4300 N   0  0  0  0  0  0  0  0  0  0  0  0
    8.7298   -3.3869   24.0163 C   0  0  0  0  0  0  0  0  0  0  0  0
    9.2670   -2.3967   23.5076 C   0  0  0  0  0  0  0  0  0  0  0  0
   10.1867   -1.5545   23.4371 C   0  0  1  0  0  0  0  0  0  0  0  0
   10.7776   -0.4925   24.6275 C   0  0  0  0  0  0  0  0  0  0  0  0
   11.8532   -0.2233   24.7197 C   0  0  0  0  0  0  0  0  0  0  0  0
   12.9963   -0.6194   24.0736 C   0  0  0  0  0  0  0  0  0  0  0  0
   12.6419   -1.7022   23.1463 C   0  0  0  0  0  0  0  0  0  0  0  0
   11.7645   -2.1435   22.8944 C   0  0  0  0  0  0  0  0  0  0  0  0
    9.7236   -0.9339   22.5138 C   0  0  0  0  0  0  0  0  0  0  0  0
    9.1915   -0.1904   21.5428 C   0  0  0  0  0  0  0  0  0  0  0  0
    9.7207    0.7856   21.2599 O   0  0  0  0  0  0  0  0  0  0  0  0
    8.0751   -0.7165   21.0753 N   0  0  0  0  0  0  0  0  0  0  0  0
    7.4330   -0.1840   20.1609 C   0  0  0  0  0  0  0  0  0  0  0  0
    7.6553    0.0014   18.8757 C   0  0  0  0  0  0  0  0  0  0  0  0
    7.2686    0.4268   17.8000 N   0  0  0  0  0  0  0  0  0  0  0  0
    6.1141    0.9984   18.1417 C   0  0  0  0  0  0  0  0  0  0  0  0
    5.5960    1.0017   19.2083 C   0  0  0  0  0  0  0  0  0  0  0  0
    6.0230    0.4682   20.4020 C   0  0  0  0  0  0  0  0  0  0  0  0
    5.3252    0.5400   21.7953 C   0  0  0  0  0  0  0  0  0  0  0  0
    6.0217   -6.0533   26.7710 H   0  0  0  0  0  0  0  0  0  0  0  0
    5.4752   -4.5863   25.8904 H   0  0  0  0  0  0  0  0  0  0  0  0
    5.9336   -6.0635   24.9770 H   0  0  0  0  0  0  0  0  0  0  0  0
    7.0261   -3.4132   24.4959 H   0  0  0  0  0  0  0  0  0  0  0  0
    9.5735   -4.0339   24.2061 H   0  0  0  0  0  0  0  0  0  0  0  0
    8.5922   -2.1130   22.7136 H   0  0  0  0  0  0  0  0  0  0  0  0
   10.0765   -0.0597   25.3257 H   0  0  0  0  0  0  0  0  0  0  0  0
   12.0380    0.5128   25.4881 H   0  0  0  0  0  0  0  0  0  0  0  0
   13.9838   -0.2075   24.2207 H   0  0  0  0  0  0  0  0  0  0  0  0
   13.4930   -2.1139   22.6243 H   0  0  0  0  0  0  0  0  0  0  0  0
   11.7276   -2.1341   21.7951 H   0  0  0  0  0  0  0  0  0  0  0  0
   11.8368   -3.1819   23.2500 H   0  0  0  0  0  0  0  0  0  0  0  0
    9.0857   -1.7861   22.2366 H   0  0  0  0  0  0  0  0  0  0  0  0
   10.6770   -0.9970   21.9687 H   0  0  0  0  0  0  0  0  0  0  0  0
    7.7380   -1.5706   21.4715 H   0  0  0  0  0  0  0  0  0  0  0  0
    8.6329   -0.4172   18.6874 H   0  0  0  0  0  0  0  0  0  0  0  0
    5.5889    1.5197   17.3550 H   0  0  0  0  0  0  0  0  0  0  0  0
    4.6395    1.5016   19.2488 H   0  0  0  0  0  0  0  0  0  0  0  0
    4.6810   -0.3415   21.9291 H   0  0  0  0  0  0  0  0  0  0  0  0
    6.0886    0.5598   22.5870 H   0  0  0  0  0  0  0  0  0  0  0  0
    4.7139    1.4528   21.8525 H   0  0  0  0  0  0  0  0  0  0  0  0
 20 21  2  0  0  0  0
 19 20  1  0  0  0  0
 21 22  1  0  0  0  0
 18 19  2  0  0  0  0
 22 23  2  0  0  0  0
 18 23  1  0  0  0  0
 17 18  1  0  0  0  0
 23 24  1  0  0  0  0
 15 16  2  0  0  0  0
 15 17  1  0  0  0  0
 14 15  1  0  0  0  0
  8 14  1  0  0  0  0
 12 13  1  0  0  0  0
  8 13  1  0  0  0  0
 11 12  2  0  0  0  0
  7  8  1  0  0  0  0
  8  9  1  0  0  0  0
 10 11  1  0  0  0  0
  6  7  2  3  0  0  0
  5  6  1  0  0  0  0
  9 10  2  0  0  0  0
  2  5  1  0  0  0  0
  2  3  2  0  0  0  0
  1  2  1  0  0  0  0
  2  4  2  0  0  0  0
  1 25  1  0  0  0  0
  1 26  1  0  0  0  0
  1 27  1  0  0  0  0
  5 28  1  0  0  0  0
  6 29  1  0  0  0  0
  7 30  1  0  0  0  0
  9 31  1  0  0  0  0
 10 32  1  0  0  0  0
 11 33  1  0  0  0  0
 12 34  1  0  0  0  0
 13 35  1  0  0  0  0
 13 36  1  0  0  0  0
 14 37  1  0  0  0  0
 14 38  1  0  0  0  0
 17 39  1  0  0  0  0
 19 40  1  0  0  0  0
 21 41  1  0  0  0  0
 22 42  1  0  0  0  0
 24 43  1  0  0  0  0
 24 44  1  0  0  0  0
 24 45  1  0  0  0  0
M  END
> <Chemgauss4>
-12.871006

$$$$
