MODEL 1
REMARK VINA RESULT:    -8.005      0.000      0.000
REMARK INTER + INTRA:         -10.507
REMARK INTER:                  -9.877
REMARK INTRA:                  -0.630
REMARK UNBOUND:                -0.630
REMARK  4 active torsions:
REMARK  status: ('A' for Active; 'I' for Inactive)
REMARK    1  A    between atoms: S_2  and  N_5 
REMARK    2  A    between atoms: N_5  and  C_7 
REMARK    3  A    between atoms: C_7  and  C_8 
REMARK    4  A    between atoms: C_16  and  C_17 
REMARK       I    between atoms: C_17  and  N_19 
ROOT
HETATM    1  C   UNL     1       9.240  -2.227  23.277  1.00  0.00     0.041 A 
HETATM    2  C   UNL     1      10.264  -1.282  23.211  1.00  0.00     0.080 A 
HETATM    3  C   UNL     1      10.636  -0.504  24.414  1.00  0.00     0.000 C 
HETATM    4  C   UNL     1      11.697  -0.190  24.641  1.00  0.00     0.015 C 
HETATM    5  C   UNL     1      12.691  -0.458  24.032  1.00  0.00     0.087 C 
HETATM    6  N   UNL     1      12.738  -1.206  23.155  1.00  0.00    -0.377 N 
ATOM      7  HN  UNL     1      13.593  -1.545  22.713  1.00  0.00     0.164 HD
HETATM    8  C   UNL     1      11.641  -1.516  22.853  1.00  0.00     0.085 C 
HETATM    9  C   UNL     1       9.424  -0.824  22.415  1.00  0.00     0.050 A 
ENDROOT
BRANCH   9  10
HETATM   10  C   UNL     1       8.886  -0.030  21.384  1.00  0.00     0.256 C 
HETATM   11  O   UNL     1       9.576   0.889  20.981  1.00  0.00    -0.268 OA
HETATM   12  N   UNL     1       7.667  -0.377  20.913  1.00  0.00    -0.308 N 
HETATM   13  C   UNL     1       7.006   0.231  19.996  1.00  0.00     0.122 C 
ATOM     14  HN  UNL     1       7.230  -1.201  21.326  1.00  0.00     0.170 HD
HETATM   15  N   UNL     1       7.238   0.243  18.685  1.00  0.00    -0.286 N 
HETATM   16  C   UNL     1       5.752   0.872  20.397  1.00  0.00     0.051 C 
HETATM   17  N   UNL     1       6.726   0.751  17.728  1.00  0.00    -0.310 N 
ATOM     18  HN  UNL     1       8.053  -0.317  18.433  1.00  0.00     0.188 HD
HETATM   19  C   UNL     1       5.760   1.325  18.171  1.00  0.00     0.107 C 
ATOM     20  HN  UNL     1       7.036   0.707  16.758  1.00  0.00     0.186 HD
HETATM   21  C   UNL     1       5.343   1.371  19.295  1.00  0.00     0.022 C 
ENDBRANCH   9  10
BRANCH   1  22
HETATM   22  C   UNL     1       8.690  -3.244  23.631  1.00  0.00    -0.021 C 
BRANCH  22  23
HETATM   23  N   UNL     1       8.202  -4.293  23.732  1.00  0.00    -0.236 N 
ATOM     24  HN  UNL     1       8.771  -4.981  24.226  1.00  0.00     0.189 HD
BRANCH  23  25
HETATM   25  S   UNL     1       6.768  -4.847  23.220  1.00  0.00     0.327 S 
HETATM   26 CL   UNL     1       7.246  -5.981  21.794  1.00  0.00     0.042 Cl
HETATM   27  O   UNL     1       6.120  -5.650  24.236  1.00  0.00    -0.188 OA
HETATM   28  O   UNL     1       5.958  -3.817  22.658  1.00  0.00    -0.188 OA
ENDBRANCH  23  25
ENDBRANCH  22  23
ENDBRANCH   1  22
TORSDOF 4
ENDMDL
MODEL 2
REMARK VINA RESULT:    -7.528      4.369      6.248
REMARK INTER + INTRA:          -9.919
REMARK INTER:                  -9.258
REMARK INTRA:                  -0.661
REMARK UNBOUND:                -0.630
REMARK  4 active torsions:
REMARK  status: ('A' for Active; 'I' for Inactive)
REMARK    1  A    between atoms: S_2  and  N_5 
REMARK    2  A    between atoms: N_5  and  C_7 
REMARK    3  A    between atoms: C_7  and  C_8 
REMARK    4  A    between atoms: C_16  and  C_17 
REMARK       I    between atoms: C_17  and  N_19 
ROOT
HETATM    1  C   UNL     1       7.531  -4.852  25.414  1.00  0.00     0.041 A 
HETATM    2  C   UNL     1       7.100  -4.712  24.095  1.00  0.00     0.080 A 
HETATM    3  C   UNL     1       7.533  -5.682  23.065  1.00  0.00     0.000 C 
HETATM    4  C   UNL     1       6.871  -6.009  22.209  1.00  0.00     0.015 C 
HETATM    5  C   UNL     1       5.731  -5.710  22.003  1.00  0.00     0.087 C 
HETATM    6  N   UNL     1       5.068  -5.118  22.738  1.00  0.00    -0.377 N 
ATOM      7  HN  UNL     1       4.064  -4.969  22.640  1.00  0.00     0.164 HD
HETATM    8  C   UNL     1       5.738  -4.712  23.622  1.00  0.00     0.085 C 
HETATM    9  C   UNL     1       7.755  -3.670  24.275  1.00  0.00     0.050 A 
ENDROOT
BRANCH   9  10
HETATM   10  C   UNL     1       8.241  -2.367  24.051  1.00  0.00     0.256 C 
HETATM   11  O   UNL     1       7.531  -1.618  23.404  1.00  0.00    -0.268 OA
HETATM   12  N   UNL     1       9.437  -2.054  24.600  1.00  0.00    -0.308 N 
HETATM   13  C   UNL     1      10.052  -0.933  24.493  1.00  0.00     0.122 C 
ATOM     14  HN  UNL     1       9.895  -2.779  25.153  1.00  0.00     0.170 HD
HETATM   15  N   UNL     1       9.757   0.227  25.076  1.00  0.00    -0.286 N 
HETATM   16  C   UNL     1      11.323  -0.941  23.765  1.00  0.00     0.051 C 
HETATM   17  N   UNL     1      10.222   1.331  25.073  1.00  0.00    -0.310 N 
ATOM     18  HN  UNL     1       8.932   0.159  25.673  1.00  0.00     0.188 HD
HETATM   19  C   UNL     1      11.207   1.243  24.380  1.00  0.00     0.107 C 
ATOM     20  HN  UNL     1       9.866   2.160  25.549  1.00  0.00     0.186 HD
HETATM   21  C   UNL     1      11.677   0.284  23.834  1.00  0.00     0.022 C 
ENDBRANCH   9  10
BRANCH   1  22
HETATM   22  C   UNL     1       7.628  -5.374  26.501  1.00  0.00    -0.021 C 
BRANCH  22  23
HETATM   23  N   UNL     1       7.524  -6.012  27.466  1.00  0.00    -0.236 N 
ATOM     24  HN  UNL     1       8.338  -6.585  27.686  1.00  0.00     0.189 HD
BRANCH  23  25
HETATM   25  S   UNL     1       6.300  -6.142  28.520  1.00  0.00     0.327 S 
HETATM   26 CL   UNL     1       4.822  -5.547  27.515  1.00  0.00     0.042 Cl
HETATM   27  O   UNL     1       6.068  -7.523  28.888  1.00  0.00    -0.188 OA
HETATM   28  O   UNL     1       6.430  -5.239  29.615  1.00  0.00    -0.188 OA
ENDBRANCH  23  25
ENDBRANCH  22  23
ENDBRANCH   1  22
TORSDOF 4
ENDMDL
MODEL 3
REMARK VINA RESULT:    -7.454      3.424      6.543
REMARK INTER + INTRA:          -9.827
REMARK INTER:                  -9.218
REMARK INTRA:                  -0.609
REMARK UNBOUND:                -0.630
REMARK  4 active torsions:
REMARK  status: ('A' for Active; 'I' for Inactive)
REMARK    1  A    between atoms: S_2  and  N_5 
REMARK    2  A    between atoms: N_5  and  C_7 
REMARK    3  A    between atoms: C_7  and  C_8 
REMARK    4  A    between atoms: C_16  and  C_17 
REMARK       I    between atoms: C_17  and  N_19 
ROOT
HETATM    1  C   UNL     1       8.277  -1.051  22.572  1.00  0.00     0.041 A 
HETATM    2  C   UNL     1       9.438  -1.365  23.276  1.00  0.00     0.080 A 
HETATM    3  C   UNL     1      10.693  -1.658  22.547  1.00  0.00     0.000 C 
HETATM    4  C   UNL     1      11.714  -1.369  22.936  1.00  0.00     0.015 C 
HETATM    5  C   UNL     1      11.977  -0.746  23.923  1.00  0.00     0.087 C 
HETATM    6  N   UNL     1      11.197  -0.221  24.591  1.00  0.00    -0.377 N 
ATOM      7  HN  UNL     1      11.410   0.420  25.356  1.00  0.00     0.164 HD
HETATM    8  C   UNL     1      10.115  -0.544  24.249  1.00  0.00     0.085 C 
HETATM    9  C   UNL     1       8.674  -2.296  23.589  1.00  0.00     0.050 A 
ENDROOT
BRANCH   9  10
HETATM   10  C   UNL     1       8.173  -3.404  24.300  1.00  0.00     0.256 C 
HETATM   11  O   UNL     1       7.930  -4.408  23.655  1.00  0.00    -0.268 OA
HETATM   12  N   UNL     1       8.037  -3.265  25.638  1.00  0.00    -0.308 N 
HETATM   13  C   UNL     1       7.582  -4.147  26.451  1.00  0.00     0.122 C 
ATOM     14  HN  UNL     1       8.324  -2.372  26.041  1.00  0.00     0.170 HD
HETATM   15  N   UNL     1       8.177  -5.261  26.874  1.00  0.00    -0.286 N 
HETATM   16  C   UNL     1       6.319  -3.838  27.126  1.00  0.00     0.051 C 
HETATM   17  N   UNL     1       7.887  -6.161  27.610  1.00  0.00    -0.310 N 
ATOM     18  HN  UNL     1       9.108  -5.377  26.473  1.00  0.00     0.188 HD
HETATM   19  C   UNL     1       6.801  -5.861  28.044  1.00  0.00     0.107 C 
ATOM     20  HN  UNL     1       8.436  -6.994  27.823  1.00  0.00     0.186 HD
HETATM   21  C   UNL     1       6.141  -4.878  27.847  1.00  0.00     0.022 C 
ENDBRANCH   9  10
BRANCH   1  22
HETATM   22  C   UNL     1       7.557  -0.395  21.853  1.00  0.00    -0.021 C 
BRANCH  22  23
HETATM   23  N   UNL     1       6.683   0.092  21.263  1.00  0.00    -0.236 N 
ATOM     24  HN  UNL     1       6.007   0.591  21.841  1.00  0.00     0.189 HD
BRANCH  23  25
HETATM   25  S   UNL     1       6.361   0.110  19.675  1.00  0.00     0.327 S 
HETATM   26 CL   UNL     1       5.161   1.554  19.513  1.00  0.00     0.042 Cl
HETATM   27  O   UNL     1       7.545   0.420  18.902  1.00  0.00    -0.188 OA
HETATM   28  O   UNL     1       5.650  -1.051  19.253  1.00  0.00    -0.188 OA
ENDBRANCH  23  25
ENDBRANCH  22  23
ENDBRANCH   1  22
TORSDOF 4
ENDMDL
MODEL 4
REMARK VINA RESULT:    -7.309      3.922      6.965
REMARK INTER + INTRA:          -9.648
REMARK INTER:                  -9.038
REMARK INTRA:                  -0.610
REMARK UNBOUND:                -0.630
REMARK  4 active torsions:
REMARK  status: ('A' for Active; 'I' for Inactive)
REMARK    1  A    between atoms: S_2  and  N_5 
REMARK    2  A    between atoms: N_5  and  C_7 
REMARK    3  A    between atoms: C_7  and  C_8 
REMARK    4  A    between atoms: C_16  and  C_17 
REMARK       I    between atoms: C_17  and  N_19 
ROOT
HETATM    1  C   UNL     1       7.823   1.176  21.322  1.00  0.00     0.041 A 
HETATM    2  C   UNL     1       6.957   0.630  20.377  1.00  0.00     0.080 A 
HETATM    3  C   UNL     1       5.674   1.300  20.069  1.00  0.00     0.000 C 
HETATM    4  C   UNL     1       5.216   1.309  19.036  1.00  0.00     0.015 C 
HETATM    5  C   UNL     1       5.672   0.865  18.023  1.00  0.00     0.087 C 
HETATM    6  N   UNL     1       6.744   0.451  17.916  1.00  0.00    -0.377 N 
ATOM      7  HN  UNL     1       7.193   0.192  17.038  1.00  0.00     0.164 HD
HETATM    8  C   UNL     1       7.237   0.375  18.986  1.00  0.00     0.085 C 
HETATM    9  C   UNL     1       6.996  -0.256  21.250  1.00  0.00     0.050 A 
ENDROOT
BRANCH   9  10
HETATM   10  C   UNL     1       6.832  -1.521  21.848  1.00  0.00     0.256 C 
HETATM   11  O   UNL     1       5.949  -2.231  21.402  1.00  0.00    -0.268 OA
HETATM   12  N   UNL     1       7.689  -1.846  22.843  1.00  0.00    -0.308 N 
HETATM   13  C   UNL     1       7.689  -2.936  23.520  1.00  0.00     0.122 C 
ATOM     14  HN  UNL     1       8.406  -1.159  23.077  1.00  0.00     0.170 HD
HETATM   15  N   UNL     1       8.069  -4.150  23.126  1.00  0.00    -0.286 N 
HETATM   16  C   UNL     1       7.378  -2.830  24.947  1.00  0.00     0.051 C 
HETATM   17  N   UNL     1       8.124  -5.236  23.629  1.00  0.00    -0.310 N 
ATOM     18  HN  UNL     1       8.395  -4.157  22.159  1.00  0.00     0.188 HD
HETATM   19  C   UNL     1       7.766  -5.062  24.769  1.00  0.00     0.107 C 
ATOM     20  HN  UNL     1       8.408  -6.112  23.191  1.00  0.00     0.186 HD
HETATM   21  C   UNL     1       7.459  -4.046  25.329  1.00  0.00     0.022 C 
ENDBRANCH   9  10
BRANCH   1  22
HETATM   22  C   UNL     1       8.583   1.994  21.791  1.00  0.00    -0.021 C 
BRANCH  22  23
HETATM   23  N   UNL     1       9.464   2.579  22.270  1.00  0.00    -0.236 N 
ATOM     24  HN  UNL     1       9.713   3.442  21.787  1.00  0.00     0.189 HD
BRANCH  23  25
HETATM   25  S   UNL     1      10.363   2.252  23.578  1.00  0.00     0.327 S 
HETATM   26 CL   UNL     1      11.513   3.742  23.673  1.00  0.00     0.042 Cl
HETATM   27  O   UNL     1       9.556   2.230  24.779  1.00  0.00    -0.188 OA
HETATM   28  O   UNL     1      11.199   1.113  23.391  1.00  0.00    -0.188 OA
ENDBRANCH  23  25
ENDBRANCH  22  23
ENDBRANCH   1  22
TORSDOF 4
ENDMDL
MODEL 5
REMARK VINA RESULT:    -7.182     24.087     27.077
REMARK INTER + INTRA:          -9.492
REMARK INTER:                  -8.862
REMARK INTRA:                  -0.630
REMARK UNBOUND:                -0.630
REMARK  4 active torsions:
REMARK  status: ('A' for Active; 'I' for Inactive)
REMARK    1  A    between atoms: S_2  and  N_5 
REMARK    2  A    between atoms: N_5  and  C_7 
REMARK    3  A    between atoms: C_7  and  C_8 
REMARK    4  A    between atoms: C_16  and  C_17 
REMARK       I    between atoms: C_17  and  N_19 
ROOT
HETATM    1  C   UNL     1       9.545  18.081   3.210  1.00  0.00     0.041 A 
HETATM    2  C   UNL     1       8.990  18.071   1.932  1.00  0.00     0.080 A 
HETATM    3  C   UNL     1       7.706  18.760   1.674  1.00  0.00     0.000 C 
HETATM    4  C   UNL     1       7.473  19.285   0.700  1.00  0.00     0.015 C 
HETATM    5  C   UNL     1       8.192  19.443  -0.243  1.00  0.00     0.087 C 
HETATM    6  N   UNL     1       9.315  19.179  -0.259  1.00  0.00    -0.377 N 
ATOM      7  HN  UNL     1       9.969  19.426  -1.001  1.00  0.00     0.164 HD
HETATM    8  C   UNL     1       9.585  18.579   0.721  1.00  0.00     0.085 C 
HETATM    9  C   UNL     1       8.992  16.863   2.233  1.00  0.00     0.050 A 
ENDROOT
BRANCH   9  10
HETATM   10  C   UNL     1       8.915  15.466   2.068  1.00  0.00     0.256 C 
HETATM   11  O   UNL     1       9.692  14.962   1.277  1.00  0.00    -0.268 OA
HETATM   12  N   UNL     1       8.008  14.807   2.824  1.00  0.00    -0.308 N 
HETATM   13  C   UNL     1       7.776  13.545   2.803  1.00  0.00     0.122 C 
ATOM     14  HN  UNL     1       7.455  15.366   3.474  1.00  0.00     0.170 HD
HETATM   15  N   UNL     1       8.532  12.561   3.287  1.00  0.00    -0.286 N 
HETATM   16  C   UNL     1       6.457  13.122   2.330  1.00  0.00     0.051 C 
HETATM   17  N   UNL     1       8.453  11.367   3.341  1.00  0.00    -0.310 N 
ATOM     18  HN  UNL     1       9.388  12.910   3.719  1.00  0.00     0.188 HD
HETATM   19  C   UNL     1       7.380  11.111   2.849  1.00  0.00     0.107 C 
ATOM     20  HN  UNL     1       9.138  10.712   3.717  1.00  0.00     0.186 HD
HETATM   21  C   UNL     1       6.533  11.851   2.429  1.00  0.00     0.022 C 
ENDBRANCH   9  10
BRANCH   1  22
HETATM   22  C   UNL     1      10.051  18.564   4.197  1.00  0.00    -0.021 C 
BRANCH  22  23
HETATM   23  N   UNL     1      10.729  19.078   4.988  1.00  0.00    -0.236 N 
ATOM     24  HN  UNL     1      10.243  19.378   5.833  1.00  0.00     0.189 HD
BRANCH  23  25
HETATM   25  S   UNL     1      12.317  19.398   4.972  1.00  0.00     0.327 S 
HETATM   26 CL   UNL     1      12.793  19.226   6.787  1.00  0.00     0.042 Cl
HETATM   27  O   UNL     1      13.047  18.399   4.219  1.00  0.00    -0.188 OA
HETATM   28  O   UNL     1      12.595  20.748   4.611  1.00  0.00    -0.188 OA
ENDBRANCH  23  25
ENDBRANCH  22  23
ENDBRANCH   1  22
TORSDOF 4
ENDMDL
MODEL 6
REMARK VINA RESULT:    -7.080      2.265      2.595
REMARK INTER + INTRA:          -9.366
REMARK INTER:                  -8.780
REMARK INTRA:                  -0.586
REMARK UNBOUND:                -0.630
REMARK  4 active torsions:
REMARK  status: ('A' for Active; 'I' for Inactive)
REMARK    1  A    between atoms: S_2  and  N_5 
REMARK    2  A    between atoms: N_5  and  C_7 
REMARK    3  A    between atoms: C_7  and  C_8 
REMARK    4  A    between atoms: C_16  and  C_17 
REMARK       I    between atoms: C_17  and  N_19 
ROOT
HETATM    1  C   UNL     1       8.812  -2.260  24.900  1.00  0.00     0.041 A 
HETATM    2  C   UNL     1       9.518  -1.330  24.138  1.00  0.00     0.080 A 
HETATM    3  C   UNL     1       9.904  -0.028  24.726  1.00  0.00     0.000 C 
HETATM    4  C   UNL     1      10.869   0.503  24.471  1.00  0.00     0.015 C 
HETATM    5  C   UNL     1      11.757   0.118  23.767  1.00  0.00     0.087 C 
HETATM    6  N   UNL     1      11.823  -0.944  23.321  1.00  0.00    -0.377 N 
ATOM      7  HN  UNL     1      12.631  -1.330  22.832  1.00  0.00     0.164 HD
HETATM    8  C   UNL     1      10.808  -1.511  23.520  1.00  0.00     0.085 C 
HETATM    9  C   UNL     1       8.447  -1.432  23.513  1.00  0.00     0.050 A 
ENDROOT
BRANCH   9  10
HETATM   10  C   UNL     1       7.525  -1.312  22.455  1.00  0.00     0.256 C 
HETATM   11  O   UNL     1       6.716  -2.213  22.325  1.00  0.00    -0.268 OA
HETATM   12  N   UNL     1       7.601  -0.195  21.696  1.00  0.00    -0.308 N 
HETATM   13  C   UNL     1       6.868   0.086  20.682  1.00  0.00     0.122 C 
ATOM     14  HN  UNL     1       8.310   0.492  21.955  1.00  0.00     0.170 HD
HETATM   15  N   UNL     1       5.590   0.459  20.668  1.00  0.00    -0.286 N 
HETATM   16  C   UNL     1       7.536   0.158  19.380  1.00  0.00     0.051 C 
HETATM   17  N   UNL     1       4.789   0.745  19.824  1.00  0.00    -0.310 N 
ATOM     18  HN  UNL     1       5.195   0.514  21.607  1.00  0.00     0.188 HD
HETATM   19  C   UNL     1       5.408   0.689  18.788  1.00  0.00     0.107 C 
ATOM     20  HN  UNL     1       3.806   0.983  19.951  1.00  0.00     0.186 HD
HETATM   21  C   UNL     1       6.569   0.449  18.599  1.00  0.00     0.022 C 
ENDBRANCH   9  10
BRANCH   1  22
HETATM   22  C   UNL     1       8.630  -3.050  25.799  1.00  0.00    -0.021 C 
BRANCH  22  23
HETATM   23  N   UNL     1       8.215  -3.728  26.645  1.00  0.00    -0.236 N 
ATOM     24  HN  UNL     1       8.578  -3.515  27.575  1.00  0.00     0.189 HD
BRANCH  23  25
HETATM   25  S   UNL     1       7.157  -4.954  26.596  1.00  0.00     0.327 S 
HETATM   26 CL   UNL     1       5.616  -4.203  27.376  1.00  0.00     0.042 Cl
HETATM   27  O   UNL     1       6.839  -5.320  25.232  1.00  0.00    -0.188 OA
HETATM   28  O   UNL     1       7.544  -6.038  27.437  1.00  0.00    -0.188 OA
ENDBRANCH  23  25
ENDBRANCH  22  23
ENDBRANCH   1  22
TORSDOF 4
ENDMDL
MODEL 7
REMARK VINA RESULT:    -6.821      3.751      4.583
REMARK INTER + INTRA:          -9.046
REMARK INTER:                  -8.392
REMARK INTRA:                  -0.653
REMARK UNBOUND:                -0.630
REMARK  4 active torsions:
REMARK  status: ('A' for Active; 'I' for Inactive)
REMARK    1  A    between atoms: S_2  and  N_5 
REMARK    2  A    between atoms: N_5  and  C_7 
REMARK    3  A    between atoms: C_7  and  C_8 
REMARK    4  A    between atoms: C_16  and  C_17 
REMARK       I    between atoms: C_17  and  N_19 
ROOT
HETATM    1  C   UNL     1       5.296  -4.957  23.457  1.00  0.00     0.041 A 
HETATM    2  C   UNL     1       5.961  -3.797  23.852  1.00  0.00     0.080 A 
HETATM    3  C   UNL     1       5.389  -2.938  24.914  1.00  0.00     0.000 C 
HETATM    4  C   UNL     1       6.024  -2.376  25.661  1.00  0.00     0.015 C 
HETATM    5  C   UNL     1       7.214  -2.407  25.787  1.00  0.00     0.087 C 
HETATM    6  N   UNL     1       7.912  -3.133  25.225  1.00  0.00    -0.377 N 
ATOM      7  HN  UNL     1       8.905  -3.263  25.415  1.00  0.00     0.164 HD
HETATM    8  C   UNL     1       7.293  -3.699  24.395  1.00  0.00     0.085 C 
HETATM    9  C   UNL     1       5.696  -3.562  22.659  1.00  0.00     0.050 A 
ENDROOT
BRANCH   9  10
HETATM   10  C   UNL     1       5.745  -2.931  21.401  1.00  0.00     0.256 C 
HETATM   11  O   UNL     1       5.551  -3.634  20.425  1.00  0.00    -0.268 OA
HETATM   12  N   UNL     1       5.972  -1.597  21.389  1.00  0.00    -0.308 N 
HETATM   13  C   UNL     1       6.071  -0.853  20.349  1.00  0.00     0.122 C 
ATOM     14  HN  UNL     1       6.074  -1.139  22.295  1.00  0.00     0.170 HD
HETATM   15  N   UNL     1       5.101  -0.447  19.532  1.00  0.00    -0.286 N 
HETATM   16  C   UNL     1       7.376  -0.239  20.096  1.00  0.00     0.051 C 
HETATM   17  N   UNL     1       5.039   0.230  18.546  1.00  0.00    -0.310 N 
ATOM     18  HN  UNL     1       4.186  -0.799  19.815  1.00  0.00     0.188 HD
HETATM   19  C   UNL     1       6.170   0.613  18.369  1.00  0.00     0.107 C 
ATOM     20  HN  UNL     1       4.215   0.436  17.982  1.00  0.00     0.186 HD
HETATM   21  C   UNL     1       7.156   0.423  19.026  1.00  0.00     0.022 C 
ENDBRANCH   9  10
BRANCH   1  22
HETATM   22  C   UNL     1       4.843  -6.072  23.577  1.00  0.00    -0.021 C 
BRANCH  22  23
HETATM   23  N   UNL     1       4.362  -7.069  23.930  1.00  0.00    -0.236 N 
ATOM     24  HN  UNL     1       4.992  -7.871  23.919  1.00  0.00     0.189 HD
BRANCH  23  25
HETATM   25  S   UNL     1       2.858  -7.397  24.437  1.00  0.00     0.327 S 
HETATM   26 CL   UNL     1       2.731  -6.397  26.029  1.00  0.00     0.042 Cl
HETATM   27  O   UNL     1       1.869  -6.893  23.508  1.00  0.00    -0.188 OA
HETATM   28  O   UNL     1       2.697  -8.763  24.808  1.00  0.00    -0.188 OA
ENDBRANCH  23  25
ENDBRANCH  22  23
ENDBRANCH   1  22
TORSDOF 4
ENDMDL
MODEL 8
REMARK VINA RESULT:    -6.643     23.229     25.311
REMARK INTER + INTRA:          -8.826
REMARK INTER:                  -8.065
REMARK INTRA:                  -0.761
REMARK UNBOUND:                -0.630
REMARK  4 active torsions:
REMARK  status: ('A' for Active; 'I' for Inactive)
REMARK    1  A    between atoms: S_2  and  N_5 
REMARK    2  A    between atoms: N_5  and  C_7 
REMARK    3  A    between atoms: C_7  and  C_8 
REMARK    4  A    between atoms: C_16  and  C_17 
REMARK       I    between atoms: C_17  and  N_19 
ROOT
HETATM    1  C   UNL     1       8.404  15.019   2.720  1.00  0.00     0.041 A 
HETATM    2  C   UNL     1       8.368  13.924   3.581  1.00  0.00     0.080 A 
HETATM    3  C   UNL     1       7.094  13.523   4.220  1.00  0.00     0.000 C 
HETATM    4  C   UNL     1       6.821  12.447   4.428  1.00  0.00     0.015 C 
HETATM    5  C   UNL     1       7.433  11.461   4.136  1.00  0.00     0.087 C 
HETATM    6  N   UNL     1       8.371  11.451   3.465  1.00  0.00    -0.377 N 
ATOM      7  HN  UNL     1       8.827  10.614   3.098  1.00  0.00     0.164 HD
HETATM    8  C   UNL     1       8.721  12.561   3.270  1.00  0.00     0.085 C 
HETATM    9  C   UNL     1       9.135  14.705   4.172  1.00  0.00     0.050 A 
ENDROOT
BRANCH   9  10
HETATM   10  C   UNL     1      10.102  15.153   5.093  1.00  0.00     0.256 C 
HETATM   11  O   UNL     1      11.244  14.766   4.925  1.00  0.00    -0.268 OA
HETATM   12  N   UNL     1       9.682  15.998   6.063  1.00  0.00    -0.308 N 
HETATM   13  C   UNL     1      10.403  16.496   7.000  1.00  0.00     0.122 C 
ATOM     14  HN  UNL     1       8.698  16.265   6.048  1.00  0.00     0.170 HD
HETATM   15  N   UNL     1      11.327  17.451   6.909  1.00  0.00    -0.286 N 
HETATM   16  C   UNL     1      10.083  16.089   8.370  1.00  0.00     0.051 C 
HETATM   17  N   UNL     1      12.065  18.006   7.673  1.00  0.00    -0.310 N 
ATOM     18  HN  UNL     1      11.433  17.794   5.954  1.00  0.00     0.188 HD
HETATM   19  C   UNL     1      11.789  17.541   8.753  1.00  0.00     0.107 C 
ATOM     20  HN  UNL     1      12.768  18.713   7.458  1.00  0.00     0.186 HD
HETATM   21  C   UNL     1      10.948  16.738   9.050  1.00  0.00     0.022 C 
ENDBRANCH   9  10
BRANCH   1  22
HETATM   22  C   UNL     1       8.152  15.657   1.722  1.00  0.00    -0.021 C 
BRANCH  22  23
HETATM   23  N   UNL     1       7.964  16.467   0.912  1.00  0.00    -0.236 N 
ATOM     24  HN  UNL     1       7.344  16.175   0.156  1.00  0.00     0.189 HD
BRANCH  23  25
HETATM   25  S   UNL     1       8.522  17.982   0.781  1.00  0.00     0.327 S 
HETATM   26 CL   UNL     1       8.264  18.669   2.517  1.00  0.00     0.042 Cl
HETATM   27  O   UNL     1       9.942  17.997   0.498  1.00  0.00    -0.188 OA
HETATM   28  O   UNL     1       7.724  18.781  -0.088  1.00  0.00    -0.188 OA
ENDBRANCH  23  25
ENDBRANCH  22  23
ENDBRANCH   1  22
TORSDOF 4
ENDMDL
MODEL 9
REMARK VINA RESULT:    -6.427     14.156     15.300
REMARK INTER + INTRA:          -8.560
REMARK INTER:                  -7.824
REMARK INTRA:                  -0.737
REMARK UNBOUND:                -0.630
REMARK  4 active torsions:
REMARK  status: ('A' for Active; 'I' for Inactive)
REMARK    1  A    between atoms: S_2  and  N_5 
REMARK    2  A    between atoms: N_5  and  C_7 
REMARK    3  A    between atoms: C_7  and  C_8 
REMARK    4  A    between atoms: C_16  and  C_17 
REMARK       I    between atoms: C_17  and  N_19 
ROOT
HETATM    1  C   UNL     1      23.708  -2.661  23.130  1.00  0.00     0.041 A 
HETATM    2  C   UNL     1      22.947  -1.500  23.259  1.00  0.00     0.080 A 
HETATM    3  C   UNL     1      21.725  -1.502  24.093  1.00  0.00     0.000 C 
HETATM    4  C   UNL     1      21.391  -0.608  24.700  1.00  0.00     0.015 C 
HETATM    5  C   UNL     1      21.954   0.438  24.840  1.00  0.00     0.087 C 
HETATM    6  N   UNL     1      23.020   0.662  24.463  1.00  0.00    -0.377 N 
ATOM      7  HN  UNL     1      23.563   1.496  24.686  1.00  0.00     0.164 HD
HETATM    8  C   UNL     1      23.383  -0.227  23.778  1.00  0.00     0.085 C 
HETATM    9  C   UNL     1      22.863  -1.743  22.041  1.00  0.00     0.050 A 
ENDROOT
BRANCH   9  10
HETATM   10  C   UNL     1      22.602  -1.533  20.673  1.00  0.00     0.256 C 
HETATM   11  O   UNL     1      21.433  -1.530  20.330  1.00  0.00    -0.268 OA
HETATM   12  N   UNL     1      23.669  -1.324  19.868  1.00  0.00    -0.308 N 
HETATM   13  C   UNL     1      23.637  -1.134  18.600  1.00  0.00     0.122 C 
ATOM     14  HN  UNL     1      24.587  -1.315  20.312  1.00  0.00     0.170 HD
HETATM   15  N   UNL     1      23.235  -0.051  17.939  1.00  0.00    -0.286 N 
HETATM   16  C   UNL     1      24.255  -2.164  17.761  1.00  0.00     0.051 C 
HETATM   17  N   UNL     1      23.147   0.268  16.787  1.00  0.00    -0.310 N 
ATOM     18  HN  UNL     1      22.926   0.691  18.568  1.00  0.00     0.188 HD
HETATM   19  C   UNL     1      23.594  -0.674  16.177  1.00  0.00     0.107 C 
ATOM     20  HN  UNL     1      22.777   1.139  16.407  1.00  0.00     0.186 HD
HETATM   21  C   UNL     1      24.069  -1.697  16.586  1.00  0.00     0.022 C 
ENDBRANCH   9  10
BRANCH   1  22
HETATM   22  C   UNL     1      24.426  -3.564  23.496  1.00  0.00    -0.021 C 
BRANCH  22  23
HETATM   23  N   UNL     1      24.896  -4.545  23.904  1.00  0.00    -0.236 N 
ATOM     24  HN  UNL     1      25.762  -4.824  23.443  1.00  0.00     0.189 HD
BRANCH  23  25
HETATM   25  S   UNL     1      24.405  -5.543  25.082  1.00  0.00     0.327 S 
HETATM   26 CL   UNL     1      23.114  -4.513  25.987  1.00  0.00     0.042 Cl
HETATM   27  O   UNL     1      23.747  -6.713  24.539  1.00  0.00    -0.188 OA
HETATM   28  O   UNL     1      25.436  -5.815  26.027  1.00  0.00    -0.188 OA
ENDBRANCH  23  25
ENDBRANCH  22  23
ENDBRANCH   1  22
TORSDOF 4
ENDMDL
