stable:False satoms:10 tatoms:24 sratio:0.4166666666666667
  -OEChem-07092417413D

 24 26  0     1  0  0  0  0  0999 V2000
    6.4908   -4.7598   26.4972 Cl  0  0  0  0  0  0  0  0  0  0  0  0
    8.2773   -4.2638   26.1607 S   0  0  0  0  0  0  0  0  0  0  0  0
    9.0598   -5.4727   26.0142 O   0  0  0  0  0  0  0  0  0  0  0  0
    8.6676   -3.4186   27.2398 O   0  0  0  0  0  0  0  0  0  0  0  0
    8.1656   -3.4609   24.7581 N   0  0  0  0  0  0  0  0  0  0  0  0
    8.9132   -2.7417   24.2351 C   0  0  0  0  0  0  0  0  0  0  0  0
    9.4735   -1.8666   23.6139 C   0  0  0  0  0  0  0  0  0  0  0  0
   10.5435   -1.0719   23.2063 C   0  0  1  0  0  0  0  0  0  0  0  0
   11.1972   -0.1562   24.1674 C   0  0  0  0  0  0  0  0  0  0  0  0
   12.3053    0.0657   24.1511 C   0  0  0  0  0  0  0  0  0  0  0  0
   13.1415   -0.4119   23.4415 C   0  0  0  0  0  0  0  0  0  0  0  0
   12.9610   -1.2942   22.7210 N   0  0  0  0  0  0  0  0  0  0  0  0
   11.8036   -1.5202   22.6689 C   0  0  0  0  0  0  0  0  0  0  0  0
    9.6120   -0.6557   22.4934 C   0  0  1  0  0  0  0  0  0  0  0  0
    8.9606    0.0160   21.4400 C   0  0  0  0  0  0  0  0  0  0  0  0
    9.5401    0.9717   20.9561 O   0  0  0  0  0  0  0  0  0  0  0  0
    7.7666   -0.4784   21.0402 N   0  0  0  0  0  0  0  0  0  0  0  0
    7.0173    0.0027   20.1166 C   0  0  0  0  0  0  0  0  0  0  0  0
    7.2014   -0.0425   18.7992 N   0  0  0  0  0  0  0  0  0  0  0  0
    6.6074    0.3510   17.8361 N   0  0  0  0  0  0  0  0  0  0  0  0
    5.6035    0.8543   18.2829 C   0  0  0  0  0  0  0  0  0  0  0  0
    5.2244    0.9283   19.4188 C   0  0  0  0  0  0  0  0  0  0  0  0
    5.7191    0.5410   20.5312 C   0  0  0  0  0  0  0  0  0  0  0  0
    5.3317    0.5941   21.5071 H   0  0  0  0  0  0  0  0  0  0  0  0
 20 21  2  0  0  0  0
 19 20  1  0  0  0  0
 21 22  1  0  0  0  0
 18 19  2  0  0  0  0
 22 23  2  0  0  0  0
 18 23  1  0  0  0  0
 17 18  1  0  0  0  0
 23 24  1  0  0  0  0
 15 16  2  0  0  0  0
 15 17  1  0  0  0  0
 14 15  1  0  0  0  0
  8 14  1  0  0  0  0
  7 14  1  0  0  0  0
 12 13  1  0  0  0  0
  8 13  1  0  0  0  0
 11 12  2  0  0  0  0
  7  8  1  0  0  0  0
  8  9  1  0  0  0  0
 10 11  1  0  0  0  0
  6  7  2  0  0  0  0
  9 10  2  0  0  0  0
  5  6  1  0  0  0  0
  2  5  1  0  0  0  0
  2  3  2  0  0  0  0
  1  2  1  0  0  0  0
  2  4  2  0  0  0  0
M  END
> <Shapegauss>
-282.948059

$$$$
