MODEL 1
REMARK VINA RESULT:    -5.260      0.000      0.000
REMARK INTER + INTRA:          -5.655
REMARK INTER:                  -5.568
REMARK INTRA:                  -0.088
REMARK UNBOUND:                -0.088
REMARK  1 active torsions:
REMARK  status: ('A' for Active; 'I' for Inactive)
REMARK    1  A    between atoms: N_16  and  C_17 
ROOT
HETATM    1  C   UNL     1       7.684   1.718  21.430  1.00  0.00     0.189 C 
HETATM    2  N   UNL     1       9.939  -1.220  21.702  1.00  0.00    -0.353 N 
ATOM      3  HN  UNL     1       9.945  -2.151  21.285  1.00  0.00     0.166 HD
HETATM    4  S   UNL     1       8.019   0.117  20.527  1.00  0.00    -0.099 SA
HETATM    5  C   UNL     1       9.064  -0.463  21.582  1.00  0.00     0.136 C 
HETATM    6 CL   UNL     1       5.980   1.790  21.523  1.00  0.00    -0.107 Cl
HETATM    7  C   UNL     1      10.920   0.627  22.936  1.00  0.00     0.082 C 
HETATM    8  N   UNL     1      10.405   1.690  22.365  1.00  0.00    -0.296 N 
ATOM      9  HN  UNL     1      10.584   1.972  21.401  1.00  0.00     0.187 HD
HETATM   10  C   UNL     1      11.693   0.678  24.130  1.00  0.00     0.041 C 
HETATM   11  C   UNL     1      10.937  -0.733  22.447  1.00  0.00     0.102 C 
HETATM   12  S   UNL     1      12.403  -1.550  23.024  1.00  0.00    -0.082 SA
HETATM   13  C   UNL     1      12.575  -0.309  24.236  1.00  0.00     0.054 C 
HETATM   14  C   UNL     1       8.313   2.247  22.792  1.00  0.00     0.114 C 
HETATM   15  N   UNL     1       9.582   2.381  23.250  1.00  0.00    -0.305 N 
ENDROOT
BRANCH  15  16
HETATM   16  C   UNL     1      10.125   3.352  24.186  1.00  0.00     0.143 C 
HETATM   17  C   UNL     1      11.207   4.225  23.559  1.00  0.00     0.028 C 
ENDBRANCH  15  16
TORSDOF 1
ENDMDL
MODEL 2
REMARK VINA RESULT:    -5.186      3.775      5.375
REMARK INTER + INTRA:          -5.577
REMARK INTER:                  -5.480
REMARK INTRA:                  -0.096
REMARK UNBOUND:                -0.088
REMARK  1 active torsions:
REMARK  status: ('A' for Active; 'I' for Inactive)
REMARK    1  A    between atoms: N_16  and  C_17 
ROOT
HETATM    1  C   UNL     1       7.754  -3.395  24.134  1.00  0.00     0.189 C 
HETATM    2  N   UNL     1       5.624  -2.371  21.268  1.00  0.00    -0.353 N 
ATOM      3  HN  UNL     1       4.726  -2.686  20.904  1.00  0.00     0.166 HD
HETATM    4  S   UNL     1       5.999  -3.627  23.534  1.00  0.00    -0.099 SA
HETATM    5  C   UNL     1       6.199  -2.908  22.126  1.00  0.00     0.136 C 
HETATM    6 CL   UNL     1       8.231  -4.960  24.625  1.00  0.00    -0.107 Cl
HETATM    7  C   UNL     1       7.501  -0.838  21.426  1.00  0.00     0.082 C 
HETATM    8  N   UNL     1       7.855  -0.909  22.688  1.00  0.00    -0.296 N 
ATOM      9  HN  UNL     1       7.275  -0.602  23.469  1.00  0.00     0.187 HD
HETATM   10  C   UNL     1       8.260  -0.149  20.440  1.00  0.00     0.041 C 
HETATM   11  C   UNL     1       6.275  -1.296  20.812  1.00  0.00     0.102 C 
HETATM   12  S   UNL     1       5.879  -0.250  19.434  1.00  0.00    -0.082 SA
HETATM   13  C   UNL     1       7.530   0.310  19.430  1.00  0.00     0.054 C 
HETATM   14  C   UNL     1       8.970  -2.673  23.406  1.00  0.00     0.114 C 
HETATM   15  N   UNL     1       9.127  -1.461  22.818  1.00  0.00    -0.305 N 
ENDROOT
BRANCH  15  16
HETATM   16  C   UNL     1      10.321  -0.641  22.702  1.00  0.00     0.143 C 
HETATM   17  C   UNL     1      11.603  -1.466  22.750  1.00  0.00     0.028 C 
ENDBRANCH  15  16
TORSDOF 1
ENDMDL
MODEL 3
REMARK VINA RESULT:    -5.079      2.836      4.103
REMARK INTER + INTRA:          -5.463
REMARK INTER:                  -5.344
REMARK INTRA:                  -0.119
REMARK UNBOUND:                -0.088
REMARK  1 active torsions:
REMARK  status: ('A' for Active; 'I' for Inactive)
REMARK    1  A    between atoms: N_16  and  C_17 
ROOT
HETATM    1  C   UNL     1       7.517  -3.025  22.567  1.00  0.00     0.189 C 
HETATM    2  N   UNL     1      10.032  -1.174  24.579  1.00  0.00    -0.353 N 
ATOM      3  HN  UNL     1      10.469  -1.332  25.486  1.00  0.00     0.166 HD
HETATM    4  S   UNL     1       8.633  -3.320  24.037  1.00  0.00    -0.099 SA
HETATM    5  C   UNL     1       9.159  -1.821  24.160  1.00  0.00     0.136 C 
HETATM    6 CL   UNL     1       6.019  -3.688  23.048  1.00  0.00    -0.107 Cl
HETATM    7  C   UNL     1       9.806  -0.080  22.422  1.00  0.00     0.082 C 
HETATM    8  N   UNL     1       9.375  -1.035  21.633  1.00  0.00    -0.296 N 
ATOM      9  HN  UNL     1       9.912  -1.866  21.384  1.00  0.00     0.187 HD
HETATM   10  C   UNL     1       9.878   1.285  22.030  1.00  0.00     0.041 C 
HETATM   11  C   UNL     1      10.396  -0.202  23.737  1.00  0.00     0.102 C 
HETATM   12  S   UNL     1      11.564   1.110  23.984  1.00  0.00    -0.082 SA
HETATM   13  C   UNL     1      10.820   1.974  22.664  1.00  0.00     0.054 C 
HETATM   14  C   UNL     1       7.267  -1.678  21.757  1.00  0.00     0.114 C 
HETATM   15  N   UNL     1       8.086  -0.764  21.182  1.00  0.00    -0.305 N 
ENDROOT
BRANCH  15  16
HETATM   16  C   UNL     1       7.855   0.076  20.017  1.00  0.00     0.143 C 
HETATM   17  C   UNL     1       6.479   0.733  20.035  1.00  0.00     0.028 C 
ENDBRANCH  15  16
TORSDOF 1
ENDMDL
MODEL 4
REMARK VINA RESULT:    -5.014      5.298      6.989
REMARK INTER + INTRA:          -5.395
REMARK INTER:                  -5.320
REMARK INTRA:                  -0.075
REMARK UNBOUND:                -0.088
REMARK  1 active torsions:
REMARK  status: ('A' for Active; 'I' for Inactive)
REMARK    1  A    between atoms: N_16  and  C_17 
ROOT
HETATM    1  C   UNL     1       6.476  -5.631  25.671  1.00  0.00     0.189 C 
HETATM    2  N   UNL     1       8.644  -2.667  26.231  1.00  0.00    -0.353 N 
ATOM      3  HN  UNL     1       9.000  -2.195  27.062  1.00  0.00     0.166 HD
HETATM    4  S   UNL     1       7.459  -4.851  27.057  1.00  0.00    -0.099 SA
HETATM    5  C   UNL     1       7.864  -3.530  26.261  1.00  0.00     0.136 C 
HETATM    6 CL   UNL     1       4.988  -6.039  26.402  1.00  0.00    -0.107 Cl
HETATM    7  C   UNL     1       8.557  -3.124  23.848  1.00  0.00     0.082 C 
HETATM    8  N   UNL     1       8.273  -4.404  23.787  1.00  0.00    -0.296 N 
ATOM      9  HN  UNL     1       8.889  -5.148  24.115  1.00  0.00     0.187 HD
HETATM   10  C   UNL     1       8.571  -2.272  22.709  1.00  0.00     0.041 C 
HETATM   11  C   UNL     1       9.021  -2.362  24.985  1.00  0.00     0.102 C 
HETATM   12  S   UNL     1      10.064  -1.041  24.425  1.00  0.00    -0.082 SA
HETATM   13  C   UNL     1       9.395  -1.238  22.827  1.00  0.00     0.054 C 
HETATM   14  C   UNL     1       6.214  -5.081  24.201  1.00  0.00     0.114 C 
HETATM   15  N   UNL     1       7.019  -4.609  23.218  1.00  0.00    -0.305 N 
ENDROOT
BRANCH  15  16
HETATM   16  C   UNL     1       6.846  -4.673  21.776  1.00  0.00     0.143 C 
HETATM   17  C   UNL     1       6.060  -5.904  21.336  1.00  0.00     0.028 C 
ENDBRANCH  15  16
TORSDOF 1
ENDMDL
MODEL 5
REMARK VINA RESULT:    -4.981      3.176      4.385
REMARK INTER + INTRA:          -5.360
REMARK INTER:                  -5.229
REMARK INTRA:                  -0.131
REMARK UNBOUND:                -0.088
REMARK  1 active torsions:
REMARK  status: ('A' for Active; 'I' for Inactive)
REMARK    1  A    between atoms: N_16  and  C_17 
ROOT
HETATM    1  C   UNL     1       7.847   0.195  21.115  1.00  0.00     0.189 C 
HETATM    2  N   UNL     1       6.001  -2.949  21.826  1.00  0.00    -0.353 N 
ATOM      3  HN  UNL     1       5.103  -3.327  21.527  1.00  0.00     0.166 HD
HETATM    4  S   UNL     1       6.403  -0.772  20.427  1.00  0.00    -0.099 SA
HETATM    5  C   UNL     1       6.362  -1.869  21.583  1.00  0.00     0.136 C 
HETATM    6 CL   UNL     1       7.289   1.809  21.137  1.00  0.00    -0.107 Cl
HETATM    7  C   UNL     1       8.195  -3.087  22.859  1.00  0.00     0.082 C 
HETATM    8  N   UNL     1       8.927  -2.266  22.144  1.00  0.00    -0.296 N 
ATOM      9  HN  UNL     1       9.157  -2.405  21.160  1.00  0.00     0.187 HD
HETATM   10  C   UNL     1       8.649  -3.691  24.064  1.00  0.00     0.041 C 
HETATM   11  C   UNL     1       6.897  -3.638  22.541  1.00  0.00     0.102 C 
HETATM   12  S   UNL     1       6.746  -5.250  23.265  1.00  0.00    -0.082 SA
HETATM   13  C   UNL     1       8.077  -4.861  24.322  1.00  0.00     0.054 C 
HETATM   14  C   UNL     1       8.706  -0.088  22.424  1.00  0.00     0.114 C 
HETATM   15  N   UNL     1       9.347  -1.180  22.908  1.00  0.00    -0.305 N 
ENDROOT
BRANCH  15  16
HETATM   16  C   UNL     1      10.540  -1.256  23.737  1.00  0.00     0.143 C 
HETATM   17  C   UNL     1      11.801  -1.518  22.922  1.00  0.00     0.028 C 
ENDBRANCH  15  16
TORSDOF 1
ENDMDL
MODEL 6
REMARK VINA RESULT:    -4.899      7.400      8.529
REMARK INTER + INTRA:          -5.273
REMARK INTER:                  -5.141
REMARK INTRA:                  -0.132
REMARK UNBOUND:                -0.088
REMARK  1 active torsions:
REMARK  status: ('A' for Active; 'I' for Inactive)
REMARK    1  A    between atoms: N_16  and  C_17 
ROOT
HETATM    1  C   UNL     1       5.182  -6.094  27.511  1.00  0.00     0.189 C 
HETATM    2  N   UNL     1       4.640  -6.782  23.901  1.00  0.00    -0.353 N 
ATOM      3  HN  UNL     1       3.956  -7.328  23.378  1.00  0.00     0.166 HD
HETATM    4  S   UNL     1       3.844  -6.773  26.396  1.00  0.00    -0.099 SA
HETATM    5  C   UNL     1       4.718  -6.783  25.062  1.00  0.00     0.136 C 
HETATM    6 CL   UNL     1       5.209  -7.179  28.829  1.00  0.00    -0.107 Cl
HETATM    7  C   UNL     1       6.432  -5.157  24.121  1.00  0.00     0.082 C 
HETATM    8  N   UNL     1       6.194  -4.587  25.278  1.00  0.00    -0.296 N 
ATOM      9  HN  UNL     1       5.375  -4.014  25.482  1.00  0.00     0.187 HD
HETATM   10  C   UNL     1       7.619  -4.934  23.368  1.00  0.00     0.041 C 
HETATM   11  C   UNL     1       5.547  -5.983  23.329  1.00  0.00     0.102 C 
HETATM   12  S   UNL     1       5.913  -5.759  21.608  1.00  0.00    -0.082 SA
HETATM   13  C   UNL     1       7.457  -5.088  22.060  1.00  0.00     0.054 C 
HETATM   14  C   UNL     1       6.670  -5.670  27.141  1.00  0.00     0.114 C 
HETATM   15  N   UNL     1       7.209  -4.868  26.189  1.00  0.00    -0.305 N 
ENDROOT
BRANCH  15  16
HETATM   16  C   UNL     1       8.425  -4.073  26.235  1.00  0.00     0.143 C 
HETATM   17  C   UNL     1       8.142  -2.574  26.239  1.00  0.00     0.028 C 
ENDBRANCH  15  16
TORSDOF 1
ENDMDL
MODEL 7
REMARK VINA RESULT:    -4.894      2.064      3.509
REMARK INTER + INTRA:          -5.268
REMARK INTER:                  -5.190
REMARK INTRA:                  -0.078
REMARK UNBOUND:                -0.088
REMARK  1 active torsions:
REMARK  status: ('A' for Active; 'I' for Inactive)
REMARK    1  A    between atoms: N_16  and  C_17 
ROOT
HETATM    1  C   UNL     1       8.059   2.704  23.080  1.00  0.00     0.189 C 
HETATM    2  N   UNL     1      11.565   1.961  24.056  1.00  0.00    -0.353 N 
ATOM      3  HN  UNL     1      12.316   2.509  24.476  1.00  0.00     0.166 HD
HETATM    4  S   UNL     1       9.418   3.458  24.119  1.00  0.00    -0.099 SA
HETATM    5  C   UNL     1      10.550   2.413  23.710  1.00  0.00     0.136 C 
HETATM    6 CL   UNL     1       7.437   4.026  22.195  1.00  0.00    -0.107 Cl
HETATM    7  C   UNL     1      10.509  -0.101  23.329  1.00  0.00     0.082 C 
HETATM    8  N   UNL     1       9.231   0.116  23.533  1.00  0.00    -0.296 N 
ATOM      9  HN  UNL     1       8.807   0.248  24.452  1.00  0.00     0.187 HD
HETATM   10  C   UNL     1      11.007  -1.240  22.636  1.00  0.00     0.041 C 
HETATM   11  C   UNL     1      11.637   0.643  23.840  1.00  0.00     0.102 C 
HETATM   12  S   UNL     1      13.015  -0.452  24.064  1.00  0.00    -0.082 SA
HETATM   13  C   UNL     1      12.230  -1.597  23.008  1.00  0.00     0.054 C 
HETATM   14  C   UNL     1       8.114   1.418  22.146  1.00  0.00     0.114 C 
HETATM   15  N   UNL     1       8.531   0.141  22.330  1.00  0.00    -0.305 N 
ENDROOT
BRANCH  15  16
HETATM   16  C   UNL     1       8.054  -1.083  21.707  1.00  0.00     0.143 C 
HETATM   17  C   UNL     1       6.704  -0.901  21.021  1.00  0.00     0.028 C 
ENDBRANCH  15  16
TORSDOF 1
ENDMDL
MODEL 8
REMARK VINA RESULT:    -4.830      3.658      4.929
REMARK INTER + INTRA:          -5.199
REMARK INTER:                  -5.071
REMARK INTRA:                  -0.128
REMARK UNBOUND:                -0.088
REMARK  1 active torsions:
REMARK  status: ('A' for Active; 'I' for Inactive)
REMARK    1  A    between atoms: N_16  and  C_17 
ROOT
HETATM    1  C   UNL     1      11.158  -0.394  24.415  1.00  0.00     0.189 C 
HETATM    2  N   UNL     1       9.139  -2.485  22.102  1.00  0.00    -0.353 N 
ATOM      3  HN  UNL     1       9.312  -2.899  21.187  1.00  0.00     0.166 HD
HETATM    4  S   UNL     1      11.415  -1.472  22.910  1.00  0.00    -0.099 SA
HETATM    5  C   UNL     1       9.870  -1.746  22.627  1.00  0.00     0.136 C 
HETATM    6 CL   UNL     1      12.087   1.001  24.084  1.00  0.00    -0.107 Cl
HETATM    7  C   UNL     1       7.895  -2.189  24.167  1.00  0.00     0.082 C 
HETATM    8  N   UNL     1       8.827  -1.952  25.060  1.00  0.00    -0.296 N 
ATOM      9  HN  UNL     1       9.537  -2.626  25.346  1.00  0.00     0.187 HD
HETATM   10  C   UNL     1       6.504  -2.061  24.436  1.00  0.00     0.041 C 
HETATM   11  C   UNL     1       8.047  -2.728  22.834  1.00  0.00     0.102 C 
HETATM   12  S   UNL     1       6.600  -3.660  22.406  1.00  0.00    -0.082 SA
HETATM   13  C   UNL     1       5.741  -2.850  23.689  1.00  0.00     0.054 C 
HETATM   14  C   UNL     1       9.796   0.030  25.120  1.00  0.00     0.114 C 
HETATM   15  N   UNL     1       8.716  -0.659  25.564  1.00  0.00    -0.305 N 
ENDROOT
BRANCH  15  16
HETATM   16  C   UNL     1       7.817  -0.352  26.665  1.00  0.00     0.143 C 
HETATM   17  C   UNL     1       7.164   1.019  26.520  1.00  0.00     0.028 C 
ENDBRANCH  15  16
TORSDOF 1
ENDMDL
MODEL 9
REMARK VINA RESULT:    -4.711      5.137      6.382
REMARK INTER + INTRA:          -5.074
REMARK INTER:                  -4.937
REMARK INTRA:                  -0.136
REMARK UNBOUND:                -0.088
REMARK  1 active torsions:
REMARK  status: ('A' for Active; 'I' for Inactive)
REMARK    1  A    between atoms: N_16  and  C_17 
ROOT
HETATM    1  C   UNL     1       6.455  -4.945  22.705  1.00  0.00     0.189 C 
HETATM    2  N   UNL     1       7.148  -1.304  22.957  1.00  0.00    -0.353 N 
ATOM      3  HN  UNL     1       7.010  -0.511  22.331  1.00  0.00     0.166 HD
HETATM    4  S   UNL     1       5.989  -3.362  21.827  1.00  0.00    -0.099 SA
HETATM    5  C   UNL     1       6.972  -2.412  22.646  1.00  0.00     0.136 C 
HETATM    6 CL   UNL     1       6.810  -6.031  21.435  1.00  0.00    -0.107 Cl
HETATM    7  C   UNL     1       7.638  -2.338  25.100  1.00  0.00     0.082 C 
HETATM    8  N   UNL     1       6.890  -3.415  25.103  1.00  0.00    -0.296 N 
ATOM      9  HN  UNL     1       5.869  -3.411  25.109  1.00  0.00     0.187 HD
HETATM   10  C   UNL     1       8.623  -2.067  26.090  1.00  0.00     0.041 C 
HETATM   11  C   UNL     1       7.550  -1.188  24.227  1.00  0.00     0.102 C 
HETATM   12  S   UNL     1       8.074   0.261  25.105  1.00  0.00    -0.082 SA
HETATM   13  C   UNL     1       8.849  -0.772  26.277  1.00  0.00     0.054 C 
HETATM   14  C   UNL     1       7.492  -5.160  23.893  1.00  0.00     0.114 C 
HETATM   15  N   UNL     1       7.674  -4.566  25.098  1.00  0.00    -0.305 N 
ENDROOT
BRANCH  15  16
HETATM   16  C   UNL     1       8.199  -5.128  26.332  1.00  0.00     0.143 C 
HETATM   17  C   UNL     1       7.121  -5.308  27.396  1.00  0.00     0.028 C 
ENDBRANCH  15  16
TORSDOF 1
ENDMDL
