REMARK  7 active torsions:
REMARK  status: ('A' for Active; 'I' for Inactive)
REMARK    1  A    between atoms: N_2  and  C_4 
REMARK    2  A    between atoms: C_4  and  N_5 
REMARK    3  A    between atoms: N_5  and  C_11 
REMARK    4  A    between atoms: C_7  and  C_8 
REMARK    5  A    between atoms: C_7  and  C_11 
REMARK    6  A    between atoms: C_8  and  O_9 
REMARK    7  A    between atoms: C_16  and  C_19 
ROOT
HETATM    1  H   UNL     2       8.768  -0.224  21.357  1.00  0.00     0.157 HD
HETATM    2  N   UNL     2       7.851  -0.437  21.056  1.00  0.00    -0.390 N 
ATOM      3  HN  UNL     2       7.434  -1.165  21.635  1.00  0.00     0.157 HD
HETATM    4  C   UNL     2       7.024  -0.046  20.123  1.00  0.00     0.114 C 
HETATM    5  C   UNL     2       7.085  -0.030  18.736  1.00  0.00     0.117 C 
HETATM    6  N   UNL     2       7.082  -0.004  17.614  1.00  0.00    -0.190 NA
ENDROOT
BRANCH   4   7
HETATM    7  C   UNL     2       5.679   0.434  20.439  1.00  0.00     0.080 C 
HETATM    8  C   UNL     2       5.096   0.723  19.473  1.00  0.00    -0.044 C 
ENDBRANCH   4   7
TORSDOF 7
