MODEL 1
REMARK VINA RESULT:    -7.880      0.000      0.000
REMARK INTER + INTRA:         -10.963
REMARK INTER:                 -10.184
REMARK INTRA:                  -0.779
REMARK UNBOUND:                -0.779
REMARK  5 active torsions:
REMARK  status: ('A' for Active; 'I' for Inactive)
REMARK    1  A    between atoms: S_2  and  N_5 
REMARK    2  A    between atoms: N_5  and  C_7 
REMARK    3  A    between atoms: C_7  and  C_8 
REMARK    4  A    between atoms: C_15  and  C_16 
REMARK       I    between atoms: C_16  and  N_18 
REMARK    5  A    between atoms: N_18  and  C_20 
ROOT
HETATM    1  C   UNL     1       6.818  -2.088  21.722  1.00  0.00     0.047 A 
HETATM    2  C   UNL     1       6.881  -3.537  22.536  1.00  0.00     0.100 A 
HETATM    3  S   UNL     1       5.441  -3.646  23.547  1.00  0.00    -0.116 SA
HETATM    4  C   UNL     1       5.400  -5.109  23.598  1.00  0.00     0.046 C 
HETATM    5  C   UNL     1       5.860  -5.950  23.036  1.00  0.00     0.007 C 
HETATM    6  C   UNL     1       6.777  -5.821  22.001  1.00  0.00    -0.001 C 
HETATM    7  C   UNL     1       7.074  -4.882  21.896  1.00  0.00     0.005 C 
HETATM    8  C   UNL     1       7.672  -2.687  22.671  1.00  0.00     0.056 A 
ENDROOT
BRANCH   8   9
HETATM    9  C   UNL     1       9.008  -2.481  23.563  1.00  0.00     0.255 C 
HETATM   10  O   UNL     1       9.091  -2.986  24.625  1.00  0.00    -0.268 OA
HETATM   11  N   UNL     1       9.776  -1.708  22.869  1.00  0.00    -0.325 N 
ATOM     12  HN  UNL     1       9.470  -1.387  21.951  1.00  0.00     0.169 HD
BRANCH  11  13
HETATM   13  C   UNL     1      10.901  -1.345  23.312  1.00  0.00     0.036 A 
HETATM   14  C   UNL     1      12.284  -1.648  23.176  1.00  0.00     0.153 A 
HETATM   15  N   UNL     1      13.503  -1.744  23.167  1.00  0.00    -0.400 N 
HETATM   16  C   UNL     1      13.214  -0.862  23.861  1.00  0.00     0.129 A 
ATOM     17  HN  UNL     1      14.287  -2.273  22.786  1.00  0.00     0.154 HD
HETATM   18  C   UNL     1      12.311  -0.039  24.420  1.00  0.00     0.002 A 
HETATM   19  C   UNL     1      11.112  -0.234  24.241  1.00  0.00     0.025 A 
ENDBRANCH  11  13
ENDBRANCH   8   9
BRANCH   1  20
HETATM   20  C   UNL     1       6.281  -1.386  20.958  1.00  0.00    -0.020 C 
BRANCH  20  21
HETATM   21  N   UNL     1       5.647  -0.943  20.078  1.00  0.00    -0.236 N 
ATOM     22  HN  UNL     1       4.691  -1.291  20.011  1.00  0.00     0.189 HD
BRANCH  21  23
HETATM   23  S   UNL     1       6.069   0.139  18.954  1.00  0.00     0.327 S 
HETATM   24 CL   UNL     1       5.167   1.673  19.537  1.00  0.00     0.042 Cl
HETATM   25  O   UNL     1       7.482   0.389  19.017  1.00  0.00    -0.188 OA
HETATM   26  O   UNL     1       5.577  -0.196  17.650  1.00  0.00    -0.188 OA
ENDBRANCH  21  23
ENDBRANCH  20  21
ENDBRANCH   1  20
TORSDOF 5
ENDMDL
MODEL 2
REMARK VINA RESULT:    -7.873      3.277      6.467
REMARK INTER + INTRA:         -10.953
REMARK INTER:                 -10.054
REMARK INTRA:                  -0.900
REMARK UNBOUND:                -0.779
REMARK  5 active torsions:
REMARK  status: ('A' for Active; 'I' for Inactive)
REMARK    1  A    between atoms: S_2  and  N_5 
REMARK    2  A    between atoms: N_5  and  C_7 
REMARK    3  A    between atoms: C_7  and  C_8 
REMARK    4  A    between atoms: C_15  and  C_16 
REMARK       I    between atoms: C_16  and  N_18 
REMARK    5  A    between atoms: N_18  and  C_20 
ROOT
HETATM    1  C   UNL     1       8.752  -2.533  23.172  1.00  0.00     0.047 A 
HETATM    2  C   UNL     1       9.894  -1.325  23.227  1.00  0.00     0.100 A 
HETATM    3  S   UNL     1       9.720  -0.497  24.774  1.00  0.00    -0.116 SA
HETATM    4  C   UNL     1      11.104  -0.020  24.848  1.00  0.00     0.046 C 
HETATM    5  C   UNL     1      12.066  -0.252  24.343  1.00  0.00     0.007 C 
HETATM    6  C   UNL     1      12.235  -1.167  23.313  1.00  0.00    -0.001 C 
HETATM    7  C   UNL     1      11.365  -1.512  22.989  1.00  0.00     0.005 C 
HETATM    8  C   UNL     1       9.030  -1.359  22.440  1.00  0.00     0.056 A 
ENDROOT
BRANCH   8   9
HETATM    9  C   UNL     1       8.547  -0.423  21.210  1.00  0.00     0.255 C 
HETATM   10  O   UNL     1       9.293   0.357  20.736  1.00  0.00    -0.268 OA
HETATM   11  N   UNL     1       7.313  -0.739  20.994  1.00  0.00    -0.325 N 
ATOM     12  HN  UNL     1       6.874  -1.465  21.558  1.00  0.00     0.169 HD
BRANCH  11  13
HETATM   13  C   UNL     1       6.644  -0.160  20.093  1.00  0.00     0.036 A 
HETATM   14  C   UNL     1       6.186  -0.367  18.763  1.00  0.00     0.153 A 
HETATM   15  N   UNL     1       5.682  -0.381  17.649  1.00  0.00    -0.400 N 
HETATM   16  C   UNL     1       5.354   0.594  18.182  1.00  0.00     0.129 A 
ATOM     17  HN  UNL     1       5.601  -0.918  16.785  1.00  0.00     0.154 HD
HETATM   18  C   UNL     1       5.318   1.407  19.253  1.00  0.00     0.002 A 
HETATM   19  C   UNL     1       5.979   1.134  20.250  1.00  0.00     0.025 A 
ENDBRANCH  11  13
ENDBRANCH   8   9
BRANCH   1  20
HETATM   20  C   UNL     1       8.317  -3.526  23.605  1.00  0.00    -0.020 C 
BRANCH  20  21
HETATM   21  N   UNL     1       7.703  -4.506  23.798  1.00  0.00    -0.236 N 
ATOM     22  HN  UNL     1       7.885  -4.966  24.691  1.00  0.00     0.189 HD
BRANCH  21  23
HETATM   23  S   UNL     1       6.609  -5.233  22.857  1.00  0.00     0.327 S 
HETATM   24 CL   UNL     1       5.602  -3.781  22.240  1.00  0.00     0.042 Cl
HETATM   25  O   UNL     1       7.258  -5.848  21.733  1.00  0.00    -0.188 OA
HETATM   26  O   UNL     1       5.735  -6.100  23.591  1.00  0.00    -0.188 OA
ENDBRANCH  21  23
ENDBRANCH  20  21
ENDBRANCH   1  20
TORSDOF 5
ENDMDL
MODEL 3
REMARK VINA RESULT:    -7.548      3.567      6.877
REMARK INTER + INTRA:         -10.534
REMARK INTER:                  -9.668
REMARK INTRA:                  -0.866
REMARK UNBOUND:                -0.779
REMARK  5 active torsions:
REMARK  status: ('A' for Active; 'I' for Inactive)
REMARK    1  A    between atoms: S_2  and  N_5 
REMARK    2  A    between atoms: N_5  and  C_7 
REMARK    3  A    between atoms: C_7  and  C_8 
REMARK    4  A    between atoms: C_15  and  C_16 
REMARK       I    between atoms: C_16  and  N_18 
REMARK    5  A    between atoms: N_18  and  C_20 
ROOT
HETATM    1  C   UNL     1       8.722  -2.602  23.098  1.00  0.00     0.047 A 
HETATM    2  C   UNL     1       9.842  -1.377  23.194  1.00  0.00     0.100 A 
HETATM    3  S   UNL     1       9.628  -0.578  24.752  1.00  0.00    -0.116 SA
HETATM    4  C   UNL     1      11.002  -0.080  24.858  1.00  0.00     0.046 C 
HETATM    5  C   UNL     1      11.976  -0.288  24.366  1.00  0.00     0.007 C 
HETATM    6  C   UNL     1      12.178  -1.182  23.324  1.00  0.00    -0.001 C 
HETATM    7  C   UNL     1      11.319  -1.535  22.978  1.00  0.00     0.005 C 
HETATM    8  C   UNL     1       8.992  -1.411  22.392  1.00  0.00     0.056 A 
ENDROOT
BRANCH   8   9
HETATM    9  C   UNL     1       8.515  -0.462  21.170  1.00  0.00     0.255 C 
HETATM   10  O   UNL     1       9.266   0.315  20.700  1.00  0.00    -0.268 OA
HETATM   11  N   UNL     1       7.278  -0.766  20.953  1.00  0.00    -0.325 N 
ATOM     12  HN  UNL     1       6.833  -1.493  21.513  1.00  0.00     0.169 HD
BRANCH  11  13
HETATM   13  C   UNL     1       6.612  -0.175  20.058  1.00  0.00     0.036 A 
HETATM   14  C   UNL     1       6.163  -0.361  18.722  1.00  0.00     0.153 A 
HETATM   15  N   UNL     1       5.666  -0.359  17.604  1.00  0.00    -0.400 N 
HETATM   16  C   UNL     1       5.331   0.606  18.152  1.00  0.00     0.129 A 
ATOM     17  HN  UNL     1       5.593  -0.882  16.732  1.00  0.00     0.154 HD
HETATM   18  C   UNL     1       5.284   1.400  19.236  1.00  0.00     0.002 A 
HETATM   19  C   UNL     1       5.941   1.113  20.232  1.00  0.00     0.025 A 
ENDBRANCH  11  13
ENDBRANCH   8   9
BRANCH   1  20
HETATM   20  C   UNL     1       8.295  -3.610  23.507  1.00  0.00    -0.020 C 
BRANCH  20  21
HETATM   21  N   UNL     1       7.873  -4.472  24.179  1.00  0.00    -0.236 N 
ATOM     22  HN  UNL     1       7.927  -5.407  23.773  1.00  0.00     0.189 HD
BRANCH  21  23
HETATM   23  S   UNL     1       7.216  -4.397  25.653  1.00  0.00     0.327 S 
HETATM   24 CL   UNL     1       8.616  -3.674  26.664  1.00  0.00     0.042 Cl
HETATM   25  O   UNL     1       6.122  -3.465  25.658  1.00  0.00    -0.188 OA
HETATM   26  O   UNL     1       6.904  -5.689  26.187  1.00  0.00    -0.188 OA
ENDBRANCH  21  23
ENDBRANCH  20  21
ENDBRANCH   1  20
TORSDOF 5
ENDMDL
MODEL 4
REMARK VINA RESULT:    -6.889      3.881      5.917
REMARK INTER + INTRA:          -9.682
REMARK INTER:                  -8.829
REMARK INTRA:                  -0.854
REMARK UNBOUND:                -0.779
REMARK  5 active torsions:
REMARK  status: ('A' for Active; 'I' for Inactive)
REMARK    1  A    between atoms: S_2  and  N_5 
REMARK    2  A    between atoms: N_5  and  C_7 
REMARK    3  A    between atoms: C_7  and  C_8 
REMARK    4  A    between atoms: C_15  and  C_16 
REMARK       I    between atoms: C_16  and  N_18 
REMARK    5  A    between atoms: N_18  and  C_20 
ROOT
HETATM    1  C   UNL     1       7.911  -4.467  25.534  1.00  0.00     0.047 A 
HETATM    2  C   UNL     1       6.998  -4.046  24.210  1.00  0.00     0.100 A 
HETATM    3  S   UNL     1       6.834  -5.479  23.195  1.00  0.00    -0.116 SA
HETATM    4  C   UNL     1       5.577  -5.074  22.561  1.00  0.00     0.046 C 
HETATM    5  C   UNL     1       4.781  -4.324  22.753  1.00  0.00     0.007 C 
HETATM    6  C   UNL     1       4.784  -3.390  23.780  1.00  0.00    -0.001 C 
HETATM    7  C   UNL     1       5.650  -3.386  24.263  1.00  0.00     0.005 C 
HETATM    8  C   UNL     1       8.038  -3.571  24.452  1.00  0.00     0.056 A 
ENDROOT
BRANCH   8   9
HETATM    9  C   UNL     1       8.993  -2.462  23.760  1.00  0.00     0.255 C 
HETATM   10  O   UNL     1       9.161  -2.474  22.593  1.00  0.00    -0.268 OA
HETATM   11  N   UNL     1       9.438  -1.731  24.728  1.00  0.00    -0.325 N 
ATOM     12  HN  UNL     1       9.143  -1.927  25.684  1.00  0.00     0.169 HD
BRANCH  11  13
HETATM   13  C   UNL     1      10.234  -0.776  24.507  1.00  0.00     0.036 A 
HETATM   14  C   UNL     1      10.281   0.645  24.544  1.00  0.00     0.153 A 
HETATM   15  N   UNL     1      10.517   1.845  24.548  1.00  0.00    -0.400 N 
HETATM   16  C   UNL     1      11.493   1.284  24.272  1.00  0.00     0.129 A 
ATOM     17  HN  UNL     1      10.108   2.767  24.700  1.00  0.00     0.154 HD
HETATM   18  C   UNL     1      12.200   0.157  24.075  1.00  0.00     0.002 A 
HETATM   19  C   UNL     1      11.638  -0.933  24.124  1.00  0.00     0.025 A 
ENDBRANCH  11  13
ENDBRANCH   8   9
BRANCH   1  20
HETATM   20  C   UNL     1       8.048  -5.112  26.498  1.00  0.00    -0.020 C 
BRANCH  20  21
HETATM   21  N   UNL     1       7.891  -5.812  27.425  1.00  0.00    -0.236 N 
ATOM     22  HN  UNL     1       8.710  -6.353  27.706  1.00  0.00     0.189 HD
BRANCH  21  23
HETATM   23  S   UNL     1       6.568  -6.046  28.322  1.00  0.00     0.327 S 
HETATM   24 CL   UNL     1       5.241  -6.231  27.015  1.00  0.00     0.042 Cl
HETATM   25  O   UNL     1       6.674  -7.284  29.043  1.00  0.00    -0.188 OA
HETATM   26  O   UNL     1       6.240  -4.909  29.131  1.00  0.00    -0.188 OA
ENDBRANCH  21  23
ENDBRANCH  20  21
ENDBRANCH   1  20
TORSDOF 5
ENDMDL
MODEL 5
REMARK VINA RESULT:    -6.881      3.795      6.475
REMARK INTER + INTRA:          -9.672
REMARK INTER:                  -8.861
REMARK INTRA:                  -0.811
REMARK UNBOUND:                -0.779
REMARK  5 active torsions:
REMARK  status: ('A' for Active; 'I' for Inactive)
REMARK    1  A    between atoms: S_2  and  N_5 
REMARK    2  A    between atoms: N_5  and  C_7 
REMARK    3  A    between atoms: C_7  and  C_8 
REMARK    4  A    between atoms: C_15  and  C_16 
REMARK       I    between atoms: C_16  and  N_18 
REMARK    5  A    between atoms: N_18  and  C_20 
ROOT
HETATM    1  C   UNL     1       8.780   0.775  21.433  1.00  0.00     0.047 A 
HETATM    2  C   UNL     1       7.393   0.341  20.626  1.00  0.00     0.100 A 
HETATM    3  S   UNL     1       6.125   1.473  21.096  1.00  0.00    -0.116 SA
HETATM    4  C   UNL     1       5.324   1.320  19.878  1.00  0.00     0.046 C 
HETATM    5  C   UNL     1       5.477   0.907  18.858  1.00  0.00     0.007 C 
HETATM    6  C   UNL     1       6.634   0.287  18.404  1.00  0.00    -0.001 C 
HETATM    7  C   UNL     1       7.280   0.142  19.142  1.00  0.00     0.005 C 
HETATM    8  C   UNL     1       7.928  -0.349  21.403  1.00  0.00     0.056 A 
ENDROOT
BRANCH   8   9
HETATM    9  C   UNL     1       7.663  -1.823  22.019  1.00  0.00     0.255 C 
HETATM   10  O   UNL     1       8.510  -2.366  22.633  1.00  0.00    -0.268 OA
HETATM   11  N   UNL     1       6.466  -2.144  21.655  1.00  0.00    -0.325 N 
ATOM     12  HN  UNL     1       5.914  -1.486  21.105  1.00  0.00     0.169 HD
BRANCH  11  13
HETATM   13  C   UNL     1       5.970  -3.260  21.971  1.00  0.00     0.036 A 
HETATM   14  C   UNL     1       6.009  -4.628  21.582  1.00  0.00     0.153 A 
HETATM   15  N   UNL     1       5.940  -5.838  21.415  1.00  0.00    -0.400 N 
HETATM   16  C   UNL     1       5.300  -5.563  22.341  1.00  0.00     0.129 A 
ATOM     17  HN  UNL     1       6.252  -6.609  20.826  1.00  0.00     0.154 HD
HETATM   18  C   UNL     1       4.828  -4.679  23.238  1.00  0.00     0.002 A 
HETATM   19  C   UNL     1       5.073  -3.484  23.105  1.00  0.00     0.025 A 
ENDBRANCH  11  13
ENDBRANCH   8   9
BRANCH   1  20
HETATM   20  C   UNL     1       9.619   1.561  21.640  1.00  0.00    -0.020 C 
BRANCH  20  21
HETATM   21  N   UNL     1      10.510   2.177  22.089  1.00  0.00    -0.236 N 
ATOM     22  HN  UNL     1      11.157   2.570  21.404  1.00  0.00     0.189 HD
BRANCH  21  23
HETATM   23  S   UNL     1      10.862   2.494  23.633  1.00  0.00     0.327 S 
HETATM   24 CL   UNL     1      11.952   1.042  24.088  1.00  0.00     0.042 Cl
HETATM   25  O   UNL     1      11.643   3.697  23.724  1.00  0.00    -0.188 OA
HETATM   26  O   UNL     1       9.707   2.465  24.482  1.00  0.00    -0.188 OA
ENDBRANCH  21  23
ENDBRANCH  20  21
ENDBRANCH   1  20
TORSDOF 5
ENDMDL
MODEL 6
REMARK VINA RESULT:    -6.830      2.968      5.361
REMARK INTER + INTRA:          -9.606
REMARK INTER:                  -9.045
REMARK INTRA:                  -0.561
REMARK UNBOUND:                -0.779
REMARK  5 active torsions:
REMARK  status: ('A' for Active; 'I' for Inactive)
REMARK    1  A    between atoms: S_2  and  N_5 
REMARK    2  A    between atoms: N_5  and  C_7 
REMARK    3  A    between atoms: C_7  and  C_8 
REMARK    4  A    between atoms: C_15  and  C_16 
REMARK       I    between atoms: C_16  and  N_18 
REMARK    5  A    between atoms: N_18  and  C_20 
ROOT
HETATM    1  C   UNL     1       8.079  -0.880  22.686  1.00  0.00     0.047 A 
HETATM    2  C   UNL     1       9.438  -1.033  23.632  1.00  0.00     0.100 A 
HETATM    3  S   UNL     1      10.826  -1.182  22.553  1.00  0.00    -0.116 SA
HETATM    4  C   UNL     1      11.813  -0.661  23.502  1.00  0.00     0.046 C 
HETATM    5  C   UNL     1      11.794  -0.093  24.456  1.00  0.00     0.007 C 
HETATM    6  C   UNL     1      10.651   0.298  25.139  1.00  0.00    -0.001 C 
HETATM    7  C   UNL     1       9.836  -0.096  24.736  1.00  0.00     0.005 C 
HETATM    8  C   UNL     1       8.564  -1.810  23.630  1.00  0.00     0.056 A 
ENDROOT
BRANCH   8   9
HETATM    9  C   UNL     1       8.254  -3.205  24.390  1.00  0.00     0.255 C 
HETATM   10  O   UNL     1       8.565  -4.228  23.895  1.00  0.00    -0.268 OA
HETATM   11  N   UNL     1       7.647  -2.880  25.484  1.00  0.00    -0.325 N 
ATOM     12  HN  UNL     1       7.483  -1.896  25.694  1.00  0.00     0.169 HD
BRANCH  11  13
HETATM   13  C   UNL     1       7.254  -3.764  26.294  1.00  0.00     0.036 A 
HETATM   14  C   UNL     1       7.678  -4.995  26.866  1.00  0.00     0.153 A 
HETATM   15  N   UNL     1       7.886  -6.033  27.479  1.00  0.00    -0.400 N 
HETATM   16  C   UNL     1       6.877  -5.593  27.842  1.00  0.00     0.129 A 
ATOM     17  HN  UNL     1       8.541  -6.805  27.596  1.00  0.00     0.154 HD
HETATM   18  C   UNL     1       5.931  -4.638  27.845  1.00  0.00     0.002 A 
HETATM   19  C   UNL     1       6.009  -3.698  27.061  1.00  0.00     0.025 A 
ENDBRANCH  11  13
ENDBRANCH   8   9
BRANCH   1  20
HETATM   20  C   UNL     1       7.470  -0.280  21.891  1.00  0.00    -0.020 C 
BRANCH  20  21
HETATM   21  N   UNL     1       7.063   0.534  21.152  1.00  0.00    -0.236 N 
ATOM     22  HN  UNL     1       7.110   1.495  21.492  1.00  0.00     0.189 HD
BRANCH  21  23
HETATM   23  S   UNL     1       6.439   0.355  19.672  1.00  0.00     0.327 S 
HETATM   24 CL   UNL     1       5.237   1.787  19.583  1.00  0.00     0.042 Cl
HETATM   25  O   UNL     1       7.459   0.554  18.680  1.00  0.00    -0.188 OA
HETATM   26  O   UNL     1       5.694  -0.860  19.529  1.00  0.00    -0.188 OA
ENDBRANCH  21  23
ENDBRANCH  20  21
ENDBRANCH   1  20
TORSDOF 5
ENDMDL
MODEL 7
REMARK VINA RESULT:    -6.768      4.429      6.434
REMARK INTER + INTRA:          -9.525
REMARK INTER:                  -8.758
REMARK INTRA:                  -0.767
REMARK UNBOUND:                -0.779
REMARK  5 active torsions:
REMARK  status: ('A' for Active; 'I' for Inactive)
REMARK    1  A    between atoms: S_2  and  N_5 
REMARK    2  A    between atoms: N_5  and  C_7 
REMARK    3  A    between atoms: C_7  and  C_8 
REMARK    4  A    between atoms: C_15  and  C_16 
REMARK       I    between atoms: C_16  and  N_18 
REMARK    5  A    between atoms: N_18  and  C_20 
ROOT
HETATM    1  C   UNL     1       8.774  -3.135  24.046  1.00  0.00     0.047 A 
HETATM    2  C   UNL     1       7.517  -4.192  23.787  1.00  0.00     0.100 A 
HETATM    3  S   UNL     1       6.119  -3.246  23.277  1.00  0.00    -0.116 SA
HETATM    4  C   UNL     1       5.463  -4.328  22.538  1.00  0.00     0.046 C 
HETATM    5  C   UNL     1       5.754  -5.321  22.135  1.00  0.00     0.007 C 
HETATM    6  C   UNL     1       6.997  -5.920  22.284  1.00  0.00    -0.001 C 
HETATM    7  C   UNL     1       7.574  -5.407  22.905  1.00  0.00     0.005 C 
HETATM    8  C   UNL     1       8.024  -4.038  24.829  1.00  0.00     0.056 A 
ENDROOT
BRANCH   8   9
HETATM    9  C   UNL     1       7.819  -4.642  26.318  1.00  0.00     0.255 C 
HETATM   10  O   UNL     1       8.747  -4.778  27.031  1.00  0.00    -0.268 OA
HETATM   11  N   UNL     1       6.557  -4.898  26.420  1.00  0.00    -0.325 N 
ATOM     12  HN  UNL     1       5.936  -4.690  25.638  1.00  0.00     0.169 HD
BRANCH  11  13
HETATM   13  C   UNL     1       6.081  -5.403  27.475  1.00  0.00     0.036 A 
HETATM   14  C   UNL     1       5.841  -6.670  28.074  1.00  0.00     0.153 A 
HETATM   15  N   UNL     1       5.592  -7.656  28.753  1.00  0.00    -0.400 N 
HETATM   16  C   UNL     1       5.335  -6.712  29.375  1.00  0.00     0.129 A 
ATOM     17  HN  UNL     1       5.603  -8.676  28.764  1.00  0.00     0.154 HD
HETATM   18  C   UNL     1       5.291  -5.380  29.548  1.00  0.00     0.002 A 
HETATM   19  C   UNL     1       5.602  -4.634  28.624  1.00  0.00     0.025 A 
ENDBRANCH  11  13
ENDBRANCH   8   9
BRANCH   1  20
HETATM   20  C   UNL     1       9.520  -2.339  23.631  1.00  0.00    -0.020 C 
BRANCH  20  21
HETATM   21  N   UNL     1      10.473  -1.741  23.302  1.00  0.00    -0.236 N 
ATOM     22  HN  UNL     1      11.016  -2.165  22.550  1.00  0.00     0.189 HD
BRANCH  21  23
HETATM   23  S   UNL     1      11.053  -0.343  23.869  1.00  0.00     0.327 S 
HETATM   24 CL   UNL     1      12.887  -0.699  23.975  1.00  0.00     0.042 Cl
HETATM   25  O   UNL     1      10.846   0.702  22.905  1.00  0.00    -0.188 OA
HETATM   26  O   UNL     1      10.581  -0.042  25.188  1.00  0.00    -0.188 OA
ENDBRANCH  21  23
ENDBRANCH  20  21
ENDBRANCH   1  20
TORSDOF 5
ENDMDL
MODEL 8
REMARK VINA RESULT:    -6.594      4.418      6.614
REMARK INTER + INTRA:          -9.301
REMARK INTER:                  -8.500
REMARK INTRA:                  -0.801
REMARK UNBOUND:                -0.779
REMARK  5 active torsions:
REMARK  status: ('A' for Active; 'I' for Inactive)
REMARK    1  A    between atoms: S_2  and  N_5 
REMARK    2  A    between atoms: N_5  and  C_7 
REMARK    3  A    between atoms: C_7  and  C_8 
REMARK    4  A    between atoms: C_15  and  C_16 
REMARK       I    between atoms: C_16  and  N_18 
REMARK    5  A    between atoms: N_18  and  C_20 
ROOT
HETATM    1  C   UNL     1       7.118  -4.698  25.738  1.00  0.00     0.047 A 
HETATM    2  C   UNL     1       5.975  -4.405  24.567  1.00  0.00     0.100 A 
HETATM    3  S   UNL     1       5.963  -5.789  23.474  1.00  0.00    -0.116 SA
HETATM    4  C   UNL     1       4.580  -5.617  23.024  1.00  0.00     0.046 C 
HETATM    5  C   UNL     1       3.684  -5.055  23.364  1.00  0.00     0.007 C 
HETATM    6  C   UNL     1       3.639  -4.192  24.451  1.00  0.00    -0.001 C 
HETATM    7  C   UNL     1       4.542  -4.037  24.827  1.00  0.00     0.005 C 
HETATM    8  C   UNL     1       6.925  -3.742  24.718  1.00  0.00     0.056 A 
ENDROOT
BRANCH   8   9
HETATM    9  C   UNL     1       7.546  -2.428  24.004  1.00  0.00     0.255 C 
HETATM   10  O   UNL     1       8.176  -1.657  24.634  1.00  0.00    -0.268 OA
HETATM   11  N   UNL     1       7.166  -2.488  22.770  1.00  0.00    -0.325 N 
ATOM     12  HN  UNL     1       6.604  -3.279  22.455  1.00  0.00     0.169 HD
BRANCH  11  13
HETATM   13  C   UNL     1       7.481  -1.583  21.950  1.00  0.00     0.036 A 
HETATM   14  C   UNL     1       8.619  -0.858  21.499  1.00  0.00     0.153 A 
HETATM   15  N   UNL     1       9.476  -0.166  20.968  1.00  0.00    -0.400 N 
HETATM   16  C   UNL     1       8.465   0.045  20.444  1.00  0.00     0.129 A 
ATOM     17  HN  UNL     1      10.467   0.075  20.981  1.00  0.00     0.154 HD
HETATM   18  C   UNL     1       7.152  -0.181  20.262  1.00  0.00     0.002 A 
HETATM   19  C   UNL     1       6.556  -0.951  21.008  1.00  0.00     0.025 A 
ENDBRANCH  11  13
ENDBRANCH   8   9
BRANCH   1  20
HETATM   20  C   UNL     1       7.503  -5.349  26.628  1.00  0.00    -0.020 C 
BRANCH  20  21
HETATM   21  N   UNL     1       7.595  -6.033  27.575  1.00  0.00    -0.236 N 
ATOM     22  HN  UNL     1       8.487  -6.517  27.679  1.00  0.00     0.189 HD
BRANCH  21  23
HETATM   23  S   UNL     1       6.514  -6.321  28.741  1.00  0.00     0.327 S 
HETATM   24 CL   UNL     1       4.935  -6.543  27.759  1.00  0.00     0.042 Cl
HETATM   25  O   UNL     1       6.819  -7.560  29.400  1.00  0.00    -0.188 OA
HETATM   26  O   UNL     1       6.337  -5.203  29.620  1.00  0.00    -0.188 OA
ENDBRANCH  21  23
ENDBRANCH  20  21
ENDBRANCH   1  20
TORSDOF 5
ENDMDL
MODEL 9
REMARK VINA RESULT:    -6.578      2.458      5.643
REMARK INTER + INTRA:          -9.279
REMARK INTER:                  -8.379
REMARK INTRA:                  -0.900
REMARK UNBOUND:                -0.779
REMARK  5 active torsions:
REMARK  status: ('A' for Active; 'I' for Inactive)
REMARK    1  A    between atoms: S_2  and  N_5 
REMARK    2  A    between atoms: N_5  and  C_7 
REMARK    3  A    between atoms: C_7  and  C_8 
REMARK    4  A    between atoms: C_15  and  C_16 
REMARK       I    between atoms: C_16  and  N_18 
REMARK    5  A    between atoms: N_18  and  C_20 
ROOT
HETATM    1  C   UNL     1       8.721  -0.818  21.773  1.00  0.00     0.047 A 
HETATM    2  C   UNL     1       9.694  -0.986  23.111  1.00  0.00     0.100 A 
HETATM    3  S   UNL     1      11.336  -1.286  22.543  1.00  0.00    -0.116 SA
HETATM    4  C   UNL     1      12.008  -0.761  23.735  1.00  0.00     0.046 C 
HETATM    5  C   UNL     1      11.730  -0.131  24.607  1.00  0.00     0.007 C 
HETATM    6  C   UNL     1      10.461   0.370  24.867  1.00  0.00    -0.001 C 
HETATM    7  C   UNL     1       9.790  -0.002  24.242  1.00  0.00     0.005 C 
HETATM    8  C   UNL     1       8.810  -1.709  22.863  1.00  0.00     0.056 A 
ENDROOT
BRANCH   8   9
HETATM    9  C   UNL     1       8.169  -3.031  23.544  1.00  0.00     0.255 C 
HETATM   10  O   UNL     1       8.807  -3.674  24.298  1.00  0.00    -0.268 OA
HETATM   11  N   UNL     1       6.977  -3.134  23.056  1.00  0.00    -0.325 N 
ATOM     12  HN  UNL     1       6.642  -2.433  22.395  1.00  0.00     0.169 HD
BRANCH  11  13
HETATM   13  C   UNL     1       6.221  -4.089  23.386  1.00  0.00     0.036 A 
HETATM   14  C   UNL     1       5.877  -5.407  22.978  1.00  0.00     0.153 A 
HETATM   15  N   UNL     1       5.481  -6.551  22.799  1.00  0.00    -0.400 N 
HETATM   16  C   UNL     1       4.987  -6.143  23.765  1.00  0.00     0.129 A 
ATOM     17  HN  UNL     1       5.547  -7.361  22.183  1.00  0.00     0.154 HD
HETATM   18  C   UNL     1       4.815  -5.192  24.700  1.00  0.00     0.002 A 
HETATM   19  C   UNL     1       5.359  -4.100  24.568  1.00  0.00     0.025 A 
ENDBRANCH  11  13
ENDBRANCH   8   9
BRANCH   1  20
HETATM   20  C   UNL     1       8.443  -0.238  20.798  1.00  0.00    -0.020 C 
BRANCH  20  21
HETATM   21  N   UNL     1       7.979   0.110  19.779  1.00  0.00    -0.236 N 
ATOM     22  HN  UNL     1       8.644   0.225  19.014  1.00  0.00     0.189 HD
BRANCH  21  23
HETATM   23  S   UNL     1       6.440   0.436  19.412  1.00  0.00     0.327 S 
HETATM   24 CL   UNL     1       5.600  -1.195  19.784  1.00  0.00     0.042 Cl
HETATM   25  O   UNL     1       5.920   1.432  20.306  1.00  0.00    -0.188 OA
HETATM   26  O   UNL     1       6.252   0.724  18.020  1.00  0.00    -0.188 OA
ENDBRANCH  21  23
ENDBRANCH  20  21
ENDBRANCH   1  20
TORSDOF 5
ENDMDL
