stable:False satoms:5 tatoms:24 sratio:0.20833333333333334
  -OEChem-08062415493D

 45 46  0     1  0  0  0  0  0999 V2000
    6.6706   -5.3400   26.1286 C   0  0  0  0  0  0  0  0  0  0  0  0
    8.2286   -4.7150   25.9460 S   0  0  0  0  0  0  0  0  0  0  0  0
    9.1340   -5.8474   25.8488 O   0  0  0  0  0  0  0  0  0  0  0  0
    8.5402   -3.9040   27.0963 O   0  0  0  0  0  0  0  0  0  0  0  0
    8.1613   -3.8442   24.5928 N   0  0  0  0  0  0  0  0  0  0  0  0
    9.0528   -3.1445   24.1406 C   0  0  0  0  0  0  0  0  0  0  0  0
    9.4818   -2.1349   23.5927 C   0  0  0  0  0  0  0  0  0  0  0  0
   10.3631   -1.2732   23.4546 C   0  0  1  0  0  0  0  0  0  0  0  0
   10.9429   -0.1458   24.6234 C   0  0  0  0  0  0  0  0  0  0  0  0
   11.9763    0.2016   24.6531 C   0  0  0  0  0  0  0  0  0  0  0  0
   13.0737   -0.1486   23.9482 C   0  0  0  0  0  0  0  0  0  0  0  0
   12.8487   -1.2647   22.9945 C   0  0  0  0  0  0  0  0  0  0  0  0
   11.9471   -1.7428   22.7820 C   0  0  0  0  0  0  0  0  0  0  0  0
    9.7607   -0.6438   22.5975 C   0  0  0  0  0  0  0  0  0  0  0  0
    9.1607    0.0087   21.6143 C   0  0  0  0  0  0  0  0  0  0  0  0
    9.6427    1.0116   21.3205 O   0  0  0  0  0  0  0  0  0  0  0  0
    8.0903   -0.6339   21.1714 N   0  0  0  0  0  0  0  0  0  0  0  0
    7.3889   -0.1612   20.2500 C   0  0  0  0  0  0  0  0  0  0  0  0
    7.5253    0.0598   18.9848 C   0  0  0  0  0  0  0  0  0  0  0  0
    7.0689    0.5069   17.8890 N   0  0  0  0  0  0  0  0  0  0  0  0
    5.9258    0.9504   18.3277 C   0  0  0  0  0  0  0  0  0  0  0  0
    5.4403    0.9565   19.4520 C   0  0  0  0  0  0  0  0  0  0  0  0
    5.9743    0.4502   20.6105 C   0  0  0  0  0  0  0  0  0  0  0  0
    5.4043    0.4319   22.0171 C   0  0  0  0  0  0  0  0  0  0  0  0
    6.6261   -5.9552   27.0394 H   0  0  0  0  0  0  0  0  0  0  0  0
    5.9508   -4.5122   26.2099 H   0  0  0  0  0  0  0  0  0  0  0  0
    6.4196   -5.9597   25.2551 H   0  0  0  0  0  0  0  0  0  0  0  0
    7.3834   -3.2282   24.7171 H   0  0  0  0  0  0  0  0  0  0  0  0
    9.9433   -3.7290   24.3191 H   0  0  0  0  0  0  0  0  0  0  0  0
    8.7167   -1.8622   22.8809 H   0  0  0  0  0  0  0  0  0  0  0  0
   10.2507    0.2338   25.3603 H   0  0  0  0  0  0  0  0  0  0  0  0
   12.1565    0.9735   25.3866 H   0  0  0  0  0  0  0  0  0  0  0  0
   14.0297    0.3395   24.0673 H   0  0  0  0  0  0  0  0  0  0  0  0
   13.7173   -1.6212   22.4609 H   0  0  0  0  0  0  0  0  0  0  0  0
   11.8325   -1.6828   21.6896 H   0  0  0  0  0  0  0  0  0  0  0  0
   12.0934   -2.7920   23.0783 H   0  0  0  0  0  0  0  0  0  0  0  0
    9.8884    0.2896   23.1653 H   0  0  0  0  0  0  0  0  0  0  0  0
    8.8125   -1.1213   22.8855 H   0  0  0  0  0  0  0  0  0  0  0  0
    7.8389   -1.5111   21.5804 H   0  0  0  0  0  0  0  0  0  0  0  0
    8.5057   -0.3221   18.7411 H   0  0  0  0  0  0  0  0  0  0  0  0
    5.2964    1.3893   17.5678 H   0  0  0  0  0  0  0  0  0  0  0  0
    4.4686    1.4191   19.5434 H   0  0  0  0  0  0  0  0  0  0  0  0
    4.8200   -0.4884   22.1646 H   0  0  0  0  0  0  0  0  0  0  0  0
    6.2270    0.4645   22.7465 H   0  0  0  0  0  0  0  0  0  0  0  0
    4.7527    1.3066   22.1600 H   0  0  0  0  0  0  0  0  0  0  0  0
 20 21  2  0  0  0  0
 19 20  1  0  0  0  0
 21 22  1  0  0  0  0
 18 19  2  0  0  0  0
 22 23  2  0  0  0  0
 18 23  1  0  0  0  0
 17 18  1  0  0  0  0
 23 24  1  0  0  0  0
 15 16  2  0  0  0  0
 15 17  1  0  0  0  0
 14 15  1  0  0  0  0
  8 14  1  0  0  0  0
 12 13  1  0  0  0  0
  8 13  1  0  0  0  0
 11 12  2  0  0  0  0
  7  8  1  0  0  0  0
  8  9  1  0  0  0  0
 10 11  1  0  0  0  0
  6  7  2  3  0  0  0
  5  6  1  0  0  0  0
  9 10  2  0  0  0  0
  2  5  1  0  0  0  0
  2  3  2  0  0  0  0
  1  2  1  0  0  0  0
  2  4  2  0  0  0  0
  1 25  1  0  0  0  0
  1 26  1  0  0  0  0
  1 27  1  0  0  0  0
  5 28  1  0  0  0  0
  6 29  1  0  0  0  0
  7 30  1  0  0  0  0
  9 31  1  0  0  0  0
 10 32  1  0  0  0  0
 11 33  1  0  0  0  0
 12 34  1  0  0  0  0
 13 35  1  0  0  0  0
 13 36  1  0  0  0  0
 14 37  1  0  0  0  0
 14 38  1  0  0  0  0
 17 39  1  0  0  0  0
 19 40  1  0  0  0  0
 21 41  1  0  0  0  0
 22 42  1  0  0  0  0
 24 43  1  0  0  0  0
 24 44  1  0  0  0  0
 24 45  1  0  0  0  0
M  END
> <Chemgauss4>
-13.062783

$$$$
