stable:False satoms:8 tatoms:24 sratio:0.3333333333333333
  -OEChem-08062418063D

 45 46  0     1  0  0  0  0  0999 V2000
   -6.3463   -5.2592  -26.3138 C   0  0  0  0  0  0  0  0  0  0  0  0
   -7.9940   -4.6074  -26.0706 S   0  0  0  0  0  0  0  0  0  0  0  0
   -8.8785   -5.7462  -26.0264 O   0  0  0  0  0  0  0  0  0  0  0  0
   -8.2329   -3.7556  -27.1992 O   0  0  0  0  0  0  0  0  0  0  0  0
   -7.9555   -3.8088  -24.6735 N   0  0  0  0  0  0  0  0  0  0  0  0
   -8.8158   -3.1464  -24.2109 C   0  0  0  0  0  0  0  0  0  0  0  0
   -9.2695   -2.1019  -23.6006 C   0  0  0  0  0  0  0  0  0  0  0  0
  -10.1423   -1.2231  -23.5253 C   0  0  2  0  0  0  0  0  0  0  0  0
  -10.8304   -0.1755  -24.6165 C   0  0  0  0  0  0  0  0  0  0  0  0
  -11.8016    0.1198  -24.6825 C   0  0  0  0  0  0  0  0  0  0  0  0
  -12.9751   -0.2623  -23.9510 C   0  0  0  0  0  0  0  0  0  0  0  0
  -12.6029   -1.3684  -23.0192 C   0  0  0  0  0  0  0  0  0  0  0  0
  -11.7705   -1.8205  -22.7905 C   0  0  0  0  0  0  0  0  0  0  0  0
   -9.6287   -0.6833  -22.5721 C   0  0  2  0  0  0  0  0  0  0  0  0
   -9.0184   -0.0372  -21.5732 C   0  0  0  0  0  0  0  0  0  0  0  0
   -9.5126    0.9124  -21.2236 O   0  0  0  0  0  0  0  0  0  0  0  0
   -7.9231   -0.6346  -21.1764 N   0  0  0  0  0  0  0  0  0  0  0  0
   -7.2532   -0.1460  -20.2473 C   0  0  0  0  0  0  0  0  0  0  0  0
   -7.3927   -0.0103  -18.9579 C   0  0  0  0  0  0  0  0  0  0  0  0
   -6.9596    0.3563  -17.8872 N   0  0  0  0  0  0  0  0  0  0  0  0
   -5.7881    0.9052  -18.2497 C   0  0  0  0  0  0  0  0  0  0  0  0
   -5.3360    0.9252  -19.3913 C   0  0  0  0  0  0  0  0  0  0  0  0
   -5.8142    0.4598  -20.5407 C   0  0  0  0  0  0  0  0  0  0  0  0
   -5.2267    0.4793  -21.9863 C   0  0  0  0  0  0  0  0  0  0  0  0
   -6.3090   -5.8196  -27.2596 H   0  0  0  0  0  0  0  0  0  0  0  0
   -5.6255   -4.4291  -26.3508 H   0  0  0  0  0  0  0  0  0  0  0  0
   -6.0907   -5.9299  -25.4801 H   0  0  0  0  0  0  0  0  0  0  0  0
   -7.1697   -3.1948  -24.7490 H   0  0  0  0  0  0  0  0  0  0  0  0
   -9.7055   -3.7286  -24.4003 H   0  0  0  0  0  0  0  0  0  0  0  0
  -11.0318   -1.7352  -23.1297 H   0  0  0  0  0  0  0  0  0  0  0  0
  -10.1598    0.2463  -25.3505 H   0  0  0  0  0  0  0  0  0  0  0  0
  -11.9835    0.8604  -25.4472 H   0  0  0  0  0  0  0  0  0  0  0  0
  -13.7526   -0.6081  -24.6481 H   0  0  0  0  0  0  0  0  0  0  0  0
  -13.3529    0.5969  -23.3774 H   0  0  0  0  0  0  0  0  0  0  0  0
  -13.4505   -1.7560  -22.4737 H   0  0  0  0  0  0  0  0  0  0  0  0
  -11.7711   -2.6161  -22.0601 H   0  0  0  0  0  0  0  0  0  0  0  0
  -10.8473   -1.5260  -23.2674 H   0  0  0  0  0  0  0  0  0  0  0  0
  -10.1963   -1.3074  -21.8662 H   0  0  0  0  0  0  0  0  0  0  0  0
   -7.6253   -1.4808  -21.6182 H   0  0  0  0  0  0  0  0  0  0  0  0
   -8.3650   -0.4257  -18.7376 H   0  0  0  0  0  0  0  0  0  0  0  0
   -5.1955    1.3666  -17.4735 H   0  0  0  0  0  0  0  0  0  0  0  0
   -4.3744    1.4094  -19.4769 H   0  0  0  0  0  0  0  0  0  0  0  0
   -4.6477   -0.4398  -22.1598 H   0  0  0  0  0  0  0  0  0  0  0  0
   -6.0485    0.5379  -22.7152 H   0  0  0  0  0  0  0  0  0  0  0  0
   -4.5698    1.3538  -22.1033 H   0  0  0  0  0  0  0  0  0  0  0  0
 20 21  2  0  0  0  0
 19 20  1  0  0  0  0
 21 22  1  0  0  0  0
 18 19  2  0  0  0  0
 22 23  2  0  0  0  0
 18 23  1  0  0  0  0
 17 18  1  0  0  0  0
 23 24  1  0  0  0  0
 15 16  2  0  0  0  0
 15 17  1  0  0  0  0
 14 15  1  0  0  0  0
  8 14  1  0  0  0  0
  7 14  1  0  0  0  0
 12 13  2  0  0  0  0
 11 12  1  0  0  0  0
  7  8  1  0  0  0  0
  8  9  1  0  0  0  0
  6  7  2  3  0  0  0
 10 11  1  0  0  0  0
  5  6  1  0  0  0  0
  9 10  2  0  0  0  0
  2  5  1  0  0  0  0
  2  3  2  0  0  0  0
  1  2  1  0  0  0  0
  2  4  2  0  0  0  0
  1 25  1  0  0  0  0
  1 26  1  0  0  0  0
  1 27  1  0  0  0  0
  5 28  1  0  0  0  0
  6 29  1  0  0  0  0
  8 30  1  0  0  0  0
  9 31  1  0  0  0  0
 10 32  1  0  0  0  0
 11 33  1  0  0  0  0
 11 34  1  0  0  0  0
 12 35  1  0  0  0  0
 13 36  1  0  0  0  0
 13 37  1  0  0  0  0
 14 38  1  0  0  0  0
 17 39  1  0  0  0  0
 19 40  1  0  0  0  0
 21 41  1  0  0  0  0
 22 42  1  0  0  0  0
 24 43  1  0  0  0  0
 24 44  1  0  0  0  0
 24 45  1  0  0  0  0
M  END
> <Chemgauss4>
-13.346663

$$$$
