REMARK  6 active torsions:
REMARK  status: ('A' for Active; 'I' for Inactive)
REMARK    1  A    between atoms: C_2  and  S_3 
REMARK    2  A    between atoms: S_3  and  N_4 
REMARK    3  A    between atoms: N_4  and  C_8 
REMARK       I    between atoms: N_4  and  C_6 
REMARK    4  A    between atoms: C_8  and  C_9 
REMARK    5  A    between atoms: C_9  and  N_12 
REMARK    6  A    between atoms: O_11  and  N_12 
ROOT
HETATM    1  C   UNL     1       8.060  -0.882  21.540  1.00  0.00     0.061 C 
HETATM    2  C   UNL     1       7.176  -0.401  22.342  1.00  0.00     0.109 C 
HETATM    3  S   UNL     1       6.190   0.224  23.128  1.00  0.00    -0.091 SA
ENDROOT
BRANCH   1   4
HETATM    4  C   UNL     1       9.493  -1.114  21.978  1.00  0.00     0.199 C 
BRANCH   4   5
HETATM    5  N   UNL     1       9.911  -1.823  23.245  1.00  0.00    -0.285 N 
HETATM    6  C   UNL     1      11.319  -1.332  23.391  1.00  0.00     0.226 C 
HETATM    7  C   UNL     1      11.317  -0.169  24.323  1.00  0.00     0.118 C 
HETATM    8  O   UNL     1      12.181  -1.830  22.796  1.00  0.00    -0.273 OA
BRANCH   5   9
HETATM    9  S   UNL     1       9.350  -3.300  23.625  1.00  0.00    -0.040 SA
BRANCH   9  10
HETATM   10  C   UNL     1       8.656  -3.590  25.201  1.00  0.00     0.166 C 
HETATM   11  C   UNL     1       7.524  -3.329  25.392  1.00  0.00    -0.067 C 
ENDBRANCH   9  10
ENDBRANCH   5   9
ENDBRANCH   4   5
ENDBRANCH   1   4
BRANCH   1  12
HETATM   12  N   UNL     1       7.627  -1.153  20.259  1.00  0.00    -0.269 N 
ATOM     13  HN  UNL     1       8.153  -1.605  19.511  1.00  0.00     0.194 HD
BRANCH  12  14
HETATM   14  O   UNL     1       6.367  -0.695  20.206  1.00  0.00    -0.285 OA
HETATM   15  C   UNL     1       6.212   0.128  19.081  1.00  0.00     0.237 C 
ENDBRANCH  12  14
ENDBRANCH   1  12
TORSDOF 6
