stable:False satoms:18 tatoms:24 sratio:0.75
  -OEChem-07092417343D

 24 23  0     0  0  0  0  0  0999 V2000
    6.5694   -3.3955   25.6709 H   0  0  0  0  0  0  0  0  0  0  0  0
    7.5237   -3.3290   25.3924 C   0  5  0  0  0  0  0  0  0  0  0  0
    9.2235   -4.1537   25.9054 H   0  0  0  0  0  0  0  0  0  0  0  0
    8.6558   -3.5904   25.2014 C   0  0  0  0  0  0  0  0  0  0  0  0
    9.3504   -3.3004   23.6245 S   0  0  0  0  0  0  0  0  0  0  0  0
    9.9111   -1.8228   23.2446 N   0  0  0  0  0  0  0  0  0  0  0  0
    9.9362   -1.7745   21.2480 H   0  0  0  0  0  0  0  0  0  0  0  0
   10.3946   -0.1315   24.8793 H   0  0  0  0  0  0  0  0  0  0  0  0
   11.3171   -0.1690   24.3226 C   0  0  0  0  0  0  0  0  0  0  0  0
   12.1529   -0.2009   25.0054 H   0  0  0  0  0  0  0  0  0  0  0  0
   11.4493    0.7363   23.7343 H   0  0  0  0  0  0  0  0  0  0  0  0
   11.3190   -1.3324   23.3909 C   0  0  0  0  0  0  0  0  0  0  0  0
   12.1809   -1.8297   22.7963 O   0  0  0  0  0  0  0  0  0  0  0  0
    9.4933   -1.1144   21.9783 C   0  0  0  0  0  0  0  0  0  0  0  0
    8.0602   -0.8824   21.5401 C   0  0  0  0  0  0  0  0  0  0  0  0
    9.9258   -0.1141   22.0065 H   0  0  0  0  0  0  0  0  0  0  0  0
    7.1765   -0.4014   22.3421 C   0  0  0  0  0  0  0  0  0  0  0  0
    6.3667   -0.6954   20.2062 O   0  0  0  0  0  0  0  0  0  0  0  0
    7.6268   -1.1525   20.2591 N   0  0  0  0  0  0  0  0  0  0  0  0
    6.4301   -0.4650   18.1760 H   0  0  0  0  0  0  0  0  0  0  0  0
    5.2118    0.5247   19.0051 H   0  0  0  0  0  0  0  0  0  0  0  0
    6.9077    0.9522   19.1581 H   0  0  0  0  0  0  0  0  0  0  0  0
    6.2115    0.1277   19.0810 C   0  0  0  0  0  0  0  0  0  0  0  0
    6.1896    0.2237   23.1282 S   0  0  0  0  0  0  0  0  0  0  0  0
 20 23  1  0  0  0  0
 21 23  1  0  0  0  0
 22 23  1  0  0  0  0
 18 23  1  0  0  0  0
 18 19  1  0  0  0  0
 15 19  2  0  0  0  0
  7 14  1  0  0  0  0
 14 15  1  0  0  0  0
 15 17  1  0  0  0  0
 14 16  1  0  0  0  0
  6 14  1  0  0  0  0
 17 24  1  0  0  0  0
 12 13  2  0  0  0  0
  6 12  1  0  0  0  0
  5  6  1  0  0  0  0
  9 12  1  0  0  0  0
  4  5  1  0  0  0  0
  9 11  1  0  0  0  0
  8  9  1  0  0  0  0
  9 10  1  0  0  0  0
  2  4  2  3  0  0  0
  3  4  1  0  0  0  0
  1  2  1  0  0  0  0
M  CHG  1   2  -1
M  END
> <Shapegauss>
-148.571457

$$$$
