REMARK  5 active torsions:
REMARK  status: ('A' for Active; 'I' for Inactive)
REMARK    1  A    between atoms: S_2  and  N_5 
REMARK    2  A    between atoms: N_5  and  C_7 
REMARK    3  A    between atoms: C_7  and  C_8 
REMARK    4  A    between atoms: C_15  and  C_16 
REMARK       I    between atoms: C_16  and  N_18 
REMARK    5  A    between atoms: N_18  and  C_20 
ROOT
HETATM    1  C   UNL     1       9.431  -1.965  23.525  1.00  0.00     0.040 A 
HETATM    2  C   UNL     1      10.411  -1.143  23.176  1.00  0.00     0.066 A 
HETATM    3  C   UNL     1      11.124   0.028  24.172  1.00  0.00    -0.003 A 
HETATM    4  C   UNL     1      12.109   0.322  24.216  1.00  0.00    -0.002 A 
HETATM    5  C   UNL     1      13.155  -0.279  23.393  1.00  0.00    -0.001 A 
HETATM    6  C   UNL     1      12.932  -1.211  22.650  1.00  0.00    -0.002 A 
HETATM    7  C   UNL     1      11.789  -1.601  22.610  1.00  0.00    -0.003 A 
HETATM    8  C   UNL     1       9.665  -0.621  22.390  1.00  0.00     0.049 A 
ENDROOT
BRANCH   8   9
HETATM    9  C   UNL     1       9.028   0.026  21.381  1.00  0.00     0.255 C 
HETATM   10  O   UNL     1       9.550   0.965  20.998  1.00  0.00    -0.268 OA
HETATM   11  N   UNL     1       7.892  -0.581  21.078  1.00  0.00    -0.321 N 
ATOM     12  HN  UNL     1       7.606  -1.423  21.578  1.00  0.00     0.169 HD
BRANCH  11  13
HETATM   13  C   UNL     1       7.194  -0.120  20.195  1.00  0.00     0.056 A 
HETATM   14  C   UNL     1       7.138  -0.008  18.882  1.00  0.00     0.117 A 
HETATM   15  N   UNL     1       6.712   0.285  17.802  1.00  0.00    -0.373 N 
HETATM   16  C   UNL     1       5.603   0.847  18.317  1.00  0.00     0.088 A 
ATOM     17  HN  UNL     1       7.059   0.157  16.851  1.00  0.00     0.164 HD
HETATM   18  C   UNL     1       5.240   0.972  19.428  1.00  0.00     0.026 A 
HETATM   19  C   UNL     1       5.806   0.583  20.588  1.00  0.00    -0.033 A 
HETATM   20  C   UNL     1       5.332   0.734  21.962  1.00  0.00     0.050 C 
ENDBRANCH  11  13
ENDBRANCH   8   9
BRANCH   1  21
HETATM   21  C   UNL     1       8.915  -2.866  24.150  1.00  0.00    -0.022 C 
BRANCH  21  22
HETATM   22  N   UNL     1       8.114  -3.591  24.673  1.00  0.00    -0.249 N 
ATOM     23  HN  UNL     1       7.265  -3.770  24.136  1.00  0.00     0.188 HD
BRANCH  22  24
HETATM   24  S   UNL     1       8.196  -4.316  26.100  1.00  0.00     0.233 S 
HETATM   25  C   UNL     1       6.593  -4.828  26.431  1.00  0.00     0.186 C 
HETATM   26  O   UNL     1       9.065  -5.492  26.019  1.00  0.00    -0.205 OA
HETATM   27  O   UNL     1       8.591  -3.429  27.163  1.00  0.00    -0.205 OA
ENDBRANCH  22  24
ENDBRANCH  21  22
ENDBRANCH   1  21
TORSDOF 5
