REMARK  5 active torsions:
REMARK  status: ('A' for Active; 'I' for Inactive)
REMARK    1  A    between atoms: S_2  and  N_5 
REMARK    2  A    between atoms: N_5  and  C_7 
REMARK    3  A    between atoms: C_7  and  C_8 
REMARK    4  A    between atoms: C_10  and  C_11 
REMARK       I    between atoms: C_11  and  N_13 
REMARK    5  A    between atoms: N_13  and  C_15 
ROOT
HETATM    1  C   UNL     2      12.775   0.395  24.148  1.00  0.00     0.011 C 
HETATM    2  C   UNL     2      12.956  -0.178  23.536  1.00  0.00    -0.011 C 
HETATM    3  C   UNL     2      12.636  -1.248  22.650  1.00  0.00    -0.011 C 
HETATM    4  C   UNL     2      11.919  -1.606  22.567  1.00  0.00     0.011 C 
ENDROOT
TORSDOF 5
