stable:False satoms:7 tatoms:24 sratio:0.2916666666666667
  -OEChem-08062413493D

 43 45  0     1  0  0  0  0  0999 V2000
    6.4341   -5.1004   26.2525 C   0  0  0  0  0  0  0  0  0  0  0  0
    8.0337   -4.4742   26.0990 S   0  0  0  0  0  0  0  0  0  0  0  0
    8.9178   -5.5877   26.0670 O   0  0  0  0  0  0  0  0  0  0  0  0
    8.3470   -3.5428   27.1566 O   0  0  0  0  0  0  0  0  0  0  0  0
    8.0069   -3.6719   24.6689 N   0  0  0  0  0  0  0  0  0  0  0  0
    8.8152   -2.9828   24.2438 C   0  0  0  0  0  0  0  0  0  0  0  0
    9.3586   -2.0175   23.6670 C   0  0  0  0  0  0  0  0  0  0  0  0
   10.3094   -1.1581   23.4694 C   0  0  1  0  0  0  0  0  0  0  0  0
   10.9003   -0.0847   24.6223 C   0  0  0  0  0  0  0  0  0  0  0  0
   11.9280    0.2456   24.6741 C   0  0  0  0  0  0  0  0  0  0  0  0
   13.0275   -0.2177   23.8968 C   0  0  0  0  0  0  0  0  0  0  0  0
   12.7404   -1.1309   23.1364 C   0  0  0  0  0  0  0  0  0  0  0  0
   11.7430   -1.6803   22.8659 C   0  0  0  0  0  0  0  0  0  0  0  0
    9.6495   -0.6821   22.6248 C   0  0  3  0  0  0  0  0  0  0  0  0
    9.0949    0.0920   21.5924 C   0  0  0  0  0  0  0  0  0  0  0  0
    9.6510    1.0608   21.2592 O   0  0  0  0  0  0  0  0  0  0  0  0
    7.9712   -0.4393   21.2139 N   0  0  0  0  0  0  0  0  0  0  0  0
    7.3374    0.0475   20.2704 C   0  0  0  0  0  0  0  0  0  0  0  0
    7.4746    0.1838   18.9790 C   0  0  0  0  0  0  0  0  0  0  0  0
    7.0252    0.5499   17.8488 N   0  0  0  0  0  0  0  0  0  0  0  0
    5.9309    0.9850   18.3100 C   0  0  0  0  0  0  0  0  0  0  0  0
    5.4328    1.0751   19.4253 C   0  0  0  0  0  0  0  0  0  0  0  0
    5.9172    0.6524   20.6033 C   0  0  0  0  0  0  0  0  0  0  0  0
    5.3718    0.7069   21.8658 C   0  0  0  0  0  0  0  0  0  0  0  0
    6.3489   -5.6632   27.1938 H   0  0  0  0  0  0  0  0  0  0  0  0
    5.7138   -4.2691   26.2560 H   0  0  0  0  0  0  0  0  0  0  0  0
    6.2191   -5.7684   25.4054 H   0  0  0  0  0  0  0  0  0  0  0  0
    7.1832   -3.1064   24.7082 H   0  0  0  0  0  0  0  0  0  0  0  0
    9.6953   -3.5358   24.5368 H   0  0  0  0  0  0  0  0  0  0  0  0
   10.2084    0.2988   25.3576 H   0  0  0  0  0  0  0  0  0  0  0  0
   12.1463    1.0159   25.3990 H   0  0  0  0  0  0  0  0  0  0  0  0
   14.0213    0.1984   23.9720 H   0  0  0  0  0  0  0  0  0  0  0  0
   13.5935   -1.5145   22.5964 H   0  0  0  0  0  0  0  0  0  0  0  0
   11.6534   -1.6475   21.7700 H   0  0  0  0  0  0  0  0  0  0  0  0
   11.8603   -2.7240   23.1930 H   0  0  0  0  0  0  0  0  0  0  0  0
   10.1037   -1.3551   21.8827 H   0  0  0  0  0  0  0  0  0  0  0  0
    7.6173   -1.2456   21.6878 H   0  0  0  0  0  0  0  0  0  0  0  0
    8.4576   -0.2099   18.7666 H   0  0  0  0  0  0  0  0  0  0  0  0
    5.2815    1.3682   17.5368 H   0  0  0  0  0  0  0  0  0  0  0  0
    4.4699    1.5624   19.4665 H   0  0  0  0  0  0  0  0  0  0  0  0
    4.7906   -0.2078   22.0545 H   0  0  0  0  0  0  0  0  0  0  0  0
    6.1776    0.7892   22.6100 H   0  0  0  0  0  0  0  0  0  0  0  0
    4.7112    1.5832   21.9422 H   0  0  0  0  0  0  0  0  0  0  0  0
 20 21  2  0  0  0  0
 19 20  1  0  0  0  0
 21 22  1  0  0  0  0
 18 19  2  0  0  0  0
 22 23  2  0  0  0  0
 18 23  1  0  0  0  0
 17 18  1  0  0  0  0
 23 24  1  0  0  0  0
 15 16  2  0  0  0  0
 15 17  1  0  0  0  0
 14 15  1  0  0  0  0
  8 14  1  0  0  0  0
  7 14  1  0  0  0  0
 12 13  1  0  0  0  0
  8 13  1  0  0  0  0
 11 12  2  0  0  0  0
  7  8  1  0  0  0  0
  8  9  1  0  0  0  0
 10 11  1  0  0  0  0
  6  7  2  0  0  0  0
  5  6  1  0  0  0  0
  9 10  2  0  0  0  0
  2  5  1  0  0  0  0
  2  3  2  0  0  0  0
  1  2  1  0  0  0  0
  2  4  2  0  0  0  0
  1 25  1  0  0  0  0
  1 26  1  0  0  0  0
  1 27  1  0  0  0  0
  5 28  1  0  0  0  0
  6 29  1  0  0  0  0
  9 30  1  0  0  0  0
 10 31  1  0  0  0  0
 11 32  1  0  0  0  0
 12 33  1  0  0  0  0
 13 34  1  0  0  0  0
 13 35  1  0  0  0  0
 14 36  1  0  0  0  0
 17 37  1  0  0  0  0
 19 38  1  0  0  0  0
 21 39  1  0  0  0  0
 22 40  1  0  0  0  0
 24 41  1  0  0  0  0
 24 42  1  0  0  0  0
 24 43  1  0  0  0  0
M  END
> <Chemgauss4>
-13.293682

$$$$
