stable:False satoms:7 tatoms:24 sratio:0.2916666666666667
  -OEChem-08062413493D

 43 45  0     1  0  0  0  0  0999 V2000
   -6.7754   -5.2743  -26.2406 C   0  0  0  0  0  0  0  0  0  0  0  0
   -8.3750   -4.6481  -26.0870 S   0  0  0  0  0  0  0  0  0  0  0  0
   -9.2591   -5.7616  -26.0551 O   0  0  0  0  0  0  0  0  0  0  0  0
   -8.6883   -3.7167  -27.1446 O   0  0  0  0  0  0  0  0  0  0  0  0
   -8.3482   -3.8458  -24.6570 N   0  0  0  0  0  0  0  0  0  0  0  0
   -9.1564   -3.1567  -24.2319 C   0  0  0  0  0  0  0  0  0  0  0  0
   -9.6999   -2.1914  -23.6550 C   0  0  0  0  0  0  0  0  0  0  0  0
  -10.6507   -1.3319  -23.4575 C   0  0  1  0  0  0  0  0  0  0  0  0
  -11.2416   -0.2586  -24.6104 C   0  0  0  0  0  0  0  0  0  0  0  0
  -12.2693    0.0717  -24.6622 C   0  0  0  0  0  0  0  0  0  0  0  0
  -13.3688   -0.3916  -23.8849 C   0  0  0  0  0  0  0  0  0  0  0  0
  -13.0817   -1.3048  -23.1245 C   0  0  0  0  0  0  0  0  0  0  0  0
  -12.0843   -1.8542  -22.8539 C   0  0  0  0  0  0  0  0  0  0  0  0
   -9.9907   -0.8560  -22.6128 C   0  0  3  0  0  0  0  0  0  0  0  0
   -9.4362   -0.0819  -21.5805 C   0  0  0  0  0  0  0  0  0  0  0  0
   -9.9923    0.8870  -21.2472 O   0  0  0  0  0  0  0  0  0  0  0  0
   -8.3125   -0.6132  -21.2020 N   0  0  0  0  0  0  0  0  0  0  0  0
   -7.6787   -0.1263  -20.2585 C   0  0  0  0  0  0  0  0  0  0  0  0
   -7.8159    0.0099  -18.9671 C   0  0  0  0  0  0  0  0  0  0  0  0
   -7.3665    0.3760  -17.8369 N   0  0  0  0  0  0  0  0  0  0  0  0
   -6.2722    0.8111  -18.2980 C   0  0  0  0  0  0  0  0  0  0  0  0
   -5.7741    0.9012  -19.4134 C   0  0  0  0  0  0  0  0  0  0  0  0
   -6.2585    0.4786  -20.5914 C   0  0  0  0  0  0  0  0  0  0  0  0
   -5.7131    0.5330  -21.8539 C   0  0  0  0  0  0  0  0  0  0  0  0
   -6.6902   -5.8371  -27.1818 H   0  0  0  0  0  0  0  0  0  0  0  0
   -6.0551   -4.4430  -26.2440 H   0  0  0  0  0  0  0  0  0  0  0  0
   -6.5604   -5.9423  -25.3934 H   0  0  0  0  0  0  0  0  0  0  0  0
   -7.5244   -3.2802  -24.6963 H   0  0  0  0  0  0  0  0  0  0  0  0
  -10.0366   -3.7097  -24.5248 H   0  0  0  0  0  0  0  0  0  0  0  0
  -10.5497    0.1249  -25.3457 H   0  0  0  0  0  0  0  0  0  0  0  0
  -12.4876    0.8420  -25.3870 H   0  0  0  0  0  0  0  0  0  0  0  0
  -14.3626    0.0245  -23.9601 H   0  0  0  0  0  0  0  0  0  0  0  0
  -13.9347   -1.6884  -22.5845 H   0  0  0  0  0  0  0  0  0  0  0  0
  -11.9947   -1.8214  -21.7581 H   0  0  0  0  0  0  0  0  0  0  0  0
  -12.2016   -2.8979  -23.1811 H   0  0  0  0  0  0  0  0  0  0  0  0
  -10.4449   -1.5290  -21.8707 H   0  0  0  0  0  0  0  0  0  0  0  0
   -7.9586   -1.4195  -21.6759 H   0  0  0  0  0  0  0  0  0  0  0  0
   -8.7988   -0.3838  -18.7547 H   0  0  0  0  0  0  0  0  0  0  0  0
   -5.6227    1.1943  -17.5248 H   0  0  0  0  0  0  0  0  0  0  0  0
   -4.8112    1.3885  -19.4545 H   0  0  0  0  0  0  0  0  0  0  0  0
   -5.1319   -0.3817  -22.0425 H   0  0  0  0  0  0  0  0  0  0  0  0
   -6.5189    0.6153  -22.5981 H   0  0  0  0  0  0  0  0  0  0  0  0
   -5.0525    1.4093  -21.9303 H   0  0  0  0  0  0  0  0  0  0  0  0
 20 21  2  0  0  0  0
 19 20  1  0  0  0  0
 21 22  1  0  0  0  0
 18 19  2  0  0  0  0
 22 23  2  0  0  0  0
 18 23  1  0  0  0  0
 17 18  1  0  0  0  0
 23 24  1  0  0  0  0
 15 16  2  0  0  0  0
 15 17  1  0  0  0  0
 14 15  1  0  0  0  0
  8 14  1  0  0  0  0
  7 14  1  0  0  0  0
 12 13  1  0  0  0  0
  8 13  1  0  0  0  0
 11 12  2  0  0  0  0
  7  8  1  0  0  0  0
  8  9  1  0  0  0  0
 10 11  1  0  0  0  0
  6  7  2  0  0  0  0
  5  6  1  0  0  0  0
  9 10  2  0  0  0  0
  2  5  1  0  0  0  0
  2  3  2  0  0  0  0
  1  2  1  0  0  0  0
  2  4  2  0  0  0  0
  1 25  1  0  0  0  0
  1 26  1  0  0  0  0
  1 27  1  0  0  0  0
  5 28  1  0  0  0  0
  6 29  1  0  0  0  0
  9 30  1  0  0  0  0
 10 31  1  0  0  0  0
 11 32  1  0  0  0  0
 12 33  1  0  0  0  0
 13 34  1  0  0  0  0
 13 35  1  0  0  0  0
 14 36  1  0  0  0  0
 17 37  1  0  0  0  0
 19 38  1  0  0  0  0
 21 39  1  0  0  0  0
 22 40  1  0  0  0  0
 24 41  1  0  0  0  0
 24 42  1  0  0  0  0
 24 43  1  0  0  0  0
M  END
> <Chemgauss4>
-13.127228

$$$$
