REMARK  6 active torsions:
REMARK  status: ('A' for Active; 'I' for Inactive)
REMARK    1  A    between atoms: S_2  and  N_5 
REMARK    2  A    between atoms: N_5  and  C_7 
REMARK    3  A    between atoms: C_8  and  C_9 
REMARK    4  A    between atoms: C_9  and  C_13 
REMARK    5  A    between atoms: C_9  and  C_12 
REMARK    6  A    between atoms: C_13  and  C_14 
REMARK       I    between atoms: C_14  and  N_16 
ROOT
HETATM    1  C   UNL     1       9.864  -0.449  22.351  1.00  0.00    -0.065 C 
ENDROOT
BRANCH   1   2
HETATM    2  C   UNL     1      10.189  -0.958  23.417  1.00  0.00     0.154 C 
BRANCH   2   3
HETATM    3  C   UNL     1       9.547  -1.993  23.684  1.00  0.00    -0.065 C 
HETATM    4  C   UNL     1       8.983  -2.895  24.220  1.00  0.00     0.024 C 
BRANCH   4   5
HETATM    5  N   UNL     1       8.154  -3.607  24.709  1.00  0.00    -0.224 N 
ATOM      6  HN  UNL     1       7.304  -3.749  24.163  1.00  0.00     0.192 HD
BRANCH   5   7
HETATM    7  S   UNL     1       8.223  -4.369  26.132  1.00  0.00     0.216 S 
HETATM    8  O   UNL     1       6.641  -4.902  26.338  1.00  0.00    -0.577 OA
HETATM    9  O   UNL     1       9.135  -5.499  26.038  1.00  0.00    -0.577 OA
HETATM   10  O   UNL     1       8.606  -3.490  27.176  1.00  0.00    -0.577 OA
ENDBRANCH   5   7
ENDBRANCH   4   5
ENDBRANCH   2   3
BRANCH   2  11
HETATM   11  C   UNL     1      11.771  -1.262  22.675  1.00  0.00     0.057 A 
HETATM   12  C   UNL     1      12.674  -0.509  23.316  1.00  0.00    -0.019 A 
HETATM   13  C   UNL     1      12.776  -1.230  22.746  1.00  0.00    -0.019 A 
ENDBRANCH   2  11
ENDBRANCH   1   2
BRANCH   1  14
HETATM   14  C   UNL     1       9.082   0.196  21.366  1.00  0.00     0.291 C 
HETATM   15  O   UNL     1       9.434   1.190  20.877  1.00  0.00    -0.259 OA
HETATM   16  N   UNL     1       7.906  -0.494  21.128  1.00  0.00    -0.302 N 
HETATM   17  C   UNL     1       7.120  -0.033  20.170  1.00  0.00     0.123 A 
ATOM     18  HN  UNL     1       7.657  -1.322  21.668  1.00  0.00     0.171 HD
HETATM   19  N   UNL     1       7.416  -0.099  18.900  1.00  0.00    -0.286 N 
HETATM   20  C   UNL     1       5.815   0.576  20.477  1.00  0.00     0.051 A 
HETATM   21  N   UNL     1       6.700   0.262  17.955  1.00  0.00    -0.310 N 
ATOM     22  HN  UNL     1       8.329  -0.487  18.662  1.00  0.00     0.188 HD
HETATM   23  C   UNL     1       5.774   0.747  18.405  1.00  0.00     0.107 A 
ATOM     24  HN  UNL     1       6.902   0.146  16.962  1.00  0.00     0.186 HD
HETATM   25  C   UNL     1       5.224   0.958  19.453  1.00  0.00     0.022 A 
ENDBRANCH   1  14
TORSDOF 6
