MODEL 1
REMARK VINA RESULT:    -6.664      0.000      0.000
REMARK INTER + INTRA:          -8.506
REMARK INTER:                  -8.612
REMARK INTRA:                   0.107
REMARK UNBOUND:                 0.107
REMARK  6 active torsions:
REMARK  status: ('A' for Active; 'I' for Inactive)
REMARK    1  A    between atoms: S_2  and  N_5 
REMARK    2  A    between atoms: N_5  and  C_7 
REMARK    3  A    between atoms: C_8  and  C_9 
REMARK    4  A    between atoms: C_9  and  C_13 
REMARK    5  A    between atoms: C_9  and  C_12 
REMARK    6  A    between atoms: C_13  and  C_14 
REMARK       I    between atoms: C_14  and  N_16 
ROOT
HETATM    1  C   UNL     1      10.099  -1.811  23.064  1.00  0.00    -0.065 C 
ENDROOT
BRANCH   1   2
HETATM    2  C   UNL     1      10.721  -0.884  22.558  1.00  0.00     0.154 C 
BRANCH   2   3
HETATM    3  C   UNL     1       9.984   0.003  22.086  1.00  0.00    -0.065 C 
HETATM    4  C   UNL     1       9.200   0.633  21.447  1.00  0.00     0.024 C 
BRANCH   4   5
HETATM    5  N   UNL     1       8.209   1.177  21.051  1.00  0.00    -0.224 N 
ATOM      6  HN  UNL     1       8.076   2.143  21.350  1.00  0.00     0.192 HD
BRANCH   5   7
HETATM    7  S   UNL     1       7.059   0.559  20.100  1.00  0.00     0.216 S 
HETATM    8  O   UNL     1       6.750  -0.930  20.819  1.00  0.00    -0.577 OA
HETATM    9  O   UNL     1       5.876   1.406  20.149  1.00  0.00    -0.577 OA
HETATM   10  O   UNL     1       7.515   0.398  18.767  1.00  0.00    -0.577 OA
ENDBRANCH   5   7
ENDBRANCH   4   5
ENDBRANCH   2   3
BRANCH   2  11
HETATM   11  C   UNL     1      11.322  -0.530  24.189  1.00  0.00     0.057 A 
HETATM   12  C   UNL     1      12.592  -0.119  24.075  1.00  0.00    -0.019 A 
HETATM   13  C   UNL     1      11.992  -0.057  24.776  1.00  0.00    -0.019 A 
ENDBRANCH   2  11
ENDBRANCH   1   2
BRANCH   1  14
HETATM   14  C   UNL     1       9.027  -2.665  23.407  1.00  0.00     0.291 C 
HETATM   15  O   UNL     1       8.801  -2.928  24.517  1.00  0.00    -0.259 OA
HETATM   16  N   UNL     1       8.367  -3.120  22.279  1.00  0.00    -0.302 N 
HETATM   17  C   UNL     1       7.294  -3.869  22.469  1.00  0.00     0.123 A 
ATOM     18  HN  UNL     1       8.693  -2.887  21.342  1.00  0.00     0.171 HD
HETATM   19  N   UNL     1       6.168  -3.409  22.943  1.00  0.00    -0.286 N 
HETATM   20  C   UNL     1       7.289  -5.301  22.126  1.00  0.00     0.051 A 
HETATM   21  N   UNL     1       5.114  -4.044  23.091  1.00  0.00    -0.310 N 
ATOM     22  HN  UNL     1       6.154  -2.427  23.220  1.00  0.00     0.188 HD
HETATM   23  C   UNL     1       5.338  -5.128  22.823  1.00  0.00     0.107 A 
ATOM     24  HN  UNL     1       4.216  -3.668  23.396  1.00  0.00     0.186 HD
HETATM   25  C   UNL     1       6.200  -5.840  22.382  1.00  0.00     0.022 A 
ENDBRANCH   1  14
TORSDOF 6
ENDMDL
MODEL 2
REMARK VINA RESULT:    -6.560      2.743      4.885
REMARK INTER + INTRA:          -8.371
REMARK INTER:                  -8.664
REMARK INTRA:                   0.293
REMARK UNBOUND:                 0.107
REMARK  6 active torsions:
REMARK  status: ('A' for Active; 'I' for Inactive)
REMARK    1  A    between atoms: S_2  and  N_5 
REMARK    2  A    between atoms: N_5  and  C_7 
REMARK    3  A    between atoms: C_8  and  C_9 
REMARK    4  A    between atoms: C_9  and  C_13 
REMARK    5  A    between atoms: C_9  and  C_12 
REMARK    6  A    between atoms: C_13  and  C_14 
REMARK       I    between atoms: C_14  and  N_16 
ROOT
HETATM    1  C   UNL     1       9.487  -0.075  22.786  1.00  0.00    -0.065 C 
ENDROOT
BRANCH   1   2
HETATM    2  C   UNL     1       9.618  -0.731  23.812  1.00  0.00     0.154 C 
BRANCH   2   3
HETATM    3  C   UNL     1       9.366  -1.943  23.657  1.00  0.00    -0.065 C 
HETATM    4  C   UNL     1       8.886  -3.033  23.673  1.00  0.00     0.024 C 
BRANCH   4   5
HETATM    5  N   UNL     1       8.277  -4.027  23.401  1.00  0.00    -0.224 N 
ATOM      6  HN  UNL     1       8.667  -4.903  23.750  1.00  0.00     0.192 HD
BRANCH   5   7
HETATM    7  S   UNL     1       6.912  -4.145  22.545  1.00  0.00     0.216 S 
HETATM    8  O   UNL     1       5.758  -4.428  23.736  1.00  0.00    -0.577 OA
HETATM    9  O   UNL     1       6.648  -2.884  21.869  1.00  0.00    -0.577 OA
HETATM   10  O   UNL     1       6.967  -5.218  21.621  1.00  0.00    -0.577 OA
ENDBRANCH   5   7
ENDBRANCH   4   5
ENDBRANCH   2   3
BRANCH   2  11
HETATM   11  C   UNL     1      11.345  -0.336  23.725  1.00  0.00     0.057 A 
HETATM   12  C   UNL     1      11.679   0.286  24.863  1.00  0.00    -0.019 A 
HETATM   13  C   UNL     1      12.200  -0.102  24.205  1.00  0.00    -0.019 A 
ENDBRANCH   2  11
ENDBRANCH   1   2
BRANCH   1  14
HETATM   14  C   UNL     1       8.890   0.513  21.647  1.00  0.00     0.291 C 
HETATM   15  O   UNL     1       9.399   1.400  21.094  1.00  0.00    -0.259 OA
HETATM   16  N   UNL     1       7.679  -0.086  21.350  1.00  0.00    -0.302 N 
HETATM   17  C   UNL     1       7.055   0.325  20.259  1.00  0.00     0.123 A 
ATOM     18  HN  UNL     1       7.284  -0.812  21.947  1.00  0.00     0.171 HD
HETATM   19  N   UNL     1       7.477   0.072  19.049  1.00  0.00    -0.286 N 
HETATM   20  C   UNL     1       5.799   1.089  20.336  1.00  0.00     0.051 A 
HETATM   21  N   UNL     1       6.910   0.379  17.990  1.00  0.00    -0.310 N 
ATOM     22  HN  UNL     1       8.362  -0.428  18.968  1.00  0.00     0.188 HD
HETATM   23  C   UNL     1       6.000   1.002  18.268  1.00  0.00     0.107 A 
ATOM     24  HN  UNL     1       7.204   0.121  17.048  1.00  0.00     0.186 HD
HETATM   25  C   UNL     1       5.367   1.394  19.212  1.00  0.00     0.022 A 
ENDBRANCH   1  14
TORSDOF 6
ENDMDL
MODEL 3
REMARK VINA RESULT:    -6.503      3.946      7.539
REMARK INTER + INTRA:          -8.298
REMARK INTER:                  -8.968
REMARK INTRA:                   0.670
REMARK UNBOUND:                 0.107
REMARK  6 active torsions:
REMARK  status: ('A' for Active; 'I' for Inactive)
REMARK    1  A    between atoms: S_2  and  N_5 
REMARK    2  A    between atoms: N_5  and  C_7 
REMARK    3  A    between atoms: C_8  and  C_9 
REMARK    4  A    between atoms: C_9  and  C_13 
REMARK    5  A    between atoms: C_9  and  C_12 
REMARK    6  A    between atoms: C_13  and  C_14 
REMARK       I    between atoms: C_14  and  N_16 
ROOT
HETATM    1  C   UNL     1       8.460  -3.627  23.730  1.00  0.00    -0.065 C 
ENDROOT
BRANCH   1   2
HETATM    2  C   UNL     1       8.330  -4.807  24.033  1.00  0.00     0.154 C 
BRANCH   2   3
HETATM    3  C   UNL     1       7.927  -4.973  25.202  1.00  0.00    -0.065 C 
HETATM    4  C   UNL     1       7.616  -5.415  26.263  1.00  0.00     0.024 C 
BRANCH   4   5
HETATM    5  N   UNL     1       7.607  -5.762  27.409  1.00  0.00    -0.224 N 
ATOM      6  HN  UNL     1       8.511  -6.014  27.809  1.00  0.00     0.192 HD
BRANCH   5   7
HETATM    7  S   UNL     1       6.333  -5.880  28.395  1.00  0.00     0.216 S 
HETATM    8  O   UNL     1       5.471  -7.161  27.727  1.00  0.00    -0.577 OA
HETATM    9  O   UNL     1       6.783  -6.212  29.738  1.00  0.00    -0.577 OA
HETATM   10  O   UNL     1       5.562  -4.690  28.395  1.00  0.00    -0.577 OA
ENDBRANCH   5   7
ENDBRANCH   4   5
ENDBRANCH   2   3
BRANCH   2  11
HETATM   11  C   UNL     1       7.046  -4.876  22.812  1.00  0.00     0.057 A 
HETATM   12  C   UNL     1       7.215  -6.001  22.105  1.00  0.00    -0.019 A 
HETATM   13  C   UNL     1       6.493  -5.427  22.173  1.00  0.00    -0.019 A 
ENDBRANCH   2  11
ENDBRANCH   1   2
BRANCH   1  14
HETATM   14  C   UNL     1       9.070  -2.394  23.406  1.00  0.00     0.291 C 
HETATM   15  O   UNL     1       9.019  -1.965  22.327  1.00  0.00    -0.259 OA
HETATM   16  N   UNL     1       9.712  -1.848  24.504  1.00  0.00    -0.302 N 
HETATM   17  C   UNL     1      10.259  -0.654  24.350  1.00  0.00     0.123 A 
ATOM     18  HN  UNL     1       9.760  -2.344  25.393  1.00  0.00     0.171 HD
HETATM   19  N   UNL     1       9.566   0.444  24.208  1.00  0.00    -0.286 N 
HETATM   20  C   UNL     1      11.720  -0.475  24.355  1.00  0.00     0.051 A 
HETATM   21  N   UNL     1      10.017   1.595  24.117  1.00  0.00    -0.310 N 
ATOM     22  HN  UNL     1       8.552   0.344  24.168  1.00  0.00     0.188 HD
HETATM   23  C   UNL     1      11.151   1.507  24.087  1.00  0.00     0.107 A 
ATOM     24  HN  UNL     1       9.474   2.457  24.076  1.00  0.00     0.186 HD
HETATM   25  C   UNL     1      12.047   0.712  24.189  1.00  0.00     0.022 A 
ENDBRANCH   1  14
TORSDOF 6
ENDMDL
MODEL 4
REMARK VINA RESULT:    -6.437      2.812      3.097
REMARK INTER + INTRA:          -8.212
REMARK INTER:                  -8.784
REMARK INTRA:                   0.571
REMARK UNBOUND:                 0.107
REMARK  6 active torsions:
REMARK  status: ('A' for Active; 'I' for Inactive)
REMARK    1  A    between atoms: S_2  and  N_5 
REMARK    2  A    between atoms: N_5  and  C_7 
REMARK    3  A    between atoms: C_8  and  C_9 
REMARK    4  A    between atoms: C_9  and  C_13 
REMARK    5  A    between atoms: C_9  and  C_12 
REMARK    6  A    between atoms: C_13  and  C_14 
REMARK       I    between atoms: C_14  and  N_16 
ROOT
HETATM    1  C   UNL     1       9.339  -2.546  23.448  1.00  0.00    -0.065 C 
ENDROOT
BRANCH   1   2
HETATM    2  C   UNL     1       9.703  -1.821  22.530  1.00  0.00     0.154 C 
BRANCH   2   3
HETATM    3  C   UNL     1       8.853  -0.968  22.209  1.00  0.00    -0.065 C 
HETATM    4  C   UNL     1       8.006  -0.330  21.666  1.00  0.00     0.024 C 
BRANCH   4   5
HETATM    5  N   UNL     1       6.958   0.137  21.322  1.00  0.00    -0.224 N 
ATOM      6  HN  UNL     1       6.394   0.565  22.056  1.00  0.00     0.192 HD
BRANCH   5   7
HETATM    7  S   UNL     1       6.334   0.168  19.832  1.00  0.00     0.216 S 
HETATM    8  O   UNL     1       7.700   0.345  18.867  1.00  0.00    -0.577 OA
HETATM    9  O   UNL     1       5.671  -1.097  19.553  1.00  0.00    -0.577 OA
HETATM   10  O   UNL     1       5.444   1.259  19.663  1.00  0.00    -0.577 OA
ENDBRANCH   5   7
ENDBRANCH   4   5
ENDBRANCH   2   3
BRANCH   2  11
HETATM   11  C   UNL     1      10.951  -1.216  23.636  1.00  0.00     0.057 A 
HETATM   12  C   UNL     1      12.143  -1.432  23.064  1.00  0.00    -0.019 A 
HETATM   13  C   UNL     1      11.896  -0.894  23.774  1.00  0.00    -0.019 A 
ENDBRANCH   2  11
ENDBRANCH   1   2
BRANCH   1  14
HETATM   14  C   UNL     1       8.604  -3.513  24.171  1.00  0.00     0.291 C 
HETATM   15  O   UNL     1       8.124  -4.426  23.634  1.00  0.00    -0.259 OA
HETATM   16  N   UNL     1       8.538  -3.192  25.515  1.00  0.00    -0.302 N 
HETATM   17  C   UNL     1       7.942  -4.060  26.314  1.00  0.00     0.123 A 
ATOM     18  HN  UNL     1       8.934  -2.323  25.874  1.00  0.00     0.171 HD
HETATM   19  N   UNL     1       8.445  -5.226  26.617  1.00  0.00    -0.286 N 
HETATM   20  C   UNL     1       6.651  -3.752  26.952  1.00  0.00     0.051 A 
HETATM   21  N   UNL     1       7.964  -6.057  27.401  1.00  0.00    -0.310 N 
ATOM     22  HN  UNL     1       9.323  -5.478  26.163  1.00  0.00     0.188 HD
HETATM   23  C   UNL     1       6.955  -5.653  27.736  1.00  0.00     0.107 A 
ATOM     24  HN  UNL     1       8.393  -6.936  27.690  1.00  0.00     0.186 HD
HETATM   25  C   UNL     1       6.242  -4.688  27.658  1.00  0.00     0.022 A 
ENDBRANCH   1  14
TORSDOF 6
ENDMDL
MODEL 5
REMARK VINA RESULT:    -6.413     20.319     22.664
REMARK INTER + INTRA:          -8.181
REMARK INTER:                  -9.007
REMARK INTRA:                   0.826
REMARK UNBOUND:                 0.107
REMARK  6 active torsions:
REMARK  status: ('A' for Active; 'I' for Inactive)
REMARK    1  A    between atoms: S_2  and  N_5 
REMARK    2  A    between atoms: N_5  and  C_7 
REMARK    3  A    between atoms: C_8  and  C_9 
REMARK    4  A    between atoms: C_9  and  C_13 
REMARK    5  A    between atoms: C_9  and  C_12 
REMARK    6  A    between atoms: C_13  and  C_14 
REMARK       I    between atoms: C_14  and  N_16 
ROOT
HETATM    1  C   UNL     1       6.133  10.755   3.713  1.00  0.00    -0.065 C 
ENDROOT
BRANCH   1   2
HETATM    2  C   UNL     1       6.517  11.839   4.136  1.00  0.00     0.154 C 
BRANCH   2   3
HETATM    3  C   UNL     1       7.653  12.152   3.730  1.00  0.00    -0.065 C 
HETATM    4  C   UNL     1       8.647  12.726   3.409  1.00  0.00     0.024 C 
BRANCH   4   5
HETATM    5  N   UNL     1       9.737  13.221   3.394  1.00  0.00    -0.224 N 
ATOM      6  HN  UNL     1      10.525  12.574   3.412  1.00  0.00     0.192 HD
BRANCH   5   7
HETATM    7  S   UNL     1      10.105  14.794   3.350  1.00  0.00     0.216 S 
HETATM    8  O   UNL     1       9.878  15.176   1.728  1.00  0.00    -0.577 OA
HETATM    9  O   UNL     1       9.175  15.538   4.185  1.00  0.00    -0.577 OA
HETATM   10  O   UNL     1      11.446  15.026   3.747  1.00  0.00    -0.577 OA
ENDBRANCH   5   7
ENDBRANCH   4   5
ENDBRANCH   2   3
BRANCH   2  11
HETATM   11  C   UNL     1       5.193  12.560   3.201  1.00  0.00     0.057 A 
HETATM   12  C   UNL     1       4.682  13.564   3.925  1.00  0.00    -0.019 A 
HETATM   13  C   UNL     1       4.589  13.349   3.031  1.00  0.00    -0.019 A 
ENDBRANCH   2  11
ENDBRANCH   1   2
BRANCH   1  14
HETATM   14  C   UNL     1       5.554   9.466   3.682  1.00  0.00     0.291 C 
HETATM   15  O   UNL     1       5.207   8.989   2.680  1.00  0.00    -0.259 OA
HETATM   16  N   UNL     1       5.455   8.930   4.954  1.00  0.00    -0.302 N 
HETATM   17  C   UNL     1       4.998   7.693   5.052  1.00  0.00     0.123 A 
ATOM     18  HN  UNL     1       5.723   9.465   5.779  1.00  0.00     0.171 HD
HETATM   19  N   UNL     1       5.669   6.643   4.661  1.00  0.00    -0.286 N 
HETATM   20  C   UNL     1       3.682   7.408   5.648  1.00  0.00     0.051 A 
HETATM   21  N   UNL     1       5.321   5.459   4.778  1.00  0.00    -0.310 N 
ATOM     22  HN  UNL     1       6.570   6.815   4.215  1.00  0.00     0.188 HD
HETATM   23  C   UNL     1       4.267   5.462   5.206  1.00  0.00     0.107 A 
ATOM     24  HN  UNL     1       5.875   4.638   4.537  1.00  0.00     0.186 HD
HETATM   25  C   UNL     1       3.420   6.193   5.646  1.00  0.00     0.022 A 
ENDBRANCH   1  14
TORSDOF 6
ENDMDL
MODEL 6
REMARK VINA RESULT:    -6.379      3.487      5.486
REMARK INTER + INTRA:          -8.137
REMARK INTER:                  -8.686
REMARK INTRA:                   0.549
REMARK UNBOUND:                 0.107
REMARK  6 active torsions:
REMARK  status: ('A' for Active; 'I' for Inactive)
REMARK    1  A    between atoms: S_2  and  N_5 
REMARK    2  A    between atoms: N_5  and  C_7 
REMARK    3  A    between atoms: C_8  and  C_9 
REMARK    4  A    between atoms: C_9  and  C_13 
REMARK    5  A    between atoms: C_9  and  C_12 
REMARK    6  A    between atoms: C_13  and  C_14 
REMARK       I    between atoms: C_14  and  N_16 
ROOT
HETATM    1  C   UNL     1       9.876  -0.044  23.139  1.00  0.00    -0.065 C 
ENDROOT
BRANCH   1   2
HETATM    2  C   UNL     1      10.130  -0.224  24.324  1.00  0.00     0.154 C 
BRANCH   2   3
HETATM    3  C   UNL     1       9.514  -1.188  24.819  1.00  0.00    -0.065 C 
HETATM    4  C   UNL     1       8.767  -1.892  25.424  1.00  0.00     0.024 C 
BRANCH   4   5
HETATM    5  N   UNL     1       7.852  -2.593  25.746  1.00  0.00    -0.224 N 
ATOM      6  HN  UNL     1       6.965  -2.121  25.925  1.00  0.00     0.192 HD
BRANCH   5   7
HETATM    7  S   UNL     1       7.855  -4.198  25.931  1.00  0.00     0.216 S 
HETATM    8  O   UNL     1       8.542  -4.730  24.490  1.00  0.00    -0.577 OA
HETATM    9  O   UNL     1       8.697  -4.558  27.062  1.00  0.00    -0.577 OA
HETATM   10  O   UNL     1       6.542  -4.707  26.089  1.00  0.00    -0.577 OA
ENDBRANCH   5   7
ENDBRANCH   4   5
ENDBRANCH   2   3
BRANCH   2  11
HETATM   11  C   UNL     1      11.782  -0.613  23.807  1.00  0.00     0.057 A 
HETATM   12  C   UNL     1      12.622   0.148  24.520  1.00  0.00    -0.019 A 
HETATM   13  C   UNL     1      12.770  -0.606  24.005  1.00  0.00    -0.019 A 
ENDBRANCH   2  11
ENDBRANCH   1   2
BRANCH   1  14
HETATM   14  C   UNL     1       9.278   0.475  21.968  1.00  0.00     0.291 C 
HETATM   15  O   UNL     1       9.748   1.377  21.405  1.00  0.00    -0.259 OA
HETATM   16  N   UNL     1       8.115  -0.206  21.654  1.00  0.00    -0.302 N 
HETATM   17  C   UNL     1       7.500   0.136  20.535  1.00  0.00     0.123 A 
ATOM     18  HN  UNL     1       7.748  -0.939  22.260  1.00  0.00     0.171 HD
HETATM   19  N   UNL     1       7.972  -0.121  19.345  1.00  0.00    -0.286 N 
HETATM   20  C   UNL     1       6.198   0.823  20.555  1.00  0.00     0.051 A 
HETATM   21  N   UNL     1       7.419   0.121  18.262  1.00  0.00    -0.310 N 
ATOM     22  HN  UNL     1       8.889  -0.567  19.302  1.00  0.00     0.188 HD
HETATM   23  C   UNL     1       6.465   0.694  18.497  1.00  0.00     0.107 A 
ATOM     24  HN  UNL     1       7.756  -0.143  17.337  1.00  0.00     0.186 HD
HETATM   25  C   UNL     1       5.781   1.071  19.411  1.00  0.00     0.022 A 
ENDBRANCH   1  14
TORSDOF 6
ENDMDL
MODEL 7
REMARK VINA RESULT:    -6.293     14.851     16.996
REMARK INTER + INTRA:          -8.026
REMARK INTER:                  -8.677
REMARK INTRA:                   0.651
REMARK UNBOUND:                 0.107
REMARK  6 active torsions:
REMARK  status: ('A' for Active; 'I' for Inactive)
REMARK    1  A    between atoms: S_2  and  N_5 
REMARK    2  A    between atoms: N_5  and  C_7 
REMARK    3  A    between atoms: C_8  and  C_9 
REMARK    4  A    between atoms: C_9  and  C_13 
REMARK    5  A    between atoms: C_9  and  C_12 
REMARK    6  A    between atoms: C_13  and  C_14 
REMARK       I    between atoms: C_14  and  N_16 
ROOT
HETATM    1  C   UNL     1      23.344  -1.548  26.094  1.00  0.00    -0.065 C 
ENDROOT
BRANCH   1   2
HETATM    2  C   UNL     1      23.006  -2.042  25.024  1.00  0.00     0.154 C 
BRANCH   2   3
HETATM    3  C   UNL     1      23.275  -3.256  24.936  1.00  0.00    -0.065 C 
HETATM    4  C   UNL     1      23.773  -4.314  24.710  1.00  0.00     0.024 C 
BRANCH   4   5
HETATM    5  N   UNL     1      24.393  -5.336  24.788  1.00  0.00    -0.224 N 
ATOM      6  HN  UNL     1      24.685  -5.754  23.905  1.00  0.00     0.192 HD
BRANCH   5   7
HETATM    7  S   UNL     1      24.821  -6.130  26.128  1.00  0.00     0.216 S 
HETATM    8  O   UNL     1      26.415  -6.558  25.806  1.00  0.00    -0.577 OA
HETATM    9  O   UNL     1      24.754  -5.232  27.272  1.00  0.00    -0.577 OA
HETATM   10  O   UNL     1      24.015  -7.278  26.334  1.00  0.00    -0.577 OA
ENDBRANCH   5   7
ENDBRANCH   4   5
ENDBRANCH   2   3
BRANCH   2  11
HETATM   11  C   UNL     1      21.334  -1.706  25.511  1.00  0.00     0.057 A 
HETATM   12  C   UNL     1      20.729  -1.084  24.491  1.00  0.00    -0.019 A 
HETATM   13  C   UNL     1      20.385  -1.496  25.244  1.00  0.00    -0.019 A 
ENDBRANCH   2  11
ENDBRANCH   1   2
BRANCH   1  14
HETATM   14  C   UNL     1      23.508  -1.371  27.486  1.00  0.00     0.291 C 
HETATM   15  O   UNL     1      23.465  -0.312  27.965  1.00  0.00    -0.259 OA
HETATM   16  N   UNL     1      23.739  -2.578  28.122  1.00  0.00    -0.302 N 
HETATM   17  C   UNL     1      23.834  -2.557  29.441  1.00  0.00     0.123 A 
ATOM     18  HN  UNL     1      23.832  -3.447  27.596  1.00  0.00     0.171 HD
HETATM   19  N   UNL     1      22.821  -2.333  30.233  1.00  0.00    -0.286 N 
HETATM   20  C   UNL     1      25.114  -2.816  30.120  1.00  0.00     0.051 A 
HETATM   21  N   UNL     1      22.834  -2.355  31.472  1.00  0.00    -0.310 N 
ATOM     22  HN  UNL     1      21.929  -2.118  29.787  1.00  0.00     0.188 HD
HETATM   23  C   UNL     1      23.914  -2.516  31.792  1.00  0.00     0.107 A 
ATOM     24  HN  UNL     1      22.028  -2.250  32.089  1.00  0.00     0.186 HD
HETATM   25  C   UNL     1      25.011  -2.744  31.356  1.00  0.00     0.022 A 
ENDBRANCH   1  14
TORSDOF 6
ENDMDL
MODEL 8
REMARK VINA RESULT:    -6.221      3.471      6.779
REMARK INTER + INTRA:          -7.933
REMARK INTER:                  -8.799
REMARK INTRA:                   0.866
REMARK UNBOUND:                 0.107
REMARK  6 active torsions:
REMARK  status: ('A' for Active; 'I' for Inactive)
REMARK    1  A    between atoms: S_2  and  N_5 
REMARK    2  A    between atoms: N_5  and  C_7 
REMARK    3  A    between atoms: C_8  and  C_9 
REMARK    4  A    between atoms: C_9  and  C_13 
REMARK    5  A    between atoms: C_9  and  C_12 
REMARK    6  A    between atoms: C_13  and  C_14 
REMARK       I    between atoms: C_14  and  N_16 
ROOT
HETATM    1  C   UNL     1      10.828   0.114  23.094  1.00  0.00    -0.065 C 
ENDROOT
BRANCH   1   2
HETATM    2  C   UNL     1      10.837  -0.905  23.775  1.00  0.00     0.154 C 
BRANCH   2   3
HETATM    3  C   UNL     1      10.090  -1.799  23.332  1.00  0.00    -0.065 C 
HETATM    4  C   UNL     1       9.163  -2.481  23.024  1.00  0.00     0.024 C 
BRANCH   4   5
HETATM    5  N   UNL     1       8.261  -2.998  22.431  1.00  0.00    -0.224 N 
ATOM      6  HN  UNL     1       8.038  -2.604  21.517  1.00  0.00     0.192 HD
BRANCH   5   7
HETATM    7  S   UNL     1       7.355  -4.248  22.909  1.00  0.00     0.216 S 
HETATM    8  O   UNL     1       8.251  -4.883  24.182  1.00  0.00    -0.577 OA
HETATM    9  O   UNL     1       6.066  -3.766  23.381  1.00  0.00    -0.577 OA
HETATM   10  O   UNL     1       7.194  -5.201  21.872  1.00  0.00    -0.577 OA
ENDBRANCH   5   7
ENDBRANCH   4   5
ENDBRANCH   2   3
BRANCH   2  11
HETATM   11  C   UNL     1      12.537  -1.085  23.302  1.00  0.00     0.057 A 
HETATM   12  C   UNL     1      13.293  -0.721  24.346  1.00  0.00    -0.019 A 
HETATM   13  C   UNL     1      13.501  -1.190  23.577  1.00  0.00    -0.019 A 
ENDBRANCH   2  11
ENDBRANCH   1   2
BRANCH   1  14
HETATM   14  C   UNL     1      10.747   1.480  22.742  1.00  0.00     0.291 C 
HETATM   15  O   UNL     1      10.539   1.805  21.645  1.00  0.00    -0.259 OA
HETATM   16  N   UNL     1      10.970   2.295  23.838  1.00  0.00    -0.302 N 
HETATM   17  C   UNL     1      10.846   3.599  23.655  1.00  0.00     0.123 A 
ATOM     18  HN  UNL     1      11.219   1.907  24.747  1.00  0.00     0.171 HD
HETATM   19  N   UNL     1       9.702   4.192  23.446  1.00  0.00    -0.286 N 
HETATM   20  C   UNL     1      12.014   4.493  23.702  1.00  0.00     0.051 A 
HETATM   21  N   UNL     1       9.513   5.411  23.325  1.00  0.00    -0.310 N 
ATOM     22  HN  UNL     1       8.880   3.591  23.376  1.00  0.00     0.188 HD
HETATM   23  C   UNL     1      10.536   5.909  23.337  1.00  0.00     0.107 A 
ATOM     24  HN  UNL     1       8.612   5.879  23.232  1.00  0.00     0.186 HD
HETATM   25  C   UNL     1      11.705   5.679  23.499  1.00  0.00     0.022 A 
ENDBRANCH   1  14
TORSDOF 6
ENDMDL
MODEL 9
REMARK VINA RESULT:    -6.164     25.697     27.610
REMARK INTER + INTRA:          -7.859
REMARK INTER:                  -8.467
REMARK INTRA:                   0.609
REMARK UNBOUND:                 0.107
REMARK  6 active torsions:
REMARK  status: ('A' for Active; 'I' for Inactive)
REMARK    1  A    between atoms: S_2  and  N_5 
REMARK    2  A    between atoms: N_5  and  C_7 
REMARK    3  A    between atoms: C_8  and  C_9 
REMARK    4  A    between atoms: C_9  and  C_13 
REMARK    5  A    between atoms: C_9  and  C_12 
REMARK    6  A    between atoms: C_13  and  C_14 
REMARK       I    between atoms: C_14  and  N_16 
ROOT
HETATM    1  C   UNL     1       9.280  17.900   2.295  1.00  0.00    -0.065 C 
ENDROOT
BRANCH   1   2
HETATM    2  C   UNL     1       9.175  17.208   1.289  1.00  0.00     0.154 C 
BRANCH   2   3
HETATM    3  C   UNL     1       8.775  16.051   1.527  1.00  0.00    -0.065 C 
HETATM    4  C   UNL     1       8.685  14.885   1.750  1.00  0.00     0.024 C 
BRANCH   4   5
HETATM    5  N   UNL     1       8.586  13.820   2.287  1.00  0.00    -0.224 N 
ATOM      6  HN  UNL     1       8.321  13.037   1.689  1.00  0.00     0.192 HD
BRANCH   5   7
HETATM    7  S   UNL     1       8.820  13.476   3.849  1.00  0.00     0.216 S 
HETATM    8  O   UNL     1       8.605  11.808   3.892  1.00  0.00    -0.577 OA
HETATM    9  O   UNL     1      10.181  13.826   4.228  1.00  0.00    -0.577 OA
HETATM   10  O   UNL     1       7.875  14.134   4.675  1.00  0.00    -0.577 OA
ENDBRANCH   5   7
ENDBRANCH   4   5
ENDBRANCH   2   3
BRANCH   2  11
HETATM   11  C   UNL     1       7.894  18.323   0.778  1.00  0.00     0.057 A 
HETATM   12  C   UNL     1       8.362  19.035  -0.256  1.00  0.00    -0.019 A 
HETATM   13  C   UNL     1       7.501  18.913   0.060  1.00  0.00    -0.019 A 
ENDBRANCH   2  11
ENDBRANCH   1   2
BRANCH   1  14
HETATM   14  C   UNL     1       9.766  18.397   3.526  1.00  0.00     0.291 C 
HETATM   15  O   UNL     1       9.074  18.476   4.456  1.00  0.00    -0.259 OA
HETATM   16  N   UNL     1      11.095  18.770   3.426  1.00  0.00    -0.302 N 
HETATM   17  C   UNL     1      11.691  19.181   4.532  1.00  0.00     0.123 A 
ATOM     18  HN  UNL     1      11.593  18.729   2.537  1.00  0.00     0.171 HD
HETATM   19  N   UNL     1      11.987  18.391   5.528  1.00  0.00    -0.286 N 
HETATM   20  C   UNL     1      12.093  20.587   4.708  1.00  0.00     0.051 A 
HETATM   21  N   UNL     1      12.593  18.703   6.564  1.00  0.00    -0.310 N 
ATOM     22  HN  UNL     1      11.690  17.418   5.446  1.00  0.00     0.188 HD
HETATM   23  C   UNL     1      12.761  19.828   6.525  1.00  0.00     0.107 A 
ATOM     24  HN  UNL     1      12.886  18.071   7.309  1.00  0.00     0.186 HD
HETATM   25  C   UNL     1      12.628  20.786   5.812  1.00  0.00     0.022 A 
ENDBRANCH   1  14
TORSDOF 6
ENDMDL
