MODEL 1
REMARK VINA RESULT:    -6.655      0.000      0.000
REMARK INTER + INTRA:         -10.796
REMARK INTER:                  -9.378
REMARK INTRA:                  -1.418
REMARK UNBOUND:                -1.418
REMARK  7 active torsions:
REMARK  status: ('A' for Active; 'I' for Inactive)
REMARK    1  A    between atoms: S_2  and  N_5 
REMARK    2  A    between atoms: N_5  and  C_7 
REMARK    3  A    between atoms: C_9  and  C_10 
REMARK    4  A    between atoms: C_10  and  C_11 
REMARK    5  A    between atoms: C_11  and  C_12 
REMARK    6  A    between atoms: C_15  and  C_16 
REMARK       I    between atoms: C_16  and  N_18 
REMARK    7  A    between atoms: N_18  and  C_20 
ROOT
HETATM    1  C   UNL     1      24.096  -4.308  24.291  1.00  0.00     0.108 C 
HETATM    2  C   UNL     1      24.067  -3.238  23.660  1.00  0.00    -0.017 A 
HETATM    3  C   UNL     1      24.289  -1.964  23.571  1.00  0.00     0.082 A 
HETATM    4  C   UNL     1      23.861  -1.940  22.468  1.00  0.00     0.031 A 
ENDROOT
BRANCH   4   5
HETATM    5  C   UNL     1      23.315  -1.803  21.212  1.00  0.00     0.253 C 
HETATM    6  O   UNL     1      22.178  -1.897  21.118  1.00  0.00    -0.268 OA
HETATM    7  N   UNL     1      24.229  -1.600  20.299  1.00  0.00    -0.321 N 
ATOM      8  HN  UNL     1      25.210  -1.539  20.574  1.00  0.00     0.169 HD
BRANCH   7   9
HETATM    9  C   UNL     1      23.909  -1.474  19.059  1.00  0.00     0.056 A 
HETATM   10  C   UNL     1      23.482  -0.464  18.336  1.00  0.00     0.117 A 
HETATM   11  N   UNL     1      23.090  -0.036  17.282  1.00  0.00    -0.373 N 
HETATM   12  C   UNL     1      23.181  -1.196  16.528  1.00  0.00     0.088 A 
ATOM     13  HN  UNL     1      22.783   0.901  17.020  1.00  0.00     0.164 HD
HETATM   14  C   UNL     1      23.561  -2.257  16.904  1.00  0.00     0.026 A 
HETATM   15  C   UNL     1      24.013  -2.684  18.119  1.00  0.00    -0.033 A 
HETATM   16  C   UNL     1      24.506  -4.099  18.572  1.00  0.00     0.050 C 
ENDBRANCH   7   9
ENDBRANCH   4   5
BRANCH   3  17
HETATM   17  C   UNL     1      23.898  -0.747  24.541  1.00  0.00    -0.012 C 
BRANCH  17  18
HETATM   18  C   UNL     1      23.033  -0.623  25.153  1.00  0.00    -0.003 C 
BRANCH  18  19
HETATM   19  C   UNL     1      21.751   0.076  24.713  1.00  0.00    -0.001 C 
HETATM   20  C   UNL     1      20.789  -0.779  24.639  1.00  0.00    -0.010 C 
HETATM   21  C   UNL     1      20.595  -1.795  24.826  1.00  0.00     0.011 C 
ENDBRANCH  18  19
ENDBRANCH  17  18
ENDBRANCH   3  17
BRANCH   1  22
HETATM   22  N   UNL     1      23.652  -5.384  24.676  1.00  0.00    -0.295 N 
ATOM     23  HN  UNL     1      22.656  -5.430  24.889  1.00  0.00     0.177 HD
BRANCH  22  24
HETATM   24  S   UNL     1      24.508  -6.722  24.873  1.00  0.00     0.226 S 
HETATM   25  C   UNL     1      26.172  -6.133  25.159  1.00  0.00     0.186 C 
HETATM   26  O   UNL     1      24.102  -7.445  26.051  1.00  0.00    -0.206 OA
HETATM   27  O   UNL     1      24.546  -7.546  23.710  1.00  0.00    -0.206 OA
ENDBRANCH  22  24
ENDBRANCH   1  22
TORSDOF 7
ENDMDL
MODEL 2
REMARK VINA RESULT:    -6.644     14.408     17.634
REMARK INTER + INTRA:         -10.782
REMARK INTER:                  -9.664
REMARK INTRA:                  -1.118
REMARK UNBOUND:                -1.418
REMARK  7 active torsions:
REMARK  status: ('A' for Active; 'I' for Inactive)
REMARK    1  A    between atoms: S_2  and  N_5 
REMARK    2  A    between atoms: N_5  and  C_7 
REMARK    3  A    between atoms: C_9  and  C_10 
REMARK    4  A    between atoms: C_10  and  C_11 
REMARK    5  A    between atoms: C_11  and  C_12 
REMARK    6  A    between atoms: C_15  and  C_16 
REMARK       I    between atoms: C_16  and  N_18 
REMARK    7  A    between atoms: N_18  and  C_20 
ROOT
HETATM    1  C   UNL     1       6.751  -0.864  21.188  1.00  0.00     0.108 C 
HETATM    2  C   UNL     1       7.471  -1.420  22.034  1.00  0.00    -0.017 A 
HETATM    3  C   UNL     1       8.581  -1.517  22.696  1.00  0.00     0.082 A 
HETATM    4  C   UNL     1       8.181  -2.465  23.280  1.00  0.00     0.031 A 
ENDROOT
BRANCH   4   5
HETATM    5  C   UNL     1       7.828  -3.613  23.952  1.00  0.00     0.253 C 
HETATM    6  O   UNL     1       7.968  -4.609  23.406  1.00  0.00    -0.268 OA
HETATM    7  N   UNL     1       7.354  -3.358  25.144  1.00  0.00    -0.321 N 
ATOM      8  HN  UNL     1       7.308  -2.392  25.471  1.00  0.00     0.169 HD
BRANCH   7   9
HETATM    9  C   UNL     1       6.947  -4.307  25.912  1.00  0.00     0.056 A 
HETATM   10  C   UNL     1       7.551  -5.088  26.778  1.00  0.00     0.117 A 
HETATM   11  N   UNL     1       7.505  -6.005  27.556  1.00  0.00    -0.373 N 
HETATM   12  C   UNL     1       6.155  -6.307  27.456  1.00  0.00     0.088 A 
ATOM     13  HN  UNL     1       8.238  -6.432  28.121  1.00  0.00     0.164 HD
HETATM   14  C   UNL     1       5.354  -5.753  26.776  1.00  0.00     0.026 A 
HETATM   15  C   UNL     1       5.462  -4.698  25.917  1.00  0.00    -0.033 A 
HETATM   16  C   UNL     1       4.374  -3.998  25.037  1.00  0.00     0.050 C 
ENDBRANCH   7   9
ENDBRANCH   4   5
BRANCH   3  17
HETATM   17  C   UNL     1      10.110  -1.542  22.209  1.00  0.00    -0.012 C 
BRANCH  17  18
HETATM   18  C   UNL     1      10.919  -0.910  22.498  1.00  0.00    -0.003 C 
BRANCH  18  19
HETATM   19  C   UNL     1      11.597  -0.936  23.864  1.00  0.00    -0.001 C 
HETATM   20  C   UNL     1      11.629   0.254  24.360  1.00  0.00    -0.010 C 
HETATM   21  C   UNL     1      11.301   1.228  24.143  1.00  0.00     0.011 C 
ENDBRANCH  18  19
ENDBRANCH  17  18
ENDBRANCH   3  17
BRANCH   1  22
HETATM   22  N   UNL     1       5.956  -0.827  20.256  1.00  0.00    -0.295 N 
ATOM     23  HN  UNL     1       5.122  -1.408  20.329  1.00  0.00     0.177 HD
BRANCH  22  24
HETATM   24  S   UNL     1       6.120   0.059  18.933  1.00  0.00     0.226 S 
HETATM   25  C   UNL     1       5.069   1.475  19.229  1.00  0.00     0.186 C 
HETATM   26  O   UNL     1       7.466   0.550  18.783  1.00  0.00    -0.206 OA
HETATM   27  O   UNL     1       5.637  -0.585  17.756  1.00  0.00    -0.206 OA
ENDBRANCH  22  24
ENDBRANCH   1  22
TORSDOF 7
ENDMDL
MODEL 3
REMARK VINA RESULT:    -6.575     13.842     15.816
REMARK INTER + INTRA:         -10.684
REMARK INTER:                  -9.508
REMARK INTRA:                  -1.176
REMARK UNBOUND:                -1.418
REMARK  7 active torsions:
REMARK  status: ('A' for Active; 'I' for Inactive)
REMARK    1  A    between atoms: S_2  and  N_5 
REMARK    2  A    between atoms: N_5  and  C_7 
REMARK    3  A    between atoms: C_9  and  C_10 
REMARK    4  A    between atoms: C_10  and  C_11 
REMARK    5  A    between atoms: C_11  and  C_12 
REMARK    6  A    between atoms: C_15  and  C_16 
REMARK       I    between atoms: C_16  and  N_18 
REMARK    7  A    between atoms: N_18  and  C_20 
ROOT
HETATM    1  C   UNL     1       8.682  -3.020  24.526  1.00  0.00     0.108 C 
HETATM    2  C   UNL     1       9.199  -2.340  23.622  1.00  0.00    -0.017 A 
HETATM    3  C   UNL     1      10.237  -1.887  22.992  1.00  0.00     0.082 A 
HETATM    4  C   UNL     1       9.551  -1.281  22.244  1.00  0.00     0.031 A 
ENDROOT
BRANCH   4   5
HETATM    5  C   UNL     1       8.836  -0.487  21.376  1.00  0.00     0.253 C 
HETATM    6  O   UNL     1       9.412   0.318  20.801  1.00  0.00    -0.268 OA
HETATM    7  N   UNL     1       7.563  -0.789  21.369  1.00  0.00    -0.321 N 
ATOM      8  HN  UNL     1       7.225  -1.555  21.953  1.00  0.00     0.169 HD
BRANCH   7   9
HETATM    9  C   UNL     1       6.732  -0.135  20.637  1.00  0.00     0.056 A 
HETATM   10  C   UNL     1       6.126  -0.401  19.502  1.00  0.00     0.117 A 
HETATM   11  N   UNL     1       5.399  -0.054  18.609  1.00  0.00    -0.373 N 
HETATM   12  C   UNL     1       5.069   1.210  19.074  1.00  0.00     0.088 A 
ATOM     13  HN  UNL     1       5.110  -0.543  17.762  1.00  0.00     0.164 HD
HETATM   14  C   UNL     1       5.442   1.712  20.085  1.00  0.00     0.026 A 
HETATM   15  C   UNL     1       6.262   1.259  21.077  1.00  0.00    -0.033 A 
HETATM   16  C   UNL     1       6.729   1.959  22.398  1.00  0.00     0.050 C 
ENDBRANCH   7   9
ENDBRANCH   4   5
BRANCH   3  17
HETATM   17  C   UNL     1      11.570  -1.167  23.520  1.00  0.00    -0.012 C 
BRANCH  17  18
HETATM   18  C   UNL     1      11.679  -0.413  24.267  1.00  0.00    -0.003 C 
BRANCH  18  19
HETATM   19  C   UNL     1      11.813   1.079  23.981  1.00  0.00    -0.001 C 
HETATM   20  C   UNL     1      10.719   1.685  24.292  1.00  0.00    -0.010 C 
HETATM   21  C   UNL     1       9.779   1.487  24.719  1.00  0.00     0.011 C 
ENDBRANCH  18  19
ENDBRANCH  17  18
ENDBRANCH   3  17
BRANCH   1  22
HETATM   22  N   UNL     1       7.880  -3.251  25.423  1.00  0.00    -0.295 N 
ATOM     23  HN  UNL     1       7.533  -2.454  25.957  1.00  0.00     0.177 HD
BRANCH  22  24
HETATM   24  S   UNL     1       7.332  -4.699  25.826  1.00  0.00     0.226 S 
HETATM   25  C   UNL     1       6.362  -4.400  27.297  1.00  0.00     0.186 C 
HETATM   26  O   UNL     1       6.438  -5.228  24.825  1.00  0.00    -0.206 OA
HETATM   27  O   UNL     1       8.363  -5.617  26.180  1.00  0.00    -0.206 OA
ENDBRANCH  22  24
ENDBRANCH   1  22
TORSDOF 7
ENDMDL
MODEL 4
REMARK VINA RESULT:    -6.328     13.970     16.948
REMARK INTER + INTRA:         -10.335
REMARK INTER:                  -9.250
REMARK INTRA:                  -1.085
REMARK UNBOUND:                -1.418
REMARK  7 active torsions:
REMARK  status: ('A' for Active; 'I' for Inactive)
REMARK    1  A    between atoms: S_2  and  N_5 
REMARK    2  A    between atoms: N_5  and  C_7 
REMARK    3  A    between atoms: C_9  and  C_10 
REMARK    4  A    between atoms: C_10  and  C_11 
REMARK    5  A    between atoms: C_11  and  C_12 
REMARK    6  A    between atoms: C_15  and  C_16 
REMARK       I    between atoms: C_16  and  N_18 
REMARK    7  A    between atoms: N_18  and  C_20 
ROOT
HETATM    1  C   UNL     1      10.586  -1.583  22.606  1.00  0.00     0.108 C 
HETATM    2  C   UNL     1       9.469  -2.128  22.587  1.00  0.00    -0.017 A 
HETATM    3  C   UNL     1       8.257  -2.222  22.140  1.00  0.00     0.082 A 
HETATM    4  C   UNL     1       8.040  -3.146  22.845  1.00  0.00     0.031 A 
ENDROOT
BRANCH   4   5
HETATM    5  C   UNL     1       7.675  -4.177  23.681  1.00  0.00     0.253 C 
HETATM    6  O   UNL     1       7.753  -5.242  23.271  1.00  0.00    -0.268 OA
HETATM    7  N   UNL     1       7.266  -3.742  24.845  1.00  0.00    -0.321 N 
ATOM      8  HN  UNL     1       7.270  -2.740  25.038  1.00  0.00     0.169 HD
BRANCH   7   9
HETATM    9  C   UNL     1       6.858  -4.560  25.751  1.00  0.00     0.056 A 
HETATM   10  C   UNL     1       7.470  -5.236  26.698  1.00  0.00     0.117 A 
HETATM   11  N   UNL     1       7.424  -6.033  27.598  1.00  0.00    -0.373 N 
HETATM   12  C   UNL     1       6.063  -6.297  27.585  1.00  0.00     0.088 A 
ATOM     13  HN  UNL     1       8.165  -6.403  28.192  1.00  0.00     0.164 HD
HETATM   14  C   UNL     1       5.254  -5.815  26.861  1.00  0.00     0.026 A 
HETATM   15  C   UNL     1       5.363  -4.894  25.860  1.00  0.00    -0.033 A 
HETATM   16  C   UNL     1       4.265  -4.284  24.926  1.00  0.00     0.050 C 
ENDBRANCH   7   9
ENDBRANCH   4   5
BRANCH   3  17
HETATM   17  C   UNL     1       7.095  -1.126  21.980  1.00  0.00    -0.012 C 
BRANCH  17  18
HETATM   18  C   UNL     1       7.116  -0.192  21.465  1.00  0.00    -0.003 C 
BRANCH  18  19
HETATM   19  C   UNL     1       7.769   0.036  20.106  1.00  0.00    -0.001 C 
HETATM   20  C   UNL     1       6.869   0.330  19.231  1.00  0.00    -0.010 C 
HETATM   21  C   UNL     1       5.835   0.504  19.163  1.00  0.00     0.011 C 
ENDBRANCH  18  19
ENDBRANCH  17  18
ENDBRANCH   3  17
BRANCH   1  22
HETATM   22  N   UNL     1      11.595  -1.132  23.136  1.00  0.00    -0.295 N 
ATOM     23  HN  UNL     1      12.491  -1.517  22.839  1.00  0.00     0.177 HD
BRANCH  22  24
HETATM   24  S   UNL     1      11.621   0.010  24.257  1.00  0.00     0.226 S 
HETATM   25  C   UNL     1      11.160   1.494  23.372  1.00  0.00     0.186 C 
HETATM   26  O   UNL     1      10.619  -0.213  25.269  1.00  0.00    -0.206 OA
HETATM   27  O   UNL     1      12.917   0.232  24.808  1.00  0.00    -0.206 OA
ENDBRANCH  22  24
ENDBRANCH   1  22
TORSDOF 7
ENDMDL
MODEL 5
REMARK VINA RESULT:    -6.221     13.736     16.562
REMARK INTER + INTRA:         -10.186
REMARK INTER:                  -9.156
REMARK INTRA:                  -1.029
REMARK UNBOUND:                -1.418
REMARK  7 active torsions:
REMARK  status: ('A' for Active; 'I' for Inactive)
REMARK    1  A    between atoms: S_2  and  N_5 
REMARK    2  A    between atoms: N_5  and  C_7 
REMARK    3  A    between atoms: C_9  and  C_10 
REMARK    4  A    between atoms: C_10  and  C_11 
REMARK    5  A    between atoms: C_11  and  C_12 
REMARK    6  A    between atoms: C_15  and  C_16 
REMARK       I    between atoms: C_16  and  N_18 
REMARK    7  A    between atoms: N_18  and  C_20 
ROOT
HETATM    1  C   UNL     1       6.053  -1.664  20.834  1.00  0.00     0.108 C 
HETATM    2  C   UNL     1       6.633  -2.339  21.701  1.00  0.00    -0.017 A 
HETATM    3  C   UNL     1       6.705  -3.373  22.479  1.00  0.00     0.082 A 
HETATM    4  C   UNL     1       7.736  -3.001  22.923  1.00  0.00     0.031 A 
ENDROOT
BRANCH   4   5
HETATM    5  C   UNL     1       8.898  -2.610  23.548  1.00  0.00     0.253 C 
HETATM    6  O   UNL     1       9.085  -3.001  24.608  1.00  0.00    -0.268 OA
HETATM    7  N   UNL     1       9.613  -1.810  22.800  1.00  0.00    -0.321 N 
ATOM      8  HN  UNL     1       9.285  -1.571  21.864  1.00  0.00     0.169 HD
BRANCH   7   9
HETATM    9  C   UNL     1      10.723  -1.319  23.228  1.00  0.00     0.056 A 
HETATM   10  C   UNL     1      11.982  -1.656  23.060  1.00  0.00     0.117 A 
HETATM   11  N   UNL     1      13.145  -1.476  23.309  1.00  0.00    -0.373 N 
HETATM   12  C   UNL     1      13.022  -0.375  24.142  1.00  0.00     0.088 A 
ATOM     13  HN  UNL     1      13.974  -1.982  22.999  1.00  0.00     0.164 HD
HETATM   14  C   UNL     1      12.012   0.169  24.453  1.00  0.00     0.026 A 
HETATM   15  C   UNL     1      10.710  -0.072  24.123  1.00  0.00    -0.033 A 
HETATM   16  C   UNL     1       9.404   0.675  24.558  1.00  0.00     0.050 C 
ENDBRANCH   7   9
ENDBRANCH   4   5
BRANCH   3  17
HETATM   17  C   UNL     1       5.646  -4.007  23.503  1.00  0.00    -0.012 C 
BRANCH  17  18
HETATM   18  C   UNL     1       5.745  -4.188  24.550  1.00  0.00    -0.003 C 
BRANCH  18  19
HETATM   19  C   UNL     1       5.769  -5.571  25.194  1.00  0.00    -0.001 C 
HETATM   20  C   UNL     1       6.556  -5.565  26.215  1.00  0.00    -0.010 C 
HETATM   21  C   UNL     1       7.154  -4.903  26.770  1.00  0.00     0.011 C 
ENDBRANCH  18  19
ENDBRANCH  17  18
ENDBRANCH   3  17
BRANCH   1  22
HETATM   22  N   UNL     1       5.650  -0.630  20.314  1.00  0.00    -0.295 N 
ATOM     23  HN  UNL     1       4.658  -0.578  20.083  1.00  0.00     0.177 HD
BRANCH  22  24
HETATM   24  S   UNL     1       6.552   0.646  19.967  1.00  0.00     0.226 S 
HETATM   25  C   UNL     1       7.480   0.938  21.467  1.00  0.00     0.186 C 
HETATM   26  O   UNL     1       7.505   0.357  18.925  1.00  0.00    -0.206 OA
HETATM   27  O   UNL     1       5.792   1.823  19.706  1.00  0.00    -0.206 OA
ENDBRANCH  22  24
ENDBRANCH   1  22
TORSDOF 7
ENDMDL
MODEL 6
REMARK VINA RESULT:    -6.200     13.661     15.826
REMARK INTER + INTRA:         -10.156
REMARK INTER:                  -8.685
REMARK INTRA:                  -1.471
REMARK UNBOUND:                -1.418
REMARK  7 active torsions:
REMARK  status: ('A' for Active; 'I' for Inactive)
REMARK    1  A    between atoms: S_2  and  N_5 
REMARK    2  A    between atoms: N_5  and  C_7 
REMARK    3  A    between atoms: C_9  and  C_10 
REMARK    4  A    between atoms: C_10  and  C_11 
REMARK    5  A    between atoms: C_11  and  C_12 
REMARK    6  A    between atoms: C_15  and  C_16 
REMARK       I    between atoms: C_16  and  N_18 
REMARK    7  A    between atoms: N_18  and  C_20 
ROOT
HETATM    1  C   UNL     1       8.066  -2.943  22.882  1.00  0.00     0.108 C 
HETATM    2  C   UNL     1       8.643  -1.966  22.374  1.00  0.00    -0.017 A 
HETATM    3  C   UNL     1       9.705  -1.388  21.909  1.00  0.00     0.082 A 
HETATM    4  C   UNL     1       9.098  -0.400  21.676  1.00  0.00     0.031 A 
ENDROOT
BRANCH   4   5
HETATM    5  C   UNL     1       8.490   0.812  21.440  1.00  0.00     0.253 C 
HETATM    6  O   UNL     1       8.250   1.080  20.353  1.00  0.00    -0.268 OA
HETATM    7  N   UNL     1       8.298   1.488  22.543  1.00  0.00    -0.321 N 
ATOM      8  HN  UNL     1       8.575   1.081  23.436  1.00  0.00     0.169 HD
BRANCH   7   9
HETATM    9  C   UNL     1       7.765   2.658  22.518  1.00  0.00     0.056 A 
HETATM   10  C   UNL     1       6.624   3.120  22.056  1.00  0.00     0.117 A 
HETATM   11  N   UNL     1       5.892   4.051  21.845  1.00  0.00    -0.373 N 
HETATM   12  C   UNL     1       6.666   5.065  22.391  1.00  0.00     0.088 A 
ATOM     13  HN  UNL     1       4.975   4.085  21.400  1.00  0.00     0.164 HD
HETATM   14  C   UNL     1       7.730   4.945  22.905  1.00  0.00     0.026 A 
HETATM   15  C   UNL     1       8.512   3.850  23.133  1.00  0.00    -0.033 A 
HETATM   16  C   UNL     1       9.916   3.738  23.818  1.00  0.00     0.050 C 
ENDBRANCH   7   9
ENDBRANCH   4   5
BRANCH   3  17
HETATM   17  C   UNL     1      11.179  -1.222  22.520  1.00  0.00    -0.012 C 
BRANCH  17  18
HETATM   18  C   UNL     1      11.481  -1.135  23.540  1.00  0.00    -0.003 C 
BRANCH  18  19
HETATM   19  C   UNL     1      11.722   0.186  24.264  1.00  0.00    -0.001 C 
HETATM   20  C   UNL     1      10.759   0.415  25.091  1.00  0.00    -0.010 C 
HETATM   21  C   UNL     1       9.884  -0.037  25.456  1.00  0.00     0.011 C 
ENDBRANCH  18  19
ENDBRANCH  17  18
ENDBRANCH   3  17
BRANCH   1  22
HETATM   22  N   UNL     1       7.293  -3.502  23.651  1.00  0.00    -0.295 N 
ATOM     23  HN  UNL     1       6.551  -2.935  24.061  1.00  0.00     0.177 HD
BRANCH  22  24
HETATM   24  S   UNL     1       7.352  -5.046  24.066  1.00  0.00     0.226 S 
HETATM   25  C   UNL     1       7.267  -5.915  22.506  1.00  0.00     0.186 C 
HETATM   26  O   UNL     1       8.612  -5.386  24.677  1.00  0.00    -0.206 OA
HETATM   27  O   UNL     1       6.234  -5.467  24.844  1.00  0.00    -0.206 OA
ENDBRANCH  22  24
ENDBRANCH   1  22
TORSDOF 7
ENDMDL
MODEL 7
REMARK VINA RESULT:    -6.173     14.777     17.116
REMARK INTER + INTRA:         -10.117
REMARK INTER:                  -8.807
REMARK INTRA:                  -1.310
REMARK UNBOUND:                -1.418
REMARK  7 active torsions:
REMARK  status: ('A' for Active; 'I' for Inactive)
REMARK    1  A    between atoms: S_2  and  N_5 
REMARK    2  A    between atoms: N_5  and  C_7 
REMARK    3  A    between atoms: C_9  and  C_10 
REMARK    4  A    between atoms: C_10  and  C_11 
REMARK    5  A    between atoms: C_11  and  C_12 
REMARK    6  A    between atoms: C_15  and  C_16 
REMARK       I    between atoms: C_16  and  N_18 
REMARK    7  A    between atoms: N_18  and  C_20 
ROOT
HETATM    1  C   UNL     1       5.455  -5.587  26.816  1.00  0.00     0.108 C 
HETATM    2  C   UNL     1       5.815  -4.634  26.106  1.00  0.00    -0.017 A 
HETATM    3  C   UNL     1       5.568  -3.710  25.231  1.00  0.00     0.082 A 
HETATM    4  C   UNL     1       6.692  -3.345  25.258  1.00  0.00     0.031 A 
ENDROOT
BRANCH   4   5
HETATM    5  C   UNL     1       7.992  -2.902  25.170  1.00  0.00     0.253 C 
HETATM    6  O   UNL     1       8.726  -3.253  25.976  1.00  0.00    -0.268 OA
HETATM    7  N   UNL     1       8.171  -2.106  24.147  1.00  0.00    -0.321 N 
ATOM      8  HN  UNL     1       7.389  -1.908  23.523  1.00  0.00     0.169 HD
BRANCH   7   9
HETATM    9  C   UNL     1       9.319  -1.571  23.918  1.00  0.00     0.056 A 
HETATM   10  C   UNL     1      10.355  -1.934  23.196  1.00  0.00     0.117 A 
HETATM   11  N   UNL     1      11.480  -1.730  22.821  1.00  0.00    -0.373 N 
HETATM   12  C   UNL     1      11.713  -0.530  23.476  1.00  0.00     0.088 A 
ATOM     13  HN  UNL     1      12.082  -2.277  22.205  1.00  0.00     0.164 HD
HETATM   14  C   UNL     1      10.952   0.055  24.175  1.00  0.00     0.026 A 
HETATM   15  C   UNL     1       9.670  -0.219  24.555  1.00  0.00    -0.033 A 
HETATM   16  C   UNL     1       8.700   0.584  25.484  1.00  0.00     0.050 C 
ENDBRANCH   7   9
ENDBRANCH   4   5
BRANCH   3  17
HETATM   17  C   UNL     1       4.845  -3.768  23.800  1.00  0.00    -0.012 C 
BRANCH  17  18
HETATM   18  C   UNL     1       5.194  -4.191  22.884  1.00  0.00    -0.003 C 
BRANCH  18  19
HETATM   19  C   UNL     1       5.141  -5.676  22.538  1.00  0.00    -0.001 C 
HETATM   20  C   UNL     1       6.327  -6.109  22.280  1.00  0.00    -0.010 C 
HETATM   21  C   UNL     1       7.324  -5.777  22.272  1.00  0.00     0.011 C 
ENDBRANCH  18  19
ENDBRANCH  17  18
ENDBRANCH   3  17
BRANCH   1  22
HETATM   22  N   UNL     1       5.568  -6.691  27.337  1.00  0.00    -0.295 N 
ATOM     23  HN  UNL     1       5.680  -7.492  26.715  1.00  0.00     0.177 HD
BRANCH  22  24
HETATM   24  S   UNL     1       5.554  -6.980  28.911  1.00  0.00     0.226 S 
HETATM   25  C   UNL     1       5.737  -5.362  29.648  1.00  0.00     0.186 C 
HETATM   26  O   UNL     1       4.284  -7.506  29.344  1.00  0.00    -0.206 OA
HETATM   27  O   UNL     1       6.655  -7.771  29.351  1.00  0.00    -0.206 OA
ENDBRANCH  22  24
ENDBRANCH   1  22
TORSDOF 7
ENDMDL
MODEL 8
REMARK VINA RESULT:    -5.948     14.040     16.504
REMARK INTER + INTRA:          -9.800
REMARK INTER:                  -8.969
REMARK INTRA:                  -0.831
REMARK UNBOUND:                -1.418
REMARK  7 active torsions:
REMARK  status: ('A' for Active; 'I' for Inactive)
REMARK    1  A    between atoms: S_2  and  N_5 
REMARK    2  A    between atoms: N_5  and  C_7 
REMARK    3  A    between atoms: C_9  and  C_10 
REMARK    4  A    between atoms: C_10  and  C_11 
REMARK    5  A    between atoms: C_11  and  C_12 
REMARK    6  A    between atoms: C_15  and  C_16 
REMARK       I    between atoms: C_16  and  N_18 
REMARK    7  A    between atoms: N_18  and  C_20 
ROOT
HETATM    1  C   UNL     1       7.973  -4.490  23.384  1.00  0.00     0.108 C 
HETATM    2  C   UNL     1       8.219  -3.854  24.423  1.00  0.00    -0.017 A 
HETATM    3  C   UNL     1       8.299  -3.771  25.714  1.00  0.00     0.082 A 
HETATM    4  C   UNL     1       8.649  -2.643  25.647  1.00  0.00     0.031 A 
ENDROOT
BRANCH   4   5
HETATM    5  C   UNL     1       8.988  -1.310  25.668  1.00  0.00     0.253 C 
HETATM    6  O   UNL     1       8.858  -0.747  26.657  1.00  0.00    -0.268 OA
HETATM    7  N   UNL     1       9.402  -0.890  24.501  1.00  0.00    -0.321 N 
ATOM      8  HN  UNL     1       9.459  -1.547  23.722  1.00  0.00     0.169 HD
BRANCH   7   9
HETATM    9  C   UNL     1       9.740   0.339  24.320  1.00  0.00     0.056 A 
HETATM   10  C   UNL     1       9.054   1.452  24.190  1.00  0.00     0.117 A 
HETATM   11  N   UNL     1       9.032   2.639  23.992  1.00  0.00    -0.373 N 
HETATM   12  C   UNL     1      10.396   2.867  23.885  1.00  0.00     0.088 A 
ATOM     13  HN  UNL     1       8.246   3.284  23.924  1.00  0.00     0.164 HD
HETATM   14  C   UNL     1      11.260   2.058  23.986  1.00  0.00     0.026 A 
HETATM   15  C   UNL     1      11.225   0.716  24.231  1.00  0.00    -0.033 A 
HETATM   16  C   UNL     1      12.395  -0.317  24.356  1.00  0.00     0.050 C 
ENDBRANCH   7   9
ENDBRANCH   4   5
BRANCH   3  17
HETATM   17  C   UNL     1       7.254  -4.153  26.871  1.00  0.00    -0.012 C 
BRANCH  17  18
HETATM   18  C   UNL     1       6.435  -4.836  26.842  1.00  0.00    -0.003 C 
BRANCH  18  19
HETATM   19  C   UNL     1       6.228  -5.984  27.825  1.00  0.00    -0.001 C 
HETATM   20  C   UNL     1       5.216  -6.695  27.460  1.00  0.00    -0.010 C 
HETATM   21  C   UNL     1       4.516  -6.763  26.680  1.00  0.00     0.011 C 
ENDBRANCH  18  19
ENDBRANCH  17  18
ENDBRANCH   3  17
BRANCH   1  22
HETATM   22  N   UNL     1       7.514  -4.646  22.259  1.00  0.00    -0.295 N 
ATOM     23  HN  UNL     1       8.162  -4.575  21.475  1.00  0.00     0.177 HD
BRANCH  22  24
HETATM   24  S   UNL     1       5.981  -4.954  21.917  1.00  0.00     0.226 S 
HETATM   25  C   UNL     1       5.442  -6.004  23.260  1.00  0.00     0.186 C 
HETATM   26  O   UNL     1       5.176  -3.760  21.959  1.00  0.00    -0.206 OA
HETATM   27  O   UNL     1       5.807  -5.692  20.710  1.00  0.00    -0.206 OA
ENDBRANCH  22  24
ENDBRANCH   1  22
TORSDOF 7
ENDMDL
MODEL 9
REMARK VINA RESULT:    -5.910     14.528     16.878
REMARK INTER + INTRA:          -9.747
REMARK INTER:                  -8.670
REMARK INTRA:                  -1.077
REMARK UNBOUND:                -1.418
REMARK  7 active torsions:
REMARK  status: ('A' for Active; 'I' for Inactive)
REMARK    1  A    between atoms: S_2  and  N_5 
REMARK    2  A    between atoms: N_5  and  C_7 
REMARK    3  A    between atoms: C_9  and  C_10 
REMARK    4  A    between atoms: C_10  and  C_11 
REMARK    5  A    between atoms: C_11  and  C_12 
REMARK    6  A    between atoms: C_15  and  C_16 
REMARK       I    between atoms: C_16  and  N_18 
REMARK    7  A    between atoms: N_18  and  C_20 
ROOT
HETATM    1  C   UNL     1       9.936   2.196  22.116  1.00  0.00     0.108 C 
HETATM    2  C   UNL     1       9.720   0.992  21.894  1.00  0.00    -0.017 A 
HETATM    3  C   UNL     1       9.333   0.031  21.116  1.00  0.00     0.082 A 
HETATM    4  C   UNL     1       9.538  -0.771  21.961  1.00  0.00     0.031 A 
ENDROOT
BRANCH   4   5
HETATM    5  C   UNL     1       9.675  -1.763  22.905  1.00  0.00     0.253 C 
HETATM    6  O   UNL     1      10.731  -2.158  23.106  1.00  0.00    -0.268 OA
HETATM    7  N   UNL     1       8.526  -2.112  23.421  1.00  0.00    -0.321 N 
ATOM      8  HN  UNL     1       7.674  -1.638  23.119  1.00  0.00     0.169 HD
BRANCH   7   9
HETATM    9  C   UNL     1       8.453  -3.045  24.304  1.00  0.00     0.056 A 
HETATM   10  C   UNL     1       8.348  -4.353  24.229  1.00  0.00     0.117 A 
HETATM   11  N   UNL     1       8.228  -5.417  24.777  1.00  0.00    -0.373 N 
HETATM   12  C   UNL     1       8.235  -4.984  26.095  1.00  0.00     0.088 A 
ATOM     13  HN  UNL     1       8.146  -6.356  24.389  1.00  0.00     0.164 HD
HETATM   14  C   UNL     1       8.345  -3.863  26.472  1.00  0.00     0.026 A 
HETATM   15  C   UNL     1       8.496  -2.687  25.797  1.00  0.00    -0.033 A 
HETATM   16  C   UNL     1       8.637  -1.224  26.338  1.00  0.00     0.050 C 
ENDBRANCH   7   9
ENDBRANCH   4   5
BRANCH   3  17
HETATM   17  C   UNL     1       8.008  -0.151  20.230  1.00  0.00    -0.012 C 
BRANCH  17  18
HETATM   18  C   UNL     1       7.238   0.555  20.014  1.00  0.00    -0.003 C 
BRANCH  18  19
HETATM   19  C   UNL     1       6.246   0.433  18.862  1.00  0.00    -0.001 C 
HETATM   20  C   UNL     1       5.229   1.196  19.077  1.00  0.00    -0.010 C 
HETATM   21  C   UNL     1       4.884   1.906  19.770  1.00  0.00     0.011 C 
ENDBRANCH  18  19
ENDBRANCH  17  18
ENDBRANCH   3  17
BRANCH   1  22
HETATM   22  N   UNL     1       9.923   3.223  22.784  1.00  0.00    -0.295 N 
ATOM     23  HN  UNL     1      10.744   3.826  22.731  1.00  0.00     0.177 HD
BRANCH  22  24
HETATM   24  S   UNL     1       8.725   3.696  23.734  1.00  0.00     0.226 S 
HETATM   25  C   UNL     1       9.039   5.438  23.988  1.00  0.00     0.186 C 
HETATM   26  O   UNL     1       7.448   3.583  23.077  1.00  0.00    -0.206 OA
HETATM   27  O   UNL     1       8.740   3.074  25.017  1.00  0.00    -0.206 OA
ENDBRANCH  22  24
ENDBRANCH   1  22
TORSDOF 7
ENDMDL
