stable:False satoms:10 tatoms:24 sratio:0.4166666666666667
  -OEChem-07092417493D

 24 25  0     1  0  0  0  0  0999 V2000
    6.5858   -4.9005   26.4438 C   0  0  0  0  0  0  0  0  0  0  0  0
    8.2356   -4.3036   26.1010 S   0  0  0  0  0  0  0  0  0  0  0  0
    9.1001   -5.4545   26.0246 O   0  0  0  0  0  0  0  0  0  0  0  0
    8.5934   -3.4189   27.1600 O   0  0  0  0  0  0  0  0  0  0  0  0
    8.0963   -3.5746   24.6832 N   0  0  0  0  0  0  0  0  0  0  0  0
    8.9721   -2.9177   24.1333 C   0  0  0  0  0  0  0  0  0  0  0  0
    9.4256   -1.9490   23.5014 C   0  0  0  0  0  0  0  0  0  0  0  0
   10.3390   -1.0534   23.2945 C   0  0  2  0  0  0  0  0  0  0  0  0
   11.0547   -0.0163   24.2869 C   0  0  0  0  0  0  0  0  0  0  0  0
   12.0592    0.3453   24.2764 C   0  0  0  0  0  0  0  0  0  0  0  0
   13.1692   -0.2041   23.3849 C   0  0  0  0  0  0  0  0  0  0  0  0
   12.7254   -1.1981   22.6938 C   0  0  0  0  0  0  0  0  0  0  0  0
   11.8329   -1.7236   22.5169 C   0  0  0  0  0  0  0  0  0  0  0  0
    9.7305   -0.6042   22.3846 C   0  0  2  0  0  0  0  0  0  0  0  0
    9.0582    0.0289   21.3643 C   0  0  0  0  0  0  0  0  0  0  0  0
    9.5356    0.9701   20.9208 O   0  0  0  0  0  0  0  0  0  0  0  0
    7.9309   -0.5676   21.0738 N   0  0  0  0  0  0  0  0  0  0  0  0
    7.1524   -0.1037   20.1611 C   0  0  0  0  0  0  0  0  0  0  0  0
    7.2263   -0.0581   18.8498 C   0  0  0  0  0  0  0  0  0  0  0  0
    6.7607    0.2919   17.7967 N   0  0  0  0  0  0  0  0  0  0  0  0
    5.6034    0.8985   18.2608 C   0  0  0  0  0  0  0  0  0  0  0  0
    5.2543    0.9852   19.3935 C   0  0  0  0  0  0  0  0  0  0  0  0
    5.8204    0.5496   20.5564 C   0  0  0  0  0  0  0  0  0  0  0  0
    5.3220    0.6882   22.0342 C   0  0  0  0  0  0  0  0  0  0  0  0
 20 21  2  0  0  0  0
 19 20  1  0  0  0  0
 21 22  1  0  0  0  0
 18 19  2  0  0  0  0
 22 23  2  0  0  0  0
 18 23  1  0  0  0  0
 17 18  1  0  0  0  0
 23 24  1  0  0  0  0
 15 16  2  0  0  0  0
 15 17  1  0  0  0  0
 14 15  1  0  0  0  0
  8 14  1  0  0  0  0
  7 14  1  0  0  0  0
 12 13  2  0  0  0  0
 11 12  1  0  0  0  0
  7  8  1  0  0  0  0
  8  9  1  0  0  0  0
 10 11  1  0  0  0  0
  6  7  2  3  0  0  0
  5  6  1  0  0  0  0
  9 10  2  0  0  0  0
  2  5  1  0  0  0  0
  2  3  2  0  0  0  0
  1  2  1  0  0  0  0
  2  4  2  0  0  0  0
M  END
> <Shapegauss>
-285.906952

$$$$
