REMARK  7 active torsions:
REMARK  status: ('A' for Active; 'I' for Inactive)
REMARK    1  A    between atoms: S_2  and  N_5 
REMARK    2  A    between atoms: N_5  and  C_7 
REMARK    3  A    between atoms: C_9  and  C_10 
REMARK    4  A    between atoms: C_10  and  C_11 
REMARK    5  A    between atoms: C_11  and  C_12 
REMARK    6  A    between atoms: C_15  and  C_16 
REMARK       I    between atoms: C_16  and  N_18 
REMARK    7  A    between atoms: N_18  and  C_20 
ROOT
HETATM    1  C   UNL     1       8.972  -2.918  24.133  1.00  0.00     0.108 C 
HETATM    2  C   UNL     1       9.426  -1.949  23.501  1.00  0.00    -0.017 A 
HETATM    3  C   UNL     1      10.339  -1.053  23.294  1.00  0.00     0.082 A 
HETATM    4  C   UNL     1       9.730  -0.604  22.385  1.00  0.00     0.031 A 
ENDROOT
BRANCH   4   5
HETATM    5  C   UNL     1       9.058   0.029  21.364  1.00  0.00     0.253 C 
HETATM    6  O   UNL     1       9.536   0.970  20.921  1.00  0.00    -0.268 OA
HETATM    7  N   UNL     1       7.931  -0.568  21.074  1.00  0.00    -0.321 N 
ATOM      8  HN  UNL     1       7.666  -1.414  21.579  1.00  0.00     0.169 HD
BRANCH   7   9
HETATM    9  C   UNL     1       7.152  -0.104  20.161  1.00  0.00     0.056 A 
HETATM   10  C   UNL     1       7.226  -0.058  18.850  1.00  0.00     0.117 A 
HETATM   11  N   UNL     1       6.761   0.292  17.797  1.00  0.00    -0.373 N 
HETATM   12  C   UNL     1       5.603   0.898  18.261  1.00  0.00     0.088 A 
ATOM     13  HN  UNL     1       7.113   0.177  16.847  1.00  0.00     0.164 HD
HETATM   14  C   UNL     1       5.254   0.985  19.393  1.00  0.00     0.026 A 
HETATM   15  C   UNL     1       5.820   0.550  20.556  1.00  0.00    -0.033 A 
HETATM   16  C   UNL     1       5.322   0.688  22.034  1.00  0.00     0.050 C 
ENDBRANCH   7   9
ENDBRANCH   4   5
BRANCH   3  17
HETATM   17  C   UNL     1      11.055  -0.016  24.287  1.00  0.00    -0.012 C 
BRANCH  17  18
HETATM   18  C   UNL     1      12.059   0.345  24.276  1.00  0.00    -0.003 C 
BRANCH  18  19
HETATM   19  C   UNL     1      13.169  -0.204  23.385  1.00  0.00    -0.001 C 
HETATM   20  C   UNL     1      12.725  -1.198  22.694  1.00  0.00    -0.010 C 
HETATM   21  C   UNL     1      11.833  -1.724  22.517  1.00  0.00     0.011 C 
ENDBRANCH  18  19
ENDBRANCH  17  18
ENDBRANCH   3  17
BRANCH   1  22
HETATM   22  N   UNL     1       8.096  -3.575  24.683  1.00  0.00    -0.295 N 
ATOM     23  HN  UNL     1       7.204  -3.665  24.197  1.00  0.00     0.177 HD
BRANCH  22  24
HETATM   24  S   UNL     1       8.236  -4.304  26.101  1.00  0.00     0.226 S 
HETATM   25  C   UNL     1       6.586  -4.901  26.444  1.00  0.00     0.186 C 
HETATM   26  O   UNL     1       9.100  -5.455  26.025  1.00  0.00    -0.206 OA
HETATM   27  O   UNL     1       8.593  -3.419  27.160  1.00  0.00    -0.206 OA
ENDBRANCH  22  24
ENDBRANCH   1  22
TORSDOF 7
