REMARK  4 active torsions:
REMARK  status: ('A' for Active; 'I' for Inactive)
REMARK    1  A    between atoms: C_4  and  C_10 
REMARK    2  A    between atoms: C_5  and  N_13 
REMARK    3  A    between atoms: C_5  and  C_7 
REMARK    4  A    between atoms: C_6  and  N_8 
ROOT
HETATM    1  C   UNL     1       9.853   0.248  23.110  1.00  0.00     0.088 C 
HETATM    2  C   UNL     1      10.500  -0.699  22.380  1.00  0.00     0.051 C 
ENDROOT
BRANCH   1   3
HETATM    3  N   UNL     1       9.958   1.456  22.548  1.00  0.00    -0.372 N 
HETATM    4  C   UNL     1      10.219   2.326  23.399  1.00  0.00     0.118 C 
ATOM      5  HN  UNL     1       9.840   1.641  21.552  1.00  0.00     0.164 HD
ENDBRANCH   1   3
BRANCH   1   6
HETATM    6  C   UNL     1       9.018   0.107  24.408  1.00  0.00     0.217 A 
HETATM    7  O   UNL     1       8.915   0.942  25.233  1.00  0.00    -0.213 OA
HETATM    8  N   UNL     1       8.307  -0.652  24.987  1.00  0.00    -0.233 N 
ATOM      9  HN  UNL     1       7.786  -1.509  25.175  1.00  0.00     0.197 HD
ENDBRANCH   1   6
BRANCH   2  10
HETATM   10  C   UNL     1       9.872  -1.833  21.913  1.00  0.00     0.087 C 
HETATM   11  N   UNL     1       8.610  -2.076  22.156  1.00  0.00    -0.394 N 
HETATM   12  C   UNL     1       7.553  -1.125  22.342  1.00  0.00     0.148 C 
BRANCH  11  13
HETATM   13  C   UNL     1       8.254  -3.453  22.025  1.00  0.00     0.117 C 
HETATM   14  C   UNL     1       6.993  -3.535  21.145  1.00  0.00     0.026 C 
ENDBRANCH  11  13
ENDBRANCH   2  10
TORSDOF 4
