stable:False satoms:17 tatoms:24 sratio:0.7083333333333334
  -OEChem-07092417303D

 24 24  0     1  0  0  0  0  0999 V2000
    8.0136   -3.9119   23.0093 H   0  0  0  0  0  0  0  0  0  0  0  0
    6.1311   -3.3497   21.7983 H   0  0  0  0  0  0  0  0  0  0  0  0
    6.9555   -4.5680   20.8218 H   0  0  0  0  0  0  0  0  0  0  0  0
    8.9155    0.9422   25.2330 O   0  0  0  0  0  0  0  0  0  0  0  0
    8.3068   -0.6518   24.9867 N   0  0  0  0  0  0  0  0  0  0  0  0
    9.0601   -4.0504   21.5919 H   0  0  0  0  0  0  0  0  0  0  0  0
    9.8722   -1.8333   21.9127 C   0  0  0  0  0  0  0  0  0  0  0  0
    9.8533    0.2483   23.1096 C   0  0  3  0  0  0  0  0  0  0  0  0
    6.8613   -1.1827   21.5211 H   0  0  0  0  0  0  0  0  0  0  0  0
    8.2542   -3.4531   22.0246 C   0  0  0  0  0  0  0  0  0  0  0  0
   11.2638    2.6730   23.6109 H   0  0  0  0  0  0  0  0  0  0  0  0
   11.5425   -0.5209   22.1191 H   0  0  0  0  0  0  0  0  0  0  0  0
    9.0185    0.1066   24.4079 C   0  0  3  0  0  0  0  0  0  0  0  0
    8.6095   -2.0760   22.1560 N   0  0  3  0  0  0  0  0  0  0  0  0
    9.4187    2.7542   23.9758 H   0  0  0  0  0  0  0  0  0  0  0  0
    7.8948   -0.0933   22.3450 H   0  0  0  0  0  0  0  0  0  0  0  0
    7.5533   -1.1249   22.3421 C   0  0  0  0  0  0  0  0  0  0  0  0
   10.4998   -0.6993   22.3797 C   0  0  0  0  0  0  0  0  0  0  0  0
   10.4306   -2.5335   21.3009 H   0  0  0  0  0  0  0  0  0  0  0  0
    6.9933   -3.5353   21.1454 C   0  0  0  0  0  0  0  0  0  0  0  0
    6.9423   -2.8507   20.2964 H   0  0  0  0  0  0  0  0  0  0  0  0
   10.2188    2.3256   23.3990 C   0  3  0  0  0  0  0  0  0  0  0  0
    9.9584    1.4558   22.5478 N   0  3  0  0  0  0  0  0  0  0  0  0
    7.0164   -1.3611   23.2617 H   0  0  0  0  0  0  0  0  0  0  0  0
 20 21  1  0  0  0  0
  3 20  1  0  0  0  0
  2 20  1  0  0  0  0
 10 20  1  0  0  0  0
  7 19  1  0  0  0  0
  9 17  1  0  0  0  0
  6 10  1  0  0  0  0
  7 14  1  0  0  0  0
  7 18  2  0  0  0  0
 10 14  1  0  0  0  0
  1 10  1  0  0  0  0
 12 18  1  0  0  0  0
 14 17  1  0  0  0  0
 16 17  1  0  0  0  0
 17 24  1  0  0  0  0
  8 18  1  0  0  0  0
  8 23  1  0  0  0  0
 22 23  1  0  0  0  0
  8 13  1  0  0  0  0
 11 22  1  0  0  0  0
 15 22  1  0  0  0  0
  5 13  1  0  0  0  0
  4 13  1  0  0  0  0
  4  5  1  0  0  0  0
M  CHG  2  22   1  23   1
M  END
> <Shapegauss>
-102.209358

$$$$
