MODEL 1
REMARK VINA RESULT:    -4.801      0.000      0.000
REMARK INTER + INTRA:          -6.274
REMARK INTER:                  -5.924
REMARK INTRA:                  -0.350
REMARK UNBOUND:                -0.350
REMARK  4 active torsions:
REMARK  status: ('A' for Active; 'I' for Inactive)
REMARK    1  A    between atoms: C_4  and  C_10 
REMARK    2  A    between atoms: C_5  and  N_13 
REMARK    3  A    between atoms: C_5  and  C_7 
REMARK    4  A    between atoms: C_6  and  N_8 
ROOT
HETATM    1  C   UNL     1       9.559  14.343   3.299  1.00  0.00     0.088 C 
HETATM    2  C   UNL     1       8.713  15.039   2.495  1.00  0.00     0.051 C 
ENDROOT
BRANCH   1   3
HETATM    3  N   UNL     1       9.318  13.029   3.243  1.00  0.00    -0.372 N 
HETATM    4  C   UNL     1       8.114  12.785   3.444  1.00  0.00     0.118 C 
ATOM      5  HN  UNL     1      10.027  12.320   3.060  1.00  0.00     0.164 HD
ENDBRANCH   1   3
BRANCH   1   6
HETATM    6  C   UNL     1      10.729  14.842   4.184  1.00  0.00     0.217 A 
HETATM    7  O   UNL     1      11.109  14.303   5.161  1.00  0.00    -0.213 OA
HETATM    8  N   UNL     1      11.542  15.708   4.262  1.00  0.00    -0.233 N 
ATOM      9  HN  UNL     1      12.054  16.555   4.012  1.00  0.00     0.197 HD
ENDBRANCH   1   6
BRANCH   2  10
HETATM   10  C   UNL     1       9.161  15.893   1.510  1.00  0.00     0.087 C 
HETATM   11  N   UNL     1       9.049  17.192   1.615  1.00  0.00    -0.394 N 
HETATM   12  C   UNL     1       9.062  17.979   2.813  1.00  0.00     0.148 C 
BRANCH  11  13
HETATM   13  C   UNL     1       9.113  17.878   0.364  1.00  0.00     0.117 C 
HETATM   14  C   UNL     1       9.545  19.329   0.641  1.00  0.00     0.026 C 
ENDBRANCH  11  13
ENDBRANCH   2  10
TORSDOF 4
ENDMDL
MODEL 2
REMARK VINA RESULT:    -4.358     22.460     23.601
REMARK INTER + INTRA:          -5.728
REMARK INTER:                  -5.370
REMARK INTRA:                  -0.358
REMARK UNBOUND:                -0.350
REMARK  4 active torsions:
REMARK  status: ('A' for Active; 'I' for Inactive)
REMARK    1  A    between atoms: C_4  and  C_10 
REMARK    2  A    between atoms: C_5  and  N_13 
REMARK    3  A    between atoms: C_5  and  C_7 
REMARK    4  A    between atoms: C_6  and  N_8 
ROOT
HETATM    1  C   UNL     1       5.228   1.286  19.535  1.00  0.00     0.088 C 
HETATM    2  C   UNL     1       5.707   1.697  20.739  1.00  0.00     0.051 C 
ENDROOT
BRANCH   1   3
HETATM    3  N   UNL     1       4.444   2.214  18.977  1.00  0.00    -0.372 N 
HETATM    4  C   UNL     1       3.403   2.380  19.639  1.00  0.00     0.118 C 
ATOM      5  HN  UNL     1       4.670   2.721  18.121  1.00  0.00     0.164 HD
ENDBRANCH   1   3
BRANCH   1   6
HETATM    6  C   UNL     1       5.497  -0.023  18.750  1.00  0.00     0.217 A 
HETATM    7  O   UNL     1       5.602  -1.089  19.240  1.00  0.00    -0.213 OA
HETATM    8  N   UNL     1       5.655  -0.437  17.645  1.00  0.00    -0.233 N 
ATOM      9  HN  UNL     1       5.744  -0.421  16.629  1.00  0.00     0.197 HD
ENDBRANCH   1   6
BRANCH   2  10
HETATM   10  C   UNL     1       7.054   1.743  21.025  1.00  0.00     0.087 C 
HETATM   11  N   UNL     1       7.597   0.969  21.930  1.00  0.00    -0.394 N 
HETATM   12  C   UNL     1       7.186  -0.349  22.318  1.00  0.00     0.148 C 
BRANCH  11  13
HETATM   13  C   UNL     1       8.845   1.453  22.426  1.00  0.00     0.117 C 
HETATM   14  C   UNL     1       9.971   0.704  21.688  1.00  0.00     0.026 C 
ENDBRANCH  11  13
ENDBRANCH   2  10
TORSDOF 4
ENDMDL
MODEL 3
REMARK VINA RESULT:    -4.301     22.980     25.644
REMARK INTER + INTRA:          -5.656
REMARK INTER:                  -5.380
REMARK INTRA:                  -0.276
REMARK UNBOUND:                -0.350
REMARK  4 active torsions:
REMARK  status: ('A' for Active; 'I' for Inactive)
REMARK    1  A    between atoms: C_4  and  C_10 
REMARK    2  A    between atoms: C_5  and  N_13 
REMARK    3  A    between atoms: C_5  and  C_7 
REMARK    4  A    between atoms: C_6  and  N_8 
ROOT
HETATM    1  C   UNL     1       6.896  -0.516  20.056  1.00  0.00     0.088 C 
HETATM    2  C   UNL     1       6.660  -1.050  21.283  1.00  0.00     0.051 C 
ENDROOT
BRANCH   1   3
HETATM    3  N   UNL     1       8.191  -0.230  19.887  1.00  0.00    -0.372 N 
HETATM    4  C   UNL     1       8.714   0.131  20.956  1.00  0.00     0.118 C 
ATOM      5  HN  UNL     1       8.685  -0.299  18.997  1.00  0.00     0.164 HD
ENDBRANCH   1   3
BRANCH   1   6
HETATM    6  C   UNL     1       5.922  -0.255  18.879  1.00  0.00     0.217 A 
HETATM    7  O   UNL     1       5.012   0.494  18.915  1.00  0.00    -0.213 OA
HETATM    8  N   UNL     1       5.710  -0.569  17.751  1.00  0.00    -0.233 N 
ATOM      9  HN  UNL     1       5.835  -1.052  16.861  1.00  0.00     0.197 HD
ENDBRANCH   1   6
BRANCH   2  10
HETATM   10  C   UNL     1       6.046  -2.271  21.455  1.00  0.00     0.087 C 
HETATM   11  N   UNL     1       6.690  -3.312  21.916  1.00  0.00    -0.394 N 
HETATM   12  C   UNL     1       7.792  -3.327  22.833  1.00  0.00     0.148 C 
BRANCH  11  13
HETATM   13  C   UNL     1       6.074  -4.560  21.592  1.00  0.00     0.117 C 
HETATM   14  C   UNL     1       7.067  -5.684  21.939  1.00  0.00     0.026 C 
ENDBRANCH  11  13
ENDBRANCH   2  10
TORSDOF 4
ENDMDL
MODEL 4
REMARK VINA RESULT:    -4.233     24.226     26.891
REMARK INTER + INTRA:          -5.573
REMARK INTER:                  -5.308
REMARK INTRA:                  -0.265
REMARK UNBOUND:                -0.350
REMARK  4 active torsions:
REMARK  status: ('A' for Active; 'I' for Inactive)
REMARK    1  A    between atoms: C_4  and  C_10 
REMARK    2  A    between atoms: C_5  and  N_13 
REMARK    3  A    between atoms: C_5  and  C_7 
REMARK    4  A    between atoms: C_6  and  N_8 
ROOT
HETATM    1  C   UNL     1       9.385  -1.261  21.946  1.00  0.00     0.088 C 
HETATM    2  C   UNL     1       8.746  -2.000  22.891  1.00  0.00     0.051 C 
ENDROOT
BRANCH   1   3
HETATM    3  N   UNL     1      10.671  -1.609  21.840  1.00  0.00    -0.372 N 
HETATM    4  C   UNL     1      11.242  -1.561  22.945  1.00  0.00     0.118 C 
ATOM      5  HN  UNL     1      11.125  -1.878  20.967  1.00  0.00     0.164 HD
ENDBRANCH   1   3
BRANCH   1   6
HETATM    6  C   UNL     1       8.835  -0.165  20.998  1.00  0.00     0.217 A 
HETATM    7  O   UNL     1       9.154   0.968  21.027  1.00  0.00    -0.213 OA
HETATM    8  N   UNL     1       8.089  -0.005  20.084  1.00  0.00    -0.233 N 
ATOM      9  HN  UNL     1       7.407  -0.242  19.363  1.00  0.00     0.197 HD
ENDBRANCH   1   6
BRANCH   2  10
HETATM   10  C   UNL     1       7.612  -2.734  22.618  1.00  0.00     0.087 C 
HETATM   11  N   UNL     1       7.494  -3.986  22.978  1.00  0.00    -0.394 N 
HETATM   12  C   UNL     1       8.080  -4.631  24.117  1.00  0.00     0.148 C 
BRANCH  11  13
HETATM   13  C   UNL     1       6.513  -4.709  22.232  1.00  0.00     0.117 C 
HETATM   14  C   UNL     1       7.093  -6.098  21.907  1.00  0.00     0.026 C 
ENDBRANCH  11  13
ENDBRANCH   2  10
TORSDOF 4
ENDMDL
MODEL 5
REMARK VINA RESULT:    -4.053     28.554     30.175
REMARK INTER + INTRA:          -5.350
REMARK INTER:                  -4.934
REMARK INTRA:                  -0.416
REMARK UNBOUND:                -0.350
REMARK  4 active torsions:
REMARK  status: ('A' for Active; 'I' for Inactive)
REMARK    1  A    between atoms: C_4  and  C_10 
REMARK    2  A    between atoms: C_5  and  N_13 
REMARK    3  A    between atoms: C_5  and  C_7 
REMARK    4  A    between atoms: C_6  and  N_8 
ROOT
HETATM    1  C   UNL     1       8.158  -4.322  24.844  1.00  0.00     0.088 C 
HETATM    2  C   UNL     1       7.718  -4.832  23.664  1.00  0.00     0.051 C 
ENDROOT
BRANCH   1   3
HETATM    3  N   UNL     1       8.463  -3.025  24.734  1.00  0.00    -0.372 N 
HETATM    4  C   UNL     1       9.013  -2.785  23.644  1.00  0.00     0.118 C 
ATOM      5  HN  UNL     1       8.270  -2.325  25.450  1.00  0.00     0.164 HD
ENDBRANCH   1   3
BRANCH   1   6
HETATM    6  C   UNL     1       8.297  -4.999  26.232  1.00  0.00     0.217 A 
HETATM    7  O   UNL     1       9.018  -4.630  27.088  1.00  0.00    -0.213 OA
HETATM    8  N   UNL     1       7.871  -5.900  26.882  1.00  0.00    -0.233 N 
ATOM      9  HN  UNL     1       7.309  -6.720  27.115  1.00  0.00     0.197 HD
ENDBRANCH   1   6
BRANCH   2  10
HETATM   10  C   UNL     1       6.499  -5.461  23.535  1.00  0.00     0.087 C 
HETATM   11  N   UNL     1       5.394  -4.794  23.322  1.00  0.00    -0.394 N 
HETATM   12  C   UNL     1       5.240  -3.554  22.619  1.00  0.00     0.148 C 
BRANCH  11  13
HETATM   13  C   UNL     1       4.212  -5.511  23.680  1.00  0.00     0.117 C 
HETATM   14  C   UNL     1       4.634  -6.737  24.510  1.00  0.00     0.026 C 
ENDBRANCH  11  13
ENDBRANCH   2  10
TORSDOF 4
ENDMDL
MODEL 6
REMARK VINA RESULT:    -4.033     27.047     29.106
REMARK INTER + INTRA:          -5.326
REMARK INTER:                  -4.977
REMARK INTRA:                  -0.349
REMARK UNBOUND:                -0.350
REMARK  4 active torsions:
REMARK  status: ('A' for Active; 'I' for Inactive)
REMARK    1  A    between atoms: C_4  and  C_10 
REMARK    2  A    between atoms: C_5  and  N_13 
REMARK    3  A    between atoms: C_5  and  C_7 
REMARK    4  A    between atoms: C_6  and  N_8 
ROOT
HETATM    1  C   UNL     1       7.995  -4.567  24.585  1.00  0.00     0.088 C 
HETATM    2  C   UNL     1       7.786  -3.285  24.183  1.00  0.00     0.051 C 
ENDROOT
BRANCH   1   3
HETATM    3  N   UNL     1       8.056  -5.403  23.544  1.00  0.00    -0.372 N 
HETATM    4  C   UNL     1       7.132  -5.185  22.738  1.00  0.00     0.118 C 
ATOM      5  HN  UNL     1       8.766  -6.125  23.424  1.00  0.00     0.164 HD
ENDBRANCH   1   3
BRANCH   1   6
HETATM    6  C   UNL     1       8.207  -5.143  26.008  1.00  0.00     0.217 A 
HETATM    7  O   UNL     1       7.434  -5.825  26.578  1.00  0.00    -0.213 OA
HETATM    8  N   UNL     1       8.997  -5.174  26.898  1.00  0.00    -0.233 N 
ATOM      9  HN  UNL     1       9.859  -4.981  27.409  1.00  0.00     0.197 HD
ENDBRANCH   1   6
BRANCH   2  10
HETATM   10  C   UNL     1       8.629  -2.253  24.530  1.00  0.00     0.087 C 
HETATM   11  N   UNL     1       9.505  -1.761  23.691  1.00  0.00    -0.394 N 
HETATM   12  C   UNL     1       9.406  -1.686  22.263  1.00  0.00     0.148 C 
BRANCH  11  13
HETATM   13  C   UNL     1      10.578  -1.062  24.324  1.00  0.00     0.117 C 
HETATM   14  C   UNL     1       9.969   0.042  25.208  1.00  0.00     0.026 C 
ENDBRANCH  11  13
ENDBRANCH   2  10
TORSDOF 4
ENDMDL
MODEL 7
REMARK VINA RESULT:    -4.026     34.804     36.742
REMARK INTER + INTRA:          -5.318
REMARK INTER:                  -5.073
REMARK INTRA:                  -0.244
REMARK UNBOUND:                -0.350
REMARK  4 active torsions:
REMARK  status: ('A' for Active; 'I' for Inactive)
REMARK    1  A    between atoms: C_4  and  C_10 
REMARK    2  A    between atoms: C_5  and  N_13 
REMARK    3  A    between atoms: C_5  and  C_7 
REMARK    4  A    between atoms: C_6  and  N_8 
ROOT
HETATM    1  C   UNL     1       1.222 -17.846   8.686  1.00  0.00     0.088 C 
HETATM    2  C   UNL     1       2.194 -18.796   8.652  1.00  0.00     0.051 C 
ENDROOT
BRANCH   1   3
HETATM    3  N   UNL     1       0.823 -17.509   7.456  1.00  0.00    -0.372 N 
HETATM    4  C   UNL     1      -0.273 -18.030   7.181  1.00  0.00     0.118 C 
ATOM      5  HN  UNL     1       1.349 -16.904   6.825  1.00  0.00     0.164 HD
ENDBRANCH   1   3
BRANCH   1   6
HETATM    6  C   UNL     1       0.525 -17.177   9.898  1.00  0.00     0.217 A 
HETATM    7  O   UNL     1      -0.271 -17.705  10.588  1.00  0.00    -0.213 OA
HETATM    8  N   UNL     1       0.487 -16.159  10.513  1.00  0.00    -0.233 N 
ATOM      9  HN  UNL     1       0.712 -15.198  10.773  1.00  0.00     0.197 HD
ENDBRANCH   1   6
BRANCH   2  10
HETATM   10  C   UNL     1       2.079 -19.999   9.314  1.00  0.00     0.087 C 
HETATM   11  N   UNL     1       2.422 -21.131   8.757  1.00  0.00    -0.394 N 
HETATM   12  C   UNL     1       3.443 -21.353   7.774  1.00  0.00     0.148 C 
BRANCH  11  13
HETATM   13  C   UNL     1       1.818 -22.276   9.361  1.00  0.00     0.117 C 
HETATM   14  C   UNL     1       2.817 -23.444   9.269  1.00  0.00     0.026 C 
ENDBRANCH  11  13
ENDBRANCH   2  10
TORSDOF 4
ENDMDL
MODEL 8
REMARK VINA RESULT:    -3.961     22.906     23.966
REMARK INTER + INTRA:          -5.237
REMARK INTER:                  -5.129
REMARK INTRA:                  -0.108
REMARK UNBOUND:                -0.350
REMARK  4 active torsions:
REMARK  status: ('A' for Active; 'I' for Inactive)
REMARK    1  A    between atoms: C_4  and  C_10 
REMARK    2  A    between atoms: C_5  and  N_13 
REMARK    3  A    between atoms: C_5  and  C_7 
REMARK    4  A    between atoms: C_6  and  N_8 
ROOT
HETATM    1  C   UNL     1       6.403  -0.511  20.192  1.00  0.00     0.088 C 
HETATM    2  C   UNL     1       7.465   0.078  20.803  1.00  0.00     0.051 C 
ENDROOT
BRANCH   1   3
HETATM    3  N   UNL     1       5.943  -1.546  20.902  1.00  0.00    -0.372 N 
HETATM    4  C   UNL     1       6.743  -1.867  21.799  1.00  0.00     0.118 C 
ATOM      5  HN  UNL     1       5.051  -2.011  20.730  1.00  0.00     0.164 HD
ENDBRANCH   1   3
BRANCH   1   6
HETATM    6  C   UNL     1       5.672  -0.131  18.880  1.00  0.00     0.217 A 
HETATM    7  O   UNL     1       4.863   0.721  18.786  1.00  0.00    -0.213 OA
HETATM    8  N   UNL     1       5.611  -0.412  17.725  1.00  0.00    -0.233 N 
ATOM      9  HN  UNL     1       5.822  -0.903  16.856  1.00  0.00     0.197 HD
ENDBRANCH   1   6
BRANCH   2  10
HETATM   10  C   UNL     1       7.488   1.419  21.119  1.00  0.00     0.087 C 
HETATM   11  N   UNL     1       8.374   1.922  21.940  1.00  0.00    -0.394 N 
HETATM   12  C   UNL     1       9.717   1.471  22.166  1.00  0.00     0.148 C 
BRANCH  11  13
HETATM   13  C   UNL     1       7.983   3.171  22.513  1.00  0.00     0.117 C 
HETATM   14  C   UNL     1       9.017   3.541  23.593  1.00  0.00     0.026 C 
ENDBRANCH  11  13
ENDBRANCH   2  10
TORSDOF 4
ENDMDL
MODEL 9
REMARK VINA RESULT:    -3.943     27.346     29.990
REMARK INTER + INTRA:          -5.216
REMARK INTER:                  -4.937
REMARK INTRA:                  -0.279
REMARK UNBOUND:                -0.350
REMARK  4 active torsions:
REMARK  status: ('A' for Active; 'I' for Inactive)
REMARK    1  A    between atoms: C_4  and  C_10 
REMARK    2  A    between atoms: C_5  and  N_13 
REMARK    3  A    between atoms: C_5  and  C_7 
REMARK    4  A    between atoms: C_6  and  N_8 
ROOT
HETATM    1  C   UNL     1       7.225  -4.530  22.785  1.00  0.00     0.088 C 
HETATM    2  C   UNL     1       7.443  -5.083  24.007  1.00  0.00     0.051 C 
ENDROOT
BRANCH   1   3
HETATM    3  N   UNL     1       7.548  -5.374  21.800  1.00  0.00    -0.372 N 
HETATM    4  C   UNL     1       6.536  -5.934  21.340  1.00  0.00     0.118 C 
ATOM      5  HN  UNL     1       8.498  -5.539  21.469  1.00  0.00     0.164 HD
ENDBRANCH   1   3
BRANCH   1   6
HETATM    6  C   UNL     1       6.641  -3.144  22.408  1.00  0.00     0.217 A 
HETATM    7  O   UNL     1       7.285  -2.181  22.195  1.00  0.00    -0.213 OA
HETATM    8  N   UNL     1       5.610  -2.586  22.205  1.00  0.00    -0.233 N 
ATOM      9  HN  UNL     1       4.602  -2.458  22.114  1.00  0.00     0.197 HD
ENDBRANCH   1   6
BRANCH   2  10
HETATM   10  C   UNL     1       6.454  -5.184  24.962  1.00  0.00     0.087 C 
HETATM   11  N   UNL     1       6.717  -5.520  26.198  1.00  0.00    -0.394 N 
HETATM   12  C   UNL     1       7.917  -5.264  26.941  1.00  0.00     0.148 C 
BRANCH  11  13
HETATM   13  C   UNL     1       5.587  -6.028  26.909  1.00  0.00     0.117 C 
HETATM   14  C   UNL     1       4.693  -6.777  25.904  1.00  0.00     0.026 C 
ENDBRANCH  11  13
ENDBRANCH   2  10
TORSDOF 4
ENDMDL
