stable:False satoms:10 tatoms:24 sratio:0.4166666666666667
  -OEChem-07092417423D

 24 25  0     1  0  0  0  0  0999 V2000
    6.4076   -4.9142   26.4466 Cl  0  0  0  0  0  0  0  0  0  0  0  0
    8.1332   -4.3247   26.2008 S   0  0  0  0  0  0  0  0  0  0  0  0
    8.9934   -5.4317   26.0215 O   0  0  0  0  0  0  0  0  0  0  0  0
    8.4741   -3.4306   27.2226 O   0  0  0  0  0  0  0  0  0  0  0  0
    8.0173   -3.5468   24.7710 O   0  0  0  0  0  0  0  0  0  0  0  0
    8.9201   -2.8822   24.2450 C   0  0  0  0  0  0  0  0  0  0  0  0
    9.4815   -2.0972   23.7670 C   0  0  0  0  0  0  0  0  0  0  0  0
   10.1659   -0.9576   23.4222 C   0  0  2  0  0  0  0  0  0  0  0  0
   10.9304   -0.2743   24.3437 N   0  0  0  0  0  0  0  0  0  0  0  0
   11.9252   -0.2294   23.9165 C   0  0  0  0  0  0  0  0  0  0  0  0
   13.7190   -0.2818   23.0345 H   0  0  0  0  0  0  0  0  0  0  0  0
   12.7839   -0.6836   23.0567 C   0  0  0  0  0  0  0  0  0  0  0  0
   12.3561   -1.4609   22.4986 H   0  0  0  0  0  0  0  0  0  0  0  0
    9.7933   -0.4384   22.3328 C   0  0  0  0  0  0  0  0  0  0  0  0
    9.0176    0.1684   21.3647 C   0  0  0  0  0  0  0  0  0  0  0  0
    9.4134    1.1852   20.8614 O   0  0  0  0  0  0  0  0  0  0  0  0
    7.8872   -0.5065   21.1752 N   0  0  0  0  0  0  0  0  0  0  0  0
    7.1741   -0.0394   20.2191 C   0  0  0  0  0  0  0  0  0  0  0  0
    7.2006    0.0142   18.8969 C   0  0  0  0  0  0  0  0  0  0  0  0
    6.6899    0.2573   17.7837 N   0  0  0  0  0  0  0  0  0  0  0  0
    5.6723    0.7315   18.2627 C   0  0  0  0  0  0  0  0  0  0  0  0
    5.2489    0.8283   19.4107 C   0  0  0  0  0  0  0  0  0  0  0  0
    5.7775    0.4897   20.5253 C   0  0  0  0  0  0  0  0  0  0  0  0
    5.4015    0.5347   21.5177 H   0  0  0  0  0  0  0  0  0  0  0  0
 20 21  2  0  0  0  0
 19 20  1  0  0  0  0
 19 21  1  0  0  0  0
 21 22  1  0  0  0  0
 18 19  2  0  0  0  0
 22 23  2  0  0  0  0
 18 23  1  0  0  0  0
 17 18  1  0  0  0  0
 23 24  1  0  0  0  0
 15 16  2  0  0  0  0
 15 17  1  0  0  0  0
 14 15  1  0  0  0  0
  8 14  1  0  0  0  0
 12 13  1  0  0  0  0
 11 12  1  0  0  0  0
 10 12  2  0  0  0  0
  7  8  1  0  0  0  0
  8  9  1  0  0  0  0
  6  7  3  0  0  0  0
  9 10  1  0  0  0  0
  5  6  1  0  0  0  0
  2  5  1  0  0  0  0
  2  3  2  0  0  0  0
  1  2  1  0  0  0  0
  2  4  2  0  0  0  0
M  END
> <Shapegauss>
-256.672424

$$$$
