stable:False satoms:10 tatoms:24 sratio:0.4166666666666667
  -OEChem-08062412223D

 32 33  0     1  0  0  0  0  0999 V2000
   -6.1250   -5.2076  -26.2099 Cl  0  0  0  0  0  0  0  0  0  0  0  0
   -7.8863   -4.8187  -25.8461 S   0  0  0  0  0  0  0  0  0  0  0  0
   -8.5652   -5.9981  -25.4645 O   0  0  0  0  0  0  0  0  0  0  0  0
   -8.4385   -4.0999  -26.9129 O   0  0  0  0  0  0  0  0  0  0  0  0
   -7.7505   -3.8718  -24.5240 O   0  0  0  0  0  0  0  0  0  0  0  0
   -8.6853   -3.2714  -23.9772 C   0  0  0  0  0  0  0  0  0  0  0  0
   -9.3045   -2.5144  -23.5261 C   0  0  0  0  0  0  0  0  0  0  0  0
  -10.1061   -1.4392  -23.2304 C   0  0  2  0  0  0  0  0  0  0  0  0
  -11.0379   -0.9706  -24.1318 N   0  3  0  0  0  0  0  0  0  0  0  0
  -11.9866   -1.0038  -23.6094 C   0  0  0  0  0  0  0  0  0  0  0  0
  -13.6688   -1.1821  -22.5432 H   0  0  0  0  0  0  0  0  0  0  0  0
  -12.6930   -1.4611  -22.6220 C   0  0  0  0  0  0  0  0  0  0  0  0
  -12.1130   -2.1074  -22.0350 H   0  0  0  0  0  0  0  0  0  0  0  0
   -9.7120   -0.7539  -22.2453 C   0  0  0  0  0  0  0  0  0  0  0  0
   -8.9435    0.0550  -21.4316 C   0  0  0  0  0  0  0  0  0  0  0  0
   -9.4292    1.0644  -20.9968 O   0  0  0  0  0  0  0  0  0  0  0  0
   -7.7181   -0.4435  -21.2935 N   0  0  0  0  0  0  0  0  0  0  0  0
   -6.9931    0.2185  -20.4708 C   0  0  0  0  0  0  0  0  0  0  0  0
   -6.9072    0.4212  -19.1656 C   0  0  0  0  0  0  0  0  0  0  0  0
   -6.3366    0.8549  -18.1432 N   0  0  0  0  0  0  0  0  0  0  0  0
   -5.4420    1.3963  -18.7726 C   0  0  0  0  0  0  0  0  0  0  0  0
   -5.1415    1.4126  -19.9626 C   0  0  0  0  0  0  0  0  0  0  0  0
   -5.7167    0.8824  -20.9747 C   0  0  0  0  0  0  0  0  0  0  0  0
   -5.4417    0.8596  -22.0005 H   0  0  0  0  0  0  0  0  0  0  0  0
  -10.8329   -2.0284  -22.6519 H   0  0  0  0  0  0  0  0  0  0  0  0
  -10.8209   -0.0330  -24.4036 H   0  0  0  0  0  0  0  0  0  0  0  0
  -12.6494   -0.3594  -24.1679 H   0  0  0  0  0  0  0  0  0  0  0  0
   -9.8096   -1.5683  -21.5123 H   0  0  0  0  0  0  0  0  0  0  0  0
  -10.6064   -0.1149  -22.2047 H   0  0  0  0  0  0  0  0  0  0  0  0
   -7.3953   -1.2537  -21.7828 H   0  0  0  0  0  0  0  0  0  0  0  0
   -4.2432    1.9660  -20.1932 H   0  0  0  0  0  0  0  0  0  0  0  0
  -11.0646   -1.5550  -24.9429 H   0  0  0  0  0  0  0  0  0  0  0  0
 20 21  2  0  0  0  0
 19 20  1  0  0  0  0
 19 21  1  0  0  0  0
 21 22  1  0  0  0  0
 18 19  2  0  0  0  0
 22 23  2  0  0  0  0
 18 23  1  0  0  0  0
 17 18  1  0  0  0  0
 23 24  1  0  0  0  0
 15 16  2  0  0  0  0
 15 17  1  0  0  0  0
 14 15  1  0  0  0  0
  8 14  1  0  0  0  0
 12 13  1  0  0  0  0
 11 12  1  0  0  0  0
 10 12  2  0  0  0  0
  7  8  1  0  0  0  0
  8  9  1  0  0  0  0
  6  7  3  0  0  0  0
  9 10  1  0  0  0  0
  5  6  1  0  0  0  0
  2  5  1  0  0  0  0
  2  3  2  0  0  0  0
  1  2  1  0  0  0  0
  2  4  2  0  0  0  0
  8 25  1  0  0  0  0
  9 26  1  0  0  0  0
 10 27  1  0  0  0  0
 14 28  1  0  0  0  0
 14 29  1  0  0  0  0
 17 30  1  0  0  0  0
 22 31  1  0  0  0  0
  9 32  1  0  0  0  0
M  CHG  1   9   1
M  END
> <Chemgauss4>
-7.163293

$$$$
