stable:False satoms:10 tatoms:24 sratio:0.4166666666666667
  -OEChem-08062412223D

 32 33  0     1  0  0  0  0  0999 V2000
    6.4529   -5.3121   26.0432 Cl  0  0  0  0  0  0  0  0  0  0  0  0
    8.2141   -4.9232   25.6794 S   0  0  0  0  0  0  0  0  0  0  0  0
    8.8930   -6.1026   25.2979 O   0  0  0  0  0  0  0  0  0  0  0  0
    8.7664   -4.2045   26.7463 O   0  0  0  0  0  0  0  0  0  0  0  0
    8.0783   -3.9763   24.3573 O   0  0  0  0  0  0  0  0  0  0  0  0
    9.0132   -3.3759   23.8105 C   0  0  0  0  0  0  0  0  0  0  0  0
    9.6323   -2.6189   23.3595 C   0  0  0  0  0  0  0  0  0  0  0  0
   10.4339   -1.5438   23.0637 C   0  0  2  0  0  0  0  0  0  0  0  0
   11.3657   -1.0751   23.9652 N   0  3  0  0  0  0  0  0  0  0  0  0
   12.3145   -1.1083   23.4427 C   0  0  0  0  0  0  0  0  0  0  0  0
   13.9967   -1.2866   22.3765 H   0  0  0  0  0  0  0  0  0  0  0  0
   13.0208   -1.5656   22.4554 C   0  0  0  0  0  0  0  0  0  0  0  0
   12.4409   -2.2120   21.8683 H   0  0  0  0  0  0  0  0  0  0  0  0
   10.0399   -0.8585   22.0787 C   0  0  0  0  0  0  0  0  0  0  0  0
    9.2714   -0.0495   21.2650 C   0  0  0  0  0  0  0  0  0  0  0  0
    9.7570    0.9599   20.8301 O   0  0  0  0  0  0  0  0  0  0  0  0
    8.0460   -0.5480   21.1269 N   0  0  0  0  0  0  0  0  0  0  0  0
    7.3210    0.1139   20.3041 C   0  0  0  0  0  0  0  0  0  0  0  0
    7.2351    0.3167   18.9990 C   0  0  0  0  0  0  0  0  0  0  0  0
    6.6645    0.7504   17.9765 N   0  0  0  0  0  0  0  0  0  0  0  0
    5.7698    1.2918   18.6060 C   0  0  0  0  0  0  0  0  0  0  0  0
    5.4694    1.3081   19.7959 C   0  0  0  0  0  0  0  0  0  0  0  0
    6.0445    0.7779   20.8081 C   0  0  0  0  0  0  0  0  0  0  0  0
    5.7696    0.7551   21.8338 H   0  0  0  0  0  0  0  0  0  0  0  0
   11.1607   -2.1329   22.4852 H   0  0  0  0  0  0  0  0  0  0  0  0
   11.1487   -0.1375   24.2369 H   0  0  0  0  0  0  0  0  0  0  0  0
   12.9773   -0.4640   24.0012 H   0  0  0  0  0  0  0  0  0  0  0  0
   10.1375   -1.6728   21.3456 H   0  0  0  0  0  0  0  0  0  0  0  0
   10.9343   -0.2194   22.0380 H   0  0  0  0  0  0  0  0  0  0  0  0
    7.7232   -1.3582   21.6162 H   0  0  0  0  0  0  0  0  0  0  0  0
    4.5710    1.8615   20.0265 H   0  0  0  0  0  0  0  0  0  0  0  0
   11.3924   -1.6595   24.7762 H   0  0  0  0  0  0  0  0  0  0  0  0
 20 21  2  0  0  0  0
 19 20  1  0  0  0  0
 19 21  1  0  0  0  0
 21 22  1  0  0  0  0
 18 19  2  0  0  0  0
 22 23  2  0  0  0  0
 18 23  1  0  0  0  0
 17 18  1  0  0  0  0
 23 24  1  0  0  0  0
 15 16  2  0  0  0  0
 15 17  1  0  0  0  0
 14 15  1  0  0  0  0
  8 14  1  0  0  0  0
 12 13  1  0  0  0  0
 11 12  1  0  0  0  0
 10 12  2  0  0  0  0
  7  8  1  0  0  0  0
  8  9  1  0  0  0  0
  6  7  3  0  0  0  0
  9 10  1  0  0  0  0
  5  6  1  0  0  0  0
  2  5  1  0  0  0  0
  2  3  2  0  0  0  0
  1  2  1  0  0  0  0
  2  4  2  0  0  0  0
  8 25  1  0  0  0  0
  9 26  1  0  0  0  0
 10 27  1  0  0  0  0
 14 28  1  0  0  0  0
 14 29  1  0  0  0  0
 17 30  1  0  0  0  0
 22 31  1  0  0  0  0
  9 32  1  0  0  0  0
M  CHG  1   9   1
M  END
> <Chemgauss4>
-7.092816

$$$$
