stable:False satoms:6 tatoms:24 sratio:0.25
  -OEChem-08062413223D

 44 44  0     1  0  0  0  0  0999 V2000
   -6.0934   -5.2635  -25.8217 C   0  0  0  0  0  0  0  0  0  0  0  0
   -7.7902   -4.6792  -25.6994 S   0  0  0  0  0  0  0  0  0  0  0  0
   -8.5948   -5.8464  -25.7041 O   0  0  0  0  0  0  0  0  0  0  0  0
   -8.0108   -3.8279  -26.8540 O   0  0  0  0  0  0  0  0  0  0  0  0
   -7.8612   -3.8376  -24.3502 N   0  0  0  0  0  0  0  0  0  0  0  0
   -8.7568   -3.1961  -23.9513 C   0  0  0  0  0  0  0  0  0  0  0  0
   -9.3240   -2.2312  -23.4594 C   0  0  0  0  0  0  0  0  0  0  0  0
  -10.2133   -1.3380  -23.4281 C   0  0  2  0  0  0  0  0  0  0  0  0
  -10.8385   -0.3622  -24.5527 C   0  0  0  0  0  0  0  0  0  0  0  0
  -11.9567   -0.0772  -24.6553 C   0  0  0  0  0  0  0  0  0  0  0  0
  -13.0116   -0.4833  -24.0536 C   0  0  0  0  0  0  0  0  0  0  0  0
  -12.7260   -1.5180  -23.0594 C   0  0  0  0  0  0  0  0  0  0  0  0
  -11.8780   -1.9440  -22.7492 C   0  0  0  0  0  0  0  0  0  0  0  0
   -9.7454   -0.7713  -22.4473 C   0  0  0  0  0  0  0  0  0  0  0  0
   -9.2124   -0.0813  -21.4525 C   0  0  0  0  0  0  0  0  0  0  0  0
   -9.7598    0.8840  -21.2189 O   0  0  0  0  0  0  0  0  0  0  0  0
   -8.1427   -0.7142  -20.9650 N   0  0  0  0  0  0  0  0  0  0  0  0
   -7.5319   -0.1043  -20.0319 C   0  0  0  0  0  0  0  0  0  0  0  0
   -7.7279    0.1045  -18.7820 C   0  0  0  0  0  0  0  0  0  0  0  0
   -7.4260    0.5361  -17.6324 N   0  0  0  0  0  0  0  0  0  0  0  0
   -6.3341    1.0193  -18.0138 C   0  0  0  0  0  0  0  0  0  0  0  0
   -5.7495    1.0666  -19.0741 C   0  0  0  0  0  0  0  0  0  0  0  0
   -6.1514    0.5574  -20.2643 C   0  0  0  0  0  0  0  0  0  0  0  0
   -5.3760    0.5617  -21.7251 Br  0  0  0  0  0  0  0  0  0  0  0  0
   -5.9749   -5.8573  -26.7400 H   0  0  0  0  0  0  0  0  0  0  0  0
   -5.4103   -4.4018  -25.8518 H   0  0  0  0  0  0  0  0  0  0  0  0
   -5.8570   -5.8885  -24.9479 H   0  0  0  0  0  0  0  0  0  0  0  0
   -7.0960   -3.1966  -24.4098 H   0  0  0  0  0  0  0  0  0  0  0  0
   -9.5877   -3.8645  -24.1224 H   0  0  0  0  0  0  0  0  0  0  0  0
   -8.7513   -2.0395  -22.5640 H   0  0  0  0  0  0  0  0  0  0  0  0
  -11.1135   -1.8526  -23.0607 H   0  0  0  0  0  0  0  0  0  0  0  0
  -10.1541    0.0618  -25.2725 H   0  0  0  0  0  0  0  0  0  0  0  0
  -12.1462    0.6779  -25.4038 H   0  0  0  0  0  0  0  0  0  0  0  0
  -13.7076   -0.8938  -24.8000 H   0  0  0  0  0  0  0  0  0  0  0  0
  -13.4805    0.3730  -23.5468 H   0  0  0  0  0  0  0  0  0  0  0  0
  -13.6073   -1.8960  -22.5626 H   0  0  0  0  0  0  0  0  0  0  0  0
  -11.9049   -2.7063  -21.9846 H   0  0  0  0  0  0  0  0  0  0  0  0
  -10.9339   -1.6425  -23.1782 H   0  0  0  0  0  0  0  0  0  0  0  0
   -9.1250   -1.6470  -22.2058 H   0  0  0  0  0  0  0  0  0  0  0  0
  -10.7056   -0.8444  -21.9155 H   0  0  0  0  0  0  0  0  0  0  0  0
   -7.8436   -1.6042  -21.3092 H   0  0  0  0  0  0  0  0  0  0  0  0
   -8.6994   -0.3382  -18.6192 H   0  0  0  0  0  0  0  0  0  0  0  0
   -5.7907    1.5036  -17.2159 H   0  0  0  0  0  0  0  0  0  0  0  0
   -4.7962    1.5742  -19.0705 H   0  0  0  0  0  0  0  0  0  0  0  0
 20 21  2  0  0  0  0
 19 20  1  0  0  0  0
 21 22  1  0  0  0  0
 18 19  2  0  0  0  0
 22 23  2  0  0  0  0
 18 23  1  0  0  0  0
 17 18  1  0  0  0  0
 23 24  1  0  0  0  0
 15 16  2  0  0  0  0
 15 17  1  0  0  0  0
 14 15  1  0  0  0  0
  8 14  1  0  0  0  0
 12 13  2  0  0  0  0
 11 12  1  0  0  0  0
  7  8  1  0  0  0  0
  8  9  1  0  0  0  0
 10 11  1  0  0  0  0
  6  7  2  3  0  0  0
  5  6  1  0  0  0  0
  9 10  2  0  0  0  0
  2  5  1  0  0  0  0
  2  3  2  0  0  0  0
  1  2  1  0  0  0  0
  2  4  2  0  0  0  0
  1 25  1  0  0  0  0
  1 26  1  0  0  0  0
  1 27  1  0  0  0  0
  5 28  1  0  0  0  0
  6 29  1  0  0  0  0
  7 30  1  0  0  0  0
  8 31  1  0  0  0  0
  9 32  1  0  0  0  0
 10 33  1  0  0  0  0
 11 34  1  0  0  0  0
 11 35  1  0  0  0  0
 12 36  1  0  0  0  0
 13 37  1  0  0  0  0
 13 38  1  0  0  0  0
 14 39  1  0  0  0  0
 14 40  1  0  0  0  0
 17 41  1  0  0  0  0
 19 42  1  0  0  0  0
 21 43  1  0  0  0  0
 22 44  1  0  0  0  0
M  END
> <Chemgauss4>
-12.647483

$$$$
