stable:False satoms:6 tatoms:24 sratio:0.25
  -OEChem-08062413223D

 44 44  0     1  0  0  0  0  0999 V2000
    6.3401   -5.0462   26.4159 C   0  0  0  0  0  0  0  0  0  0  0  0
    8.0226   -4.4555   26.1801 S   0  0  0  0  0  0  0  0  0  0  0  0
    8.8385   -5.6146   26.2026 O   0  0  0  0  0  0  0  0  0  0  0  0
    8.2912   -3.5456   27.2785 O   0  0  0  0  0  0  0  0  0  0  0  0
    8.0181   -3.6821   24.7889 N   0  0  0  0  0  0  0  0  0  0  0  0
    8.8862   -3.0543   24.3143 C   0  0  0  0  0  0  0  0  0  0  0  0
    9.4182   -2.1109   23.7473 C   0  0  0  0  0  0  0  0  0  0  0  0
   10.2956   -1.2135   23.6273 C   0  0  2  0  0  0  0  0  0  0  0  0
   10.9656   -0.1776   24.6694 C   0  0  0  0  0  0  0  0  0  0  0  0
   12.0844    0.1211   24.7017 C   0  0  0  0  0  0  0  0  0  0  0  0
   13.1125   -0.3065   24.0690 C   0  0  0  0  0  0  0  0  0  0  0  0
   12.7888   -1.3920   23.1430 C   0  0  0  0  0  0  0  0  0  0  0  0
   11.9309   -1.8396   22.8971 C   0  0  0  0  0  0  0  0  0  0  0  0
    9.7740   -0.7004   22.6441 C   0  0  0  0  0  0  0  0  0  0  0  0
    9.1852   -0.0653   21.6442 C   0  0  0  0  0  0  0  0  0  0  0  0
    9.7104    0.8913   21.3359 O   0  0  0  0  0  0  0  0  0  0  0  0
    8.0994   -0.7303   21.2427 N   0  0  0  0  0  0  0  0  0  0  0  0
    7.4369   -0.1728   20.3122 C   0  0  0  0  0  0  0  0  0  0  0  0
    7.5685   -0.0254   19.0452 C   0  0  0  0  0  0  0  0  0  0  0  0
    7.2057    0.3456   17.8921 N   0  0  0  0  0  0  0  0  0  0  0  0
    6.1290    0.8387   18.3031 C   0  0  0  0  0  0  0  0  0  0  0  0
    5.5971    0.9345   19.3876 C   0  0  0  0  0  0  0  0  0  0  0  0
    6.0627    0.4888   20.5800 C   0  0  0  0  0  0  0  0  0  0  0  0
    5.3606    0.5603   22.0757 Br  0  0  0  0  0  0  0  0  0  0  0  0
    6.2733   -5.5942   27.3674 H   0  0  0  0  0  0  0  0  0  0  0  0
    5.6504   -4.1895   26.4371 H   0  0  0  0  0  0  0  0  0  0  0  0
    6.0673   -5.7161   25.5872 H   0  0  0  0  0  0  0  0  0  0  0  0
    7.2502   -3.0449   24.8547 H   0  0  0  0  0  0  0  0  0  0  0  0
    9.7314   -3.7067   24.4767 H   0  0  0  0  0  0  0  0  0  0  0  0
    8.8000   -1.9689   22.8733 H   0  0  0  0  0  0  0  0  0  0  0  0
   11.1818   -1.7387   23.2415 H   0  0  0  0  0  0  0  0  0  0  0  0
   10.3133    0.2767   25.4005 H   0  0  0  0  0  0  0  0  0  0  0  0
   12.3030    0.9142   25.4013 H   0  0  0  0  0  0  0  0  0  0  0  0
   13.8487   -0.6734   24.7992 H   0  0  0  0  0  0  0  0  0  0  0  0
   13.5469    0.5270   23.4975 H   0  0  0  0  0  0  0  0  0  0  0  0
   13.6482   -1.7875   22.6222 H   0  0  0  0  0  0  0  0  0  0  0  0
   11.9278   -2.6390   22.1710 H   0  0  0  0  0  0  0  0  0  0  0  0
   11.0061   -1.5244   23.3572 H   0  0  0  0  0  0  0  0  0  0  0  0
    9.1514   -1.5919   22.4778 H   0  0  0  0  0  0  0  0  0  0  0  0
   10.7073   -0.7925   22.0694 H   0  0  0  0  0  0  0  0  0  0  0  0
    7.8268   -1.6042   21.6453 H   0  0  0  0  0  0  0  0  0  0  0  0
    8.5353   -0.4681   18.8563 H   0  0  0  0  0  0  0  0  0  0  0  0
    5.5419    1.2781   17.5102 H   0  0  0  0  0  0  0  0  0  0  0  0
    4.6396    1.4337   19.4063 H   0  0  0  0  0  0  0  0  0  0  0  0
 20 21  2  0  0  0  0
 19 20  1  0  0  0  0
 21 22  1  0  0  0  0
 18 19  2  0  0  0  0
 22 23  2  0  0  0  0
 18 23  1  0  0  0  0
 17 18  1  0  0  0  0
 23 24  1  0  0  0  0
 15 16  2  0  0  0  0
 15 17  1  0  0  0  0
 14 15  1  0  0  0  0
  8 14  1  0  0  0  0
 12 13  2  0  0  0  0
 11 12  1  0  0  0  0
  7  8  1  0  0  0  0
  8  9  1  0  0  0  0
 10 11  1  0  0  0  0
  6  7  2  3  0  0  0
  5  6  1  0  0  0  0
  9 10  2  0  0  0  0
  2  5  1  0  0  0  0
  2  3  2  0  0  0  0
  1  2  1  0  0  0  0
  2  4  2  0  0  0  0
  1 25  1  0  0  0  0
  1 26  1  0  0  0  0
  1 27  1  0  0  0  0
  5 28  1  0  0  0  0
  6 29  1  0  0  0  0
  7 30  1  0  0  0  0
  8 31  1  0  0  0  0
  9 32  1  0  0  0  0
 10 33  1  0  0  0  0
 11 34  1  0  0  0  0
 11 35  1  0  0  0  0
 12 36  1  0  0  0  0
 13 37  1  0  0  0  0
 13 38  1  0  0  0  0
 14 39  1  0  0  0  0
 14 40  1  0  0  0  0
 17 41  1  0  0  0  0
 19 42  1  0  0  0  0
 21 43  1  0  0  0  0
 22 44  1  0  0  0  0
M  END
> <Chemgauss4>
-13.193099

$$$$
