REMARK  7 active torsions:
REMARK  status: ('A' for Active; 'I' for Inactive)
REMARK    1  A    between atoms: S_2  and  N_5 
REMARK    2  A    between atoms: N_5  and  C_7 
REMARK    3  A    between atoms: C_8  and  C_9 
REMARK    4  A    between atoms: C_9  and  S_10 
REMARK    5  A    between atoms: S_10  and  C_11 
REMARK    6  A    between atoms: C_13  and  C_14 
REMARK       I    between atoms: C_14  and  N_16 
REMARK    7  A    between atoms: N_16  and  C_18 
ROOT
HETATM    1  C   UNL     1      10.102  -1.035  23.375  1.00  0.00     0.061 C 
HETATM    2  C   UNL     1       9.866  -0.551  22.244  1.00  0.00     0.102 C 
ENDROOT
BRANCH   2   3
HETATM    3  C   UNL     1       9.158   0.130  21.285  1.00  0.00     0.247 C 
HETATM    4  O   UNL     1       9.561   1.120  20.785  1.00  0.00    -0.268 OA
HETATM    5  N   UNL     1       7.953  -0.420  21.066  1.00  0.00    -0.321 N 
ATOM      6  HN  UNL     1       7.644  -1.189  21.661  1.00  0.00     0.169 HD
BRANCH   5   7
HETATM    7  C   UNL     1       7.153   0.006  20.100  1.00  0.00     0.068 C 
HETATM    8  C   UNL     1       7.330  -0.041  18.804  1.00  0.00     0.118 C 
HETATM    9  N   UNL     1       6.794   0.325  17.819  1.00  0.00    -0.373 N 
HETATM   10  C   UNL     1       5.782   0.781  18.199  1.00  0.00     0.089 C 
ATOM     11  HN  UNL     1       7.132   0.260  16.859  1.00  0.00     0.164 HD
HETATM   12  C   UNL     1       5.323   0.903  19.303  1.00  0.00     0.038 C 
HETATM   13  C   UNL     1       5.836   0.552  20.439  1.00  0.00     0.040 C 
HETATM   14 BR   UNL     1       5.206   0.703  22.041  1.00  0.00    -0.049 Br
ENDBRANCH   5   7
ENDBRANCH   2   3
BRANCH   1  15
HETATM   15  C   UNL     1       9.450  -2.083  23.758  1.00  0.00    -0.036 C 
HETATM   16  C   UNL     1       8.851  -2.918  24.247  1.00  0.00     0.027 C 
BRANCH  16  17
HETATM   17  N   UNL     1       7.953  -3.647  24.610  1.00  0.00    -0.229 N 
ATOM     18  HN  UNL     1       7.138  -3.828  24.023  1.00  0.00     0.190 HD
BRANCH  17  19
HETATM   19  S   UNL     1       8.114  -4.320  26.077  1.00  0.00     0.327 S 
HETATM   20 CL   UNL     1       6.332  -5.000  26.414  1.00  0.00     0.042 Cl
HETATM   21  O   UNL     1       8.989  -5.444  26.022  1.00  0.00    -0.188 OA
HETATM   22  O   UNL     1       8.401  -3.372  27.096  1.00  0.00    -0.188 OA
ENDBRANCH  17  19
ENDBRANCH  16  17
ENDBRANCH   1  15
BRANCH   1  23
HETATM   23  S   UNL     1      10.927  -0.070  24.583  1.00  0.00    -0.110 SA
BRANCH  23  24
HETATM   24  C   UNL     1      12.441  -0.217  23.797  1.00  0.00     0.148 C 
HETATM   25  C   UNL     1      12.493  -1.125  22.942  1.00  0.00    -0.068 C 
ENDBRANCH  23  24
ENDBRANCH   1  23
TORSDOF 7
