MODEL 1
REMARK VINA RESULT:    -6.599      0.000      0.000
REMARK INTER + INTRA:         -10.191
REMARK INTER:                  -9.300
REMARK INTRA:                  -0.891
REMARK UNBOUND:                -0.891
REMARK  7 active torsions:
REMARK  status: ('A' for Active; 'I' for Inactive)
REMARK    1  A    between atoms: S_2  and  N_5 
REMARK    2  A    between atoms: N_5  and  C_7 
REMARK    3  A    between atoms: C_8  and  C_9 
REMARK    4  A    between atoms: C_9  and  S_10 
REMARK    5  A    between atoms: S_10  and  C_11 
REMARK    6  A    between atoms: C_13  and  C_14 
REMARK       I    between atoms: C_14  and  N_16 
REMARK    7  A    between atoms: N_16  and  C_18 
ROOT
HETATM    1  C   UNL     1       6.813  -2.981  22.221  1.00  0.00     0.061 C 
HETATM    2  C   UNL     1       7.996  -2.923  22.629  1.00  0.00     0.102 C 
ENDROOT
BRANCH   2   3
HETATM    3  C   UNL     1       9.048  -2.481  23.393  1.00  0.00     0.247 C 
HETATM    4  O   UNL     1       9.171  -2.773  24.530  1.00  0.00    -0.268 OA
HETATM    5  N   UNL     1       9.839  -1.634  22.716  1.00  0.00    -0.321 N 
ATOM      6  HN  UNL     1       9.557  -1.332  21.783  1.00  0.00     0.169 HD
BRANCH   5   7
HETATM    7  C   UNL     1      10.975  -1.178  23.222  1.00  0.00     0.068 C 
HETATM    8  C   UNL     1      12.189  -1.643  23.070  1.00  0.00     0.118 C 
HETATM    9  N   UNL     1      13.279  -1.432  23.469  1.00  0.00    -0.373 N 
HETATM   10  C   UNL     1      13.160  -0.464  24.121  1.00  0.00     0.089 C 
ATOM     11  HN  UNL     1      14.128  -1.968  23.289  1.00  0.00     0.164 HD
HETATM   12  C   UNL     1      12.202   0.210  24.387  1.00  0.00     0.038 C 
HETATM   13  C   UNL     1      10.971   0.054  24.015  1.00  0.00     0.040 C 
HETATM   14 BR   UNL     1       9.571   1.003  24.369  1.00  0.00    -0.049 Br
ENDBRANCH   5   7
ENDBRANCH   2   3
BRANCH   1  15
HETATM   15  C   UNL     1       6.354  -2.021  21.488  1.00  0.00    -0.036 C 
HETATM   16  C   UNL     1       6.060  -1.236  20.718  1.00  0.00     0.027 C 
BRANCH  16  17
HETATM   17  N   UNL     1       5.507  -0.634  19.823  1.00  0.00    -0.229 N 
ATOM     18  HN  UNL     1       4.630  -0.961  19.418  1.00  0.00     0.190 HD
BRANCH  17  19
HETATM   19  S   UNL     1       6.234   0.720  19.304  1.00  0.00     0.327 S 
HETATM   20 CL   UNL     1       5.552   2.050  20.537  1.00  0.00     0.042 Cl
HETATM   21  O   UNL     1       7.643   0.644  19.505  1.00  0.00    -0.188 OA
HETATM   22  O   UNL     1       5.823   1.107  18.000  1.00  0.00    -0.188 OA
ENDBRANCH  17  19
ENDBRANCH  16  17
ENDBRANCH   1  15
BRANCH   1  23
HETATM   23  S   UNL     1       5.676  -4.068  22.994  1.00  0.00    -0.110 SA
BRANCH  23  24
HETATM   24  C   UNL     1       6.673  -5.437  22.740  1.00  0.00     0.148 C 
HETATM   25  C   UNL     1       6.489  -6.013  21.648  1.00  0.00    -0.068 C 
ENDBRANCH  23  24
ENDBRANCH   1  23
TORSDOF 7
ENDMDL
MODEL 2
REMARK VINA RESULT:    -6.585      3.438      6.264
REMARK INTER + INTRA:         -10.171
REMARK INTER:                  -8.984
REMARK INTRA:                  -1.187
REMARK UNBOUND:                -0.891
REMARK  7 active torsions:
REMARK  status: ('A' for Active; 'I' for Inactive)
REMARK    1  A    between atoms: S_2  and  N_5 
REMARK    2  A    between atoms: N_5  and  C_7 
REMARK    3  A    between atoms: C_8  and  C_9 
REMARK    4  A    between atoms: C_9  and  S_10 
REMARK    5  A    between atoms: S_10  and  C_11 
REMARK    6  A    between atoms: C_13  and  C_14 
REMARK       I    between atoms: C_14  and  N_16 
REMARK    7  A    between atoms: N_16  and  C_18 
ROOT
HETATM    1  C   UNL     1       9.079  -1.960  23.095  1.00  0.00     0.061 C 
HETATM    2  C   UNL     1       8.942  -1.406  21.980  1.00  0.00     0.102 C 
ENDROOT
BRANCH   2   3
HETATM    3  C   UNL     1       8.400  -0.549  21.054  1.00  0.00     0.247 C 
HETATM    4  O   UNL     1       9.051   0.239  20.464  1.00  0.00    -0.268 OA
HETATM    5  N   UNL     1       7.065  -0.672  20.978  1.00  0.00    -0.321 N 
ATOM      6  HN  UNL     1       6.585  -1.281  21.641  1.00  0.00     0.169 HD
BRANCH   5   7
HETATM    7  C   UNL     1       6.352  -0.025  20.068  1.00  0.00     0.068 C 
HETATM    8  C   UNL     1       5.966  -0.430  18.885  1.00  0.00     0.118 C 
HETATM    9  N   UNL     1       5.406  -0.004  17.938  1.00  0.00    -0.373 N 
HETATM   10  C   UNL     1       5.064   1.068  18.268  1.00  0.00     0.089 C 
ATOM     11  HN  UNL     1       5.255  -0.462  17.039  1.00  0.00     0.164 HD
HETATM   12  C   UNL     1       5.212   1.676  19.294  1.00  0.00     0.038 C 
HETATM   13  C   UNL     1       5.821   1.306  20.376  1.00  0.00     0.040 C 
HETATM   14 BR   UNL     1       6.049   2.144  21.870  1.00  0.00    -0.049 Br
ENDBRANCH   5   7
ENDBRANCH   2   3
BRANCH   1  15
HETATM   15  C   UNL     1       8.198  -2.824  23.480  1.00  0.00    -0.036 C 
HETATM   16  C   UNL     1       7.308  -3.490  23.722  1.00  0.00     0.027 C 
BRANCH  16  17
HETATM   17  N   UNL     1       6.477  -4.373  23.707  1.00  0.00    -0.229 N 
ATOM     18  HN  UNL     1       6.284  -4.943  24.531  1.00  0.00     0.190 HD
BRANCH  17  19
HETATM   19  S   UNL     1       5.687  -4.601  22.308  1.00  0.00     0.327 S 
HETATM   20 CL   UNL     1       6.882  -5.788  21.352  1.00  0.00     0.042 Cl
HETATM   21  O   UNL     1       4.472  -5.314  22.527  1.00  0.00    -0.188 OA
HETATM   22  O   UNL     1       5.568  -3.413  21.536  1.00  0.00    -0.188 OA
ENDBRANCH  17  19
ENDBRANCH  16  17
ENDBRANCH   1  15
BRANCH   1  23
HETATM   23  S   UNL     1      10.146  -1.256  24.294  1.00  0.00    -0.110 SA
BRANCH  23  24
HETATM   24  C   UNL     1      11.493  -1.273  23.237  1.00  0.00     0.148 C 
HETATM   25  C   UNL     1      12.569  -0.925  23.765  1.00  0.00    -0.068 C 
ENDBRANCH  23  24
ENDBRANCH   1  23
TORSDOF 7
ENDMDL
MODEL 3
REMARK VINA RESULT:    -6.183      3.631      6.769
REMARK INTER + INTRA:          -9.605
REMARK INTER:                  -8.807
REMARK INTRA:                  -0.797
REMARK UNBOUND:                -0.891
REMARK  7 active torsions:
REMARK  status: ('A' for Active; 'I' for Inactive)
REMARK    1  A    between atoms: S_2  and  N_5 
REMARK    2  A    between atoms: N_5  and  C_7 
REMARK    3  A    between atoms: C_8  and  C_9 
REMARK    4  A    between atoms: C_9  and  S_10 
REMARK    5  A    between atoms: S_10  and  C_11 
REMARK    6  A    between atoms: C_13  and  C_14 
REMARK       I    between atoms: C_14  and  N_16 
REMARK    7  A    between atoms: N_16  and  C_18 
ROOT
HETATM    1  C   UNL     1      10.040  -0.650  23.533  1.00  0.00     0.061 C 
HETATM    2  C   UNL     1       9.799  -0.065  22.452  1.00  0.00     0.102 C 
ENDROOT
BRANCH   2   3
HETATM    3  C   UNL     1       9.053   0.624  21.528  1.00  0.00     0.247 C 
HETATM    4  O   UNL     1       9.351   1.702  21.151  1.00  0.00    -0.268 OA
HETATM    5  N   UNL     1       7.934  -0.038  21.192  1.00  0.00    -0.321 N 
ATOM      6  HN  UNL     1       7.698  -0.896  21.691  1.00  0.00     0.169 HD
BRANCH   5   7
HETATM    7  C   UNL     1       7.128   0.389  20.231  1.00  0.00     0.068 C 
HETATM    8  C   UNL     1       7.060   0.004  18.982  1.00  0.00     0.118 C 
HETATM    9  N   UNL     1       6.484   0.290  17.994  1.00  0.00    -0.373 N 
HETATM   10  C   UNL     1       5.718   1.109  18.338  1.00  0.00     0.089 C 
ATOM     11  HN  UNL     1       6.621  -0.087  17.056  1.00  0.00     0.164 HD
HETATM   12  C   UNL     1       5.507   1.608  19.411  1.00  0.00     0.038 C 
HETATM   13  C   UNL     1       6.091   1.377  20.543  1.00  0.00     0.040 C 
HETATM   14 BR   UNL     1       5.813   2.066  22.103  1.00  0.00    -0.049 Br
ENDBRANCH   5   7
ENDBRANCH   2   3
BRANCH   1  15
HETATM   15  C   UNL     1       9.532  -1.819  23.741  1.00  0.00    -0.036 C 
HETATM   16  C   UNL     1       8.949  -2.793  23.825  1.00  0.00     0.027 C 
BRANCH  16  17
HETATM   17  N   UNL     1       8.520  -3.912  23.641  1.00  0.00    -0.229 N 
ATOM     18  HN  UNL     1       8.708  -4.424  22.778  1.00  0.00     0.190 HD
BRANCH  17  19
HETATM   19  S   UNL     1       7.633  -4.554  24.837  1.00  0.00     0.327 S 
HETATM   20 CL   UNL     1       6.302  -5.569  23.862  1.00  0.00     0.042 Cl
HETATM   21  O   UNL     1       8.403  -5.487  25.591  1.00  0.00    -0.188 OA
HETATM   22  O   UNL     1       6.938  -3.577  25.601  1.00  0.00    -0.188 OA
ENDBRANCH  17  19
ENDBRANCH  16  17
ENDBRANCH   1  15
BRANCH   1  23
HETATM   23  S   UNL     1      10.640   0.262  24.904  1.00  0.00    -0.110 SA
BRANCH  23  24
HETATM   24  C   UNL     1      12.123   0.625  24.128  1.00  0.00     0.148 C 
HETATM   25  C   UNL     1      13.000  -0.254  24.254  1.00  0.00    -0.068 C 
ENDBRANCH  23  24
ENDBRANCH   1  23
TORSDOF 7
ENDMDL
MODEL 4
REMARK VINA RESULT:    -5.985      4.097      5.837
REMARK INTER + INTRA:          -9.325
REMARK INTER:                  -8.313
REMARK INTRA:                  -1.011
REMARK UNBOUND:                -0.891
REMARK  7 active torsions:
REMARK  status: ('A' for Active; 'I' for Inactive)
REMARK    1  A    between atoms: S_2  and  N_5 
REMARK    2  A    between atoms: N_5  and  C_7 
REMARK    3  A    between atoms: C_8  and  C_9 
REMARK    4  A    between atoms: C_9  and  S_10 
REMARK    5  A    between atoms: S_10  and  C_11 
REMARK    6  A    between atoms: C_13  and  C_14 
REMARK       I    between atoms: C_14  and  N_16 
REMARK    7  A    between atoms: N_16  and  C_18 
ROOT
HETATM    1  C   UNL     1       6.002  -3.973  24.390  1.00  0.00     0.061 C 
HETATM    2  C   UNL     1       6.858  -3.131  24.746  1.00  0.00     0.102 C 
ENDROOT
BRANCH   2   3
HETATM    3  C   UNL     1       8.114  -2.610  24.934  1.00  0.00     0.247 C 
HETATM    4  O   UNL     1       8.729  -2.783  25.926  1.00  0.00    -0.268 OA
HETATM    5  N   UNL     1       8.495  -1.835  23.905  1.00  0.00    -0.321 N 
ATOM      6  HN  UNL     1       7.824  -1.632  23.164  1.00  0.00     0.169 HD
BRANCH   5   7
HETATM    7  C   UNL     1       9.715  -1.327  23.824  1.00  0.00     0.068 C 
HETATM    8  C   UNL     1      10.780  -1.831  23.254  1.00  0.00     0.118 C 
HETATM    9  N   UNL     1      11.927  -1.580  23.131  1.00  0.00    -0.373 N 
HETATM   10  C   UNL     1      12.040  -0.521  23.624  1.00  0.00     0.089 C 
ATOM     11  HN  UNL     1      12.651  -2.152  22.697  1.00  0.00     0.164 HD
HETATM   12  C   UNL     1      11.244   0.202  24.160  1.00  0.00     0.038 C 
HETATM   13  C   UNL     1       9.979   0.012  24.357  1.00  0.00     0.040 C 
HETATM   14 BR   UNL     1       8.804   1.028  25.115  1.00  0.00    -0.049 Br
ENDBRANCH   5   7
ENDBRANCH   2   3
BRANCH   1  15
HETATM   15  C   UNL     1       5.850  -5.049  25.090  1.00  0.00    -0.036 C 
HETATM   16  C   UNL     1       5.819  -5.916  25.827  1.00  0.00     0.027 C 
BRANCH  16  17
HETATM   17  N   UNL     1       5.502  -6.676  26.716  1.00  0.00    -0.229 N 
ATOM     18  HN  UNL     1       4.852  -7.447  26.556  1.00  0.00     0.190 HD
BRANCH  17  19
HETATM   19  S   UNL     1       6.163  -6.405  28.172  1.00  0.00     0.327 S 
HETATM   20 CL   UNL     1       5.073  -4.956  28.854  1.00  0.00     0.042 Cl
HETATM   21  O   UNL     1       5.960  -7.523  29.033  1.00  0.00    -0.188 OA
HETATM   22  O   UNL     1       7.498  -5.926  28.097  1.00  0.00    -0.188 OA
ENDBRANCH  17  19
ENDBRANCH  16  17
ENDBRANCH   1  15
BRANCH   1  23
HETATM   23  S   UNL     1       5.366  -3.936  22.758  1.00  0.00    -0.110 SA
BRANCH  23  24
HETATM   24  C   UNL     1       6.682  -4.832  22.128  1.00  0.00     0.148 C 
HETATM   25  C   UNL     1       6.353  -5.774  21.378  1.00  0.00    -0.068 C 
ENDBRANCH  23  24
ENDBRANCH   1  23
TORSDOF 7
ENDMDL
MODEL 5
REMARK VINA RESULT:    -5.950      3.717      7.032
REMARK INTER + INTRA:          -9.276
REMARK INTER:                  -8.449
REMARK INTRA:                  -0.827
REMARK UNBOUND:                -0.891
REMARK  7 active torsions:
REMARK  status: ('A' for Active; 'I' for Inactive)
REMARK    1  A    between atoms: S_2  and  N_5 
REMARK    2  A    between atoms: N_5  and  C_7 
REMARK    3  A    between atoms: C_8  and  C_9 
REMARK    4  A    between atoms: C_9  and  S_10 
REMARK    5  A    between atoms: S_10  and  C_11 
REMARK    6  A    between atoms: C_13  and  C_14 
REMARK       I    between atoms: C_14  and  N_16 
REMARK    7  A    between atoms: N_16  and  C_18 
ROOT
HETATM    1  C   UNL     1       8.742  -2.240  23.416  1.00  0.00     0.061 C 
HETATM    2  C   UNL     1       8.133  -2.023  22.344  1.00  0.00     0.102 C 
ENDROOT
BRANCH   2   3
HETATM    3  C   UNL     1       7.102  -1.601  21.541  1.00  0.00     0.247 C 
HETATM    4  O   UNL     1       6.036  -2.106  21.563  1.00  0.00    -0.268 OA
HETATM    5  N   UNL     1       7.487  -0.628  20.700  1.00  0.00    -0.321 N 
ATOM      6  HN  UNL     1       8.473  -0.368  20.661  1.00  0.00     0.169 HD
BRANCH   5   7
HETATM    7  C   UNL     1       6.625   0.005  19.918  1.00  0.00     0.068 C 
HETATM    8  C   UNL     1       6.117  -0.378  18.774  1.00  0.00     0.118 C 
HETATM    9  N   UNL     1       5.415   0.047  17.926  1.00  0.00    -0.373 N 
HETATM   10  C   UNL     1       5.052   1.079  18.348  1.00  0.00     0.089 C 
ATOM     11  HN  UNL     1       5.179  -0.384  17.033  1.00  0.00     0.164 HD
HETATM   12  C   UNL     1       5.293   1.654  19.376  1.00  0.00     0.038 C 
HETATM   13  C   UNL     1       6.056   1.283  20.354  1.00  0.00     0.040 C 
HETATM   14 BR   UNL     1       6.421   2.075  21.846  1.00  0.00    -0.049 Br
ENDBRANCH   5   7
ENDBRANCH   2   3
BRANCH   1  15
HETATM   15  C   UNL     1       8.356  -3.215  24.172  1.00  0.00    -0.036 C 
HETATM   16  C   UNL     1       7.853  -4.005  24.818  1.00  0.00     0.027 C 
BRANCH  16  17
HETATM   17  N   UNL     1       7.305  -5.014  25.205  1.00  0.00    -0.229 N 
ATOM     18  HN  UNL     1       6.904  -5.691  24.555  1.00  0.00     0.190 HD
BRANCH  17  19
HETATM   19  S   UNL     1       7.240  -5.233  26.811  1.00  0.00     0.327 S 
HETATM   20 CL   UNL     1       5.997  -3.854  27.363  1.00  0.00     0.042 Cl
HETATM   21  O   UNL     1       6.642  -6.488  27.125  1.00  0.00    -0.188 OA
HETATM   22  O   UNL     1       8.477  -4.966  27.459  1.00  0.00    -0.188 OA
ENDBRANCH  17  19
ENDBRANCH  16  17
ENDBRANCH   1  15
BRANCH   1  23
HETATM   23  S   UNL     1       9.767  -0.997  24.106  1.00  0.00    -0.110 SA
BRANCH  23  24
HETATM   24  C   UNL     1      10.907  -1.104  22.833  1.00  0.00     0.148 C 
HETATM   25  C   UNL     1      12.048  -1.462  23.191  1.00  0.00    -0.068 C 
ENDBRANCH  23  24
ENDBRANCH   1  23
TORSDOF 7
ENDMDL
MODEL 6
REMARK VINA RESULT:    -5.904     14.373     16.544
REMARK INTER + INTRA:          -9.211
REMARK INTER:                  -8.427
REMARK INTRA:                  -0.785
REMARK UNBOUND:                -0.891
REMARK  7 active torsions:
REMARK  status: ('A' for Active; 'I' for Inactive)
REMARK    1  A    between atoms: S_2  and  N_5 
REMARK    2  A    between atoms: N_5  and  C_7 
REMARK    3  A    between atoms: C_8  and  C_9 
REMARK    4  A    between atoms: C_9  and  S_10 
REMARK    5  A    between atoms: S_10  and  C_11 
REMARK    6  A    between atoms: C_13  and  C_14 
REMARK       I    between atoms: C_14  and  N_16 
REMARK    7  A    between atoms: N_16  and  C_18 
ROOT
HETATM    1  C   UNL     1      23.659  -2.157  23.671  1.00  0.00     0.061 C 
HETATM    2  C   UNL     1      23.668  -1.917  22.442  1.00  0.00     0.102 C 
ENDROOT
BRANCH   2   3
HETATM    3  C   UNL     1      23.161  -1.831  21.169  1.00  0.00     0.247 C 
HETATM    4  O   UNL     1      22.002  -1.867  20.946  1.00  0.00    -0.268 OA
HETATM    5  N   UNL     1      24.133  -1.789  20.244  1.00  0.00    -0.321 N 
ATOM      6  HN  UNL     1      25.102  -1.914  20.537  1.00  0.00     0.169 HD
BRANCH   5   7
HETATM    7  C   UNL     1      23.871  -1.588  18.961  1.00  0.00     0.068 C 
HETATM    8  C   UNL     1      23.524  -0.481  18.355  1.00  0.00     0.118 C 
HETATM    9  N   UNL     1      23.197  -0.120  17.280  1.00  0.00    -0.373 N 
HETATM   10  C   UNL     1      23.324  -1.074  16.609  1.00  0.00     0.089 C 
ATOM     11  HN  UNL     1      22.877   0.807  17.000  1.00  0.00     0.164 HD
HETATM   12  C   UNL     1      23.680  -2.192  16.866  1.00  0.00     0.038 C 
HETATM   13  C   UNL     1      24.040  -2.688  18.007  1.00  0.00     0.040 C 
HETATM   14 BR   UNL     1      24.564  -4.283  18.414  1.00  0.00    -0.049 Br
ENDBRANCH   5   7
ENDBRANCH   2   3
BRANCH   1  15
HETATM   15  C   UNL     1      23.670  -3.386  24.071  1.00  0.00    -0.036 C 
HETATM   16  C   UNL     1      23.628  -4.403  24.580  1.00  0.00     0.027 C 
BRANCH  16  17
HETATM   17  N   UNL     1      23.264  -5.482  24.995  1.00  0.00    -0.229 N 
ATOM     18  HN  UNL     1      22.299  -5.648  25.285  1.00  0.00     0.190 HD
BRANCH  17  19
HETATM   19  S   UNL     1      24.389  -6.648  25.066  1.00  0.00     0.327 S 
HETATM   20 CL   UNL     1      26.028  -5.628  25.223  1.00  0.00     0.042 Cl
HETATM   21  O   UNL     1      24.251  -7.408  26.264  1.00  0.00    -0.188 OA
HETATM   22  O   UNL     1      24.480  -7.407  23.868  1.00  0.00    -0.188 OA
ENDBRANCH  17  19
ENDBRANCH  16  17
ENDBRANCH   1  15
BRANCH   1  23
HETATM   23  S   UNL     1      23.173  -0.909  24.801  1.00  0.00    -0.110 SA
BRANCH  23  24
HETATM   24  C   UNL     1      21.597  -1.555  24.976  1.00  0.00     0.148 C 
HETATM   25  C   UNL     1      20.727  -0.989  24.283  1.00  0.00    -0.068 C 
ENDBRANCH  23  24
ENDBRANCH   1  23
TORSDOF 7
ENDMDL
MODEL 7
REMARK VINA RESULT:    -5.819      4.033      6.548
REMARK INTER + INTRA:          -9.091
REMARK INTER:                  -8.035
REMARK INTRA:                  -1.056
REMARK UNBOUND:                -0.891
REMARK  7 active torsions:
REMARK  status: ('A' for Active; 'I' for Inactive)
REMARK    1  A    between atoms: S_2  and  N_5 
REMARK    2  A    between atoms: N_5  and  C_7 
REMARK    3  A    between atoms: C_8  and  C_9 
REMARK    4  A    between atoms: C_9  and  S_10 
REMARK    5  A    between atoms: S_10  and  C_11 
REMARK    6  A    between atoms: C_13  and  C_14 
REMARK       I    between atoms: C_14  and  N_16 
REMARK    7  A    between atoms: N_16  and  C_18 
ROOT
HETATM    1  C   UNL     1       8.308  -1.762  21.988  1.00  0.00     0.061 C 
HETATM    2  C   UNL     1       7.556  -2.592  22.550  1.00  0.00     0.102 C 
ENDROOT
BRANCH   2   3
HETATM    3  C   UNL     1       6.809  -3.131  23.567  1.00  0.00     0.247 C 
HETATM    4  O   UNL     1       6.062  -2.486  24.214  1.00  0.00    -0.268 OA
HETATM    5  N   UNL     1       7.099  -4.427  23.770  1.00  0.00    -0.321 N 
ATOM      6  HN  UNL     1       7.869  -4.849  23.252  1.00  0.00     0.169 HD
BRANCH   5   7
HETATM    7  C   UNL     1       6.414  -5.173  24.623  1.00  0.00     0.068 C 
HETATM    8  C   UNL     1       5.351  -5.906  24.407  1.00  0.00     0.118 C 
HETATM    9  N   UNL     1       4.585  -6.564  25.016  1.00  0.00    -0.373 N 
HETATM   10  C   UNL     1       5.024  -6.576  26.105  1.00  0.00     0.089 C 
ATOM     11  HN  UNL     1       3.738  -7.019  24.676  1.00  0.00     0.164 HD
HETATM   12  C   UNL     1       5.999  -6.060  26.580  1.00  0.00     0.038 C 
HETATM   13  C   UNL     1       6.885  -5.312  26.004  1.00  0.00     0.040 C 
HETATM   14 BR   UNL     1       8.301  -4.561  26.650  1.00  0.00    -0.049 Br
ENDBRANCH   5   7
ENDBRANCH   2   3
BRANCH   1  15
HETATM   15  C   UNL     1       9.557  -1.722  22.318  1.00  0.00    -0.036 C 
HETATM   16  C   UNL     1      10.633  -1.512  22.623  1.00  0.00     0.027 C 
BRANCH  16  17
HETATM   17  N   UNL     1      11.651  -1.350  23.261  1.00  0.00    -0.229 N 
ATOM     18  HN  UNL     1      12.394  -2.049  23.272  1.00  0.00     0.190 HD
BRANCH  17  19
HETATM   19  S   UNL     1      11.771   0.036  24.095  1.00  0.00     0.327 S 
HETATM   20 CL   UNL     1      10.334  -0.135  25.382  1.00  0.00     0.042 Cl
HETATM   21  O   UNL     1      12.991   0.077  24.830  1.00  0.00    -0.188 OA
HETATM   22  O   UNL     1      11.494   1.186  23.307  1.00  0.00    -0.188 OA
ENDBRANCH  17  19
ENDBRANCH  16  17
ENDBRANCH   1  15
BRANCH   1  23
HETATM   23  S   UNL     1       7.618  -0.393  21.140  1.00  0.00    -0.110 SA
BRANCH  23  24
HETATM   24  C   UNL     1       7.714   0.622  22.516  1.00  0.00     0.148 C 
HETATM   25  C   UNL     1       6.646   1.197  22.810  1.00  0.00    -0.068 C 
ENDBRANCH  23  24
ENDBRANCH   1  23
TORSDOF 7
ENDMDL
MODEL 8
REMARK VINA RESULT:    -5.785      3.863      6.649
REMARK INTER + INTRA:          -9.043
REMARK INTER:                  -8.034
REMARK INTRA:                  -1.010
REMARK UNBOUND:                -0.891
REMARK  7 active torsions:
REMARK  status: ('A' for Active; 'I' for Inactive)
REMARK    1  A    between atoms: S_2  and  N_5 
REMARK    2  A    between atoms: N_5  and  C_7 
REMARK    3  A    between atoms: C_8  and  C_9 
REMARK    4  A    between atoms: C_9  and  S_10 
REMARK    5  A    between atoms: S_10  and  C_11 
REMARK    6  A    between atoms: C_13  and  C_14 
REMARK       I    between atoms: C_14  and  N_16 
REMARK    7  A    between atoms: N_16  and  C_18 
ROOT
HETATM    1  C   UNL     1       7.997  -0.101  21.310  1.00  0.00     0.061 C 
HETATM    2  C   UNL     1       7.703  -1.260  21.682  1.00  0.00     0.102 C 
ENDROOT
BRANCH   2   3
HETATM    3  C   UNL     1       7.280  -2.239  22.546  1.00  0.00     0.247 C 
HETATM    4  O   UNL     1       7.978  -2.684  23.388  1.00  0.00    -0.268 OA
HETATM    5  N   UNL     1       6.039  -2.663  22.257  1.00  0.00    -0.321 N 
ATOM      6  HN  UNL     1       5.581  -2.314  21.414  1.00  0.00     0.169 HD
BRANCH   5   7
HETATM    7  C   UNL     1       5.392  -3.519  23.033  1.00  0.00     0.068 C 
HETATM    8  C   UNL     1       4.641  -3.278  24.077  1.00  0.00     0.118 C 
HETATM    9  N   UNL     1       4.054  -3.875  24.908  1.00  0.00    -0.373 N 
HETATM   10  C   UNL     1       4.162  -4.997  24.581  1.00  0.00     0.089 C 
ATOM     11  HN  UNL     1       3.565  -3.503  25.722  1.00  0.00     0.164 HD
HETATM   12  C   UNL     1       4.725  -5.509  23.651  1.00  0.00     0.038 C 
HETATM   13  C   UNL     1       5.405  -4.947  22.704  1.00  0.00     0.040 C 
HETATM   14 BR   UNL     1       6.221  -5.646  21.350  1.00  0.00    -0.049 Br
ENDBRANCH   5   7
ENDBRANCH   2   3
BRANCH   1  15
HETATM   15  C   UNL     1       9.092   0.437  21.737  1.00  0.00    -0.036 C 
HETATM   16  C   UNL     1       9.978   0.909  22.273  1.00  0.00     0.027 C 
BRANCH  16  17
HETATM   17  N   UNL     1      11.020   1.084  22.868  1.00  0.00    -0.229 N 
ATOM     18  HN  UNL     1      11.594   1.914  22.714  1.00  0.00     0.190 HD
BRANCH  17  19
HETATM   19  S   UNL     1      11.454  -0.070  23.922  1.00  0.00     0.327 S 
HETATM   20 CL   UNL     1      11.769  -1.588  22.761  1.00  0.00     0.042 Cl
HETATM   21  O   UNL     1      12.699   0.253  24.538  1.00  0.00    -0.188 OA
HETATM   22  O   UNL     1      10.408  -0.433  24.813  1.00  0.00    -0.188 OA
ENDBRANCH  17  19
ENDBRANCH  16  17
ENDBRANCH   1  15
BRANCH   1  23
HETATM   23  S   UNL     1       6.762   0.938  20.627  1.00  0.00    -0.110 SA
BRANCH  23  24
HETATM   24  C   UNL     1       7.012   0.343  19.041  1.00  0.00     0.148 C 
HETATM   25  C   UNL     1       5.963   0.073  18.419  1.00  0.00    -0.068 C 
ENDBRANCH  23  24
ENDBRANCH   1  23
TORSDOF 7
ENDMDL
MODEL 9
REMARK VINA RESULT:    -5.766      3.240      5.804
REMARK INTER + INTRA:          -9.016
REMARK INTER:                  -8.039
REMARK INTRA:                  -0.976
REMARK UNBOUND:                -0.891
REMARK  7 active torsions:
REMARK  status: ('A' for Active; 'I' for Inactive)
REMARK    1  A    between atoms: S_2  and  N_5 
REMARK    2  A    between atoms: N_5  and  C_7 
REMARK    3  A    between atoms: C_8  and  C_9 
REMARK    4  A    between atoms: C_9  and  S_10 
REMARK    5  A    between atoms: S_10  and  C_11 
REMARK    6  A    between atoms: C_13  and  C_14 
REMARK       I    between atoms: C_14  and  N_16 
REMARK    7  A    between atoms: N_16  and  C_18 
ROOT
HETATM    1  C   UNL     1       9.404  -1.559  22.832  1.00  0.00     0.061 C 
HETATM    2  C   UNL     1       8.769  -2.331  23.587  1.00  0.00     0.102 C 
ENDROOT
BRANCH   2   3
HETATM    3  C   UNL     1       8.175  -3.504  23.983  1.00  0.00     0.247 C 
HETATM    4  O   UNL     1       8.784  -4.387  24.474  1.00  0.00    -0.268 OA
HETATM    5  N   UNL     1       6.870  -3.537  23.667  1.00  0.00    -0.321 N 
ATOM      6  HN  UNL     1       6.477  -2.779  23.108  1.00  0.00     0.169 HD
BRANCH   5   7
HETATM    7  C   UNL     1       6.079  -4.524  24.059  1.00  0.00     0.068 C 
HETATM    8  C   UNL     1       5.452  -4.673  25.199  1.00  0.00     0.118 C 
HETATM    9  N   UNL     1       4.782  -5.474  25.747  1.00  0.00    -0.373 N 
HETATM   10  C   UNL     1       4.612  -6.305  24.937  1.00  0.00     0.089 C 
ATOM     11  HN  UNL     1       4.430  -5.449  26.704  1.00  0.00     0.164 HD
HETATM   12  C   UNL     1       4.999  -6.410  23.804  1.00  0.00     0.038 C 
HETATM   13  C   UNL     1       5.747  -5.601  23.123  1.00  0.00     0.040 C 
HETATM   14 BR   UNL     1       6.316  -5.713  21.495  1.00  0.00    -0.049 Br
ENDBRANCH   5   7
ENDBRANCH   2   3
BRANCH   1  15
HETATM   15  C   UNL     1       8.821  -1.092  21.778  1.00  0.00    -0.036 C 
HETATM   16  C   UNL     1       8.333  -0.520  20.923  1.00  0.00     0.027 C 
BRANCH  16  17
HETATM   17  N   UNL     1       8.132   0.074  19.886  1.00  0.00    -0.229 N 
ATOM     18  HN  UNL     1       8.892   0.309  19.246  1.00  0.00     0.190 HD
BRANCH  17  19
HETATM   19  S   UNL     1       6.594   0.478  19.568  1.00  0.00     0.327 S 
HETATM   20 CL   UNL     1       5.663  -1.197  19.852  1.00  0.00     0.042 Cl
HETATM   21  O   UNL     1       6.104   1.400  20.539  1.00  0.00    -0.188 OA
HETATM   22  O   UNL     1       6.384   0.850  18.213  1.00  0.00    -0.188 OA
ENDBRANCH  17  19
ENDBRANCH  16  17
ENDBRANCH   1  15
BRANCH   1  23
HETATM   23  S   UNL     1      11.152  -1.487  22.928  1.00  0.00    -0.110 SA
BRANCH  23  24
HETATM   24  C   UNL     1      11.142   0.096  23.580  1.00  0.00     0.148 C 
HETATM   25  C   UNL     1      11.337   0.149  24.811  1.00  0.00    -0.068 C 
ENDBRANCH  23  24
ENDBRANCH   1  23
TORSDOF 7
ENDMDL
