stable:False satoms:22 tatoms:24 sratio:0.9166666666666666
  -OEChem-08062405143D

 27 27  0     1  0  0  0  0  0999 V2000
    7.0564   -4.4135   26.5316 F   0  0  0  0  0  0  0  0  0  0  0  0
    8.3522   -4.2161   26.1029 C   0  0  0  0  0  0  0  0  0  0  0  0
    8.9057   -5.4439   25.9635 F   0  0  0  0  0  0  0  0  0  0  0  0
    8.9949   -3.6291   27.0929 F   0  0  0  0  0  0  0  0  0  0  0  0
    8.3049   -3.4725   24.9330 N   0  0  0  0  0  0  0  0  0  0  0  0
    9.1430   -3.3272   24.0421 C   0  0  0  0  0  0  0  0  0  0  0  0
    9.7241   -2.5636   23.3865 C   0  0  0  0  0  0  0  0  0  0  0  0
   10.6862   -1.5347   23.1966 C   0  0  1  0  0  0  0  0  0  0  0  0
   10.6971   -1.0456   24.1774 H   0  0  0  0  0  0  0  0  0  0  0  0
   12.6710   -0.7947   23.0552 H   0  0  0  0  0  0  0  0  0  0  0  0
   12.7069   -2.3819   23.6397 H   0  0  0  0  0  0  0  0  0  0  0  0
   12.3458   -2.1629   21.9297 H   0  0  0  0  0  0  0  0  0  0  0  0
   12.2078   -1.7701   22.9203 C   0  0  0  0  0  0  0  0  0  0  0  0
   10.2030   -0.7289   22.1699 O   0  0  0  0  0  0  0  0  0  0  0  0
    9.2676   -0.3248   21.2971 C   0  0  0  0  0  0  0  0  0  0  0  0
    9.6113    0.5511   20.5899 O   0  0  0  0  0  0  0  0  0  0  0  0
    7.9834   -0.8859   21.2278 N   0  0  0  0  0  0  0  0  0  0  0  0
    6.6800    0.2595   19.6719 C   0  0  0  0  0  0  0  0  0  0  0  0
    7.5006    0.0176   18.6107 N   0  5  0  0  0  0  0  0  0  0  0  0
    6.9048    0.4820   17.5726 N   0  0  0  0  0  0  0  0  0  0  0  0
    5.7118    1.0149   17.9697 N   0  0  0  0  0  0  0  0  0  0  0  0
    5.5293    0.9399   19.1917 N   0  0  0  0  0  0  0  0  0  0  0  0
    6.9031   -0.1060   20.9561 C   0  0  0  0  0  2  0  0  0  0  0  0
    8.1216   -2.5407   25.2464 H   0  0  0  0  0  0  0  0  0  0  0  0
    9.4730   -4.3134   23.7510 H   0  0  0  0  0  0  0  0  0  0  0  0
    9.3179   -2.7170   22.3976 H   0  0  0  0  0  0  0  0  0  0  0  0
    7.8616   -1.8669   21.3794 H   0  0  0  0  0  0  0  0  0  0  0  0
 20 21  2  0  0  0  0
 19 20  1  0  0  0  0
 21 22  1  0  0  0  0
 18 19  1  0  0  0  0
 18 22  2  0  0  0  0
 18 23  1  0  0  0  0
 15 16  2  0  0  0  0
 17 23  1  0  0  0  0
 15 17  1  0  0  0  0
 14 15  1  0  0  0  0
 12 13  1  0  0  0  0
  8 14  1  0  0  0  0
  8 13  1  0  0  0  0
 10 13  1  0  0  0  0
 11 13  1  0  0  0  0
  7  8  1  0  0  0  0
  8  9  1  0  0  0  0
  6  7  2  3  0  0  0
  5  6  1  0  0  0  0
  2  5  1  0  0  0  0
  2  3  1  0  0  0  0
  1  2  1  0  0  0  0
  2  4  1  0  0  0  0
  5 24  1  0  0  0  0
  6 25  1  0  0  0  0
  7 26  1  0  0  0  0
 17 27  1  0  0  0  0
M  CHG  1  19  -1
M  END
> <Chemgauss4>
-7.936932

$$$$
