stable:False satoms:22 tatoms:24 sratio:0.9166666666666666
  -OEChem-08062405143D

 27 27  0     1  0  0  0  0  0999 V2000
   -6.7816   -4.1853  -26.3405 F   0  0  0  0  0  0  0  0  0  0  0  0
   -8.0913   -4.0543  -25.9289 C   0  0  0  0  0  0  0  0  0  0  0  0
   -8.5804   -5.3088  -25.7868 F   0  0  0  0  0  0  0  0  0  0  0  0
   -8.7520   -3.5092  -26.9309 F   0  0  0  0  0  0  0  0  0  0  0  0
   -8.0981   -3.3011  -24.7641 N   0  0  0  0  0  0  0  0  0  0  0  0
   -8.9537   -3.1945  -23.8845 C   0  0  0  0  0  0  0  0  0  0  0  0
   -9.5827   -2.4584  -23.2417 C   0  0  0  0  0  0  0  0  0  0  0  0
  -10.6004   -1.4810  -23.0711 C   0  0  1  0  0  0  0  0  0  0  0  0
  -10.6252   -1.0000  -24.0556 H   0  0  0  0  0  0  0  0  0  0  0  0
  -12.6234   -0.8469  -22.9592 H   0  0  0  0  0  0  0  0  0  0  0  0
  -12.5675   -2.4378  -23.5320 H   0  0  0  0  0  0  0  0  0  0  0  0
  -12.2398   -2.1880  -21.8195 H   0  0  0  0  0  0  0  0  0  0  0  0
  -12.1107   -1.7953  -22.8113 C   0  0  0  0  0  0  0  0  0  0  0  0
  -10.1735   -0.6435  -22.0449 O   0  0  0  0  0  0  0  0  0  0  0  0
   -9.2718   -0.1841  -21.1640 C   0  0  0  0  0  0  0  0  0  0  0  0
   -9.6705    0.6771  -20.4676 O   0  0  0  0  0  0  0  0  0  0  0  0
   -7.9606   -0.6755  -21.0751 N   0  0  0  0  0  0  0  0  0  0  0  0
   -6.7393    0.5485  -19.5123 C   0  0  0  0  0  0  0  0  0  0  0  0
   -7.5590    0.2706  -18.4592 N   0  5  0  0  0  0  0  0  0  0  0  0
   -7.0016    0.7733  -17.4176 N   0  0  0  0  0  0  0  0  0  0  0  0
   -5.8339    1.3662  -17.8044 N   0  0  0  0  0  0  0  0  0  0  0  0
   -5.6325    1.2926  -19.0235 N   0  0  0  0  0  0  0  0  0  0  0  0
   -6.9267    0.1628  -20.7963 C   0  0  0  0  0  2  0  0  0  0  0  0
   -7.9607   -2.3631  -25.0823 H   0  0  0  0  0  0  0  0  0  0  0  0
   -9.2343   -4.1949  -23.5899 H   0  0  0  0  0  0  0  0  0  0  0  0
   -9.1812   -2.5832  -22.2469 H   0  0  0  0  0  0  0  0  0  0  0  0
   -7.7849   -1.6496  -21.2178 H   0  0  0  0  0  0  0  0  0  0  0  0
 20 21  2  0  0  0  0
 19 20  1  0  0  0  0
 21 22  1  0  0  0  0
 18 19  1  0  0  0  0
 18 22  2  0  0  0  0
 18 23  1  0  0  0  0
 15 16  2  0  0  0  0
 17 23  1  0  0  0  0
 15 17  1  0  0  0  0
 14 15  1  0  0  0  0
 12 13  1  0  0  0  0
  8 14  1  0  0  0  0
  8 13  1  0  0  0  0
 10 13  1  0  0  0  0
 11 13  1  0  0  0  0
  7  8  1  0  0  0  0
  8  9  1  0  0  0  0
  6  7  2  3  0  0  0
  5  6  1  0  0  0  0
  2  5  1  0  0  0  0
  2  3  1  0  0  0  0
  1  2  1  0  0  0  0
  2  4  1  0  0  0  0
  5 24  1  0  0  0  0
  6 25  1  0  0  0  0
  7 26  1  0  0  0  0
 17 27  1  0  0  0  0
M  CHG  1  19  -1
M  END
> <Chemgauss4>
-7.792361

$$$$
