stable:False satoms:21 tatoms:24 sratio:0.875
  -OEChem-07092417363D

 24 23  0     1  0  0  0  0  0999 V2000
    7.6522   -4.0563   26.5293 H   0  0  0  0  0  0  0  0  0  0  0  0
    7.8705   -3.1296   25.0699 H   0  0  0  0  0  0  0  0  0  0  0  0
    8.3815   -3.5313   25.9375 C   0  0  0  0  0  0  0  0  0  0  0  0
    8.8027   -2.7425   26.5452 H   0  0  0  0  0  0  0  0  0  0  0  0
    9.1596   -4.1542   25.5696 H   0  0  0  0  0  0  0  0  0  0  0  0
   11.3100   -0.5022   23.5940 C   0  0  0  0  0  0  0  0  0  0  0  0
   10.1704   -1.3787   23.9384 C   0  0  0  0  0  0  0  0  0  0  0  0
   10.5091   -2.2139   24.5282 H   0  0  0  0  0  0  0  0  0  0  0  0
    9.2437   -0.9968   24.3189 H   0  0  0  0  0  0  0  0  0  0  0  0
   11.3751    0.2519   24.3748 H   0  0  0  0  0  0  0  0  0  0  0  0
   12.3248   -0.4853   23.1982 H   0  0  0  0  0  0  0  0  0  0  0  0
   10.8528   -1.6599   21.7748 H   0  0  0  0  0  0  0  0  0  0  0  0
   10.4200   -0.9980   22.5047 C   0  0  0  0  0  0  0  0  0  0  0  0
    9.4431   -0.0402   21.8041 C   0  0  0  0  0  0  0  0  0  0  0  0
    8.4530   -0.6648   20.8642 C   0  0  0  0  0  0  0  0  0  0  0  0
    9.5160    1.1419   21.9327 O   0  0  0  0  0  0  0  0  0  0  0  0
    6.6908   -1.6734   19.4077 H   0  0  0  0  0  0  0  0  0  0  0  0
    6.4077   -0.6240   19.3803 C   0  0  0  0  0  0  0  0  0  0  0  0
    8.6262   -1.7696   20.4592 O   0  0  0  0  0  0  0  0  0  0  0  0
    6.9765    1.2953   20.2344 O   0  0  0  0  0  0  0  0  0  0  0  0
    6.4905   -0.1914   18.3598 H   0  0  0  0  0  0  0  0  0  0  0  0
    5.3600   -0.4744   19.6540 H   0  0  0  0  0  0  0  0  0  0  0  0
    7.2806    0.0758   20.2846 C   0  0  3  0  0  0  0  0  0  0  0  0
    6.2673    1.2313   21.0323 H   0  0  0  0  0  0  0  0  0  0  0  0
 18 21  1  0  0  0  0
 17 18  1  0  0  0  0
 18 22  1  0  0  0  0
 18 23  1  0  0  0  0
 20 23  1  0  0  0  0
 20 24  1  0  0  0  0
 15 23  1  0  0  0  0
 15 19  2  0  0  0  0
 14 15  1  0  0  0  0
 12 13  1  0  0  0  0
 14 16  2  0  0  0  0
 13 14  1  0  0  0  0
  6 13  1  0  0  0  0
  7 13  1  0  0  0  0
  6 11  1  0  0  0  0
  6  7  1  0  0  0  0
  6 10  1  0  0  0  0
  7  9  1  0  0  0  0
  7  8  1  0  0  0  0
  2  3  1  0  0  0  0
  3  5  1  0  0  0  0
  1  3  1  0  0  0  0
  3  4  1  0  0  0  0
M  END
> <Shapegauss>
-124.370850

$$$$
