MODEL 1
REMARK VINA RESULT:    -6.601      0.000      0.000
REMARK INTER + INTRA:         -11.224
REMARK INTER:                  -9.688
REMARK INTRA:                  -1.536
REMARK UNBOUND:                -1.536
REMARK  8 active torsions:
REMARK  status: ('A' for Active; 'I' for Inactive)
REMARK    1  A    between atoms: S_2  and  N_5 
REMARK    2  A    between atoms: N_5  and  C_7 
REMARK    3  A    between atoms: C_9  and  C_14 
REMARK    4  A    between atoms: C_11  and  C_12 
REMARK    5  A    between atoms: C_12  and  C_13 
REMARK    6  A    between atoms: C_13  and  C_14 
REMARK    7  A    between atoms: C_15  and  C_16 
REMARK       I    between atoms: C_16  and  N_18 
REMARK    8  A    between atoms: N_18  and  C_20 
ROOT
HETATM    1  C   UNL     1       8.064  -0.159  21.523  1.00  0.00     0.108 C 
HETATM    2  C   UNL     1       8.616  -1.116  22.182  1.00  0.00    -0.017 A 
HETATM    3  C   UNL     1       9.559  -1.901  22.314  1.00  0.00     0.082 A 
HETATM    4  C   UNL     1       9.074  -2.401  23.315  1.00  0.00     0.031 A 
ENDROOT
BRANCH   4   5
HETATM    5  C   UNL     1       8.617  -2.918  24.448  1.00  0.00     0.253 C 
HETATM    6  O   UNL     1       8.624  -2.249  25.368  1.00  0.00    -0.268 OA
HETATM    7  N   UNL     1       8.185  -4.163  24.297  1.00  0.00    -0.321 N 
ATOM      8  HN  UNL     1       8.269  -4.629  23.394  1.00  0.00     0.169 HD
BRANCH   7   9
HETATM    9  C   UNL     1       7.676  -4.761  25.269  1.00  0.00     0.056 A 
HETATM   10  C   UNL     1       8.095  -5.343  26.363  1.00  0.00     0.117 A 
HETATM   11  N   UNL     1       7.830  -5.909  27.422  1.00  0.00    -0.373 N 
HETATM   12  C   UNL     1       6.497  -5.971  27.337  1.00  0.00     0.088 A 
ATOM     13  HN  UNL     1       8.453  -6.238  28.160  1.00  0.00     0.164 HD
HETATM   14  C   UNL     1       5.808  -5.547  26.440  1.00  0.00     0.026 A 
HETATM   15  C   UNL     1       6.091  -4.891  25.337  1.00  0.00    -0.033 A 
HETATM   16  C   UNL     1       5.136  -4.319  24.188  1.00  0.00     0.050 C 
ENDBRANCH   7   9
ENDBRANCH   4   5
BRANCH   3  17
HETATM   17  C   UNL     1      11.094  -1.431  22.576  1.00  0.00    -0.016 C 
BRANCH  17  18
HETATM   18  C   UNL     1      11.469  -0.514  23.045  1.00  0.00    -0.026 C 
BRANCH  18  19
HETATM   19  C   UNL     1      11.809  -0.323  24.394  1.00  0.00     0.053 C 
BRANCH  19  20
HETATM   20  C   UNL     1      10.757   0.526  25.110  1.00  0.00    -0.033 C 
HETATM   21  C   UNL     1      10.102   1.171  24.783  1.00  0.00     0.007 C 
ENDBRANCH  19  20
ENDBRANCH  18  19
ENDBRANCH  17  18
ENDBRANCH   3  17
BRANCH   1  22
HETATM   22  N   UNL     1       7.186   0.447  21.131  1.00  0.00    -0.295 N 
ATOM     23  HN  UNL     1       6.762   1.067  21.821  1.00  0.00     0.177 HD
BRANCH  22  24
HETATM   24  S   UNL     1       6.479   0.499  19.652  1.00  0.00     0.226 S 
HETATM   25  C   UNL     1       5.621  -0.830  19.400  1.00  0.00     0.186 C 
HETATM   26  O   UNL     1       5.595   1.643  19.599  1.00  0.00    -0.206 OA
HETATM   27  O   UNL     1       7.483   0.582  18.637  1.00  0.00    -0.206 OA
ENDBRANCH  22  24
ENDBRANCH   1  22
TORSDOF 8
ENDMDL
MODEL 2
REMARK VINA RESULT:    -6.407      1.630      1.980
REMARK INTER + INTRA:         -10.939
REMARK INTER:                 -10.049
REMARK INTRA:                  -0.890
REMARK UNBOUND:                -1.536
REMARK  8 active torsions:
REMARK  status: ('A' for Active; 'I' for Inactive)
REMARK    1  A    between atoms: S_2  and  N_5 
REMARK    2  A    between atoms: N_5  and  C_7 
REMARK    3  A    between atoms: C_9  and  C_14 
REMARK    4  A    between atoms: C_11  and  C_12 
REMARK    5  A    between atoms: C_12  and  C_13 
REMARK    6  A    between atoms: C_13  and  C_14 
REMARK    7  A    between atoms: C_15  and  C_16 
REMARK       I    between atoms: C_16  and  N_18 
REMARK    8  A    between atoms: N_18  and  C_20 
ROOT
HETATM    1  C   UNL     1       6.828  -1.084  21.246  1.00  0.00     0.108 C 
HETATM    2  C   UNL     1       7.451  -1.961  21.952  1.00  0.00    -0.017 A 
HETATM    3  C   UNL     1       8.500  -2.343  22.477  1.00  0.00     0.082 A 
HETATM    4  C   UNL     1       7.970  -3.338  22.941  1.00  0.00     0.031 A 
ENDROOT
BRANCH   4   5
HETATM    5  C   UNL     1       7.413  -4.391  23.525  1.00  0.00     0.253 C 
HETATM    6  O   UNL     1       7.657  -5.416  23.097  1.00  0.00    -0.268 OA
HETATM    7  N   UNL     1       6.664  -4.053  24.567  1.00  0.00    -0.321 N 
ATOM      8  HN  UNL     1       6.535  -3.071  24.809  1.00  0.00     0.169 HD
BRANCH   7   9
HETATM    9  C   UNL     1       6.119  -4.947  25.250  1.00  0.00     0.056 A 
HETATM   10  C   UNL     1       6.410  -5.655  26.310  1.00  0.00     0.117 A 
HETATM   11  N   UNL     1       6.064  -6.485  27.149  1.00  0.00    -0.373 N 
HETATM   12  C   UNL     1       4.852  -6.808  26.685  1.00  0.00     0.088 A 
ATOM     13  HN  UNL     1       6.563  -6.831  27.969  1.00  0.00     0.164 HD
HETATM   14  C   UNL     1       4.304  -6.351  25.710  1.00  0.00     0.026 A 
HETATM   15  C   UNL     1       4.653  -5.421  24.850  1.00  0.00    -0.033 A 
HETATM   16  C   UNL     1       3.875  -4.823  23.586  1.00  0.00     0.050 C 
ENDBRANCH   7   9
ENDBRANCH   4   5
BRANCH   3  17
HETATM   17  C   UNL     1       9.291  -1.507  23.627  1.00  0.00    -0.016 C 
BRANCH  17  18
HETATM   18  C   UNL     1      10.162  -0.849  23.531  1.00  0.00    -0.026 C 
BRANCH  18  19
HETATM   19  C   UNL     1      10.915  -0.272  24.566  1.00  0.00     0.053 C 
BRANCH  19  20
HETATM   20  C   UNL     1      12.329   0.069  24.090  1.00  0.00    -0.033 C 
HETATM   21  C   UNL     1      13.192  -0.357  24.244  1.00  0.00     0.007 C 
ENDBRANCH  19  20
ENDBRANCH  18  19
ENDBRANCH  17  18
ENDBRANCH   3  17
BRANCH   1  22
HETATM   22  N   UNL     1       6.029  -0.726  20.521  1.00  0.00    -0.295 N 
ATOM     23  HN  UNL     1       5.074  -0.926  20.817  1.00  0.00     0.177 HD
BRANCH  22  24
HETATM   24  S   UNL     1       6.142   0.056  19.084  1.00  0.00     0.226 S 
HETATM   25  C   UNL     1       5.103   1.274  19.031  1.00  0.00     0.186 C 
HETATM   26  O   UNL     1       7.483   0.579  18.942  1.00  0.00    -0.206 OA
HETATM   27  O   UNL     1       5.829  -0.844  18.016  1.00  0.00    -0.206 OA
ENDBRANCH  22  24
ENDBRANCH   1  22
TORSDOF 8
ENDMDL
MODEL 3
REMARK VINA RESULT:    -6.157      1.579      2.175
REMARK INTER + INTRA:         -10.573
REMARK INTER:                  -9.570
REMARK INTRA:                  -1.003
REMARK UNBOUND:                -1.536
REMARK  8 active torsions:
REMARK  status: ('A' for Active; 'I' for Inactive)
REMARK    1  A    between atoms: S_2  and  N_5 
REMARK    2  A    between atoms: N_5  and  C_7 
REMARK    3  A    between atoms: C_9  and  C_14 
REMARK    4  A    between atoms: C_11  and  C_12 
REMARK    5  A    between atoms: C_12  and  C_13 
REMARK    6  A    between atoms: C_13  and  C_14 
REMARK    7  A    between atoms: C_15  and  C_16 
REMARK       I    between atoms: C_16  and  N_18 
REMARK    8  A    between atoms: N_18  and  C_20 
ROOT
HETATM    1  C   UNL     1       8.814  -0.599  21.302  1.00  0.00     0.108 C 
HETATM    2  C   UNL     1       8.766  -1.457  22.260  1.00  0.00    -0.017 A 
HETATM    3  C   UNL     1       9.341  -2.052  23.176  1.00  0.00     0.082 A 
HETATM    4  C   UNL     1       8.335  -2.671  23.478  1.00  0.00     0.031 A 
ENDROOT
BRANCH   4   5
HETATM    5  C   UNL     1       7.245  -3.308  23.886  1.00  0.00     0.253 C 
HETATM    6  O   UNL     1       6.311  -2.683  24.061  1.00  0.00    -0.268 OA
HETATM    7  N   UNL     1       7.433  -4.617  23.991  1.00  0.00    -0.321 N 
ATOM      8  HN  UNL     1       8.353  -5.018  23.809  1.00  0.00     0.169 HD
BRANCH   7   9
HETATM    9  C   UNL     1       6.477  -5.353  24.314  1.00  0.00     0.056 A 
HETATM   10  C   UNL     1       5.529  -6.016  23.703  1.00  0.00     0.117 A 
HETATM   11  N   UNL     1       4.579  -6.794  23.768  1.00  0.00    -0.373 N 
HETATM   12  C   UNL     1       4.495  -6.965  25.092  1.00  0.00     0.088 A 
ATOM     13  HN  UNL     1       4.012  -7.196  23.021  1.00  0.00     0.164 HD
HETATM   14  C   UNL     1       5.208  -6.471  25.933  1.00  0.00     0.026 A 
HETATM   15  C   UNL     1       6.260  -5.686  25.855  1.00  0.00    -0.033 A 
HETATM   16  C   UNL     1       7.197  -5.080  27.001  1.00  0.00     0.050 C 
ENDBRANCH   7   9
ENDBRANCH   4   5
BRANCH   3  17
HETATM   17  C   UNL     1       9.985  -1.306  24.470  1.00  0.00    -0.016 C 
BRANCH  17  18
HETATM   18  C   UNL     1      10.139  -0.236  24.649  1.00  0.00    -0.026 C 
BRANCH  18  19
HETATM   19  C   UNL     1      11.362   0.437  24.797  1.00  0.00     0.053 C 
BRANCH  19  20
HETATM   20  C   UNL     1      12.537  -0.475  24.437  1.00  0.00    -0.033 C 
HETATM   21  C   UNL     1      13.383  -0.305  23.982  1.00  0.00     0.007 C 
ENDBRANCH  19  20
ENDBRANCH  18  19
ENDBRANCH  17  18
ENDBRANCH   3  17
BRANCH   1  22
HETATM   22  N   UNL     1       8.508  -0.159  20.299  1.00  0.00    -0.295 N 
ATOM     23  HN  UNL     1       9.274  -0.058  19.634  1.00  0.00     0.177 HD
BRANCH  22  24
HETATM   24  S   UNL     1       7.053   0.345  19.736  1.00  0.00     0.226 S 
HETATM   25  C   UNL     1       5.987  -0.849  19.807  1.00  0.00     0.186 C 
HETATM   26  O   UNL     1       6.587   1.438  20.561  1.00  0.00    -0.206 OA
HETATM   27  O   UNL     1       7.176   0.752  18.370  1.00  0.00    -0.206 OA
ENDBRANCH  22  24
ENDBRANCH   1  22
TORSDOF 8
ENDMDL
MODEL 4
REMARK VINA RESULT:    -5.819      3.334      7.705
REMARK INTER + INTRA:         -10.076
REMARK INTER:                  -9.059
REMARK INTRA:                  -1.017
REMARK UNBOUND:                -1.536
REMARK  8 active torsions:
REMARK  status: ('A' for Active; 'I' for Inactive)
REMARK    1  A    between atoms: S_2  and  N_5 
REMARK    2  A    between atoms: N_5  and  C_7 
REMARK    3  A    between atoms: C_9  and  C_14 
REMARK    4  A    between atoms: C_11  and  C_12 
REMARK    5  A    between atoms: C_12  and  C_13 
REMARK    6  A    between atoms: C_13  and  C_14 
REMARK    7  A    between atoms: C_15  and  C_16 
REMARK       I    between atoms: C_16  and  N_18 
REMARK    8  A    between atoms: N_18  and  C_20 
ROOT
HETATM    1  C   UNL     1       7.314  -5.365  26.297  1.00  0.00     0.108 C 
HETATM    2  C   UNL     1       7.701  -4.854  25.182  1.00  0.00    -0.017 A 
HETATM    3  C   UNL     1       7.924  -4.994  23.976  1.00  0.00     0.082 A 
HETATM    4  C   UNL     1       8.273  -3.833  23.850  1.00  0.00     0.031 A 
ENDROOT
BRANCH   4   5
HETATM    5  C   UNL     1       8.587  -2.558  23.656  1.00  0.00     0.253 C 
HETATM    6  O   UNL     1       8.048  -2.010  22.818  1.00  0.00    -0.268 OA
HETATM    7  N   UNL     1       9.486  -2.121  24.528  1.00  0.00    -0.321 N 
ATOM      8  HN  UNL     1       9.886  -2.760  25.215  1.00  0.00     0.169 HD
BRANCH   7   9
HETATM    9  C   UNL     1       9.839  -0.923  24.501  1.00  0.00     0.056 A 
HETATM   10  C   UNL     1       9.411   0.213  24.987  1.00  0.00     0.117 A 
HETATM   11  N   UNL     1       9.581   1.421  25.147  1.00  0.00    -0.373 N 
HETATM   12  C   UNL     1      10.702   1.604  24.440  1.00  0.00     0.088 A 
ATOM     13  HN  UNL     1       9.024   2.095  25.673  1.00  0.00     0.164 HD
HETATM   14  C   UNL     1      11.330   0.759  23.847  1.00  0.00     0.026 A 
HETATM   15  C   UNL     1      11.176  -0.541  23.727  1.00  0.00    -0.033 A 
HETATM   16  C   UNL     1      12.058  -1.629  22.954  1.00  0.00     0.050 C 
ENDBRANCH   7   9
ENDBRANCH   4   5
BRANCH   3  17
HETATM   17  C   UNL     1       6.779  -5.387  22.888  1.00  0.00    -0.016 C 
BRANCH  17  18
HETATM   18  C   UNL     1       5.941  -4.787  22.516  1.00  0.00    -0.026 C 
BRANCH  18  19
HETATM   19  C   UNL     1       4.849  -4.298  23.249  1.00  0.00     0.053 C 
BRANCH  19  20
HETATM   20  C   UNL     1       3.909  -5.435  23.657  1.00  0.00    -0.033 C 
HETATM   21  C   UNL     1       3.206  -5.908  23.175  1.00  0.00     0.007 C 
ENDBRANCH  19  20
ENDBRANCH  18  19
ENDBRANCH  17  18
ENDBRANCH   3  17
BRANCH   1  22
HETATM   22  N   UNL     1       7.292  -5.467  27.430  1.00  0.00    -0.295 N 
ATOM     23  HN  UNL     1       8.189  -5.294  27.884  1.00  0.00     0.177 HD
BRANCH  22  24
HETATM   24  S   UNL     1       6.073  -5.842  28.460  1.00  0.00     0.226 S 
HETATM   25  C   UNL     1       4.680  -5.283  27.900  1.00  0.00     0.186 C 
HETATM   26  O   UNL     1       5.986  -7.281  28.575  1.00  0.00    -0.206 OA
HETATM   27  O   UNL     1       6.314  -5.242  29.736  1.00  0.00    -0.206 OA
ENDBRANCH  22  24
ENDBRANCH   1  22
TORSDOF 8
ENDMDL
MODEL 5
REMARK VINA RESULT:    -5.819      2.504      3.202
REMARK INTER + INTRA:         -10.076
REMARK INTER:                  -8.474
REMARK INTRA:                  -1.602
REMARK UNBOUND:                -1.536
REMARK  8 active torsions:
REMARK  status: ('A' for Active; 'I' for Inactive)
REMARK    1  A    between atoms: S_2  and  N_5 
REMARK    2  A    between atoms: N_5  and  C_7 
REMARK    3  A    between atoms: C_9  and  C_14 
REMARK    4  A    between atoms: C_11  and  C_12 
REMARK    5  A    between atoms: C_12  and  C_13 
REMARK    6  A    between atoms: C_13  and  C_14 
REMARK    7  A    between atoms: C_15  and  C_16 
REMARK       I    between atoms: C_16  and  N_18 
REMARK    8  A    between atoms: N_18  and  C_20 
ROOT
HETATM    1  C   UNL     1       9.108   1.736  21.965  1.00  0.00     0.108 C 
HETATM    2  C   UNL     1       9.136   0.451  21.904  1.00  0.00    -0.017 A 
HETATM    3  C   UNL     1       9.781  -0.584  21.719  1.00  0.00     0.082 A 
HETATM    4  C   UNL     1       8.806  -1.291  21.908  1.00  0.00     0.031 A 
ENDROOT
BRANCH   4   5
HETATM    5  C   UNL     1       7.787  -2.096  22.182  1.00  0.00     0.253 C 
HETATM    6  O   UNL     1       6.742  -1.649  22.135  1.00  0.00    -0.268 OA
HETATM    7  N   UNL     1       8.179  -3.336  22.441  1.00  0.00    -0.321 N 
ATOM      8  HN  UNL     1       9.172  -3.567  22.459  1.00  0.00     0.169 HD
BRANCH   7   9
HETATM    9  C   UNL     1       7.323  -4.219  22.663  1.00  0.00     0.056 A 
HETATM   10  C   UNL     1       6.599  -5.051  21.961  1.00  0.00     0.117 A 
HETATM   11  N   UNL     1       5.794  -5.980  21.931  1.00  0.00    -0.373 N 
HETATM   12  C   UNL     1       5.547  -6.130  23.237  1.00  0.00     0.088 A 
ATOM     13  HN  UNL     1       5.418  -6.494  21.133  1.00  0.00     0.164 HD
HETATM   14  C   UNL     1       6.037  -5.498  24.143  1.00  0.00     0.026 A 
HETATM   15  C   UNL     1       6.942  -4.545  24.174  1.00  0.00    -0.033 A 
HETATM   16  C   UNL     1       7.586  -3.757  25.408  1.00  0.00     0.050 C 
ENDBRANCH   7   9
ENDBRANCH   4   5
BRANCH   3  17
HETATM   17  C   UNL     1      11.032  -1.045  22.652  1.00  0.00    -0.016 C 
BRANCH  17  18
HETATM   18  C   UNL     1      11.066  -1.211  23.734  1.00  0.00    -0.026 C 
BRANCH  18  19
HETATM   19  C   UNL     1      10.973  -0.246  24.750  1.00  0.00     0.053 C 
BRANCH  19  20
HETATM   20  C   UNL     1       9.638  -0.356  25.490  1.00  0.00    -0.033 C 
HETATM   21  C   UNL     1       8.856   0.225  25.518  1.00  0.00     0.007 C 
ENDBRANCH  19  20
ENDBRANCH  18  19
ENDBRANCH  17  18
ENDBRANCH   3  17
BRANCH   1  22
HETATM   22  N   UNL     1       8.623   2.760  21.871  1.00  0.00    -0.295 N 
ATOM     23  HN  UNL     1       9.197   3.454  21.393  1.00  0.00     0.177 HD
BRANCH  22  24
HETATM   24  S   UNL     1       7.164   3.318  22.370  1.00  0.00     0.226 S 
HETATM   25  C   UNL     1       7.116   4.916  22.270  1.00  0.00     0.186 C 
HETATM   26  O   UNL     1       6.137   2.766  21.513  1.00  0.00    -0.206 OA
HETATM   27  O   UNL     1       6.943   2.949  23.734  1.00  0.00    -0.206 OA
ENDBRANCH  22  24
ENDBRANCH   1  22
TORSDOF 8
ENDMDL
MODEL 6
REMARK VINA RESULT:    -5.771      5.044      8.734
REMARK INTER + INTRA:         -10.007
REMARK INTER:                  -8.916
REMARK INTRA:                  -1.091
REMARK UNBOUND:                -1.536
REMARK  8 active torsions:
REMARK  status: ('A' for Active; 'I' for Inactive)
REMARK    1  A    between atoms: S_2  and  N_5 
REMARK    2  A    between atoms: N_5  and  C_7 
REMARK    3  A    between atoms: C_9  and  C_14 
REMARK    4  A    between atoms: C_11  and  C_12 
REMARK    5  A    between atoms: C_12  and  C_13 
REMARK    6  A    between atoms: C_13  and  C_14 
REMARK    7  A    between atoms: C_15  and  C_16 
REMARK       I    between atoms: C_16  and  N_18 
REMARK    8  A    between atoms: N_18  and  C_20 
ROOT
HETATM    1  C   UNL     1       9.653   0.519  21.753  1.00  0.00     0.108 C 
HETATM    2  C   UNL     1       9.103   1.645  22.041  1.00  0.00    -0.017 A 
HETATM    3  C   UNL     1       8.215   2.474  21.822  1.00  0.00     0.082 A 
HETATM    4  C   UNL     1       8.615   3.217  22.702  1.00  0.00     0.031 A 
ENDROOT
BRANCH   4   5
HETATM    5  C   UNL     1       8.973   4.015  23.700  1.00  0.00     0.253 C 
HETATM    6  O   UNL     1       8.637   3.724  24.747  1.00  0.00    -0.268 OA
HETATM    7  N   UNL     1       9.716   5.035  23.289  1.00  0.00    -0.321 N 
ATOM      8  HN  UNL     1       9.913   5.159  22.297  1.00  0.00     0.169 HD
BRANCH   7   9
HETATM    9  C   UNL     1      10.172   5.842  24.128  1.00  0.00     0.056 A 
HETATM   10  C   UNL     1       9.699   6.759  24.930  1.00  0.00     0.117 A 
HETATM   11  N   UNL     1       9.900   7.585  25.819  1.00  0.00    -0.373 N 
HETATM   12  C   UNL     1      11.228   7.490  25.944  1.00  0.00     0.088 A 
ATOM     13  HN  UNL     1       9.238   8.177  26.322  1.00  0.00     0.164 HD
HETATM   14  C   UNL     1      11.962   6.754  25.328  1.00  0.00     0.026 A 
HETATM   15  C   UNL     1      11.736   5.831  24.420  1.00  0.00    -0.033 A 
HETATM   16  C   UNL     1      12.744   4.853  23.652  1.00  0.00     0.050 C 
ENDBRANCH   7   9
ENDBRANCH   4   5
BRANCH   3  17
HETATM   17  C   UNL     1       6.628   2.161  21.991  1.00  0.00    -0.016 C 
BRANCH  17  18
HETATM   18  C   UNL     1       5.990   1.481  21.416  1.00  0.00    -0.026 C 
BRANCH  18  19
HETATM   19  C   UNL     1       5.367   1.731  20.183  1.00  0.00     0.053 C 
BRANCH  19  20
HETATM   20  C   UNL     1       5.778   0.689  19.140  1.00  0.00    -0.033 C 
HETATM   21  C   UNL     1       6.362   0.738  18.361  1.00  0.00     0.007 C 
ENDBRANCH  19  20
ENDBRANCH  18  19
ENDBRANCH  17  18
ENDBRANCH   3  17
BRANCH   1  22
HETATM   22  N   UNL     1      10.522  -0.209  21.667  1.00  0.00    -0.295 N 
ATOM     23  HN  UNL     1      10.923  -0.276  20.732  1.00  0.00     0.177 HD
BRANCH  22  24
HETATM   24  S   UNL     1      11.245  -1.171  22.782  1.00  0.00     0.226 S 
HETATM   25  C   UNL     1      11.795  -0.291  24.002  1.00  0.00     0.186 C 
HETATM   26  O   UNL     1      10.269  -2.112  23.288  1.00  0.00    -0.206 OA
HETATM   27  O   UNL     1      12.353  -1.854  22.188  1.00  0.00    -0.206 OA
ENDBRANCH  22  24
ENDBRANCH   1  22
TORSDOF 8
ENDMDL
MODEL 7
REMARK VINA RESULT:    -5.761      3.849      7.439
REMARK INTER + INTRA:          -9.991
REMARK INTER:                  -8.437
REMARK INTRA:                  -1.553
REMARK UNBOUND:                -1.536
REMARK  8 active torsions:
REMARK  status: ('A' for Active; 'I' for Inactive)
REMARK    1  A    between atoms: S_2  and  N_5 
REMARK    2  A    between atoms: N_5  and  C_7 
REMARK    3  A    between atoms: C_9  and  C_14 
REMARK    4  A    between atoms: C_11  and  C_12 
REMARK    5  A    between atoms: C_12  and  C_13 
REMARK    6  A    between atoms: C_13  and  C_14 
REMARK    7  A    between atoms: C_15  and  C_16 
REMARK       I    between atoms: C_16  and  N_18 
REMARK    8  A    between atoms: N_18  and  C_20 
ROOT
HETATM    1  C   UNL     1       6.146  -5.885  26.297  1.00  0.00     0.108 C 
HETATM    2  C   UNL     1       7.095  -5.247  25.708  1.00  0.00    -0.017 A 
HETATM    3  C   UNL     1       7.987  -5.231  24.855  1.00  0.00     0.082 A 
HETATM    4  C   UNL     1       8.304  -4.086  25.129  1.00  0.00     0.031 A 
ENDROOT
BRANCH   4   5
HETATM    5  C   UNL     1       8.628  -2.818  25.346  1.00  0.00     0.253 C 
HETATM    6  O   UNL     1       8.421  -2.396  26.382  1.00  0.00    -0.268 OA
HETATM    7  N   UNL     1       9.188  -2.252  24.285  1.00  0.00    -0.321 N 
ATOM      8  HN  UNL     1       9.285  -2.775  23.416  1.00  0.00     0.169 HD
BRANCH   7   9
HETATM    9  C   UNL     1       9.595  -1.072  24.359  1.00  0.00     0.056 A 
HETATM   10  C   UNL     1      10.682  -0.456  24.745  1.00  0.00     0.117 A 
HETATM   11  N   UNL     1      11.312   0.594  24.862  1.00  0.00    -0.373 N 
HETATM   12  C   UNL     1      10.404   1.472  24.424  1.00  0.00     0.088 A 
ATOM     13  HN  UNL     1      12.263   0.751  25.198  1.00  0.00     0.164 HD
HETATM   14  C   UNL     1       9.292   1.224  24.020  1.00  0.00     0.026 A 
HETATM   15  C   UNL     1       8.644   0.094  23.843  1.00  0.00    -0.033 A 
HETATM   16  C   UNL     1       7.176  -0.188  23.272  1.00  0.00     0.050 C 
ENDBRANCH   7   9
ENDBRANCH   4   5
BRANCH   3  17
HETATM   17  C   UNL     1       7.712  -5.400  23.261  1.00  0.00    -0.016 C 
BRANCH  17  18
HETATM   18  C   UNL     1       6.791  -5.223  22.693  1.00  0.00    -0.026 C 
BRANCH  18  19
HETATM   19  C   UNL     1       6.417  -4.051  22.016  1.00  0.00     0.053 C 
BRANCH  19  20
HETATM   20  C   UNL     1       5.193  -3.407  22.672  1.00  0.00    -0.033 C 
HETATM   21  C   UNL     1       4.884  -3.381  23.597  1.00  0.00     0.007 C 
ENDBRANCH  19  20
ENDBRANCH  18  19
ENDBRANCH  17  18
ENDBRANCH   3  17
BRANCH   1  22
HETATM   22  N   UNL     1       5.467  -6.141  27.173  1.00  0.00    -0.295 N 
ATOM     23  HN  UNL     1       4.483  -6.247  26.925  1.00  0.00     0.177 HD
BRANCH  22  24
HETATM   24  S   UNL     1       5.791  -6.371  28.764  1.00  0.00     0.226 S 
HETATM   25  C   UNL     1       5.405  -5.063  29.604  1.00  0.00     0.186 C 
HETATM   26  O   UNL     1       5.002  -7.484  29.244  1.00  0.00    -0.206 OA
HETATM   27  O   UNL     1       7.189  -6.621  28.943  1.00  0.00    -0.206 OA
ENDBRANCH  22  24
ENDBRANCH   1  22
TORSDOF 8
ENDMDL
MODEL 8
REMARK VINA RESULT:    -5.692     22.585     25.183
REMARK INTER + INTRA:          -9.890
REMARK INTER:                  -8.360
REMARK INTRA:                  -1.530
REMARK UNBOUND:                -1.536
REMARK  8 active torsions:
REMARK  status: ('A' for Active; 'I' for Inactive)
REMARK    1  A    between atoms: S_2  and  N_5 
REMARK    2  A    between atoms: N_5  and  C_7 
REMARK    3  A    between atoms: C_9  and  C_14 
REMARK    4  A    between atoms: C_11  and  C_12 
REMARK    5  A    between atoms: C_12  and  C_13 
REMARK    6  A    between atoms: C_13  and  C_14 
REMARK    7  A    between atoms: C_15  and  C_16 
REMARK       I    between atoms: C_16  and  N_18 
REMARK    8  A    between atoms: N_18  and  C_20 
ROOT
HETATM    1  C   UNL     1       5.268   9.201   3.349  1.00  0.00     0.108 C 
HETATM    2  C   UNL     1       5.876  10.266   2.960  1.00  0.00    -0.017 A 
HETATM    3  C   UNL     1       5.975  11.189   2.146  1.00  0.00     0.082 A 
HETATM    4  C   UNL     1       6.928  11.675   2.731  1.00  0.00     0.031 A 
ENDROOT
BRANCH   4   5
HETATM    5  C   UNL     1       7.917  12.277   3.380  1.00  0.00     0.253 C 
HETATM    6  O   UNL     1       8.546  11.639   4.079  1.00  0.00    -0.268 OA
HETATM    7  N   UNL     1       8.021  13.561   3.062  1.00  0.00    -0.321 N 
ATOM      8  HN  UNL     1       7.353  13.986   2.420  1.00  0.00     0.169 HD
BRANCH   7   9
HETATM    9  C   UNL     1       8.944  14.245   3.556  1.00  0.00     0.056 A 
HETATM   10  C   UNL     1      10.218  14.436   3.336  1.00  0.00     0.117 A 
HETATM   11  N   UNL     1      11.255  15.038   3.609  1.00  0.00    -0.373 N 
HETATM   12  C   UNL     1      10.838  15.786   4.636  1.00  0.00     0.088 A 
ATOM     13  HN  UNL     1      12.177  14.982   3.174  1.00  0.00     0.164 HD
HETATM   14  C   UNL     1       9.723  15.822   5.100  1.00  0.00     0.026 A 
HETATM   15  C   UNL     1       8.603  15.219   4.767  1.00  0.00    -0.033 A 
HETATM   16  C   UNL     1       7.135  15.323   5.396  1.00  0.00     0.050 C 
ENDBRANCH   7   9
ENDBRANCH   4   5
BRANCH   3  17
HETATM   17  C   UNL     1       4.811  12.296   1.893  1.00  0.00    -0.016 C 
BRANCH  17  18
HETATM   18  C   UNL     1       4.020  12.638   2.570  1.00  0.00    -0.026 C 
BRANCH  18  19
HETATM   19  C   UNL     1       4.055  13.742   3.437  1.00  0.00     0.053 C 
BRANCH  19  20
HETATM   20  C   UNL     1       3.976  13.293   4.898  1.00  0.00    -0.033 C 
HETATM   21  C   UNL     1       4.336  12.517   5.365  1.00  0.00     0.007 C 
ENDBRANCH  19  20
ENDBRANCH  18  19
ENDBRANCH  17  18
ENDBRANCH   3  17
BRANCH   1  22
HETATM   22  N   UNL     1       5.194   8.186   3.856  1.00  0.00    -0.295 N 
ATOM     23  HN  UNL     1       5.935   7.999   4.531  1.00  0.00     0.177 HD
BRANCH  22  24
HETATM   24  S   UNL     1       4.106   6.970   3.692  1.00  0.00     0.226 S 
HETATM   25  C   UNL     1       2.633   7.493   4.040  1.00  0.00     0.186 C 
HETATM   26  O   UNL     1       4.126   6.509   2.321  1.00  0.00    -0.206 OA
HETATM   27  O   UNL     1       4.428   5.907   4.593  1.00  0.00    -0.206 OA
ENDBRANCH  22  24
ENDBRANCH   1  22
TORSDOF 8
ENDMDL
MODEL 9
REMARK VINA RESULT:    -5.661      2.019      2.630
REMARK INTER + INTRA:          -9.844
REMARK INTER:                  -8.078
REMARK INTRA:                  -1.766
REMARK UNBOUND:                -1.536
REMARK  8 active torsions:
REMARK  status: ('A' for Active; 'I' for Inactive)
REMARK    1  A    between atoms: S_2  and  N_5 
REMARK    2  A    between atoms: N_5  and  C_7 
REMARK    3  A    between atoms: C_9  and  C_14 
REMARK    4  A    between atoms: C_11  and  C_12 
REMARK    5  A    between atoms: C_12  and  C_13 
REMARK    6  A    between atoms: C_13  and  C_14 
REMARK    7  A    between atoms: C_15  and  C_16 
REMARK       I    between atoms: C_16  and  N_18 
REMARK    8  A    between atoms: N_18  and  C_20 
ROOT
HETATM    1  C   UNL     1       7.020  -1.012  21.593  1.00  0.00     0.108 C 
HETATM    2  C   UNL     1       7.599  -2.008  22.165  1.00  0.00    -0.017 A 
HETATM    3  C   UNL     1       8.634  -2.524  22.595  1.00  0.00     0.082 A 
HETATM    4  C   UNL     1       8.046  -3.526  22.966  1.00  0.00     0.031 A 
ENDROOT
BRANCH   4   5
HETATM    5  C   UNL     1       7.432  -4.597  23.451  1.00  0.00     0.253 C 
HETATM    6  O   UNL     1       7.879  -5.613  23.202  1.00  0.00    -0.268 OA
HETATM    7  N   UNL     1       6.382  -4.282  24.198  1.00  0.00    -0.321 N 
ATOM      8  HN  UNL     1       6.104  -3.307  24.306  1.00  0.00     0.169 HD
BRANCH   7   9
HETATM    9  C   UNL     1       5.735  -5.188  24.766  1.00  0.00     0.056 A 
HETATM   10  C   UNL     1       4.787  -6.030  24.451  1.00  0.00     0.117 A 
HETATM   11  N   UNL     1       4.072  -6.979  24.771  1.00  0.00    -0.373 N 
HETATM   12  C   UNL     1       4.447  -7.147  26.044  1.00  0.00     0.088 A 
ATOM     13  HN  UNL     1       3.384  -7.493  24.220  1.00  0.00     0.164 HD
HETATM   14  C   UNL     1       5.283  -6.513  26.642  1.00  0.00     0.026 A 
HETATM   15  C   UNL     1       6.087  -5.538  26.278  1.00  0.00    -0.033 A 
HETATM   16  C   UNL     1       7.207  -4.746  27.102  1.00  0.00     0.050 C 
ENDBRANCH   7   9
ENDBRANCH   4   5
BRANCH   3  17
HETATM   17  C   UNL     1       9.528  -1.887  23.795  1.00  0.00    -0.016 C 
BRANCH  17  18
HETATM   18  C   UNL     1       9.306  -1.822  24.866  1.00  0.00    -0.026 C 
BRANCH  18  19
HETATM   19  C   UNL     1       8.635  -0.789  25.538  1.00  0.00     0.053 C 
BRANCH  19  20
HETATM   20  C   UNL     1       7.190  -1.185  25.849  1.00  0.00    -0.033 C 
HETATM   21  C   UNL     1       6.336  -0.892  25.480  1.00  0.00     0.007 C 
ENDBRANCH  19  20
ENDBRANCH  18  19
ENDBRANCH  17  18
ENDBRANCH   3  17
BRANCH   1  22
HETATM   22  N   UNL     1       6.225  -0.515  20.950  1.00  0.00    -0.295 N 
ATOM     23  HN  UNL     1       5.320  -0.985  20.963  1.00  0.00     0.177 HD
BRANCH  22  24
HETATM   24  S   UNL     1       6.277   0.824  20.004  1.00  0.00     0.226 S 
HETATM   25  C   UNL     1       4.916   0.968  19.172  1.00  0.00     0.186 C 
HETATM   26  O   UNL     1       6.432   1.986  20.851  1.00  0.00    -0.206 OA
HETATM   27  O   UNL     1       7.360   0.720  19.075  1.00  0.00    -0.206 OA
ENDBRANCH  22  24
ENDBRANCH   1  22
TORSDOF 8
ENDMDL
