REMARK  8 active torsions:
REMARK  status: ('A' for Active; 'I' for Inactive)
REMARK    1  A    between atoms: S_2  and  N_5 
REMARK    2  A    between atoms: N_5  and  C_7 
REMARK    3  A    between atoms: C_9  and  C_14 
REMARK    4  A    between atoms: C_11  and  C_12 
REMARK    5  A    between atoms: C_12  and  C_13 
REMARK    6  A    between atoms: C_13  and  C_14 
REMARK    7  A    between atoms: C_15  and  C_16 
REMARK       I    between atoms: C_16  and  N_18 
REMARK    8  A    between atoms: N_18  and  C_20 
ROOT
HETATM    1  C   UNL     1       8.958  -2.921  24.163  1.00  0.00     0.108 C 
HETATM    2  C   UNL     1       9.419  -1.940  23.470  1.00  0.00    -0.017 A 
HETATM    3  C   UNL     1      10.363  -1.197  23.188  1.00  0.00     0.082 A 
HETATM    4  C   UNL     1       9.707  -0.586  22.362  1.00  0.00     0.031 A 
ENDROOT
BRANCH   4   5
HETATM    5  C   UNL     1       9.050   0.053  21.402  1.00  0.00     0.253 C 
HETATM    6  O   UNL     1       9.534   0.988  20.972  1.00  0.00    -0.268 OA
HETATM    7  N   UNL     1       7.915  -0.552  21.078  1.00  0.00    -0.321 N 
ATOM      8  HN  UNL     1       7.616  -1.386  21.583  1.00  0.00     0.169 HD
BRANCH   7   9
HETATM    9  C   UNL     1       7.215  -0.093  20.150  1.00  0.00     0.056 A 
HETATM   10  C   UNL     1       7.285  -0.012  18.847  1.00  0.00     0.117 A 
HETATM   11  N   UNL     1       6.759   0.308  17.782  1.00  0.00    -0.373 N 
HETATM   12  C   UNL     1       5.626   0.862  18.228  1.00  0.00     0.088 A 
ATOM     13  HN  UNL     1       7.093   0.185  16.826  1.00  0.00     0.164 HD
HETATM   14  C   UNL     1       5.275   0.966  19.379  1.00  0.00     0.026 A 
HETATM   15  C   UNL     1       5.814   0.570  20.511  1.00  0.00    -0.033 A 
HETATM   16  C   UNL     1       5.293   0.703  22.018  1.00  0.00     0.050 C 
ENDBRANCH   7   9
ENDBRANCH   4   5
BRANCH   3  17
HETATM   17  C   UNL     1      11.766  -1.723  22.554  1.00  0.00    -0.016 C 
BRANCH  17  18
HETATM   18  C   UNL     1      12.770  -1.292  22.638  1.00  0.00    -0.026 C 
BRANCH  18  19
HETATM   19  C   UNL     1      13.178  -0.231  23.462  1.00  0.00     0.053 C 
BRANCH  19  20
HETATM   20  C   UNL     1      12.004   0.309  24.282  1.00  0.00    -0.033 C 
HETATM   21  C   UNL     1      11.064   0.054  24.326  1.00  0.00     0.007 C 
ENDBRANCH  19  20
ENDBRANCH  18  19
ENDBRANCH  17  18
ENDBRANCH   3  17
BRANCH   1  22
HETATM   22  N   UNL     1       8.146  -3.512  24.696  1.00  0.00    -0.295 N 
ATOM     23  HN  UNL     1       7.257  -3.548  24.197  1.00  0.00     0.177 HD
BRANCH  22  24
HETATM   24  S   UNL     1       8.152  -4.316  26.125  1.00  0.00     0.226 S 
HETATM   25  C   UNL     1       6.670  -4.795  26.499  1.00  0.00     0.186 C 
HETATM   26  O   UNL     1       9.002  -5.480  26.001  1.00  0.00    -0.206 OA
HETATM   27  O   UNL     1       8.618  -3.452  27.166  1.00  0.00    -0.206 OA
ENDBRANCH  22  24
ENDBRANCH   1  22
TORSDOF 8
