
 OpenBabel07202414163D

 46 47  0  0  0  0  0  0  0  0999 V2000
   -4.1931    6.7628    4.1719 C   0  0  0  0  0  0  0  0  0  0  0  0
   -2.9819    5.9331    4.4962 C   0  0  0  0  0  0  0  0  0  0  0  0
   -2.4059    6.0891    5.7692 C   0  0  0  0  0  0  0  0  0  0  0  0
   -1.3002    5.3314    6.1162 C   0  0  0  0  0  0  0  0  0  0  0  0
   -0.7440    4.4230    5.3003 N   0  0  0  0  0  0  0  0  0  0  0  0
   -1.3079    4.2818    4.0735 C   0  0  0  0  0  0  0  0  0  0  0  0
   -2.4098    5.0048    3.6040 C   0  0  0  0  0  0  0  0  0  0  0  0
   -2.9505    4.8202    2.3007 N   0  0  0  0  0  0  0  0  0  0  0  0
   -2.3279    4.1511    1.2587 C   0  0  0  0  0  0  0  0  0  0  0  0
   -1.1759    3.7138    1.2923 O   0  0  0  0  0  0  0  0  0  0  0  0
   -3.1034    4.0665   -0.0505 C   0  0  0  0  0  0  0  0  0  0  0  0
   -4.5789    3.7866    0.0822 C   0  0  0  0  0  0  0  0  0  0  0  0
   -5.5153    4.8311   -0.0033 C   0  0  0  0  0  0  0  0  0  0  0  0
   -6.8869    4.5950    0.1587 C   0  0  0  0  0  0  0  0  0  0  0  0
   -7.3035    3.2966    0.4778 C   0  0  0  0  0  0  0  0  0  0  0  0
   -6.3866    2.2454    0.5121 C   0  0  0  0  0  0  0  0  0  0  0  0
   -5.0309    2.4808    0.3059 C   0  0  0  0  0  0  0  0  0  0  0  0
   -6.9398    0.6406    0.7966 Cl  0  0  0  0  0  0  0  0  0  0  0  0
   -7.8440    5.6283    0.0627 N   0  0  0  0  0  0  0  0  0  0  0  0
   -7.7179    6.4737   -1.1425 C   0  0  0  0  0  0  0  0  0  0  0  0
   -8.9233    7.4264   -1.3513 C   0  0  0  0  0  0  0  0  0  0  0  0
  -10.2193    6.6442   -1.6237 C   0  0  0  0  0  0  0  0  0  0  0  0
   -9.1250    8.3451   -0.1360 C   0  0  0  0  0  0  0  0  0  0  0  0
   -8.6281    8.2651   -2.5369 C   0  0  0  0  0  0  0  0  0  0  0  0
   -8.3971    8.9168   -3.4727 N   0  0  0  0  0  0  0  0  0  0  0  0
   -4.3044    7.5917    4.8817 H   0  0  0  0  0  0  0  0  0  0  0  0
   -5.0971    6.1490    4.2296 H   0  0  0  0  0  0  0  0  0  0  0  0
   -4.1125    7.2123    3.1781 H   0  0  0  0  0  0  0  0  0  0  0  0
   -2.8049    6.7986    6.4888 H   0  0  0  0  0  0  0  0  0  0  0  0
   -0.8246    5.4374    7.0865 H   0  0  0  0  0  0  0  0  0  0  0  0
   -0.8273    3.5097    3.4818 H   0  0  0  0  0  0  0  0  0  0  0  0
   -3.8327    5.2748    2.1057 H   0  0  0  0  0  0  0  0  0  0  0  0
   -2.6571    3.2567   -0.6436 H   0  0  0  0  0  0  0  0  0  0  0  0
   -2.9303    4.9903   -0.6139 H   0  0  0  0  0  0  0  0  0  0  0  0
   -5.1603    5.8424   -0.1885 H   0  0  0  0  0  0  0  0  0  0  0  0
   -8.3519    3.0875    0.6713 H   0  0  0  0  0  0  0  0  0  0  0  0
   -4.3280    1.6497    0.3252 H   0  0  0  0  0  0  0  0  0  0  0  0
   -8.7787    5.2343    0.1571 H   0  0  0  0  0  0  0  0  0  0  0  0
   -7.6095    5.8313   -2.0288 H   0  0  0  0  0  0  0  0  0  0  0  0
   -6.8040    7.0764   -1.0676 H   0  0  0  0  0  0  0  0  0  0  0  0
  -10.5244    6.0414   -0.7617 H   0  0  0  0  0  0  0  0  0  0  0  0
  -10.1031    5.9679   -2.4809 H   0  0  0  0  0  0  0  0  0  0  0  0
  -11.0505    7.3202   -1.8570 H   0  0  0  0  0  0  0  0  0  0  0  0
   -9.4614    7.7830    0.7422 H   0  0  0  0  0  0  0  0  0  0  0  0
   -9.8766    9.1169   -0.3410 H   0  0  0  0  0  0  0  0  0  0  0  0
   -8.1951    8.8612    0.1302 H   0  0  0  0  0  0  0  0  0  0  0  0
  1  2  1  0  0  0  0
  1 26  1  0  0  0  0
  1 27  1  0  0  0  0
  1 28  1  0  0  0  0
  2  3  1  0  0  0  0
  2  7  2  0  0  0  0
  3  4  2  0  0  0  0
  3 29  1  0  0  0  0
  4  5  1  0  0  0  0
  4 30  1  0  0  0  0
  5  6  2  0  0  0  0
  6  7  1  0  0  0  0
  6 31  1  0  0  0  0
  7  8  1  0  0  0  0
  8  9  1  0  0  0  0
  8 32  1  0  0  0  0
  9 10  2  0  0  0  0
  9 11  1  0  0  0  0
 11 12  1  0  0  0  0
 11 33  1  0  0  0  0
 11 34  1  0  0  0  0
 12 13  1  0  0  0  0
 12 17  2  0  0  0  0
 13 14  2  0  0  0  0
 13 35  1  0  0  0  0
 14 15  1  0  0  0  0
 14 19  1  0  0  0  0
 15 16  2  0  0  0  0
 15 36  1  0  0  0  0
 16 17  1  0  0  0  0
 16 18  1  0  0  0  0
 17 37  1  0  0  0  0
 19 20  1  0  0  0  0
 19 38  1  0  0  0  0
 20 21  1  0  0  0  0
 20 39  1  0  0  0  0
 20 40  1  0  0  0  0
 21 22  1  0  0  0  0
 21 23  1  0  0  0  0
 21 24  1  0  0  0  0
 22 41  1  0  0  0  0
 22 42  1  0  0  0  0
 22 43  1  0  0  0  0
 23 44  1  0  0  0  0
 23 45  1  0  0  0  0
 23 46  1  0  0  0  0
 24 25  3  0  0  0  0
M  END
$$$$
