stable:False satoms:20 tatoms:24 sratio:0.8333333333333334
  -OEChem-08052415003D

 26 27  0     1  0  0  0  0  0999 V2000
   -9.1408   -0.3909  -22.2395 C   0  0  0  0  0  0  0  0  0  0  0  0
   -9.6655    0.5829  -21.3638 C   0  0  0  0  0  0  0  0  0  0  0  0
   -5.7849    0.9559  -22.6958 N   0  0  0  0  0  0  0  0  0  0  0  0
   -8.7755   -3.5968  -22.6457 N   0  0  0  0  0  0  0  0  0  0  0  0
  -11.2669    0.9278  -24.1423 H   0  0  0  0  0  0  0  0  0  0  0  0
  -10.7273    0.6188  -21.1688 H   0  0  0  0  0  0  0  0  0  0  0  0
  -14.4130   -1.9585  -23.8633 H   0  0  0  0  0  0  0  0  0  0  0  0
   -7.1019    2.4106  -20.7297 H   0  0  0  0  0  0  0  0  0  0  0  0
   -9.3523   -2.6156  -22.7747 C   0  0  0  0  0  0  0  0  0  0  0  0
   -9.9540   -1.3721  -22.8089 C   0  0  3  0  0  0  0  0  0  0  0  0
   -7.2958   -1.1513  -23.0398 H   0  0  0  0  0  0  0  0  0  0  0  0
  -13.8766    0.5878  -24.4620 H   0  0  0  0  0  0  0  0  0  0  0  0
   -5.1442    1.6302  -22.3536 H   0  0  0  0  0  0  0  0  0  0  0  0
  -11.8168    0.0339  -23.9192 C   0  0  0  0  0  0  0  0  0  0  0  0
  -12.0696   -3.1528  -23.4667 H   0  0  0  0  0  0  0  0  0  0  0  0
   -5.3958    0.2798  -23.3253 H   0  0  0  0  0  0  0  0  0  0  0  0
   -7.7554   -0.3433  -22.5175 C   0  0  0  0  0  0  0  0  0  0  0  0
  -11.2640   -1.1358  -23.3889 C   0  0  0  0  0  0  0  0  0  0  0  0
  -13.4422   -1.4852  -23.8511 C   0  0  3  0  0  0  0  0  0  0  0  0
  -13.1767   -0.1605  -24.1385 C   0  0  0  0  0  0  0  0  0  0  0  0
   -7.0110    0.7547  -22.1422 C   0  0  0  0  0  0  0  0  0  0  0  0
   -7.6409    1.5983  -21.1799 C   0  0  0  0  0  0  0  0  0  0  0  0
  -12.2291   -2.1009  -23.5422 C   0  0  0  0  0  0  0  0  0  0  0  0
   -8.8859    1.4493  -20.7742 N   0  0  0  0  0  0  0  0  0  0  0  0
  -10.4170   -1.5638  -21.8296 H   0  0  0  0  0  0  0  0  0  0  0  0
  -13.4422   -1.4852  -23.8511 H   0  0  0  0  0  0  0  0  0  0  0  0
  4  9  3  0  0  0  0
 15 23  1  0  0  0  0
  9 10  1  0  0  0  0
 19 23  1  0  0  0  0
 18 23  2  0  0  0  0
  7 19  1  0  0  0  0
 10 18  1  0  0  0  0
  1 10  1  0  0  0  0
 11 17  1  0  0  0  0
 19 20  1  0  0  0  0
 14 18  1  0  0  0  0
  1 17  2  0  0  0  0
 17 21  1  0  0  0  0
  1  2  1  0  0  0  0
  3 16  1  0  0  0  0
 14 20  2  0  0  0  0
 12 20  1  0  0  0  0
  2  6  1  0  0  0  0
  2 24  2  0  0  0  0
  5 14  1  0  0  0  0
  3 21  1  0  0  0  0
 21 22  2  0  0  0  0
  3 13  1  0  0  0  0
 22 24  1  0  0  0  0
  8 22  1  0  0  0  0
 10 25  1  0  0  0  0
 19 26  1  0  0  0  0
M  END
> <Chemgauss4>
-8.024915

$$$$
