stable:False satoms:20 tatoms:24 sratio:0.8333333333333334
  -OEChem-08052415003D

 26 27  0     1  0  0  0  0  0999 V2000
    6.8777   -0.2532   20.0895 C   0  0  0  0  0  0  0  0  0  0  0  0
    7.5245   -0.1539   18.8397 C   0  0  0  0  0  0  0  0  0  0  0  0
    4.0398    1.9497   19.4750 N   0  0  0  0  0  0  0  0  0  0  0  0
    5.7728   -2.3837   22.2842 N   0  0  0  0  0  0  0  0  0  0  0  0
    9.4700    1.2926   20.9673 H   0  0  0  0  0  0  0  0  0  0  0  0
    8.5320   -0.5251   18.7213 H   0  0  0  0  0  0  0  0  0  0  0  0
   11.7421   -1.9344   22.6194 H   0  0  0  0  0  0  0  0  0  0  0  0
    5.4432    1.5728   17.1075 H   0  0  0  0  0  0  0  0  0  0  0  0
    6.5871   -1.7097   21.8430 C   0  0  0  0  0  0  0  0  0  0  0  0
    7.4801   -0.8959   21.1724 C   0  0  3  0  0  0  0  0  0  0  0  0
    5.0060    0.1229   21.0784 H   0  0  0  0  0  0  0  0  0  0  0  0
   11.9310    0.5147   21.5726 H   0  0  0  0  0  0  0  0  0  0  0  0
    3.5527    2.4418   18.7658 H   0  0  0  0  0  0  0  0  0  0  0  0
    9.7498    0.3280   21.3448 C   0  0  0  0  0  0  0  0  0  0  0  0
    9.1452   -2.4522   22.8707 H   0  0  0  0  0  0  0  0  0  0  0  0
    3.5693    1.8999   20.3586 H   0  0  0  0  0  0  0  0  0  0  0  0
    5.5895    0.3173   20.2074 C   0  0  0  0  0  0  0  0  0  0  0  0
    8.8653   -0.7301   21.5748 C   0  0  0  0  0  0  0  0  0  0  0  0
   10.9256   -1.3165   22.2761 C   0  0  3  0  0  0  0  0  0  0  0  0
   11.0340   -0.0600   21.7129 C   0  0  0  0  0  0  0  0  0  0  0  0
    5.1047    1.1440   19.2163 C   0  0  0  0  0  0  0  0  0  0  0  0
    5.8103    1.0646   17.9792 C   0  0  0  0  0  0  0  0  0  0  0  0
    9.5699   -1.6427   22.3211 C   0  0  0  0  0  0  0  0  0  0  0  0
    6.9235    0.3797   17.8101 N   0  0  0  0  0  0  0  0  0  0  0  0
    7.7647   -1.7360   20.5218 H   0  0  0  0  0  0  0  0  0  0  0  0
   10.9256   -1.3165   22.2761 H   0  0  0  0  0  0  0  0  0  0  0  0
  4  9  3  0  0  0  0
 15 23  1  0  0  0  0
  9 10  1  0  0  0  0
 19 23  1  0  0  0  0
 18 23  2  0  0  0  0
  7 19  1  0  0  0  0
 10 18  1  0  0  0  0
  1 10  1  0  0  0  0
 11 17  1  0  0  0  0
 19 20  1  0  0  0  0
 14 18  1  0  0  0  0
  1 17  2  0  0  0  0
 17 21  1  0  0  0  0
  1  2  1  0  0  0  0
  3 16  1  0  0  0  0
 14 20  2  0  0  0  0
 12 20  1  0  0  0  0
  2  6  1  0  0  0  0
  2 24  2  0  0  0  0
  5 14  1  0  0  0  0
  3 21  1  0  0  0  0
 21 22  2  0  0  0  0
  3 13  1  0  0  0  0
 22 24  1  0  0  0  0
  8 22  1  0  0  0  0
 10 25  1  0  0  0  0
 19 26  1  0  0  0  0
M  END
> <Chemgauss4>
-8.430538

$$$$
