stable:False satoms:11 tatoms:24 sratio:0.4583333333333333
  -OEChem-07092417393D

 24 25  0     1  0  0  0  0  0999 V2000
    7.4019   -4.6398   26.4557 H   0  0  0  0  0  0  0  0  0  0  0  0
    8.4404   -4.3590   26.1991 C   0  0  0  0  0  0  0  0  0  0  0  0
    9.0137   -5.2901   26.0350 H   0  0  0  0  0  0  0  0  0  0  0  0
    8.8877   -3.8424   27.0524 H   0  0  0  0  0  0  0  0  0  0  0  0
    8.4665   -3.5326   25.0683 N   0  5  0  0  0  0  0  0  0  0  0  0
    9.0340   -3.1481   24.4182 H   0  0  0  0  0  0  0  0  0  0  0  0
    9.9137   -1.2155   22.7767 C   0  0  0  0  0  0  0  0  0  0  0  0
   10.7734   -1.3216   23.3879 C   0  0  2  0  0  0  0  0  0  0  0  0
   11.5831   -0.3643   24.0306 C   0  0  0  0  0  0  0  0  0  0  0  0
   12.6123   -0.3070   23.7436 C   0  0  0  0  0  0  0  0  0  0  0  0
   13.2554    0.4853   23.7113 H   0  0  0  0  0  0  0  0  0  0  0  0
   12.9927   -1.2634   23.3697 H   0  0  0  0  0  0  0  0  0  0  0  0
   10.8901   -2.3143   22.8798 O   0  0  0  0  0  0  0  0  0  0  0  0
    9.3312   -0.4395   22.2491 C   0  0  0  0  0  0  0  0  0  0  0  0
    8.6982    0.1656   21.3368 C   0  0  0  0  0  0  0  0  0  0  0  0
    9.2148    1.1006   20.7556 O   0  0  0  0  0  0  0  0  0  0  0  0
    7.5072   -0.4065   21.2646 N   0  0  0  0  0  0  0  0  0  0  0  0
    6.7929   -0.0110   20.2724 C   0  0  0  0  0  0  0  0  0  0  0  0
    6.8671   -0.0870   18.9559 C   0  0  0  0  0  0  0  0  0  0  0  0
    6.5653    0.0807   17.8402 N   0  0  0  0  0  0  0  0  0  0  0  0
    5.6722    0.7743   18.4052 C   0  0  1  0  0  0  0  0  0  0  0  0
    5.0046    1.1728   19.3385 N   0  0  0  0  0  0  0  0  0  0  0  0
    5.5556    0.6803   20.3927 C   0  0  0  0  0  0  0  0  0  0  0  0
    5.1101    0.7924   21.3576 H   0  0  0  0  0  0  0  0  0  0  0  0
 20 21  1  0  0  0  0
 19 20  2  0  0  0  0
 19 21  1  0  0  0  0
 21 22  1  0  0  0  0
 18 19  1  0  0  0  0
 22 23  1  0  0  0  0
 18 23  2  0  0  0  0
 17 18  1  0  0  0  0
 23 24  1  0  0  0  0
 15 16  2  0  0  0  0
 15 17  1  0  0  0  0
 14 15  1  0  0  0  0
  7 14  2  3  0  0  0
  7 13  1  0  0  0  0
  7  8  1  0  0  0  0
  8 13  1  0  0  0  0
 10 12  1  0  0  0  0
  8  9  1  0  0  0  0
 10 11  1  0  0  0  0
  9 10  2  0  0  0  0
  5  6  1  0  0  0  0
  2  5  1  0  0  0  0
  2  3  1  0  0  0  0
  1  2  1  0  0  0  0
  2  4  1  0  0  0  0
M  CHG  1   5  -1
M  END
> <Shapegauss>
-213.365463

$$$$
