REMARK  3 active torsions:
REMARK  status: ('A' for Active; 'I' for Inactive)
REMARK    1  A    between atoms: C_5  and  C_10 
REMARK    2  A    between atoms: C_10  and  C_11 
REMARK       I    between atoms: C_11  and  N_13 
REMARK    3  A    between atoms: N_13  and  C_15 
ROOT
HETATM    1  C   UNL     1       8.440  -4.359  26.199  1.00  0.00     0.136 C 
HETATM    2  N   UNL     1       8.466  -3.533  25.068  1.00  0.00    -0.434 N 
ATOM      3  HN  UNL     1       7.511  -3.234  24.872  1.00  0.00     0.149 HD
HETATM    4  H   UNL     1       9.034  -3.148  24.418  1.00  0.00     0.149 HD
ENDROOT
TORSDOF 3
