MODEL 1
REMARK VINA RESULT:    -4.043      0.000      0.000
REMARK INTER + INTRA:          -5.212
REMARK INTER:                  -4.988
REMARK INTRA:                  -0.224
REMARK UNBOUND:                -0.224
REMARK  4 active torsions:
REMARK  status: ('A' for Active; 'I' for Inactive)
REMARK    1  A    between atoms: N_1  and  C_3 
REMARK       I    between atoms: N_1  and  C_7 
REMARK    2  A    between atoms: C_3  and  C_9 
REMARK    3  A    between atoms: O_5  and  C_10 
REMARK    4  A    between atoms: C_9  and  C_10 
ROOT
HETATM    1  C   UNL     1       7.912  -5.119  24.644  1.00  0.00     0.107 C 
ENDROOT
BRANCH   1   2
HETATM    2  N   UNL     1       7.131  -5.395  25.867  1.00  0.00    -0.231 NA
HETATM    3  C   UNL     1       7.861  -5.314  27.072  1.00  0.00     0.260 C 
HETATM    4  O   UNL     1       7.383  -5.941  28.067  1.00  0.00    -0.634 OA
HETATM    5  O   UNL     1       8.949  -4.659  27.056  1.00  0.00    -0.634 OA
HETATM    6  C   UNL     1       6.032  -4.441  26.055  1.00  0.00     0.122 C 
ENDBRANCH   1   2
BRANCH   1   7
HETATM    7  C   UNL     1       7.086  -4.844  23.295  1.00  0.00     0.019 C 
HETATM    8  C   UNL     1       7.154  -5.727  22.173  1.00  0.00     0.013 C 
BRANCH   7   9
HETATM    9  C   UNL     1       7.711  -3.555  22.739  1.00  0.00     0.172 C 
BRANCH   9  10
HETATM   10  O   UNL     1       8.818  -3.234  23.508  1.00  0.00    -0.396 OA
HETATM   11  C   UNL     1       9.616  -2.113  23.275  1.00  0.00     0.201 C 
ENDBRANCH   9  10
ENDBRANCH   7   9
ENDBRANCH   1   7
TORSDOF 4
ENDMDL
MODEL 2
REMARK VINA RESULT:    -4.018      5.631      6.937
REMARK INTER + INTRA:          -5.181
REMARK INTER:                  -4.976
REMARK INTRA:                  -0.205
REMARK UNBOUND:                -0.224
REMARK  4 active torsions:
REMARK  status: ('A' for Active; 'I' for Inactive)
REMARK    1  A    between atoms: N_1  and  C_3 
REMARK       I    between atoms: N_1  and  C_7 
REMARK    2  A    between atoms: C_3  and  C_9 
REMARK    3  A    between atoms: O_5  and  C_10 
REMARK    4  A    between atoms: C_9  and  C_10 
ROOT
HETATM    1  C   UNL     1      11.312   1.150  24.138  1.00  0.00     0.107 C 
ENDROOT
BRANCH   1   2
HETATM    2  N   UNL     1      11.354  -0.228  23.610  1.00  0.00    -0.231 NA
HETATM    3  C   UNL     1      12.603  -0.875  23.729  1.00  0.00     0.260 C 
HETATM    4  O   UNL     1      12.816  -1.845  22.937  1.00  0.00    -0.634 OA
HETATM    5  O   UNL     1      13.423  -0.416  24.584  1.00  0.00    -0.634 OA
HETATM    6  C   UNL     1      10.425  -1.124  24.311  1.00  0.00     0.122 C 
ENDBRANCH   1   2
BRANCH   1   7
HETATM    7  C   UNL     1      10.816   2.302  23.136  1.00  0.00     0.019 C 
HETATM    8  C   UNL     1       9.612   3.038  23.366  1.00  0.00     0.013 C 
BRANCH   7   9
HETATM    9  C   UNL     1      10.497   1.545  21.836  1.00  0.00     0.172 C 
BRANCH   9  10
HETATM   10  O   UNL     1       9.139   1.657  21.582  1.00  0.00    -0.396 OA
HETATM   11  C   UNL     1       8.355   0.600  21.122  1.00  0.00     0.201 C 
ENDBRANCH   9  10
ENDBRANCH   7   9
ENDBRANCH   1   7
TORSDOF 4
ENDMDL
MODEL 3
REMARK VINA RESULT:    -4.000      6.434      7.626
REMARK INTER + INTRA:          -5.159
REMARK INTER:                  -4.927
REMARK INTRA:                  -0.232
REMARK UNBOUND:                -0.224
REMARK  4 active torsions:
REMARK  status: ('A' for Active; 'I' for Inactive)
REMARK    1  A    between atoms: N_1  and  C_3 
REMARK       I    between atoms: N_1  and  C_7 
REMARK    2  A    between atoms: C_3  and  C_9 
REMARK    3  A    between atoms: O_5  and  C_10 
REMARK    4  A    between atoms: C_9  and  C_10 
ROOT
HETATM    1  C   UNL     1      10.253   1.052  22.110  1.00  0.00     0.107 C 
ENDROOT
BRANCH   1   2
HETATM    2  N   UNL     1       9.140   1.351  21.187  1.00  0.00    -0.231 NA
HETATM    3  C   UNL     1       8.504   0.220  20.632  1.00  0.00     0.260 C 
HETATM    4  O   UNL     1       7.867   0.403  19.549  1.00  0.00    -0.634 OA
HETATM    5  O   UNL     1       8.651  -0.889  21.233  1.00  0.00    -0.634 OA
HETATM    6  C   UNL     1       8.050   2.082  21.845  1.00  0.00     0.122 C 
ENDBRANCH   1   2
BRANCH   1   7
HETATM    7  C   UNL     1      10.333   1.912  23.463  1.00  0.00     0.019 C 
HETATM    8  C   UNL     1      11.207   3.034  23.597  1.00  0.00     0.013 C 
BRANCH   7   9
HETATM    9  C   UNL     1      10.906   0.922  24.492  1.00  0.00     0.172 C 
BRANCH   9  10
HETATM   10  O   UNL     1      11.746   0.039  23.834  1.00  0.00    -0.396 OA
HETATM   11  C   UNL     1      13.025  -0.286  24.287  1.00  0.00     0.201 C 
ENDBRANCH   9  10
ENDBRANCH   7   9
ENDBRANCH   1   7
TORSDOF 4
ENDMDL
MODEL 4
REMARK VINA RESULT:    -3.893      5.039      7.014
REMARK INTER + INTRA:          -5.027
REMARK INTER:                  -4.737
REMARK INTRA:                  -0.291
REMARK UNBOUND:                -0.224
REMARK  4 active torsions:
REMARK  status: ('A' for Active; 'I' for Inactive)
REMARK    1  A    between atoms: N_1  and  C_3 
REMARK       I    between atoms: N_1  and  C_7 
REMARK    2  A    between atoms: C_3  and  C_9 
REMARK    3  A    between atoms: O_5  and  C_10 
REMARK    4  A    between atoms: C_9  and  C_10 
ROOT
HETATM    1  C   UNL     1      10.835  -0.522  22.764  1.00  0.00     0.107 C 
ENDROOT
BRANCH   1   2
HETATM    2  N   UNL     1      10.313   0.269  21.631  1.00  0.00    -0.231 NA
HETATM    3  C   UNL     1       8.945   0.072  21.346  1.00  0.00     0.260 C 
HETATM    4  O   UNL     1       8.563   0.368  20.172  1.00  0.00    -0.634 OA
HETATM    5  O   UNL     1       8.219  -0.419  22.266  1.00  0.00    -0.634 OA
HETATM    6  C   UNL     1      10.421   1.715  21.863  1.00  0.00     0.122 C 
ENDBRANCH   1   2
BRANCH   1   7
HETATM    7  C   UNL     1      11.765   0.245  23.825  1.00  0.00     0.019 C 
HETATM    8  C   UNL     1      13.013  -0.293  24.266  1.00  0.00     0.013 C 
BRANCH   7   9
HETATM    9  C   UNL     1      10.928   0.239  25.115  1.00  0.00     0.172 C 
BRANCH   9  10
HETATM   10  O   UNL     1      10.023  -0.808  25.049  1.00  0.00    -0.396 OA
HETATM   11  C   UNL     1       8.889  -0.893  25.857  1.00  0.00     0.201 C 
ENDBRANCH   9  10
ENDBRANCH   7   9
ENDBRANCH   1   7
TORSDOF 4
ENDMDL
MODEL 5
REMARK VINA RESULT:    -3.865      5.708      6.617
REMARK INTER + INTRA:          -4.992
REMARK INTER:                  -4.849
REMARK INTRA:                  -0.143
REMARK UNBOUND:                -0.224
REMARK  4 active torsions:
REMARK  status: ('A' for Active; 'I' for Inactive)
REMARK    1  A    between atoms: N_1  and  C_3 
REMARK       I    between atoms: N_1  and  C_7 
REMARK    2  A    between atoms: C_3  and  C_9 
REMARK    3  A    between atoms: O_5  and  C_10 
REMARK    4  A    between atoms: C_9  and  C_10 
ROOT
HETATM    1  C   UNL     1       9.792  -0.186  22.764  1.00  0.00     0.107 C 
ENDROOT
BRANCH   1   2
HETATM    2  N   UNL     1      11.245  -0.273  23.010  1.00  0.00    -0.231 NA
HETATM    3  C   UNL     1      11.651   0.075  24.316  1.00  0.00     0.260 C 
HETATM    4  O   UNL     1      12.862   0.431  24.456  1.00  0.00    -0.634 OA
HETATM    5  O   UNL     1      10.771   0.044  25.232  1.00  0.00    -0.634 OA
HETATM    6  C   UNL     1      11.761  -1.636  22.831  1.00  0.00     0.122 C 
ENDBRANCH   1   2
BRANCH   1   7
HETATM    7  C   UNL     1       9.300   0.851  21.640  1.00  0.00     0.019 C 
HETATM    8  C   UNL     1       8.603   2.053  21.973  1.00  0.00     0.013 C 
BRANCH   7   9
HETATM    9  C   UNL     1       8.241   0.062  20.853  1.00  0.00     0.172 C 
BRANCH   9  10
HETATM   10  O   UNL     1       7.823   0.834  19.781  1.00  0.00    -0.396 OA
HETATM   11  C   UNL     1       6.928   0.381  18.812  1.00  0.00     0.201 C 
ENDBRANCH   9  10
ENDBRANCH   7   9
ENDBRANCH   1   7
TORSDOF 4
ENDMDL
MODEL 6
REMARK VINA RESULT:    -3.833     14.125     15.351
REMARK INTER + INTRA:          -4.953
REMARK INTER:                  -4.787
REMARK INTRA:                  -0.166
REMARK UNBOUND:                -0.224
REMARK  4 active torsions:
REMARK  status: ('A' for Active; 'I' for Inactive)
REMARK    1  A    between atoms: N_1  and  C_3 
REMARK       I    between atoms: N_1  and  C_7 
REMARK    2  A    between atoms: C_3  and  C_9 
REMARK    3  A    between atoms: O_5  and  C_10 
REMARK    4  A    between atoms: C_9  and  C_10 
ROOT
HETATM    1  C   UNL     1      22.800  -2.515  24.971  1.00  0.00     0.107 C 
ENDROOT
BRANCH   1   2
HETATM    2  N   UNL     1      23.258  -3.570  25.896  1.00  0.00    -0.231 NA
HETATM    3  C   UNL     1      23.415  -4.847  25.314  1.00  0.00     0.260 C 
HETATM    4  O   UNL     1      23.379  -5.838  26.107  1.00  0.00    -0.634 OA
HETATM    5  O   UNL     1      23.537  -4.905  24.052  1.00  0.00    -0.634 OA
HETATM    6  C   UNL     1      24.580  -3.278  26.466  1.00  0.00     0.122 C 
ENDBRANCH   1   2
BRANCH   1   7
HETATM    7  C   UNL     1      21.459  -1.726  25.368  1.00  0.00     0.019 C 
HETATM    8  C   UNL     1      20.549  -1.235  24.381  1.00  0.00     0.013 C 
BRANCH   7   9
HETATM    9  C   UNL     1      21.974  -0.430  26.015  1.00  0.00     0.172 C 
BRANCH   9  10
HETATM   10  O   UNL     1      22.031   0.556  25.043  1.00  0.00    -0.396 OA
HETATM   11  C   UNL     1      22.580   1.819  25.262  1.00  0.00     0.201 C 
ENDBRANCH   9  10
ENDBRANCH   7   9
ENDBRANCH   1   7
TORSDOF 4
ENDMDL
MODEL 7
REMARK VINA RESULT:    -3.762      5.336      6.988
REMARK INTER + INTRA:          -4.865
REMARK INTER:                  -4.685
REMARK INTRA:                  -0.180
REMARK UNBOUND:                -0.224
REMARK  4 active torsions:
REMARK  status: ('A' for Active; 'I' for Inactive)
REMARK    1  A    between atoms: N_1  and  C_3 
REMARK       I    between atoms: N_1  and  C_7 
REMARK    2  A    between atoms: C_3  and  C_9 
REMARK    3  A    between atoms: O_5  and  C_10 
REMARK    4  A    between atoms: C_9  and  C_10 
ROOT
HETATM    1  C   UNL     1       9.931   0.762  22.448  1.00  0.00     0.107 C 
ENDROOT
BRANCH   1   2
HETATM    2  N   UNL     1       9.020  -0.395  22.338  1.00  0.00    -0.231 NA
HETATM    3  C   UNL     1       8.223  -0.418  21.173  1.00  0.00     0.260 C 
HETATM    4  O   UNL     1       7.160  -1.110  21.229  1.00  0.00    -0.634 OA
HETATM    5  O   UNL     1       8.608   0.281  20.185  1.00  0.00    -0.634 OA
HETATM    6  C   UNL     1       9.742  -1.672  22.297  1.00  0.00     0.122 C 
ENDBRANCH   1   2
BRANCH   1   7
HETATM    7  C   UNL     1      10.207   1.339  23.921  1.00  0.00     0.019 C 
HETATM    8  C   UNL     1       9.723   2.618  24.335  1.00  0.00     0.013 C 
BRANCH   7   9
HETATM    9  C   UNL     1      11.732   1.535  23.957  1.00  0.00     0.172 C 
BRANCH   9  10
HETATM   10  O   UNL     1      12.290   0.510  24.703  1.00  0.00    -0.396 OA
HETATM   11  C   UNL     1      13.136  -0.459  24.164  1.00  0.00     0.201 C 
ENDBRANCH   9  10
ENDBRANCH   7   9
ENDBRANCH   1   7
TORSDOF 4
ENDMDL
MODEL 8
REMARK VINA RESULT:    -3.711     20.802     22.583
REMARK INTER + INTRA:          -4.802
REMARK INTER:                  -4.577
REMARK INTRA:                  -0.226
REMARK UNBOUND:                -0.224
REMARK  4 active torsions:
REMARK  status: ('A' for Active; 'I' for Inactive)
REMARK    1  A    between atoms: N_1  and  C_3 
REMARK       I    between atoms: N_1  and  C_7 
REMARK    2  A    between atoms: C_3  and  C_9 
REMARK    3  A    between atoms: O_5  and  C_10 
REMARK    4  A    between atoms: C_9  and  C_10 
ROOT
HETATM    1  C   UNL     1       1.381 -18.897   8.803  1.00  0.00     0.107 C 
ENDROOT
BRANCH   1   2
HETATM    2  N   UNL     1       0.373 -18.611   9.845  1.00  0.00    -0.231 NA
HETATM    3  C   UNL     1       0.290 -17.259  10.240  1.00  0.00     0.260 C 
HETATM    4  O   UNL     1      -0.215 -17.033  11.383  1.00  0.00    -0.634 OA
HETATM    5  O   UNL     1       0.759 -16.386   9.446  1.00  0.00    -0.634 OA
HETATM    6  C   UNL     1      -0.990 -18.935   9.406  1.00  0.00     0.122 C 
ENDBRANCH   1   2
BRANCH   1   7
HETATM    7  C   UNL     1       2.674 -19.738   9.247  1.00  0.00     0.019 C 
HETATM    8  C   UNL     1       3.979 -19.156   9.286  1.00  0.00     0.013 C 
BRANCH   7   9
HETATM    9  C   UNL     1       2.818 -20.798   8.143  1.00  0.00     0.172 C 
BRANCH   9  10
HETATM   10  O   UNL     1       1.607 -21.456   8.003  1.00  0.00    -0.396 OA
HETATM   11  C   UNL     1       1.278 -22.615   8.705  1.00  0.00     0.201 C 
ENDBRANCH   9  10
ENDBRANCH   7   9
ENDBRANCH   1   7
TORSDOF 4
ENDMDL
MODEL 9
REMARK VINA RESULT:    -3.635      4.375      6.287
REMARK INTER + INTRA:          -4.709
REMARK INTER:                  -4.413
REMARK INTRA:                  -0.295
REMARK UNBOUND:                -0.224
REMARK  4 active torsions:
REMARK  status: ('A' for Active; 'I' for Inactive)
REMARK    1  A    between atoms: N_1  and  C_3 
REMARK       I    between atoms: N_1  and  C_7 
REMARK    2  A    between atoms: C_3  and  C_9 
REMARK    3  A    between atoms: O_5  and  C_10 
REMARK    4  A    between atoms: C_9  and  C_10 
ROOT
HETATM    1  C   UNL     1      10.187  -0.324  24.865  1.00  0.00     0.107 C 
ENDROOT
BRANCH   1   2
HETATM    2  N   UNL     1      11.549   0.236  24.752  1.00  0.00    -0.231 NA
HETATM    3  C   UNL     1      12.467  -0.569  24.043  1.00  0.00     0.260 C 
HETATM    4  O   UNL     1      13.698  -0.365  24.280  1.00  0.00    -0.634 OA
HETATM    5  O   UNL     1      11.994  -1.451  23.262  1.00  0.00    -0.634 OA
HETATM    6  C   UNL     1      11.570   1.514  24.030  1.00  0.00     0.122 C 
ENDBRANCH   1   2
BRANCH   1   7
HETATM    7  C   UNL     1       8.967   0.631  24.443  1.00  0.00     0.019 C 
HETATM    8  C   UNL     1       8.092   1.214  25.411  1.00  0.00     0.013 C 
BRANCH   7   9
HETATM    9  C   UNL     1       8.024  -0.303  23.666  1.00  0.00     0.172 C 
BRANCH   9  10
HETATM   10  O   UNL     1       8.704  -1.475  23.376  1.00  0.00    -0.396 OA
HETATM   11  C   UNL     1       8.235  -2.432  22.476  1.00  0.00     0.201 C 
ENDBRANCH   9  10
ENDBRANCH   7   9
ENDBRANCH   1   7
TORSDOF 4
ENDMDL
