stable:False satoms:20 tatoms:24 sratio:0.8333333333333334
  -OEChem-07092417323D

 24 23  0     1  0  0  0  0  0999 V2000
    9.0035   -0.6959   25.2935 H   0  0  0  0  0  0  0  0  0  0  0  0
    9.5946   -1.3682   23.4459 N   0  0  0  0  0  0  0  0  0  0  0  0
    9.9960   -2.9792   25.0098 O   0  0  0  0  0  0  0  0  0  0  0  0
    6.3034   -2.7419   23.3773 H   0  0  0  0  0  0  0  0  0  0  0  0
    7.3027   -1.8643   20.1769 H   0  0  0  0  0  0  0  0  0  0  0  0
    8.8978   -2.6497   20.4698 H   0  0  0  0  0  0  0  0  0  0  0  0
   10.0308   -0.9153   22.1099 C   0  0  0  0  0  0  0  0  0  0  0  0
    7.7964    0.2940   21.3387 C   0  5  0  0  0  0  0  0  0  0  0  0
   10.4266    0.1802   24.6059 H   0  0  0  0  0  0  0  0  0  0  0  0
    7.7776   -2.4130   22.0772 O   0  0  0  0  0  0  0  0  0  0  0  0
   10.6726   -1.7132   21.7398 H   0  0  0  0  0  0  0  0  0  0  0  0
   11.6963   -2.2509   23.7057 O   0  5  0  0  0  0  0  0  0  0  0  0
    7.0988   -1.1800   23.5210 H   0  0  0  0  0  0  0  0  0  0  0  0
   10.4885   -2.2418   24.1013 C   0  0  0  0  0  0  0  0  0  0  0  0
    8.8009    0.5380   23.9754 H   0  0  0  0  0  0  0  0  0  0  0  0
   10.6251   -0.0048   22.1476 H   0  0  0  0  0  0  0  0  0  0  0  0
    9.4361   -0.2542   24.3889 C   0  0  0  0  0  0  0  0  0  0  0  0
    8.8821   -0.5845   21.0382 C   0  0  2  0  0  0  0  0  0  0  0  0
    8.1700   -1.9328   20.8382 C   0  0  0  0  0  0  0  0  0  0  0  0
    9.3812   -0.2531   20.1237 H   0  0  0  0  0  0  0  0  0  0  0  0
    7.1860    0.6277   20.5118 H   0  0  0  0  0  0  0  0  0  0  0  0
    6.7000   -1.8955   22.7946 C   0  0  0  0  0  0  0  0  0  0  0  0
    7.4194    0.4596   22.3057 H   0  0  0  0  0  0  0  0  0  0  0  0
    5.8977   -1.4515   22.1998 H   0  0  0  0  0  0  0  0  0  0  0  0
 18 20  1  0  0  0  0
  5 19  1  0  0  0  0
  6 19  1  0  0  0  0
  8 21  1  0  0  0  0
 18 19  1  0  0  0  0
 10 19  1  0  0  0  0
  8 18  1  0  0  0  0
  7 18  1  0  0  0  0
  8 23  1  0  0  0  0
  7 11  1  0  0  0  0
 10 22  1  0  0  0  0
  7 16  1  0  0  0  0
  2  7  1  0  0  0  0
 22 24  1  0  0  0  0
  4 22  1  0  0  0  0
 13 22  1  0  0  0  0
  2 14  1  0  0  0  0
  2 17  1  0  0  0  0
 12 14  1  0  0  0  0
 15 17  1  0  0  0  0
  3 14  2  0  0  0  0
  9 17  1  0  0  0  0
  1 17  1  0  0  0  0
M  CHG  2   8  -1  12  -1
M  END
> <Shapegauss>
-91.648865

$$$$
