REMARK  4 active torsions:
REMARK  status: ('A' for Active; 'I' for Inactive)
REMARK    1  A    between atoms: N_1  and  C_3 
REMARK       I    between atoms: N_1  and  C_7 
REMARK    2  A    between atoms: C_3  and  C_9 
REMARK    3  A    between atoms: O_5  and  C_10 
REMARK    4  A    between atoms: C_9  and  C_10 
ROOT
HETATM    1  C   UNL     1      10.031  -0.915  22.110  1.00  0.00     0.107 C 
ENDROOT
BRANCH   1   2
HETATM    2  N   UNL     1       9.595  -1.368  23.446  1.00  0.00    -0.231 NA
HETATM    3  C   UNL     1      10.489  -2.242  24.101  1.00  0.00     0.260 C 
HETATM    4  O   UNL     1       9.996  -2.979  25.010  1.00  0.00    -0.634 OA
HETATM    5  O   UNL     1      11.696  -2.251  23.706  1.00  0.00    -0.634 OA
HETATM    6  C   UNL     1       9.436  -0.254  24.389  1.00  0.00     0.122 C 
ENDBRANCH   1   2
BRANCH   1   7
HETATM    7  C   UNL     1       8.882  -0.585  21.038  1.00  0.00     0.019 C 
HETATM    8  C   UNL     1       7.796   0.294  21.339  1.00  0.00     0.013 C 
BRANCH   7   9
HETATM    9  C   UNL     1       8.170  -1.933  20.838  1.00  0.00     0.172 C 
BRANCH   9  10
HETATM   10  O   UNL     1       7.778  -2.413  22.077  1.00  0.00    -0.396 OA
HETATM   11  C   UNL     1       6.700  -1.895  22.795  1.00  0.00     0.201 C 
ENDBRANCH   9  10
ENDBRANCH   7   9
ENDBRANCH   1   7
TORSDOF 4
