stable:False satoms:16 tatoms:24 sratio:0.6666666666666666
  -OEChem-07092417323D

 24 23  0     0  0  0  0  0  0999 V2000
    7.1188   -1.2488   25.9503 H   0  0  0  0  0  0  0  0  0  0  0  0
    7.4154   -2.8804   25.3934 H   0  0  0  0  0  0  0  0  0  0  0  0
   10.5706   -2.5223   22.6669 C   0  0  0  0  0  0  0  0  0  0  0  0
    8.7810   -1.8897   25.9619 H   0  0  0  0  0  0  0  0  0  0  0  0
    8.0379   -1.4098   24.0579 N   0  0  0  0  0  0  0  0  0  0  0  0
    6.1116   -2.4532   23.3613 S   0  0  0  0  0  0  0  0  0  0  0  0
    6.8790   -1.2406   23.4523 C   0  0  0  0  0  0  0  0  0  0  0  0
    9.8947   -2.2939   19.9676 H   0  0  0  0  0  0  0  0  0  0  0  0
   10.4929   -2.2121   23.7018 H   0  0  0  0  0  0  0  0  0  0  0  0
   10.2185   -1.3741   21.8184 N   0  0  0  0  0  0  0  0  0  0  0  0
    8.9050   -0.9697   23.7500 H   0  0  0  0  0  0  0  0  0  0  0  0
   11.6079   -2.8055   22.4845 H   0  0  0  0  0  0  0  0  0  0  0  0
    7.8521   -1.8783   25.4217 C   0  0  0  0  0  0  0  0  0  0  0  0
    9.3249    0.7798   20.9938 H   0  0  0  0  0  0  0  0  0  0  0  0
   10.4165   -0.5829   19.8805 H   0  0  0  0  0  0  0  0  0  0  0  0
    7.3418    0.7383   21.6939 C   0  0  0  0  0  0  0  0  0  0  0  0
    9.9051   -3.3518   22.4486 H   0  0  0  0  0  0  0  0  0  0  0  0
    8.8503   -1.0473   21.8019 N   0  0  0  0  0  0  0  0  0  0  0  0
   10.5454   -1.5273   20.3788 C   0  0  0  0  0  0  0  0  0  0  0  0
   11.5486   -1.8730   20.2282 H   0  0  0  0  0  0  0  0  0  0  0  0
    8.5639    0.1672   21.4375 C   0  0  0  0  0  0  0  0  0  0  0  0
    6.1992    2.5563   20.5292 N   0  0  0  0  0  0  0  0  0  0  0  0
    6.8140    1.7014   20.9777 N   0  0  0  0  0  0  0  0  0  0  0  0
    6.1889    0.3277   22.9385 S   0  0  0  0  0  0  0  0  0  0  0  0
 15 19  1  0  0  0  0
  8 19  1  0  0  0  0
 19 20  1  0  0  0  0
 10 19  1  0  0  0  0
 22 23  1  0  0  0  0
 16 23  1  0  0  0  0
 14 21  1  0  0  0  0
 16 21  2  3  0  0  0
 18 21  1  0  0  0  0
 16 24  1  0  0  0  0
 10 18  1  0  0  0  0
  3 10  1  0  0  0  0
  3 17  1  0  0  0  0
  3 12  1  0  0  0  0
  3  9  1  0  0  0  0
  7 24  1  0  0  0  0
  6  7  2  0  0  0  0
  5  7  1  0  0  0  0
  5 11  1  0  0  0  0
  5 13  1  0  0  0  0
  2 13  1  0  0  0  0
  1 13  1  0  0  0  0
  4 13  1  0  0  0  0
M  END
> <Shapegauss>
-99.811653

$$$$
