stable:False satoms:16 tatoms:24 sratio:0.6666666666666666
  -OEChem-08052422553D

 28 27  0     0  0  0  0  0  0999 V2000
   -8.1476    3.2265  -24.0878 H   0  0  0  0  0  0  0  0  0  0  0  0
   -7.1938    2.4277  -22.8580 H   0  0  0  0  0  0  0  0  0  0  0  0
   -7.0300   -1.5764  -24.0652 C   0  0  0  0  0  0  0  0  0  0  0  0
   -6.7871    2.1842  -24.5740 H   0  0  0  0  0  0  0  0  0  0  0  0
   -8.4807    1.1530  -23.8840 N   0  0  0  0  0  0  0  0  0  0  0  0
   -9.2331    1.6194  -21.7625 S   0  0  0  0  0  0  0  0  0  0  0  0
   -9.5492    1.3716  -23.1431 C   0  0  0  0  0  0  0  0  0  0  0  0
   -8.9228   -3.3107  -22.9675 H   0  0  0  0  0  0  0  0  0  0  0  0
   -6.7542   -0.6691  -24.5887 H   0  0  0  0  0  0  0  0  0  0  0  0
   -8.4082   -1.9214  -24.4445 N   0  0  0  0  0  0  0  0  0  0  0  0
   -8.4365    0.4429  -24.6149 H   0  0  0  0  0  0  0  0  0  0  0  0
   -6.3532   -2.3657  -24.3944 H   0  0  0  0  0  0  0  0  0  0  0  0
   -7.5899    2.3020  -23.8694 C   0  0  0  0  0  0  0  0  0  0  0  0
  -10.7373   -1.8177  -25.2705 H   0  0  0  0  0  0  0  0  0  0  0  0
   -9.7933   -3.5014  -24.5210 H   0  0  0  0  0  0  0  0  0  0  0  0
  -11.4722   -0.0914  -24.3195 C   0  0  0  0  0  0  0  0  0  0  0  0
   -6.9716   -1.4486  -22.9887 H   0  0  0  0  0  0  0  0  0  0  0  0
   -9.4002   -1.0910  -23.8919 N   0  0  0  0  0  0  0  0  0  0  0  0
   -8.8509   -3.2823  -24.0511 C   0  0  0  0  0  0  0  0  0  0  0  0
   -8.1363   -4.0329  -24.3241 H   0  0  0  0  0  0  0  0  0  0  0  0
  -10.5403   -1.0805  -24.5162 C   0  0  0  0  0  0  0  0  0  0  0  0
  -13.8933   -0.1492  -24.6396 N   0  0  0  0  0  0  0  0  0  0  0  0
  -12.7613   -0.2471  -24.5017 N   0  0  0  0  0  0  0  0  0  0  0  0
  -11.2236    1.5397  -23.7499 S   0  0  0  0  0  0  0  0  0  0  0  0
   -9.0469   -0.1555  -23.8821 H   0  0  0  0  0  0  0  0  0  0  0  0
  -14.2925   -1.0558  -24.7767 H   0  0  0  0  0  0  0  0  0  0  0  0
  -14.2931    0.2712  -23.8251 H   0  0  0  0  0  0  0  0  0  0  0  0
  -12.8495   -0.8977  -23.7474 H   0  0  0  0  0  0  0  0  0  0  0  0
 15 19  1  0  0  0  0
  8 19  1  0  0  0  0
 19 20  1  0  0  0  0
 10 19  1  0  0  0  0
 22 23  1  0  0  0  0
 16 23  1  0  0  0  0
 14 21  1  0  0  0  0
 16 21  2  3  0  0  0
 18 21  1  0  0  0  0
 16 24  1  0  0  0  0
 10 18  1  0  0  0  0
  3 10  1  0  0  0  0
  3 17  1  0  0  0  0
  3 12  1  0  0  0  0
  3  9  1  0  0  0  0
  7 24  1  0  0  0  0
  6  7  2  0  0  0  0
  5  7  1  0  0  0  0
  5 11  1  0  0  0  0
  5 13  1  0  0  0  0
  2 13  1  0  0  0  0
  1 13  1  0  0  0  0
  4 13  1  0  0  0  0
 18 25  1  0  0  0  0
 22 26  1  0  0  0  0
 22 27  1  0  0  0  0
 23 28  1  0  0  0  0
M  END
> <Chemgauss4>
-5.151633

$$$$
