stable:False satoms:16 tatoms:24 sratio:0.6666666666666666
  -OEChem-08052422553D

 28 27  0     0  0  0  0  0  0999 V2000
    6.5938    1.8001   23.3130 H   0  0  0  0  0  0  0  0  0  0  0  0
    6.9391    0.3584   22.3843 H   0  0  0  0  0  0  0  0  0  0  0  0
   10.2349   -1.3782   24.2919 C   0  0  0  0  0  0  0  0  0  0  0  0
    6.7982    0.2436   24.1553 H   0  0  0  0  0  0  0  0  0  0  0  0
    8.5781    1.0937   23.4362 N   0  0  0  0  0  0  0  0  0  0  0  0
    8.7291    1.5272   21.1837 S   0  0  0  0  0  0  0  0  0  0  0  0
    8.9724    1.9673   22.5308 C   0  0  0  0  0  0  0  0  0  0  0  0
   12.7602   -0.7620   23.2729 H   0  0  0  0  0  0  0  0  0  0  0  0
    9.2642   -1.0932   24.6790 H   0  0  0  0  0  0  0  0  0  0  0  0
   11.1678   -0.2681   24.5365 N   0  0  0  0  0  0  0  0  0  0  0  0
    9.1083    0.8776   24.2804 H   0  0  0  0  0  0  0  0  0  0  0  0
   10.5643   -2.2592   24.8439 H   0  0  0  0  0  0  0  0  0  0  0  0
    7.1482    0.8486   23.3390 C   0  0  0  0  0  0  0  0  0  0  0  0
   12.1298    1.9611   25.0086 H   0  0  0  0  0  0  0  0  0  0  0  0
   13.2064    0.2187   24.7034 H   0  0  0  0  0  0  0  0  0  0  0  0
   11.0696    3.1966   23.6767 C   0  0  0  0  0  0  0  0  0  0  0  0
   10.1932   -1.5888   23.2277 H   0  0  0  0  0  0  0  0  0  0  0  0
   10.9754    0.8588   23.7167 N   0  0  0  0  0  0  0  0  0  0  0  0
   12.6022   -0.5908   24.3339 C   0  0  0  0  0  0  0  0  0  0  0  0
   12.8848   -1.4982   24.8295 H   0  0  0  0  0  0  0  0  0  0  0  0
   11.4614    1.9763   24.1694 C   0  0  0  0  0  0  0  0  0  0  0  0
   12.2627    5.3281   23.6718 N   0  0  0  0  0  0  0  0  0  0  0  0
   11.8125    4.2765   23.7077 N   0  0  0  0  0  0  0  0  0  0  0  0
    9.5814    3.6154   22.8663 S   0  0  0  0  0  0  0  0  0  0  0  0
    9.9911    0.9814   23.5894 H   0  0  0  0  0  0  0  0  0  0  0  0
   13.2325    5.2845   23.9119 H   0  0  0  0  0  0  0  0  0  0  0  0
   12.1643    5.7014   22.7493 H   0  0  0  0  0  0  0  0  0  0  0  0
   12.4899    3.9004   23.0755 H   0  0  0  0  0  0  0  0  0  0  0  0
 15 19  1  0  0  0  0
  8 19  1  0  0  0  0
 19 20  1  0  0  0  0
 10 19  1  0  0  0  0
 22 23  1  0  0  0  0
 16 23  1  0  0  0  0
 14 21  1  0  0  0  0
 16 21  2  3  0  0  0
 18 21  1  0  0  0  0
 16 24  1  0  0  0  0
 10 18  1  0  0  0  0
  3 10  1  0  0  0  0
  3 17  1  0  0  0  0
  3 12  1  0  0  0  0
  3  9  1  0  0  0  0
  7 24  1  0  0  0  0
  6  7  2  0  0  0  0
  5  7  1  0  0  0  0
  5 11  1  0  0  0  0
  5 13  1  0  0  0  0
  2 13  1  0  0  0  0
  1 13  1  0  0  0  0
  4 13  1  0  0  0  0
 18 25  1  0  0  0  0
 22 26  1  0  0  0  0
 22 27  1  0  0  0  0
 23 28  1  0  0  0  0
M  END
> <Chemgauss4>
-5.460640

$$$$
