REMARK  7 active torsions:
REMARK  status: ('A' for Active; 'I' for Inactive)
REMARK    1  A    between atoms: S_2  and  N_5 
REMARK    2  A    between atoms: N_5  and  C_7 
REMARK    3  A    between atoms: C_7  and  C_8 
REMARK    4  A    between atoms: C_8  and  C_9 
REMARK    5  A    between atoms: C_9  and  C_15 
REMARK    6  A    between atoms: C_15  and  C_16 
REMARK       I    between atoms: C_16  and  N_18 
REMARK    7  A    between atoms: N_18  and  C_20 
ROOT
HETATM    1  C   UNL     1      10.312  -1.159  23.220  1.00  0.00     0.068 C 
HETATM    2  C   UNL     1      11.007   0.019  24.314  1.00  0.00     0.000 C 
HETATM    3  C   UNL     1      12.041   0.294  24.246  1.00  0.00    -0.002 C 
HETATM    4  C   UNL     1      13.106  -0.147  23.500  1.00  0.00    -0.001 C 
HETATM    5  C   UNL     1      12.738  -1.241  22.678  1.00  0.00    -0.002 C 
HETATM    6  C   UNL     1      11.822  -1.706  22.539  1.00  0.00     0.000 C 
ENDROOT
BRANCH   1   7
HETATM    7  C   UNL     1       9.447  -2.011  23.582  1.00  0.00     0.135 C 
BRANCH   7   8
HETATM    8  C   UNL     1       8.985  -2.895  24.189  1.00  0.00    -0.058 C 
BRANCH   8   9
HETATM    9  N   UNL     1       8.174  -3.595  24.704  1.00  0.00    -0.254 N 
ATOM     10  HN  UNL     1       7.352  -3.780  24.129  1.00  0.00     0.188 HD
BRANCH   9  11
HETATM   11  S   UNL     1       8.146  -4.303  26.151  1.00  0.00     0.233 S 
HETATM   12  C   UNL     1       6.677  -4.818  26.390  1.00  0.00     0.186 C 
HETATM   13  O   UNL     1       9.052  -5.426  26.114  1.00  0.00    -0.206 OA
HETATM   14  O   UNL     1       8.544  -3.353  27.170  1.00  0.00    -0.206 OA
ENDBRANCH   9  11
ENDBRANCH   8   9
ENDBRANCH   7   8
ENDBRANCH   1   7
BRANCH   1  15
HETATM   15  C   UNL     1       9.757  -0.544  22.297  1.00  0.00    -0.064 C 
BRANCH  15  16
HETATM   16  C   UNL     1       9.065   0.059  21.357  1.00  0.00     0.290 C 
HETATM   17  O   UNL     1       9.540   1.026  20.948  1.00  0.00    -0.259 OA
HETATM   18  N   UNL     1       7.915  -0.578  21.115  1.00  0.00    -0.315 N 
ATOM     19  HN  UNL     1       7.633  -1.402  21.646  1.00  0.00     0.170 HD
BRANCH  18  20
HETATM   20  C   UNL     1       7.197  -0.101  20.192  1.00  0.00     0.060 A 
HETATM   21  C   UNL     1       7.232  -0.009  18.895  1.00  0.00     0.117 A 
HETATM   22  N   UNL     1       6.713   0.322  17.777  1.00  0.00    -0.373 N 
HETATM   23  C   UNL     1       5.658   0.820  18.239  1.00  0.00     0.088 A 
ATOM     24  HN  UNL     1       7.047   0.216  16.819  1.00  0.00     0.164 HD
HETATM   25  C   UNL     1       5.237   0.928  19.399  1.00  0.00     0.030 A 
HETATM   26  C   UNL     1       5.814   0.537  20.591  1.00  0.00    -0.016 A 
HETATM   27  C   UNL     1       5.406   0.592  21.689  1.00  0.00     0.026 C 
ENDBRANCH  18  20
ENDBRANCH  15  16
ENDBRANCH   1  15
TORSDOF 7
