MODEL 1
REMARK VINA RESULT:    -7.105      0.000      0.000
REMARK INTER + INTRA:         -11.244
REMARK INTER:                 -10.013
REMARK INTRA:                  -1.231
REMARK UNBOUND:                -1.231
REMARK  7 active torsions:
REMARK  status: ('A' for Active; 'I' for Inactive)
REMARK    1  A    between atoms: S_2  and  N_5 
REMARK    2  A    between atoms: N_5  and  C_7 
REMARK    3  A    between atoms: C_7  and  C_8 
REMARK    4  A    between atoms: C_8  and  C_9 
REMARK    5  A    between atoms: C_9  and  C_15 
REMARK    6  A    between atoms: C_15  and  C_16 
REMARK       I    between atoms: C_16  and  N_18 
REMARK    7  A    between atoms: N_18  and  C_20 
ROOT
HETATM    1  C   UNL     1       9.559  -1.589  23.308  1.00  0.00     0.068 C 
HETATM    2  C   UNL     1       9.563  -0.404  24.598  1.00  0.00     0.000 C 
HETATM    3  C   UNL     1      10.442   0.168  24.821  1.00  0.00    -0.002 C 
HETATM    4  C   UNL     1      11.739   0.152  24.369  1.00  0.00    -0.001 C 
HETATM    5  C   UNL     1      11.943  -0.891  23.433  1.00  0.00    -0.002 C 
HETATM    6  C   UNL     1      11.282  -1.583  23.034  1.00  0.00     0.000 C 
ENDROOT
BRANCH   1   7
HETATM    7  C   UNL     1       8.945  -2.694  23.389  1.00  0.00     0.135 C 
BRANCH   7   8
HETATM    8  C   UNL     1       8.169  -3.524  23.120  1.00  0.00    -0.058 C 
BRANCH   8   9
HETATM    9  N   UNL     1       7.426  -4.196  22.481  1.00  0.00    -0.254 N 
ATOM     10  HN  UNL     1       7.871  -4.982  22.007  1.00  0.00     0.188 HD
BRANCH   9  11
HETATM   11  S   UNL     1       5.838  -4.083  22.232  1.00  0.00     0.233 S 
HETATM   12  C   UNL     1       5.213  -3.404  23.508  1.00  0.00     0.186 C 
HETATM   13  O   UNL     1       5.627  -3.237  21.082  1.00  0.00    -0.206 OA
HETATM   14  O   UNL     1       5.281  -5.402  22.011  1.00  0.00    -0.206 OA
ENDBRANCH   9  11
ENDBRANCH   8   9
ENDBRANCH   7   8
ENDBRANCH   1   7
BRANCH   1  15
HETATM   15  C   UNL     1       9.079  -1.054  22.297  1.00  0.00    -0.064 C 
BRANCH  15  16
HETATM   16  C   UNL     1       8.582  -0.382  21.284  1.00  0.00     0.290 C 
HETATM   17  O   UNL     1       9.318   0.342  20.773  1.00  0.00    -0.259 OA
HETATM   18  N   UNL     1       7.288  -0.664  21.102  1.00  0.00    -0.315 N 
ATOM     19  HN  UNL     1       6.782  -1.297  21.721  1.00  0.00     0.170 HD
BRANCH  18  20
HETATM   20  C   UNL     1       6.728  -0.101  20.120  1.00  0.00     0.060 A 
HETATM   21  C   UNL     1       6.491  -0.361  18.868  1.00  0.00     0.117 A 
HETATM   22  N   UNL     1       5.969  -0.073  17.739  1.00  0.00    -0.373 N 
HETATM   23  C   UNL     1       5.480   1.033  18.073  1.00  0.00     0.088 A 
ATOM     24  HN  UNL     1       5.955  -0.579  16.853  1.00  0.00     0.164 HD
HETATM   25  C   UNL     1       5.474   1.638  19.154  1.00  0.00     0.030 A 
HETATM   26  C   UNL     1       6.029   1.288  20.368  1.00  0.00    -0.016 A 
HETATM   27  C   UNL     1       5.991   1.830  21.408  1.00  0.00     0.026 C 
ENDBRANCH  18  20
ENDBRANCH  15  16
ENDBRANCH   1  15
TORSDOF 7
ENDMDL
MODEL 2
REMARK VINA RESULT:    -6.800      2.550      5.996
REMARK INTER + INTRA:         -10.814
REMARK INTER:                  -9.937
REMARK INTRA:                  -0.877
REMARK UNBOUND:                -1.231
REMARK  7 active torsions:
REMARK  status: ('A' for Active; 'I' for Inactive)
REMARK    1  A    between atoms: S_2  and  N_5 
REMARK    2  A    between atoms: N_5  and  C_7 
REMARK    3  A    between atoms: C_7  and  C_8 
REMARK    4  A    between atoms: C_8  and  C_9 
REMARK    5  A    between atoms: C_9  and  C_15 
REMARK    6  A    between atoms: C_15  and  C_16 
REMARK       I    between atoms: C_16  and  N_18 
REMARK    7  A    between atoms: N_18  and  C_20 
ROOT
HETATM    1  C   UNL     1       6.270  -3.544  22.267  1.00  0.00     0.068 C 
HETATM    2  C   UNL     1       5.236  -3.901  23.635  1.00  0.00     0.000 C 
HETATM    3  C   UNL     1       5.118  -4.906  23.991  1.00  0.00    -0.002 C 
HETATM    4  C   UNL     1       5.542  -6.136  23.555  1.00  0.00    -0.001 C 
HETATM    5  C   UNL     1       6.255  -6.030  22.335  1.00  0.00    -0.002 C 
HETATM    6  C   UNL     1       6.519  -5.199  21.775  1.00  0.00     0.000 C 
ENDROOT
BRANCH   1   7
HETATM    7  C   UNL     1       5.983  -2.671  21.395  1.00  0.00     0.135 C 
BRANCH   7   8
HETATM    8  C   UNL     1       6.098  -1.702  20.753  1.00  0.00    -0.058 C 
BRANCH   8   9
HETATM    9  N   UNL     1       6.051  -0.557  20.438  1.00  0.00    -0.254 N 
ATOM     10  HN  UNL     1       5.907   0.087  21.215  1.00  0.00     0.188 HD
BRANCH   9  11
HETATM   11  S   UNL     1       6.176   0.155  18.998  1.00  0.00     0.233 S 
HETATM   12  C   UNL     1       5.212   1.400  19.008  1.00  0.00     0.186 C 
HETATM   13  O   UNL     1       7.539   0.601  18.839  1.00  0.00    -0.206 OA
HETATM   14  O   UNL     1       5.815  -0.782  17.954  1.00  0.00    -0.206 OA
ENDBRANCH   9  11
ENDBRANCH   8   9
ENDBRANCH   7   8
ENDBRANCH   1   7
BRANCH   1  15
HETATM   15  C   UNL     1       7.371  -3.178  22.704  1.00  0.00    -0.064 C 
BRANCH  15  16
HETATM   16  C   UNL     1       8.513  -2.854  23.267  1.00  0.00     0.290 C 
HETATM   17  O   UNL     1       8.825  -3.522  24.153  1.00  0.00    -0.259 OA
HETATM   18  N   UNL     1       9.045  -1.768  22.699  1.00  0.00    -0.315 N 
ATOM     19  HN  UNL     1       8.569  -1.262  21.951  1.00  0.00     0.170 HD
BRANCH  18  20
HETATM   20  C   UNL     1      10.170  -1.402  23.140  1.00  0.00     0.060 A 
HETATM   21  C   UNL     1      11.424  -1.669  22.920  1.00  0.00     0.117 A 
HETATM   22  N   UNL     1      12.668  -1.471  23.123  1.00  0.00    -0.373 N 
HETATM   23  C   UNL     1      12.541  -0.580  23.998  1.00  0.00     0.088 A 
ATOM     24  HN  UNL     1      13.497  -1.898  22.709  1.00  0.00     0.164 HD
HETATM   25  C   UNL     1      11.538  -0.041  24.485  1.00  0.00     0.030 A 
HETATM   26  C   UNL     1      10.199  -0.261  24.225  1.00  0.00    -0.016 A 
HETATM   27  C   UNL     1       9.244   0.273  24.645  1.00  0.00     0.026 C 
ENDBRANCH  18  20
ENDBRANCH  15  16
ENDBRANCH   1  15
TORSDOF 7
ENDMDL
MODEL 3
REMARK VINA RESULT:    -6.785      2.621      5.805
REMARK INTER + INTRA:         -10.792
REMARK INTER:                  -9.889
REMARK INTRA:                  -0.903
REMARK UNBOUND:                -1.231
REMARK  7 active torsions:
REMARK  status: ('A' for Active; 'I' for Inactive)
REMARK    1  A    between atoms: S_2  and  N_5 
REMARK    2  A    between atoms: N_5  and  C_7 
REMARK    3  A    between atoms: C_7  and  C_8 
REMARK    4  A    between atoms: C_8  and  C_9 
REMARK    5  A    between atoms: C_9  and  C_15 
REMARK    6  A    between atoms: C_15  and  C_16 
REMARK       I    between atoms: C_16  and  N_18 
REMARK    7  A    between atoms: N_18  and  C_20 
ROOT
HETATM    1  C   UNL     1      10.264  -0.598  23.364  1.00  0.00     0.068 C 
HETATM    2  C   UNL     1      11.581  -1.583  22.761  1.00  0.00     0.000 C 
HETATM    3  C   UNL     1      12.572  -1.484  23.157  1.00  0.00    -0.002 C 
HETATM    4  C   UNL     1      13.168  -0.630  24.053  1.00  0.00    -0.001 C 
HETATM    5  C   UNL     1      12.257   0.357  24.504  1.00  0.00    -0.002 C 
HETATM    6  C   UNL     1      11.252   0.498  24.295  1.00  0.00     0.000 C 
ENDROOT
BRANCH   1   7
HETATM    7  C   UNL     1       9.352  -0.133  22.617  1.00  0.00     0.135 C 
BRANCH   7   8
HETATM    8  C   UNL     1       8.374  -0.124  21.979  1.00  0.00    -0.058 C 
BRANCH   8   9
HETATM    9  N   UNL     1       7.508  -0.494  21.254  1.00  0.00    -0.254 N 
ATOM     10  HN  UNL     1       7.122  -1.408  21.491  1.00  0.00     0.188 HD
BRANCH   9  11
HETATM   11  S   UNL     1       6.836   0.196  19.962  1.00  0.00     0.233 S 
HETATM   12  C   UNL     1       5.644  -0.727  19.507  1.00  0.00     0.186 C 
HETATM   13  O   UNL     1       6.324   1.485  20.362  1.00  0.00    -0.206 OA
HETATM   14  O   UNL     1       7.824   0.337  18.912  1.00  0.00    -0.206 OA
ENDBRANCH   9  11
ENDBRANCH   8   9
ENDBRANCH   7   8
ENDBRANCH   1   7
BRANCH   1  15
HETATM   15  C   UNL     1       9.647  -1.260  24.211  1.00  0.00    -0.064 C 
BRANCH  15  16
HETATM   16  C   UNL     1       8.995  -2.054  25.031  1.00  0.00     0.290 C 
HETATM   17  O   UNL     1       8.724  -1.586  26.049  1.00  0.00    -0.259 OA
HETATM   18  N   UNL     1       8.829  -3.270  24.502  1.00  0.00    -0.315 N 
ATOM     19  HN  UNL     1       9.213  -3.518  23.590  1.00  0.00     0.170 HD
BRANCH  18  20
HETATM   20  C   UNL     1       8.171  -4.095  25.195  1.00  0.00     0.060 A 
HETATM   21  C   UNL     1       8.377  -4.877  26.214  1.00  0.00     0.117 A 
HETATM   22  N   UNL     1       7.971  -5.705  27.096  1.00  0.00    -0.373 N 
HETATM   23  C   UNL     1       6.778  -5.765  26.713  1.00  0.00     0.088 A 
ATOM     24  HN  UNL     1       8.458  -6.168  27.864  1.00  0.00     0.164 HD
HETATM   25  C   UNL     1       6.177  -5.186  25.798  1.00  0.00     0.030 A 
HETATM   26  C   UNL     1       6.640  -4.273  24.871  1.00  0.00    -0.016 A 
HETATM   27  C   UNL     1       6.072  -3.684  24.031  1.00  0.00     0.026 C 
ENDBRANCH  18  20
ENDBRANCH  15  16
ENDBRANCH   1  15
TORSDOF 7
ENDMDL
MODEL 4
REMARK VINA RESULT:    -6.494      4.155      6.113
REMARK INTER + INTRA:         -10.382
REMARK INTER:                  -9.774
REMARK INTRA:                  -0.608
REMARK UNBOUND:                -1.231
REMARK  7 active torsions:
REMARK  status: ('A' for Active; 'I' for Inactive)
REMARK    1  A    between atoms: S_2  and  N_5 
REMARK    2  A    between atoms: N_5  and  C_7 
REMARK    3  A    between atoms: C_7  and  C_8 
REMARK    4  A    between atoms: C_8  and  C_9 
REMARK    5  A    between atoms: C_9  and  C_15 
REMARK    6  A    between atoms: C_15  and  C_16 
REMARK       I    between atoms: C_16  and  N_18 
REMARK    7  A    between atoms: N_18  and  C_20 
ROOT
HETATM    1  C   UNL     1       7.585  -4.506  24.274  1.00  0.00     0.068 C 
HETATM    2  C   UNL     1       7.644  -5.577  22.890  1.00  0.00     0.000 C 
HETATM    3  C   UNL     1       6.850  -5.594  22.170  1.00  0.00    -0.002 C 
HETATM    4  C   UNL     1       5.619  -4.992  22.081  1.00  0.00    -0.001 C 
HETATM    5  C   UNL     1       5.344  -4.217  23.235  1.00  0.00    -0.002 C 
HETATM    6  C   UNL     1       5.921  -4.021  24.073  1.00  0.00     0.000 C 
ENDROOT
BRANCH   1   7
HETATM    7  C   UNL     1       8.002  -4.839  25.423  1.00  0.00     0.135 C 
BRANCH   7   8
HETATM    8  C   UNL     1       7.964  -5.278  26.504  1.00  0.00    -0.058 C 
BRANCH   8   9
HETATM    9  N   UNL     1       7.649  -5.965  27.422  1.00  0.00    -0.254 N 
ATOM     10  HN  UNL     1       8.350  -6.655  27.691  1.00  0.00     0.188 HD
BRANCH   9  11
HETATM   11  S   UNL     1       6.309  -5.995  28.317  1.00  0.00     0.233 S 
HETATM   12  C   UNL     1       5.472  -4.713  27.946  1.00  0.00     0.186 C 
HETATM   13  O   UNL     1       5.564  -7.179  27.961  1.00  0.00    -0.206 OA
HETATM   14  O   UNL     1       6.658  -6.008  29.723  1.00  0.00    -0.206 OA
ENDBRANCH   9  11
ENDBRANCH   8   9
ENDBRANCH   7   8
ENDBRANCH   1   7
BRANCH   1  15
HETATM   15  C   UNL     1       8.242  -3.490  24.001  1.00  0.00    -0.064 C 
BRANCH  15  16
HETATM   16  C   UNL     1       9.034  -2.487  23.696  1.00  0.00     0.290 C 
HETATM   17  O   UNL     1       9.226  -2.344  22.569  1.00  0.00    -0.259 OA
HETATM   18  N   UNL     1       9.485  -1.872  24.794  1.00  0.00    -0.315 N 
ATOM     19  HN  UNL     1       9.251  -2.201  25.731  1.00  0.00     0.170 HD
BRANCH  18  20
HETATM   20  C   UNL     1      10.220  -0.862  24.606  1.00  0.00     0.060 A 
HETATM   21  C   UNL     1      11.455  -0.618  24.279  1.00  0.00     0.117 A 
HETATM   22  N   UNL     1      12.402   0.186  23.985  1.00  0.00    -0.373 N 
HETATM   23  C   UNL     1      11.750   1.249  24.124  1.00  0.00     0.088 A 
ATOM     24  HN  UNL     1      13.373   0.018  23.722  1.00  0.00     0.164 HD
HETATM   25  C   UNL     1      10.565   1.456  24.418  1.00  0.00     0.030 A 
HETATM   26  C   UNL     1       9.554   0.561  24.709  1.00  0.00    -0.016 A 
HETATM   27  C   UNL     1       8.420   0.742  24.943  1.00  0.00     0.026 C 
ENDBRANCH  18  20
ENDBRANCH  15  16
ENDBRANCH   1  15
TORSDOF 7
ENDMDL
MODEL 5
REMARK VINA RESULT:    -6.465      2.895      6.422
REMARK INTER + INTRA:         -10.341
REMARK INTER:                  -8.792
REMARK INTRA:                  -1.549
REMARK UNBOUND:                -1.231
REMARK  7 active torsions:
REMARK  status: ('A' for Active; 'I' for Inactive)
REMARK    1  A    between atoms: S_2  and  N_5 
REMARK    2  A    between atoms: N_5  and  C_7 
REMARK    3  A    between atoms: C_7  and  C_8 
REMARK    4  A    between atoms: C_8  and  C_9 
REMARK    5  A    between atoms: C_9  and  C_15 
REMARK    6  A    between atoms: C_15  and  C_16 
REMARK       I    between atoms: C_16  and  N_18 
REMARK    7  A    between atoms: N_18  and  C_20 
ROOT
HETATM    1  C   UNL     1       8.059   0.794  21.430  1.00  0.00     0.068 C 
HETATM    2  C   UNL     1       6.561   1.687  21.266  1.00  0.00     0.000 C 
HETATM    3  C   UNL     1       5.888   1.493  20.454  1.00  0.00    -0.002 C 
HETATM    4  C   UNL     1       5.936   0.702  19.334  1.00  0.00    -0.001 C 
HETATM    5  C   UNL     1       7.184   0.038  19.228  1.00  0.00    -0.002 C 
HETATM    6  C   UNL     1       8.006   0.036  19.860  1.00  0.00     0.000 C 
ENDROOT
BRANCH   1   7
HETATM    7  C   UNL     1       9.138   1.324  21.830  1.00  0.00     0.135 C 
BRANCH   7   8
HETATM    8  C   UNL     1      10.219   1.382  22.267  1.00  0.00    -0.058 C 
BRANCH   8   9
HETATM    9  N   UNL     1      11.130   1.253  23.019  1.00  0.00    -0.254 N 
ATOM     10  HN  UNL     1      11.816   2.008  22.983  1.00  0.00     0.188 HD
BRANCH   9  11
HETATM   11  S   UNL     1      11.472   0.095  24.086  1.00  0.00     0.233 S 
HETATM   12  C   UNL     1      10.419   0.209  25.251  1.00  0.00     0.186 C 
HETATM   13  O   UNL     1      11.323  -1.178  23.423  1.00  0.00    -0.206 OA
HETATM   14  O   UNL     1      12.824   0.265  24.578  1.00  0.00    -0.206 OA
ENDBRANCH   9  11
ENDBRANCH   8   9
ENDBRANCH   7   8
ENDBRANCH   1   7
BRANCH   1  15
HETATM   15  C   UNL     1       7.866  -0.133  22.232  1.00  0.00    -0.064 C 
BRANCH  15  16
HETATM   16  C   UNL     1       7.606  -1.034  23.151  1.00  0.00     0.290 C 
HETATM   17  O   UNL     1       6.704  -0.794  23.827  1.00  0.00    -0.259 OA
HETATM   18  N   UNL     1       8.498  -2.030  23.123  1.00  0.00    -0.315 N 
ATOM     19  HN  UNL     1       9.288  -2.027  22.478  1.00  0.00     0.170 HD
BRANCH  18  20
HETATM   20  C   UNL     1       8.307  -2.973  23.941  1.00  0.00     0.060 A 
HETATM   21  C   UNL     1       8.507  -3.206  25.205  1.00  0.00     0.117 A 
HETATM   22  N   UNL     1       8.401  -3.941  26.243  1.00  0.00    -0.373 N 
HETATM   23  C   UNL     1       7.834  -4.912  25.686  1.00  0.00     0.088 A 
ATOM     24  HN  UNL     1       8.685  -3.789  27.211  1.00  0.00     0.164 HD
HETATM   25  C   UNL     1       7.465  -5.091  24.518  1.00  0.00     0.030 A 
HETATM   26  C   UNL     1       7.573  -4.263  23.418  1.00  0.00    -0.016 A 
HETATM   27  C   UNL     1       7.187  -4.402  22.319  1.00  0.00     0.026 C 
ENDBRANCH  18  20
ENDBRANCH  15  16
ENDBRANCH   1  15
TORSDOF 7
ENDMDL
MODEL 6
REMARK VINA RESULT:    -6.206     14.535     16.015
REMARK INTER + INTRA:          -9.977
REMARK INTER:                  -9.117
REMARK INTRA:                  -0.860
REMARK UNBOUND:                -1.231
REMARK  7 active torsions:
REMARK  status: ('A' for Active; 'I' for Inactive)
REMARK    1  A    between atoms: S_2  and  N_5 
REMARK    2  A    between atoms: N_5  and  C_7 
REMARK    3  A    between atoms: C_7  and  C_8 
REMARK    4  A    between atoms: C_8  and  C_9 
REMARK    5  A    between atoms: C_9  and  C_15 
REMARK    6  A    between atoms: C_15  and  C_16 
REMARK       I    between atoms: C_16  and  N_18 
REMARK    7  A    between atoms: N_18  and  C_20 
ROOT
HETATM    1  C   UNL     1      23.142  -1.750  23.538  1.00  0.00     0.068 C 
HETATM    2  C   UNL     1      21.601  -1.684  24.367  1.00  0.00     0.000 C 
HETATM    3  C   UNL     1      21.247  -0.771  24.804  1.00  0.00    -0.002 C 
HETATM    4  C   UNL     1      21.782   0.481  24.980  1.00  0.00    -0.001 C 
HETATM    5  C   UNL     1      23.119   0.538  24.513  1.00  0.00    -0.002 C 
HETATM    6  C   UNL     1      23.705  -0.180  24.049  1.00  0.00     0.000 C 
ENDROOT
BRANCH   1   7
HETATM    7  C   UNL     1      23.923  -2.745  23.611  1.00  0.00     0.135 C 
BRANCH   7   8
HETATM    8  C   UNL     1      24.255  -3.851  23.785  1.00  0.00    -0.058 C 
BRANCH   8   9
HETATM    9  N   UNL     1      24.191  -5.014  24.020  1.00  0.00    -0.254 N 
ATOM     10  HN  UNL     1      24.280  -5.615  23.200  1.00  0.00     0.188 HD
BRANCH   9  11
HETATM   11  S   UNL     1      23.989  -5.809  25.407  1.00  0.00     0.233 S 
HETATM   12  C   UNL     1      25.371  -5.789  26.162  1.00  0.00     0.186 C 
HETATM   13  O   UNL     1      23.002  -5.101  26.186  1.00  0.00    -0.206 OA
HETATM   14  O   UNL     1      23.556  -7.165  25.137  1.00  0.00    -0.206 OA
ENDBRANCH   9  11
ENDBRANCH   8   9
ENDBRANCH   7   8
ENDBRANCH   1   7
BRANCH   1  15
HETATM   15  C   UNL     1      22.930  -1.626  22.323  1.00  0.00    -0.064 C 
BRANCH  15  16
HETATM   16  C   UNL     1      22.697  -1.615  21.030  1.00  0.00     0.290 C 
HETATM   17  O   UNL     1      21.601  -1.811  20.731  1.00  0.00    -0.259 OA
HETATM   18  N   UNL     1      23.822  -1.421  20.335  1.00  0.00    -0.315 N 
ATOM     19  HN  UNL     1      24.730  -1.337  20.792  1.00  0.00     0.170 HD
BRANCH  18  20
HETATM   20  C   UNL     1      23.697  -1.348  19.080  1.00  0.00     0.060 A 
HETATM   21  C   UNL     1      23.366  -0.453  18.196  1.00  0.00     0.117 A 
HETATM   22  N   UNL     1      23.204  -0.071  16.989  1.00  0.00    -0.373 N 
HETATM   23  C   UNL     1      23.513  -1.157  16.442  1.00  0.00     0.088 A 
ATOM     24  HN  UNL     1      22.917   0.825  16.596  1.00  0.00     0.164 HD
HETATM   25  C   UNL     1      23.887  -2.240  16.913  1.00  0.00     0.030 A 
HETATM   26  C   UNL     1      24.076  -2.616  18.228  1.00  0.00    -0.016 A 
HETATM   27  C   UNL     1      24.473  -3.621  18.683  1.00  0.00     0.026 C 
ENDBRANCH  18  20
ENDBRANCH  15  16
ENDBRANCH   1  15
TORSDOF 7
ENDMDL
MODEL 7
REMARK VINA RESULT:    -6.149      2.837      6.304
REMARK INTER + INTRA:          -9.896
REMARK INTER:                  -9.128
REMARK INTRA:                  -0.769
REMARK UNBOUND:                -1.231
REMARK  7 active torsions:
REMARK  status: ('A' for Active; 'I' for Inactive)
REMARK    1  A    between atoms: S_2  and  N_5 
REMARK    2  A    between atoms: N_5  and  C_7 
REMARK    3  A    between atoms: C_7  and  C_8 
REMARK    4  A    between atoms: C_8  and  C_9 
REMARK    5  A    between atoms: C_9  and  C_15 
REMARK    6  A    between atoms: C_15  and  C_16 
REMARK       I    between atoms: C_16  and  N_18 
REMARK    7  A    between atoms: N_18  and  C_20 
ROOT
HETATM    1  C   UNL     1       7.734   0.328  20.831  1.00  0.00     0.068 C 
HETATM    2  C   UNL     1       6.401   1.426  21.123  1.00  0.00     0.000 C 
HETATM    3  C   UNL     1       5.617   1.548  20.401  1.00  0.00    -0.002 C 
HETATM    4  C   UNL     1       5.403   1.083  19.127  1.00  0.00    -0.001 C 
HETATM    5  C   UNL     1       6.500   0.310  18.672  1.00  0.00    -0.002 C 
HETATM    6  C   UNL     1       7.376   0.029  19.150  1.00  0.00     0.000 C 
ENDROOT
BRANCH   1   7
HETATM    7  C   UNL     1       8.926   0.583  21.178  1.00  0.00     0.135 C 
BRANCH   7   8
HETATM    8  C   UNL     1       9.809   0.883  21.881  1.00  0.00    -0.058 C 
BRANCH   8   9
HETATM    9  N   UNL     1      10.755   1.467  22.302  1.00  0.00    -0.254 N 
ATOM     10  HN  UNL     1      11.410   1.780  21.585  1.00  0.00     0.188 HD
BRANCH   9  11
HETATM   11  S   UNL     1      11.182   1.853  23.806  1.00  0.00     0.233 S 
HETATM   12  C   UNL     1       9.973   1.482  24.745  1.00  0.00     0.186 C 
HETATM   13  O   UNL     1      12.332   1.056  24.161  1.00  0.00    -0.206 OA
HETATM   14  O   UNL     1      11.492   3.267  23.881  1.00  0.00    -0.206 OA
ENDBRANCH   9  11
ENDBRANCH   8   9
ENDBRANCH   7   8
ENDBRANCH   1   7
BRANCH   1  15
HETATM   15  C   UNL     1       7.480  -0.743  21.401  1.00  0.00    -0.064 C 
BRANCH  15  16
HETATM   16  C   UNL     1       7.256  -1.935  21.907  1.00  0.00     0.290 C 
HETATM   17  O   UNL     1       8.200  -2.510  22.234  1.00  0.00    -0.259 OA
HETATM   18  N   UNL     1       5.954  -2.236  21.886  1.00  0.00    -0.315 N 
ATOM     19  HN  UNL     1       5.261  -1.606  21.480  1.00  0.00     0.170 HD
BRANCH  18  20
HETATM   20  C   UNL     1       5.629  -3.345  22.395  1.00  0.00     0.060 A 
HETATM   21  C   UNL     1       5.561  -4.590  22.026  1.00  0.00     0.117 A 
HETATM   22  N   UNL     1       5.350  -5.825  22.270  1.00  0.00    -0.373 N 
HETATM   23  C   UNL     1       5.033  -5.691  23.477  1.00  0.00     0.088 A 
ATOM     24  HN  UNL     1       5.417  -6.652  21.677  1.00  0.00     0.164 HD
HETATM   25  C   UNL     1       4.975  -4.692  24.208  1.00  0.00     0.030 A 
HETATM   26  C   UNL     1       5.233  -3.367  23.919  1.00  0.00    -0.016 A 
HETATM   27  C   UNL     1       5.226  -2.421  24.612  1.00  0.00     0.026 C 
ENDBRANCH  18  20
ENDBRANCH  15  16
ENDBRANCH   1  15
TORSDOF 7
ENDMDL
MODEL 8
REMARK VINA RESULT:    -6.018      2.943      5.840
REMARK INTER + INTRA:          -9.711
REMARK INTER:                  -8.378
REMARK INTRA:                  -1.334
REMARK UNBOUND:                -1.231
REMARK  7 active torsions:
REMARK  status: ('A' for Active; 'I' for Inactive)
REMARK    1  A    between atoms: S_2  and  N_5 
REMARK    2  A    between atoms: N_5  and  C_7 
REMARK    3  A    between atoms: C_7  and  C_8 
REMARK    4  A    between atoms: C_8  and  C_9 
REMARK    5  A    between atoms: C_9  and  C_15 
REMARK    6  A    between atoms: C_15  and  C_16 
REMARK       I    between atoms: C_16  and  N_18 
REMARK    7  A    between atoms: N_18  and  C_20 
ROOT
HETATM    1  C   UNL     1       9.388  -0.773  23.599  1.00  0.00     0.068 C 
HETATM    2  C   UNL     1      10.862  -1.568  23.086  1.00  0.00     0.000 C 
HETATM    3  C   UNL     1      11.823  -1.196  23.382  1.00  0.00    -0.002 C 
HETATM    4  C   UNL     1      12.256  -0.086  24.063  1.00  0.00    -0.001 C 
HETATM    5  C   UNL     1      11.172   0.765  24.397  1.00  0.00    -0.002 C 
HETATM    6  C   UNL     1      10.153   0.657  24.243  1.00  0.00     0.000 C 
ENDROOT
BRANCH   1   7
HETATM    7  C   UNL     1       8.372  -0.653  22.852  1.00  0.00     0.135 C 
BRANCH   7   8
HETATM    8  C   UNL     1       7.340  -0.920  22.376  1.00  0.00    -0.058 C 
BRANCH   8   9
HETATM    9  N   UNL     1       6.361  -1.535  22.100  1.00  0.00    -0.254 N 
ATOM     10  HN  UNL     1       5.563  -0.958  21.834  1.00  0.00     0.188 HD
BRANCH   9  11
HETATM   11  S   UNL     1       6.074  -3.120  22.072  1.00  0.00     0.233 S 
HETATM   12  C   UNL     1       4.998  -3.419  23.183  1.00  0.00     0.186 C 
HETATM   13  O   UNL     1       5.535  -3.452  20.775  1.00  0.00    -0.206 OA
HETATM   14  O   UNL     1       7.303  -3.846  22.321  1.00  0.00    -0.206 OA
ENDBRANCH   9  11
ENDBRANCH   8   9
ENDBRANCH   7   8
ENDBRANCH   1   7
BRANCH   1  15
HETATM   15  C   UNL     1       8.957  -1.372  24.595  1.00  0.00    -0.064 C 
BRANCH  15  16
HETATM   16  C   UNL     1       8.413  -1.923  25.657  1.00  0.00     0.290 C 
HETATM   17  O   UNL     1       8.645  -1.392  26.653  1.00  0.00    -0.259 OA
HETATM   18  N   UNL     1       7.735  -3.030  25.337  1.00  0.00    -0.315 N 
ATOM     19  HN  UNL     1       7.704  -3.387  24.382  1.00  0.00     0.170 HD
BRANCH  18  20
HETATM   20  C   UNL     1       7.135  -3.610  26.285  1.00  0.00     0.060 A 
HETATM   21  C   UNL     1       6.037  -3.456  26.967  1.00  0.00     0.117 A 
HETATM   22  N   UNL     1       5.200  -3.839  27.851  1.00  0.00    -0.373 N 
HETATM   23  C   UNL     1       5.823  -4.865  28.217  1.00  0.00     0.088 A 
ATOM     24  HN  UNL     1       4.313  -3.441  28.159  1.00  0.00     0.164 HD
HETATM   25  C   UNL     1       6.887  -5.367  27.828  1.00  0.00     0.030 A 
HETATM   26  C   UNL     1       7.761  -4.939  26.849  1.00  0.00    -0.016 A 
HETATM   27  C   UNL     1       8.746  -5.429  26.441  1.00  0.00     0.026 C 
ENDBRANCH  18  20
ENDBRANCH  15  16
ENDBRANCH   1  15
TORSDOF 7
ENDMDL
MODEL 9
REMARK VINA RESULT:    -5.752      3.284      4.491
REMARK INTER + INTRA:          -9.336
REMARK INTER:                  -8.159
REMARK INTRA:                  -1.177
REMARK UNBOUND:                -1.231
REMARK  7 active torsions:
REMARK  status: ('A' for Active; 'I' for Inactive)
REMARK    1  A    between atoms: S_2  and  N_5 
REMARK    2  A    between atoms: N_5  and  C_7 
REMARK    3  A    between atoms: C_7  and  C_8 
REMARK    4  A    between atoms: C_8  and  C_9 
REMARK    5  A    between atoms: C_9  and  C_15 
REMARK    6  A    between atoms: C_15  and  C_16 
REMARK       I    between atoms: C_16  and  N_18 
REMARK    7  A    between atoms: N_18  and  C_20 
ROOT
HETATM    1  C   UNL     1       8.971  -0.295  23.041  1.00  0.00     0.068 C 
HETATM    2  C   UNL     1       9.361  -0.403  24.745  1.00  0.00     0.000 C 
HETATM    3  C   UNL     1      10.376  -0.496  25.075  1.00  0.00    -0.002 C 
HETATM    4  C   UNL     1      11.583  -0.658  24.440  1.00  0.00    -0.001 C 
HETATM    5  C   UNL     1      11.412  -0.770  23.038  1.00  0.00    -0.002 C 
HETATM    6  C   UNL     1      10.559  -0.713  22.452  1.00  0.00     0.000 C 
ENDROOT
BRANCH   1   7
HETATM    7  C   UNL     1       7.952  -0.846  22.529  1.00  0.00     0.135 C 
BRANCH   7   8
HETATM    8  C   UNL     1       7.092  -1.033  21.762  1.00  0.00    -0.058 C 
BRANCH   8   9
HETATM    9  N   UNL     1       6.393  -0.898  20.810  1.00  0.00    -0.254 N 
ATOM     10  HN  UNL     1       5.612  -1.552  20.766  1.00  0.00     0.188 HD
BRANCH   9  11
HETATM   11  S   UNL     1       6.464   0.138  19.578  1.00  0.00     0.233 S 
HETATM   12  C   UNL     1       5.622  -0.480  18.400  1.00  0.00     0.186 C 
HETATM   13  O   UNL     1       5.860   1.378  20.005  1.00  0.00    -0.206 OA
HETATM   14  O   UNL     1       7.844   0.344  19.189  1.00  0.00    -0.206 OA
ENDBRANCH   9  11
ENDBRANCH   8   9
ENDBRANCH   7   8
ENDBRANCH   1   7
BRANCH   1  15
HETATM   15  C   UNL     1       8.837   0.905  22.754  1.00  0.00    -0.064 C 
BRANCH  15  16
HETATM   16  C   UNL     1       8.774   2.157  22.361  1.00  0.00     0.290 C 
HETATM   17  O   UNL     1       9.343   2.389  21.386  1.00  0.00    -0.259 OA
HETATM   18  N   UNL     1       8.085   2.905  23.228  1.00  0.00    -0.315 N 
ATOM     19  HN  UNL     1       7.708   2.518  24.093  1.00  0.00     0.170 HD
BRANCH  18  20
HETATM   20  C   UNL     1       7.928   4.118  22.915  1.00  0.00     0.060 A 
HETATM   21  C   UNL     1       7.117   4.828  22.188  1.00  0.00     0.117 A 
HETATM   22  N   UNL     1       6.690   5.946  21.744  1.00  0.00    -0.373 N 
HETATM   23  C   UNL     1       7.536   6.672  22.320  1.00  0.00     0.088 A 
ATOM     24  HN  UNL     1       5.914   6.175  21.123  1.00  0.00     0.164 HD
HETATM   25  C   UNL     1       8.464   6.401  23.094  1.00  0.00     0.030 A 
HETATM   26  C   UNL     1       8.887   5.178  23.576  1.00  0.00    -0.016 A 
HETATM   27  C   UNL     1       9.734   4.913  24.343  1.00  0.00     0.026 C 
ENDBRANCH  18  20
ENDBRANCH  15  16
ENDBRANCH   1  15
TORSDOF 7
ENDMDL
