REMARK  6 active torsions:
REMARK  status: ('A' for Active; 'I' for Inactive)
REMARK    1  A    between atoms: S_1  and  C_13 
REMARK    2  A    between atoms: S_1  and  O_17 
REMARK    3  A    between atoms: C_2  and  C_20 
REMARK    4  A    between atoms: N_3  and  C_5 
REMARK    5  A    between atoms: C_5  and  C_13 
REMARK       I    between atoms: N_6  and  C_14 
REMARK       I    between atoms: N_10  and  C_14 
REMARK    6  A    between atoms: C_15  and  C_20 
ROOT
HETATM    1  C   UNL     1       8.713  -1.993  24.230  1.00  0.00     0.121 C 
HETATM    2  N   UNL     1       9.450  -0.972  24.601  1.00  0.00    -0.293 N 
ATOM      3  HN  UNL     1       9.877  -0.367  23.899  1.00  0.00     0.172 HD
HETATM    4  N   UNL     1      12.076  -0.448  24.045  1.00  0.00    -0.172 NA
HETATM    5  N   UNL     1      10.738   0.124  25.974  1.00  0.00    -0.245 N 
HETATM    6  C   UNL     1      11.537  -0.137  24.931  1.00  0.00     0.185 C 
HETATM    7  O   UNL     1       9.026  -1.103  26.884  1.00  0.00    -0.246 OA
HETATM    8  C   UNL     1       9.642  -0.724  25.920  1.00  0.00     0.334 C 
HETATM    9  H   UNL     1      10.900   0.765  26.698  1.00  0.00     0.183 HD
ENDROOT
BRANCH   1  10
HETATM   10  N   UNL     1       8.528  -2.981  25.063  1.00  0.00    -0.384 N 
HETATM   11  H   UNL     1       7.526  -3.101  25.068  1.00  0.00     0.157 HD
ATOM     12  HN  UNL     1       9.229  -3.507  25.585  1.00  0.00     0.157 HD
ENDBRANCH   1  10
BRANCH   1  13
HETATM   13  C   UNL     1       8.140  -1.875  22.877  1.00  0.00     0.068 C 
HETATM   14  C   UNL     1       8.302  -0.817  22.067  1.00  0.00    -0.002 C 
BRANCH  13  15
HETATM   15  S   UNL     1       7.081  -3.224  22.512  1.00  0.00     0.029 SA
BRANCH  15  16
HETATM   16  O   UNL     1       5.868  -2.917  23.498  1.00  0.00    -0.325 OA
ATOM     17  HO  UNL     1       5.294  -3.648  23.300  1.00  0.00     0.228 HD
ENDBRANCH  15  16
ENDBRANCH  13  15
BRANCH  14  18
HETATM   18  C   UNL     1       7.692  -0.664  20.690  1.00  0.00     0.028 C 
BRANCH  18  19
HETATM   19  C   UNL     1       8.466  -0.444  19.335  1.00  0.00    -0.001 C 
HETATM   20  C   UNL     1       8.435  -1.599  18.466  1.00  0.00     0.005 C 
ENDBRANCH  18  19
ENDBRANCH  14  18
ENDBRANCH   1  13
TORSDOF 6
