stable:False satoms:20 tatoms:24 sratio:0.8333333333333334
  -OEChem-07092417283D

 24 23  0     0  0  0  0  0  0999 V2000
    7.0809   -3.2244   22.5115 S   0  0  0  0  0  0  0  0  0  0  0  0
    9.4808   -0.1808   19.5936 H   0  0  0  0  0  0  0  0  0  0  0  0
    8.0889   -1.5367   17.4660 H   0  0  0  0  0  0  0  0  0  0  0  0
    8.0104    0.4088   18.8163 H   0  0  0  0  0  0  0  0  0  0  0  0
    8.3017   -0.8165   22.0666 C   0  0  0  0  0  0  0  0  0  0  0  0
    8.5276   -2.9813   25.0626 N   0  0  0  0  0  0  0  0  0  0  0  0
    7.0777    0.2176   20.7523 H   0  0  0  0  0  0  0  0  0  0  0  0
    8.7134   -1.9933   24.2303 C   0  0  0  0  0  0  0  0  0  0  0  0
    9.4497   -0.9724   24.6012 N   0  0  0  0  0  0  0  0  0  0  0  0
   12.0761   -0.4477   24.0453 N   0  0  0  0  0  0  0  0  0  0  0  0
    7.5263   -3.1008   25.0681 H   0  0  0  0  0  0  0  0  0  0  0  0
    8.8618    0.0255   22.4478 H   0  0  0  0  0  0  0  0  0  0  0  0
   10.7379    0.1245   25.9742 N   0  0  0  0  0  0  0  0  0  0  0  0
   11.5371   -0.1367   24.9307 C   0  0  0  0  0  0  0  0  0  0  0  0
    7.1614   -1.5892   20.5478 H   0  0  0  0  0  0  0  0  0  0  0  0
    8.7842   -2.5261   18.8133 H   0  0  0  0  0  0  0  0  0  0  0  0
    9.0259   -1.1030   26.8843 O   0  0  0  0  0  0  0  0  0  0  0  0
    8.1403   -1.8754   22.8774 C   0  0  0  0  0  0  0  0  0  0  0  0
    9.6416   -0.7238   25.9202 C   0  0  0  0  0  0  0  0  0  0  0  0
    8.4657   -0.4435   19.3354 C   0  0  0  0  0  0  0  0  0  0  0  0
   10.8999    0.7651   26.6976 H   0  0  0  0  0  0  0  0  0  0  0  0
    5.8679   -2.9166   23.4979 O   0  0  0  0  0  0  0  0  0  0  0  0
    8.4346   -1.5994   18.4660 C   0  5  0  0  0  0  0  0  0  0  0  0
    7.6922   -0.6641   20.6902 C   0  0  0  0  0  0  0  0  0  0  0  0
  3 23  1  0  0  0  0
 16 23  1  0  0  0  0
 20 23  1  0  0  0  0
  4 20  1  0  0  0  0
  2 20  1  0  0  0  0
 20 24  1  0  0  0  0
 15 24  1  0  0  0  0
  7 24  1  0  0  0  0
  5 24  1  0  0  0  0
  5 12  1  0  0  0  0
  5 18  2  0  0  0  0
  1 18  1  0  0  0  0
  1 22  1  0  0  0  0
  8 18  1  0  0  0  0
 10 14  2  0  0  0  0
  8  9  1  0  0  0  0
  6  8  2  3  0  0  0
  9 19  1  0  0  0  0
 13 14  1  0  0  0  0
  6 11  1  0  0  0  0
 13 19  1  0  0  0  0
 17 19  2  0  0  0  0
 13 21  1  0  0  0  0
M  CHG  1  23  -1
M  END
> <Shapegauss>
-135.210327

$$$$
