stable:False satoms:21 tatoms:24 sratio:0.875
  -OEChem-08052418183D

 24 25  0     1  0  0  0  0  0999 V2000
  -10.5260    2.0194  -24.2973 S   0  0  0  0  0  0  0  0  0  0  0  0
  -10.9675    0.4448  -22.0727 H   0  0  0  0  0  0  0  0  0  0  0  0
  -13.5168    0.6881  -24.3646 H   0  0  0  0  0  0  0  0  0  0  0  0
  -12.7464   -0.0683  -24.4722 C   0  0  0  0  0  0  0  0  0  0  0  0
  -11.5034    0.7653  -24.2405 N   0  0  1  0  0  0  0  0  0  0  0  0
  -10.3054    0.3671  -24.7054 C   0  0  2  0  0  0  0  0  0  0  0  0
   -9.7004   -1.2077  -21.2582 N   0  0  0  0  0  0  0  0  0  0  0  0
  -12.5819   -0.3967  -25.4806 H   0  0  0  0  0  0  0  0  0  0  0  0
  -14.4127   -0.8547  -22.0906 H   0  0  0  0  0  0  0  0  0  0  0  0
  -14.2276   -1.5919  -24.2643 H   0  0  0  0  0  0  0  0  0  0  0  0
  -13.8178   -2.4933  -21.9662 H   0  0  0  0  0  0  0  0  0  0  0  0
  -12.6162   -2.2394  -24.0520 H   0  0  0  0  0  0  0  0  0  0  0  0
  -13.5655   -1.4871  -22.2946 C   0  0  0  0  0  0  0  0  0  0  0  0
  -13.2671   -1.4285  -23.7832 C   0  0  0  0  0  0  0  0  0  0  0  0
  -12.7210   -1.1276  -21.7166 H   0  0  0  0  0  0  0  0  0  0  0  0
   -9.9495   -1.2850  -24.0981 C   0  0  0  0  0  0  0  0  0  0  0  0
   -8.7664   -1.5283  -21.4438 H   0  0  0  0  0  0  0  0  0  0  0  0
  -10.4707   -1.9369  -24.7833 H   0  0  0  0  0  0  0  0  0  0  0  0
  -10.2999   -1.3767  -22.7632 N   0  0  2  0  0  0  0  0  0  0  0  0
   -9.4057    0.2549  -25.5650 O   0  0  0  0  0  0  0  0  0  0  0  0
   -9.2179    0.5304  -22.2591 H   0  0  0  0  0  0  0  0  0  0  0  0
   -8.8707   -1.3726  -24.2445 H   0  0  0  0  0  0  0  0  0  0  0  0
  -10.0248   -0.2099  -22.0808 C   0  0  0  0  0  0  0  0  0  0  0  0
   -9.3596    1.0509  -26.0815 H   0  0  0  0  0  0  0  0  0  0  0  0
 16 22  1  0  0  0  0
 16 18  1  0  0  0  0
 16 19  1  0  0  0  0
  6 16  1  0  0  0  0
  7 17  1  0  0  0  0
 12 14  1  0  0  0  0
  7 19  1  0  0  0  0
 19 23  1  0  0  0  0
  6 20  1  0  0  0  0
  7 23  1  0  0  0  0
 11 13  1  0  0  0  0
 10 14  1  0  0  0  0
 13 14  1  0  0  0  0
  4 14  1  0  0  0  0
  5  6  1  0  0  0  0
  1  6  1  0  0  0  0
  4  8  1  0  0  0  0
 21 23  1  0  0  0  0
  2 23  1  0  0  0  0
 13 15  1  0  0  0  0
  9 13  1  0  0  0  0
  4  5  1  0  0  0  0
  3  4  1  0  0  0  0
  1  5  1  0  0  0  0
 20 24  1  0  0  0  0
M  END
> <Chemgauss4>
-5.469952

$$$$
