stable:False satoms:21 tatoms:24 sratio:0.875
  -OEChem-08052418183D

 24 25  0     1  0  0  0  0  0999 V2000
   11.6515    2.1142   24.1667 S   0  0  0  0  0  0  0  0  0  0  0  0
   11.6381    0.3114   22.0756 H   0  0  0  0  0  0  0  0  0  0  0  0
   14.3343    0.2374   24.2053 H   0  0  0  0  0  0  0  0  0  0  0  0
   13.4437   -0.3441   24.4198 C   0  0  0  0  0  0  0  0  0  0  0  0
   12.3682    0.6937   24.1756 N   0  0  1  0  0  0  0  0  0  0  0  0
   11.1502    0.5740   24.7342 C   0  0  2  0  0  0  0  0  0  0  0  0
   10.0301   -1.1233   21.4793 N   0  0  0  0  0  0  0  0  0  0  0  0
   13.2877   -0.5528   25.4609 H   0  0  0  0  0  0  0  0  0  0  0  0
   14.7690   -1.6264   22.0394 H   0  0  0  0  0  0  0  0  0  0  0  0
   14.5930   -2.1379   24.2777 H   0  0  0  0  0  0  0  0  0  0  0  0
   13.8680   -3.1230   22.0947 H   0  0  0  0  0  0  0  0  0  0  0  0
   12.8777   -2.4751   24.2062 H   0  0  0  0  0  0  0  0  0  0  0  0
   13.8329   -2.0640   22.3423 C   0  0  0  0  0  0  0  0  0  0  0  0
   13.6508   -1.8300   23.8323 C   0  0  0  0  0  0  0  0  0  0  0  0
   13.0351   -1.5947   21.7769 H   0  0  0  0  0  0  0  0  0  0  0  0
   10.4487   -1.0206   24.2985 C   0  0  0  0  0  0  0  0  0  0  0  0
    9.0668   -1.2407   21.7399 H   0  0  0  0  0  0  0  0  0  0  0  0
   10.8817   -1.7046   25.0133 H   0  0  0  0  0  0  0  0  0  0  0  0
   10.6857   -1.2849   22.9617 N   0  0  2  0  0  0  0  0  0  0  0  0
   10.3048    0.7075   25.6444 O   0  0  0  0  0  0  0  0  0  0  0  0
    9.9527    0.7496   22.3407 H   0  0  0  0  0  0  0  0  0  0  0  0
    9.3849   -0.8853   24.5061 H   0  0  0  0  0  0  0  0  0  0  0  0
   10.5914   -0.1450   22.1904 C   0  0  0  0  0  0  0  0  0  0  0  0
   10.4445    1.5360   26.0879 H   0  0  0  0  0  0  0  0  0  0  0  0
 16 22  1  0  0  0  0
 16 18  1  0  0  0  0
 16 19  1  0  0  0  0
  6 16  1  0  0  0  0
  7 17  1  0  0  0  0
 12 14  1  0  0  0  0
  7 19  1  0  0  0  0
 19 23  1  0  0  0  0
  6 20  1  0  0  0  0
  7 23  1  0  0  0  0
 11 13  1  0  0  0  0
 10 14  1  0  0  0  0
 13 14  1  0  0  0  0
  4 14  1  0  0  0  0
  5  6  1  0  0  0  0
  1  6  1  0  0  0  0
  4  8  1  0  0  0  0
 21 23  1  0  0  0  0
  2 23  1  0  0  0  0
 13 15  1  0  0  0  0
  9 13  1  0  0  0  0
  4  5  1  0  0  0  0
  3  4  1  0  0  0  0
  1  5  1  0  0  0  0
 20 24  1  0  0  0  0
M  END
> <Chemgauss4>
-5.581725

$$$$
