stable:False satoms:21 tatoms:24 sratio:0.875
  -OEChem-07092417293D

 24 24  0     1  0  0  0  0  0999 V2000
   10.8402   -2.0718   23.4797 C   0  0  0  0  0  0  0  0  0  0  0  0
   10.6931   -2.4255   24.4895 H   0  0  0  0  0  0  0  0  0  0  0  0
    7.3449    1.2994   21.1381 H   0  0  0  0  0  0  0  0  0  0  0  0
    7.3735    0.2962   21.5816 C   0  0  0  0  0  0  0  0  0  0  0  0
    5.7926   -1.4357   23.2497 H   0  0  0  0  0  0  0  0  0  0  0  0
    9.6402   -2.3109   21.3716 C   0  5  1  0  0  0  0  0  0  0  0  0
    6.0520   -0.5024   24.6041 H   0  0  0  0  0  0  0  0  0  0  0  0
    6.5487    0.4244   22.8511 C   0  3  0  0  0  0  0  0  0  0  0  0
    6.1971    1.4188   23.0551 H   0  0  0  0  0  0  0  0  0  0  0  0
    6.1226   -0.5411   23.6011 N   0  0  0  0  0  0  0  0  0  0  0  0
   11.8903   -2.1673   23.2344 H   0  0  0  0  0  0  0  0  0  0  0  0
    6.8386   -0.3943   20.9406 H   0  0  0  0  0  0  0  0  0  0  0  0
    7.7977   -2.8790   23.2654 O   0  0  0  0  0  0  0  0  0  0  0  0
   10.6389   -0.1839   21.1628 H   0  0  0  0  0  0  0  0  0  0  0  0
    8.5293   -2.6209   22.2328 C   0  0  2  0  0  0  0  0  0  0  0  0
    9.8300   -2.2969   20.3016 H   0  0  0  0  0  0  0  0  0  0  0  0
    8.7137   -0.0600   21.6199 N   0  3  0  0  0  0  0  0  0  0  0  0
   11.0968    0.0597   23.5238 H   0  0  0  0  0  0  0  0  0  0  0  0
   10.3198   -0.6740   23.2793 C   0  0  0  0  0  0  0  0  0  0  0  0
   10.3498   -3.9794   22.5302 H   0  0  0  0  0  0  0  0  0  0  0  0
    9.9933   -2.9541   22.4556 C   0  0  2  0  0  0  0  0  0  0  0  0
    9.4511   -0.4906   23.9089 H   0  0  0  0  0  0  0  0  0  0  0  0
    9.8489   -0.4752   21.8418 C   0  3  0  0  0  0  0  0  0  0  0  0
    7.6810   -2.3255   21.5782 H   0  0  0  0  0  0  0  0  0  0  0  0
  6 16  1  0  0  0  0
  4 12  1  0  0  0  0
  3  4  1  0  0  0  0
 14 23  1  0  0  0  0
  6 15  1  0  0  0  0
  6 21  1  0  0  0  0
 15 24  1  0  0  0  0
  4 17  1  0  0  0  0
  4  8  1  0  0  0  0
 17 23  1  0  0  0  0
 19 23  1  0  0  0  0
 15 21  1  0  0  0  0
 13 15  1  0  0  0  0
 20 21  1  0  0  0  0
  1 21  1  0  0  0  0
  8  9  1  0  0  0  0
  8 10  1  0  0  0  0
  1 11  1  0  0  0  0
  5 10  1  0  0  0  0
  1 19  1  0  0  0  0
 18 19  1  0  0  0  0
 19 22  1  0  0  0  0
  1  2  1  0  0  0  0
  7 10  1  0  0  0  0
M  CHG  4   6  -1   8   1  17   1  23   1
M  END
> <Shapegauss>
-86.166481

$$$$
