stable:False satoms:21 tatoms:24 sratio:0.875
  -OEChem-08052414573D

 26 26  0     1  0  0  0  0  0999 V2000
   13.0351   -1.1901   23.7032 C   0  0  0  0  0  0  0  0  0  0  0  0
   13.8678   -0.8511   23.1049 H   0  0  0  0  0  0  0  0  0  0  0  0
    7.9366   -0.2345   22.2342 H   0  0  0  0  0  0  0  0  0  0  0  0
    8.8534    0.3133   22.4861 C   0  0  0  0  0  0  0  0  0  0  0  0
   10.2628    2.0859   20.0406 H   0  0  0  0  0  0  0  0  0  0  0  0
   11.2465   -0.1023   24.9517 C   0  0  1  0  0  0  0  0  0  0  0  0
    9.9410    2.6735   21.5298 H   0  0  0  0  0  0  0  0  0  0  0  0
    9.2831    0.9473   21.1739 C   0  0  0  0  0  2  0  0  0  0  0  0
   10.1910    1.8558   21.0111 N   0  0  0  0  0  0  0  0  0  0  0  0
   13.3728   -2.0098   24.3245 H   0  0  0  0  0  0  0  0  0  0  0  0
    8.6100    1.1316   23.1531 H   0  0  0  0  0  0  0  0  0  0  0  0
   12.0857    1.7762   23.1993 O   0  0  0  0  0  0  0  0  0  0  0  0
   11.5434    1.0068   24.0837 C   0  0  2  0  0  0  0  0  0  0  0  0
   10.9342    0.1031   25.9863 H   0  0  0  0  0  0  0  0  0  0  0  0
    9.6630   -0.5948   23.1526 N   0  3  0  0  0  0  0  0  0  0  0  0
   11.8880   -2.5982   22.5575 H   0  0  0  0  0  0  0  0  0  0  0  0
   11.8357   -1.5480   22.8676 C   0  0  0  0  0  0  0  0  0  0  0  0
   13.3365    0.2689   25.3037 H   0  0  0  0  0  0  0  0  0  0  0  0
   12.5163   -0.0132   24.6467 C   0  0  2  0  0  0  0  0  0  0  0  0
   11.7814   -0.9206   21.9799 H   0  0  0  0  0  0  0  0  0  0  0  0
   10.5452   -1.2968   23.6418 C   0  0  0  0  0  2  0  0  0  0  0  0
   10.5631    1.5307   24.0869 H   0  0  0  0  0  0  0  0  0  0  0  0
   10.6636   -0.9459   24.5534 H   0  0  0  0  0  0  0  0  0  0  0  0
   11.6020    2.5924   23.1496 H   0  0  0  0  0  0  0  0  0  0  0  0
    9.2921   -0.3472   24.0476 H   0  0  0  0  0  0  0  0  0  0  0  0
    9.1644   -1.3829   22.7916 H   0  0  0  0  0  0  0  0  0  0  0  0
  6 14  1  0  0  0  0
  4 11  1  0  0  0  0
  3  4  1  0  0  0  0
  6 13  1  0  0  0  0
  6 19  1  0  0  0  0
 13 22  1  0  0  0  0
  4 15  1  0  0  0  0
  4  8  1  0  0  0  0
 15 21  1  0  0  0  0
 17 21  1  0  0  0  0
 13 19  1  0  0  0  0
 12 13  1  0  0  0  0
 18 19  1  0  0  0  0
  1 19  1  0  0  0  0
  8  9  1  0  0  0  0
  1 10  1  0  0  0  0
  5  9  1  0  0  0  0
  1 17  1  0  0  0  0
 16 17  1  0  0  0  0
 17 20  1  0  0  0  0
  1  2  1  0  0  0  0
  7  9  1  0  0  0  0
  6 23  1  0  0  0  0
 12 24  1  0  0  0  0
 15 25  1  0  0  0  0
 15 26  1  0  0  0  0
M  CHG  1  15   1
M  END
> <Chemgauss4>
-5.265595

$$$$
