stable:False satoms:21 tatoms:24 sratio:0.875
  -OEChem-08052414573D

 26 26  0     1  0  0  0  0  0999 V2000
  -12.5811   -1.0811  -23.7032 C   0  0  0  0  0  0  0  0  0  0  0  0
  -13.4138   -0.7421  -23.1049 H   0  0  0  0  0  0  0  0  0  0  0  0
   -7.4826   -0.1255  -22.2342 H   0  0  0  0  0  0  0  0  0  0  0  0
   -8.3994    0.4223  -22.4861 C   0  0  0  0  0  0  0  0  0  0  0  0
   -9.8089    2.1949  -20.0406 H   0  0  0  0  0  0  0  0  0  0  0  0
  -10.7925    0.0067  -24.9517 C   0  0  1  0  0  0  0  0  0  0  0  0
   -9.4871    2.7825  -21.5298 H   0  0  0  0  0  0  0  0  0  0  0  0
   -8.8291    1.0563  -21.1739 C   0  0  0  0  0  2  0  0  0  0  0  0
   -9.7371    1.9648  -21.0111 N   0  0  0  0  0  0  0  0  0  0  0  0
  -12.9188   -1.9008  -24.3245 H   0  0  0  0  0  0  0  0  0  0  0  0
   -8.1560    1.2405  -23.1531 H   0  0  0  0  0  0  0  0  0  0  0  0
  -11.6317    1.8852  -23.1993 O   0  0  0  0  0  0  0  0  0  0  0  0
  -11.0894    1.1158  -24.0837 C   0  0  2  0  0  0  0  0  0  0  0  0
  -10.4802    0.2121  -25.9863 H   0  0  0  0  0  0  0  0  0  0  0  0
   -9.2090   -0.4858  -23.1526 N   0  3  0  0  0  0  0  0  0  0  0  0
  -11.4340   -2.4892  -22.5575 H   0  0  0  0  0  0  0  0  0  0  0  0
  -11.3817   -1.4390  -22.8676 C   0  0  0  0  0  0  0  0  0  0  0  0
  -12.8825    0.3779  -25.3037 H   0  0  0  0  0  0  0  0  0  0  0  0
  -12.0623    0.0958  -24.6467 C   0  0  2  0  0  0  0  0  0  0  0  0
  -11.3274   -0.8116  -21.9799 H   0  0  0  0  0  0  0  0  0  0  0  0
  -10.0912   -1.1878  -23.6418 C   0  0  0  0  0  2  0  0  0  0  0  0
  -10.1091    1.6396  -24.0869 H   0  0  0  0  0  0  0  0  0  0  0  0
  -10.2096   -0.8369  -24.5534 H   0  0  0  0  0  0  0  0  0  0  0  0
  -11.1480    2.7014  -23.1496 H   0  0  0  0  0  0  0  0  0  0  0  0
   -8.8381   -0.2382  -24.0476 H   0  0  0  0  0  0  0  0  0  0  0  0
   -8.7104   -1.2739  -22.7916 H   0  0  0  0  0  0  0  0  0  0  0  0
  6 14  1  0  0  0  0
  4 11  1  0  0  0  0
  3  4  1  0  0  0  0
  6 13  1  0  0  0  0
  6 19  1  0  0  0  0
 13 22  1  0  0  0  0
  4 15  1  0  0  0  0
  4  8  1  0  0  0  0
 15 21  1  0  0  0  0
 17 21  1  0  0  0  0
 13 19  1  0  0  0  0
 12 13  1  0  0  0  0
 18 19  1  0  0  0  0
  1 19  1  0  0  0  0
  8  9  1  0  0  0  0
  1 10  1  0  0  0  0
  5  9  1  0  0  0  0
  1 17  1  0  0  0  0
 16 17  1  0  0  0  0
 17 20  1  0  0  0  0
  1  2  1  0  0  0  0
  7  9  1  0  0  0  0
  6 23  1  0  0  0  0
 12 24  1  0  0  0  0
 15 25  1  0  0  0  0
 15 26  1  0  0  0  0
M  CHG  1  15   1
M  END
> <Chemgauss4>
-5.316205

$$$$
