stable:False satoms:21 tatoms:24 sratio:0.875
  -OEChem-07092417283D

 24 24  0     0  0  0  0  0  0999 V2000
    8.6051    3.7602   24.1067 H   0  0  0  0  0  0  0  0  0  0  0  0
    9.1202    2.9576   22.2037 C   0  0  0  0  0  0  0  0  0  0  0  0
    7.0790   -4.0247   21.9651 O   0  5  0  0  0  0  0  0  0  0  0  0
    9.2476    4.2014   21.6561 F   0  0  0  0  0  0  0  0  0  0  0  0
    8.7658    1.6134   24.1661 C   0  0  0  0  0  0  0  0  0  0  0  0
    8.8149    2.8530   23.5681 C   0  0  0  0  0  0  0  0  0  0  0  0
    9.1410   -2.9101   21.0527 F   0  0  0  0  0  0  0  0  0  0  0  0
    9.5505   -5.5711   22.7431 H   0  0  0  0  0  0  0  0  0  0  0  0
    8.8171   -0.4989   20.1524 H   0  0  0  0  0  0  0  0  0  0  0  0
    9.2517    1.8665   21.4120 C   0  0  0  0  0  0  0  0  0  0  0  0
    8.9711   -1.8763   23.2382 C   0  0  0  0  0  0  0  0  0  0  0  0
    8.6242   -5.9055   21.2903 H   0  0  0  0  0  0  0  0  0  0  0  0
    8.9505   -0.7850   23.9786 N   0  0  0  0  0  0  0  0  0  0  0  0
    8.5729   -5.8500   22.3640 C   0  0  0  0  0  0  0  0  0  0  0  0
    8.9514   -0.5805   21.2179 C   0  0  0  0  0  0  0  0  0  0  0  0
    8.2871   -6.8334   22.7568 H   0  0  0  0  0  0  0  0  0  0  0  0
    7.5611   -4.7911   22.8231 C   0  0  0  0  0  0  0  0  0  0  0  0
    8.9274   -2.8227   23.7680 H   0  0  0  0  0  0  0  0  0  0  0  0
    9.0238   -1.8123   21.8363 C   0  0  0  0  0  0  0  0  0  0  0  0
    8.5655    1.5217   25.2238 H   0  0  0  0  0  0  0  0  0  0  0  0
    9.0488    0.5806   21.9903 C   0  0  0  0  0  0  0  0  0  0  0  0
    9.5041    1.9506   20.3688 H   0  0  0  0  0  0  0  0  0  0  0  0
    8.9270    0.4296   23.3994 C   0  0  0  0  0  0  0  0  0  0  0  0
    7.2761   -4.7633   24.0153 O   0  0  0  0  0  0  0  0  0  0  0  0
  9 15  1  0  0  0  0
 10 22  1  0  0  0  0
  7 19  1  0  0  0  0
 15 19  2  0  0  0  0
 15 21  1  0  0  0  0
 12 14  1  0  0  0  0
 10 21  2  0  0  0  0
  2 10  1  0  0  0  0
  2  4  1  0  0  0  0
 11 19  1  0  0  0  0
  3 17  1  0  0  0  0
 21 23  1  0  0  0  0
  2  6  2  0  0  0  0
  8 14  1  0  0  0  0
 14 16  1  0  0  0  0
 14 17  1  0  0  0  0
 17 24  2  0  0  0  0
 11 18  1  0  0  0  0
 11 13  2  0  0  0  0
 13 23  1  0  0  0  0
  5 23  2  0  0  0  0
  1  6  1  0  0  0  0
  5  6  1  0  0  0  0
  5 20  1  0  0  0  0
M  CHG  1   3  -1
M  END
> <Shapegauss>
-121.212074

$$$$
