stable:False satoms:17 tatoms:24 sratio:0.7083333333333334
  -OEChem-07092417323D

 24 22  0     0  0  0  0  0  0999 V2000
    7.8180   -4.0310   24.8386 H   0  0  0  0  0  0  0  0  0  0  0  0
    9.5638   -2.5162   25.9990 H   0  0  0  0  0  0  0  0  0  0  0  0
    8.7230   -3.7524   24.6555 C   0  0  0  0  0  2  0  0  0  0  0  0
   10.2024   -4.1445   25.9166 H   0  0  0  0  0  0  0  0  0  0  0  0
    7.7185   -1.4650   22.0980 N   0  0  0  0  0  0  0  0  0  0  0  0
    9.8191   -3.3166   25.3077 C   0  0  0  0  0  0  0  0  0  0  0  0
    8.5159    1.3857   23.5632 H   0  0  0  0  0  0  0  0  0  0  0  0
    7.0229    0.4440   22.0195 H   0  0  0  0  0  0  0  0  0  0  0  0
    8.1283   -1.2205   19.4626 N   0  0  0  0  0  0  0  0  0  0  0  0
    9.9782    0.1866   23.0080 C   0  0  0  0  0  0  0  0  0  0  0  0
    9.0128   -1.3653   19.9526 H   0  0  0  0  0  0  0  0  0  0  0  0
   10.6039   -2.9242   24.6045 H   0  0  0  0  0  0  0  0  0  0  0  0
    9.9097   -2.3473   22.0906 O   0  0  0  0  0  0  0  0  0  0  0  0
    8.7227    0.3001   23.5626 C   0  0  0  0  0  0  0  0  0  0  0  0
    7.6919   -0.0650   23.7802 H   0  0  0  0  0  0  0  0  0  0  0  0
   10.8034    0.8653   23.2649 H   0  0  0  0  0  0  0  0  0  0  0  0
    8.0846    0.8177   19.7875 H   0  0  0  0  0  0  0  0  0  0  0  0
    8.8311   -1.9252   22.0775 C   0  0  0  0  0  0  0  0  0  0  0  0
    7.3395   -0.3496   21.4131 C   0  3  0  0  0  0  0  0  0  0  0  0
   10.0311    0.0388   21.8928 H   0  0  0  0  0  0  0  0  0  0  0  0
    7.4156   -0.0340   19.9776 C   0  0  0  0  0  0  0  0  0  0  0  0
    9.5144   -0.7530   23.8648 O   0  0  0  0  0  0  0  0  0  0  0  0
    7.7080   -1.3658   18.5663 H   0  0  0  0  0  0  0  0  0  0  0  0
    6.4255    0.2474   19.5931 H   0  0  0  0  0  0  0  0  0  0  0  0
  9 23  1  0  0  0  0
  9 11  1  0  0  0  0
  9 21  1  0  0  0  0
 21 24  1  0  0  0  0
 17 21  1  0  0  0  0
 19 21  1  0  0  0  0
  8 19  1  0  0  0  0
  5 19  1  0  0  0  0
 10 20  1  0  0  0  0
 13 18  2  0  0  0  0
  5 18  1  0  0  0  0
 10 16  1  0  0  0  0
 10 14  1  0  0  0  0
 10 22  1  0  0  0  0
  7 14  1  0  0  0  0
 14 15  1  0  0  0  0
 14 22  1  0  0  0  0
  6 12  1  0  0  0  0
  1  3  1  0  0  0  0
  3  6  1  0  0  0  0
  4  6  1  0  0  0  0
  2  6  1  0  0  0  0
M  CHG  1  19   1
M  END
> <Shapegauss>
-93.894089

$$$$
