
 OpenBabel07202414163D

 55 58  0  0  0  0  0  0  0  0999 V2000
    5.9993   -1.2794    0.0693 Cl  0  0  0  0  0  0  0  0  0  0  0  0
    4.5991   -0.5068   -0.5645 C   0  0  0  0  0  0  0  0  0  0  0  0
    3.9103    0.4144    0.2218 C   0  0  0  0  0  0  0  0  0  0  0  0
    2.9245    1.2463   -0.3400 C   0  0  0  0  0  0  0  0  0  0  0  0
    2.3031    2.2869    0.5733 C   0  0  0  0  0  0  0  0  0  0  0  0
    1.6099    3.4407   -0.0357 N   0  0  0  0  0  0  0  0  0  0  0  0
    0.2694    3.4750   -0.4158 C   0  0  0  0  0  0  0  0  0  0  0  0
   -0.3117    4.5245   -0.7206 O   0  0  0  0  0  0  0  0  0  0  0  0
   -0.4807    2.1536   -0.5487 C   0  0  0  0  0  0  0  0  0  0  0  0
   -0.9484    1.7691   -1.9482 C   0  0  0  0  0  0  0  0  0  0  0  0
   -1.7113    0.5858   -2.1554 C   0  0  0  0  0  0  0  0  0  0  0  0
   -2.1113   -0.2761   -1.1097 C   0  0  0  0  0  0  0  0  0  0  0  0
   -2.9049   -1.3999   -1.3505 C   0  0  0  0  0  0  0  0  0  0  0  0
   -3.3022   -1.7092   -2.6446 C   0  0  0  0  0  0  0  0  0  0  0  0
   -2.8927   -0.9024   -3.7038 C   0  0  0  0  0  0  0  0  0  0  0  0
   -2.0964    0.2349   -3.4685 C   0  0  0  0  0  0  0  0  0  0  0  0
   -1.6754    1.0602   -4.5106 C   0  0  0  0  0  0  0  0  0  0  0  0
   -0.9488    2.1858   -4.3478 N   0  0  0  0  0  0  0  0  0  0  0  0
   -0.6299    2.5249   -3.0783 C   0  0  0  0  0  0  0  0  0  0  0  0
    2.3148    4.6821    0.0712 C   0  0  0  0  0  0  0  0  0  0  0  0
    2.0554    5.7144    1.0070 C   0  0  0  0  0  0  0  0  0  0  0  0
    1.1484    5.7176    2.1031 N   0  0  0  0  0  0  0  0  0  0  0  0
    0.5697    4.6527    2.7516 C   0  0  0  0  0  0  0  0  0  0  0  0
    0.7859    3.4669    2.5685 O   0  0  0  0  0  0  0  0  0  0  0  0
   -0.3558    5.0753    3.8447 C   0  0  0  0  0  0  0  0  0  0  0  0
   -1.0562    4.1442    4.5084 C   0  0  0  0  0  0  0  0  0  0  0  0
    2.7916    6.9161    0.8776 C   0  0  0  0  0  0  0  0  0  0  0  0
    3.7597    7.0875   -0.1174 C   0  0  0  0  0  0  0  0  0  0  0  0
    4.0040    6.0679   -1.0238 C   0  0  0  0  0  0  0  0  0  0  0  0
    3.2887    4.8777   -0.9279 C   0  0  0  0  0  0  0  0  0  0  0  0
    2.5675    1.0252   -1.6745 C   0  0  0  0  0  0  0  0  0  0  0  0
    3.1607   -0.0013   -2.4190 C   0  0  0  0  0  0  0  0  0  0  0  0
    4.2048   -0.7455   -1.8751 C   0  0  0  0  0  0  0  0  0  0  0  0
    4.1663    0.5127    1.2753 H   0  0  0  0  0  0  0  0  0  0  0  0
    3.1122    2.6858    1.2020 H   0  0  0  0  0  0  0  0  0  0  0  0
    1.6148    1.7605    1.2418 H   0  0  0  0  0  0  0  0  0  0  0  0
   -1.3554    2.2415    0.1075 H   0  0  0  0  0  0  0  0  0  0  0  0
    0.1159    1.3224   -0.1712 H   0  0  0  0  0  0  0  0  0  0  0  0
   -1.8216   -0.0774   -0.0816 H   0  0  0  0  0  0  0  0  0  0  0  0
   -3.2153   -2.0276   -0.5193 H   0  0  0  0  0  0  0  0  0  0  0  0
   -3.9335   -2.5735   -2.8297 H   0  0  0  0  0  0  0  0  0  0  0  0
   -3.1969   -1.1630   -4.7142 H   0  0  0  0  0  0  0  0  0  0  0  0
   -1.9142    0.8271   -5.5442 H   0  0  0  0  0  0  0  0  0  0  0  0
   -0.0694    3.4551   -3.0146 H   0  0  0  0  0  0  0  0  0  0  0  0
    0.9843    6.6294    2.5119 H   0  0  0  0  0  0  0  0  0  0  0  0
   -0.4522    6.1224    4.0949 H   0  0  0  0  0  0  0  0  0  0  0  0
   -0.9684    3.0863    4.2656 H   0  0  0  0  0  0  0  0  0  0  0  0
   -1.7374    4.4143    5.3084 H   0  0  0  0  0  0  0  0  0  0  0  0
    2.6372    7.7380    1.5756 H   0  0  0  0  0  0  0  0  0  0  0  0
    4.3133    8.0199   -0.1798 H   0  0  0  0  0  0  0  0  0  0  0  0
    4.7341    6.1947   -1.8177 H   0  0  0  0  0  0  0  0  0  0  0  0
    3.4538    4.1085   -1.6772 H   0  0  0  0  0  0  0  0  0  0  0  0
    1.8299    1.6447   -2.1695 H   0  0  0  0  0  0  0  0  0  0  0  0
    2.8284   -0.1946   -3.4370 H   0  0  0  0  0  0  0  0  0  0  0  0
    4.7157   -1.4891   -2.4800 H   0  0  0  0  0  0  0  0  0  0  0  0
  1  2  1  0  0  0  0
  2  3  2  0  0  0  0
  2 33  1  0  0  0  0
  3  4  1  0  0  0  0
  3 34  1  0  0  0  0
  4  5  1  0  0  0  0
  4 31  2  0  0  0  0
  5  6  1  0  0  0  0
  5 35  1  0  0  0  0
  5 36  1  0  0  0  0
  6  7  1  0  0  0  0
  6 20  1  0  0  0  0
  7  8  2  0  0  0  0
  7  9  1  0  0  0  0
  9 10  1  0  0  0  0
  9 37  1  0  0  0  0
  9 38  1  0  0  0  0
 10 11  2  0  0  0  0
 10 19  1  0  0  0  0
 11 12  1  0  0  0  0
 11 16  1  0  0  0  0
 12 13  2  0  0  0  0
 12 39  1  0  0  0  0
 13 14  1  0  0  0  0
 13 40  1  0  0  0  0
 14 15  2  0  0  0  0
 14 41  1  0  0  0  0
 15 16  1  0  0  0  0
 15 42  1  0  0  0  0
 16 17  2  0  0  0  0
 17 18  1  0  0  0  0
 17 43  1  0  0  0  0
 18 19  2  0  0  0  0
 19 44  1  0  0  0  0
 20 21  2  0  0  0  0
 20 30  1  0  0  0  0
 21 22  1  0  0  0  0
 21 27  1  0  0  0  0
 22 23  1  0  0  0  0
 22 45  1  0  0  0  0
 23 24  2  0  0  0  0
 23 25  1  0  0  0  0
 25 26  2  0  0  0  0
 25 46  1  0  0  0  0
 26 47  1  0  0  0  0
 26 48  1  0  0  0  0
 27 28  2  0  0  0  0
 27 49  1  0  0  0  0
 28 29  1  0  0  0  0
 28 50  1  0  0  0  0
 29 30  2  0  0  0  0
 29 51  1  0  0  0  0
 30 52  1  0  0  0  0
 31 32  1  0  0  0  0
 31 53  1  0  0  0  0
 32 33  2  0  0  0  0
 32 54  1  0  0  0  0
 33 55  1  0  0  0  0
M  END
$$$$
