
 OpenBabel07202414153D

 38 40  0  0  1  0  0  0  0  0999 V2000
    4.6702    2.7968   -1.9342 C   0  0  0  0  0  0  0  0  0  0  0  0
    4.7480    2.4294   -0.4713 C   0  0  0  0  0  0  0  0  0  0  0  0
    5.9826    2.4727    0.2068 C   0  0  0  0  0  0  0  0  0  0  0  0
    7.1933    2.8027   -0.4265 N   0  0  0  0  0  0  0  0  0  0  0  0
    5.9892    1.9560    1.5058 C   0  0  0  0  0  0  0  0  0  0  0  0
    4.8962    1.5422    2.1896 N   0  0  0  0  0  0  0  0  0  0  0  0
    3.7103    1.6025    1.5452 C   0  0  0  0  0  0  0  0  0  0  0  0
    3.5706    2.0137    0.2232 C   0  0  0  0  0  0  0  0  0  0  0  0
    2.3292    2.0998   -0.4586 N   0  0  0  0  0  0  0  0  0  0  0  0
    1.0064    1.8665   -0.0573 C   0  0  0  0  0  0  0  0  0  0  0  0
    0.6487    1.3302    0.9863 O   0  0  0  0  0  0  0  0  0  0  0  0
    0.0567    2.5981   -1.0375 C   0  0  3  0  0  0  0  0  0  0  0  0
   -0.1967    4.0222   -0.5318 C   0  0  0  0  0  0  0  0  0  0  0  0
   -0.9943    4.8159   -1.5515 C   0  0  0  0  0  0  0  0  0  0  0  0
   -2.2010    4.1813   -1.9422 O   0  0  0  0  0  0  0  0  0  0  0  0
   -2.0471    2.8786   -2.3262 C   0  0  0  0  0  0  0  0  0  0  0  0
   -2.8172    2.4960   -3.4238 C   0  0  0  0  0  0  0  0  0  0  0  0
   -2.8176    1.1711   -3.8323 C   0  0  0  0  0  0  0  0  0  0  0  0
   -2.1177    0.2302   -3.0771 C   0  0  0  0  0  0  0  0  0  0  0  0
   -2.2359   -1.4301   -3.5207 Cl  0  0  0  0  0  0  0  0  0  0  0  0
   -1.2847    0.6227   -2.0119 C   0  0  0  0  0  0  0  0  0  0  0  0
   -1.1751    1.9800   -1.6771 C   0  0  0  0  0  0  0  0  0  0  0  0
    5.6127    3.1415   -2.3618 H   0  0  0  0  0  0  0  0  0  0  0  0
    3.9495    3.6070   -2.0913 H   0  0  0  0  0  0  0  0  0  0  0  0
    4.3651    1.9169   -2.5111 H   0  0  0  0  0  0  0  0  0  0  0  0
    7.1090    3.5236   -1.1331 H   0  0  0  0  0  0  0  0  0  0  0  0
    7.9497    3.0202    0.2181 H   0  0  0  0  0  0  0  0  0  0  0  0
    6.9215    1.8598    2.0532 H   0  0  0  0  0  0  0  0  0  0  0  0
    2.8654    1.2818    2.1447 H   0  0  0  0  0  0  0  0  0  0  0  0
    2.4201    2.4399   -1.4002 H   0  0  0  0  0  0  0  0  0  0  0  0
    0.6599    2.7268   -1.9495 H   0  0  0  0  0  0  0  0  0  0  0  0
    0.7565    4.5363   -0.3582 H   0  0  0  0  0  0  0  0  0  0  0  0
   -0.7320    3.9955    0.4240 H   0  0  0  0  0  0  0  0  0  0  0  0
   -0.4080    5.0144   -2.4564 H   0  0  0  0  0  0  0  0  0  0  0  0
   -1.2661    5.7877   -1.1261 H   0  0  0  0  0  0  0  0  0  0  0  0
   -3.3722    3.2466   -3.9822 H   0  0  0  0  0  0  0  0  0  0  0  0
   -3.3717    0.8843   -4.7228 H   0  0  0  0  0  0  0  0  0  0  0  0
   -0.6937   -0.1319   -1.4990 H   0  0  0  0  0  0  0  0  0  0  0  0
  1  2  1  0  0  0  0
  1 23  1  0  0  0  0
  1 24  1  0  0  0  0
  1 25  1  0  0  0  0
  2  3  1  0  0  0  0
  2  8  2  0  0  0  0
  3  4  1  0  0  0  0
  3  5  2  0  0  0  0
  4 26  1  0  0  0  0
  4 27  1  0  0  0  0
  5  6  1  0  0  0  0
  5 28  1  0  0  0  0
  6  7  2  0  0  0  0
  7  8  1  0  0  0  0
  7 29  1  0  0  0  0
  8  9  1  0  0  0  0
  9 10  1  0  0  0  0
  9 30  1  0  0  0  0
 10 11  2  0  0  0  0
 10 12  1  0  0  0  0
 12 13  1  0  0  0  0
 12 22  1  0  0  0  0
 12 31  1  0  0  0  0
 13 14  1  0  0  0  0
 13 32  1  0  0  0  0
 13 33  1  0  0  0  0
 14 15  1  0  0  0  0
 14 34  1  0  0  0  0
 14 35  1  0  0  0  0
 15 16  1  0  0  0  0
 16 17  1  0  0  0  0
 16 22  2  0  0  0  0
 17 18  2  0  0  0  0
 17 36  1  0  0  0  0
 18 19  1  0  0  0  0
 18 37  1  0  0  0  0
 19 20  1  0  0  0  0
 19 21  2  0  0  0  0
 21 22  1  0  0  0  0
 21 38  1  0  0  0  0
M  END
$$$$
