stable:False satoms:21 tatoms:24 sratio:0.875
  -OEChem-07092417323D

 24 23  0     1  0  0  0  0  0999 V2000
    8.3836   -3.2131   25.3709 H   0  0  0  0  0  0  0  0  0  0  0  0
    8.7745   -2.4519   26.0232 C   0  0  0  0  0  0  0  0  0  0  0  0
    9.4520   -2.1319   23.1073 C   0  0  1  0  0  0  0  0  0  0  0  0
    8.5599   -2.7424   27.0370 H   0  0  0  0  0  0  0  0  0  0  0  0
    8.2518   -1.5005   23.3824 N   0  0  0  0  0  0  0  0  0  0  0  0
   10.1331   -2.7698   23.6098 H   0  0  0  0  0  0  0  0  0  0  0  0
    8.3310   -1.4972   25.8205 H   0  0  0  0  0  0  0  0  0  0  0  0
    8.1307    1.2398   22.5759 O   0  0  0  0  0  0  0  0  0  0  0  0
    9.5888   -2.2963   21.6988 O   0  0  0  0  0  0  0  0  0  0  0  0
   10.0683    0.7766   21.6926 O   0  5  0  0  0  0  0  0  0  0  0  0
   11.0891   -1.5046   20.4715 O   0  0  0  0  0  0  0  0  0  0  0  0
    9.8451   -2.3483   25.8670 H   0  0  0  0  0  0  0  0  0  0  0  0
    9.9787   -0.0515   24.2398 O   0  0  0  0  0  0  0  0  0  0  0  0
    6.4847   -1.1055   20.9969 H   0  0  0  0  0  0  0  0  0  0  0  0
    9.2734   -0.8644   23.6994 C   0  0  0  0  0  0  0  0  0  0  0  0
    8.8291    0.6931   21.7613 C   0  0  0  0  0  0  0  0  0  0  0  0
    8.1159   -0.1091   20.8383 N   0  0  0  0  0  0  0  0  0  0  0  0
    6.3685    0.6906   20.4813 H   0  0  0  0  0  0  0  0  0  0  0  0
    8.7995   -0.8980   19.8679 C   0  0  0  0  0  0  0  0  0  0  0  0
    9.2171   -0.2833   19.0954 H   0  0  0  0  0  0  0  0  0  0  0  0
    8.0941   -1.5864   19.3957 H   0  0  0  0  0  0  0  0  0  0  0  0
    6.7233   -0.1960   20.6335 N   0  0  0  0  0  0  0  0  0  0  0  0
    9.9241   -1.5668   20.7066 C   0  0  0  0  0  0  0  0  0  0  0  0
    7.1677   -1.5732   22.9238 O   0  0  0  0  0  0  0  0  0  0  0  0
 19 20  1  0  0  0  0
 19 21  1  0  0  0  0
 19 23  1  0  0  0  0
 17 19  1  0  0  0  0
 11 23  2  0  0  0  0
 18 22  1  0  0  0  0
 17 22  1  0  0  0  0
 14 22  1  0  0  0  0
  9 23  1  0  0  0  0
 16 17  1  0  0  0  0
 10 16  1  0  0  0  0
  3  9  1  0  0  0  0
  8 16  2  0  0  0  0
  5 24  1  0  0  0  0
  3  5  1  0  0  0  0
  3  6  1  0  0  0  0
  3 15  1  0  0  0  0
  5 15  1  0  0  0  0
 13 15  2  0  0  0  0
  1  2  1  0  0  0  0
  2  7  1  0  0  0  0
  2 12  1  0  0  0  0
  2  4  1  0  0  0  0
M  CHG  1  10  -1
M  END
> <Shapegauss>
-115.884979

$$$$
