stable:False satoms:17 tatoms:24 sratio:0.7083333333333334
  -OEChem-08052420313D

 29 29  0     1  0  0  0  0  0999 V2000
  -12.3474   -0.7106  -25.1329 H   0  0  0  0  0  0  0  0  0  0  0  0
  -13.9791   -1.8073  -23.9241 H   0  0  0  0  0  0  0  0  0  0  0  0
  -14.7659   -0.3499  -24.5361 H   0  0  0  0  0  0  0  0  0  0  0  0
   -8.1006   -2.1888  -22.1163 O   0  0  0  0  0  0  0  0  0  0  0  0
   -9.3243   -2.2061  -23.3305 N   0  0  0  0  0  0  0  0  0  0  0  0
  -12.8384    0.9032  -24.6057 H   0  0  0  0  0  0  0  0  0  0  0  0
  -11.1706    0.9093  -22.9039 C   0  0  0  0  0  0  0  0  0  0  0  0
   -9.3994   -0.1849  -21.7073 C   0  0  3  0  0  0  0  0  0  0  0  0
  -12.8009   -1.5594  -21.9604 H   0  0  0  0  0  0  0  0  0  0  0  0
  -12.7049   -0.1237  -24.2578 C   0  0  0  0  0  0  0  0  0  0  0  0
   -9.5212    1.8979  -21.9781 H   0  0  0  0  0  0  0  0  0  0  0  0
   -9.0028   -1.4978  -22.4296 C   0  0  3  0  0  0  0  0  0  0  0  0
  -11.7984   -0.2106  -23.1575 N   0  3  3  0  0  0  0  0  0  0  0  0
   -8.0608   -0.5038  -20.0828 H   0  0  0  0  0  0  0  0  0  0  0  0
  -11.1639   -1.3594  -21.4976 H   0  0  0  0  0  0  0  0  0  0  0  0
  -11.8167   -1.4050  -22.3652 C   0  0  0  0  0  0  0  0  0  0  0  0
   -9.9876    0.9382  -22.1985 C   0  0  0  0  0  0  0  0  0  0  0  0
  -11.6122    1.8428  -23.2354 H   0  0  0  0  0  0  0  0  0  0  0  0
  -14.0522   -0.7184  -23.8098 C   0  0  0  0  0  0  0  0  0  0  0  0
  -14.3717   -0.4949  -22.7900 H   0  0  0  0  0  0  0  0  0  0  0  0
   -8.0608   -0.5038  -20.0828 C   0  0  0  0  0  2  0  0  0  0  0  0
   -9.1956   -0.0953  -20.3901 N   0  3  0  0  0  0  0  0  0  0  0  0
  -11.5671   -2.2581  -22.9973 H   0  0  0  0  0  0  0  0  0  0  0  0
  -10.1207   -2.8089  -23.2818 H   0  0  0  0  0  0  0  0  0  0  0  0
   -8.4024    0.2367  -21.9030 H   0  0  0  0  0  0  0  0  0  0  0  0
   -8.3423   -0.9322  -23.1033 H   0  0  0  0  0  0  0  0  0  0  0  0
   -9.2853    0.8605  -20.1101 H   0  0  0  0  0  0  0  0  0  0  0  0
  -11.0578   -0.5521  -23.7362 H   0  0  0  0  0  0  0  0  0  0  0  0
   -9.8810   -0.6474  -19.9153 H   0  0  0  0  0  0  0  0  0  0  0  0
 19 20  1  0  0  0  0
  3 19  1  0  0  0  0
  2 19  1  0  0  0  0
 10 19  1  0  0  0  0
  7 18  1  0  0  0  0
  9 16  1  0  0  0  0
  6 10  1  0  0  0  0
  7 13  1  0  0  0  0
  7 17  2  0  0  0  0
 10 13  1  0  0  0  0
  1 10  1  0  0  0  0
 11 17  1  0  0  0  0
 13 16  1  0  0  0  0
 15 16  1  0  0  0  0
 16 23  1  0  0  0  0
  8 17  1  0  0  0  0
  8 22  1  0  0  0  0
 21 22  1  0  0  0  0
  8 12  1  0  0  0  0
 14 21  1  0  0  0  0
  5 12  1  0  0  0  0
  4 12  1  0  0  0  0
  4  5  1  0  0  0  0
  5 24  1  0  0  0  0
  8 25  1  0  0  0  0
 12 26  1  0  0  0  0
 22 27  1  0  0  0  0
 13 28  1  0  0  0  0
 22 29  1  0  0  0  0
M  CHG  2  13   1  22   1
M  END
> <Chemgauss4>
-5.619866

$$$$
