stable:False satoms:17 tatoms:24 sratio:0.7083333333333334
  -OEChem-08052420313D

 29 29  0     1  0  0  0  0  0999 V2000
    7.7621    0.9196   22.9357 H   0  0  0  0  0  0  0  0  0  0  0  0
    8.2051    2.1542   21.0367 H   0  0  0  0  0  0  0  0  0  0  0  0
    6.7594    1.2187   20.6465 H   0  0  0  0  0  0  0  0  0  0  0  0
   12.8850    0.1859   24.5289 O   0  0  0  0  0  0  0  0  0  0  0  0
   11.3223    0.8867   24.3314 N   0  0  0  0  0  0  0  0  0  0  0  0
    7.2669   -0.5291   22.0529 H   0  0  0  0  0  0  0  0  0  0  0  0
    9.4386   -1.4796   22.2948 C   0  0  0  0  0  0  0  0  0  0  0  0
   11.7136   -1.3332   23.0490 C   0  0  3  0  0  0  0  0  0  0  0  0
   10.2139    1.0754   20.7096 H   0  0  0  0  0  0  0  0  0  0  0  0
    7.9956    0.2848   22.0522 C   0  0  0  0  0  0  0  0  0  0  0  0
   10.6412   -3.1367   22.8969 H   0  0  0  0  0  0  0  0  0  0  0  0
   11.8958   -0.0828   23.9468 C   0  0  3  0  0  0  0  0  0  0  0  0
    9.3417   -0.1916   22.0848 N   0  3  3  0  0  0  0  0  0  0  0  0
   13.7747   -1.8619   23.1180 H   0  0  0  0  0  0  0  0  0  0  0  0
   11.3685    0.2567   21.6741 H   0  0  0  0  0  0  0  0  0  0  0  0
   10.3847    0.7170   21.7089 C   0  0  0  0  0  0  0  0  0  0  0  0
   10.5946   -2.0552   22.7746 C   0  0  0  0  0  0  0  0  0  0  0  0
    8.5914   -2.1133   22.0559 H   0  0  0  0  0  0  0  0  0  0  0  0
    7.8305    1.1524   20.7914 C   0  0  0  0  0  0  0  0  0  0  0  0
    8.3329    0.8034   19.8870 H   0  0  0  0  0  0  0  0  0  0  0  0
   13.7747   -1.8619   23.1180 C   0  0  0  0  0  2  0  0  0  0  0  0
   12.7731   -1.7989   22.3819 N   0  3  0  0  0  0  0  0  0  0  0  0
   10.3771    1.5714   22.3868 H   0  0  0  0  0  0  0  0  0  0  0  0
   11.1603    1.6820   23.7472 H   0  0  0  0  0  0  0  0  0  0  0  0
   11.9443   -1.9910   23.8999 H   0  0  0  0  0  0  0  0  0  0  0  0
   11.5317   -0.6494   24.8165 H   0  0  0  0  0  0  0  0  0  0  0  0
   12.5646   -2.7135   22.0354 H   0  0  0  0  0  0  0  0  0  0  0  0
    9.4422    0.0242   23.0561 H   0  0  0  0  0  0  0  0  0  0  0  0
   12.9699   -1.1886   21.6146 H   0  0  0  0  0  0  0  0  0  0  0  0
 19 20  1  0  0  0  0
  3 19  1  0  0  0  0
  2 19  1  0  0  0  0
 10 19  1  0  0  0  0
  7 18  1  0  0  0  0
  9 16  1  0  0  0  0
  6 10  1  0  0  0  0
  7 13  1  0  0  0  0
  7 17  2  0  0  0  0
 10 13  1  0  0  0  0
  1 10  1  0  0  0  0
 11 17  1  0  0  0  0
 13 16  1  0  0  0  0
 15 16  1  0  0  0  0
 16 23  1  0  0  0  0
  8 17  1  0  0  0  0
  8 22  1  0  0  0  0
 21 22  1  0  0  0  0
  8 12  1  0  0  0  0
 14 21  1  0  0  0  0
  5 12  1  0  0  0  0
  4 12  1  0  0  0  0
  4  5  1  0  0  0  0
  5 24  1  0  0  0  0
  8 25  1  0  0  0  0
 12 26  1  0  0  0  0
 22 27  1  0  0  0  0
 13 28  1  0  0  0  0
 22 29  1  0  0  0  0
M  CHG  2  13   1  22   1
M  END
> <Chemgauss4>
-5.790252

$$$$
