REMARK  2 active torsions:
REMARK  status: ('A' for Active; 'I' for Inactive)
REMARK    1  A    between atoms: C_4  and  C_15 
REMARK    2  A    between atoms: C_4  and  C_8 
ROOT
HETATM    1  C   UNL     1       8.807   2.059  23.316  1.00  0.00     0.039 C 
HETATM    2 BR   UNL     1      11.443   1.053  23.366  1.00  0.00    -0.031 Br
HETATM    3  C   UNL     1       7.466   1.777  23.404  1.00  0.00     0.024 C 
HETATM    4 BR   UNL     1       5.207   0.109  23.046  1.00  0.00    -0.049 Br
HETATM    5  C   UNL     1       7.901  -0.467  22.571  1.00  0.00     0.029 C 
HETATM    6  N   UNL     1       9.181  -0.116  22.523  1.00  0.00    -0.353 N 
ATOM      7  HN  UNL     1       9.841  -0.748  22.070  1.00  0.00     0.166 HD
HETATM    8  C   UNL     1       7.022   0.511  23.003  1.00  0.00     0.033 C 
HETATM    9  C   UNL     1       9.626   0.978  23.018  1.00  0.00     0.080 C 
ENDROOT
BRANCH   5  10
HETATM   10  C   UNL     1       7.593  -1.898  22.276  1.00  0.00     0.084 C 
BRANCH  10  11
HETATM   11  C   UNL     1       8.967  -2.572  22.073  1.00  0.00     0.078 A 
HETATM   12  C   UNL     1       9.690  -2.023  20.847  1.00  0.00     0.033 C 
HETATM   13  S   UNL     1       9.689  -3.035  23.571  1.00  0.00     0.155 S 
HETATM   14  O   UNL     1       9.481  -3.910  24.739  1.00  0.00    -0.227 OA
HETATM   15  C   UNL     1       9.108  -3.973  22.226  1.00  0.00     0.166 A 
HETATM   16  O   UNL     1      10.688  -2.003  23.898  1.00  0.00    -0.227 OA
ENDBRANCH  10  11
ENDBRANCH   5  10
TORSDOF 2
