MODEL 1
REMARK VINA RESULT:    -5.272      0.000      0.000
REMARK INTER + INTRA:          -5.658
REMARK INTER:                  -5.889
REMARK INTRA:                   0.231
REMARK UNBOUND:                 0.231
REMARK  2 active torsions:
REMARK  status: ('A' for Active; 'I' for Inactive)
REMARK    1  A    between atoms: C_4  and  C_15 
REMARK    2  A    between atoms: C_4  and  C_8 
ROOT
HETATM    1  C   UNL     1       7.071  -4.991  24.116  1.00  0.00     0.039 C 
HETATM    2 BR   UNL     1       6.307  -5.467  21.441  1.00  0.00    -0.031 Br
HETATM    3  C   UNL     1       7.449  -4.065  25.058  1.00  0.00     0.024 C 
HETATM    4 BR   UNL     1       8.704  -1.665  25.878  1.00  0.00    -0.049 Br
HETATM    5  C   UNL     1       8.364  -2.666  23.290  1.00  0.00     0.029 C 
HETATM    6  N   UNL     1       7.960  -3.607  22.444  1.00  0.00    -0.353 N 
ATOM      7  HN  UNL     1       8.252  -3.542  21.469  1.00  0.00     0.166 HD
HETATM    8  C   UNL     1       8.119  -2.913  24.630  1.00  0.00     0.033 C 
HETATM    9  C   UNL     1       7.221  -4.593  22.794  1.00  0.00     0.080 C 
ENDROOT
BRANCH   5  10
HETATM   10  C   UNL     1       8.912  -1.417  22.683  1.00  0.00     0.084 C 
BRANCH  10  11
HETATM   11  C   UNL     1       7.674  -0.615  22.226  1.00  0.00     0.078 A 
HETATM   12  C   UNL     1       6.861  -0.108  23.413  1.00  0.00     0.033 C 
HETATM   13  S   UNL     1       7.953   0.217  20.740  1.00  0.00     0.155 S 
HETATM   14  O   UNL     1       8.271  -0.018  19.320  1.00  0.00    -0.227 OA
HETATM   15  C   UNL     1       6.872  -1.081  21.156  1.00  0.00     0.166 A 
HETATM   16  O   UNL     1       8.241   1.619  21.086  1.00  0.00    -0.227 OA
ENDBRANCH  10  11
ENDBRANCH   5  10
TORSDOF 2
ENDMDL
MODEL 2
REMARK VINA RESULT:    -5.119     28.719     29.850
REMARK INTER + INTRA:          -5.487
REMARK INTER:                  -5.242
REMARK INTRA:                  -0.245
REMARK UNBOUND:                 0.231
REMARK  2 active torsions:
REMARK  status: ('A' for Active; 'I' for Inactive)
REMARK    1  A    between atoms: C_4  and  C_15 
REMARK    2  A    between atoms: C_4  and  C_8 
ROOT
HETATM    1  C   UNL     1       7.911  17.938   0.427  1.00  0.00     0.039 C 
HETATM    2 BR   UNL     1       9.121  15.695   1.639  1.00  0.00    -0.031 Br
HETATM    3  C   UNL     1       8.077  19.207  -0.071  1.00  0.00     0.024 C 
HETATM    4 BR   UNL     1       9.311  21.754  -0.131  1.00  0.00    -0.049 Br
HETATM    5  C   UNL     1       9.949  19.538   1.448  1.00  0.00     0.029 C 
HETATM    6  N   UNL     1       9.724  18.298   1.869  1.00  0.00    -0.353 N 
ATOM      7  HN  UNL     1      10.230  17.965   2.690  1.00  0.00     0.166 HD
HETATM    8  C   UNL     1       9.091  20.008   0.469  1.00  0.00     0.033 C 
HETATM    9  C   UNL     1       8.904  17.501   1.294  1.00  0.00     0.080 C 
ENDROOT
BRANCH   5  10
HETATM   10  C   UNL     1      11.165  20.214   1.990  1.00  0.00     0.084 C 
BRANCH  10  11
HETATM   11  C   UNL     1      10.912  20.340   3.508  1.00  0.00     0.078 A 
HETATM   12  C   UNL     1       9.531  20.914   3.805  1.00  0.00     0.033 C 
HETATM   13  S   UNL     1      11.731  19.114   4.405  1.00  0.00     0.155 S 
HETATM   14  O   UNL     1      13.081  18.607   4.716  1.00  0.00    -0.227 OA
HETATM   15  C   UNL     1      11.923  20.842   4.364  1.00  0.00     0.166 A 
HETATM   16  O   UNL     1      10.730  18.082   4.727  1.00  0.00    -0.227 OA
ENDBRANCH  10  11
ENDBRANCH   5  10
TORSDOF 2
ENDMDL
MODEL 3
REMARK VINA RESULT:    -5.030      4.765      6.208
REMARK INTER + INTRA:          -5.387
REMARK INTER:                  -5.342
REMARK INTRA:                  -0.046
REMARK UNBOUND:                 0.231
REMARK  2 active torsions:
REMARK  status: ('A' for Active; 'I' for Inactive)
REMARK    1  A    between atoms: C_4  and  C_15 
REMARK    2  A    between atoms: C_4  and  C_8 
ROOT
HETATM    1  C   UNL     1       6.365   2.789  22.030  1.00  0.00     0.039 C 
HETATM    2 BR   UNL     1       7.275   5.231  23.113  1.00  0.00    -0.031 Br
HETATM    3  C   UNL     1       6.613   1.452  21.836  1.00  0.00     0.024 C 
HETATM    4 BR   UNL     1       8.325  -0.765  21.431  1.00  0.00    -0.049 Br
HETATM    5  C   UNL     1       9.003   1.903  21.915  1.00  0.00     0.029 C 
HETATM    6  N   UNL     1       8.676   3.176  22.107  1.00  0.00    -0.353 N 
ATOM      7  HN  UNL     1       9.416   3.877  22.077  1.00  0.00     0.166 HD
HETATM    8  C   UNL     1       7.944   1.026  21.756  1.00  0.00     0.033 C 
HETATM    9  C   UNL     1       7.476   3.566  22.327  1.00  0.00     0.080 C 
ENDROOT
BRANCH   5  10
HETATM   10  C   UNL     1      10.453   1.567  22.021  1.00  0.00     0.084 C 
BRANCH  10  11
HETATM   11  C   UNL     1      10.854   1.959  23.459  1.00  0.00     0.078 A 
HETATM   12  C   UNL     1      11.308   3.413  23.543  1.00  0.00     0.033 C 
HETATM   13  S   UNL     1       9.941   1.097  24.644  1.00  0.00     0.155 S 
HETATM   14  O   UNL     1       9.672  -0.266  25.137  1.00  0.00    -0.227 OA
HETATM   15  C   UNL     1      11.635   1.082  24.251  1.00  0.00     0.166 A 
HETATM   16  O   UNL     1       8.885   2.011  25.114  1.00  0.00    -0.227 OA
ENDBRANCH  10  11
ENDBRANCH   5  10
TORSDOF 2
ENDMDL
MODEL 4
REMARK VINA RESULT:    -4.993      4.321      6.197
REMARK INTER + INTRA:          -5.346
REMARK INTER:                  -5.520
REMARK INTRA:                   0.174
REMARK UNBOUND:                 0.231
REMARK  2 active torsions:
REMARK  status: ('A' for Active; 'I' for Inactive)
REMARK    1  A    between atoms: C_4  and  C_15 
REMARK    2  A    between atoms: C_4  and  C_8 
ROOT
HETATM    1  C   UNL     1       7.351   3.375  22.611  1.00  0.00     0.039 C 
HETATM    2 BR   UNL     1       9.178   4.325  24.540  1.00  0.00    -0.031 Br
HETATM    3  C   UNL     1       6.957   2.326  21.817  1.00  0.00     0.024 C 
HETATM    4 BR   UNL     1       7.448   0.009  20.267  1.00  0.00    -0.049 Br
HETATM    5  C   UNL     1       9.248   1.507  21.794  1.00  0.00     0.029 C 
HETATM    6  N   UNL     1       9.544   2.545  22.567  1.00  0.00    -0.353 N 
ATOM      7  HN  UNL     1      10.526   2.743  22.759  1.00  0.00     0.166 HD
HETATM    8  C   UNL     1       7.926   1.408  21.394  1.00  0.00     0.033 C 
HETATM    9  C   UNL     1       8.655   3.310  23.082  1.00  0.00     0.080 C 
ENDROOT
BRANCH   5  10
HETATM   10  C   UNL     1      10.342   0.518  21.561  1.00  0.00     0.084 C 
BRANCH  10  11
HETATM   11  C   UNL     1      10.306  -0.419  22.787  1.00  0.00     0.078 A 
HETATM   12  C   UNL     1       9.439  -1.648  22.533  1.00  0.00     0.033 C 
HETATM   13  S   UNL     1      11.778  -0.367  23.687  1.00  0.00     0.155 S 
HETATM   14  O   UNL     1      12.631   0.548  24.466  1.00  0.00    -0.227 OA
HETATM   15  C   UNL     1      10.156   0.112  24.092  1.00  0.00     0.166 A 
HETATM   16  O   UNL     1      12.555  -1.557  23.298  1.00  0.00    -0.227 OA
ENDBRANCH  10  11
ENDBRANCH   5  10
TORSDOF 2
ENDMDL
MODEL 5
REMARK VINA RESULT:    -4.940      5.184      6.657
REMARK INTER + INTRA:          -5.287
REMARK INTER:                  -5.141
REMARK INTRA:                  -0.146
REMARK UNBOUND:                 0.231
REMARK  2 active torsions:
REMARK  status: ('A' for Active; 'I' for Inactive)
REMARK    1  A    between atoms: C_4  and  C_15 
REMARK    2  A    between atoms: C_4  and  C_8 
ROOT
HETATM    1  C   UNL     1       6.188   3.775  21.991  1.00  0.00     0.039 C 
HETATM    2 BR   UNL     1       7.128   6.434  22.100  1.00  0.00    -0.031 Br
HETATM    3  C   UNL     1       6.171   2.535  22.581  1.00  0.00     0.024 C 
HETATM    4 BR   UNL     1       7.326   0.449  24.107  1.00  0.00    -0.049 Br
HETATM    5  C   UNL     1       8.356   2.988  23.551  1.00  0.00     0.029 C 
HETATM    6  N   UNL     1       8.289   4.171  22.952  1.00  0.00    -0.353 N 
ATOM      7  HN  UNL     1       9.120   4.763  22.952  1.00  0.00     0.166 HD
HETATM    8  C   UNL     1       7.279   2.144  23.343  1.00  0.00     0.033 C 
HETATM    9  C   UNL     1       7.232   4.606  22.375  1.00  0.00     0.080 C 
ENDROOT
BRANCH   5  10
HETATM   10  C   UNL     1       9.515   2.771  24.467  1.00  0.00     0.084 C 
BRANCH  10  11
HETATM   11  C   UNL     1      10.732   2.575  23.537  1.00  0.00     0.078 A 
HETATM   12  C   UNL     1      11.625   3.811  23.508  1.00  0.00     0.033 C 
HETATM   13  S   UNL     1      11.251   0.930  23.488  1.00  0.00     0.155 S 
HETATM   14  O   UNL     1      10.798  -0.420  23.107  1.00  0.00    -0.227 OA
HETATM   15  C   UNL     1      10.573   1.968  22.268  1.00  0.00     0.166 A 
HETATM   16  O   UNL     1      12.418   0.826  24.381  1.00  0.00    -0.227 OA
ENDBRANCH  10  11
ENDBRANCH   5  10
TORSDOF 2
ENDMDL
MODEL 6
REMARK VINA RESULT:    -4.923     15.937     17.025
REMARK INTER + INTRA:          -5.267
REMARK INTER:                  -5.214
REMARK INTRA:                  -0.053
REMARK UNBOUND:                 0.231
REMARK  2 active torsions:
REMARK  status: ('A' for Active; 'I' for Inactive)
REMARK    1  A    between atoms: C_4  and  C_15 
REMARK    2  A    between atoms: C_4  and  C_8 
ROOT
HETATM    1  C   UNL     1      23.177  -0.391  27.660  1.00  0.00     0.039 C 
HETATM    2 BR   UNL     1      24.048  -2.143  29.694  1.00  0.00    -0.031 Br
HETATM    3  C   UNL     1      22.476  -0.247  26.488  1.00  0.00     0.024 C 
HETATM    4 BR   UNL     1      21.506  -1.173  23.995  1.00  0.00    -0.049 Br
HETATM    5  C   UNL     1      22.950  -2.569  25.939  1.00  0.00     0.029 C 
HETATM    6  N   UNL     1      23.604  -2.627  27.094  1.00  0.00    -0.353 N 
ATOM      7  HN  UNL     1      24.158  -3.459  27.297  1.00  0.00     0.166 HD
HETATM    8  C   UNL     1      22.391  -1.344  25.622  1.00  0.00     0.033 C 
HETATM    9  C   UNL     1      23.572  -1.688  27.964  1.00  0.00     0.080 C 
ENDROOT
BRANCH   5  10
HETATM   10  C   UNL     1      22.796  -3.857  25.198  1.00  0.00     0.084 C 
BRANCH  10  11
HETATM   11  C   UNL     1      24.230  -4.412  25.053  1.00  0.00     0.078 A 
HETATM   12  C   UNL     1      25.227  -3.314  24.698  1.00  0.00     0.033 C 
HETATM   13  S   UNL     1      24.511  -5.759  26.094  1.00  0.00     0.155 S 
HETATM   14  O   UNL     1      24.052  -7.134  26.364  1.00  0.00    -0.227 OA
HETATM   15  C   UNL     1      24.462  -5.625  24.360  1.00  0.00     0.166 A 
HETATM   16  O   UNL     1      25.253  -5.248  27.260  1.00  0.00    -0.227 OA
ENDBRANCH  10  11
ENDBRANCH   5  10
TORSDOF 2
ENDMDL
MODEL 7
REMARK VINA RESULT:    -4.891      3.893      5.558
REMARK INTER + INTRA:          -5.231
REMARK INTER:                  -5.158
REMARK INTRA:                  -0.074
REMARK UNBOUND:                 0.231
REMARK  2 active torsions:
REMARK  status: ('A' for Active; 'I' for Inactive)
REMARK    1  A    between atoms: C_4  and  C_15 
REMARK    2  A    between atoms: C_4  and  C_8 
ROOT
HETATM    1  C   UNL     1      10.553   3.334  23.778  1.00  0.00     0.039 C 
HETATM    2 BR   UNL     1       7.803   3.896  24.064  1.00  0.00    -0.031 Br
HETATM    3  C   UNL     1      11.528   2.370  23.689  1.00  0.00     0.024 C 
HETATM    4 BR   UNL     1      12.632  -0.168  24.282  1.00  0.00    -0.049 Br
HETATM    5  C   UNL     1      10.133   0.863  24.993  1.00  0.00     0.029 C 
HETATM    6  N   UNL     1       9.239   1.845  25.026  1.00  0.00    -0.353 N 
ATOM      7  HN  UNL     1       8.425   1.741  25.632  1.00  0.00     0.166 HD
HETATM    8  C   UNL     1      11.312   1.142  24.325  1.00  0.00     0.033 C 
HETATM    9  C   UNL     1       9.351   2.917  24.334  1.00  0.00     0.080 C 
ENDROOT
BRANCH   5  10
HETATM   10  C   UNL     1       9.702  -0.446  25.566  1.00  0.00     0.084 C 
BRANCH  10  11
HETATM   11  C   UNL     1       8.542  -0.919  24.664  1.00  0.00     0.078 A 
HETATM   12  C   UNL     1       7.189  -0.451  25.190  1.00  0.00     0.033 C 
HETATM   13  S   UNL     1       9.017  -1.038  23.008  1.00  0.00     0.155 S 
HETATM   14  O   UNL     1       9.946  -1.753  22.115  1.00  0.00    -0.227 OA
HETATM   15  C   UNL     1       8.519  -2.243  24.160  1.00  0.00     0.166 A 
HETATM   16  O   UNL     1       8.519   0.175  22.336  1.00  0.00    -0.227 OA
ENDBRANCH  10  11
ENDBRANCH   5  10
TORSDOF 2
ENDMDL
MODEL 8
REMARK VINA RESULT:    -4.729     25.785     27.096
REMARK INTER + INTRA:          -5.051
REMARK INTER:                  -4.987
REMARK INTRA:                  -0.063
REMARK UNBOUND:                 0.231
REMARK  2 active torsions:
REMARK  status: ('A' for Active; 'I' for Inactive)
REMARK    1  A    between atoms: C_4  and  C_15 
REMARK    2  A    between atoms: C_4  and  C_8 
ROOT
HETATM    1  C   UNL     1       9.190  18.999   2.747  1.00  0.00     0.039 C 
HETATM    2 BR   UNL     1       8.585  18.973  -0.009  1.00  0.00    -0.031 Br
HETATM    3  C   UNL     1       9.752  18.333   3.808  1.00  0.00     0.024 C 
HETATM    4 BR   UNL     1      10.451  15.990   5.235  1.00  0.00    -0.049 Br
HETATM    5  C   UNL     1       9.260  16.215   2.717  1.00  0.00     0.029 C 
HETATM    6  N   UNL     1       8.742  16.936   1.728  1.00  0.00    -0.353 N 
ATOM      7  HN  UNL     1       8.229  16.451   0.992  1.00  0.00     0.166 HD
HETATM    8  C   UNL     1       9.758  16.933   3.790  1.00  0.00     0.033 C 
HETATM    9  C   UNL     1       8.855  18.209   1.656  1.00  0.00     0.080 C 
ENDROOT
BRANCH   5  10
HETATM   10  C   UNL     1       9.352  14.743   2.488  1.00  0.00     0.084 C 
BRANCH  10  11
HETATM   11  C   UNL     1       7.899  14.229   2.581  1.00  0.00     0.078 A 
HETATM   12  C   UNL     1       7.434  13.608   1.267  1.00  0.00     0.033 C 
HETATM   13  S   UNL     1       7.504  13.687   4.171  1.00  0.00     0.155 S 
HETATM   14  O   UNL     1       7.380  14.160   5.562  1.00  0.00    -0.227 OA
HETATM   15  C   UNL     1       6.902  15.010   3.216  1.00  0.00     0.166 A 
HETATM   16  O   UNL     1       7.602  12.217   4.156  1.00  0.00    -0.227 OA
ENDBRANCH  10  11
ENDBRANCH   5  10
TORSDOF 2
ENDMDL
MODEL 9
REMARK VINA RESULT:    -4.728     25.971     27.566
REMARK INTER + INTRA:          -5.049
REMARK INTER:                  -5.234
REMARK INTRA:                   0.184
REMARK UNBOUND:                 0.231
REMARK  2 active torsions:
REMARK  status: ('A' for Active; 'I' for Inactive)
REMARK    1  A    between atoms: C_4  and  C_15 
REMARK    2  A    between atoms: C_4  and  C_8 
ROOT
HETATM    1  C   UNL     1       9.898  19.764   2.153  1.00  0.00     0.039 C 
HETATM    2 BR   UNL     1       8.560  18.519   0.003  1.00  0.00    -0.031 Br
HETATM    3  C   UNL     1      10.573  19.600   3.338  1.00  0.00     0.024 C 
HETATM    4 BR   UNL     1      11.115  18.262   5.772  1.00  0.00    -0.049 Br
HETATM    5  C   UNL     1       9.349  17.535   3.731  1.00  0.00     0.029 C 
HETATM    6  N   UNL     1       8.746  17.764   2.570  1.00  0.00    -0.353 N 
ATOM      7  HN  UNL     1       7.956  17.174   2.308  1.00  0.00     0.166 HD
HETATM    8  C   UNL     1      10.269  18.488   4.132  1.00  0.00     0.033 C 
HETATM    9  C   UNL     1       9.109  18.690   1.763  1.00  0.00     0.080 C 
ENDROOT
BRANCH   5  10
HETATM   10  C   UNL     1       9.052  16.227   4.387  1.00  0.00     0.084 C 
BRANCH  10  11
HETATM   11  C   UNL     1       9.878  15.186   3.603  1.00  0.00     0.078 A 
HETATM   12  C   UNL     1      11.323  15.130   4.088  1.00  0.00     0.033 C 
HETATM   13  S   UNL     1       8.914  13.850   3.086  1.00  0.00     0.155 S 
HETATM   14  O   UNL     1       7.760  13.512   2.234  1.00  0.00    -0.227 OA
HETATM   15  C   UNL     1       9.755  15.085   2.196  1.00  0.00     0.166 A 
HETATM   16  O   UNL     1       9.168  12.751   4.034  1.00  0.00    -0.227 OA
ENDBRANCH  10  11
ENDBRANCH   5  10
TORSDOF 2
ENDMDL
