REMARK  4 active torsions:
REMARK  status: ('A' for Active; 'I' for Inactive)
REMARK    1  A    between atoms: N_2  and  C_12 
REMARK       I    between atoms: N_4  and  C_8 
REMARK    2  A    between atoms: N_4  and  C_11 
REMARK    3  A    between atoms: C_8  and  C_9 
REMARK    4  A    between atoms: C_9  and  C_14 
ROOT
HETATM    1  C   UNL     1       9.241   0.847  24.299  1.00  0.00     0.043 C 
HETATM    2  C   UNL     1       8.024   1.362  24.565  1.00  0.00    -0.017 C 
HETATM    3  C   UNL     1       6.915   0.647  23.684  1.00  0.00     0.087 C 
HETATM    4  C   UNL     1       9.179  -0.234  23.395  1.00  0.00     0.133 C 
HETATM    5  C   UNL     1       7.837  -0.186  22.889  1.00  0.00     0.049 C 
ENDROOT
BRANCH   4   6
HETATM    6  N   UNL     1      10.123  -1.096  23.147  1.00  0.00    -0.362 NA
HETATM    7  C   UNL     1      10.957  -1.957  22.632  1.00  0.00     0.365 C 
HETATM    8  O   UNL     1      12.157  -1.958  22.814  1.00  0.00    -0.248 OA
BRANCH   7   9
HETATM    9  C   UNL     1      10.301  -3.073  21.788  1.00  0.00     0.259 C 
HETATM   10  O   UNL     1       9.171  -3.007  21.375  1.00  0.00    -0.283 OA
BRANCH   9  11
HETATM   11  C   UNL     1      11.114  -4.323  21.524  1.00  0.00     0.312 C 
HETATM   12  F   UNL     1      11.857  -4.647  22.567  1.00  0.00    -0.247 F 
ENDBRANCH   9  11
ENDBRANCH   7   9
ENDBRANCH   4   6
BRANCH   5  13
HETATM   13  N   UNL     1       7.586  -0.786  21.755  1.00  0.00    -0.395 N 
HETATM   14  C   UNL     1       6.274  -0.744  21.158  1.00  0.00     0.146 C 
HETATM   15  H   UNL     1       8.382  -1.372  21.432  1.00  0.00     0.159 HD
ENDBRANCH   5  13
TORSDOF 4
