MODEL 1
REMARK VINA RESULT:    -5.045      0.000      0.000
REMARK INTER + INTRA:          -6.586
REMARK INTER:                  -6.225
REMARK INTRA:                  -0.361
REMARK UNBOUND:                -0.361
REMARK  4 active torsions:
REMARK  status: ('A' for Active; 'I' for Inactive)
REMARK    1  A    between atoms: N_2  and  C_12 
REMARK       I    between atoms: N_4  and  C_8 
REMARK    2  A    between atoms: N_4  and  C_11 
REMARK    3  A    between atoms: C_8  and  C_9 
REMARK    4  A    between atoms: C_9  and  C_14 
ROOT
HETATM    1  C   UNL     1       8.893  -0.069  21.096  1.00  0.00     0.043 C 
HETATM    2  C   UNL     1       7.545  -0.087  21.084  1.00  0.00    -0.017 C 
HETATM    3  C   UNL     1       7.001  -1.333  21.901  1.00  0.00     0.087 C 
HETATM    4  C   UNL     1       9.435  -1.093  21.899  1.00  0.00     0.133 C 
HETATM    5  C   UNL     1       8.314  -1.944  22.179  1.00  0.00     0.049 C 
ENDROOT
BRANCH   4   6
HETATM    6  N   UNL     1      10.664  -1.182  22.322  1.00  0.00    -0.362 NA
HETATM    7  C   UNL     1      11.770  -1.286  23.006  1.00  0.00     0.365 C 
HETATM    8  O   UNL     1      12.705  -2.001  22.713  1.00  0.00    -0.248 OA
BRANCH   7   9
HETATM    9  C   UNL     1      11.863  -0.355  24.237  1.00  0.00     0.259 C 
HETATM   10  O   UNL     1      12.897   0.132  24.616  1.00  0.00    -0.283 OA
BRANCH   9  11
HETATM   11  C   UNL     1      10.592  -0.099  25.020  1.00  0.00     0.312 C 
HETATM   12  F   UNL     1       9.982   0.998  24.608  1.00  0.00    -0.247 F 
ENDBRANCH   9  11
ENDBRANCH   7   9
ENDBRANCH   4   6
BRANCH   5  13
HETATM   13  N   UNL     1       8.554  -3.174  22.551  1.00  0.00    -0.395 N 
HETATM   14  C   UNL     1       8.437  -3.578  23.931  1.00  0.00     0.146 C 
HETATM   15  H   UNL     1       8.945  -3.752  21.780  1.00  0.00     0.159 HD
ENDBRANCH   5  13
TORSDOF 4
ENDMDL
MODEL 2
REMARK VINA RESULT:    -4.922     26.213     27.641
REMARK INTER + INTRA:          -6.434
REMARK INTER:                  -6.018
REMARK INTRA:                  -0.416
REMARK UNBOUND:                -0.361
REMARK  4 active torsions:
REMARK  status: ('A' for Active; 'I' for Inactive)
REMARK    1  A    between atoms: N_2  and  C_12 
REMARK       I    between atoms: N_4  and  C_8 
REMARK    2  A    between atoms: N_4  and  C_11 
REMARK    3  A    between atoms: C_8  and  C_9 
REMARK    4  A    between atoms: C_9  and  C_14 
ROOT
HETATM    1  C   UNL     1       7.746  17.508   1.129  1.00  0.00     0.043 C 
HETATM    2  C   UNL     1       7.648  18.549   0.278  1.00  0.00    -0.017 C 
HETATM    3  C   UNL     1       8.983  19.405   0.293  1.00  0.00     0.087 C 
HETATM    4  C   UNL     1       9.025  17.416   1.717  1.00  0.00     0.133 C 
HETATM    5  C   UNL     1       9.654  18.660   1.376  1.00  0.00     0.049 C 
ENDROOT
BRANCH   4   6
HETATM    6  N   UNL     1       9.513  16.395   2.361  1.00  0.00    -0.362 NA
HETATM    7  C   UNL     1       9.801  15.225   2.861  1.00  0.00     0.365 C 
HETATM    8  O   UNL     1      10.923  14.786   3.005  1.00  0.00    -0.248 OA
BRANCH   7   9
HETATM    9  C   UNL     1       8.582  14.409   3.349  1.00  0.00     0.259 C 
HETATM   10  O   UNL     1       8.345  14.213   4.514  1.00  0.00    -0.283 OA
BRANCH   9  11
HETATM   11  C   UNL     1       7.687  13.788   2.296  1.00  0.00     0.312 C 
HETATM   12  F   UNL     1       8.123  14.045   1.076  1.00  0.00    -0.247 F 
ENDBRANCH   9  11
ENDBRANCH   7   9
ENDBRANCH   4   6
BRANCH   5  13
HETATM   13  N   UNL     1      10.672  19.051   2.096  1.00  0.00    -0.395 N 
HETATM   14  C   UNL     1      10.494  19.896   3.251  1.00  0.00     0.146 C 
HETATM   15  H   UNL     1      11.584  18.792   1.667  1.00  0.00     0.159 HD
ENDBRANCH   5  13
TORSDOF 4
ENDMDL
MODEL 3
REMARK VINA RESULT:    -4.894      3.250      4.343
REMARK INTER + INTRA:          -6.400
REMARK INTER:                  -6.145
REMARK INTRA:                  -0.255
REMARK UNBOUND:                -0.361
REMARK  4 active torsions:
REMARK  status: ('A' for Active; 'I' for Inactive)
REMARK    1  A    between atoms: N_2  and  C_12 
REMARK       I    between atoms: N_4  and  C_8 
REMARK    2  A    between atoms: N_4  and  C_11 
REMARK    3  A    between atoms: C_8  and  C_9 
REMARK    4  A    between atoms: C_9  and  C_14 
ROOT
HETATM    1  C   UNL     1       7.013   0.135  18.776  1.00  0.00     0.043 C 
HETATM    2  C   UNL     1       5.869   0.492  18.159  1.00  0.00    -0.017 C 
HETATM    3  C   UNL     1       4.986   1.402  19.112  1.00  0.00     0.087 C 
HETATM    4  C   UNL     1       7.149   0.740  20.043  1.00  0.00     0.133 C 
HETATM    5  C   UNL     1       5.853   1.299  20.301  1.00  0.00     0.049 C 
ENDROOT
BRANCH   4   6
HETATM    6  N   UNL     1       8.234   0.809  20.760  1.00  0.00    -0.362 NA
HETATM    7  C   UNL     1       9.384   0.628  21.348  1.00  0.00     0.365 C 
HETATM    8  O   UNL     1      10.226   1.488  21.509  1.00  0.00    -0.248 OA
BRANCH   7   9
HETATM    9  C   UNL     1       9.608  -0.791  21.918  1.00  0.00     0.259 C 
HETATM   10  O   UNL     1       8.712  -1.577  22.095  1.00  0.00    -0.283 OA
BRANCH   9  11
HETATM   11  C   UNL     1      11.018  -1.173  22.316  1.00  0.00     0.312 C 
HETATM   12  F   UNL     1      11.033  -2.273  23.047  1.00  0.00    -0.247 F 
ENDBRANCH   9  11
ENDBRANCH   7   9
ENDBRANCH   4   6
BRANCH   5  13
HETATM   13  N   UNL     1       5.534   1.567  21.540  1.00  0.00    -0.395 N 
HETATM   14  C   UNL     1       5.465   2.925  22.020  1.00  0.00     0.146 C 
HETATM   15  H   UNL     1       5.473   0.711  22.128  1.00  0.00     0.159 HD
ENDBRANCH   5  13
TORSDOF 4
ENDMDL
MODEL 4
REMARK VINA RESULT:    -4.873      3.911      5.342
REMARK INTER + INTRA:          -6.374
REMARK INTER:                  -5.777
REMARK INTRA:                  -0.597
REMARK UNBOUND:                -0.361
REMARK  4 active torsions:
REMARK  status: ('A' for Active; 'I' for Inactive)
REMARK    1  A    between atoms: N_2  and  C_12 
REMARK       I    between atoms: N_4  and  C_8 
REMARK    2  A    between atoms: N_4  and  C_11 
REMARK    3  A    between atoms: C_8  and  C_9 
REMARK    4  A    between atoms: C_9  and  C_14 
ROOT
HETATM    1  C   UNL     1       9.316  -0.743  21.781  1.00  0.00     0.043 C 
HETATM    2  C   UNL     1       9.211   0.552  21.423  1.00  0.00    -0.017 C 
HETATM    3  C   UNL     1       7.696   0.926  21.132  1.00  0.00     0.087 C 
HETATM    4  C   UNL     1       8.058  -1.373  21.888  1.00  0.00     0.133 C 
HETATM    5  C   UNL     1       7.149  -0.435  21.294  1.00  0.00     0.049 C 
ENDROOT
BRANCH   4   6
HETATM    6  N   UNL     1       7.807  -2.516  22.458  1.00  0.00    -0.362 NA
HETATM    7  C   UNL     1       7.542  -3.758  22.757  1.00  0.00     0.365 C 
HETATM    8  O   UNL     1       8.095  -4.398  23.627  1.00  0.00    -0.248 OA
BRANCH   7   9
HETATM    9  C   UNL     1       6.383  -4.388  21.951  1.00  0.00     0.259 C 
HETATM   10  O   UNL     1       5.319  -3.845  21.795  1.00  0.00    -0.283 OA
BRANCH   9  11
HETATM   11  C   UNL     1       6.596  -5.776  21.384  1.00  0.00     0.312 C 
HETATM   12  F   UNL     1       6.489  -6.703  22.318  1.00  0.00    -0.247 F 
ENDBRANCH   9  11
ENDBRANCH   7   9
ENDBRANCH   4   6
BRANCH   5  13
HETATM   13  N   UNL     1       5.993  -0.880  20.876  1.00  0.00    -0.395 N 
HETATM   14  C   UNL     1       5.634  -0.842  19.480  1.00  0.00     0.146 C 
HETATM   15  H   UNL     1       5.357  -1.126  21.661  1.00  0.00     0.159 HD
ENDBRANCH   5  13
TORSDOF 4
ENDMDL
MODEL 5
REMARK VINA RESULT:    -4.842      2.147      3.378
REMARK INTER + INTRA:          -6.335
REMARK INTER:                  -6.063
REMARK INTRA:                  -0.272
REMARK UNBOUND:                -0.361
REMARK  4 active torsions:
REMARK  status: ('A' for Active; 'I' for Inactive)
REMARK    1  A    between atoms: N_2  and  C_12 
REMARK       I    between atoms: N_4  and  C_8 
REMARK    2  A    between atoms: N_4  and  C_11 
REMARK    3  A    between atoms: C_8  and  C_9 
REMARK    4  A    between atoms: C_9  and  C_14 
ROOT
HETATM    1  C   UNL     1       8.659  -2.715  25.652  1.00  0.00     0.043 C 
HETATM    2  C   UNL     1       8.281  -3.892  26.188  1.00  0.00    -0.017 C 
HETATM    3  C   UNL     1       8.089  -4.982  25.051  1.00  0.00     0.087 C 
HETATM    4  C   UNL     1       8.870  -2.803  24.260  1.00  0.00     0.133 C 
HETATM    5  C   UNL     1       8.320  -4.081  23.907  1.00  0.00     0.049 C 
ENDROOT
BRANCH   4   6
HETATM    6  N   UNL     1       9.482  -1.933  23.508  1.00  0.00    -0.362 NA
HETATM    7  C   UNL     1      10.303  -1.262  22.749  1.00  0.00     0.365 C 
HETATM    8  O   UNL     1       9.984  -0.647  21.752  1.00  0.00    -0.248 OA
BRANCH   7   9
HETATM    9  C   UNL     1      11.767  -1.232  23.241  1.00  0.00     0.259 C 
HETATM   10  O   UNL     1      12.616  -1.979  22.825  1.00  0.00    -0.283 OA
BRANCH   9  11
HETATM   11  C   UNL     1      12.120  -0.247  24.336  1.00  0.00     0.312 C 
HETATM   12  F   UNL     1      13.356  -0.423  24.766  1.00  0.00    -0.247 F 
ENDBRANCH   9  11
ENDBRANCH   7   9
ENDBRANCH   4   6
BRANCH   5  13
HETATM   13  N   UNL     1       7.996  -4.286  22.657  1.00  0.00    -0.395 N 
HETATM   14  C   UNL     1       6.644  -4.612  22.277  1.00  0.00     0.146 C 
HETATM   15  H   UNL     1       8.826  -4.311  22.031  1.00  0.00     0.159 HD
ENDBRANCH   5  13
TORSDOF 4
ENDMDL
MODEL 6
REMARK VINA RESULT:    -4.794     12.964     14.233
REMARK INTER + INTRA:          -6.276
REMARK INTER:                  -5.680
REMARK INTRA:                  -0.596
REMARK UNBOUND:                -0.361
REMARK  4 active torsions:
REMARK  status: ('A' for Active; 'I' for Inactive)
REMARK    1  A    between atoms: N_2  and  C_12 
REMARK       I    between atoms: N_4  and  C_8 
REMARK    2  A    between atoms: N_4  and  C_11 
REMARK    3  A    between atoms: C_8  and  C_9 
REMARK    4  A    between atoms: C_9  and  C_14 
ROOT
HETATM    1  C   UNL     1      21.648  -1.754  23.979  1.00  0.00     0.043 C 
HETATM    2  C   UNL     1      21.317  -0.548  24.483  1.00  0.00    -0.017 C 
HETATM    3  C   UNL     1      21.981  -0.342  25.909  1.00  0.00     0.087 C 
HETATM    4  C   UNL     1      22.557  -2.448  24.805  1.00  0.00     0.133 C 
HETATM    5  C   UNL     1      22.563  -1.692  26.025  1.00  0.00     0.049 C 
ENDROOT
BRANCH   4   6
HETATM    6  N   UNL     1      23.260  -3.495  24.481  1.00  0.00    -0.362 NA
HETATM    7  C   UNL     1      23.744  -4.689  24.276  1.00  0.00     0.365 C 
HETATM    8  O   UNL     1      24.260  -5.063  23.243  1.00  0.00    -0.248 OA
BRANCH   7   9
HETATM    9  C   UNL     1      23.685  -5.634  25.498  1.00  0.00     0.259 C 
HETATM   10  O   UNL     1      23.250  -5.297  26.569  1.00  0.00    -0.283 OA
BRANCH   9  11
HETATM   11  C   UNL     1      24.255  -7.027  25.335  1.00  0.00     0.312 C 
HETATM   12  F   UNL     1      25.572  -7.027  25.438  1.00  0.00    -0.247 F 
ENDBRANCH   9  11
ENDBRANCH   7   9
ENDBRANCH   4   6
BRANCH   5  13
HETATM   13  N   UNL     1      22.981  -2.285  27.113  1.00  0.00    -0.395 N 
HETATM   14  C   UNL     1      24.334  -2.121  27.585  1.00  0.00     0.146 C 
HETATM   15  H   UNL     1      22.282  -2.954  27.493  1.00  0.00     0.159 HD
ENDBRANCH   5  13
TORSDOF 4
ENDMDL
MODEL 7
REMARK VINA RESULT:    -4.742      3.372      4.584
REMARK INTER + INTRA:          -6.212
REMARK INTER:                  -5.545
REMARK INTRA:                  -0.667
REMARK UNBOUND:                -0.361
REMARK  4 active torsions:
REMARK  status: ('A' for Active; 'I' for Inactive)
REMARK    1  A    between atoms: N_2  and  C_12 
REMARK       I    between atoms: N_4  and  C_8 
REMARK    2  A    between atoms: N_4  and  C_11 
REMARK    3  A    between atoms: C_8  and  C_9 
REMARK    4  A    between atoms: C_9  and  C_14 
ROOT
HETATM    1  C   UNL     1      11.697   4.096  23.687  1.00  0.00     0.043 C 
HETATM    2  C   UNL     1      10.835   5.131  23.725  1.00  0.00    -0.017 C 
HETATM    3  C   UNL     1       9.340   4.605  23.816  1.00  0.00     0.087 C 
HETATM    4  C   UNL     1      11.047   2.852  23.833  1.00  0.00     0.133 C 
HETATM    5  C   UNL     1       9.655   3.170  23.688  1.00  0.00     0.049 C 
ENDROOT
BRANCH   4   6
HETATM    6  N   UNL     1      11.608   1.708  24.099  1.00  0.00    -0.362 NA
HETATM    7  C   UNL     1      12.022   0.471  24.134  1.00  0.00     0.365 C 
HETATM    8  O   UNL     1      13.170   0.127  24.325  1.00  0.00    -0.248 OA
BRANCH   7   9
HETATM    9  C   UNL     1      10.911  -0.592  23.978  1.00  0.00     0.259 C 
HETATM   10  O   UNL     1       9.842  -0.511  24.528  1.00  0.00    -0.283 OA
BRANCH   9  11
HETATM   11  C   UNL     1      11.220  -1.811  23.135  1.00  0.00     0.312 C 
HETATM   12  F   UNL     1      11.656  -1.472  21.935  1.00  0.00    -0.247 F 
ENDBRANCH   9  11
ENDBRANCH   7   9
ENDBRANCH   4   6
BRANCH   5  13
HETATM   13  N   UNL     1       8.834   2.203  23.371  1.00  0.00    -0.395 N 
HETATM   14  C   UNL     1       8.599   1.839  21.996  1.00  0.00     0.146 C 
HETATM   15  H   UNL     1       8.307   1.845  24.193  1.00  0.00     0.159 HD
ENDBRANCH   5  13
TORSDOF 4
ENDMDL
MODEL 8
REMARK VINA RESULT:    -4.711      4.641      6.202
REMARK INTER + INTRA:          -6.174
REMARK INTER:                  -5.846
REMARK INTRA:                  -0.328
REMARK UNBOUND:                -0.361
REMARK  4 active torsions:
REMARK  status: ('A' for Active; 'I' for Inactive)
REMARK    1  A    between atoms: N_2  and  C_12 
REMARK       I    between atoms: N_4  and  C_8 
REMARK    2  A    between atoms: N_4  and  C_11 
REMARK    3  A    between atoms: C_8  and  C_9 
REMARK    4  A    between atoms: C_9  and  C_14 
ROOT
HETATM    1  C   UNL     1       5.656  -5.694  24.094  1.00  0.00     0.043 C 
HETATM    2  C   UNL     1       5.474  -6.015  22.797  1.00  0.00    -0.017 C 
HETATM    3  C   UNL     1       6.679  -5.474  21.918  1.00  0.00     0.087 C 
HETATM    4  C   UNL     1       6.895  -5.059  24.320  1.00  0.00     0.133 C 
HETATM    5  C   UNL     1       7.372  -4.751  23.001  1.00  0.00     0.049 C 
ENDROOT
BRANCH   4   6
HETATM    6  N   UNL     1       7.473  -4.867  25.471  1.00  0.00    -0.362 NA
HETATM    7  C   UNL     1       7.959  -4.944  26.679  1.00  0.00     0.365 C 
HETATM    8  O   UNL     1       9.070  -4.581  27.006  1.00  0.00    -0.248 OA
BRANCH   7   9
HETATM    9  C   UNL     1       6.978  -5.487  27.742  1.00  0.00     0.259 C 
HETATM   10  O   UNL     1       7.243  -6.407  28.473  1.00  0.00    -0.283 OA
BRANCH   9  11
HETATM   11  C   UNL     1       5.603  -4.855  27.815  1.00  0.00     0.312 C 
HETATM   12  F   UNL     1       5.459  -4.135  28.913  1.00  0.00    -0.247 F 
ENDBRANCH   9  11
ENDBRANCH   7   9
ENDBRANCH   4   6
BRANCH   5  13
HETATM   13  N   UNL     1       8.279  -3.818  22.878  1.00  0.00    -0.395 N 
HETATM   14  C   UNL     1       7.931  -2.483  22.460  1.00  0.00     0.146 C 
HETATM   15  H   UNL     1       9.245  -4.187  22.990  1.00  0.00     0.159 HD
ENDBRANCH   5  13
TORSDOF 4
ENDMDL
MODEL 9
REMARK VINA RESULT:    -4.565      2.796      4.913
REMARK INTER + INTRA:          -5.993
REMARK INTER:                  -5.609
REMARK INTRA:                  -0.385
REMARK UNBOUND:                -0.361
REMARK  4 active torsions:
REMARK  status: ('A' for Active; 'I' for Inactive)
REMARK    1  A    between atoms: N_2  and  C_12 
REMARK       I    between atoms: N_4  and  C_8 
REMARK    2  A    between atoms: N_4  and  C_11 
REMARK    3  A    between atoms: C_8  and  C_9 
REMARK    4  A    between atoms: C_9  and  C_14 
ROOT
HETATM    1  C   UNL     1      11.799  -1.468  22.824  1.00  0.00     0.043 C 
HETATM    2  C   UNL     1      12.815  -1.096  23.628  1.00  0.00    -0.017 C 
HETATM    3  C   UNL     1      12.475   0.275  24.352  1.00  0.00     0.087 C 
HETATM    4  C   UNL     1      10.693  -0.598  22.920  1.00  0.00     0.133 C 
HETATM    5  C   UNL     1      11.200   0.526  23.654  1.00  0.00     0.049 C 
ENDROOT
BRANCH   4   6
HETATM    6  N   UNL     1       9.486  -0.823  22.486  1.00  0.00    -0.362 NA
HETATM    7  C   UNL     1       8.386  -0.959  21.798  1.00  0.00     0.365 C 
HETATM    8  O   UNL     1       7.638  -1.913  21.863  1.00  0.00    -0.248 OA
BRANCH   7   9
HETATM    9  C   UNL     1       8.028   0.245  20.898  1.00  0.00     0.259 C 
HETATM   10  O   UNL     1       8.207   0.252  19.707  1.00  0.00    -0.283 OA
BRANCH   9  11
HETATM   11  C   UNL     1       7.479   1.485  21.572  1.00  0.00     0.312 C 
HETATM   12  F   UNL     1       8.299   2.513  21.438  1.00  0.00    -0.247 F 
ENDBRANCH   9  11
ENDBRANCH   7   9
ENDBRANCH   4   6
BRANCH   5  13
HETATM   13  N   UNL     1      10.556   1.661  23.562  1.00  0.00    -0.395 N 
HETATM   14  C   UNL     1      11.249   2.924  23.625  1.00  0.00     0.146 C 
HETATM   15  H   UNL     1       9.524   1.533  23.569  1.00  0.00     0.159 HD
ENDBRANCH   5  13
TORSDOF 4
ENDMDL
