
 OpenBabel07202414163D

 47 50  0  0  0  0  0  0  0  0999 V2000
   -2.1107   -0.2542    0.0740 Cl  0  0  0  0  0  0  0  0  0  0  0  0
   -0.3943   -0.1304    0.0373 C   0  0  0  0  0  0  0  0  0  0  0  0
    0.2035    1.1327    0.0482 C   0  0  0  0  0  0  0  0  0  0  0  0
    1.5994    1.2490    0.0183 C   0  0  0  0  0  0  0  0  0  0  0  0
    2.2601    2.6062   -0.0637 C   0  0  0  0  0  0  0  0  0  0  0  0
    3.2971    2.9083    1.0055 C   0  0  0  0  0  0  0  0  0  0  0  0
    4.4287    3.2802    0.7026 O   0  0  0  0  0  0  0  0  0  0  0  0
    2.8478    2.7601    2.3069 N   0  0  0  0  0  0  0  0  0  0  0  0
    3.6780    3.0467    3.4201 C   0  0  0  0  0  0  0  0  0  0  0  0
    4.3884    4.2474    3.4920 C   0  0  0  0  0  0  0  0  0  0  0  0
    5.1650    4.6150    4.5365 N   0  0  0  0  0  0  0  0  0  0  0  0
    5.2698    3.7241    5.5456 C   0  0  0  0  0  0  0  0  0  0  0  0
    4.6300    2.4824    5.5798 C   0  0  0  0  0  0  0  0  0  0  0  0
    4.8203    1.5839    6.6447 C   0  0  0  0  0  0  0  0  0  0  0  0
    4.2041    0.3336    6.6392 C   0  0  0  0  0  0  0  0  0  0  0  0
    3.3878   -0.0298    5.5761 C   0  0  0  0  0  0  0  0  0  0  0  0
    3.1791    0.8607    4.5215 C   0  0  0  0  0  0  0  0  0  0  0  0
    3.7936    2.1344    4.4940 C   0  0  0  0  0  0  0  0  0  0  0  0
    2.3682    0.0775   -0.0148 C   0  0  0  0  0  0  0  0  0  0  0  0
    1.7739   -1.1977   -0.0058 C   0  0  0  0  0  0  0  0  0  0  0  0
    2.5501   -2.3743    0.0484 N   0  0  0  0  0  0  0  0  0  0  0  0
    3.8073   -2.5604    0.6646 C   0  0  0  0  0  0  0  0  0  0  0  0
    4.1219   -1.8108    1.8174 C   0  0  0  0  0  0  0  0  0  0  0  0
    5.3773   -1.8684    2.4168 C   0  0  0  0  0  0  0  0  0  0  0  0
    6.3483   -2.7073    1.8792 C   0  0  0  0  0  0  0  0  0  0  0  0
    6.0565   -3.4942    0.7620 C   0  0  0  0  0  0  0  0  0  0  0  0
    7.3103   -4.5250    0.1706 Cl  0  0  0  0  0  0  0  0  0  0  0  0
    4.7896   -3.4303    0.1518 C   0  0  0  0  0  0  0  0  0  0  0  0
    4.4947   -4.2408   -0.9917 C   0  0  0  0  0  0  0  0  0  0  0  0
    4.1909   -4.8838   -1.9122 N   0  0  0  0  0  0  0  0  0  0  0  0
    0.3801   -1.2899    0.0050 C   0  0  0  0  0  0  0  0  0  0  0  0
   -0.4225    2.0199    0.0610 H   0  0  0  0  0  0  0  0  0  0  0  0
    1.5131    3.4073   -0.0247 H   0  0  0  0  0  0  0  0  0  0  0  0
    2.7534    2.6798   -1.0411 H   0  0  0  0  0  0  0  0  0  0  0  0
    2.0908    2.1043    2.4461 H   0  0  0  0  0  0  0  0  0  0  0  0
    4.3212    4.9920    2.7031 H   0  0  0  0  0  0  0  0  0  0  0  0
    5.9215    4.0445    6.3561 H   0  0  0  0  0  0  0  0  0  0  0  0
    5.4656    1.8484    7.4804 H   0  0  0  0  0  0  0  0  0  0  0  0
    4.3668   -0.3582    7.4617 H   0  0  0  0  0  0  0  0  0  0  0  0
    2.9174   -1.0098    5.5586 H   0  0  0  0  0  0  0  0  0  0  0  0
    2.5497    0.5265    3.7029 H   0  0  0  0  0  0  0  0  0  0  0  0
    3.4532    0.1579   -0.0807 H   0  0  0  0  0  0  0  0  0  0  0  0
    2.2733   -3.0652   -0.6519 H   0  0  0  0  0  0  0  0  0  0  0  0
    3.3703   -1.1639    2.2602 H   0  0  0  0  0  0  0  0  0  0  0  0
    5.5950   -1.2557    3.2850 H   0  0  0  0  0  0  0  0  0  0  0  0
    7.3338   -2.7400    2.3405 H   0  0  0  0  0  0  0  0  0  0  0  0
   -0.1025   -2.2627    0.0169 H   0  0  0  0  0  0  0  0  0  0  0  0
  1  2  1  0  0  0  0
  2  3  2  0  0  0  0
  2 31  1  0  0  0  0
  3  4  1  0  0  0  0
  3 32  1  0  0  0  0
  4  5  1  0  0  0  0
  4 19  2  0  0  0  0
  5  6  1  0  0  0  0
  5 33  1  0  0  0  0
  5 34  1  0  0  0  0
  6  7  2  0  0  0  0
  6  8  1  0  0  0  0
  8  9  1  0  0  0  0
  8 35  1  0  0  0  0
  9 10  2  0  0  0  0
  9 18  1  0  0  0  0
 10 11  1  0  0  0  0
 10 36  1  0  0  0  0
 11 12  2  0  0  0  0
 12 13  1  0  0  0  0
 12 37  1  0  0  0  0
 13 14  2  0  0  0  0
 13 18  1  0  0  0  0
 14 15  1  0  0  0  0
 14 38  1  0  0  0  0
 15 16  2  0  0  0  0
 15 39  1  0  0  0  0
 16 17  1  0  0  0  0
 16 40  1  0  0  0  0
 17 18  2  0  0  0  0
 17 41  1  0  0  0  0
 19 20  1  0  0  0  0
 19 42  1  0  0  0  0
 20 21  1  0  0  0  0
 20 31  2  0  0  0  0
 21 22  1  0  0  0  0
 21 43  1  0  0  0  0
 22 23  2  0  0  0  0
 22 28  1  0  0  0  0
 23 24  1  0  0  0  0
 23 44  1  0  0  0  0
 24 25  2  0  0  0  0
 24 45  1  0  0  0  0
 25 26  1  0  0  0  0
 25 46  1  0  0  0  0
 26 27  1  0  0  0  0
 26 28  2  0  0  0  0
 28 29  1  0  0  0  0
 29 30  3  0  0  0  0
 31 47  1  0  0  0  0
M  END
$$$$
