MODEL 1
REMARK VINA RESULT:    -5.286      0.000      0.000
REMARK INTER + INTRA:          -7.915
REMARK INTER:                  -7.449
REMARK INTRA:                  -0.466
REMARK UNBOUND:                -0.466
REMARK  7 active torsions:
REMARK  status: ('A' for Active; 'I' for Inactive)
REMARK    1  A    between atoms: C_2  and  N_3 
REMARK    2  A    between atoms: N_3  and  C_5 
REMARK    3  A    between atoms: N_6  and  C_13 
REMARK    4  A    between atoms: C_8  and  O_9 
REMARK    5  A    between atoms: O_9  and  N_10 
REMARK    6  A    between atoms: C_13  and  C_14 
REMARK    7  A    between atoms: N_15  and  C_17 
ROOT
HETATM    1  C   UNL     1       9.187  -0.319  21.396  1.00  0.00     0.199 C 
HETATM    2  C   UNL     1       9.079  -1.511  22.018  1.00  0.00     0.073 C 
ENDROOT
BRANCH   2   3
HETATM    3  N   UNL     1      10.319  -1.653  22.254  1.00  0.00    -0.350 N 
HETATM    4  C   UNL     1      11.196  -1.748  23.135  1.00  0.00     0.177 C 
ATOM      5  HN  UNL     1      10.791  -1.714  21.352  1.00  0.00     0.166 HD
BRANCH   4   6
HETATM    6  N   UNL     1      12.403  -1.596  22.978  1.00  0.00    -0.373 N 
ATOM      7  HN  UNL     1      12.864  -2.091  22.214  1.00  0.00     0.161 HD
BRANCH   6   8
HETATM    8  C   UNL     1      13.194  -0.748  23.827  1.00  0.00     0.235 C 
HETATM    9 CL   UNL     1      12.144   0.541  24.484  1.00  0.00    -0.109 Cl
ENDBRANCH   6   8
ENDBRANCH   4   6
ENDBRANCH   2   3
BRANCH   2  10
HETATM   10  C   UNL     1       7.938  -2.406  22.429  1.00  0.00     0.120 C 
HETATM   11  N   UNL     1       8.129  -3.679  22.374  1.00  0.00    -0.357 N 
ATOM     12  HN  UNL     1       9.058  -3.960  22.061  1.00  0.00     0.166 HD
BRANCH  11  13
HETATM   13  C   UNL     1       7.316  -4.678  22.659  1.00  0.00     0.090 A 
HETATM   14  S   UNL     1       6.205  -4.664  23.996  1.00  0.00    -0.066 SA
HETATM   15  C   UNL     1       5.481  -6.050  23.299  1.00  0.00     0.140 A 
HETATM   16  N   UNL     1       6.086  -6.561  22.254  1.00  0.00    -0.367 N 
HETATM   17  C   UNL     1       7.110  -5.792  21.877  1.00  0.00     0.125 A 
ATOM     18  HN  UNL     1       5.812  -7.428  21.793  1.00  0.00     0.165 HD
ENDBRANCH  11  13
ENDBRANCH   2  10
BRANCH   1  19
HETATM   19  O   UNL     1       9.099   0.772  22.166  1.00  0.00    -0.242 OA
BRANCH  19  20
HETATM   20  N   UNL     1       9.283   2.065  21.807  1.00  0.00    -0.240 N 
HETATM   21  C   UNL     1       8.207   2.341  21.905  1.00  0.00     0.085 C 
ATOM     22  HN  UNL     1      10.112   2.597  21.541  1.00  0.00     0.203 HD
ENDBRANCH  19  20
ENDBRANCH   1  19
TORSDOF 7
ENDMDL
MODEL 2
REMARK VINA RESULT:    -5.011      3.242      4.362
REMARK INTER + INTRA:          -7.528
REMARK INTER:                  -7.130
REMARK INTRA:                  -0.398
REMARK UNBOUND:                -0.466
REMARK  7 active torsions:
REMARK  status: ('A' for Active; 'I' for Inactive)
REMARK    1  A    between atoms: C_2  and  N_3 
REMARK    2  A    between atoms: N_3  and  C_5 
REMARK    3  A    between atoms: N_6  and  C_13 
REMARK    4  A    between atoms: C_8  and  O_9 
REMARK    5  A    between atoms: O_9  and  N_10 
REMARK    6  A    between atoms: C_13  and  C_14 
REMARK    7  A    between atoms: N_15  and  C_17 
ROOT
HETATM    1  C   UNL     1      10.769  -1.201  23.523  1.00  0.00     0.199 C 
HETATM    2  C   UNL     1       9.671  -1.945  23.278  1.00  0.00     0.073 C 
ENDROOT
BRANCH   2   3
HETATM    3  N   UNL     1       9.396  -1.413  22.158  1.00  0.00    -0.350 N 
HETATM    4  C   UNL     1       9.202  -0.346  21.542  1.00  0.00     0.177 C 
ATOM      5  HN  UNL     1       9.290  -2.172  21.484  1.00  0.00     0.166 HD
BRANCH   4   6
HETATM    6  N   UNL     1       8.658  -0.225  20.450  1.00  0.00    -0.373 N 
ATOM      7  HN  UNL     1       9.234  -0.001  19.638  1.00  0.00     0.161 HD
BRANCH   6   8
HETATM    8  C   UNL     1       7.242  -0.386  20.268  1.00  0.00     0.235 C 
HETATM    9 CL   UNL     1       6.469   1.225  20.340  1.00  0.00    -0.109 Cl
ENDBRANCH   6   8
ENDBRANCH   4   6
ENDBRANCH   2   3
BRANCH   2  10
HETATM   10  C   UNL     1       8.976  -3.091  23.968  1.00  0.00     0.120 C 
HETATM   11  N   UNL     1       8.737  -2.971  25.228  1.00  0.00    -0.357 N 
ATOM     12  HN  UNL     1       9.040  -2.088  25.639  1.00  0.00     0.166 HD
BRANCH  11  13
HETATM   13  C   UNL     1       8.164  -3.807  26.072  1.00  0.00     0.090 A 
HETATM   14  S   UNL     1       6.505  -3.678  26.577  1.00  0.00    -0.066 SA
HETATM   15  C   UNL     1       6.675  -5.248  27.240  1.00  0.00     0.140 A 
HETATM   16  N   UNL     1       7.879  -5.764  27.218  1.00  0.00    -0.367 N 
HETATM   17  C   UNL     1       8.721  -4.970  26.552  1.00  0.00     0.125 A 
ATOM     18  HN  UNL     1       8.138  -6.650  27.649  1.00  0.00     0.165 HD
ENDBRANCH  11  13
ENDBRANCH   2  10
BRANCH   1  19
HETATM   19  O   UNL     1      11.936  -1.686  23.080  1.00  0.00    -0.242 OA
BRANCH  19  20
HETATM   20  N   UNL     1      13.185  -1.349  23.478  1.00  0.00    -0.240 N 
HETATM   21  C   UNL     1      12.857  -0.467  24.076  1.00  0.00     0.085 C 
ATOM     22  HN  UNL     1      14.102  -1.757  23.295  1.00  0.00     0.203 HD
ENDBRANCH  19  20
ENDBRANCH   1  19
TORSDOF 7
ENDMDL
MODEL 3
REMARK VINA RESULT:    -4.943      4.253      6.468
REMARK INTER + INTRA:          -7.431
REMARK INTER:                  -6.903
REMARK INTRA:                  -0.528
REMARK UNBOUND:                -0.466
REMARK  7 active torsions:
REMARK  status: ('A' for Active; 'I' for Inactive)
REMARK    1  A    between atoms: C_2  and  N_3 
REMARK    2  A    between atoms: N_3  and  C_5 
REMARK    3  A    between atoms: N_6  and  C_13 
REMARK    4  A    between atoms: C_8  and  O_9 
REMARK    5  A    between atoms: O_9  and  N_10 
REMARK    6  A    between atoms: C_13  and  C_14 
REMARK    7  A    between atoms: N_15  and  C_17 
ROOT
HETATM    1  C   UNL     1       5.652  -3.713  22.168  1.00  0.00     0.199 C 
HETATM    2  C   UNL     1       6.469  -2.646  22.284  1.00  0.00     0.073 C 
ENDROOT
BRANCH   2   3
HETATM    3  N   UNL     1       7.167  -3.114  23.235  1.00  0.00    -0.350 N 
HETATM    4  C   UNL     1       8.313  -3.426  23.616  1.00  0.00     0.177 C 
ATOM      5  HN  UNL     1       6.529  -3.319  24.003  1.00  0.00     0.166 HD
BRANCH   4   6
HETATM    6  N   UNL     1       8.591  -4.148  24.568  1.00  0.00    -0.373 N 
ATOM      7  HN  UNL     1       9.362  -4.809  24.472  1.00  0.00     0.161 HD
BRANCH   6   8
HETATM    8  C   UNL     1       7.874  -4.101  25.812  1.00  0.00     0.235 C 
HETATM    9 CL   UNL     1       6.725  -5.469  25.861  1.00  0.00    -0.109 Cl
ENDBRANCH   6   8
ENDBRANCH   4   6
ENDBRANCH   2   3
BRANCH   2  10
HETATM   10  C   UNL     1       6.645  -1.345  21.542  1.00  0.00     0.120 C 
HETATM   11  N   UNL     1       5.898  -1.141  20.512  1.00  0.00    -0.357 N 
ATOM     12  HN  UNL     1       5.241  -1.892  20.303  1.00  0.00     0.166 HD
BRANCH  11  13
HETATM   13  C   UNL     1       5.847  -0.115  19.685  1.00  0.00     0.090 A 
HETATM   14  S   UNL     1       7.034   0.186  18.450  1.00  0.00    -0.066 SA
HETATM   15  C   UNL     1       5.949   1.344  17.808  1.00  0.00     0.140 A 
HETATM   16  N   UNL     1       4.873   1.589  18.515  1.00  0.00    -0.367 N 
HETATM   17  C   UNL     1       4.797   0.767  19.564  1.00  0.00     0.125 A 
ATOM     18  HN  UNL     1       4.186   2.310  18.294  1.00  0.00     0.165 HD
ENDBRANCH  11  13
ENDBRANCH   2  10
BRANCH   1  19
HETATM   19  O   UNL     1       6.038  -4.677  21.323  1.00  0.00    -0.242 OA
BRANCH  19  20
HETATM   20  N   UNL     1       5.771  -6.003  21.390  1.00  0.00    -0.240 N 
HETATM   21  C   UNL     1       6.754  -6.272  21.840  1.00  0.00     0.085 C 
ATOM     22  HN  UNL     1       4.957  -6.558  21.123  1.00  0.00     0.203 HD
ENDBRANCH  19  20
ENDBRANCH   1  19
TORSDOF 7
ENDMDL
MODEL 4
REMARK VINA RESULT:    -4.922      4.217      6.906
REMARK INTER + INTRA:          -7.402
REMARK INTER:                  -6.870
REMARK INTRA:                  -0.531
REMARK UNBOUND:                -0.466
REMARK  7 active torsions:
REMARK  status: ('A' for Active; 'I' for Inactive)
REMARK    1  A    between atoms: C_2  and  N_3 
REMARK    2  A    between atoms: N_3  and  C_5 
REMARK    3  A    between atoms: N_6  and  C_13 
REMARK    4  A    between atoms: C_8  and  O_9 
REMARK    5  A    between atoms: O_9  and  N_10 
REMARK    6  A    between atoms: C_13  and  C_14 
REMARK    7  A    between atoms: N_15  and  C_17 
ROOT
HETATM    1  C   UNL     1       6.658  -4.111  23.935  1.00  0.00     0.199 C 
HETATM    2  C   UNL     1       7.865  -3.712  24.384  1.00  0.00     0.073 C 
ENDROOT
BRANCH   2   3
HETATM    3  N   UNL     1       7.846  -4.399  25.452  1.00  0.00    -0.350 N 
HETATM    4  C   UNL     1       8.477  -5.188  26.182  1.00  0.00     0.177 C 
ATOM      5  HN  UNL     1       6.941  -4.238  25.896  1.00  0.00     0.166 HD
BRANCH   4   6
HETATM    6  N   UNL     1       8.005  -5.902  27.061  1.00  0.00    -0.373 N 
ATOM      7  HN  UNL     1       8.545  -6.706  27.381  1.00  0.00     0.161 HD
BRANCH   6   8
HETATM    8  C   UNL     1       6.722  -5.652  27.656  1.00  0.00     0.235 C 
HETATM    9 CL   UNL     1       5.475  -6.517  26.710  1.00  0.00    -0.109 Cl
ENDBRANCH   6   8
ENDBRANCH   4   6
ENDBRANCH   2   3
BRANCH   2  10
HETATM   10  C   UNL     1       8.973  -2.840  23.850  1.00  0.00     0.120 C 
HETATM   11  N   UNL     1       9.141  -1.686  24.399  1.00  0.00    -0.357 N 
ATOM     12  HN  UNL     1       8.499  -1.479  25.164  1.00  0.00     0.166 HD
BRANCH  11  13
HETATM   13  C   UNL     1      10.009  -0.731  24.131  1.00  0.00     0.090 A 
HETATM   14  S   UNL     1      10.388  -0.199  22.519  1.00  0.00    -0.066 SA
HETATM   15  C   UNL     1      11.188   1.133  23.238  1.00  0.00     0.140 A 
HETATM   16  N   UNL     1      11.290   1.116  24.545  1.00  0.00    -0.367 N 
HETATM   17  C   UNL     1      10.620   0.082  25.058  1.00  0.00     0.125 A 
ATOM     18  HN  UNL     1      11.810   1.799  25.094  1.00  0.00     0.165 HD
ENDBRANCH  11  13
ENDBRANCH   2  10
BRANCH   1  19
HETATM   19  O   UNL     1       6.635  -5.201  23.157  1.00  0.00    -0.242 OA
BRANCH  19  20
HETATM   20  N   UNL     1       7.510  -5.553  22.187  1.00  0.00    -0.240 N 
HETATM   21  C   UNL     1       6.731  -5.971  21.508  1.00  0.00     0.085 C 
ATOM     22  HN  UNL     1       8.524  -5.467  22.107  1.00  0.00     0.203 HD
ENDBRANCH  19  20
ENDBRANCH   1  19
TORSDOF 7
ENDMDL
MODEL 5
REMARK VINA RESULT:    -4.867      3.428      5.948
REMARK INTER + INTRA:          -7.325
REMARK INTER:                  -6.807
REMARK INTRA:                  -0.517
REMARK UNBOUND:                -0.466
REMARK  7 active torsions:
REMARK  status: ('A' for Active; 'I' for Inactive)
REMARK    1  A    between atoms: C_2  and  N_3 
REMARK    2  A    between atoms: N_3  and  C_5 
REMARK    3  A    between atoms: N_6  and  C_13 
REMARK    4  A    between atoms: C_8  and  O_9 
REMARK    5  A    between atoms: O_9  and  N_10 
REMARK    6  A    between atoms: C_13  and  C_14 
REMARK    7  A    between atoms: N_15  and  C_17 
ROOT
HETATM    1  C   UNL     1       6.890  -0.362  21.396  1.00  0.00     0.199 C 
HETATM    2  C   UNL     1       7.815  -1.274  21.761  1.00  0.00     0.073 C 
ENDROOT
BRANCH   2   3
HETATM    3  N   UNL     1       6.995  -2.220  21.972  1.00  0.00    -0.350 N 
HETATM    4  C   UNL     1       6.591  -3.073  22.788  1.00  0.00     0.177 C 
ATOM      5  HN  UNL     1       6.435  -2.326  21.126  1.00  0.00     0.166 HD
BRANCH   4   6
HETATM    6  N   UNL     1       5.914  -4.063  22.530  1.00  0.00    -0.373 N 
ATOM      7  HN  UNL     1       5.119  -4.282  23.132  1.00  0.00     0.161 HD
BRANCH   6   8
HETATM    8  C   UNL     1       6.195  -4.925  21.416  1.00  0.00     0.235 C 
HETATM    9 CL   UNL     1       7.398  -6.146  21.928  1.00  0.00    -0.109 Cl
ENDBRANCH   6   8
ENDBRANCH   4   6
ENDBRANCH   2   3
BRANCH   2  10
HETATM   10  C   UNL     1       9.320  -1.303  21.838  1.00  0.00     0.120 C 
HETATM   11  N   UNL     1       9.872  -0.811  22.894  1.00  0.00    -0.357 N 
ATOM     12  HN  UNL     1       9.220  -0.453  23.591  1.00  0.00     0.166 HD
BRANCH  11  13
HETATM   13  C   UNL     1      11.145  -0.697  23.217  1.00  0.00     0.090 A 
HETATM   14  S   UNL     1      11.764   0.537  24.274  1.00  0.00    -0.066 SA
HETATM   15  C   UNL     1      13.225  -0.354  24.320  1.00  0.00     0.140 A 
HETATM   16  N   UNL     1      13.302  -1.390  23.521  1.00  0.00    -0.367 N 
HETATM   17  C   UNL     1      12.136  -1.601  22.906  1.00  0.00     0.125 A 
ATOM     18  HN  UNL     1      14.138  -1.957  23.386  1.00  0.00     0.165 HD
ENDBRANCH  11  13
ENDBRANCH   2  10
BRANCH   1  19
HETATM   19  O   UNL     1       6.586  -0.302  20.093  1.00  0.00    -0.242 OA
BRANCH  19  20
HETATM   20  N   UNL     1       7.316   0.237  19.089  1.00  0.00    -0.240 N 
HETATM   21  C   UNL     1       6.432   0.616  18.526  1.00  0.00     0.085 C 
ATOM     22  HN  UNL     1       8.320   0.282  18.911  1.00  0.00     0.203 HD
ENDBRANCH  19  20
ENDBRANCH   1  19
TORSDOF 7
ENDMDL
MODEL 6
REMARK VINA RESULT:    -4.837      2.660      3.147
REMARK INTER + INTRA:          -7.283
REMARK INTER:                  -6.822
REMARK INTRA:                  -0.461
REMARK UNBOUND:                -0.466
REMARK  7 active torsions:
REMARK  status: ('A' for Active; 'I' for Inactive)
REMARK    1  A    between atoms: C_2  and  N_3 
REMARK    2  A    between atoms: N_3  and  C_5 
REMARK    3  A    between atoms: N_6  and  C_13 
REMARK    4  A    between atoms: C_8  and  O_9 
REMARK    5  A    between atoms: O_9  and  N_10 
REMARK    6  A    between atoms: C_13  and  C_14 
REMARK    7  A    between atoms: N_15  and  C_17 
ROOT
HETATM    1  C   UNL     1       8.213  -0.068  19.891  1.00  0.00     0.199 C 
HETATM    2  C   UNL     1       8.123  -0.076  21.237  1.00  0.00     0.073 C 
ENDROOT
BRANCH   2   3
HETATM    3  N   UNL     1       8.952   0.866  21.432  1.00  0.00    -0.350 N 
HETATM    4  C   UNL     1      10.105   1.165  21.801  1.00  0.00     0.177 C 
ATOM      5  HN  UNL     1       8.480   1.736  21.186  1.00  0.00     0.166 HD
BRANCH   4   6
HETATM    6  N   UNL     1      10.495   2.279  22.138  1.00  0.00    -0.373 N 
ATOM      7  HN  UNL     1      10.479   3.032  21.450  1.00  0.00     0.161 HD
BRANCH   6   8
HETATM    8  C   UNL     1      10.973   2.564  23.462  1.00  0.00     0.235 C 
HETATM    9 CL   UNL     1      11.867   1.139  24.066  1.00  0.00    -0.109 Cl
ENDBRANCH   6   8
ENDBRANCH   4   6
ENDBRANCH   2   3
BRANCH   2  10
HETATM   10  C   UNL     1       7.299  -0.825  22.252  1.00  0.00     0.120 C 
HETATM   11  N   UNL     1       7.588  -2.064  22.458  1.00  0.00    -0.357 N 
ATOM     12  HN  UNL     1       8.371  -2.418  21.909  1.00  0.00     0.166 HD
BRANCH  11  13
HETATM   13  C   UNL     1       7.035  -2.947  23.266  1.00  0.00     0.090 A 
HETATM   14  S   UNL     1       7.825  -4.407  23.783  1.00  0.00    -0.066 SA
HETATM   15  C   UNL     1       6.574  -4.573  24.940  1.00  0.00     0.140 A 
HETATM   16  N   UNL     1       5.589  -3.713  24.862  1.00  0.00    -0.367 N 
HETATM   17  C   UNL     1       5.843  -2.786  23.935  1.00  0.00     0.125 A 
ATOM     18  HN  UNL     1       4.744  -3.746  25.431  1.00  0.00     0.165 HD
ENDBRANCH  11  13
ENDBRANCH   2  10
BRANCH   1  19
HETATM   19  O   UNL     1       7.360   0.730  19.235  1.00  0.00    -0.242 OA
BRANCH  19  20
HETATM   20  N   UNL     1       6.885   0.589  17.976  1.00  0.00    -0.240 N 
HETATM   21  C   UNL     1       5.870   0.258  18.298  1.00  0.00     0.085 C 
ATOM     22  HN  UNL     1       7.306   0.735  17.058  1.00  0.00     0.203 HD
ENDBRANCH  19  20
ENDBRANCH   1  19
TORSDOF 7
ENDMDL
MODEL 7
REMARK VINA RESULT:    -4.760     15.487     16.845
REMARK INTER + INTRA:          -7.174
REMARK INTER:                  -6.740
REMARK INTRA:                  -0.433
REMARK UNBOUND:                -0.466
REMARK  7 active torsions:
REMARK  status: ('A' for Active; 'I' for Inactive)
REMARK    1  A    between atoms: C_2  and  N_3 
REMARK    2  A    between atoms: N_3  and  C_5 
REMARK    3  A    between atoms: N_6  and  C_13 
REMARK    4  A    between atoms: C_8  and  O_9 
REMARK    5  A    between atoms: O_9  and  N_10 
REMARK    6  A    between atoms: C_13  and  C_14 
REMARK    7  A    between atoms: N_15  and  C_17 
ROOT
HETATM    1  C   UNL     1      25.107  -4.914  22.057  1.00  0.00     0.199 C 
HETATM    2  C   UNL     1      24.737  -5.189  20.789  1.00  0.00     0.073 C 
ENDROOT
BRANCH   2   3
HETATM    3  N   UNL     1      24.684  -6.449  20.934  1.00  0.00    -0.350 N 
HETATM    4  C   UNL     1      25.063  -7.554  20.497  1.00  0.00     0.177 C 
ATOM      5  HN  UNL     1      24.086  -6.633  21.739  1.00  0.00     0.166 HD
BRANCH   4   6
HETATM    6  N   UNL     1      24.560  -8.645  20.746  1.00  0.00    -0.373 N 
ATOM      7  HN  UNL     1      23.613  -8.673  21.126  1.00  0.00     0.161 HD
BRANCH   6   8
HETATM    8  C   UNL     1      25.250  -9.885  20.522  1.00  0.00     0.235 C 
HETATM    9 CL   UNL     1      26.843  -9.806  21.330  1.00  0.00    -0.109 Cl
ENDBRANCH   6   8
ENDBRANCH   4   6
ENDBRANCH   2   3
BRANCH   2  10
HETATM   10  C   UNL     1      24.388  -4.369  19.573  1.00  0.00     0.120 C 
HETATM   11  N   UNL     1      24.204  -3.104  19.740  1.00  0.00    -0.357 N 
ATOM     12  HN  UNL     1      24.327  -2.776  20.697  1.00  0.00     0.166 HD
BRANCH  11  13
HETATM   13  C   UNL     1      23.884  -2.166  18.870  1.00  0.00     0.090 A 
HETATM   14  S   UNL     1      24.473  -2.128  17.234  1.00  0.00    -0.066 SA
HETATM   15  C   UNL     1      23.298  -0.920  16.930  1.00  0.00     0.140 A 
HETATM   16  N   UNL     1      22.629  -0.482  17.968  1.00  0.00    -0.367 N 
HETATM   17  C   UNL     1      22.939  -1.184  19.061  1.00  0.00     0.125 A 
ATOM     18  HN  UNL     1      21.962   0.288  17.945  1.00  0.00     0.165 HD
ENDBRANCH  11  13
ENDBRANCH   2  10
BRANCH   1  19
HETATM   19  O   UNL     1      24.123  -4.706  22.940  1.00  0.00    -0.242 OA
BRANCH  19  20
HETATM   20  N   UNL     1      23.979  -5.246  24.173  1.00  0.00    -0.240 N 
HETATM   21  C   UNL     1      23.833  -4.267  24.686  1.00  0.00     0.085 C 
ATOM     22  HN  UNL     1      23.996  -6.208  24.512  1.00  0.00     0.203 HD
ENDBRANCH  19  20
ENDBRANCH   1  19
TORSDOF 7
ENDMDL
MODEL 8
REMARK VINA RESULT:    -4.757      3.694      4.877
REMARK INTER + INTRA:          -7.170
REMARK INTER:                  -6.754
REMARK INTRA:                  -0.416
REMARK UNBOUND:                -0.466
REMARK  7 active torsions:
REMARK  status: ('A' for Active; 'I' for Inactive)
REMARK    1  A    between atoms: C_2  and  N_3 
REMARK    2  A    between atoms: N_3  and  C_5 
REMARK    3  A    between atoms: N_6  and  C_13 
REMARK    4  A    between atoms: C_8  and  O_9 
REMARK    5  A    between atoms: O_9  and  N_10 
REMARK    6  A    between atoms: C_13  and  C_14 
REMARK    7  A    between atoms: N_15  and  C_17 
ROOT
HETATM    1  C   UNL     1       8.250  -0.798  22.882  1.00  0.00     0.199 C 
HETATM    2  C   UNL     1       7.393  -1.830  23.024  1.00  0.00     0.073 C 
ENDROOT
BRANCH   2   3
HETATM    3  N   UNL     1       6.577  -1.451  22.128  1.00  0.00    -0.350 N 
HETATM    4  C   UNL     1       6.208  -1.588  20.945  1.00  0.00     0.177 C 
ATOM      5  HN  UNL     1       5.975  -0.744  22.550  1.00  0.00     0.166 HD
BRANCH   4   6
HETATM    6  N   UNL     1       5.511  -0.807  20.305  1.00  0.00    -0.373 N 
ATOM      7  HN  UNL     1       4.528  -1.038  20.156  1.00  0.00     0.161 HD
BRANCH   6   8
HETATM    8  C   UNL     1       6.023   0.419  19.759  1.00  0.00     0.235 C 
HETATM    9 CL   UNL     1       5.752   0.414  17.991  1.00  0.00    -0.109 Cl
ENDBRANCH   6   8
ENDBRANCH   4   6
ENDBRANCH   2   3
BRANCH   2  10
HETATM   10  C   UNL     1       7.360  -3.090  23.851  1.00  0.00     0.120 C 
HETATM   11  N   UNL     1       7.445  -2.966  25.131  1.00  0.00    -0.357 N 
ATOM     12  HN  UNL     1       7.517  -2.004  25.464  1.00  0.00     0.166 HD
BRANCH  11  13
HETATM   13  C   UNL     1       7.453  -3.882  26.079  1.00  0.00     0.090 A 
HETATM   14  S   UNL     1       6.133  -4.138  27.182  1.00  0.00    -0.066 SA
HETATM   15  C   UNL     1       6.910  -5.594  27.639  1.00  0.00     0.140 A 
HETATM   16  N   UNL     1       8.099  -5.804  27.132  1.00  0.00    -0.367 N 
HETATM   17  C   UNL     1       8.410  -4.857  26.244  1.00  0.00     0.125 A 
ATOM     18  HN  UNL     1       8.706  -6.585  27.381  1.00  0.00     0.165 HD
ENDBRANCH  11  13
ENDBRANCH   2  10
BRANCH   1  19
HETATM   19  O   UNL     1       9.245  -0.958  22.001  1.00  0.00    -0.242 OA
BRANCH  19  20
HETATM   20  N   UNL     1      10.233  -1.883  22.015  1.00  0.00    -0.240 N 
HETATM   21  C   UNL     1      10.951  -1.242  22.577  1.00  0.00     0.085 C 
ATOM     22  HN  UNL     1      10.297  -2.831  21.642  1.00  0.00     0.203 HD
ENDBRANCH  19  20
ENDBRANCH   1  19
TORSDOF 7
ENDMDL
MODEL 9
REMARK VINA RESULT:    -4.721      2.891      3.472
REMARK INTER + INTRA:          -7.119
REMARK INTER:                  -6.563
REMARK INTRA:                  -0.556
REMARK UNBOUND:                -0.466
REMARK  7 active torsions:
REMARK  status: ('A' for Active; 'I' for Inactive)
REMARK    1  A    between atoms: C_2  and  N_3 
REMARK    2  A    between atoms: N_3  and  C_5 
REMARK    3  A    between atoms: N_6  and  C_13 
REMARK    4  A    between atoms: C_8  and  O_9 
REMARK    5  A    between atoms: O_9  and  N_10 
REMARK    6  A    between atoms: C_13  and  C_14 
REMARK    7  A    between atoms: N_15  and  C_17 
ROOT
HETATM    1  C   UNL     1       8.475  -2.152  22.288  1.00  0.00     0.199 C 
HETATM    2  C   UNL     1       8.874  -1.850  23.541  1.00  0.00     0.073 C 
ENDROOT
BRANCH   2   3
HETATM    3  N   UNL     1       9.484  -0.779  23.233  1.00  0.00    -0.350 N 
HETATM    4  C   UNL     1      10.379  -0.267  22.532  1.00  0.00     0.177 C 
ATOM      5  HN  UNL     1       9.070  -0.029  23.787  1.00  0.00     0.166 HD
BRANCH   4   6
HETATM    6  N   UNL     1      10.904   0.828  22.709  1.00  0.00    -0.373 N 
ATOM      7  HN  UNL     1      10.891   1.505  21.946  1.00  0.00     0.161 HD
BRANCH   6   8
HETATM    8  C   UNL     1      11.535   1.194  23.946  1.00  0.00     0.235 C 
HETATM    9 CL   UNL     1      12.789  -0.021  24.330  1.00  0.00    -0.109 Cl
ENDBRANCH   6   8
ENDBRANCH   4   6
ENDBRANCH   2   3
BRANCH   2  10
HETATM   10  C   UNL     1       8.654  -2.444  24.908  1.00  0.00     0.120 C 
HETATM   11  N   UNL     1       7.967  -3.532  24.982  1.00  0.00    -0.357 N 
ATOM     12  HN  UNL     1       7.643  -3.895  24.086  1.00  0.00     0.166 HD
BRANCH  11  13
HETATM   13  C   UNL     1       7.617  -4.251  26.030  1.00  0.00     0.090 A 
HETATM   14  S   UNL     1       6.034  -4.200  26.747  1.00  0.00    -0.066 SA
HETATM   15  C   UNL     1       6.483  -5.595  27.633  1.00  0.00     0.140 A 
HETATM   16  N   UNL     1       7.730  -5.982  27.518  1.00  0.00    -0.367 N 
HETATM   17  C   UNL     1       8.373  -5.244  26.611  1.00  0.00     0.125 A 
ATOM     18  HN  UNL     1       8.151  -6.743  28.050  1.00  0.00     0.165 HD
ENDBRANCH  11  13
ENDBRANCH   2  10
BRANCH   1  19
HETATM   19  O   UNL     1       7.290  -1.666  21.899  1.00  0.00    -0.242 OA
BRANCH  19  20
HETATM   20  N   UNL     1       6.062  -1.976  22.378  1.00  0.00    -0.240 N 
HETATM   21  C   UNL     1       5.935  -2.873  21.728  1.00  0.00     0.085 C 
ATOM     22  HN  UNL     1       5.466  -1.542  23.083  1.00  0.00     0.203 HD
ENDBRANCH  19  20
ENDBRANCH   1  19
TORSDOF 7
ENDMDL
