MODEL 1
REMARK VINA RESULT:    -7.960      0.000      0.000
REMARK INTER + INTRA:         -10.711
REMARK INTER:                  -9.821
REMARK INTRA:                  -0.890
REMARK UNBOUND:                -0.890
REMARK  4 active torsions:
REMARK  status: ('A' for Active; 'I' for Inactive)
REMARK    1  A    between atoms: S_2  and  N_5 
REMARK    2  A    between atoms: N_5  and  C_7 
REMARK    3  A    between atoms: C_15  and  C_16 
REMARK       I    between atoms: C_16  and  N_18 
REMARK    4  A    between atoms: N_18  and  C_20 
ROOT
HETATM    1  C   UNL     1       8.772   0.769  22.177  1.00  0.00     0.109 C 
HETATM    2  C   UNL     1       9.310  -0.009  23.015  1.00  0.00    -0.008 A 
HETATM    3  C   UNL     1      10.328  -0.573  23.495  1.00  0.00     0.057 A 
HETATM    4  C   UNL     1      11.520  -1.500  22.669  1.00  0.00    -0.007 C 
HETATM    5  C   UNL     1      12.476  -1.532  22.947  1.00  0.00    -0.025 C 
HETATM    6  C   UNL     1      13.229  -0.657  24.051  1.00  0.00     0.053 C 
HETATM    7  C   UNL     1      12.409   0.207  24.518  1.00  0.00    -0.025 C 
HETATM    8  C   UNL     1      11.353   0.442  24.406  1.00  0.00    -0.007 C 
HETATM    9  C   UNL     1       9.653  -1.195  24.263  1.00  0.00     0.040 A 
ENDROOT
BRANCH   9  10
HETATM   10  C   UNL     1       8.966  -1.955  25.149  1.00  0.00     0.254 C 
HETATM   11  O   UNL     1       8.684  -1.479  26.151  1.00  0.00    -0.268 OA
HETATM   12  N   UNL     1       8.756  -3.183  24.682  1.00  0.00    -0.321 N 
ATOM     13  HN  UNL     1       9.124  -3.454  23.770  1.00  0.00     0.169 HD
BRANCH  12  14
HETATM   14  C   UNL     1       8.093  -4.016  25.378  1.00  0.00     0.056 A 
HETATM   15  C   UNL     1       8.350  -4.853  26.331  1.00  0.00     0.117 A 
HETATM   16  N   UNL     1       7.969  -5.695  27.139  1.00  0.00    -0.373 N 
HETATM   17  C   UNL     1       6.681  -5.776  26.820  1.00  0.00     0.088 A 
ATOM     18  HN  UNL     1       8.495  -6.195  27.857  1.00  0.00     0.164 HD
HETATM   19  C   UNL     1       6.077  -5.040  25.907  1.00  0.00     0.026 A 
HETATM   20  C   UNL     1       6.534  -4.139  25.110  1.00  0.00    -0.033 A 
HETATM   21  C   UNL     1       5.812  -3.265  24.041  1.00  0.00     0.050 C 
ENDBRANCH  12  14
ENDBRANCH   9  10
BRANCH   1  22
HETATM   22  N   UNL     1       7.968   1.154  21.397  1.00  0.00    -0.295 N 
ATOM     23  HN  UNL     1       7.773   2.154  21.436  1.00  0.00     0.177 HD
BRANCH  22  24
HETATM   24  S   UNL     1       7.132   0.338  20.278  1.00  0.00     0.226 S 
HETATM   25  C   UNL     1       5.646   1.305  19.934  1.00  0.00     0.186 C 
HETATM   26  O   UNL     1       7.845   0.259  19.030  1.00  0.00    -0.206 OA
HETATM   27  O   UNL     1       6.677  -0.941  20.738  1.00  0.00    -0.206 OA
ENDBRANCH  22  24
ENDBRANCH   1  22
TORSDOF 4
ENDMDL
MODEL 2
REMARK VINA RESULT:    -7.819      2.642      5.991
REMARK INTER + INTRA:         -10.537
REMARK INTER:                  -9.827
REMARK INTRA:                  -0.710
REMARK UNBOUND:                -0.890
REMARK  4 active torsions:
REMARK  status: ('A' for Active; 'I' for Inactive)
REMARK    1  A    between atoms: S_2  and  N_5 
REMARK    2  A    between atoms: N_5  and  C_7 
REMARK    3  A    between atoms: C_15  and  C_16 
REMARK       I    between atoms: C_16  and  N_18 
REMARK    4  A    between atoms: N_18  and  C_20 
ROOT
HETATM    1  C   UNL     1       8.622  -3.495  23.771  1.00  0.00     0.109 C 
HETATM    2  C   UNL     1       8.978  -2.367  23.328  1.00  0.00    -0.008 A 
HETATM    3  C   UNL     1       9.651  -1.308  23.431  1.00  0.00     0.057 A 
HETATM    4  C   UNL     1       9.714  -0.212  24.757  1.00  0.00    -0.007 C 
HETATM    5  C   UNL     1      10.528   0.309  24.997  1.00  0.00    -0.025 C 
HETATM    6  C   UNL     1      12.008   0.185  24.407  1.00  0.00     0.053 C 
HETATM    7  C   UNL     1      12.038  -0.790  23.579  1.00  0.00    -0.025 C 
HETATM    8  C   UNL     1      11.324  -1.485  23.142  1.00  0.00    -0.007 C 
HETATM    9  C   UNL     1       9.154  -0.864  22.438  1.00  0.00     0.040 A 
ENDROOT
BRANCH   9  10
HETATM   10  C   UNL     1       8.626  -0.275  21.338  1.00  0.00     0.254 C 
HETATM   11  O   UNL     1       9.319   0.375  20.699  1.00  0.00    -0.268 OA
HETATM   12  N   UNL     1       7.331  -0.551  21.208  1.00  0.00    -0.321 N 
ATOM     13  HN  UNL     1       6.856  -1.120  21.908  1.00  0.00     0.169 HD
BRANCH  12  14
HETATM   14  C   UNL     1       6.690  -0.101  20.206  1.00  0.00     0.056 A 
HETATM   15  C   UNL     1       6.430  -0.503  19.004  1.00  0.00     0.117 A 
HETATM   16  N   UNL     1       5.883  -0.328  17.918  1.00  0.00    -0.373 N 
HETATM   17  C   UNL     1       5.348   0.875  18.104  1.00  0.00     0.088 A 
ATOM     18  HN  UNL     1       5.850  -0.937  17.100  1.00  0.00     0.164 HD
HETATM   19  C   UNL     1       5.399   1.563  19.228  1.00  0.00     0.026 A 
HETATM   20  C   UNL     1       5.964   1.302  20.354  1.00  0.00    -0.033 A 
HETATM   21  C   UNL     1       6.011   2.116  21.681  1.00  0.00     0.050 C 
ENDBRANCH  12  14
ENDBRANCH   9  10
BRANCH   1  22
HETATM   22  N   UNL     1       7.889  -4.387  24.037  1.00  0.00    -0.295 N 
ATOM     23  HN  UNL     1       7.957  -4.730  24.995  1.00  0.00     0.177 HD
BRANCH  22  24
HETATM   24  S   UNL     1       6.797  -5.146  23.115  1.00  0.00     0.226 S 
HETATM   25  C   UNL     1       5.966  -3.872  22.142  1.00  0.00     0.186 C 
HETATM   26  O   UNL     1       7.422  -6.024  22.160  1.00  0.00    -0.206 OA
HETATM   27  O   UNL     1       5.772  -5.796  23.878  1.00  0.00    -0.206 OA
ENDBRANCH  22  24
ENDBRANCH   1  22
TORSDOF 4
ENDMDL
MODEL 3
REMARK VINA RESULT:    -7.235      1.800      2.111
REMARK INTER + INTRA:          -9.816
REMARK INTER:                  -9.029
REMARK INTRA:                  -0.787
REMARK UNBOUND:                -0.890
REMARK  4 active torsions:
REMARK  status: ('A' for Active; 'I' for Inactive)
REMARK    1  A    between atoms: S_2  and  N_5 
REMARK    2  A    between atoms: N_5  and  C_7 
REMARK    3  A    between atoms: C_15  and  C_16 
REMARK       I    between atoms: C_16  and  N_18 
REMARK    4  A    between atoms: N_18  and  C_20 
ROOT
HETATM    1  C   UNL     1       6.830  -0.945  21.280  1.00  0.00     0.109 C 
HETATM    2  C   UNL     1       7.524  -1.495  22.180  1.00  0.00    -0.008 A 
HETATM    3  C   UNL     1       8.582  -1.574  22.858  1.00  0.00     0.057 A 
HETATM    4  C   UNL     1      10.204  -1.676  22.291  1.00  0.00    -0.007 C 
HETATM    5  C   UNL     1      10.980  -1.292  22.783  1.00  0.00    -0.025 C 
HETATM    6  C   UNL     1      10.982  -0.352  24.075  1.00  0.00     0.053 C 
HETATM    7  C   UNL     1       9.772  -0.071  24.378  1.00  0.00    -0.025 C 
HETATM    8  C   UNL     1       8.779  -0.353  24.033  1.00  0.00    -0.007 C 
HETATM    9  C   UNL     1       8.184  -2.555  23.414  1.00  0.00     0.040 A 
ENDROOT
BRANCH   9  10
HETATM   10  C   UNL     1       7.822  -3.682  24.075  1.00  0.00     0.254 C 
HETATM   11  O   UNL     1       7.959  -4.682  23.535  1.00  0.00    -0.268 OA
HETATM   12  N   UNL     1       7.327  -3.406  25.278  1.00  0.00    -0.321 N 
ATOM     13  HN  UNL     1       7.234  -2.437  25.584  1.00  0.00     0.169 HD
BRANCH  12  14
HETATM   14  C   UNL     1       6.970  -4.356  26.044  1.00  0.00     0.056 A 
HETATM   15  C   UNL     1       7.545  -5.130  26.907  1.00  0.00     0.117 A 
HETATM   16  N   UNL     1       7.481  -6.034  27.736  1.00  0.00    -0.373 N 
HETATM   17  C   UNL     1       6.197  -6.366  27.636  1.00  0.00     0.088 A 
ATOM     18  HN  UNL     1       8.210  -6.422  28.335  1.00  0.00     0.164 HD
HETATM   19  C   UNL     1       5.313  -5.761  26.867  1.00  0.00     0.026 A 
HETATM   20  C   UNL     1       5.442  -4.784  26.039  1.00  0.00    -0.033 A 
HETATM   21  C   UNL     1       4.390  -4.066  25.141  1.00  0.00     0.050 C 
ENDBRANCH  12  14
ENDBRANCH   9  10
BRANCH   1  22
HETATM   22  N   UNL     1       6.096  -0.871  20.352  1.00  0.00    -0.295 N 
ATOM     23  HN  UNL     1       5.258  -1.448  20.418  1.00  0.00     0.177 HD
BRANCH  22  24
HETATM   24  S   UNL     1       6.219   0.004  18.996  1.00  0.00     0.226 S 
HETATM   25  C   UNL     1       5.154   1.445  19.211  1.00  0.00     0.186 C 
HETATM   26  O   UNL     1       7.550   0.523  18.815  1.00  0.00    -0.206 OA
HETATM   27  O   UNL     1       5.730  -0.684  17.837  1.00  0.00    -0.206 OA
ENDBRANCH  22  24
ENDBRANCH   1  22
TORSDOF 4
ENDMDL
MODEL 4
REMARK VINA RESULT:    -7.138      3.529      7.528
REMARK INTER + INTRA:          -9.697
REMARK INTER:                  -8.891
REMARK INTRA:                  -0.806
REMARK UNBOUND:                -0.890
REMARK  4 active torsions:
REMARK  status: ('A' for Active; 'I' for Inactive)
REMARK    1  A    between atoms: S_2  and  N_5 
REMARK    2  A    between atoms: N_5  and  C_7 
REMARK    3  A    between atoms: C_15  and  C_16 
REMARK       I    between atoms: C_16  and  N_18 
REMARK    4  A    between atoms: N_18  and  C_20 
ROOT
HETATM    1  C   UNL     1       6.869  -5.664  26.572  1.00  0.00     0.109 C 
HETATM    2  C   UNL     1       6.927  -4.925  25.550  1.00  0.00    -0.008 A 
HETATM    3  C   UNL     1       6.847  -4.765  24.303  1.00  0.00     0.057 A 
HETATM    4  C   UNL     1       7.664  -5.637  23.064  1.00  0.00    -0.007 C 
HETATM    5  C   UNL     1       7.270  -5.807  22.165  1.00  0.00    -0.025 C 
HETATM    6  C   UNL     1       5.784  -5.523  21.652  1.00  0.00     0.053 C 
HETATM    7  C   UNL     1       5.089  -5.087  22.633  1.00  0.00    -0.025 C 
HETATM    8  C   UNL     1       5.263  -4.808  23.670  1.00  0.00    -0.007 C 
HETATM    9  C   UNL     1       7.169  -3.617  24.404  1.00  0.00     0.040 A 
ENDROOT
BRANCH   9  10
HETATM   10  C   UNL     1       7.549  -2.317  24.422  1.00  0.00     0.254 C 
HETATM   11  O   UNL     1       6.741  -1.531  24.621  1.00  0.00    -0.268 OA
HETATM   12  N   UNL     1       8.847  -2.182  24.169  1.00  0.00    -0.321 N 
ATOM     13  HN  UNL     1       9.418  -3.003  23.965  1.00  0.00     0.169 HD
BRANCH  12  14
HETATM   14  C   UNL     1       9.373  -1.024  24.182  1.00  0.00     0.056 A 
HETATM   15  C   UNL     1       9.906  -0.247  25.070  1.00  0.00     0.117 A 
HETATM   16  N   UNL     1      10.462   0.807  25.365  1.00  0.00    -0.373 N 
HETATM   17  C   UNL     1      10.462   1.423  24.187  1.00  0.00     0.088 A 
ATOM     18  HN  UNL     1      10.823   1.123  26.266  1.00  0.00     0.164 HD
HETATM   19  C   UNL     1      10.018   0.904  23.058  1.00  0.00     0.026 A 
HETATM   20  C   UNL     1       9.473  -0.235  22.809  1.00  0.00    -0.033 A 
HETATM   21  C   UNL     1       8.961  -0.846  21.470  1.00  0.00     0.050 C 
ENDBRANCH  12  14
ENDBRANCH   9  10
BRANCH   1  22
HETATM   22  N   UNL     1       7.182  -6.102  27.628  1.00  0.00    -0.295 N 
ATOM     23  HN  UNL     1       8.166  -6.354  27.716  1.00  0.00     0.177 HD
BRANCH  22  24
HETATM   24  S   UNL     1       6.288  -6.363  28.952  1.00  0.00     0.226 S 
HETATM   25  C   UNL     1       4.565  -6.124  28.468  1.00  0.00     0.186 C 
HETATM   26  O   UNL     1       6.384  -7.727  29.401  1.00  0.00    -0.206 OA
HETATM   27  O   UNL     1       6.544  -5.416  29.997  1.00  0.00    -0.206 OA
ENDBRANCH  22  24
ENDBRANCH   1  22
TORSDOF 4
ENDMDL
MODEL 5
REMARK VINA RESULT:    -6.936     13.817     16.397
REMARK INTER + INTRA:          -9.447
REMARK INTER:                  -8.644
REMARK INTRA:                  -0.804
REMARK UNBOUND:                -0.890
REMARK  4 active torsions:
REMARK  status: ('A' for Active; 'I' for Inactive)
REMARK    1  A    between atoms: S_2  and  N_5 
REMARK    2  A    between atoms: N_5  and  C_7 
REMARK    3  A    between atoms: C_15  and  C_16 
REMARK       I    between atoms: C_16  and  N_18 
REMARK    4  A    between atoms: N_18  and  C_20 
ROOT
HETATM    1  C   UNL     1      24.097  -3.928  24.357  1.00  0.00     0.109 C 
HETATM    2  C   UNL     1      23.740  -2.889  23.734  1.00  0.00    -0.008 A 
HETATM    3  C   UNL     1      23.067  -1.827  23.661  1.00  0.00     0.057 A 
HETATM    4  C   UNL     1      21.374  -1.622  23.898  1.00  0.00    -0.007 C 
HETATM    5  C   UNL     1      20.972  -0.793  24.275  1.00  0.00    -0.025 C 
HETATM    6  C   UNL     1      21.703   0.472  24.922  1.00  0.00     0.053 C 
HETATM    7  C   UNL     1      22.959   0.238  24.969  1.00  0.00    -0.025 C 
HETATM    8  C   UNL     1      23.636  -0.544  24.632  1.00  0.00    -0.007 C 
HETATM    9  C   UNL     1      23.443  -1.634  22.543  1.00  0.00     0.040 A 
ENDROOT
BRANCH   9  10
HETATM   10  C   UNL     1      23.799  -1.349  21.267  1.00  0.00     0.254 C 
HETATM   11  O   UNL     1      24.723  -0.691  21.108  1.00  0.00    -0.268 OA
HETATM   12  N   UNL     1      22.957  -1.888  20.391  1.00  0.00    -0.321 N 
ATOM     13  HN  UNL     1      22.147  -2.415  20.717  1.00  0.00     0.169 HD
BRANCH  12  14
HETATM   14  C   UNL     1      23.168  -1.743  19.145  1.00  0.00     0.056 A 
HETATM   15  C   UNL     1      22.889  -0.856  18.245  1.00  0.00     0.117 A 
HETATM   16  N   UNL     1      22.960  -0.457  17.086  1.00  0.00    -0.373 N 
HETATM   17  C   UNL     1      23.609  -1.469  16.518  1.00  0.00     0.088 A 
ATOM     18  HN  UNL     1      22.616   0.411  16.673  1.00  0.00     0.164 HD
HETATM   19  C   UNL     1      24.066  -2.530  17.153  1.00  0.00     0.026 A 
HETATM   20  C   UNL     1      23.988  -2.873  18.391  1.00  0.00    -0.033 A 
HETATM   21  C   UNL     1      24.541  -4.124  19.137  1.00  0.00     0.050 C 
ENDBRANCH  12  14
ENDBRANCH   9  10
BRANCH   1  22
HETATM   22  N   UNL     1      24.378  -5.067  24.519  1.00  0.00    -0.295 N 
ATOM     23  HN  UNL     1      24.678  -5.561  23.678  1.00  0.00     0.177 HD
BRANCH  22  24
HETATM   24  S   UNL     1      24.360  -5.961  25.868  1.00  0.00     0.226 S 
HETATM   25  C   UNL     1      26.055  -5.995  26.490  1.00  0.00     0.186 C 
HETATM   26  O   UNL     1      23.574  -5.346  26.906  1.00  0.00    -0.206 OA
HETATM   27  O   UNL     1      23.996  -7.327  25.632  1.00  0.00    -0.206 OA
ENDBRANCH  22  24
ENDBRANCH   1  22
TORSDOF 4
ENDMDL
MODEL 6
REMARK VINA RESULT:    -6.912      3.567      5.343
REMARK INTER + INTRA:          -9.418
REMARK INTER:                  -8.684
REMARK INTRA:                  -0.733
REMARK UNBOUND:                -0.890
REMARK  4 active torsions:
REMARK  status: ('A' for Active; 'I' for Inactive)
REMARK    1  A    between atoms: S_2  and  N_5 
REMARK    2  A    between atoms: N_5  and  C_7 
REMARK    3  A    between atoms: C_15  and  C_16 
REMARK       I    between atoms: C_16  and  N_18 
REMARK    4  A    between atoms: N_18  and  C_20 
ROOT
HETATM    1  C   UNL     1       8.594   1.937  21.714  1.00  0.00     0.109 C 
HETATM    2  C   UNL     1       7.892   0.962  21.327  1.00  0.00    -0.008 A 
HETATM    3  C   UNL     1       7.004   0.475  20.579  1.00  0.00     0.057 A 
HETATM    4  C   UNL     1       5.401   1.046  20.320  1.00  0.00    -0.007 C 
HETATM    5  C   UNL     1       4.918   0.946  19.454  1.00  0.00    -0.025 C 
HETATM    6  C   UNL     1       5.479   0.436  18.048  1.00  0.00     0.053 C 
HETATM    7  C   UNL     1       6.735   0.227  18.159  1.00  0.00    -0.025 C 
HETATM    8  C   UNL     1       7.477   0.242  18.955  1.00  0.00    -0.007 C 
HETATM    9  C   UNL     1       7.076  -0.581  21.135  1.00  0.00     0.040 A 
ENDROOT
BRANCH   9  10
HETATM   10  C   UNL     1       7.075  -1.802  21.723  1.00  0.00     0.254 C 
HETATM   11  O   UNL     1       8.076  -2.210  22.101  1.00  0.00    -0.268 OA
HETATM   12  N   UNL     1       5.860  -2.341  21.730  1.00  0.00    -0.321 N 
ATOM     13  HN  UNL     1       5.078  -1.847  21.300  1.00  0.00     0.169 HD
BRANCH  12  14
HETATM   14  C   UNL     1       5.678  -3.475  22.277  1.00  0.00     0.056 A 
HETATM   15  C   UNL     1       5.693  -4.712  21.895  1.00  0.00     0.117 A 
HETATM   16  N   UNL     1       5.588  -5.907  22.155  1.00  0.00    -0.373 N 
HETATM   17  C   UNL     1       5.275  -5.851  23.446  1.00  0.00     0.088 A 
ATOM     18  HN  UNL     1       5.708  -6.719  21.548  1.00  0.00     0.164 HD
HETATM   19  C   UNL     1       5.200  -4.745  24.161  1.00  0.00     0.026 A 
HETATM   20  C   UNL     1       5.359  -3.512  23.831  1.00  0.00    -0.033 A 
HETATM   21  C   UNL     1       5.279  -2.212  24.685  1.00  0.00     0.050 C 
ENDBRANCH  12  14
ENDBRANCH   9  10
BRANCH   1  22
HETATM   22  N   UNL     1       9.146   2.657  22.477  1.00  0.00    -0.295 N 
ATOM     23  HN  UNL     1       8.823   3.625  22.467  1.00  0.00     0.177 HD
BRANCH  22  24
HETATM   24  S   UNL     1      10.333   2.343  23.531  1.00  0.00     0.226 S 
HETATM   25  C   UNL     1      11.332   3.842  23.648  1.00  0.00     0.186 C 
HETATM   26  O   UNL     1       9.821   2.108  24.857  1.00  0.00    -0.206 OA
HETATM   27  O   UNL     1      11.219   1.307  23.088  1.00  0.00    -0.206 OA
ENDBRANCH  22  24
ENDBRANCH   1  22
TORSDOF 4
ENDMDL
MODEL 7
REMARK VINA RESULT:    -6.463     25.462     28.501
REMARK INTER + INTRA:          -8.864
REMARK INTER:                  -8.093
REMARK INTRA:                  -0.771
REMARK UNBOUND:                -0.890
REMARK  4 active torsions:
REMARK  status: ('A' for Active; 'I' for Inactive)
REMARK    1  A    between atoms: S_2  and  N_5 
REMARK    2  A    between atoms: N_5  and  C_7 
REMARK    3  A    between atoms: C_15  and  C_16 
REMARK       I    between atoms: C_16  and  N_18 
REMARK    4  A    between atoms: N_18  and  C_20 
ROOT
HETATM    1  C   UNL     1       8.467  14.699   2.448  1.00  0.00     0.109 C 
HETATM    2  C   UNL     1       8.701  15.936   2.535  1.00  0.00    -0.008 A 
HETATM    3  C   UNL     1       8.743  17.086   2.024  1.00  0.00     0.057 A 
HETATM    4  C   UNL     1       9.535  17.579   0.577  1.00  0.00    -0.007 C 
HETATM    5  C   UNL     1       9.196  18.307  -0.011  1.00  0.00    -0.025 C 
HETATM    6  C   UNL     1       7.805  19.090   0.064  1.00  0.00     0.053 C 
HETATM    7  C   UNL     1       7.096  18.576   0.996  1.00  0.00    -0.025 C 
HETATM    8  C   UNL     1       7.222  17.816   1.764  1.00  0.00    -0.007 C 
HETATM    9  C   UNL     1       9.202  17.546   3.028  1.00  0.00     0.040 A 
ENDROOT
BRANCH   9  10
HETATM   10  C   UNL     1       9.745  18.145   4.115  1.00  0.00     0.254 C 
HETATM   11  O   UNL     1       9.088  18.249   5.047  1.00  0.00    -0.268 OA
HETATM   12  N   UNL     1      10.991  18.545   3.882  1.00  0.00    -0.321 N 
ATOM     13  HN  UNL     1      11.410  18.409   2.962  1.00  0.00     0.169 HD
BRANCH  12  14
HETATM   14  C   UNL     1      11.658  19.099   4.813  1.00  0.00     0.056 A 
HETATM   15  C   UNL     1      12.305  18.706   5.863  1.00  0.00     0.117 A 
HETATM   16  N   UNL     1      12.995  18.962   6.846  1.00  0.00    -0.373 N 
HETATM   17  C   UNL     1      13.043  20.289   6.772  1.00  0.00     0.088 A 
ATOM     18  HN  UNL     1      13.415  18.331   7.529  1.00  0.00     0.164 HD
HETATM   19  C   UNL     1      12.511  21.016   5.809  1.00  0.00     0.026 A 
HETATM   20  C   UNL     1      11.822  20.677   4.777  1.00  0.00    -0.033 A 
HETATM   21  C   UNL     1      11.205  21.541   3.637  1.00  0.00     0.050 C 
ENDBRANCH  12  14
ENDBRANCH   9  10
BRANCH   1  22
HETATM   22  N   UNL     1       8.635  13.536   2.608  1.00  0.00    -0.295 N 
ATOM     23  HN  UNL     1       9.442  13.147   2.121  1.00  0.00     0.177 HD
BRANCH  22  24
HETATM   24  S   UNL     1       7.782  12.473   3.480  1.00  0.00     0.226 S 
HETATM   25  C   UNL     1       6.820  11.495   2.306  1.00  0.00     0.186 C 
HETATM   26  O   UNL     1       8.635  11.536   4.163  1.00  0.00    -0.206 OA
HETATM   27  O   UNL     1       6.831  13.095   4.353  1.00  0.00    -0.206 OA
ENDBRANCH  22  24
ENDBRANCH   1  22
TORSDOF 4
ENDMDL
MODEL 8
REMARK VINA RESULT:    -6.454      2.904      5.423
REMARK INTER + INTRA:          -8.853
REMARK INTER:                  -8.496
REMARK INTRA:                  -0.357
REMARK UNBOUND:                -0.890
REMARK  4 active torsions:
REMARK  status: ('A' for Active; 'I' for Inactive)
REMARK    1  A    between atoms: S_2  and  N_5 
REMARK    2  A    between atoms: N_5  and  C_7 
REMARK    3  A    between atoms: C_15  and  C_16 
REMARK       I    between atoms: C_16  and  N_18 
REMARK    4  A    between atoms: N_18  and  C_20 
ROOT
HETATM    1  C   UNL     1       9.071  -2.460  24.026  1.00  0.00     0.109 C 
HETATM    2  C   UNL     1       8.273  -3.385  24.348  1.00  0.00    -0.008 A 
HETATM    3  C   UNL     1       7.289  -4.127  24.091  1.00  0.00     0.057 A 
HETATM    4  C   UNL     1       5.709  -3.663  23.587  1.00  0.00    -0.007 C 
HETATM    5  C   UNL     1       5.143  -4.219  22.985  1.00  0.00    -0.025 C 
HETATM    6  C   UNL     1       5.534  -5.541  22.178  1.00  0.00     0.053 C 
HETATM    7  C   UNL     1       6.780  -5.774  22.354  1.00  0.00    -0.025 C 
HETATM    8  C   UNL     1       7.591  -5.355  22.945  1.00  0.00    -0.007 C 
HETATM    9  C   UNL     1       7.343  -4.621  25.179  1.00  0.00     0.040 A 
ENDROOT
BRANCH   9  10
HETATM   10  C   UNL     1       7.317  -5.217  26.395  1.00  0.00     0.254 C 
HETATM   11  O   UNL     1       8.238  -5.818  26.712  1.00  0.00    -0.268 OA
HETATM   12  N   UNL     1       6.161  -5.007  27.019  1.00  0.00    -0.321 N 
ATOM     13  HN  UNL     1       5.421  -4.476  26.560  1.00  0.00     0.169 HD
BRANCH  12  14
HETATM   14  C   UNL     1       5.985  -5.472  28.190  1.00  0.00     0.056 A 
HETATM   15  C   UNL     1       6.354  -6.525  28.844  1.00  0.00     0.117 A 
HETATM   16  N   UNL     1       6.366  -7.185  29.879  1.00  0.00    -0.373 N 
HETATM   17  C   UNL     1       5.586  -6.438  30.655  1.00  0.00     0.088 A 
ATOM     18  HN  UNL     1       6.841  -8.064  30.087  1.00  0.00     0.164 HD
HETATM   19  C   UNL     1       5.059  -5.279  30.310  1.00  0.00     0.026 A 
HETATM   20  C   UNL     1       5.117  -4.619  29.208  1.00  0.00    -0.033 A 
HETATM   21  C   UNL     1       4.501  -3.244  28.812  1.00  0.00     0.050 C 
ENDBRANCH  12  14
ENDBRANCH   9  10
BRANCH   1  22
HETATM   22  N   UNL     1       9.737  -1.490  24.161  1.00  0.00    -0.295 N 
ATOM     23  HN  UNL     1       9.500  -0.913  24.968  1.00  0.00     0.177 HD
BRANCH  22  24
HETATM   24  S   UNL     1      10.965  -0.938  23.263  1.00  0.00     0.226 S 
HETATM   25  C   UNL     1      12.104  -0.112  24.395  1.00  0.00     0.186 C 
HETATM   26  O   UNL     1      11.716  -2.013  22.667  1.00  0.00    -0.206 OA
HETATM   27  O   UNL     1      10.563   0.052  22.309  1.00  0.00    -0.206 OA
ENDBRANCH  22  24
ENDBRANCH   1  22
TORSDOF 4
ENDMDL
MODEL 9
REMARK VINA RESULT:    -6.348     21.562     24.267
REMARK INTER + INTRA:          -8.722
REMARK INTER:                  -8.030
REMARK INTRA:                  -0.692
REMARK UNBOUND:                -0.890
REMARK  4 active torsions:
REMARK  status: ('A' for Active; 'I' for Inactive)
REMARK    1  A    between atoms: S_2  and  N_5 
REMARK    2  A    between atoms: N_5  and  C_7 
REMARK    3  A    between atoms: C_15  and  C_16 
REMARK       I    between atoms: C_16  and  N_18 
REMARK    4  A    between atoms: N_18  and  C_20 
ROOT
HETATM    1  C   UNL     1       7.480  12.695   2.773  1.00  0.00     0.109 C 
HETATM    2  C   UNL     1       6.386  12.087   2.939  1.00  0.00    -0.008 A 
HETATM    3  C   UNL     1       5.153  12.093   3.193  1.00  0.00     0.057 A 
HETATM    4  C   UNL     1       4.346  12.809   4.536  1.00  0.00    -0.007 C 
HETATM    5  C   UNL     1       3.425  13.184   4.483  1.00  0.00    -0.025 C 
HETATM    6  C   UNL     1       2.509  13.415   3.195  1.00  0.00     0.053 C 
HETATM    7  C   UNL     1       3.182  13.105   2.153  1.00  0.00    -0.025 C 
HETATM    8  C   UNL     1       4.159  12.677   1.935  1.00  0.00    -0.007 C 
HETATM    9  C   UNL     1       5.114  10.898   3.165  1.00  0.00     0.040 A 
ENDROOT
BRANCH   9  10
HETATM   10  C   UNL     1       4.984   9.549   3.174  1.00  0.00     0.254 C 
HETATM   11  O   UNL     1       5.158   8.992   2.190  1.00  0.00    -0.268 OA
HETATM   12  N   UNL     1       4.637   9.099   4.376  1.00  0.00    -0.321 N 
ATOM     13  HN  UNL     1       4.477   9.754   5.142  1.00  0.00     0.169 HD
BRANCH  12  14
HETATM   14  C   UNL     1       4.505   7.848   4.566  1.00  0.00     0.056 A 
HETATM   15  C   UNL     1       5.289   6.819   4.598  1.00  0.00     0.117 A 
HETATM   16  N   UNL     1       5.455   5.613   4.758  1.00  0.00    -0.373 N 
HETATM   17  C   UNL     1       4.200   5.216   4.950  1.00  0.00     0.088 A 
ATOM     18  HN  UNL     1       6.317   5.067   4.746  1.00  0.00     0.164 HD
HETATM   19  C   UNL     1       3.152   6.013   5.006  1.00  0.00     0.026 A 
HETATM   20  C   UNL     1       3.051   7.288   4.864  1.00  0.00    -0.033 A 
HETATM   21  C   UNL     1       1.809   8.225   4.942  1.00  0.00     0.050 C 
ENDBRANCH  12  14
ENDBRANCH   9  10
BRANCH   1  22
HETATM   22  N   UNL     1       8.644  12.904   2.861  1.00  0.00    -0.295 N 
ATOM     23  HN  UNL     1       9.243  12.139   2.550  1.00  0.00     0.177 HD
BRANCH  22  24
HETATM   24  S   UNL     1       9.428  14.213   3.398  1.00  0.00     0.226 S 
HETATM   25  C   UNL     1       8.166  15.396   3.917  1.00  0.00     0.186 C 
HETATM   26  O   UNL     1      10.204  13.926   4.576  1.00  0.00    -0.206 OA
HETATM   27  O   UNL     1      10.191  14.869   2.377  1.00  0.00    -0.206 OA
ENDBRANCH  22  24
ENDBRANCH   1  22
TORSDOF 4
ENDMDL
