stable:False satoms:3 tatoms:24 sratio:0.125
  -OEChem-07092417443D

 24 25  0     1  0  0  0  0  0999 V2000
    6.5471   -4.7881   26.4566 C   0  0  0  0  0  0  0  0  0  0  0  0
    8.2772   -4.2727   26.1128 S   0  0  0  0  0  0  0  0  0  0  0  0
    9.0465   -5.4945   26.0904 O   0  0  0  0  0  0  0  0  0  0  0  0
    8.6480   -3.4119   27.1807 O   0  0  0  0  0  0  0  0  0  0  0  0
    8.1658   -3.5662   24.6659 N   0  0  0  0  0  0  0  0  0  0  0  0
    8.9654   -2.8958   24.1803 C   0  0  0  0  0  0  0  0  0  0  0  0
    9.4389   -1.9728   23.5758 C   0  0  0  0  0  0  0  0  0  0  0  0
   10.3221   -1.1060   23.2762 C   0  0  2  0  0  0  0  0  0  0  0  0
   11.0722   -0.0390   24.3535 C   0  0  0  0  0  0  0  0  0  0  0  0
   12.1174    0.2734   24.2615 C   0  0  0  0  0  0  0  0  0  0  0  0
   13.1050   -0.1747   23.4860 C   0  0  0  0  0  0  0  0  0  0  0  0
   12.7842   -1.2052   22.7120 C   0  0  0  0  0  0  0  0  0  0  0  0
   11.8674   -1.7560   22.5374 C   0  0  0  0  0  0  0  0  0  0  0  0
    9.6828   -0.6530   22.4043 C   0  0  2  0  0  0  0  0  0  0  0  0
    9.0266    0.0130   21.4052 C   0  0  0  0  0  0  0  0  0  0  0  0
    9.5669    0.9402   20.9842 O   0  0  0  0  0  0  0  0  0  0  0  0
    7.8652   -0.5487   21.0994 N   0  0  0  0  0  0  0  0  0  0  0  0
    7.1771   -0.0791   20.2017 C   0  0  0  0  0  0  0  0  0  0  0  0
    7.1303    0.0424   18.8821 C   0  0  0  0  0  0  0  0  0  0  0  0
    6.8077    0.2753   17.7749 N   0  0  0  0  0  0  0  0  0  0  0  0
    5.6305    0.8605   18.2198 C   0  0  0  0  0  0  0  0  0  0  0  0
    5.1614    1.0328   19.3557 C   0  0  0  0  0  0  0  0  0  0  0  0
    5.7315    0.6068   20.5485 C   0  0  0  0  0  0  0  0  0  0  0  0
    5.4466    0.6292   21.5316 C   0  0  0  0  0  0  0  0  0  0  0  0
 20 21  2  0  0  0  0
 19 20  1  0  0  0  0
 21 22  1  0  0  0  0
 18 19  2  0  0  0  0
 22 23  2  0  0  0  0
 18 23  1  0  0  0  0
 17 18  1  0  0  0  0
 23 24  1  0  0  0  0
 15 16  2  0  0  0  0
 15 17  1  0  0  0  0
 14 15  1  0  0  0  0
  8 14  1  0  0  0  0
  7 14  1  0  0  0  0
 12 13  2  0  0  0  0
 11 12  1  0  0  0  0
  7  8  1  0  0  0  0
  8  9  1  0  0  0  0
 10 11  1  0  0  0  0
  6  7  2  3  0  0  0
  5  6  1  0  0  0  0
  9 10  2  0  0  0  0
  2  5  1  0  0  0  0
  2  3  2  0  0  0  0
  1  2  1  0  0  0  0
  2  4  2  0  0  0  0
M  END
> <Shapegauss>
-287.398834

$$$$
