stable:False satoms:3 tatoms:24 sratio:0.125
  -OEChem-08062414263D

 45 46  0     1  0  0  0  0  0999 V2000
   -6.5633   -5.3521  -25.9466 C   0  0  0  0  0  0  0  0  0  0  0  0
   -8.2954   -4.7898  -25.7003 S   0  0  0  0  0  0  0  0  0  0  0  0
   -9.0805   -5.9966  -25.5879 O   0  0  0  0  0  0  0  0  0  0  0  0
   -8.6262   -4.0271  -26.8526 O   0  0  0  0  0  0  0  0  0  0  0  0
   -8.2144   -3.9545  -24.3216 N   0  0  0  0  0  0  0  0  0  0  0  0
   -9.0184   -3.2343  -23.9222 C   0  0  0  0  0  0  0  0  0  0  0  0
   -9.4964   -2.2549  -23.4183 C   0  0  0  0  0  0  0  0  0  0  0  0
  -10.3763   -1.3554  -23.2244 C   0  0  2  0  0  0  0  0  0  0  0  0
  -11.0834   -0.3844  -24.4155 C   0  0  0  0  0  0  0  0  0  0  0  0
  -12.1266   -0.0543  -24.3820 C   0  0  0  0  0  0  0  0  0  0  0  0
  -13.1405   -0.4192  -23.5969 C   0  0  0  0  0  0  0  0  0  0  0  0
  -12.8539   -1.3774  -22.7231 C   0  0  0  0  0  0  0  0  0  0  0  0
  -11.9492   -1.9191  -22.4730 C   0  0  0  0  0  0  0  0  0  0  0  0
   -9.7552   -0.8307  -22.3799 C   0  0  2  0  0  0  0  0  0  0  0  0
   -9.1180   -0.0824  -21.4279 C   0  0  0  0  0  0  0  0  0  0  0  0
   -9.6578    0.8850  -21.1089 O   0  0  0  0  0  0  0  0  0  0  0  0
   -7.9726   -0.6254  -21.0393 N   0  0  0  0  0  0  0  0  0  0  0  0
   -7.3032   -0.0822  -20.1694 C   0  0  0  0  0  0  0  0  0  0  0  0
   -7.2907    0.1595  -18.8656 C   0  0  0  0  0  0  0  0  0  0  0  0
   -6.9953    0.4898  -17.7758 N   0  0  0  0  0  0  0  0  0  0  0  0
   -5.7992    1.0198  -18.2390 C   0  0  0  0  0  0  0  0  0  0  0  0
   -5.2973    1.0822  -19.3722 C   0  0  0  0  0  0  0  0  0  0  0  0
   -5.8401    0.5542  -20.5366 C   0  0  0  0  0  0  0  0  0  0  0  0
   -5.5284    0.4833  -21.5092 C   0  0  0  0  0  0  0  0  0  0  0  0
   -6.4969   -5.9418  -26.8728 H   0  0  0  0  0  0  0  0  0  0  0  0
   -5.9009   -4.4770  -26.0209 H   0  0  0  0  0  0  0  0  0  0  0  0
   -6.2550   -5.9739  -25.0932 H   0  0  0  0  0  0  0  0  0  0  0  0
   -7.3824   -3.4048  -24.3958 H   0  0  0  0  0  0  0  0  0  0  0  0
   -9.9127   -3.7998  -24.1383 H   0  0  0  0  0  0  0  0  0  0  0  0
  -11.2459   -1.8483  -22.7651 H   0  0  0  0  0  0  0  0  0  0  0  0
  -10.4744   -0.0742  -25.2518 H   0  0  0  0  0  0  0  0  0  0  0  0
  -12.3788    0.6993  -25.1134 H   0  0  0  0  0  0  0  0  0  0  0  0
  -13.9589   -0.7762  -24.2394 H   0  0  0  0  0  0  0  0  0  0  0  0
  -13.4742    0.4662  -23.0359 H   0  0  0  0  0  0  0  0  0  0  0  0
  -13.7065   -1.6827  -22.1347 H   0  0  0  0  0  0  0  0  0  0  0  0
  -11.9683   -2.6757  -21.7025 H   0  0  0  0  0  0  0  0  0  0  0  0
  -11.0285   -1.7024  -22.9943 H   0  0  0  0  0  0  0  0  0  0  0  0
  -10.2250   -1.4569  -21.6071 H   0  0  0  0  0  0  0  0  0  0  0  0
   -7.6556   -1.4773  -21.4561 H   0  0  0  0  0  0  0  0  0  0  0  0
   -8.2679   -0.2388  -18.6357 H   0  0  0  0  0  0  0  0  0  0  0  0
   -5.1887    1.4622  -17.4657 H   0  0  0  0  0  0  0  0  0  0  0  0
   -4.3507    1.5946  -19.4614 H   0  0  0  0  0  0  0  0  0  0  0  0
   -4.9699   -0.4541  -21.6484 H   0  0  0  0  0  0  0  0  0  0  0  0
   -6.4032    0.4912  -22.1760 H   0  0  0  0  0  0  0  0  0  0  0  0
   -4.8772    1.3370  -21.7486 H   0  0  0  0  0  0  0  0  0  0  0  0
 20 21  2  0  0  0  0
 19 20  1  0  0  0  0
 21 22  1  0  0  0  0
 18 19  2  0  0  0  0
 22 23  2  0  0  0  0
 18 23  1  0  0  0  0
 17 18  1  0  0  0  0
 23 24  1  0  0  0  0
 15 16  2  0  0  0  0
 15 17  1  0  0  0  0
 14 15  1  0  0  0  0
  8 14  1  0  0  0  0
  7 14  1  0  0  0  0
 12 13  2  0  0  0  0
 11 12  1  0  0  0  0
  7  8  1  0  0  0  0
  8  9  1  0  0  0  0
 10 11  1  0  0  0  0
  6  7  2  3  0  0  0
  5  6  1  0  0  0  0
  9 10  2  0  0  0  0
  2  5  1  0  0  0  0
  2  3  2  0  0  0  0
  1  2  1  0  0  0  0
  2  4  2  0  0  0  0
  1 25  1  0  0  0  0
  1 26  1  0  0  0  0
  1 27  1  0  0  0  0
  5 28  1  0  0  0  0
  6 29  1  0  0  0  0
  8 30  1  0  0  0  0
  9 31  1  0  0  0  0
 10 32  1  0  0  0  0
 11 33  1  0  0  0  0
 11 34  1  0  0  0  0
 12 35  1  0  0  0  0
 13 36  1  0  0  0  0
 13 37  1  0  0  0  0
 14 38  1  0  0  0  0
 17 39  1  0  0  0  0
 19 40  1  0  0  0  0
 21 41  1  0  0  0  0
 22 42  1  0  0  0  0
 24 43  1  0  0  0  0
 24 44  1  0  0  0  0
 24 45  1  0  0  0  0
M  END
> <Chemgauss4>
-13.268623

$$$$
