stable:False satoms:3 tatoms:24 sratio:0.125
  -OEChem-08062414263D

 45 46  0     1  0  0  0  0  0999 V2000
    6.4525   -5.3432   25.8592 C   0  0  0  0  0  0  0  0  0  0  0  0
    8.1846   -4.7809   25.6129 S   0  0  0  0  0  0  0  0  0  0  0  0
    8.9697   -5.9876   25.5004 O   0  0  0  0  0  0  0  0  0  0  0  0
    8.5154   -4.0181   26.7652 O   0  0  0  0  0  0  0  0  0  0  0  0
    8.1036   -3.9456   24.2342 N   0  0  0  0  0  0  0  0  0  0  0  0
    8.9076   -3.2254   23.8348 C   0  0  0  0  0  0  0  0  0  0  0  0
    9.3856   -2.2460   23.3309 C   0  0  0  0  0  0  0  0  0  0  0  0
   10.2655   -1.3465   23.1369 C   0  0  2  0  0  0  0  0  0  0  0  0
   10.9726   -0.3754   24.3281 C   0  0  0  0  0  0  0  0  0  0  0  0
   12.0158   -0.0453   24.2946 C   0  0  0  0  0  0  0  0  0  0  0  0
   13.0297   -0.4103   23.5095 C   0  0  0  0  0  0  0  0  0  0  0  0
   12.7431   -1.3685   22.6356 C   0  0  0  0  0  0  0  0  0  0  0  0
   11.8384   -1.9102   22.3856 C   0  0  0  0  0  0  0  0  0  0  0  0
    9.6445   -0.8218   22.2925 C   0  0  2  0  0  0  0  0  0  0  0  0
    9.0072   -0.0735   21.3405 C   0  0  0  0  0  0  0  0  0  0  0  0
    9.5470    0.8939   21.0215 O   0  0  0  0  0  0  0  0  0  0  0  0
    7.8618   -0.6164   20.9519 N   0  0  0  0  0  0  0  0  0  0  0  0
    7.1924   -0.0733   20.0819 C   0  0  0  0  0  0  0  0  0  0  0  0
    7.1799    0.1684   18.7782 C   0  0  0  0  0  0  0  0  0  0  0  0
    6.8845    0.4988   17.6883 N   0  0  0  0  0  0  0  0  0  0  0  0
    5.6884    1.0287   18.1516 C   0  0  0  0  0  0  0  0  0  0  0  0
    5.1865    1.0912   19.2848 C   0  0  0  0  0  0  0  0  0  0  0  0
    5.7293    0.5632   20.4492 C   0  0  0  0  0  0  0  0  0  0  0  0
    5.4176    0.4923   21.4218 C   0  0  0  0  0  0  0  0  0  0  0  0
    6.3861   -5.9329   26.7854 H   0  0  0  0  0  0  0  0  0  0  0  0
    5.7901   -4.4681   25.9335 H   0  0  0  0  0  0  0  0  0  0  0  0
    6.1442   -5.9650   25.0058 H   0  0  0  0  0  0  0  0  0  0  0  0
    7.2716   -3.3959   24.3084 H   0  0  0  0  0  0  0  0  0  0  0  0
    9.8020   -3.7908   24.0509 H   0  0  0  0  0  0  0  0  0  0  0  0
   11.1351   -1.8394   22.6777 H   0  0  0  0  0  0  0  0  0  0  0  0
   10.3636   -0.0653   25.1644 H   0  0  0  0  0  0  0  0  0  0  0  0
   12.2680    0.7083   25.0259 H   0  0  0  0  0  0  0  0  0  0  0  0
   13.8481   -0.7673   24.1519 H   0  0  0  0  0  0  0  0  0  0  0  0
   13.3634    0.4751   22.9485 H   0  0  0  0  0  0  0  0  0  0  0  0
   13.5957   -1.6738   22.0472 H   0  0  0  0  0  0  0  0  0  0  0  0
   11.8575   -2.6667   21.6151 H   0  0  0  0  0  0  0  0  0  0  0  0
   10.9177   -1.6935   22.9068 H   0  0  0  0  0  0  0  0  0  0  0  0
   10.1142   -1.4480   21.5197 H   0  0  0  0  0  0  0  0  0  0  0  0
    7.5448   -1.4683   21.3687 H   0  0  0  0  0  0  0  0  0  0  0  0
    8.1571   -0.2299   18.5483 H   0  0  0  0  0  0  0  0  0  0  0  0
    5.0779    1.4711   17.3783 H   0  0  0  0  0  0  0  0  0  0  0  0
    4.2399    1.6035   19.3739 H   0  0  0  0  0  0  0  0  0  0  0  0
    4.8591   -0.4451   21.5610 H   0  0  0  0  0  0  0  0  0  0  0  0
    6.2924    0.5002   22.0886 H   0  0  0  0  0  0  0  0  0  0  0  0
    4.7664    1.3459   21.6611 H   0  0  0  0  0  0  0  0  0  0  0  0
 20 21  2  0  0  0  0
 19 20  1  0  0  0  0
 21 22  1  0  0  0  0
 18 19  2  0  0  0  0
 22 23  2  0  0  0  0
 18 23  1  0  0  0  0
 17 18  1  0  0  0  0
 23 24  1  0  0  0  0
 15 16  2  0  0  0  0
 15 17  1  0  0  0  0
 14 15  1  0  0  0  0
  8 14  1  0  0  0  0
  7 14  1  0  0  0  0
 12 13  2  0  0  0  0
 11 12  1  0  0  0  0
  7  8  1  0  0  0  0
  8  9  1  0  0  0  0
 10 11  1  0  0  0  0
  6  7  2  3  0  0  0
  5  6  1  0  0  0  0
  9 10  2  0  0  0  0
  2  5  1  0  0  0  0
  2  3  2  0  0  0  0
  1  2  1  0  0  0  0
  2  4  2  0  0  0  0
  1 25  1  0  0  0  0
  1 26  1  0  0  0  0
  1 27  1  0  0  0  0
  5 28  1  0  0  0  0
  6 29  1  0  0  0  0
  8 30  1  0  0  0  0
  9 31  1  0  0  0  0
 10 32  1  0  0  0  0
 11 33  1  0  0  0  0
 11 34  1  0  0  0  0
 12 35  1  0  0  0  0
 13 36  1  0  0  0  0
 13 37  1  0  0  0  0
 14 38  1  0  0  0  0
 17 39  1  0  0  0  0
 19 40  1  0  0  0  0
 21 41  1  0  0  0  0
 22 42  1  0  0  0  0
 24 43  1  0  0  0  0
 24 44  1  0  0  0  0
 24 45  1  0  0  0  0
M  END
> <Chemgauss4>
-12.952614

$$$$
