REMARK  10 active torsions:
REMARK  status: ('A' for Active; 'I' for Inactive)
REMARK    1  A    between atoms: S_2  and  N_5 
REMARK    2  A    between atoms: N_5  and  C_7 
REMARK    3  A    between atoms: C_7  and  C_8 
REMARK    4  A    between atoms: C_8  and  C_9 
REMARK    5  A    between atoms: C_9  and  C_15 
REMARK    6  A    between atoms: C_9  and  C_10 
REMARK    7  A    between atoms: C_10  and  C_11 
REMARK    8  A    between atoms: C_12  and  C_13 
REMARK    9  A    between atoms: C_15  and  C_16 
REMARK       I    between atoms: C_16  and  N_18 
REMARK   10  A    between atoms: N_18  and  C_20 
ROOT
HETATM    1  C   UNL     1      10.312  -1.047  23.257  1.00  0.00     0.096 C 
ENDROOT
BRANCH   1   2
HETATM    2  C   UNL     1       9.410  -1.963  23.524  1.00  0.00     0.125 C 
BRANCH   2   3
HETATM    3  C   UNL     1       8.914  -2.873  24.167  1.00  0.00    -0.059 C 
BRANCH   3   4
HETATM    4  N   UNL     1       8.118  -3.575  24.682  1.00  0.00    -0.254 N 
ATOM      5  HN  UNL     1       7.271  -3.743  24.139  1.00  0.00     0.188 HD
BRANCH   4   6
HETATM    6  S   UNL     1       8.169  -4.313  26.124  1.00  0.00     0.233 S 
HETATM    7  C   UNL     1       6.582  -4.823  26.481  1.00  0.00     0.186 C 
HETATM    8  O   UNL     1       9.034  -5.491  26.065  1.00  0.00    -0.206 OA
HETATM    9  O   UNL     1       8.590  -3.386  27.163  1.00  0.00    -0.206 OA
ENDBRANCH   4   6
ENDBRANCH   3   4
ENDBRANCH   2   3
ENDBRANCH   1   2
BRANCH   1  10
HETATM   10  C   UNL     1       9.708  -0.566  22.341  1.00  0.00    -0.074 C 
BRANCH  10  11
HETATM   11  C   UNL     1       9.034   0.061  21.388  1.00  0.00     0.289 C 
HETATM   12  O   UNL     1       9.544   0.991  20.974  1.00  0.00    -0.259 OA
HETATM   13  N   UNL     1       7.879  -0.534  21.138  1.00  0.00    -0.314 N 
ATOM     14  HN  UNL     1       7.563  -1.320  21.706  1.00  0.00     0.170 HD
BRANCH  13  15
HETATM   15  C   UNL     1       7.177  -0.106  20.180  1.00  0.00     0.072 A 
HETATM   16  C   UNL     1       7.245  -0.025  18.889  1.00  0.00     0.119 A 
HETATM   17  N   UNL     1       6.815   0.285  17.778  1.00  0.00    -0.373 N 
HETATM   18  C   UNL     1       5.719   0.828  18.237  1.00  0.00     0.089 A 
ATOM     19  HN  UNL     1       7.183   0.162  16.835  1.00  0.00     0.164 HD
HETATM   20  C   UNL     1       5.320   0.966  19.383  1.00  0.00     0.043 A 
HETATM   21  C   UNL     1       5.809   0.586  20.523  1.00  0.00     0.063 A 
HETATM   22 CL   UNL     1       5.279   0.711  21.993  1.00  0.00    -0.082 Cl
ENDBRANCH  13  15
ENDBRANCH  10  11
ENDBRANCH   1  10
BRANCH   1  23
HETATM   23  C   UNL     1      11.046  -0.093  24.266  1.00  0.00    -0.009 C 
BRANCH  23  24
HETATM   24  C   UNL     1      12.114   0.236  24.207  1.00  0.00    -0.003 C 
HETATM   25  C   UNL     1      13.167  -0.114  23.466  1.00  0.00    -0.001 C 
BRANCH  25  26
HETATM   26  C   UNL     1      12.735  -1.283  22.600  1.00  0.00    -0.010 C 
HETATM   27  C   UNL     1      11.864  -1.762  22.472  1.00  0.00     0.011 C 
ENDBRANCH  25  26
ENDBRANCH  23  24
ENDBRANCH   1  23
TORSDOF 10
