stable:False satoms:6 tatoms:24 sratio:0.25
  -OEChem-07092417473D

 24 24  0     1  0  0  0  0  0999 V2000
    6.5820   -4.8226   26.4809 C   0  0  0  0  0  0  0  0  0  0  0  0
    8.1688   -4.3126   26.1238 S   0  0  0  0  0  0  0  0  0  0  0  0
    9.0338   -5.4914   26.0652 O   0  0  0  0  0  0  0  0  0  0  0  0
    8.5901   -3.3861   27.1631 O   0  0  0  0  0  0  0  0  0  0  0  0
    8.1176   -3.5751   24.6818 N   0  0  0  0  0  0  0  0  0  0  0  0
    8.9144   -2.8729   24.1673 C   0  0  0  0  0  0  0  0  0  0  0  0
    9.4096   -1.9629   23.5236 C   0  0  0  0  0  0  0  0  0  0  0  0
   10.3123   -1.0471   23.2567 C   0  0  2  0  0  0  0  0  0  0  0  0
   11.0460   -0.0935   24.2656 C   0  0  0  0  0  0  0  0  0  0  0  0
   12.1139    0.2360   24.2075 C   0  0  0  0  0  0  0  0  0  0  0  0
   13.1672   -0.1141   23.4657 C   0  0  0  0  0  0  0  0  0  0  0  0
   12.7352   -1.2832   22.5997 C   0  0  0  0  0  0  0  0  0  0  0  0
   11.8640   -1.7615   22.4720 C   0  0  0  0  0  0  0  0  0  0  0  0
    9.7084   -0.5659   22.3415 C   0  0  0  0  0  0  0  0  0  0  0  0
    9.0342    0.0606   21.3883 C   0  0  0  0  0  0  0  0  0  0  0  0
    9.5440    0.9909   20.9737 O   0  0  0  0  0  0  0  0  0  0  0  0
    7.8788   -0.5340   21.1379 N   0  0  0  0  0  0  0  0  0  0  0  0
    7.1766   -0.1056   20.1799 C   0  0  0  0  0  0  0  0  0  0  0  0
    7.2452   -0.0247   18.8890 C   0  0  0  0  0  0  0  0  0  0  0  0
    6.8153    0.2851   17.7777 N   0  0  0  0  0  0  0  0  0  0  0  0
    5.7186    0.8284   18.2367 C   0  0  0  0  0  0  0  0  0  0  0  0
    5.3197    0.9655   19.3831 C   0  0  0  0  0  0  0  0  0  0  0  0
    5.8093    0.5855   20.5229 C   0  0  0  0  0  0  0  0  0  0  0  0
    5.2789    0.7112   21.9929 Cl  0  0  0  0  0  0  0  0  0  0  0  0
 20 21  2  0  0  0  0
 19 20  1  0  0  0  0
 21 22  1  0  0  0  0
 18 19  2  0  0  0  0
 22 23  2  0  0  0  0
 18 23  1  0  0  0  0
 17 18  1  0  0  0  0
 23 24  1  0  0  0  0
 15 16  2  0  0  0  0
 15 17  1  0  0  0  0
 14 15  1  0  0  0  0
  8 14  1  0  0  0  0
 12 13  2  0  0  0  0
 11 12  1  0  0  0  0
  7  8  1  0  0  0  0
  8  9  1  0  0  0  0
 10 11  1  0  0  0  0
  6  7  3  0  0  0  0
  5  6  1  0  0  0  0
  9 10  2  0  0  0  0
  2  5  1  0  0  0  0
  2  3  2  0  0  0  0
  1  2  1  0  0  0  0
  2  4  2  0  0  0  0
M  END
> <Shapegauss>
-285.364655

$$$$
