REMARK  10 active torsions:
REMARK  status: ('A' for Active; 'I' for Inactive)
REMARK    1  A    between atoms: S_2  and  N_5 
REMARK    2  A    between atoms: N_5  and  C_7 
REMARK    3  A    between atoms: C_8  and  C_9 
REMARK    4  A    between atoms: C_9  and  C_14 
REMARK    5  A    between atoms: C_9  and  C_13 
REMARK    6  A    between atoms: C_11  and  C_12 
REMARK    7  A    between atoms: C_12  and  C_13 
REMARK    8  A    between atoms: C_14  and  C_15 
REMARK       I    between atoms: C_15  and  N_17 
REMARK    9  A    between atoms: N_17  and  C_19 
REMARK   10  A    between atoms: C_19  and  C_20 
ROOT
HETATM    1  C   UNL     1       7.367  -0.277  18.661  1.00  0.00     0.263 C 
HETATM    2  N   UNL     1       6.418   0.393  18.001  1.00  0.00    -0.493 NA
HETATM    3  H   UNL     1       5.665   0.791  17.515  1.00  0.00     0.258 HD
ENDROOT
BRANCH   1   4
HETATM    4  C   UNL     1       7.096  -0.059  20.209  1.00  0.00     0.041 C 
HETATM    5  C   UNL     1       5.845   0.600  20.459  1.00  0.00     0.018 C 
HETATM    6  C   UNL     1       5.329   1.017  19.606  1.00  0.00     0.013 C 
BRANCH   4   7
HETATM    7  N   UNL     1       7.887  -0.457  21.110  1.00  0.00    -0.318 N 
HETATM    8  C   UNL     1       9.074   0.193  21.373  1.00  0.00     0.294 C 
HETATM    9  O   UNL     1       9.458   1.222  20.872  1.00  0.00    -0.258 OA
ATOM     10  HN  UNL     1       7.641  -1.282  21.658  1.00  0.00     0.169 HD
BRANCH   8  11
HETATM   11  C   UNL     1       9.810  -0.461  22.311  1.00  0.00    -0.035 C 
BRANCH  11  12
HETATM   12  C   UNL     1      10.299  -1.402  23.017  1.00  0.00     0.070 C 
BRANCH  12  13
HETATM   13  C   UNL     1       9.575  -2.216  23.745  1.00  0.00    -0.035 C 
HETATM   14  C   UNL     1       9.000  -2.941  24.298  1.00  0.00     0.026 C 
BRANCH  14  15
HETATM   15  N   UNL     1       8.121  -3.664  24.797  1.00  0.00    -0.243 N 
ATOM     16  HN  UNL     1       7.271  -3.830  24.259  1.00  0.00     0.189 HD
BRANCH  15  17
HETATM   17  S   UNL     1       8.249  -4.342  26.224  1.00  0.00     0.233 S 
HETATM   18  C   UNL     1       6.468  -4.947  26.469  1.00  0.00     0.186 C 
HETATM   19  O   UNL     1       9.135  -5.489  26.197  1.00  0.00    -0.205 OA
HETATM   20  O   UNL     1       8.532  -3.426  27.286  1.00  0.00    -0.205 OA
ENDBRANCH  15  17
ENDBRANCH  14  15
ENDBRANCH  12  13
BRANCH  12  21
HETATM   21  C   UNL     1      11.680  -1.621  22.717  1.00  0.00     0.030 C 
BRANCH  21  22
HETATM   22  C   UNL     1      12.763  -1.271  22.709  1.00  0.00     0.009 C 
BRANCH  22  23
HETATM   23  C   UNL     1      13.048  -0.137  23.567  1.00  0.00     0.040 C 
HETATM   24  C   UNL     1      12.107   0.191  24.114  1.00  0.00    -0.047 C 
ENDBRANCH  22  23
ENDBRANCH  21  22
ENDBRANCH  12  21
ENDBRANCH  11  12
ENDBRANCH   8  11
ENDBRANCH   4   7
ENDBRANCH   1   4
TORSDOF 10
