stable:False satoms:15 tatoms:24 sratio:0.625
  -OEChem-07092417323D

 24 23  0     0  0  0  0  0  0999 V2000
    7.3440   -2.0602   24.9533 H   0  0  0  0  0  0  0  0  0  0  0  0
    9.1009   -3.2862   25.1268 O   0  0  0  0  0  0  0  0  0  0  0  0
    9.3585   -2.9179   23.7953 S   0  0  0  0  0  0  0  0  0  0  0  0
    9.6729   -3.8722   22.8436 O   0  0  0  0  0  0  0  0  0  0  0  0
   10.1447   -0.1456   24.8494 H   0  0  0  0  0  0  0  0  0  0  0  0
    9.1776   -0.1196   23.3860 H   0  0  0  0  0  0  0  0  0  0  0  0
    5.8837   -0.8716   21.6243 C   0  0  0  0  0  0  0  0  0  0  0  0
   10.3972   -1.7777   23.7017 O   0  0  0  0  0  0  0  0  0  0  0  0
   10.6739   -1.3529   21.7215 H   0  0  0  0  0  0  0  0  0  0  0  0
   11.2120    1.2627   22.8817 H   0  0  0  0  0  0  0  0  0  0  0  0
   12.2387   -0.1010   23.3572 H   0  0  0  0  0  0  0  0  0  0  0  0
   11.2627    0.1773   22.9335 C   0  0  0  0  0  0  0  0  0  0  0  0
    9.3408   -1.6901   21.2258 O   0  0  0  0  0  0  0  0  0  0  0  0
    7.1235   -2.0645   23.8915 C   0  3  0  0  0  0  0  0  0  0  0  0
    6.1513   -2.3645   23.6122 H   0  0  0  0  0  0  0  0  0  0  0  0
   10.1399   -0.4013   23.7940 C   0  0  0  0  0  0  0  0  0  0  0  0
   11.0135   -0.3237   21.6255 O   0  0  0  0  0  0  0  0  0  0  0  0
    8.2024   -1.5633   21.7102 C   0  0  0  0  0  0  0  0  0  0  0  0
    7.0848   -0.9881   20.9732 C   0  0  0  0  0  0  0  0  0  0  0  0
    8.0143   -1.9377   22.9631 N   0  0  0  0  0  0  0  0  0  0  0  0
    6.8036   -0.7562   18.8415 H   0  0  0  0  0  0  0  0  0  0  0  0
    4.8514   -0.5061   21.8828 N   0  0  0  0  0  0  0  0  0  0  0  0
    7.0730   -0.3309   19.7833 C   0  0  0  0  0  0  0  0  0  0  0  0
    7.3187    0.7010   19.8193 H   0  0  0  0  0  0  0  0  0  0  0  0
 21 23  1  0  0  0  0
 23 24  1  0  0  0  0
 19 23  2  0  0  0  0
  7 19  1  0  0  0  0
 18 19  1  0  0  0  0
 13 18  2  0  0  0  0
  7 22  3  0  0  0  0
  9 17  1  0  0  0  0
 12 17  1  0  0  0  0
 18 20  1  0  0  0  0
  3  4  2  0  0  0  0
 10 12  1  0  0  0  0
 11 12  1  0  0  0  0
 12 16  1  0  0  0  0
  3 20  1  0  0  0  0
 14 20  1  0  0  0  0
  6 16  1  0  0  0  0
 14 15  1  0  0  0  0
  8 16  1  0  0  0  0
  3  8  1  0  0  0  0
  5 16  1  0  0  0  0
  2  3  2  0  0  0  0
  1 14  1  0  0  0  0
M  CHG  1  14   1
M  END
> <Shapegauss>
-124.758987

$$$$
