stable:False satoms:15 tatoms:24 sratio:0.625
  -OEChem-08052421123D

 23 22  0     0  0  0  0  0  0999 V2000
    9.9322    0.3906   24.8117 H   0  0  0  0  0  0  0  0  0  0  0  0
    7.3020    0.4902   24.8407 O   0  0  0  0  0  0  0  0  0  0  0  0
    7.8589   -0.4735   23.9828 S   0  0  0  0  0  0  0  0  0  0  0  0
    7.6125   -0.4382   22.6214 O   0  0  0  0  0  0  0  0  0  0  0  0
    8.0160   -2.3515   26.4042 H   0  0  0  0  0  0  0  0  0  0  0  0
    9.4298   -2.3838   25.3661 H   0  0  0  0  0  0  0  0  0  0  0  0
   12.4360   -0.5822   23.8710 C   0  0  0  0  0  0  0  0  0  0  0  0
    7.6026   -1.9120   24.4857 O   0  0  0  0  0  0  0  0  0  0  0  0
    8.4585   -3.1979   23.1471 H   0  0  0  0  0  0  0  0  0  0  0  0
    8.6911   -4.7735   25.5843 H   0  0  0  0  0  0  0  0  0  0  0  0
    7.0739   -4.3093   25.0283 H   0  0  0  0  0  0  0  0  0  0  0  0
    8.1445   -4.0655   24.9653 C   0  0  0  0  0  0  0  0  0  0  0  0
    9.5638   -2.3556   22.6939 O   0  0  0  0  0  0  0  0  0  0  0  0
    9.9322    0.3906   24.8117 C   0  0  0  0  0  2  0  0  0  0  0  0
    8.3753   -2.6235   25.4162 C   0  0  0  0  0  0  0  0  0  0  0  0
    8.6966   -4.1298   23.6557 O   0  0  0  0  0  0  0  0  0  0  0  0
   10.2888   -1.5286   23.2746 C   0  0  0  0  0  0  0  0  0  0  0  0
   11.7411   -1.5250   23.1580 C   0  0  0  0  0  0  0  0  0  0  0  0
    9.7102   -0.6371   24.0593 N   0  0  0  0  0  0  0  0  0  0  0  0
   13.0116   -2.4007   21.6427 H   0  0  0  0  0  0  0  0  0  0  0  0
   13.2856   -0.0740   24.4058 N   0  0  0  0  0  0  0  0  0  0  0  0
   12.5730   -2.4530   22.6150 C   0  0  0  0  0  0  0  0  0  0  0  0
   12.8265   -3.2728   23.2396 H   0  0  0  0  0  0  0  0  0  0  0  0
 20 22  1  0  0  0  0
 22 23  1  0  0  0  0
 18 22  2  0  0  0  0
  7 18  1  0  0  0  0
 17 18  1  0  0  0  0
 13 17  2  0  0  0  0
  7 21  3  0  0  0  0
  9 16  1  0  0  0  0
 12 16  1  0  0  0  0
 17 19  1  0  0  0  0
  3  4  2  0  0  0  0
 10 12  1  0  0  0  0
 11 12  1  0  0  0  0
 12 15  1  0  0  0  0
  3 19  1  0  0  0  0
 14 19  1  0  0  0  0
  6 15  1  0  0  0  0
  8 15  1  0  0  0  0
  3  8  1  0  0  0  0
  5 15  1  0  0  0  0
  2  3  2  0  0  0  0
  1 14  1  0  0  0  0
M  END
> <Chemgauss4>
-4.922857

$$$$
