stable:False satoms:15 tatoms:24 sratio:0.625
  -OEChem-08052421113D

 23 22  0     0  0  0  0  0  0999 V2000
   -9.6809    0.4215  -24.9784 H   0  0  0  0  0  0  0  0  0  0  0  0
   -7.0514    0.3053  -25.0074 O   0  0  0  0  0  0  0  0  0  0  0  0
   -7.6853   -0.6096  -24.1495 S   0  0  0  0  0  0  0  0  0  0  0  0
   -7.4369   -0.5945  -22.7881 O   0  0  0  0  0  0  0  0  0  0  0  0
   -7.9957   -2.4684  -26.5709 H   0  0  0  0  0  0  0  0  0  0  0  0
   -9.4074   -2.3848  -25.5328 H   0  0  0  0  0  0  0  0  0  0  0  0
  -12.2560   -0.3429  -24.0377 C   0  0  0  0  0  0  0  0  0  0  0  0
   -7.5477   -2.0642  -24.6524 O   0  0  0  0  0  0  0  0  0  0  0  0
   -8.5060   -3.2757  -23.3137 H   0  0  0  0  0  0  0  0  0  0  0  0
   -8.8670   -4.8269  -25.7510 H   0  0  0  0  0  0  0  0  0  0  0  0
   -7.2172   -4.4967  -25.1950 H   0  0  0  0  0  0  0  0  0  0  0  0
   -8.2642   -4.1660  -25.1319 C   0  0  0  0  0  0  0  0  0  0  0  0
   -9.5386   -2.3456  -22.8606 O   0  0  0  0  0  0  0  0  0  0  0  0
   -9.6809    0.4215  -24.9784 C   0  0  0  0  0  2  0  0  0  0  0  0
   -8.3761   -2.7100  -25.5829 C   0  0  0  0  0  0  0  0  0  0  0  0
   -8.8197   -4.1849  -23.8223 O   0  0  0  0  0  0  0  0  0  0  0  0
  -10.1934   -1.4621  -23.4413 C   0  0  0  0  0  0  0  0  0  0  0  0
  -11.6406   -1.3395  -23.3247 C   0  0  0  0  0  0  0  0  0  0  0  0
   -9.5438   -0.6209  -24.2260 N   0  0  0  0  0  0  0  0  0  0  0  0
  -12.9785   -2.1082  -21.8094 H   0  0  0  0  0  0  0  0  0  0  0  0
  -13.0611    0.2331  -24.5725 N   0  0  0  0  0  0  0  0  0  0  0  0
  -12.5457   -2.1962  -22.7817 C   0  0  0  0  0  0  0  0  0  0  0  0
  -12.8655   -2.9925  -23.4063 H   0  0  0  0  0  0  0  0  0  0  0  0
 20 22  1  0  0  0  0
 22 23  1  0  0  0  0
 18 22  2  0  0  0  0
  7 18  1  0  0  0  0
 17 18  1  0  0  0  0
 13 17  2  0  0  0  0
  7 21  3  0  0  0  0
  9 16  1  0  0  0  0
 12 16  1  0  0  0  0
 17 19  1  0  0  0  0
  3  4  2  0  0  0  0
 10 12  1  0  0  0  0
 11 12  1  0  0  0  0
 12 15  1  0  0  0  0
  3 19  1  0  0  0  0
 14 19  1  0  0  0  0
  6 15  1  0  0  0  0
  8 15  1  0  0  0  0
  3  8  1  0  0  0  0
  5 15  1  0  0  0  0
  2  3  2  0  0  0  0
  1 14  1  0  0  0  0
M  END
> <Chemgauss4>
-5.363544

$$$$
