stable:False satoms:19 tatoms:24 sratio:0.7916666666666666
  -OEChem-07092417363D

 24 24  0     1  0  0  0  0  0999 V2000
    7.0992   -3.8464   25.6639 H   0  0  0  0  0  0  0  0  0  0  0  0
    8.6314   -3.3909   26.4031 N   0  0  0  0  0  0  0  0  0  0  0  0
    7.9352   -4.3274   26.0148 O   0  0  0  0  0  0  0  0  0  0  0  0
    8.8872   -2.2897   25.7749 O   0  0  0  0  0  0  0  0  0  0  0  0
    8.0504   -2.8516   23.8275 F   0  0  0  0  0  0  0  0  0  0  0  0
    8.9760   -2.1427   24.4343 C   0  0  3  0  0  0  0  0  0  0  0  0
    9.5418   -1.9014   20.9210 H   0  0  0  0  0  0  0  0  0  0  0  0
    9.9357   -1.2215   23.8619 C   0  0  3  0  0  0  0  0  0  0  0  0
   11.3546   -0.1528   24.7960 H   0  0  0  0  0  0  0  0  0  0  0  0
   10.4991   -0.4959   24.8181 O   0  0  0  0  0  0  0  0  0  0  0  0
   12.3688   -0.5422   23.0871 H   0  0  0  0  0  0  0  0  0  0  0  0
   12.1645   -1.2423   21.4250 H   0  0  0  0  0  0  0  0  0  0  0  0
   11.6979   -0.9329   22.3445 C   0  0  0  0  0  0  0  0  0  0  0  0
   10.3754   -0.9995   22.5253 C   0  0  0  0  0  0  0  0  0  0  0  0
    9.5233   -0.8462   21.1996 C   0  0  0  0  0  0  0  0  0  0  0  0
   10.0861   -0.1087   20.6024 H   0  0  0  0  0  0  0  0  0  0  0  0
    8.0746   -0.4469   20.8940 C   0  0  0  0  0  0  0  0  0  0  0  0
    6.9904   -0.7953   22.0807 S   0  0  0  0  0  0  0  0  0  0  0  0
    7.4750    0.1130   19.7720 C   0  0  0  0  0  0  0  0  0  0  0  0
    7.9546    0.3415   18.8342 H   0  0  0  0  0  0  0  0  0  0  0  0
    5.4150    0.7275   19.2281 H   0  0  0  0  0  0  0  0  0  0  0  0
    6.0947    0.3250   19.9729 C   0  0  0  0  0  0  0  0  0  0  0  0
    4.7304   -0.1468   21.6019 H   0  0  0  0  0  0  0  0  0  0  0  0
    5.7227   -0.1161   21.2136 C   0  0  0  0  0  0  0  0  0  0  0  0
 19 20  1  0  0  0  0
 21 22  1  0  0  0  0
 19 22  1  0  0  0  0
 17 19  2  0  0  0  0
 22 24  2  0  0  0  0
 15 16  1  0  0  0  0
 15 17  1  0  0  0  0
 17 18  1  0  0  0  0
  7 15  1  0  0  0  0
 14 15  1  0  0  0  0
 23 24  1  0  0  0  0
 18 24  1  0  0  0  0
 12 13  1  0  0  0  0
 13 14  2  0  0  0  0
 11 13  1  0  0  0  0
  8 14  1  0  0  0  0
  5  6  1  0  0  0  0
  6  8  1  0  0  0  0
  8 10  1  0  0  0  0
  4  6  1  0  0  0  0
  9 10  1  0  0  0  0
  1  3  1  0  0  0  0
  2  4  1  0  0  0  0
  2  3  1  0  0  0  0
M  END
> <Shapegauss>
-153.714783

$$$$
