stable:False satoms:19 tatoms:24 sratio:0.7916666666666666
  -OEChem-08052423293D

 26 26  0     1  0  0  0  0  0999 V2000
   -6.6981    0.5779  -18.8565 N   0  0  0  0  0  0  0  0  0  0  0  0
   -7.5833    0.8870  -18.0606 O   0  5  0  0  0  0  0  0  0  0  0  0
   -6.8359    0.2830  -20.1082 O   0  0  0  0  0  0  0  0  0  0  0  0
   -9.0245    0.1538  -20.1489 F   0  0  0  0  0  0  0  0  0  0  0  0
   -7.9115   -0.3123  -20.6698 C   0  0  3  0  0  0  0  0  0  0  0  0
  -10.6231   -2.1965  -22.0186 H   0  0  0  0  0  0  0  0  0  0  0  0
   -7.7418   -1.2483  -21.7618 C   0  0  3  0  0  0  0  0  0  0  0  0
   -6.0370   -1.9644  -22.5421 H   0  0  0  0  0  0  0  0  0  0  0  0
   -6.4818   -1.2451  -22.1749 O   0  0  0  0  0  0  0  0  0  0  0  0
   -7.1676   -3.6318  -22.7471 H   0  0  0  0  0  0  0  0  0  0  0  0
   -8.8714   -4.2382  -22.5932 H   0  0  0  0  0  0  0  0  0  0  0  0
   -8.2022   -3.3950  -22.5809 C   0  0  0  0  0  0  0  0  0  0  0  0
   -8.6411   -2.1446  -22.4076 C   0  0  0  0  0  0  0  0  0  0  0  0
  -10.1126   -1.8870  -22.9324 C   0  0  0  0  0  0  0  0  0  0  0  0
  -10.1859   -2.5076  -23.8417 H   0  0  0  0  0  0  0  0  0  0  0  0
  -10.9018   -0.6396  -23.3481 C   0  0  0  0  0  0  0  0  0  0  0  0
  -10.4460    0.7540  -22.6029 S   0  0  0  0  0  0  0  0  0  0  0  0
  -11.9805   -0.4573  -24.2054 C   0  0  0  0  0  0  0  0  0  0  0  0
  -12.5176   -1.2275  -24.7345 H   0  0  0  0  0  0  0  0  0  0  0  0
  -13.1844    1.2803  -24.8749 H   0  0  0  0  0  0  0  0  0  0  0  0
  -12.3537    0.9008  -24.2880 C   0  0  0  0  0  0  0  0  0  0  0  0
  -11.6722    2.7035  -23.2763 H   0  0  0  0  0  0  0  0  0  0  0  0
  -11.5653    1.6601  -23.4669 C   0  0  0  0  0  0  0  0  0  0  0  0
   -6.2584   -0.2237  -18.4516 H   0  0  0  0  0  0  0  0  0  0  0  0
   -7.8770   -1.1284  -19.9330 H   0  0  0  0  0  0  0  0  0  0  0  0
   -7.9918   -0.4604  -22.4876 H   0  0  0  0  0  0  0  0  0  0  0  0
 18 19  1  0  0  0  0
 20 21  1  0  0  0  0
 18 21  1  0  0  0  0
 16 18  2  0  0  0  0
 21 23  2  0  0  0  0
 14 15  1  0  0  0  0
 14 16  1  0  0  0  0
 16 17  1  0  0  0  0
  6 14  1  0  0  0  0
 13 14  1  0  0  0  0
 22 23  1  0  0  0  0
 17 23  1  0  0  0  0
 11 12  1  0  0  0  0
 12 13  2  0  0  0  0
 10 12  1  0  0  0  0
  7 13  1  0  0  0  0
  4  5  1  0  0  0  0
  5  7  1  0  0  0  0
  7  9  1  0  0  0  0
  3  5  1  0  0  0  0
  8  9  1  0  0  0  0
  1  3  1  0  0  0  0
  1  2  1  0  0  0  0
  1 24  1  0  0  0  0
  5 25  1  0  0  0  0
  7 26  1  0  0  0  0
M  CHG  1   2  -1
M  END
> <Chemgauss4>
-7.230078

$$$$
