stable:False satoms:16 tatoms:24 sratio:0.6666666666666666
  -OEChem-07092417343D

 24 25  0     0  0  0  0  0  0999 V2000
    6.5356   -4.9470   26.2125 H   0  0  0  0  0  0  0  0  0  0  0  0
    7.4093   -4.2437   25.8609 C   0  0  0  0  0  0  0  0  0  0  0  0
    8.2900   -4.7359   25.2427 O   0  0  0  0  0  0  0  0  0  0  0  0
    7.6289   -3.7584   26.9010 H   0  0  0  0  0  0  0  0  0  0  0  0
    7.3415   -3.5621   24.8995 N   0  0  0  0  0  0  0  0  0  0  0  0
    8.5559   -3.4842   23.2681 H   0  0  0  0  0  0  0  0  0  0  0  0
    8.6355   -2.4174   22.9986 C   0  3  0  0  0  0  0  0  0  0  0  0
   12.3733   -0.9901   23.4230 N   0  0  0  0  0  0  0  0  0  0  0  0
   10.1311   -0.7318   22.9288 C   0  0  0  0  0  0  0  0  0  0  0  0
   12.9465    1.0418   23.3370 O   0  0  0  0  0  0  0  0  0  0  0  0
   11.8512    0.7588   22.8110 C   0  0  0  0  0  0  0  0  0  0  0  0
   13.3412   -0.1788   23.3933 N   0  0  0  0  0  0  0  0  0  0  0  0
   11.3484   -0.4030   22.9665 N   0  3  0  0  0  0  0  0  0  0  0  0
    9.6722   -1.8328   23.4374 N   0  0  0  0  0  0  0  0  0  0  0  0
    9.3649    0.1724   22.0306 C   0  0  0  0  0  0  0  0  0  0  0  0
    9.5837    1.2086   21.3108 O   0  0  0  0  0  0  0  0  0  0  0  0
    6.9402   -0.1470   20.2190 N   0  0  0  0  0  0  0  0  0  0  0  0
    7.8511   -1.9465   22.3265 H   0  0  0  0  0  0  0  0  0  0  0  0
    6.2216    0.2792   19.0467 C   0  0  0  0  0  0  0  0  0  0  0  0
    6.4314   -0.3874   18.2182 H   0  0  0  0  0  0  0  0  0  0  0  0
    6.4554    1.2874   18.7154 H   0  0  0  0  0  0  0  0  0  0  0  0
    5.1486    0.2881   19.2979 H   0  0  0  0  0  0  0  0  0  0  0  0
    7.1099    0.8272   20.9930 N   0  0  0  0  0  0  0  0  0  0  0  0
    8.4165    0.6123   21.4584 C   0  0  0  0  0  0  0  0  0  0  0  0
 19 20  1  0  0  0  0
 19 21  1  0  0  0  0
 19 22  1  0  0  0  0
 17 19  1  0  0  0  0
 17 23  2  3  0  0  0
 23 24  1  0  0  0  0
 16 24  1  0  0  0  0
 15 16  1  0  0  0  0
 15 24  2  0  0  0  0
  9 15  1  0  0  0  0
  7 18  1  0  0  0  0
 11 13  1  0  0  0  0
 10 11  1  0  0  0  0
  9 13  2  0  0  0  0
  9 14  1  0  0  0  0
  8 13  1  0  0  0  0
  6  7  1  0  0  0  0
  7 14  1  0  0  0  0
 10 12  1  0  0  0  0
  8 12  1  0  0  0  0
  3  5  1  0  0  0  0
  2  5  1  0  0  0  0
  2  3  1  0  0  0  0
  1  2  1  0  0  0  0
  2  4  1  0  0  0  0
M  CHG  2   7   1  13   1
M  END
> <Shapegauss>
-180.674927

$$$$
