MODEL 1
REMARK VINA RESULT:    -5.863      0.000      0.000
REMARK INTER + INTRA:          -6.206
REMARK INTER:                  -6.206
REMARK INTRA:                   0.000
REMARK UNBOUND:                 0.000
REMARK  2 active torsions:
REMARK  status: ('A' for Active; 'I' for Inactive)
REMARK    1  A    between atoms: O_4  and  S_15 
REMARK    2  A    between atoms: O_11  and  S_15 
ROOT
HETATM    1  C   UNL     1       7.047  -1.590  22.135  1.00  0.00     0.178 C 
HETATM    2  S   UNL     1       6.015  -2.735  22.594  1.00  0.00    -0.054 SA
HETATM    3  N   UNL     1       6.620  -0.434  21.657  1.00  0.00    -0.288 N 
HETATM    4  C   UNL     1      10.285   1.088  22.583  1.00  0.00    -0.038 C 
HETATM    5  C   UNL     1       8.586  -1.692  22.196  1.00  0.00     0.295 C 
HETATM    6  C   UNL     1      10.490  -0.207  21.910  1.00  0.00     0.156 C 
HETATM    7  H   UNL     1       5.904   0.093  21.236  1.00  0.00     0.178 HD
HETATM    8  C   UNL     1       9.179   1.877  22.023  1.00  0.00     0.174 C 
HETATM    9  C   UNL     1      11.062   1.502  23.630  1.00  0.00     0.006 C 
HETATM   10  N   UNL     1       9.115  -0.615  21.612  1.00  0.00    -0.245 N 
HETATM   11  S   UNL     1       7.853   0.810  21.387  1.00  0.00     0.054 SA
HETATM   12  C   UNL     1      11.364  -1.065  22.879  1.00  0.00     0.004 C 
HETATM   13  C   UNL     1      11.888   0.681  24.409  1.00  0.00     0.000 C 
HETATM   14  C   UNL     1      11.976  -0.644  24.040  1.00  0.00    -0.002 C 
HETATM   15  O   UNL     1       9.208  -2.598  22.749  1.00  0.00    -0.264 OA
ENDROOT
BRANCH  11  16
HETATM   16  O   UNL     1       7.944   0.650  19.890  1.00  0.00    -0.307 OA
ATOM     17  HO  UNL     1       8.746   0.140  19.880  1.00  0.00     0.230 HD
ENDBRANCH  11  16
BRANCH  11  18
HETATM   18  O   UNL     1       6.765   1.969  21.584  1.00  0.00    -0.307 OA
ATOM     19  HO  UNL     1       6.336   1.727  20.772  1.00  0.00     0.230 HD
ENDBRANCH  11  18
TORSDOF 2
ENDMDL
MODEL 2
REMARK VINA RESULT:    -5.847     21.106     22.753
REMARK INTER + INTRA:          -6.189
REMARK INTER:                  -6.189
REMARK INTRA:                   0.000
REMARK UNBOUND:                 0.000
REMARK  2 active torsions:
REMARK  status: ('A' for Active; 'I' for Inactive)
REMARK    1  A    between atoms: O_4  and  S_15 
REMARK    2  A    between atoms: O_11  and  S_15 
ROOT
HETATM    1  C   UNL     1       7.847  13.036   3.092  1.00  0.00     0.178 C 
HETATM    2  S   UNL     1       9.121  13.909   3.538  1.00  0.00    -0.054 SA
HETATM    3  N   UNL     1       7.683  12.652   1.838  1.00  0.00    -0.288 N 
HETATM    4  C   UNL     1       5.165   9.773   3.244  1.00  0.00    -0.038 C 
HETATM    5  C   UNL     1       6.715  12.556   4.027  1.00  0.00     0.295 C 
HETATM    6  C   UNL     1       4.817  11.042   3.908  1.00  0.00     0.156 C 
HETATM    7  H   UNL     1       7.886  12.777   0.883  1.00  0.00     0.178 HD
HETATM    8  C   UNL     1       5.537   9.928   1.831  1.00  0.00     0.174 C 
HETATM    9  C   UNL     1       5.137   8.571   3.897  1.00  0.00     0.006 C 
HETATM   10  N   UNL     1       5.765  11.976   3.294  1.00  0.00    -0.245 N 
HETATM   11  S   UNL     1       6.353  11.523   1.527  1.00  0.00     0.054 SA
HETATM   12  C   UNL     1       4.886  10.761   5.442  1.00  0.00     0.004 C 
HETATM   13  C   UNL     1       5.120   8.397   5.287  1.00  0.00     0.000 C 
HETATM   14  C   UNL     1       5.053   9.538   6.057  1.00  0.00    -0.002 C 
HETATM   15  O   UNL     1       6.732  12.651   5.254  1.00  0.00    -0.264 OA
ENDROOT
BRANCH  11  16
HETATM   16  O   UNL     1       5.392  12.533   0.951  1.00  0.00    -0.307 OA
ATOM     17  HO  UNL     1       4.594  12.087   1.207  1.00  0.00     0.230 HD
ENDBRANCH  11  16
BRANCH  11  18
HETATM   18  O   UNL     1       7.113  10.940   0.242  1.00  0.00    -0.307 OA
ATOM     19  HO  UNL     1       6.668  10.106   0.337  1.00  0.00     0.230 HD
ENDBRANCH  11  18
TORSDOF 2
ENDMDL
MODEL 3
REMARK VINA RESULT:    -5.646      2.210      3.214
REMARK INTER + INTRA:          -5.976
REMARK INTER:                  -5.976
REMARK INTRA:                   0.000
REMARK UNBOUND:                 0.000
REMARK  2 active torsions:
REMARK  status: ('A' for Active; 'I' for Inactive)
REMARK    1  A    between atoms: O_4  and  S_15 
REMARK    2  A    between atoms: O_11  and  S_15 
ROOT
HETATM    1  C   UNL     1       7.205   0.472  21.025  1.00  0.00     0.178 C 
HETATM    2  S   UNL     1       7.113   0.310  19.428  1.00  0.00    -0.054 SA
HETATM    3  N   UNL     1       6.358  -0.149  21.827  1.00  0.00    -0.288 N 
HETATM    4  C   UNL     1       9.085   0.380  24.808  1.00  0.00    -0.038 C 
HETATM    5  C   UNL     1       8.244   1.327  21.782  1.00  0.00     0.295 C 
HETATM    6  C   UNL     1       8.954   1.657  24.084  1.00  0.00     0.156 C 
HETATM    7  H   UNL     1       5.489  -0.592  21.958  1.00  0.00     0.178 HD
HETATM    8  C   UNL     1       7.816  -0.343  24.967  1.00  0.00     0.174 C 
HETATM    9  C   UNL     1      10.286  -0.075  25.283  1.00  0.00     0.006 C 
HETATM   10  N   UNL     1       7.937   1.332  23.080  1.00  0.00    -0.245 N 
HETATM   11  S   UNL     1       6.701  -0.051  23.563  1.00  0.00     0.054 SA
HETATM   12  C   UNL     1      10.396   2.048  23.632  1.00  0.00     0.004 C 
HETATM   13  C   UNL     1      11.548   0.385  24.885  1.00  0.00     0.000 C 
HETATM   14  C   UNL     1      11.576   1.432  23.990  1.00  0.00    -0.002 C 
HETATM   15  O   UNL     1       9.224   1.862  21.264  1.00  0.00    -0.264 OA
ENDROOT
BRANCH  11  16
HETATM   16  O   UNL     1       5.664   0.995  23.891  1.00  0.00    -0.307 OA
ATOM     17  HO  UNL     1       5.352   1.126  23.003  1.00  0.00     0.230 HD
ENDBRANCH  11  16
BRANCH  11  18
HETATM   18  O   UNL     1       5.942  -1.438  23.819  1.00  0.00    -0.307 OA
ATOM     19  HO  UNL     1       5.374  -1.028  24.461  1.00  0.00     0.230 HD
ENDBRANCH  11  18
TORSDOF 2
ENDMDL
MODEL 4
REMARK VINA RESULT:    -5.522     25.473     27.149
REMARK INTER + INTRA:          -5.845
REMARK INTER:                  -5.845
REMARK INTRA:                   0.000
REMARK UNBOUND:                 0.000
REMARK  2 active torsions:
REMARK  status: ('A' for Active; 'I' for Inactive)
REMARK    1  A    between atoms: O_4  and  S_15 
REMARK    2  A    between atoms: O_11  and  S_15 
ROOT
HETATM    1  C   UNL     1      10.735  16.543   4.478  1.00  0.00     0.178 C 
HETATM    2  S   UNL     1      10.922  15.019   4.954  1.00  0.00    -0.054 SA
HETATM    3  N   UNL     1      11.718  17.420   4.581  1.00  0.00    -0.288 N 
HETATM    4  C   UNL     1       9.778  19.647   1.774  1.00  0.00    -0.038 C 
HETATM    5  C   UNL     1       9.450  17.141   3.865  1.00  0.00     0.295 C 
HETATM    6  C   UNL     1       8.783  19.205   2.767  1.00  0.00     0.156 C 
HETATM    7  H   UNL     1      12.564  17.694   5.002  1.00  0.00     0.178 HD
HETATM    8  C   UNL     1      11.079  20.003   2.358  1.00  0.00     0.174 C 
HETATM    9  C   UNL     1       9.500  19.716   0.436  1.00  0.00     0.006 C 
HETATM   10  N   UNL     1       9.613  18.455   3.715  1.00  0.00    -0.245 N 
HETATM   11  S   UNL     1      11.447  19.001   3.828  1.00  0.00     0.054 SA
HETATM   12  C   UNL     1       7.665  18.470   1.962  1.00  0.00     0.004 C 
HETATM   13  C   UNL     1       8.424  19.089  -0.207  1.00  0.00     0.000 C 
HETATM   14  C   UNL     1       7.533  18.406   0.592  1.00  0.00    -0.002 C 
HETATM   15  O   UNL     1       8.466  16.486   3.523  1.00  0.00    -0.264 OA
ENDROOT
BRANCH  11  16
HETATM   16  O   UNL     1      11.140  19.754   5.100  1.00  0.00    -0.307 OA
ATOM     17  HO  UNL     1      10.660  19.056   5.530  1.00  0.00     0.230 HD
ENDBRANCH  11  16
BRANCH  11  18
HETATM   18  O   UNL     1      13.023  19.208   3.630  1.00  0.00    -0.307 OA
ATOM     19  HO  UNL     1      13.136  18.285   3.433  1.00  0.00     0.230 HD
ENDBRANCH  11  18
TORSDOF 2
ENDMDL
MODEL 5
REMARK VINA RESULT:    -5.459     23.878     25.694
REMARK INTER + INTRA:          -5.778
REMARK INTER:                  -5.778
REMARK INTRA:                   0.000
REMARK UNBOUND:                 0.000
REMARK  2 active torsions:
REMARK  status: ('A' for Active; 'I' for Inactive)
REMARK    1  A    between atoms: O_4  and  S_15 
REMARK    2  A    between atoms: O_11  and  S_15 
ROOT
HETATM    1  C   UNL     1       2.749 -21.109   8.207  1.00  0.00     0.178 C 
HETATM    2  S   UNL     1       3.605 -22.344   7.637  1.00  0.00    -0.054 SA
HETATM    3  N   UNL     1       3.320 -19.952   8.495  1.00  0.00    -0.288 N 
HETATM    4  C   UNL     1      -0.381 -18.268   8.226  1.00  0.00    -0.038 C 
HETATM    5  C   UNL     1       1.227 -21.117   8.473  1.00  0.00     0.295 C 
HETATM    6  C   UNL     1      -0.501 -19.500   9.027  1.00  0.00     0.156 C 
HETATM    7  H   UNL     1       4.133 -19.445   8.717  1.00  0.00     0.178 HD
HETATM    8  C   UNL     1       0.855 -17.515   8.483  1.00  0.00     0.174 C 
HETATM    9  C   UNL     1      -1.340 -17.877   7.332  1.00  0.00     0.006 C 
HETATM   10  N   UNL     1       0.885 -19.973   9.066  1.00  0.00    -0.245 N 
HETATM   11  S   UNL     1       2.232 -18.618   8.914  1.00  0.00     0.054 SA
HETATM   12  C   UNL     1      -1.599 -20.364   8.328  1.00  0.00     0.004 C 
HETATM   13  C   UNL     1      -2.349 -18.695   6.807  1.00  0.00     0.000 C 
HETATM   14  C   UNL     1      -2.420 -19.984   7.289  1.00  0.00    -0.002 C 
HETATM   15  O   UNL     1       0.461 -22.018   8.132  1.00  0.00    -0.264 OA
ENDROOT
BRANCH  11  16
HETATM   16  O   UNL     1       2.450 -18.672  10.406  1.00  0.00    -0.307 OA
ATOM     17  HO  UNL     1       1.655 -18.215  10.652  1.00  0.00     0.230 HD
ENDBRANCH  11  16
BRANCH  11  18
HETATM   18  O   UNL     1       3.308 -17.545   8.407  1.00  0.00    -0.307 OA
ATOM     19  HO  UNL     1       3.431 -18.026   7.597  1.00  0.00     0.230 HD
ENDBRANCH  11  18
TORSDOF 2
ENDMDL
MODEL 6
REMARK VINA RESULT:    -5.344      2.071      3.800
REMARK INTER + INTRA:          -5.656
REMARK INTER:                  -5.656
REMARK INTRA:                   0.000
REMARK UNBOUND:                 0.000
REMARK  2 active torsions:
REMARK  status: ('A' for Active; 'I' for Inactive)
REMARK    1  A    between atoms: O_4  and  S_15 
REMARK    2  A    between atoms: O_11  and  S_15 
ROOT
HETATM    1  C   UNL     1       8.107   0.314  20.797  1.00  0.00     0.178 C 
HETATM    2  S   UNL     1       7.221   0.300  19.455  1.00  0.00    -0.054 SA
HETATM    3  N   UNL     1       9.021  -0.613  21.025  1.00  0.00    -0.288 N 
HETATM    4  C   UNL     1      10.716   1.975  23.678  1.00  0.00    -0.038 C 
HETATM    5  C   UNL     1       8.010   1.363  21.926  1.00  0.00     0.295 C 
HETATM    6  C   UNL     1       9.262   1.965  23.921  1.00  0.00     0.156 C 
HETATM    7  H   UNL     1       9.373  -1.514  20.845  1.00  0.00     0.178 HD
HETATM    8  C   UNL     1      11.268   0.655  23.341  1.00  0.00     0.174 C 
HETATM    9  C   UNL     1      11.467   3.116  23.762  1.00  0.00     0.006 C 
HETATM   10  N   UNL     1       8.796   0.986  22.935  1.00  0.00    -0.245 N 
HETATM   11  S   UNL     1      10.065  -0.360  22.434  1.00  0.00     0.054 SA
HETATM   12  C   UNL     1       8.796   3.452  23.821  1.00  0.00     0.004 C 
HETATM   13  C   UNL     1      10.967   4.425  23.746  1.00  0.00     0.000 C 
HETATM   14  C   UNL     1       9.597   4.568  23.714  1.00  0.00    -0.002 C 
HETATM   15  O   UNL     1       7.353   2.401  21.865  1.00  0.00    -0.264 OA
ENDROOT
BRANCH  11  16
HETATM   16  O   UNL     1       9.376  -1.345  23.346  1.00  0.00    -0.307 OA
ATOM     17  HO  UNL     1       9.695  -0.982  24.164  1.00  0.00     0.230 HD
ENDBRANCH  11  16
BRANCH  11  18
HETATM   18  O   UNL     1      11.235  -1.219  21.755  1.00  0.00    -0.307 OA
ATOM     19  HO  UNL     1      10.776  -2.028  21.948  1.00  0.00     0.230 HD
ENDBRANCH  11  18
TORSDOF 2
ENDMDL
MODEL 7
REMARK VINA RESULT:    -5.331     22.512     24.032
REMARK INTER + INTRA:          -5.643
REMARK INTER:                  -5.643
REMARK INTRA:                   0.000
REMARK UNBOUND:                 0.000
REMARK  2 active torsions:
REMARK  status: ('A' for Active; 'I' for Inactive)
REMARK    1  A    between atoms: O_4  and  S_15 
REMARK    2  A    between atoms: O_11  and  S_15 
ROOT
HETATM    1  C   UNL     1       9.766  15.978   6.857  1.00  0.00     0.178 C 
HETATM    2  S   UNL     1       9.852  15.928   8.462  1.00  0.00    -0.054 SA
HETATM    3  N   UNL     1      10.855  15.938   6.109  1.00  0.00    -0.288 N 
HETATM    4  C   UNL     1       8.470  14.754   3.025  1.00  0.00    -0.038 C 
HETATM    5  C   UNL     1       8.465  16.070   6.030  1.00  0.00     0.295 C 
HETATM    6  C   UNL     1       7.812  15.890   3.696  1.00  0.00     0.156 C 
HETATM    7  H   UNL     1      11.827  16.070   6.025  1.00  0.00     0.178 HD
HETATM    8  C   UNL     1       9.931  14.884   2.938  1.00  0.00     0.174 C 
HETATM    9  C   UNL     1       7.770  13.686   2.534  1.00  0.00     0.006 C 
HETATM   10  N   UNL     1       8.780  16.225   4.744  1.00  0.00    -0.245 N 
HETATM   11  S   UNL     1      10.607  15.789   4.362  1.00  0.00     0.054 SA
HETATM   12  C   UNL     1       6.384  15.395   4.085  1.00  0.00     0.004 C 
HETATM   13  C   UNL     1       6.453  13.348   2.873  1.00  0.00     0.000 C 
HETATM   14  C   UNL     1       5.786  14.208   3.718  1.00  0.00    -0.002 C 
HETATM   15  O   UNL     1       7.330  15.959   6.493  1.00  0.00    -0.264 OA
ENDROOT
BRANCH  11  16
HETATM   16  O   UNL     1      10.877  17.233   4.019  1.00  0.00    -0.307 OA
ATOM     17  HO  UNL     1      11.806  17.223   4.214  1.00  0.00     0.230 HD
ENDBRANCH  11  16
BRANCH  11  18
HETATM   18  O   UNL     1      12.033  15.081   4.191  1.00  0.00    -0.307 OA
ATOM     19  HO  UNL     1      11.634  14.222   4.262  1.00  0.00     0.230 HD
ENDBRANCH  11  18
TORSDOF 2
ENDMDL
MODEL 8
REMARK VINA RESULT:    -5.288      2.472      3.776
REMARK INTER + INTRA:          -5.597
REMARK INTER:                  -5.597
REMARK INTRA:                   0.000
REMARK UNBOUND:                 0.000
REMARK  2 active torsions:
REMARK  status: ('A' for Active; 'I' for Inactive)
REMARK    1  A    between atoms: O_4  and  S_15 
REMARK    2  A    between atoms: O_11  and  S_15 
ROOT
HETATM    1  C   UNL     1       7.671   2.762  22.170  1.00  0.00     0.178 C 
HETATM    2  S   UNL     1       6.333   3.653  22.187  1.00  0.00    -0.054 SA
HETATM    3  N   UNL     1       8.833   3.262  22.554  1.00  0.00    -0.288 N 
HETATM    4  C   UNL     1      10.095  -0.575  23.095  1.00  0.00    -0.038 C 
HETATM    5  C   UNL     1       7.761   1.284  21.730  1.00  0.00     0.295 C 
HETATM    6  C   UNL     1       9.406  -0.504  21.793  1.00  0.00     0.156 C 
HETATM    7  H   UNL     1       9.402   4.048  22.715  1.00  0.00     0.178 HD
HETATM    8  C   UNL     1      10.904   0.613  23.401  1.00  0.00     0.174 C 
HETATM    9  C   UNL     1       9.980  -1.655  23.928  1.00  0.00     0.006 C 
HETATM   10  N   UNL     1       9.042   0.913  21.719  1.00  0.00    -0.245 N 
HETATM   11  S   UNL     1      10.179   2.117  22.684  1.00  0.00     0.054 SA
HETATM   12  C   UNL     1       8.289  -1.594  21.835  1.00  0.00     0.004 C 
HETATM   13  C   UNL     1       8.989  -2.642  23.853  1.00  0.00     0.000 C 
HETATM   14  C   UNL     1       8.097  -2.552  22.806  1.00  0.00    -0.002 C 
HETATM   15  O   UNL     1       6.793   0.565  21.489  1.00  0.00    -0.264 OA
ENDROOT
BRANCH  11  16
HETATM   16  O   UNL     1      10.864   2.498  21.395  1.00  0.00    -0.307 OA
ATOM     17  HO  UNL     1      11.755   2.405  21.710  1.00  0.00     0.230 HD
ENDBRANCH  11  16
BRANCH  11  18
HETATM   18  O   UNL     1      10.892   3.038  23.784  1.00  0.00    -0.307 OA
ATOM     19  HO  UNL     1      10.979   2.297  24.372  1.00  0.00     0.230 HD
ENDBRANCH  11  18
TORSDOF 2
ENDMDL
MODEL 9
REMARK VINA RESULT:    -5.238      2.257      3.449
REMARK INTER + INTRA:          -5.544
REMARK INTER:                  -5.544
REMARK INTRA:                   0.000
REMARK UNBOUND:                 0.000
REMARK  2 active torsions:
REMARK  status: ('A' for Active; 'I' for Inactive)
REMARK    1  A    between atoms: O_4  and  S_15 
REMARK    2  A    between atoms: O_11  and  S_15 
ROOT
HETATM    1  C   UNL     1       7.039   1.832  22.883  1.00  0.00     0.178 C 
HETATM    2  S   UNL     1       6.671   3.348  22.493  1.00  0.00    -0.054 SA
HETATM    3  N   UNL     1       6.364   0.811  22.383  1.00  0.00    -0.288 N 
HETATM    4  C   UNL     1       9.561  -1.530  23.336  1.00  0.00    -0.038 C 
HETATM    5  C   UNL     1       8.173   1.401  23.838  1.00  0.00     0.295 C 
HETATM    6  C   UNL     1       9.270  -0.667  24.495  1.00  0.00     0.156 C 
HETATM    7  H   UNL     1       5.544   0.466  21.964  1.00  0.00     0.178 HD
HETATM    8  C   UNL     1       8.358  -2.013  22.643  1.00  0.00     0.174 C 
HETATM    9  C   UNL     1      10.837  -1.842  22.955  1.00  0.00     0.006 C 
HETATM   10  N   UNL     1       8.100   0.083  24.030  1.00  0.00    -0.245 N 
HETATM   11  S   UNL     1       7.006  -0.803  22.730  1.00  0.00     0.054 SA
HETATM   12  C   UNL     1      10.599   0.086  24.818  1.00  0.00     0.004 C 
HETATM   13  C   UNL     1      11.997  -1.163  23.352  1.00  0.00     0.000 C 
HETATM   14  C   UNL     1      11.839  -0.139  24.261  1.00  0.00    -0.002 C 
HETATM   15  O   UNL     1       9.031   2.156  24.294  1.00  0.00    -0.264 OA
ENDROOT
BRANCH  11  16
HETATM   16  O   UNL     1       6.016  -1.160  23.812  1.00  0.00    -0.307 OA
ATOM     17  HO  UNL     1       5.583  -0.316  23.851  1.00  0.00     0.230 HD
ENDBRANCH  11  16
BRANCH  11  18
HETATM   18  O   UNL     1       6.340  -1.385  21.394  1.00  0.00    -0.307 OA
ATOM     19  HO  UNL     1       6.687  -0.661  20.886  1.00  0.00     0.230 HD
ENDBRANCH  11  18
TORSDOF 2
ENDMDL
