REMARK  2 active torsions:
REMARK  status: ('A' for Active; 'I' for Inactive)
REMARK    1  A    between atoms: O_4  and  S_15 
REMARK    2  A    between atoms: O_11  and  S_15 
ROOT
HETATM    1  C   UNL     1       7.565  -2.602  24.874  1.00  0.00     0.178 C 
HETATM    2  S   UNL     1       6.353  -3.309  25.659  1.00  0.00    -0.054 SA
HETATM    3  N   UNL     1       8.760  -3.163  24.808  1.00  0.00    -0.288 N 
HETATM    4  C   UNL     1       9.488  -0.796  21.572  1.00  0.00    -0.038 C 
HETATM    5  C   UNL     1       7.487  -1.250  24.132  1.00  0.00     0.295 C 
HETATM    6  C   UNL     1       8.883   0.045  22.621  1.00  0.00     0.156 C 
HETATM    7  H   UNL     1       9.416  -3.798  25.175  1.00  0.00     0.178 HD
HETATM    8  C   UNL     1      10.426  -1.802  22.089  1.00  0.00     0.174 C 
HETATM    9  C   UNL     1       9.193  -0.640  20.245  1.00  0.00     0.006 C 
HETATM   10  N   UNL     1       8.708  -0.914  23.715  1.00  0.00    -0.245 N 
HETATM   11  S   UNL     1       9.939  -2.383  23.740  1.00  0.00     0.054 SA
HETATM   12  C   UNL     1       7.634   0.718  21.969  1.00  0.00     0.004 C 
HETATM   13  C   UNL     1       8.088   0.051  19.730  1.00  0.00     0.000 C 
HETATM   14  C   UNL     1       7.271   0.686  20.640  1.00  0.00    -0.002 C 
HETATM   15  O   UNL     1       6.448  -0.626  23.919  1.00  0.00    -0.264 OA
ENDROOT
BRANCH  11  16
HETATM   16  O   UNL     1      10.733  -1.695  24.823  1.00  0.00    -0.307 OA
ATOM     17  HO  UNL     1      11.365  -1.277  24.250  1.00  0.00     0.230 HD
ENDBRANCH  11  16
BRANCH  11  18
HETATM   18  O   UNL     1      10.706  -3.773  23.526  1.00  0.00    -0.307 OA
ATOM     19  HO  UNL     1      11.338  -3.355  22.953  1.00  0.00     0.230 HD
ENDBRANCH  11  18
TORSDOF 2
