stable:False satoms:17 tatoms:24 sratio:0.7083333333333334
  -OEChem-07092417333D

 24 26  0     1  0  0  0  0  0999 V2000
    7.5654   -2.6022   24.8744 C   0  0  0  0  0  0  0  0  0  0  0  0
    6.3534   -3.3090   25.6589 S   0  0  0  0  0  0  0  0  0  0  0  0
    8.7599   -3.1633   24.8080 N   0  0  0  0  0  0  0  0  0  0  0  0
   10.7327   -1.6950   24.8235 O   0  0  0  0  0  0  0  0  0  0  0  0
    9.4877   -0.7963   21.5718 C   0  0  0  0  0  0  0  0  0  0  0  0
   10.3683   -2.7657   21.6532 H   0  0  0  0  0  0  0  0  0  0  0  0
    7.4870   -1.2495   24.1316 C   0  0  0  0  0  0  0  0  0  0  0  0
   11.4313   -1.4168   22.1544 H   0  0  0  0  0  0  0  0  0  0  0  0
    8.8825    0.0453   22.6209 C   0  0  2  0  0  0  0  0  0  0  0  0
    9.5987    0.7818   23.0474 H   0  0  0  0  0  0  0  0  0  0  0  0
    9.4161   -3.7976   25.1751 H   0  0  0  0  0  0  0  0  0  0  0  0
   10.4259   -1.8019   22.0892 C   0  0  0  0  0  0  0  0  0  0  0  0
   10.7061   -3.7730   23.5255 O   0  0  0  0  0  0  0  0  0  0  0  0
    9.8553   -1.1211   19.5541 H   0  0  0  0  0  0  0  0  0  0  0  0
    9.1931   -0.6405   20.2449 C   0  0  0  0  0  0  0  0  0  0  0  0
    8.7083   -0.9141   23.7152 N   0  0  0  0  0  0  0  0  0  0  0  0
    9.9391   -2.3826   23.7402 S   0  5  0  0  0  0  0  0  0  0  0  0
    7.6341    0.7183   21.9692 C   0  5  3  0  0  0  0  0  0  0  0  0
    8.0877    0.0508   19.7297 C   0  0  0  0  0  0  0  0  0  0  0  0
    7.8939    0.0875   18.6656 H   0  0  0  0  0  0  0  0  0  0  0  0
    7.2711    0.6862   20.6402 C   0  0  0  0  0  0  0  0  0  0  0  0
    6.4480   -0.6260   23.9187 O   0  0  0  0  0  0  0  0  0  0  0  0
    6.9926    1.2367   22.6487 H   0  0  0  0  0  0  0  0  0  0  0  0
    6.3458    1.1580   20.3362 H   0  0  0  0  0  0  0  0  0  0  0  0
 19 20  1  0  0  0  0
 14 15  1  0  0  0  0
 15 19  1  0  0  0  0
 19 21  2  0  0  0  0
  5 15  2  0  0  0  0
 21 24  1  0  0  0  0
 18 21  1  0  0  0  0
  5 12  1  0  0  0  0
  5  9  1  0  0  0  0
  6 12  1  0  0  0  0
  9 18  1  0  0  0  0
 18 23  1  0  0  0  0
  8 12  1  0  0  0  0
 12 17  1  0  0  0  0
  9 10  1  0  0  0  0
  9 16  1  0  0  0  0
 13 17  1  0  0  0  0
 16 17  1  0  0  0  0
  7 16  1  0  0  0  0
  3 17  1  0  0  0  0
  4 17  1  0  0  0  0
  7 22  2  0  0  0  0
  1  7  1  0  0  0  0
  1  3  1  0  0  0  0
  3 11  1  0  0  0  0
  1  2  2  0  0  0  0
M  CHG  2  17  -1  18  -1
M  END
> <Shapegauss>
-130.958069

$$$$
