stable:False satoms:21 tatoms:24 sratio:0.875
  -OEChem-07092417313D

 24 23  0     1  0  0  0  0  0999 V2000
    7.1824   -0.9209   24.9003 H   0  0  0  0  0  0  0  0  0  0  0  0
    9.7556   -3.1093   23.4274 N   0  0  0  0  0  0  0  0  0  0  0  0
   11.6350   -2.6627   22.6478 H   0  0  0  0  0  0  0  0  0  0  0  0
    8.8217   -0.3363   25.0249 H   0  0  0  0  0  0  0  0  0  0  0  0
   10.0185   -4.0605   23.5147 H   0  0  0  0  0  0  0  0  0  0  0  0
    6.0375   -0.8083   22.5648 H   0  0  0  0  0  0  0  0  0  0  0  0
    8.5706   -1.3471   21.5967 H   0  0  0  0  0  0  0  0  0  0  0  0
   10.5667   -0.6321   23.6578 H   0  0  0  0  0  0  0  0  0  0  0  0
    7.8854   -0.1752   24.4852 C   0  0  0  0  0  0  0  0  0  0  0  0
   10.3584   -0.9002   22.6328 C   0  0  0  0  0  0  0  0  0  0  0  0
    6.7108    0.0230   22.2860 C   0  0  0  0  0  0  0  0  0  0  0  0
   11.0115   -0.3038   21.9901 H   0  0  0  0  0  0  0  0  0  0  0  0
    8.9823   -0.7215   22.2965 N   0  0  0  0  0  0  0  0  0  0  0  0
    9.6450   -2.5228   24.2155 H   0  0  0  0  0  0  0  0  0  0  0  0
   10.5919   -2.4034   22.3948 C   0  0  2  0  0  0  0  0  0  0  0  0
   10.9868   -2.9289   20.2912 H   0  0  0  0  0  0  0  0  0  0  0  0
    7.5183    0.8336   24.6984 H   0  0  0  0  0  0  0  0  0  0  0  0
    9.2326   -2.6844   20.6512 H   0  0  0  0  0  0  0  0  0  0  0  0
    6.5923    0.1189   20.7951 C   0  5  0  0  0  0  0  0  0  0  0  0
    6.8168   -0.7070   20.1843 H   0  0  0  0  0  0  0  0  0  0  0  0
   10.2391   -2.6881   20.9997 C   0  5  0  0  0  0  0  0  0  0  0  0
    6.1500    0.9827   20.3443 H   0  0  0  0  0  0  0  0  0  0  0  0
    6.3032    0.9613   22.6698 H   0  0  0  0  0  0  0  0  0  0  0  0
    7.9715   -0.2972   23.0275 C   0  0  3  0  0  0  0  0  0  0  0  0
 19 20  1  0  0  0  0
 16 21  1  0  0  0  0
 19 22  1  0  0  0  0
 18 21  1  0  0  0  0
 11 19  1  0  0  0  0
 15 21  1  0  0  0  0
  7 13  1  0  0  0  0
 10 12  1  0  0  0  0
  6 11  1  0  0  0  0
 11 23  1  0  0  0  0
 11 24  1  0  0  0  0
 10 13  1  0  0  0  0
 13 24  1  0  0  0  0
 10 15  1  0  0  0  0
  3 15  1  0  0  0  0
  2 15  1  0  0  0  0
  8 10  1  0  0  0  0
  9 24  1  0  0  0  0
  2  5  1  0  0  0  0
  2 14  1  0  0  0  0
  9 17  1  0  0  0  0
  1  9  1  0  0  0  0
  4  9  1  0  0  0  0
M  CHG  2  19  -1  21  -1
M  END
> <Shapegauss>
-64.949234

$$$$
