stable:False satoms:21 tatoms:24 sratio:0.875
  -OEChem-08052422113D

 28 27  0     1  0  0  0  0  0999 V2000
  -13.6412    0.2000  -23.1749 H   0  0  0  0  0  0  0  0  0  0  0  0
  -11.1335    2.8978  -23.2905 N   0  0  0  0  0  0  0  0  0  0  0  0
   -9.7972    3.4474  -24.7911 H   0  0  0  0  0  0  0  0  0  0  0  0
  -13.2452    0.7849  -24.7704 H   0  0  0  0  0  0  0  0  0  0  0  0
  -11.9020    3.1800  -23.8646 H   0  0  0  0  0  0  0  0  0  0  0  0
  -11.8819   -1.2919  -21.9677 H   0  0  0  0  0  0  0  0  0  0  0  0
   -9.9493   -0.3772  -24.3813 H   0  0  0  0  0  0  0  0  0  0  0  0
  -11.3297    1.6211  -25.5662 H   0  0  0  0  0  0  0  0  0  0  0  0
  -13.0887   -0.0608  -24.0965 C   0  0  0  0  0  0  0  0  0  0  0  0
  -10.4203    1.3768  -25.0377 C   0  0  0  0  0  0  0  0  0  0  0  0
  -11.4758   -1.5914  -22.9513 C   0  0  0  0  0  0  0  0  0  0  0  0
   -9.6575    1.1260  -25.7797 H   0  0  0  0  0  0  0  0  0  0  0  0
  -10.6091    0.3187  -24.0979 N   0  3  0  0  0  0  0  0  0  0  0  0
  -11.3957    2.0961  -22.7532 H   0  0  0  0  0  0  0  0  0  0  0  0
   -9.9555    2.5543  -24.1613 C   0  0  2  0  0  0  0  0  0  0  0  0
   -8.3887    2.9403  -22.8065 H   0  0  0  0  0  0  0  0  0  0  0  0
  -13.5242   -0.9600  -24.5433 H   0  0  0  0  0  0  0  0  0  0  0  0
   -7.9701    1.8504  -24.1715 H   0  0  0  0  0  0  0  0  0  0  0  0
  -10.1406   -2.1960  -22.6385 C   0  0  0  0  0  0  0  0  0  0  0  0
  -10.2790   -3.0823  -22.0019 H   0  0  0  0  0  0  0  0  0  0  0  0
   -8.7507    2.1211  -23.4453 C   0  0  0  0  0  0  0  0  0  0  0  0
   -9.5191   -1.4583  -22.1098 H   0  0  0  0  0  0  0  0  0  0  0  0
  -12.0766   -2.4097  -23.3554 H   0  0  0  0  0  0  0  0  0  0  0  0
  -11.6892   -0.3717  -23.7930 C   0  0  3  0  0  0  0  0  0  0  0  0
   -9.6435   -2.4908  -23.5744 H   0  0  0  0  0  0  0  0  0  0  0  0
   -8.9895    1.2475  -22.8210 H   0  0  0  0  0  0  0  0  0  0  0  0
  -11.5988   -0.9658  -24.7144 H   0  0  0  0  0  0  0  0  0  0  0  0
  -10.3216    0.7153  -23.2261 H   0  0  0  0  0  0  0  0  0  0  0  0
 19 20  1  0  0  0  0
 16 21  1  0  0  0  0
 19 22  1  0  0  0  0
 18 21  1  0  0  0  0
 11 19  1  0  0  0  0
 15 21  1  0  0  0  0
  7 13  1  0  0  0  0
 10 12  1  0  0  0  0
  6 11  1  0  0  0  0
 11 23  1  0  0  0  0
 11 24  1  0  0  0  0
 10 13  1  0  0  0  0
 13 24  1  0  0  0  0
 10 15  1  0  0  0  0
  3 15  1  0  0  0  0
  2 15  1  0  0  0  0
  8 10  1  0  0  0  0
  9 24  1  0  0  0  0
  2  5  1  0  0  0  0
  2 14  1  0  0  0  0
  9 17  1  0  0  0  0
  1  9  1  0  0  0  0
  4  9  1  0  0  0  0
 19 25  1  0  0  0  0
 21 26  1  0  0  0  0
 24 27  1  0  0  0  0
 13 28  1  0  0  0  0
M  CHG  1  13   1
M  END
> <Chemgauss4>
-4.301256

$$$$
