stable:False satoms:21 tatoms:24 sratio:0.875
  -OEChem-08052422113D

 28 27  0     1  0  0  0  0  0999 V2000
   13.3322    0.1511   23.1749 H   0  0  0  0  0  0  0  0  0  0  0  0
   10.8244    2.8488   23.2905 N   0  0  0  0  0  0  0  0  0  0  0  0
    9.4882    3.3984   24.7911 H   0  0  0  0  0  0  0  0  0  0  0  0
   12.9362    0.7360   24.7704 H   0  0  0  0  0  0  0  0  0  0  0  0
   11.5930    3.1311   23.8646 H   0  0  0  0  0  0  0  0  0  0  0  0
   11.5729   -1.3408   21.9677 H   0  0  0  0  0  0  0  0  0  0  0  0
    9.6403   -0.4261   24.3813 H   0  0  0  0  0  0  0  0  0  0  0  0
   11.0207    1.5721   25.5662 H   0  0  0  0  0  0  0  0  0  0  0  0
   12.7797   -0.1097   24.0965 C   0  0  0  0  0  0  0  0  0  0  0  0
   10.1113    1.3279   25.0377 C   0  0  0  0  0  0  0  0  0  0  0  0
   11.1668   -1.6403   22.9513 C   0  0  0  0  0  0  0  0  0  0  0  0
    9.3485    1.0771   25.7797 H   0  0  0  0  0  0  0  0  0  0  0  0
   10.3001    0.2697   24.0979 N   0  3  0  0  0  0  0  0  0  0  0  0
   11.0867    2.0472   22.7532 H   0  0  0  0  0  0  0  0  0  0  0  0
    9.6465    2.5053   24.1613 C   0  0  2  0  0  0  0  0  0  0  0  0
    8.0797    2.8913   22.8065 H   0  0  0  0  0  0  0  0  0  0  0  0
   13.2151   -1.0089   24.5433 H   0  0  0  0  0  0  0  0  0  0  0  0
    7.6611    1.8015   24.1715 H   0  0  0  0  0  0  0  0  0  0  0  0
    9.8316   -2.2449   22.6385 C   0  0  0  0  0  0  0  0  0  0  0  0
    9.9699   -3.1313   22.0019 H   0  0  0  0  0  0  0  0  0  0  0  0
    8.4416    2.0722   23.4453 C   0  0  0  0  0  0  0  0  0  0  0  0
    9.2101   -1.5073   22.1098 H   0  0  0  0  0  0  0  0  0  0  0  0
   11.7676   -2.4586   23.3554 H   0  0  0  0  0  0  0  0  0  0  0  0
   11.3802   -0.4206   23.7930 C   0  0  3  0  0  0  0  0  0  0  0  0
    9.3344   -2.5397   23.5744 H   0  0  0  0  0  0  0  0  0  0  0  0
    8.6804    1.1986   22.8210 H   0  0  0  0  0  0  0  0  0  0  0  0
   11.2898   -1.0147   24.7144 H   0  0  0  0  0  0  0  0  0  0  0  0
   10.0126    0.6664   23.2261 H   0  0  0  0  0  0  0  0  0  0  0  0
 19 20  1  0  0  0  0
 16 21  1  0  0  0  0
 19 22  1  0  0  0  0
 18 21  1  0  0  0  0
 11 19  1  0  0  0  0
 15 21  1  0  0  0  0
  7 13  1  0  0  0  0
 10 12  1  0  0  0  0
  6 11  1  0  0  0  0
 11 23  1  0  0  0  0
 11 24  1  0  0  0  0
 10 13  1  0  0  0  0
 13 24  1  0  0  0  0
 10 15  1  0  0  0  0
  3 15  1  0  0  0  0
  2 15  1  0  0  0  0
  8 10  1  0  0  0  0
  9 24  1  0  0  0  0
  2  5  1  0  0  0  0
  2 14  1  0  0  0  0
  9 17  1  0  0  0  0
  1  9  1  0  0  0  0
  4  9  1  0  0  0  0
 19 25  1  0  0  0  0
 21 26  1  0  0  0  0
 24 27  1  0  0  0  0
 13 28  1  0  0  0  0
M  CHG  1  13   1
M  END
> <Chemgauss4>
-4.256947

$$$$
