stable:False satoms:23 tatoms:24 sratio:0.9583333333333334
  -OEChem-07092417313D

 24 24  0     1  0  0  0  0  0999 V2000
    8.1482   -3.4528   24.9345 H   0  0  0  0  0  0  0  0  0  0  0  0
    9.1121   -0.6811   24.5861 H   0  0  0  0  0  0  0  0  0  0  0  0
    7.6436   -2.7891   24.2228 C   0  0  0  0  0  0  0  0  0  0  0  0
    7.3296   -1.9081   24.7804 H   0  0  0  0  0  0  0  0  0  0  0  0
    6.7534   -3.2982   23.8503 H   0  0  0  0  0  0  0  0  0  0  0  0
    8.5033   -2.4170   23.0177 C   0  0  2  0  0  0  0  0  0  0  0  0
    7.5844   -1.9342   21.1285 H   0  0  0  0  0  0  0  0  0  0  0  0
   10.6532   -2.1407   22.6940 H   0  0  0  0  0  0  0  0  0  0  0  0
    8.2299    0.7233   22.3714 H   0  0  0  0  0  0  0  0  0  0  0  0
   11.5249   -0.1526   22.4291 H   0  0  0  0  0  0  0  0  0  0  0  0
   10.3035   -2.5398   24.3460 H   0  0  0  0  0  0  0  0  0  0  0  0
   10.3927    1.1175   22.8587 H   0  0  0  0  0  0  0  0  0  0  0  0
    9.8980   -1.9806   23.4846 C   0  0  0  0  0  0  0  0  0  0  0  0
    8.3430   -0.0590   21.6094 C   0  0  1  0  0  0  0  0  0  0  0  0
    9.7709   -0.2077   21.3561 N   0  0  0  0  0  0  0  0  0  0  0  0
    7.6281    0.3886   20.2915 C   0  0  0  0  0  0  0  0  0  0  0  0
   10.4460    0.0643   22.5610 C   0  0  0  0  0  0  0  0  0  0  0  0
    8.6269   -3.2757   22.3648 H   0  0  0  0  0  0  0  0  0  0  0  0
    7.7249   -1.3771   22.0532 C   0  0  0  0  0  0  0  0  0  0  0  0
    9.8211   -0.7425   20.4930 H   0  0  0  0  0  0  0  0  0  0  0  0
    6.6115    1.1176   20.4038 O   0  5  0  0  0  0  0  0  0  0  0  0
    8.0486   -0.0033   19.2078 O   0  0  0  0  0  0  0  0  0  0  0  0
    9.7284   -0.5562   23.7398 N   0  0  0  0  0  0  0  0  0  0  0  0
    6.7578   -1.1856   22.5119 H   0  0  0  0  0  0  0  0  0  0  0  0
 16 22  2  0  0  0  0
 16 21  1  0  0  0  0
 14 16  1  0  0  0  0
 15 20  1  0  0  0  0
  7 19  1  0  0  0  0
 14 15  1  0  0  0  0
 15 17  1  0  0  0  0
 14 19  1  0  0  0  0
  9 14  1  0  0  0  0
 19 24  1  0  0  0  0
  6 19  1  0  0  0  0
  6 18  1  0  0  0  0
 10 17  1  0  0  0  0
 12 17  1  0  0  0  0
 17 23  1  0  0  0  0
  8 13  1  0  0  0  0
  6 13  1  0  0  0  0
  3  6  1  0  0  0  0
 13 23  1  0  0  0  0
 11 13  1  0  0  0  0
  2 23  1  0  0  0  0
  3  5  1  0  0  0  0
  3  4  1  0  0  0  0
  1  3  1  0  0  0  0
M  CHG  1  21  -1
M  END
> <Shapegauss>
-108.050652

$$$$
