stable:False satoms:23 tatoms:24 sratio:0.9583333333333334
  -OEChem-08052418213D

 25 25  0     1  0  0  0  0  0999 V2000
   13.7537   -1.4467   23.3512 H   0  0  0  0  0  0  0  0  0  0  0  0
   10.9452   -0.8234   20.9304 H   0  0  0  0  0  0  0  0  0  0  0  0
   13.1508   -0.6087   23.7200 C   0  0  0  0  0  0  0  0  0  0  0  0
   13.2523    0.1968   22.9944 H   0  0  0  0  0  0  0  0  0  0  0  0
   13.5720   -0.2743   24.6693 H   0  0  0  0  0  0  0  0  0  0  0  0
   11.6874   -0.9679   23.9630 C   0  0  2  0  0  0  0  0  0  0  0  0
   10.5349    0.0908   25.4453 H   0  0  0  0  0  0  0  0  0  0  0  0
   10.2812   -2.3768   23.0459 H   0  0  0  0  0  0  0  0  0  0  0  0
    9.7609    1.3463   22.8284 H   0  0  0  0  0  0  0  0  0  0  0  0
    8.6619   -1.6942   21.7442 H   0  0  0  0  0  0  0  0  0  0  0  0
   11.8321   -2.4280   22.2696 H   0  0  0  0  0  0  0  0  0  0  0  0
    8.8678   -0.0161   21.2738 H   0  0  0  0  0  0  0  0  0  0  0  0
   11.1278   -1.7293   22.7543 C   0  0  0  0  0  0  0  0  0  0  0  0
    9.5600    0.7618   23.7358 C   0  0  1  0  0  0  0  0  0  0  0  0
    8.7676   -0.3942   23.3347 N   0  0  0  0  0  0  0  0  0  0  0  0
    8.7353    1.6293   24.7436 C   0  0  0  0  0  0  0  0  0  0  0  0
    9.1650   -0.7494   22.0318 C   0  0  0  0  0  0  0  0  0  0  0  0
   11.5982   -1.6141   24.8309 H   0  0  0  0  0  0  0  0  0  0  0  0
   10.8445    0.3317   24.4298 C   0  0  0  0  0  0  0  0  0  0  0  0
    8.9333   -1.1556   23.9615 H   0  0  0  0  0  0  0  0  0  0  0  0
    8.9341    2.8694   24.7369 O   0  5  0  0  0  0  0  0  0  0  0  0
    7.9583    1.0849   25.5212 O   0  0  0  0  0  0  0  0  0  0  0  0
   10.6676   -0.6608   21.8772 N   0  3  0  0  0  0  0  0  0  0  0  0
   11.5401    1.1672   24.4511 H   0  0  0  0  0  0  0  0  0  0  0  0
   11.0116    0.2288   22.1773 H   0  0  0  0  0  0  0  0  0  0  0  0
 16 22  2  0  0  0  0
 16 21  1  0  0  0  0
 14 16  1  0  0  0  0
 15 20  1  0  0  0  0
  7 19  1  0  0  0  0
 14 15  1  0  0  0  0
 15 17  1  0  0  0  0
 14 19  1  0  0  0  0
  9 14  1  0  0  0  0
 19 24  1  0  0  0  0
  6 19  1  0  0  0  0
  6 18  1  0  0  0  0
 10 17  1  0  0  0  0
 12 17  1  0  0  0  0
 17 23  1  0  0  0  0
  8 13  1  0  0  0  0
  6 13  1  0  0  0  0
  3  6  1  0  0  0  0
 13 23  1  0  0  0  0
 11 13  1  0  0  0  0
  2 23  1  0  0  0  0
  3  5  1  0  0  0  0
  3  4  1  0  0  0  0
  1  3  1  0  0  0  0
 23 25  1  0  0  0  0
M  CHG  2  21  -1  23   1
M  END
> <Chemgauss4>
-5.654259

$$$$
