stable:False satoms:23 tatoms:24 sratio:0.9583333333333334
  -OEChem-08052418213D

 25 25  0     1  0  0  0  0  0999 V2000
  -13.5460   -1.7902  -23.2946 H   0  0  0  0  0  0  0  0  0  0  0  0
  -11.0386   -0.6823  -20.7214 H   0  0  0  0  0  0  0  0  0  0  0  0
  -13.1282   -0.8250  -23.6034 C   0  0  0  0  0  0  0  0  0  0  0  0
  -13.4319   -0.0951  -22.8547 H   0  0  0  0  0  0  0  0  0  0  0  0
  -13.5756   -0.5471  -24.5589 H   0  0  0  0  0  0  0  0  0  0  0  0
  -11.6133   -0.8453  -23.7892 C   0  0  2  0  0  0  0  0  0  0  0  0
  -10.6652    0.5061  -25.1754 H   0  0  0  0  0  0  0  0  0  0  0  0
   -9.9685   -1.9547  -22.8581 H   0  0  0  0  0  0  0  0  0  0  0  0
  -10.2873    1.7782  -22.4804 H   0  0  0  0  0  0  0  0  0  0  0  0
   -8.5900   -0.9964  -21.4566 H   0  0  0  0  0  0  0  0  0  0  0  0
  -11.4991   -2.3781  -22.1590 H   0  0  0  0  0  0  0  0  0  0  0  0
   -9.1775    0.5730  -20.9357 H   0  0  0  0  0  0  0  0  0  0  0  0
  -10.9472   -1.5213  -22.5838 C   0  0  0  0  0  0  0  0  0  0  0  0
   -9.9281    1.2939  -23.3979 C   0  0  1  0  0  0  0  0  0  0  0  0
   -8.9173    0.3211  -23.0019 N   0  0  0  0  0  0  0  0  0  0  0  0
   -9.2758    2.3657  -24.3329 C   0  0  0  0  0  0  0  0  0  0  0  0
   -9.2769   -0.1717  -21.7333 C   0  0  0  0  0  0  0  0  0  0  0  0
  -11.3509   -1.4159  -24.6749 H   0  0  0  0  0  0  0  0  0  0  0  0
  -11.0590    0.6268  -24.1676 C   0  0  0  0  0  0  0  0  0  0  0  0
   -8.8874   -0.4285  -23.6632 H   0  0  0  0  0  0  0  0  0  0  0  0
   -9.7422    3.5311  -24.2905 O   0  5  0  0  0  0  0  0  0  0  0  0
   -8.3688    2.0399  -25.0919 O   0  0  0  0  0  0  0  0  0  0  0  0
  -10.7670   -0.4198  -21.6473 N   0  3  0  0  0  0  0  0  0  0  0  0
  -11.9198    1.2908  -24.1916 H   0  0  0  0  0  0  0  0  0  0  0  0
  -11.2862    0.3865  -21.9310 H   0  0  0  0  0  0  0  0  0  0  0  0
 16 22  2  0  0  0  0
 16 21  1  0  0  0  0
 14 16  1  0  0  0  0
 15 20  1  0  0  0  0
  7 19  1  0  0  0  0
 14 15  1  0  0  0  0
 15 17  1  0  0  0  0
 14 19  1  0  0  0  0
  9 14  1  0  0  0  0
 19 24  1  0  0  0  0
  6 19  1  0  0  0  0
  6 18  1  0  0  0  0
 10 17  1  0  0  0  0
 12 17  1  0  0  0  0
 17 23  1  0  0  0  0
  8 13  1  0  0  0  0
  6 13  1  0  0  0  0
  3  6  1  0  0  0  0
 13 23  1  0  0  0  0
 11 13  1  0  0  0  0
  2 23  1  0  0  0  0
  3  5  1  0  0  0  0
  3  4  1  0  0  0  0
  1  3  1  0  0  0  0
 23 25  1  0  0  0  0
M  CHG  2  21  -1  23   1
M  END
> <Chemgauss4>
-5.688090

$$$$
