MODEL 1
REMARK VINA RESULT:    -6.611      0.000      0.000
REMARK INTER + INTRA:         -10.716
REMARK INTER:                  -9.704
REMARK INTRA:                  -1.012
REMARK UNBOUND:                -1.012
REMARK  8 active torsions:
REMARK  status: ('A' for Active; 'I' for Inactive)
REMARK    1  A    between atoms: S_2  and  N_5 
REMARK    2  A    between atoms: N_5  and  C_7 
REMARK    3  A    between atoms: C_9  and  C_10 
REMARK    4  A    between atoms: C_10  and  C_11 
REMARK    5  A    between atoms: C_11  and  C_12 
REMARK    6  A    between atoms: C_12  and  C_13 
REMARK    7  A    between atoms: C_15  and  C_16 
REMARK       I    between atoms: C_16  and  N_18 
REMARK    8  A    between atoms: N_18  and  C_20 
ROOT
HETATM    1  C   UNL     1       6.530  -1.241  21.249  1.00  0.00     0.108 C 
HETATM    2  C   UNL     1       7.255  -1.752  22.126  1.00  0.00    -0.017 A 
HETATM    3  C   UNL     1       8.340  -1.770  22.785  1.00  0.00     0.082 A 
HETATM    4  C   UNL     1       8.012  -2.750  23.420  1.00  0.00     0.031 A 
ENDROOT
BRANCH   4   5
HETATM    5  C   UNL     1       7.744  -3.872  24.076  1.00  0.00     0.253 C 
HETATM    6  O   UNL     1       8.034  -4.838  23.552  1.00  0.00    -0.268 OA
HETATM    7  N   UNL     1       7.153  -3.652  25.240  1.00  0.00    -0.321 N 
ATOM      8  HN  UNL     1       6.960  -2.695  25.537  1.00  0.00     0.169 HD
BRANCH   7   9
HETATM    9  C   UNL     1       6.831  -4.603  25.971  1.00  0.00     0.056 A 
HETATM   10  C   UNL     1       7.435  -5.332  26.880  1.00  0.00     0.117 A 
HETATM   11  N   UNL     1       7.467  -6.165  27.732  1.00  0.00    -0.373 N 
HETATM   12  C   UNL     1       6.125  -6.591  27.599  1.00  0.00     0.088 A 
ATOM     13  HN  UNL     1       8.217  -6.471  28.352  1.00  0.00     0.164 HD
HETATM   14  C   UNL     1       5.293  -6.134  26.867  1.00  0.00     0.026 A 
HETATM   15  C   UNL     1       5.370  -5.107  25.962  1.00  0.00    -0.033 A 
HETATM   16  C   UNL     1       4.203  -4.508  25.036  1.00  0.00     0.050 C 
ENDBRANCH   7   9
ENDBRANCH   4   5
BRANCH   3  17
HETATM   17  C   UNL     1       9.884  -1.701  22.364  1.00  0.00    -0.016 C 
BRANCH  17  18
HETATM   18  C   UNL     1      10.748  -1.441  23.082  1.00  0.00    -0.026 C 
BRANCH  18  19
HETATM   19  C   UNL     1      12.028  -1.491  23.059  1.00  0.00     0.053 C 
BRANCH  19  20
HETATM   20  C   UNL     1      12.567  -0.367  24.119  1.00  0.00    -0.033 C 
HETATM   21  C   UNL     1      12.141   0.321  24.584  1.00  0.00     0.007 C 
ENDBRANCH  19  20
ENDBRANCH  18  19
ENDBRANCH  17  18
ENDBRANCH   3  17
BRANCH   1  22
HETATM   22  N   UNL     1       5.771  -1.267  20.288  1.00  0.00    -0.295 N 
ATOM     23  HN  UNL     1       5.027  -1.963  20.322  1.00  0.00     0.177 HD
BRANCH  22  24
HETATM   24  S   UNL     1       5.811  -0.330  18.972  1.00  0.00     0.226 S 
HETATM   25  C   UNL     1       7.347   0.403  18.956  1.00  0.00     0.186 C 
HETATM   26  O   UNL     1       5.704  -1.106  17.752  1.00  0.00    -0.206 OA
HETATM   27  O   UNL     1       4.817   0.717  18.976  1.00  0.00    -0.206 OA
ENDBRANCH  22  24
ENDBRANCH   1  22
TORSDOF 8
ENDMDL
MODEL 2
REMARK VINA RESULT:    -6.593     14.534     17.726
REMARK INTER + INTRA:         -10.689
REMARK INTER:                  -9.311
REMARK INTRA:                  -1.378
REMARK UNBOUND:                -1.012
REMARK  8 active torsions:
REMARK  status: ('A' for Active; 'I' for Inactive)
REMARK    1  A    between atoms: S_2  and  N_5 
REMARK    2  A    between atoms: N_5  and  C_7 
REMARK    3  A    between atoms: C_9  and  C_10 
REMARK    4  A    between atoms: C_10  and  C_11 
REMARK    5  A    between atoms: C_11  and  C_12 
REMARK    6  A    between atoms: C_12  and  C_13 
REMARK    7  A    between atoms: C_15  and  C_16 
REMARK       I    between atoms: C_16  and  N_18 
REMARK    8  A    between atoms: N_18  and  C_20 
ROOT
HETATM    1  C   UNL     1      24.934  -4.049  24.202  1.00  0.00     0.108 C 
HETATM    2  C   UNL     1      24.632  -3.000  23.597  1.00  0.00    -0.017 A 
HETATM    3  C   UNL     1      24.549  -1.734  23.562  1.00  0.00     0.082 A 
HETATM    4  C   UNL     1      24.077  -1.733  22.445  1.00  0.00     0.031 A 
ENDROOT
BRANCH   4   5
HETATM    5  C   UNL     1      23.472  -1.677  21.265  1.00  0.00     0.253 C 
HETATM    6  O   UNL     1      22.341  -1.788  21.278  1.00  0.00    -0.268 OA
HETATM    7  N   UNL     1      24.324  -1.521  20.264  1.00  0.00    -0.321 N 
ATOM      8  HN  UNL     1      25.324  -1.453  20.456  1.00  0.00     0.169 HD
BRANCH   7   9
HETATM    9  C   UNL     1      23.914  -1.457  19.094  1.00  0.00     0.056 A 
HETATM   10  C   UNL     1      23.405  -0.519  18.329  1.00  0.00     0.117 A 
HETATM   11  N   UNL     1      23.005  -0.088  17.293  1.00  0.00    -0.373 N 
HETATM   12  C   UNL     1      23.107  -1.293  16.559  1.00  0.00     0.088 A 
ATOM     13  HN  UNL     1      22.691   0.845  17.024  1.00  0.00     0.164 HD
HETATM   14  C   UNL     1      23.537  -2.340  16.951  1.00  0.00     0.026 A 
HETATM   15  C   UNL     1      24.040  -2.694  18.176  1.00  0.00    -0.033 A 
HETATM   16  C   UNL     1      24.648  -4.109  18.631  1.00  0.00     0.050 C 
ENDBRANCH   7   9
ENDBRANCH   4   5
BRANCH   3  17
HETATM   17  C   UNL     1      23.951  -0.643  24.570  1.00  0.00    -0.016 C 
BRANCH  17  18
HETATM   18  C   UNL     1      23.056   0.045  24.336  1.00  0.00    -0.026 C 
BRANCH  18  19
HETATM   19  C   UNL     1      21.904   0.285  24.844  1.00  0.00     0.053 C 
BRANCH  19  20
HETATM   20  C   UNL     1      20.909  -0.918  24.356  1.00  0.00    -0.033 C 
HETATM   21  C   UNL     1      20.467  -1.601  24.815  1.00  0.00     0.007 C 
ENDBRANCH  19  20
ENDBRANCH  18  19
ENDBRANCH  17  18
ENDBRANCH   3  17
BRANCH   1  22
HETATM   22  N   UNL     1      24.752  -5.201  24.578  1.00  0.00    -0.295 N 
ATOM     23  HN  UNL     1      24.980  -5.934  23.907  1.00  0.00     0.177 HD
BRANCH  22  24
HETATM   24  S   UNL     1      24.193  -5.695  26.011  1.00  0.00     0.226 S 
HETATM   25  C   UNL     1      25.331  -5.183  27.168  1.00  0.00     0.186 C 
HETATM   26  O   UNL     1      22.936  -5.057  26.349  1.00  0.00    -0.206 OA
HETATM   27  O   UNL     1      24.060  -7.128  26.119  1.00  0.00    -0.206 OA
ENDBRANCH  22  24
ENDBRANCH   1  22
TORSDOF 8
ENDMDL
MODEL 3
REMARK VINA RESULT:    -6.498      1.855      2.293
REMARK INTER + INTRA:         -10.549
REMARK INTER:                  -9.468
REMARK INTRA:                  -1.081
REMARK UNBOUND:                -1.012
REMARK  8 active torsions:
REMARK  status: ('A' for Active; 'I' for Inactive)
REMARK    1  A    between atoms: S_2  and  N_5 
REMARK    2  A    between atoms: N_5  and  C_7 
REMARK    3  A    between atoms: C_9  and  C_10 
REMARK    4  A    between atoms: C_10  and  C_11 
REMARK    5  A    between atoms: C_11  and  C_12 
REMARK    6  A    between atoms: C_12  and  C_13 
REMARK    7  A    between atoms: C_15  and  C_16 
REMARK       I    between atoms: C_16  and  N_18 
REMARK    8  A    between atoms: N_18  and  C_20 
ROOT
HETATM    1  C   UNL     1       8.091  -0.018  20.010  1.00  0.00     0.108 C 
HETATM    2  C   UNL     1       8.231  -0.608  21.101  1.00  0.00    -0.017 A 
HETATM    3  C   UNL     1       8.954  -0.932  22.093  1.00  0.00     0.082 A 
HETATM    4  C   UNL     1       8.066  -1.574  22.610  1.00  0.00     0.031 A 
ENDROOT
BRANCH   4   5
HETATM    5  C   UNL     1       7.161  -2.366  23.175  1.00  0.00     0.253 C 
HETATM    6  O   UNL     1       6.192  -1.866  23.497  1.00  0.00    -0.268 OA
HETATM    7  N   UNL     1       7.576  -3.618  23.281  1.00  0.00    -0.321 N 
ATOM      8  HN  UNL     1       8.502  -3.876  22.938  1.00  0.00     0.169 HD
BRANCH   7   9
HETATM    9  C   UNL     1       6.845  -4.481  23.794  1.00  0.00     0.056 A 
HETATM   10  C   UNL     1       6.481  -4.794  25.015  1.00  0.00     0.117 A 
HETATM   11  N   UNL     1       5.845  -5.408  25.815  1.00  0.00    -0.373 N 
HETATM   12  C   UNL     1       5.216  -6.279  24.895  1.00  0.00     0.088 A 
ATOM     13  HN  UNL     1       5.777  -5.330  26.830  1.00  0.00     0.164 HD
HETATM   14  C   UNL     1       5.321  -6.264  23.702  1.00  0.00     0.026 A 
HETATM   15  C   UNL     1       6.052  -5.443  22.882  1.00  0.00    -0.033 A 
HETATM   16  C   UNL     1       6.118  -5.443  21.277  1.00  0.00     0.050 C 
ENDBRANCH   7   9
ENDBRANCH   4   5
BRANCH   3  17
HETATM   17  C   UNL     1      10.426  -1.549  22.225  1.00  0.00    -0.016 C 
BRANCH  17  18
HETATM   18  C   UNL     1      11.054  -1.544  23.192  1.00  0.00    -0.026 C 
BRANCH  18  19
HETATM   19  C   UNL     1      12.028  -0.862  23.669  1.00  0.00     0.053 C 
BRANCH  19  20
HETATM   20  C   UNL     1      11.417   0.582  24.135  1.00  0.00    -0.033 C 
HETATM   21  C   UNL     1      10.872   0.839  24.848  1.00  0.00     0.007 C 
ENDBRANCH  19  20
ENDBRANCH  18  19
ENDBRANCH  17  18
ENDBRANCH   3  17
BRANCH   1  22
HETATM   22  N   UNL     1       7.716   0.083  18.848  1.00  0.00    -0.295 N 
ATOM     23  HN  UNL     1       8.430  -0.049  18.132  1.00  0.00     0.177 HD
BRANCH  22  24
HETATM   24  S   UNL     1       6.224   0.402  18.316  1.00  0.00     0.226 S 
HETATM   25  C   UNL     1       5.310   0.823  19.689  1.00  0.00     0.186 C 
HETATM   26  O   UNL     1       6.200   1.549  17.429  1.00  0.00    -0.206 OA
HETATM   27  O   UNL     1       5.582  -0.723  17.681  1.00  0.00    -0.206 OA
ENDBRANCH  22  24
ENDBRANCH   1  22
TORSDOF 8
ENDMDL
MODEL 4
REMARK VINA RESULT:    -6.308      5.546      7.605
REMARK INTER + INTRA:         -10.270
REMARK INTER:                  -9.135
REMARK INTRA:                  -1.136
REMARK UNBOUND:                -1.012
REMARK  8 active torsions:
REMARK  status: ('A' for Active; 'I' for Inactive)
REMARK    1  A    between atoms: S_2  and  N_5 
REMARK    2  A    between atoms: N_5  and  C_7 
REMARK    3  A    between atoms: C_9  and  C_10 
REMARK    4  A    between atoms: C_10  and  C_11 
REMARK    5  A    between atoms: C_11  and  C_12 
REMARK    6  A    between atoms: C_12  and  C_13 
REMARK    7  A    between atoms: C_15  and  C_16 
REMARK       I    between atoms: C_16  and  N_18 
REMARK    8  A    between atoms: N_18  and  C_20 
ROOT
HETATM    1  C   UNL     1       8.517   3.970  25.273  1.00  0.00     0.108 C 
HETATM    2  C   UNL     1       8.541   2.909  24.616  1.00  0.00    -0.017 A 
HETATM    3  C   UNL     1       8.751   1.658  24.552  1.00  0.00     0.082 A 
HETATM    4  C   UNL     1       8.479   1.610  23.371  1.00  0.00     0.031 A 
ENDROOT
BRANCH   4   5
HETATM    5  C   UNL     1       8.283   1.515  22.062  1.00  0.00     0.253 C 
HETATM    6  O   UNL     1       9.174   1.770  21.404  1.00  0.00    -0.268 OA
HETATM    7  N   UNL     1       7.046   1.153  21.758  1.00  0.00    -0.321 N 
ATOM      8  HN  UNL     1       6.372   0.977  22.504  1.00  0.00     0.169 HD
BRANCH   7   9
HETATM    9  C   UNL     1       6.702   1.026  20.571  1.00  0.00     0.056 A 
HETATM   10  C   UNL     1       7.163   0.380  19.526  1.00  0.00     0.117 A 
HETATM   11  N   UNL     1       7.108  -0.004  18.400  1.00  0.00    -0.373 N 
HETATM   12  C   UNL     1       5.925   0.685  18.045  1.00  0.00     0.088 A 
ATOM     13  HN  UNL     1       7.716  -0.626  17.866  1.00  0.00     0.164 HD
HETATM   14  C   UNL     1       5.245   1.363  18.762  1.00  0.00     0.026 A 
HETATM   15  C   UNL     1       5.387   1.678  20.089  1.00  0.00    -0.033 A 
HETATM   16  C   UNL     1       4.413   2.560  21.012  1.00  0.00     0.050 C 
ENDBRANCH   7   9
ENDBRANCH   4   5
BRANCH   3  17
HETATM   17  C   UNL     1       9.960   0.720  25.025  1.00  0.00    -0.016 C 
BRANCH  17  18
HETATM   18  C   UNL     1      11.070   0.909  24.780  1.00  0.00    -0.026 C 
BRANCH  18  19
HETATM   19  C   UNL     1      11.947   0.422  23.982  1.00  0.00     0.053 C 
BRANCH  19  20
HETATM   20  C   UNL     1      11.292  -0.923  23.320  1.00  0.00    -0.033 C 
HETATM   21  C   UNL     1      11.645  -1.602  22.784  1.00  0.00     0.007 C 
ENDBRANCH  19  20
ENDBRANCH  18  19
ENDBRANCH  17  18
ENDBRANCH   3  17
BRANCH   1  22
HETATM   22  N   UNL     1       8.733   5.161  25.457  1.00  0.00    -0.295 N 
ATOM     23  HN  UNL     1       8.546   5.512  26.396  1.00  0.00     0.177 HD
BRANCH  22  24
HETATM   24  S   UNL     1       9.281   6.242  24.389  1.00  0.00     0.226 S 
HETATM   25  C   UNL     1       8.203   6.197  23.072  1.00  0.00     0.186 C 
HETATM   26  O   UNL     1       9.241   7.592  24.916  1.00  0.00    -0.206 OA
HETATM   27  O   UNL     1      10.603   5.949  23.892  1.00  0.00    -0.206 OA
ENDBRANCH  22  24
ENDBRANCH   1  22
TORSDOF 8
ENDMDL
MODEL 5
REMARK VINA RESULT:    -6.095      3.057      4.417
REMARK INTER + INTRA:          -9.958
REMARK INTER:                  -8.795
REMARK INTRA:                  -1.163
REMARK UNBOUND:                -1.012
REMARK  8 active torsions:
REMARK  status: ('A' for Active; 'I' for Inactive)
REMARK    1  A    between atoms: S_2  and  N_5 
REMARK    2  A    between atoms: N_5  and  C_7 
REMARK    3  A    between atoms: C_9  and  C_10 
REMARK    4  A    between atoms: C_10  and  C_11 
REMARK    5  A    between atoms: C_11  and  C_12 
REMARK    6  A    between atoms: C_12  and  C_13 
REMARK    7  A    between atoms: C_15  and  C_16 
REMARK       I    between atoms: C_16  and  N_18 
REMARK    8  A    between atoms: N_18  and  C_20 
ROOT
HETATM    1  C   UNL     1      10.556  -1.420  22.483  1.00  0.00     0.108 C 
HETATM    2  C   UNL     1       9.442  -1.980  22.547  1.00  0.00    -0.017 A 
HETATM    3  C   UNL     1       8.219  -2.040  22.212  1.00  0.00     0.082 A 
HETATM    4  C   UNL     1       8.016  -3.022  22.894  1.00  0.00     0.031 A 
ENDROOT
BRANCH   4   5
HETATM    5  C   UNL     1       7.714  -4.039  23.692  1.00  0.00     0.253 C 
HETATM    6  O   UNL     1       7.814  -5.077  23.237  1.00  0.00    -0.268 OA
HETATM    7  N   UNL     1       7.323  -3.644  24.893  1.00  0.00    -0.321 N 
ATOM      8  HN  UNL     1       7.286  -2.649  25.112  1.00  0.00     0.169 HD
BRANCH   7   9
HETATM    9  C   UNL     1       7.000  -4.479  25.754  1.00  0.00     0.056 A 
HETATM   10  C   UNL     1       7.639  -5.213  26.634  1.00  0.00     0.117 A 
HETATM   11  N   UNL     1       7.696  -5.972  27.550  1.00  0.00    -0.373 N 
HETATM   12  C   UNL     1       6.306  -6.210  27.657  1.00  0.00     0.088 A 
ATOM     13  HN  UNL     1       8.488  -6.333  28.083  1.00  0.00     0.164 HD
HETATM   14  C   UNL     1       5.436  -5.698  27.011  1.00  0.00     0.026 A 
HETATM   15  C   UNL     1       5.503  -4.767  26.008  1.00  0.00    -0.033 A 
HETATM   16  C   UNL     1       4.292  -4.081  25.205  1.00  0.00     0.050 C 
ENDBRANCH   7   9
ENDBRANCH   4   5
BRANCH   3  17
HETATM   17  C   UNL     1       7.034  -0.963  22.175  1.00  0.00    -0.016 C 
BRANCH  17  18
HETATM   18  C   UNL     1       7.172   0.154  21.928  1.00  0.00    -0.026 C 
BRANCH  18  19
HETATM   19  C   UNL     1       7.911   0.854  21.149  1.00  0.00     0.053 C 
BRANCH  19  20
HETATM   20  C   UNL     1       7.938   2.373  21.756  1.00  0.00    -0.033 C 
HETATM   21  C   UNL     1       8.017   2.708  22.624  1.00  0.00     0.007 C 
ENDBRANCH  19  20
ENDBRANCH  18  19
ENDBRANCH  17  18
ENDBRANCH   3  17
BRANCH   1  22
HETATM   22  N   UNL     1      11.597  -0.973  22.948  1.00  0.00    -0.295 N 
ATOM     23  HN  UNL     1      12.456  -1.246  22.471  1.00  0.00     0.177 HD
BRANCH  22  24
HETATM   24  S   UNL     1      11.770  -0.001  24.227  1.00  0.00     0.226 S 
HETATM   25  C   UNL     1      11.500   1.581  23.662  1.00  0.00     0.186 C 
HETATM   26  O   UNL     1      10.767  -0.260  25.242  1.00  0.00    -0.206 OA
HETATM   27  O   UNL     1      13.086  -0.046  24.816  1.00  0.00    -0.206 OA
ENDBRANCH  22  24
ENDBRANCH   1  22
TORSDOF 8
ENDMDL
MODEL 6
REMARK VINA RESULT:    -6.085      1.963      2.266
REMARK INTER + INTRA:          -9.944
REMARK INTER:                  -8.407
REMARK INTRA:                  -1.536
REMARK UNBOUND:                -1.012
REMARK  8 active torsions:
REMARK  status: ('A' for Active; 'I' for Inactive)
REMARK    1  A    between atoms: S_2  and  N_5 
REMARK    2  A    between atoms: N_5  and  C_7 
REMARK    3  A    between atoms: C_9  and  C_10 
REMARK    4  A    between atoms: C_10  and  C_11 
REMARK    5  A    between atoms: C_11  and  C_12 
REMARK    6  A    between atoms: C_12  and  C_13 
REMARK    7  A    between atoms: C_15  and  C_16 
REMARK       I    between atoms: C_16  and  N_18 
REMARK    8  A    between atoms: N_18  and  C_20 
ROOT
HETATM    1  C   UNL     1       7.232   1.189  22.678  1.00  0.00     0.108 C 
HETATM    2  C   UNL     1       7.757   0.546  23.611  1.00  0.00    -0.017 A 
HETATM    3  C   UNL     1       8.532   0.497  24.615  1.00  0.00     0.082 A 
HETATM    4  C   UNL     1       8.319  -0.682  24.800  1.00  0.00     0.031 A 
ENDROOT
BRANCH   4   5
HETATM    5  C   UNL     1       8.195  -1.990  24.993  1.00  0.00     0.253 C 
HETATM    6  O   UNL     1       8.981  -2.644  24.498  1.00  0.00    -0.268 OA
HETATM    7  N   UNL     1       7.137  -2.297  25.727  1.00  0.00    -0.321 N 
ATOM      8  HN  UNL     1       6.530  -1.555  26.078  1.00  0.00     0.169 HD
BRANCH   7   9
HETATM    9  C   UNL     1       6.879  -3.483  25.992  1.00  0.00     0.056 A 
HETATM   10  C   UNL     1       7.287  -4.354  26.886  1.00  0.00     0.117 A 
HETATM   11  N   UNL     1       7.253  -5.406  27.443  1.00  0.00    -0.373 N 
HETATM   12  C   UNL     1       6.272  -6.002  26.615  1.00  0.00     0.088 A 
ATOM     13  HN  UNL     1       7.764  -5.762  28.251  1.00  0.00     0.164 HD
HETATM   14  C   UNL     1       5.686  -5.485  25.707  1.00  0.00     0.026 A 
HETATM   15  C   UNL     1       5.774  -4.215  25.199  1.00  0.00    -0.033 A 
HETATM   16  C   UNL     1       4.925  -3.562  24.002  1.00  0.00     0.050 C 
ENDBRANCH   7   9
ENDBRANCH   4   5
BRANCH   3  17
HETATM   17  C   UNL     1      10.039   0.978  24.865  1.00  0.00    -0.016 C 
BRANCH  17  18
HETATM   18  C   UNL     1      10.948   0.633  24.246  1.00  0.00    -0.026 C 
BRANCH  18  19
HETATM   19  C   UNL     1      12.017  -0.042  24.454  1.00  0.00     0.053 C 
BRANCH  19  20
HETATM   20  C   UNL     1      12.041  -1.248  23.349  1.00  0.00    -0.033 C 
HETATM   21  C   UNL     1      11.539  -1.412  22.579  1.00  0.00     0.007 C 
ENDBRANCH  19  20
ENDBRANCH  18  19
ENDBRANCH  17  18
ENDBRANCH   3  17
BRANCH   1  22
HETATM   22  N   UNL     1       6.860   1.358  21.524  1.00  0.00    -0.295 N 
ATOM     23  HN  UNL     1       6.514   2.289  21.294  1.00  0.00     0.177 HD
BRANCH  22  24
HETATM   24  S   UNL     1       6.853   0.279  20.321  1.00  0.00     0.226 S 
HETATM   25  C   UNL     1       5.616   0.761  19.256  1.00  0.00     0.186 C 
HETATM   26  O   UNL     1       8.090   0.304  19.565  1.00  0.00    -0.206 OA
HETATM   27  O   UNL     1       6.570  -1.069  20.752  1.00  0.00    -0.206 OA
ENDBRANCH  22  24
ENDBRANCH   1  22
TORSDOF 8
ENDMDL
MODEL 7
REMARK VINA RESULT:    -6.058      3.783      5.463
REMARK INTER + INTRA:          -9.903
REMARK INTER:                  -8.350
REMARK INTRA:                  -1.554
REMARK UNBOUND:                -1.012
REMARK  8 active torsions:
REMARK  status: ('A' for Active; 'I' for Inactive)
REMARK    1  A    between atoms: S_2  and  N_5 
REMARK    2  A    between atoms: N_5  and  C_7 
REMARK    3  A    between atoms: C_9  and  C_10 
REMARK    4  A    between atoms: C_10  and  C_11 
REMARK    5  A    between atoms: C_11  and  C_12 
REMARK    6  A    between atoms: C_12  and  C_13 
REMARK    7  A    between atoms: C_15  and  C_16 
REMARK       I    between atoms: C_16  and  N_18 
REMARK    8  A    between atoms: N_18  and  C_20 
ROOT
HETATM    1  C   UNL     1       8.652   2.359  21.970  1.00  0.00     0.108 C 
HETATM    2  C   UNL     1       8.515   1.144  21.716  1.00  0.00    -0.017 A 
HETATM    3  C   UNL     1       8.528   0.184  20.886  1.00  0.00     0.082 A 
HETATM    4  C   UNL     1       8.220  -0.632  21.729  1.00  0.00     0.031 A 
ENDROOT
BRANCH   4   5
HETATM    5  C   UNL     1       7.796  -1.550  22.589  1.00  0.00     0.253 C 
HETATM    6  O   UNL     1       6.670  -1.698  22.645  1.00  0.00    -0.268 OA
HETATM    7  N   UNL     1       8.787  -2.121  23.253  1.00  0.00    -0.321 N 
ATOM      8  HN  UNL     1       9.751  -1.839  23.068  1.00  0.00     0.169 HD
BRANCH   7   9
HETATM    9  C   UNL     1       8.553  -2.998  24.101  1.00  0.00     0.056 A 
HETATM   10  C   UNL     1       8.348  -4.294  24.076  1.00  0.00     0.117 A 
HETATM   11  N   UNL     1       8.181  -5.358  24.587  1.00  0.00    -0.373 N 
HETATM   12  C   UNL     1       8.128  -4.896  25.923  1.00  0.00     0.088 A 
ATOM     13  HN  UNL     1       8.101  -6.294  24.190  1.00  0.00     0.164 HD
HETATM   14  C   UNL     1       8.282  -3.770  26.302  1.00  0.00     0.026 A 
HETATM   15  C   UNL     1       8.541  -2.621  25.600  1.00  0.00    -0.033 A 
HETATM   16  C   UNL     1       8.783  -1.140  26.170  1.00  0.00     0.050 C 
ENDBRANCH   7   9
ENDBRANCH   4   5
BRANCH   3  17
HETATM   17  C   UNL     1       7.871  -0.029  19.441  1.00  0.00    -0.016 C 
BRANCH  17  18
HETATM   18  C   UNL     1       6.892   0.466  19.087  1.00  0.00    -0.026 C 
BRANCH  18  19
HETATM   19  C   UNL     1       5.637   0.302  19.288  1.00  0.00     0.053 C 
BRANCH  19  20
HETATM   20  C   UNL     1       5.046   1.738  19.803  1.00  0.00    -0.033 C 
HETATM   21  C   UNL     1       5.127   2.205  20.607  1.00  0.00     0.007 C 
ENDBRANCH  19  20
ENDBRANCH  18  19
ENDBRANCH  17  18
ENDBRANCH   3  17
BRANCH   1  22
HETATM   22  N   UNL     1       8.337   3.423  22.488  1.00  0.00    -0.295 N 
ATOM     23  HN  UNL     1       7.502   3.875  22.115  1.00  0.00     0.177 HD
BRANCH  22  24
HETATM   24  S   UNL     1       9.086   4.194  23.694  1.00  0.00     0.226 S 
HETATM   25  C   UNL     1       8.274   3.747  25.121  1.00  0.00     0.186 C 
HETATM   26  O   UNL     1      10.461   3.760  23.840  1.00  0.00    -0.206 OA
HETATM   27  O   UNL     1       9.035   5.632  23.583  1.00  0.00    -0.206 OA
ENDBRANCH  22  24
ENDBRANCH   1  22
TORSDOF 8
ENDMDL
MODEL 8
REMARK VINA RESULT:    -6.015      1.927      2.419
REMARK INTER + INTRA:          -9.840
REMARK INTER:                  -8.692
REMARK INTRA:                  -1.148
REMARK UNBOUND:                -1.012
REMARK  8 active torsions:
REMARK  status: ('A' for Active; 'I' for Inactive)
REMARK    1  A    between atoms: S_2  and  N_5 
REMARK    2  A    between atoms: N_5  and  C_7 
REMARK    3  A    between atoms: C_9  and  C_10 
REMARK    4  A    between atoms: C_10  and  C_11 
REMARK    5  A    between atoms: C_11  and  C_12 
REMARK    6  A    between atoms: C_12  and  C_13 
REMARK    7  A    between atoms: C_15  and  C_16 
REMARK       I    between atoms: C_16  and  N_18 
REMARK    8  A    between atoms: N_18  and  C_20 
ROOT
HETATM    1  C   UNL     1       6.836   0.858  21.566  1.00  0.00     0.108 C 
HETATM    2  C   UNL     1       7.349   0.057  22.375  1.00  0.00    -0.017 A 
HETATM    3  C   UNL     1       8.208  -0.202  23.272  1.00  0.00     0.082 A 
HETATM    4  C   UNL     1       7.834  -1.350  23.387  1.00  0.00     0.031 A 
ENDROOT
BRANCH   4   5
HETATM    5  C   UNL     1       7.528  -2.638  23.488  1.00  0.00     0.253 C 
HETATM    6  O   UNL     1       8.395  -3.366  23.391  1.00  0.00    -0.268 OA
HETATM    7  N   UNL     1       6.232  -2.840  23.666  1.00  0.00    -0.321 N 
ATOM      8  HN  UNL     1       5.597  -2.043  23.715  1.00  0.00     0.169 HD
BRANCH   7   9
HETATM    9  C   UNL     1       5.785  -3.994  23.772  1.00  0.00     0.056 A 
HETATM   10  C   UNL     1       5.374  -4.920  22.939  1.00  0.00     0.117 A 
HETATM   11  N   UNL     1       4.991  -6.015  22.664  1.00  0.00    -0.373 N 
HETATM   12  C   UNL     1       4.901  -6.498  23.991  1.00  0.00     0.088 A 
ATOM     13  HN  UNL     1       4.792  -6.457  21.767  1.00  0.00     0.164 HD
HETATM   14  C   UNL     1       5.205  -5.914  24.992  1.00  0.00     0.026 A 
HETATM   15  C   UNL     1       5.708  -4.651  25.169  1.00  0.00    -0.033 A 
HETATM   16  C   UNL     1       6.141  -3.936  26.540  1.00  0.00     0.050 C 
ENDBRANCH   7   9
ENDBRANCH   4   5
BRANCH   3  17
HETATM   17  C   UNL     1       9.790   0.026  23.380  1.00  0.00    -0.016 C 
BRANCH  17  18
HETATM   18  C   UNL     1      10.575  -0.510  22.728  1.00  0.00    -0.026 C 
BRANCH  18  19
HETATM   19  C   UNL     1      11.499  -1.381  22.906  1.00  0.00     0.053 C 
BRANCH  19  20
HETATM   20  C   UNL     1      12.507  -0.780  24.045  1.00  0.00    -0.033 C 
HETATM   21  C   UNL     1      13.417  -0.573  24.041  1.00  0.00     0.007 C 
ENDBRANCH  19  20
ENDBRANCH  18  19
ENDBRANCH  17  18
ENDBRANCH   3  17
BRANCH   1  22
HETATM   22  N   UNL     1       6.376   1.191  20.481  1.00  0.00    -0.295 N 
ATOM     23  HN  UNL     1       5.815   2.043  20.473  1.00  0.00     0.177 HD
BRANCH  22  24
HETATM   24  S   UNL     1       6.552   0.441  19.062  1.00  0.00     0.226 S 
HETATM   25  C   UNL     1       5.687  -1.020  19.185  1.00  0.00     0.186 C 
HETATM   26  O   UNL     1       5.954   1.192  17.975  1.00  0.00    -0.206 OA
HETATM   27  O   UNL     1       7.922   0.121  18.741  1.00  0.00    -0.206 OA
ENDBRANCH  22  24
ENDBRANCH   1  22
TORSDOF 8
ENDMDL
MODEL 9
REMARK VINA RESULT:    -5.963     27.437     30.407
REMARK INTER + INTRA:          -9.764
REMARK INTER:                  -8.315
REMARK INTRA:                  -1.449
REMARK UNBOUND:                -1.012
REMARK  8 active torsions:
REMARK  status: ('A' for Active; 'I' for Inactive)
REMARK    1  A    between atoms: S_2  and  N_5 
REMARK    2  A    between atoms: N_5  and  C_7 
REMARK    3  A    between atoms: C_9  and  C_10 
REMARK    4  A    between atoms: C_10  and  C_11 
REMARK    5  A    between atoms: C_11  and  C_12 
REMARK    6  A    between atoms: C_12  and  C_13 
REMARK    7  A    between atoms: C_15  and  C_16 
REMARK       I    between atoms: C_16  and  N_18 
REMARK    8  A    between atoms: N_18  and  C_20 
ROOT
HETATM    1  C   UNL     1      11.403  20.192   2.327  1.00  0.00     0.108 C 
HETATM    2  C   UNL     1      10.478  19.871   1.553  1.00  0.00    -0.017 A 
HETATM    3  C   UNL     1       9.724  20.139   0.568  1.00  0.00     0.082 A 
HETATM    4  C   UNL     1       9.125  19.089   0.661  1.00  0.00     0.031 A 
ENDROOT
BRANCH   4   5
HETATM    5  C   UNL     1       8.376  17.999   0.773  1.00  0.00     0.253 C 
HETATM    6  O   UNL     1       7.466  17.946   0.094  1.00  0.00    -0.268 OA
HETATM    7  N   UNL     1       8.828  17.164   1.695  1.00  0.00    -0.321 N 
ATOM      8  HN  UNL     1       9.672  17.397   2.220  1.00  0.00     0.169 HD
BRANCH   7   9
HETATM    9  C   UNL     1       8.233  16.098   1.924  1.00  0.00     0.056 A 
HETATM   10  C   UNL     1       8.275  14.878   1.443  1.00  0.00     0.117 A 
HETATM   11  N   UNL     1       7.972  13.726   1.427  1.00  0.00    -0.373 N 
HETATM   12  C   UNL     1       7.015  13.791   2.467  1.00  0.00     0.088 A 
ATOM     13  HN  UNL     1       8.296  12.948   0.852  1.00  0.00     0.164 HD
HETATM   14  C   UNL     1       6.732  14.751   3.126  1.00  0.00     0.026 A 
HETATM   15  C   UNL     1       7.215  16.033   3.085  1.00  0.00    -0.033 A 
HETATM   16  C   UNL     1       6.827  17.273   4.030  1.00  0.00     0.050 C 
ENDBRANCH   7   9
ENDBRANCH   4   5
BRANCH   3  17
HETATM   17  C   UNL     1       8.835  21.414   0.178  1.00  0.00    -0.016 C 
BRANCH  17  18
HETATM   18  C   UNL     1       7.691  21.397   0.040  1.00  0.00    -0.026 C 
BRANCH  18  19
HETATM   19  C   UNL     1       6.681  22.010   0.536  1.00  0.00     0.053 C 
BRANCH  19  20
HETATM   20  C   UNL     1       5.872  20.927   1.457  1.00  0.00    -0.033 C 
HETATM   21  C   UNL     1       6.062  20.525   2.277  1.00  0.00     0.007 C 
ENDBRANCH  19  20
ENDBRANCH  18  19
ENDBRANCH  17  18
ENDBRANCH   3  17
BRANCH   1  22
HETATM   22  N   UNL     1      11.942  20.300   3.422  1.00  0.00    -0.295 N 
ATOM     23  HN  UNL     1      12.323  21.218   3.648  1.00  0.00     0.177 HD
BRANCH  22  24
HETATM   24  S   UNL     1      12.120  19.158   4.551  1.00  0.00     0.226 S 
HETATM   25  C   UNL     1      12.748  19.941   5.925  1.00  0.00     0.186 C 
HETATM   26  O   UNL     1      10.848  18.581   4.941  1.00  0.00    -0.206 OA
HETATM   27  O   UNL     1      13.038  18.110   4.176  1.00  0.00    -0.206 OA
ENDBRANCH  22  24
ENDBRANCH   1  22
TORSDOF 8
ENDMDL
