stable:False satoms:6 tatoms:24 sratio:0.25
  -OEChem-07092417443D

 24 24  0     0  0  0  0  0  0999 V2000
    6.6416   -4.8420   26.3848 C   0  0  0  0  0  0  0  0  0  0  0  0
    8.1842   -4.3111   26.0829 S   0  0  0  0  0  0  0  0  0  0  0  0
    9.0713   -5.4457   26.0151 O   0  0  0  0  0  0  0  0  0  0  0  0
    8.6086   -3.4049   27.0897 O   0  0  0  0  0  0  0  0  0  0  0  0
    8.1170   -3.5921   24.6221 N   0  0  0  0  0  0  0  0  0  0  0  0
    8.9829   -2.9017   24.1642 C   0  0  0  0  0  0  0  0  0  0  0  0
    9.4186   -2.1003   23.6004 C   0  0  0  0  0  0  0  0  0  0  0  0
   10.2324   -1.3736   23.0451 C   0  0  0  0  0  0  0  0  0  0  0  0
   11.1924    0.2206   24.5196 C   0  0  0  0  0  0  0  0  0  0  0  0
   12.0713    0.2809   24.2684 C   0  0  0  0  0  0  0  0  0  0  0  0
   13.0381   -0.1780   23.5254 C   0  0  0  0  0  0  0  0  0  0  0  0
   12.6551   -1.2470   22.7011 C   0  0  0  0  0  0  0  0  0  0  0  0
   11.7313   -1.6699   22.5496 C   0  0  0  0  0  0  0  0  0  0  0  0
    9.6792   -0.5628   22.3380 C   0  0  0  0  0  0  0  0  0  0  0  0
    9.0539    0.0264   21.3825 C   0  0  0  0  0  0  0  0  0  0  0  0
    9.5599    0.9455   20.9640 O   0  0  0  0  0  0  0  0  0  0  0  0
    7.9132   -0.6311   21.0633 N   0  0  0  0  0  0  0  0  0  0  0  0
    7.2289   -0.1067   20.1863 C   0  0  0  0  0  0  0  0  0  0  0  0
    7.2135    0.0422   18.8666 C   0  0  0  0  0  0  0  0  0  0  0  0
    6.7783    0.3471   17.7709 N   0  0  0  0  0  0  0  0  0  0  0  0
    5.7159    0.9026   18.2918 C   0  0  0  0  0  0  0  0  0  0  0  0
    5.3075    1.0082   19.4254 C   0  0  0  0  0  0  0  0  0  0  0  0
    5.8098    0.5999   20.5674 C   0  0  0  0  0  0  0  0  0  0  0  0
    5.3790    0.7033   21.8720 C   0  0  0  0  0  0  0  0  0  0  0  0
 20 21  2  0  0  0  0
 19 20  1  0  0  0  0
 21 22  1  0  0  0  0
 18 19  2  0  0  0  0
 22 23  2  0  0  0  0
 18 23  1  0  0  0  0
 17 18  1  0  0  0  0
 23 24  1  0  0  0  0
 15 16  2  0  0  0  0
 15 17  1  0  0  0  0
 14 15  1  0  0  0  0
  8 14  2  3  0  0  0
 12 13  2  0  0  0  0
  8 13  1  0  0  0  0
 11 12  1  0  0  0  0
  7  8  1  0  0  0  0
 10 11  1  0  0  0  0
  6  7  3  0  0  0  0
  5  6  1  0  0  0  0
  9 10  2  0  0  0  0
  2  5  1  0  0  0  0
  2  3  2  0  0  0  0
  1  2  1  0  0  0  0
  2  4  2  0  0  0  0
M  END
> <Shapegauss>
-290.545197

$$$$
