stable:False satoms:6 tatoms:24 sratio:0.25
  -OEChem-08062412503D

 43 43  0     0  0  0  0  0  0999 V2000
    6.5945   -5.2655   26.1548 C   0  0  0  0  0  0  0  0  0  0  0  0
    8.1260   -4.6487   25.9915 S   0  0  0  0  0  0  0  0  0  0  0  0
    9.0676   -5.7365   25.8970 O   0  0  0  0  0  0  0  0  0  0  0  0
    8.4461   -3.8049   27.0871 O   0  0  0  0  0  0  0  0  0  0  0  0
    8.1134   -3.8239   24.5862 N   0  0  0  0  0  0  0  0  0  0  0  0
    8.9721   -3.0648   24.2362 C   0  0  0  0  0  0  0  0  0  0  0  0
    9.4031   -2.2051   23.7617 C   0  0  0  0  0  0  0  0  0  0  0  0
   10.2141   -1.4046   23.3142 C   0  0  0  0  0  0  0  0  0  0  0  0
   11.0079    0.1115   24.9600 C   0  0  0  0  0  0  0  0  0  0  0  0
   11.8966    0.2277   24.7703 C   0  0  0  0  0  0  0  0  0  0  0  0
   12.9268   -0.1321   24.0585 C   0  0  0  0  0  0  0  0  0  0  0  0
   12.6445   -1.1503   23.1352 C   0  0  0  0  0  0  0  0  0  0  0  0
   11.7523   -1.5989   22.8946 C   0  0  0  0  0  0  0  0  0  0  0  0
    9.6672   -0.5662   22.6349 C   0  0  0  0  0  0  0  0  0  0  0  0
    9.0738    0.0673   21.6874 C   0  0  0  0  0  0  0  0  0  0  0  0
    9.5606    1.0361   21.3707 O   0  0  0  0  0  0  0  0  0  0  0  0
    7.9864   -0.6113   21.2489 N   0  0  0  0  0  0  0  0  0  0  0  0
    7.3324   -0.0508   20.3711 C   0  0  0  0  0  0  0  0  0  0  0  0
    7.3896    0.1975   19.0676 C   0  0  0  0  0  0  0  0  0  0  0  0
    7.0075    0.5665   17.9718 N   0  0  0  0  0  0  0  0  0  0  0  0
    5.8908    1.0355   18.4635 C   0  0  0  0  0  0  0  0  0  0  0  0
    5.4104    1.0370   19.5735 C   0  0  0  0  0  0  0  0  0  0  0  0
    5.8615    0.5643   20.7120 C   0  0  0  0  0  0  0  0  0  0  0  0
    5.3485    0.5497   21.9907 C   0  0  0  0  0  0  0  0  0  0  0  0
    6.5279   -5.8401   27.0904 H   0  0  0  0  0  0  0  0  0  0  0  0
    5.8676   -4.4402   26.1790 H   0  0  0  0  0  0  0  0  0  0  0  0
    6.3722   -5.9251   25.3030 H   0  0  0  0  0  0  0  0  0  0  0  0
    7.2691   -3.2881   24.5967 H   0  0  0  0  0  0  0  0  0  0  0  0
   10.4331   -0.6279   24.4221 H   0  0  0  0  0  0  0  0  0  0  0  0
   10.5350    0.7139   25.7215 H   0  0  0  0  0  0  0  0  0  0  0  0
   12.2446    1.0099   25.4286 H   0  0  0  0  0  0  0  0  0  0  0  0
   13.7127   -0.4892   24.7403 H   0  0  0  0  0  0  0  0  0  0  0  0
   13.2918    0.7465   23.5064 H   0  0  0  0  0  0  0  0  0  0  0  0
   13.5009   -1.5210   22.5915 H   0  0  0  0  0  0  0  0  0  0  0  0
   11.8804   -2.4006   22.1824 H   0  0  0  0  0  0  0  0  0  0  0  0
    9.7068    0.2445   23.3473 H   0  0  0  0  0  0  0  0  0  0  0  0
    7.7327   -1.5070   21.6141 H   0  0  0  0  0  0  0  0  0  0  0  0
    8.3932   -0.1288   18.8381 H   0  0  0  0  0  0  0  0  0  0  0  0
    5.2689    1.5219   17.7266 H   0  0  0  0  0  0  0  0  0  0  0  0
    4.4415    1.5097   19.6394 H   0  0  0  0  0  0  0  0  0  0  0  0
    4.7699   -0.3732   22.1437 H   0  0  0  0  0  0  0  0  0  0  0  0
    6.1735    0.5898   22.7171 H   0  0  0  0  0  0  0  0  0  0  0  0
    4.6925    1.4213   22.1324 H   0  0  0  0  0  0  0  0  0  0  0  0
 20 21  2  0  0  0  0
 19 20  1  0  0  0  0
 21 22  1  0  0  0  0
 18 19  2  0  0  0  0
 22 23  2  0  0  0  0
 18 23  1  0  0  0  0
 17 18  1  0  0  0  0
 23 24  1  0  0  0  0
 15 16  2  0  0  0  0
 15 17  1  0  0  0  0
 14 15  1  0  0  0  0
  8 14  2  3  0  0  0
 12 13  2  0  0  0  0
  8 13  1  0  0  0  0
 11 12  1  0  0  0  0
  7  8  1  0  0  0  0
 10 11  1  0  0  0  0
  6  7  3  0  0  0  0
  5  6  1  0  0  0  0
  9 10  2  0  0  0  0
  2  5  1  0  0  0  0
  2  3  2  0  0  0  0
  1  2  1  0  0  0  0
  2  4  2  0  0  0  0
  1 25  1  0  0  0  0
  1 26  1  0  0  0  0
  1 27  1  0  0  0  0
  5 28  1  0  0  0  0
  9 29  1  0  0  0  0
  9 30  1  0  0  0  0
 10 31  1  0  0  0  0
 11 32  1  0  0  0  0
 11 33  1  0  0  0  0
 12 34  1  0  0  0  0
 13 35  1  0  0  0  0
 14 36  1  0  0  0  0
 17 37  1  0  0  0  0
 19 38  1  0  0  0  0
 21 39  1  0  0  0  0
 22 40  1  0  0  0  0
 24 41  1  0  0  0  0
 24 42  1  0  0  0  0
 24 43  1  0  0  0  0
M  END
> <Chemgauss4>
-13.281484

$$$$
