stable:False satoms:6 tatoms:24 sratio:0.25
  -OEChem-08062412503D

 43 43  0     0  0  0  0  0  0999 V2000
   -6.7117   -5.3036  -26.0793 C   0  0  0  0  0  0  0  0  0  0  0  0
   -8.2432   -4.6868  -25.9160 S   0  0  0  0  0  0  0  0  0  0  0  0
   -9.1848   -5.7746  -25.8215 O   0  0  0  0  0  0  0  0  0  0  0  0
   -8.5634   -3.8430  -27.0116 O   0  0  0  0  0  0  0  0  0  0  0  0
   -8.2306   -3.8620  -24.5107 N   0  0  0  0  0  0  0  0  0  0  0  0
   -9.0894   -3.1028  -24.1607 C   0  0  0  0  0  0  0  0  0  0  0  0
   -9.5203   -2.2432  -23.6862 C   0  0  0  0  0  0  0  0  0  0  0  0
  -10.3313   -1.4427  -23.2387 C   0  0  0  0  0  0  0  0  0  0  0  0
  -11.1252    0.0734  -24.8845 C   0  0  0  0  0  0  0  0  0  0  0  0
  -12.0138    0.1896  -24.6948 C   0  0  0  0  0  0  0  0  0  0  0  0
  -13.0440   -0.1702  -23.9831 C   0  0  0  0  0  0  0  0  0  0  0  0
  -12.7617   -1.1884  -23.0597 C   0  0  0  0  0  0  0  0  0  0  0  0
  -11.8695   -1.6370  -22.8191 C   0  0  0  0  0  0  0  0  0  0  0  0
   -9.7844   -0.6043  -22.5594 C   0  0  0  0  0  0  0  0  0  0  0  0
   -9.1910    0.0292  -21.6119 C   0  0  0  0  0  0  0  0  0  0  0  0
   -9.6778    0.9980  -21.2952 O   0  0  0  0  0  0  0  0  0  0  0  0
   -8.1036   -0.6494  -21.1734 N   0  0  0  0  0  0  0  0  0  0  0  0
   -7.4496   -0.0889  -20.2956 C   0  0  0  0  0  0  0  0  0  0  0  0
   -7.5068    0.1594  -18.9921 C   0  0  0  0  0  0  0  0  0  0  0  0
   -7.1247    0.5284  -17.8963 N   0  0  0  0  0  0  0  0  0  0  0  0
   -6.0080    0.9974  -18.3880 C   0  0  0  0  0  0  0  0  0  0  0  0
   -5.5276    0.9990  -19.4980 C   0  0  0  0  0  0  0  0  0  0  0  0
   -5.9787    0.5262  -20.6365 C   0  0  0  0  0  0  0  0  0  0  0  0
   -5.4657    0.5116  -21.9152 C   0  0  0  0  0  0  0  0  0  0  0  0
   -6.6451   -5.8782  -27.0149 H   0  0  0  0  0  0  0  0  0  0  0  0
   -5.9848   -4.4783  -26.1035 H   0  0  0  0  0  0  0  0  0  0  0  0
   -6.4894   -5.9631  -25.2275 H   0  0  0  0  0  0  0  0  0  0  0  0
   -7.3864   -3.3262  -24.5212 H   0  0  0  0  0  0  0  0  0  0  0  0
  -10.5504   -0.6659  -24.3466 H   0  0  0  0  0  0  0  0  0  0  0  0
  -10.6523    0.6758  -25.6460 H   0  0  0  0  0  0  0  0  0  0  0  0
  -12.3618    0.9718  -25.3532 H   0  0  0  0  0  0  0  0  0  0  0  0
  -13.8299   -0.5273  -24.6648 H   0  0  0  0  0  0  0  0  0  0  0  0
  -13.4090    0.7084  -23.4309 H   0  0  0  0  0  0  0  0  0  0  0  0
  -13.6181   -1.5591  -22.5160 H   0  0  0  0  0  0  0  0  0  0  0  0
  -11.9976   -2.4387  -22.1069 H   0  0  0  0  0  0  0  0  0  0  0  0
   -9.8240    0.2064  -23.2718 H   0  0  0  0  0  0  0  0  0  0  0  0
   -7.8499   -1.5451  -21.5386 H   0  0  0  0  0  0  0  0  0  0  0  0
   -8.5105   -0.1669  -18.7626 H   0  0  0  0  0  0  0  0  0  0  0  0
   -5.3861    1.4838  -17.6511 H   0  0  0  0  0  0  0  0  0  0  0  0
   -4.5587    1.4716  -19.5639 H   0  0  0  0  0  0  0  0  0  0  0  0
   -4.8871   -0.4113  -22.0682 H   0  0  0  0  0  0  0  0  0  0  0  0
   -6.2907    0.5517  -22.6416 H   0  0  0  0  0  0  0  0  0  0  0  0
   -4.8097    1.3832  -22.0569 H   0  0  0  0  0  0  0  0  0  0  0  0
 20 21  2  0  0  0  0
 19 20  1  0  0  0  0
 21 22  1  0  0  0  0
 18 19  2  0  0  0  0
 22 23  2  0  0  0  0
 18 23  1  0  0  0  0
 17 18  1  0  0  0  0
 23 24  1  0  0  0  0
 15 16  2  0  0  0  0
 15 17  1  0  0  0  0
 14 15  1  0  0  0  0
  8 14  2  3  0  0  0
 12 13  2  0  0  0  0
  8 13  1  0  0  0  0
 11 12  1  0  0  0  0
  7  8  1  0  0  0  0
 10 11  1  0  0  0  0
  6  7  3  0  0  0  0
  5  6  1  0  0  0  0
  9 10  2  0  0  0  0
  2  5  1  0  0  0  0
  2  3  2  0  0  0  0
  1  2  1  0  0  0  0
  2  4  2  0  0  0  0
  1 25  1  0  0  0  0
  1 26  1  0  0  0  0
  1 27  1  0  0  0  0
  5 28  1  0  0  0  0
  9 29  1  0  0  0  0
  9 30  1  0  0  0  0
 10 31  1  0  0  0  0
 11 32  1  0  0  0  0
 11 33  1  0  0  0  0
 12 34  1  0  0  0  0
 13 35  1  0  0  0  0
 14 36  1  0  0  0  0
 17 37  1  0  0  0  0
 19 38  1  0  0  0  0
 21 39  1  0  0  0  0
 22 40  1  0  0  0  0
 24 41  1  0  0  0  0
 24 42  1  0  0  0  0
 24 43  1  0  0  0  0
M  END
> <Chemgauss4>
-13.540420

$$$$
