stable:False satoms:7 tatoms:24 sratio:0.2916666666666667
  -OEChem-07092417463D

 24 25  0     1  0  0  0  0  0999 V2000
    6.7212   -4.8114   26.4008 C   0  0  0  0  0  0  0  0  0  0  0  0
    8.1562   -4.3142   26.1287 S   0  0  0  0  0  0  0  0  0  0  0  0
    9.0796   -5.4447   26.0612 O   0  0  0  0  0  0  0  0  0  0  0  0
    8.6009   -3.3734   27.1362 O   0  0  0  0  0  0  0  0  0  0  0  0
    8.0817   -3.6010   24.6721 N   0  0  0  0  0  0  0  0  0  0  0  0
    8.9453   -2.9107   24.1614 C   0  0  0  0  0  0  0  0  0  0  0  0
    9.4146   -2.0148   23.5454 C   0  0  0  0  0  0  0  0  0  0  0  0
   10.3790   -1.1733   23.2198 C   0  0  1  0  0  0  0  0  0  0  0  0
   11.0656    0.0232   24.2972 C   0  0  0  0  0  0  0  0  0  0  0  0
   12.0439    0.3002   24.2725 C   0  0  0  0  0  0  0  0  0  0  0  0
   13.1375   -0.2096   23.4244 C   0  0  0  0  0  0  0  0  0  0  0  0
   12.8290   -1.2326   22.6706 C   0  0  0  0  0  0  0  0  0  0  0  0
   11.7635   -1.6790   22.6092 C   0  0  0  0  0  0  0  0  0  0  0  0
    9.7234   -0.6301   22.3757 C   0  0  0  0  0  0  0  0  0  0  0  0
    9.0526    0.0271   21.3830 C   0  0  0  0  0  0  0  0  0  0  0  0
    9.5818    0.9667   20.9339 O   0  0  0  0  0  0  0  0  0  0  0  0
    7.9055   -0.5743   21.1135 N   0  0  0  0  0  0  0  0  0  0  0  0
    7.2042   -0.0682   20.1770 C   0  0  0  0  0  0  0  0  0  0  0  0
    7.1990    0.0397   18.8858 C   0  0  0  0  0  0  0  0  0  0  0  0
    6.7463    0.2919   17.7507 N   0  0  0  0  0  0  0  0  0  0  0  0
    5.6218    0.8572   18.2566 C   0  0  0  0  0  0  0  0  0  0  0  0
    5.2351    0.9738   19.3896 C   0  0  0  0  0  0  0  0  0  0  0  0
    5.7886    0.5817   20.5677 C   0  0  0  0  0  0  0  0  0  0  0  0
    5.3080    0.6857   21.8637 C   0  0  0  0  0  0  0  0  0  0  0  0
 20 21  2  0  0  0  0
 19 20  1  0  0  0  0
 21 22  1  0  0  0  0
 18 19  2  0  0  0  0
 22 23  2  0  0  0  0
 18 23  1  0  0  0  0
 17 18  1  0  0  0  0
 23 24  1  0  0  0  0
 15 16  2  0  0  0  0
 15 17  1  0  0  0  0
 14 15  1  0  0  0  0
  8 14  1  0  0  0  0
 12 13  1  0  0  0  0
  8 13  1  0  0  0  0
 11 12  2  0  0  0  0
  7  8  1  0  0  0  0
  8  9  1  0  0  0  0
 10 11  1  0  0  0  0
  6  7  2  0  0  0  0
  5  6  1  0  0  0  0
  9 10  2  0  0  0  0
  2  5  1  0  0  0  0
  2  3  2  0  0  0  0
  1  2  1  0  0  0  0
  2  4  2  0  0  0  0
M  END
> <Shapegauss>
-287.584015

$$$$
