stable:False satoms:7 tatoms:24 sratio:0.2916666666666667
  -OEChem-08062413313D

 45 46  0     1  0  0  0  0  0999 V2000
   -5.9016   -5.2230  -25.8013 C   0  0  0  0  0  0  0  0  0  0  0  0
   -7.3637   -4.7365  -25.7247 S   0  0  0  0  0  0  0  0  0  0  0  0
   -8.2761   -5.8775  -25.6927 O   0  0  0  0  0  0  0  0  0  0  0  0
   -7.7010   -3.8660  -26.8321 O   0  0  0  0  0  0  0  0  0  0  0  0
   -7.4639   -3.9360  -24.3157 N   0  0  0  0  0  0  0  0  0  0  0  0
   -8.3879   -3.2321  -23.9496 C   0  0  0  0  0  0  0  0  0  0  0  0
   -8.9344   -2.3096  -23.4471 C   0  0  0  0  0  0  0  0  0  0  0  0
   -9.9390   -1.4677  -23.2853 C   0  0  1  0  0  0  0  0  0  0  0  0
  -10.5115   -0.3506  -24.5052 C   0  0  0  0  0  0  0  0  0  0  0  0
  -11.4893   -0.0904  -24.6085 C   0  0  0  0  0  0  0  0  0  0  0  0
  -12.6668   -0.5682  -23.8600 C   0  0  0  0  0  0  0  0  0  0  0  0
  -12.4349   -1.5384  -23.0145 C   0  0  0  0  0  0  0  0  0  0  0  0
  -11.3784   -1.9609  -22.8054 C   0  0  0  0  0  0  0  0  0  0  0  0
   -9.3902   -0.8631  -22.4074 C   0  0  0  0  0  0  0  0  0  0  0  0
   -8.8445   -0.1355  -21.3875 C   0  0  0  0  0  0  0  0  0  0  0  0
   -9.4320    0.8195  -21.0600 O   0  0  0  0  0  0  0  0  0  0  0  0
   -7.7290   -0.6988  -20.9533 N   0  0  0  0  0  0  0  0  0  0  0  0
   -7.1449   -0.1249  -19.9764 C   0  0  0  0  0  0  0  0  0  0  0  0
   -7.2883    0.0603  -18.7020 C   0  0  0  0  0  0  0  0  0  0  0  0
   -6.9710    0.3882  -17.5407 N   0  0  0  0  0  0  0  0  0  0  0  0
   -5.8025    0.9425  -17.9498 C   0  0  0  0  0  0  0  0  0  0  0  0
   -5.2903    0.9980  -19.0367 C   0  0  0  0  0  0  0  0  0  0  0  0
   -5.7013    0.5260  -20.2435 C   0  0  0  0  0  0  0  0  0  0  0  0
   -5.0771    0.5608  -21.4807 C   0  0  0  0  0  0  0  0  0  0  0  0
   -5.7488   -5.7808  -26.7370 H   0  0  0  0  0  0  0  0  0  0  0  0
   -5.2250   -4.3560  -25.7768 H   0  0  0  0  0  0  0  0  0  0  0  0
   -5.6881   -5.8790  -24.9445 H   0  0  0  0  0  0  0  0  0  0  0  0
   -6.6599   -3.3418  -24.2959 H   0  0  0  0  0  0  0  0  0  0  0  0
   -9.2334   -3.8043  -24.3017 H   0  0  0  0  0  0  0  0  0  0  0  0
   -8.2131   -1.9682  -22.7194 H   0  0  0  0  0  0  0  0  0  0  0  0
   -9.7906    0.0840  -25.1818 H   0  0  0  0  0  0  0  0  0  0  0  0
  -11.6947    0.6406  -25.3766 H   0  0  0  0  0  0  0  0  0  0  0  0
  -13.6511   -0.1465  -24.0002 H   0  0  0  0  0  0  0  0  0  0  0  0
  -13.2724   -1.9672  -22.4843 H   0  0  0  0  0  0  0  0  0  0  0  0
  -11.3057   -1.9565  -21.7078 H   0  0  0  0  0  0  0  0  0  0  0  0
  -11.4343   -2.9990  -23.1650 H   0  0  0  0  0  0  0  0  0  0  0  0
   -8.6489   -0.4652  -23.1161 H   0  0  0  0  0  0  0  0  0  0  0  0
   -9.0133   -1.7992  -21.9696 H   0  0  0  0  0  0  0  0  0  0  0  0
   -7.3632   -1.5312  -21.3697 H   0  0  0  0  0  0  0  0  0  0  0  0
   -8.3048   -0.2736  -18.5550 H   0  0  0  0  0  0  0  0  0  0  0  0
   -5.2335    1.4160  -17.1634 H   0  0  0  0  0  0  0  0  0  0  0  0
   -4.3403    1.5112  -19.0575 H   0  0  0  0  0  0  0  0  0  0  0  0
   -4.4616   -0.3420  -21.6070 H   0  0  0  0  0  0  0  0  0  0  0  0
   -5.8379    0.5997  -22.2742 H   0  0  0  0  0  0  0  0  0  0  0  0
   -4.4365    1.4529  -21.5430 H   0  0  0  0  0  0  0  0  0  0  0  0
 20 21  2  0  0  0  0
 19 20  1  0  0  0  0
 21 22  1  0  0  0  0
 18 19  2  0  0  0  0
 22 23  2  0  0  0  0
 18 23  1  0  0  0  0
 17 18  1  0  0  0  0
 23 24  1  0  0  0  0
 15 16  2  0  0  0  0
 15 17  1  0  0  0  0
 14 15  1  0  0  0  0
  8 14  1  0  0  0  0
 12 13  1  0  0  0  0
  8 13  1  0  0  0  0
 11 12  2  0  0  0  0
  7  8  1  0  0  0  0
  8  9  1  0  0  0  0
 10 11  1  0  0  0  0
  6  7  2  0  0  0  0
  5  6  1  0  0  0  0
  9 10  2  0  0  0  0
  2  5  1  0  0  0  0
  2  3  2  0  0  0  0
  1  2  1  0  0  0  0
  2  4  2  0  0  0  0
  1 25  1  0  0  0  0
  1 26  1  0  0  0  0
  1 27  1  0  0  0  0
  5 28  1  0  0  0  0
  6 29  1  0  0  0  0
  7 30  1  0  0  0  0
  9 31  1  0  0  0  0
 10 32  1  0  0  0  0
 11 33  1  0  0  0  0
 12 34  1  0  0  0  0
 13 35  1  0  0  0  0
 13 36  1  0  0  0  0
 14 37  1  0  0  0  0
 14 38  1  0  0  0  0
 17 39  1  0  0  0  0
 19 40  1  0  0  0  0
 21 41  1  0  0  0  0
 22 42  1  0  0  0  0
 24 43  1  0  0  0  0
 24 44  1  0  0  0  0
 24 45  1  0  0  0  0
M  END
> <Chemgauss4>
-12.957220

$$$$
