stable:False satoms:7 tatoms:24 sratio:0.2916666666666667
  -OEChem-08062413313D

 45 46  0     1  0  0  0  0  0999 V2000
    6.2819   -5.0771   25.7517 C   0  0  0  0  0  0  0  0  0  0  0  0
    7.7440   -4.5906   25.6750 S   0  0  0  0  0  0  0  0  0  0  0  0
    8.6564   -5.7315   25.6430 O   0  0  0  0  0  0  0  0  0  0  0  0
    8.0813   -3.7201   26.7824 O   0  0  0  0  0  0  0  0  0  0  0  0
    7.8442   -3.7901   24.2660 N   0  0  0  0  0  0  0  0  0  0  0  0
    8.7682   -3.0862   23.8999 C   0  0  0  0  0  0  0  0  0  0  0  0
    9.3147   -2.1637   23.3974 C   0  0  0  0  0  0  0  0  0  0  0  0
   10.3193   -1.3218   23.2356 C   0  0  1  0  0  0  0  0  0  0  0  0
   10.8918   -0.2047   24.4555 C   0  0  0  0  0  0  0  0  0  0  0  0
   11.8696    0.0555   24.5588 C   0  0  0  0  0  0  0  0  0  0  0  0
   13.0471   -0.4223   23.8103 C   0  0  0  0  0  0  0  0  0  0  0  0
   12.8152   -1.3925   22.9648 C   0  0  0  0  0  0  0  0  0  0  0  0
   11.7587   -1.8150   22.7557 C   0  0  0  0  0  0  0  0  0  0  0  0
    9.7705   -0.7172   22.3578 C   0  0  0  0  0  0  0  0  0  0  0  0
    9.2248    0.0104   21.3379 C   0  0  0  0  0  0  0  0  0  0  0  0
    9.8123    0.9655   21.0103 O   0  0  0  0  0  0  0  0  0  0  0  0
    8.1093   -0.5529   20.9036 N   0  0  0  0  0  0  0  0  0  0  0  0
    7.5252    0.0210   19.9267 C   0  0  0  0  0  0  0  0  0  0  0  0
    7.6686    0.2062   18.6523 C   0  0  0  0  0  0  0  0  0  0  0  0
    7.3513    0.5342   17.4910 N   0  0  0  0  0  0  0  0  0  0  0  0
    6.1828    1.0884   17.9001 C   0  0  0  0  0  0  0  0  0  0  0  0
    5.6706    1.1439   18.9871 C   0  0  0  0  0  0  0  0  0  0  0  0
    6.0816    0.6719   20.1939 C   0  0  0  0  0  0  0  0  0  0  0  0
    5.4574    0.7068   21.4310 C   0  0  0  0  0  0  0  0  0  0  0  0
    6.1291   -5.6349   26.6874 H   0  0  0  0  0  0  0  0  0  0  0  0
    5.6053   -4.2101   25.7271 H   0  0  0  0  0  0  0  0  0  0  0  0
    6.0684   -5.7331   24.8948 H   0  0  0  0  0  0  0  0  0  0  0  0
    7.0402   -3.1959   24.2462 H   0  0  0  0  0  0  0  0  0  0  0  0
    9.6138   -3.6584   24.2521 H   0  0  0  0  0  0  0  0  0  0  0  0
    8.5934   -1.8223   22.6697 H   0  0  0  0  0  0  0  0  0  0  0  0
   10.1709    0.2300   25.1321 H   0  0  0  0  0  0  0  0  0  0  0  0
   12.0750    0.7865   25.3269 H   0  0  0  0  0  0  0  0  0  0  0  0
   14.0314   -0.0006   23.9505 H   0  0  0  0  0  0  0  0  0  0  0  0
   13.6527   -1.8212   22.4346 H   0  0  0  0  0  0  0  0  0  0  0  0
   11.6860   -1.8106   21.6582 H   0  0  0  0  0  0  0  0  0  0  0  0
   11.8146   -2.8531   23.1153 H   0  0  0  0  0  0  0  0  0  0  0  0
    9.0292   -0.3193   23.0664 H   0  0  0  0  0  0  0  0  0  0  0  0
    9.3936   -1.6533   21.9199 H   0  0  0  0  0  0  0  0  0  0  0  0
    7.7435   -1.3853   21.3200 H   0  0  0  0  0  0  0  0  0  0  0  0
    8.6851   -0.1277   18.5053 H   0  0  0  0  0  0  0  0  0  0  0  0
    5.6138    1.5619   17.1137 H   0  0  0  0  0  0  0  0  0  0  0  0
    4.7206    1.6571   19.0078 H   0  0  0  0  0  0  0  0  0  0  0  0
    4.8419   -0.1961   21.5573 H   0  0  0  0  0  0  0  0  0  0  0  0
    6.2183    0.7456   22.2245 H   0  0  0  0  0  0  0  0  0  0  0  0
    4.8168    1.5988   21.4934 H   0  0  0  0  0  0  0  0  0  0  0  0
 20 21  2  0  0  0  0
 19 20  1  0  0  0  0
 21 22  1  0  0  0  0
 18 19  2  0  0  0  0
 22 23  2  0  0  0  0
 18 23  1  0  0  0  0
 17 18  1  0  0  0  0
 23 24  1  0  0  0  0
 15 16  2  0  0  0  0
 15 17  1  0  0  0  0
 14 15  1  0  0  0  0
  8 14  1  0  0  0  0
 12 13  1  0  0  0  0
  8 13  1  0  0  0  0
 11 12  2  0  0  0  0
  7  8  1  0  0  0  0
  8  9  1  0  0  0  0
 10 11  1  0  0  0  0
  6  7  2  0  0  0  0
  5  6  1  0  0  0  0
  9 10  2  0  0  0  0
  2  5  1  0  0  0  0
  2  3  2  0  0  0  0
  1  2  1  0  0  0  0
  2  4  2  0  0  0  0
  1 25  1  0  0  0  0
  1 26  1  0  0  0  0
  1 27  1  0  0  0  0
  5 28  1  0  0  0  0
  6 29  1  0  0  0  0
  7 30  1  0  0  0  0
  9 31  1  0  0  0  0
 10 32  1  0  0  0  0
 11 33  1  0  0  0  0
 12 34  1  0  0  0  0
 13 35  1  0  0  0  0
 13 36  1  0  0  0  0
 14 37  1  0  0  0  0
 14 38  1  0  0  0  0
 17 39  1  0  0  0  0
 19 40  1  0  0  0  0
 21 41  1  0  0  0  0
 22 42  1  0  0  0  0
 24 43  1  0  0  0  0
 24 44  1  0  0  0  0
 24 45  1  0  0  0  0
M  END
> <Chemgauss4>
-13.013825

$$$$
