REMARK  7 active torsions:
REMARK  status: ('A' for Active; 'I' for Inactive)
REMARK    1  A    between atoms: O_2  and  C_3 
REMARK    2  A    between atoms: C_4  and  N_5 
REMARK    3  A    between atoms: C_8  and  C_9 
REMARK    4  A    between atoms: C_9  and  N_11 
REMARK    5  A    between atoms: C_10  and  N_13 
REMARK    6  A    between atoms: C_10  and  N_11 
REMARK    7  A    between atoms: C_15  and  C_16 
ROOT
HETATM    1  N   UNL     1      10.106   0.370  21.436  1.00  0.00    -0.293 N 
ATOM      2  HN  UNL     1      10.636   1.177  21.108  1.00  0.00     0.178 HD
ENDROOT
BRANCH   1   3
HETATM    3  C   UNL     1      10.498  -0.648  22.336  1.00  0.00     0.112 C 
HETATM    4  N   UNL     1       9.675  -1.413  22.924  1.00  0.00    -0.350 N 
ATOM      5  HN  UNL     1       8.944  -1.817  22.339  1.00  0.00     0.166 HD
BRANCH   4   6
HETATM    6  C   UNL     1       9.649  -1.733  24.131  1.00  0.00     0.114 C 
HETATM    7  C   UNL     1       8.828  -2.746  24.656  1.00  0.00     0.151 C 
BRANCH   7   8
HETATM    8  O   UNL     1       8.931  -3.234  25.953  1.00  0.00    -0.366 OA
HETATM    9  C   UNL     1       8.230  -4.335  26.080  1.00  0.00     0.209 C 
ENDBRANCH   7   8
ENDBRANCH   4   6
BRANCH   3  10
HETATM   10  C   UNL     1      11.778  -1.020  22.554  1.00  0.00     0.039 C 
HETATM   11  C   UNL     1      12.612  -0.486  23.312  1.00  0.00     0.015 C 
ENDBRANCH   3  10
ENDBRANCH   1   3
BRANCH   1  12
HETATM   12  C   UNL     1       8.950   0.025  21.150  1.00  0.00     0.054 C 
BRANCH  12  13
HETATM   13  N   UNL     1       8.004  -0.422  21.102  1.00  0.00    -0.306 N 
HETATM   14  C   UNL     1       7.084   0.080  20.472  1.00  0.00     0.059 C 
HETATM   15  C   UNL     1       6.045   0.356  20.981  1.00  0.00     0.046 C 
ATOM     16  HN  UNL     1       7.846  -1.301  21.595  1.00  0.00     0.177 HD
BRANCH  14  17
HETATM   17  C   UNL     1       6.628   0.179  19.097  1.00  0.00     0.074 A 
HETATM   18  N   UNL     1       6.260  -0.014  17.593  1.00  0.00    -0.361 N 
HETATM   19  C   UNL     1       5.809   0.485  18.443  1.00  0.00     0.120 A 
ATOM     20  HN  UNL     1       6.359  -0.336  16.630  1.00  0.00     0.165 HD
ENDBRANCH  14  17
ENDBRANCH  12  13
ENDBRANCH   1  12
TORSDOF 7
