stable:False satoms:17 tatoms:24 sratio:0.7083333333333334
  -OEChem-07092417323D

 24 26  0     0  0  0  0  0  0999 V2000
    8.0534   -3.0096   23.6115 N   0  0  0  0  0  0  0  0  0  0  0  0
    7.1898   -2.1852   26.4597 H   0  0  0  0  0  0  0  0  0  0  0  0
   11.6505   -2.7092   22.6131 H   0  0  0  0  0  0  0  0  0  0  0  0
    6.1286   -0.5886   23.7199 C   0  0  0  0  0  0  0  0  0  0  0  0
    6.0988   -1.0618   25.0364 C   0  0  0  0  0  0  0  0  0  0  0  0
    7.1128   -0.6787   22.9116 C   0  0  0  0  0  0  0  0  0  0  0  0
    7.0697   -1.8021   25.5211 C   0  0  0  0  0  0  0  0  0  0  0  0
   10.8772   -2.0963   22.8392 N   0  0  0  0  0  0  0  0  0  0  0  0
   11.1037   -1.3376   20.7789 N   0  0  0  0  0  0  0  0  0  0  0  0
   11.0837   -2.1119   24.8442 H   0  0  0  0  0  0  0  0  0  0  0  0
    9.7669    0.0833   19.4091 C   0  0  0  0  0  0  0  0  0  0  0  0
   10.3634   -1.3423   21.7361 C   0  0  0  0  0  0  0  0  0  0  0  0
   10.4789   -2.1494   24.0118 C   0  0  0  0  0  0  0  0  0  0  0  0
    9.1003   -2.3254   23.9585 C   0  0  0  0  0  0  0  0  0  0  0  0
    8.9050   -0.5065   21.4470 C   0  0  0  0  0  0  0  0  0  0  0  0
    8.8847    0.3495   20.4686 C   0  0  0  0  0  0  0  0  0  0  0  0
   11.1721   -1.3340   18.7621 H   0  0  0  0  0  0  0  0  0  0  0  0
   10.6863   -0.8849   19.5788 C   0  0  0  0  0  0  0  0  0  0  0  0
    7.9328   -2.1957   24.4352 C   0  0  0  0  0  0  0  0  0  0  0  0
    7.6737   -0.5424   21.9065 N   0  0  0  0  0  0  0  0  0  0  0  0
    9.4375    0.8572   17.9187 Cl  0  0  0  0  0  0  0  0  0  0  0  0
    8.1947    1.1591   20.3871 H   0  0  0  0  0  0  0  0  0  0  0  0
    5.3388   -0.0767   23.2870 H   0  0  0  0  0  0  0  0  0  0  0  0
    5.2805   -0.8012   25.6550 H   0  0  0  0  0  0  0  0  0  0  0  0
 11 21  1  0  0  0  0
 17 18  1  0  0  0  0
 11 18  2  0  0  0  0
 11 16  1  0  0  0  0
  9 18  1  0  0  0  0
 16 22  1  0  0  0  0
 15 16  2  0  0  0  0
  9 12  2  0  0  0  0
 12 15  1  0  0  0  0
 15 20  1  0  0  0  0
  8 12  1  0  0  0  0
  6 20  2  0  0  0  0
  3  8  1  0  0  0  0
  8 13  1  0  0  0  0
  4  6  1  0  0  0  0
  4 23  1  0  0  0  0
  1 14  1  0  0  0  0
  1 19  1  0  0  0  0
  4  5  2  0  0  0  0
 13 14  2  3  0  0  0
 14 19  1  0  0  0  0
 10 13  1  0  0  0  0
  7 19  2  3  0  0  0
  5  7  1  0  0  0  0
  5 24  1  0  0  0  0
  2  7  1  0  0  0  0
M  END
> <Shapegauss>
-106.494370

$$$$
