stable:False satoms:17 tatoms:24 sratio:0.7083333333333334
  -OEChem-08052419043D

 26 28  0     0  0  0  0  0  0999 V2000
   -9.2677    4.2787  -22.9676 N   0  0  0  0  0  0  0  0  0  0  0  0
   -8.9434    6.8227  -24.6883 H   0  0  0  0  0  0  0  0  0  0  0  0
   -7.7245    1.0647  -24.1145 H   0  0  0  0  0  0  0  0  0  0  0  0
  -11.9118    5.3867  -24.1332 C   0  0  0  0  0  0  0  0  0  0  0  0
  -11.0010    6.4110  -24.4146 C   0  0  0  0  0  0  0  0  0  0  0  0
  -11.6394    4.1424  -24.0465 C   0  0  0  0  0  0  0  0  0  0  0  0
   -9.7083    6.1836  -24.4674 C   0  0  0  0  0  0  0  0  0  0  0  0
   -8.4742    1.6838  -24.3964 N   0  0  0  0  0  0  0  0  0  0  0  0
   -9.8004   -0.0443  -24.0408 N   0  0  0  0  0  0  0  0  0  0  0  0
   -7.3728    2.9882  -25.4681 H   0  0  0  0  0  0  0  0  0  0  0  0
  -12.1693   -0.2845  -23.9267 C   0  0  0  0  0  0  0  0  0  0  0  0
   -9.7920    1.1517  -24.2247 C   0  0  0  0  0  0  0  0  0  0  0  0
   -8.1216    2.8068  -24.7852 C   0  0  0  0  0  0  0  0  0  0  0  0
   -8.8848    3.7319  -24.0807 C   0  0  0  0  0  0  0  0  0  0  0  0
  -11.3500    1.8420  -24.1517 C   0  0  0  0  0  0  0  0  0  0  0  0
  -12.3682    1.0501  -24.3150 C   0  0  0  0  0  0  0  0  0  0  0  0
  -10.7309   -1.5437  -23.0620 H   0  0  0  0  0  0  0  0  0  0  0  0
  -10.9173   -0.6765  -23.6259 C   0  0  0  0  0  0  0  0  0  0  0  0
   -9.4542    4.8581  -23.9601 C   0  0  0  0  0  0  0  0  0  0  0  0
  -11.8634    3.0190  -23.8696 N   0  0  0  0  0  0  0  0  0  0  0  0
  -13.5725   -1.2240  -23.6492 Cl  0  0  0  0  0  0  0  0  0  0  0  0
  -13.3376    1.3675  -24.6277 H   0  0  0  0  0  0  0  0  0  0  0  0
  -12.9256    5.5545  -24.0012 H   0  0  0  0  0  0  0  0  0  0  0  0
  -11.3693    7.3851  -24.6032 H   0  0  0  0  0  0  0  0  0  0  0  0
   -9.3462    4.2342  -21.9717 H   0  0  0  0  0  0  0  0  0  0  0  0
  -10.5822    4.1283  -24.2666 H   0  0  0  0  0  0  0  0  0  0  0  0
 11 21  1  0  0  0  0
 17 18  1  0  0  0  0
 11 18  2  0  0  0  0
 11 16  1  0  0  0  0
  9 18  1  0  0  0  0
 16 22  1  0  0  0  0
 15 16  2  0  0  0  0
  9 12  2  0  0  0  0
 12 15  1  0  0  0  0
 15 20  1  0  0  0  0
  8 12  1  0  0  0  0
  6 20  2  0  0  0  0
  3  8  1  0  0  0  0
  8 13  1  0  0  0  0
  4  6  1  0  0  0  0
  4 23  1  0  0  0  0
  1 14  1  0  0  0  0
  1 19  1  0  0  0  0
  4  5  2  0  0  0  0
 13 14  2  3  0  0  0
 14 19  1  0  0  0  0
 10 13  1  0  0  0  0
  7 19  2  3  0  0  0
  5  7  1  0  0  0  0
  5 24  1  0  0  0  0
  2  7  1  0  0  0  0
  1 25  1  0  0  0  0
  6 26  1  0  0  0  0
M  END
> <Chemgauss4>
-8.475809

$$$$
