stable:False satoms:17 tatoms:24 sratio:0.7083333333333334
  -OEChem-08052419043D

 26 28  0     0  0  0  0  0  0999 V2000
    9.5479    4.2232   23.3850 N   0  0  0  0  0  0  0  0  0  0  0  0
    9.7169    6.6365   25.3047 H   0  0  0  0  0  0  0  0  0  0  0  0
    7.7518    1.1218   24.4717 H   0  0  0  0  0  0  0  0  0  0  0  0
   12.4142    4.9233   24.3190 C   0  0  0  0  0  0  0  0  0  0  0  0
   11.6693    6.0177   24.7723 C   0  0  0  0  0  0  0  0  0  0  0  0
   11.9845    3.7295   24.1770 C   0  0  0  0  0  0  0  0  0  0  0  0
   10.3710    5.9352   24.9548 C   0  0  0  0  0  0  0  0  0  0  0  0
    8.5965    1.6262   24.7097 N   0  0  0  0  0  0  0  0  0  0  0  0
    9.6579   -0.2061   24.0868 N   0  0  0  0  0  0  0  0  0  0  0  0
    7.7798    2.9542   25.9873 H   0  0  0  0  0  0  0  0  0  0  0  0
   11.9550   -0.7038   23.6895 C   0  0  0  0  0  0  0  0  0  0  0  0
    9.8146    0.9638   24.3535 C   0  0  0  0  0  0  0  0  0  0  0  0
    8.4259    2.7460   25.2132 C   0  0  0  0  0  0  0  0  0  0  0  0
    9.2189    3.6333   24.4933 C   0  0  0  0  0  0  0  0  0  0  0  0
   11.4291    1.4761   24.1534 C   0  0  0  0  0  0  0  0  0  0  0  0
   12.3545    0.5629   24.1450 C   0  0  0  0  0  0  0  0  0  0  0  0
   10.2918   -1.7155   22.9070 H   0  0  0  0  0  0  0  0  0  0  0  0
   10.6401   -0.9248   23.5054 C   0  0  0  0  0  0  0  0  0  0  0  0
    9.9058    4.6936   24.3881 C   0  0  0  0  0  0  0  0  0  0  0  0
   12.0501    2.6064   23.8980 N   0  0  0  0  0  0  0  0  0  0  0  0
   13.1967   -1.7705   23.1903 Cl  0  0  0  0  0  0  0  0  0  0  0  0
   13.3825    0.7411   24.3676 H   0  0  0  0  0  0  0  0  0  0  0  0
   13.4216    4.9851   24.0855 H   0  0  0  0  0  0  0  0  0  0  0  0
   12.1712    6.9247   24.9857 H   0  0  0  0  0  0  0  0  0  0  0  0
    9.5166    4.2526   22.3860 H   0  0  0  0  0  0  0  0  0  0  0  0
   10.9620    3.8176   24.5136 H   0  0  0  0  0  0  0  0  0  0  0  0
 11 21  1  0  0  0  0
 17 18  1  0  0  0  0
 11 18  2  0  0  0  0
 11 16  1  0  0  0  0
  9 18  1  0  0  0  0
 16 22  1  0  0  0  0
 15 16  2  0  0  0  0
  9 12  2  0  0  0  0
 12 15  1  0  0  0  0
 15 20  1  0  0  0  0
  8 12  1  0  0  0  0
  6 20  2  0  0  0  0
  3  8  1  0  0  0  0
  8 13  1  0  0  0  0
  4  6  1  0  0  0  0
  4 23  1  0  0  0  0
  1 14  1  0  0  0  0
  1 19  1  0  0  0  0
  4  5  2  0  0  0  0
 13 14  2  3  0  0  0
 14 19  1  0  0  0  0
 10 13  1  0  0  0  0
  7 19  2  3  0  0  0
  5  7  1  0  0  0  0
  5 24  1  0  0  0  0
  2  7  1  0  0  0  0
  1 25  1  0  0  0  0
  6 26  1  0  0  0  0
M  END
> <Chemgauss4>
-8.197885

$$$$
