REMARK  4 active torsions:
REMARK  status: ('A' for Active; 'I' for Inactive)
REMARK    1  A    between atoms: S_2  and  N_5 
REMARK    2  A    between atoms: N_5  and  C_7 
REMARK    3  A    between atoms: C_15  and  C_16 
REMARK       I    between atoms: C_16  and  N_18 
REMARK    4  A    between atoms: N_18  and  C_20 
ROOT
HETATM    1  C   UNL     1       8.995  -2.944  24.143  1.00  0.00     0.109 C 
HETATM    2  C   UNL     1       9.421  -1.927  23.473  1.00  0.00    -0.008 A 
HETATM    3  C   UNL     1      10.350  -1.124  23.273  1.00  0.00     0.057 A 
HETATM    4  C   UNL     1      11.067  -0.049  24.333  1.00  0.00    -0.007 C 
HETATM    5  C   UNL     1      12.117   0.277  24.265  1.00  0.00    -0.025 C 
HETATM    6  C   UNL     1      13.117  -0.127  23.509  1.00  0.00     0.053 C 
HETATM    7  C   UNL     1      12.706  -1.312  22.585  1.00  0.00    -0.025 C 
HETATM    8  C   UNL     1      11.827  -1.744  22.468  1.00  0.00    -0.007 C 
HETATM    9  C   UNL     1       9.720  -0.617  22.373  1.00  0.00     0.040 A 
ENDROOT
BRANCH   9  10
HETATM   10  C   UNL     1       9.053   0.032  21.386  1.00  0.00     0.254 C 
HETATM   11  O   UNL     1       9.564   0.967  20.952  1.00  0.00    -0.268 OA
HETATM   12  N   UNL     1       7.902  -0.554  21.090  1.00  0.00    -0.321 N 
ATOM     13  HN  UNL     1       7.607  -1.378  21.614  1.00  0.00     0.169 HD
BRANCH  12  14
HETATM   14  C   UNL     1       7.170  -0.108  20.174  1.00  0.00     0.056 A 
HETATM   15  C   UNL     1       7.243  -0.016  18.851  1.00  0.00     0.117 A 
HETATM   16  N   UNL     1       6.783   0.311  17.796  1.00  0.00    -0.373 N 
HETATM   17  C   UNL     1       5.611   0.928  18.219  1.00  0.00     0.088 A 
ATOM     18  HN  UNL     1       7.148   0.175  16.853  1.00  0.00     0.164 HD
HETATM   19  C   UNL     1       5.250   0.999  19.385  1.00  0.00     0.026 A 
HETATM   20  C   UNL     1       5.805   0.559  20.543  1.00  0.00    -0.033 A 
HETATM   21  C   UNL     1       5.273   0.677  22.037  1.00  0.00     0.050 C 
ENDBRANCH  12  14
ENDBRANCH   9  10
BRANCH   1  22
HETATM   22  N   UNL     1       8.131  -3.567  24.656  1.00  0.00    -0.295 N 
ATOM     23  HN  UNL     1       7.262  -3.651  24.128  1.00  0.00     0.177 HD
BRANCH  22  24
HETATM   24  S   UNL     1       8.164  -4.309  26.110  1.00  0.00     0.226 S 
HETATM   25  C   UNL     1       6.657  -4.788  26.469  1.00  0.00     0.186 C 
HETATM   26  O   UNL     1       9.052  -5.447  26.051  1.00  0.00    -0.206 OA
HETATM   27  O   UNL     1       8.606  -3.406  27.157  1.00  0.00    -0.206 OA
ENDBRANCH  22  24
ENDBRANCH   1  22
TORSDOF 4
