MODEL 1
REMARK VINA RESULT:    -7.900      0.000      0.000
REMARK INTER + INTRA:         -10.663
REMARK INTER:                  -9.747
REMARK INTRA:                  -0.916
REMARK UNBOUND:                -0.916
REMARK  4 active torsions:
REMARK  status: ('A' for Active; 'I' for Inactive)
REMARK    1  A    between atoms: S_2  and  N_5 
REMARK    2  A    between atoms: N_5  and  C_7 
REMARK    3  A    between atoms: C_15  and  C_16 
REMARK       I    between atoms: C_16  and  N_18 
REMARK    4  A    between atoms: N_18  and  C_20 
ROOT
HETATM    1  C   UNL     1       8.792   0.785  22.186  1.00  0.00     0.109 C 
HETATM    2  C   UNL     1       9.288  -0.065  23.020  1.00  0.00    -0.008 A 
HETATM    3  C   UNL     1      10.313  -0.602  23.478  1.00  0.00     0.057 A 
HETATM    4  C   UNL     1      11.478  -1.504  22.690  1.00  0.00    -0.007 C 
HETATM    5  C   UNL     1      12.534  -1.554  23.000  1.00  0.00    -0.025 C 
HETATM    6  C   UNL     1      13.219  -0.883  23.902  1.00  0.00     0.053 C 
HETATM    7  C   UNL     1      12.348   0.198  24.610  1.00  0.00    -0.025 C 
HETATM    8  C   UNL     1      11.388   0.400  24.505  1.00  0.00    -0.007 C 
HETATM    9  C   UNL     1       9.639  -1.214  24.275  1.00  0.00     0.040 A 
ENDROOT
BRANCH   9  10
HETATM   10  C   UNL     1       8.944  -1.969  25.161  1.00  0.00     0.254 C 
HETATM   11  O   UNL     1       8.696  -1.476  26.171  1.00  0.00    -0.268 OA
HETATM   12  N   UNL     1       8.663  -3.173  24.683  1.00  0.00    -0.321 N 
ATOM     13  HN  UNL     1       8.996  -3.436  23.755  1.00  0.00     0.169 HD
BRANCH  12  14
HETATM   14  C   UNL     1       7.994  -3.993  25.356  1.00  0.00     0.056 A 
HETATM   15  C   UNL     1       8.251  -4.891  26.300  1.00  0.00     0.117 A 
HETATM   16  N   UNL     1       7.895  -5.739  27.065  1.00  0.00    -0.373 N 
HETATM   17  C   UNL     1       6.544  -5.808  26.744  1.00  0.00     0.088 A 
ATOM     18  HN  UNL     1       8.431  -6.263  27.757  1.00  0.00     0.164 HD
HETATM   19  C   UNL     1       5.993  -5.097  25.916  1.00  0.00     0.026 A 
HETATM   20  C   UNL     1       6.455  -4.110  25.107  1.00  0.00    -0.033 A 
HETATM   21  C   UNL     1       5.676  -3.210  24.052  1.00  0.00     0.050 C 
ENDBRANCH  12  14
ENDBRANCH   9  10
BRANCH   1  22
HETATM   22  N   UNL     1       7.940   1.151  21.453  1.00  0.00    -0.295 N 
ATOM     23  HN  UNL     1       7.634   2.118  21.565  1.00  0.00     0.177 HD
BRANCH  22  24
HETATM   24  S   UNL     1       7.193   0.291  20.283  1.00  0.00     0.226 S 
HETATM   25  C   UNL     1       5.888   1.122  19.798  1.00  0.00     0.186 C 
HETATM   26  O   UNL     1       8.101   0.091  19.177  1.00  0.00    -0.206 OA
HETATM   27  O   UNL     1       6.743  -0.998  20.776  1.00  0.00    -0.206 OA
ENDBRANCH  22  24
ENDBRANCH   1  22
TORSDOF 4
ENDMDL
MODEL 2
REMARK VINA RESULT:    -7.783      2.585      5.993
REMARK INTER + INTRA:         -10.519
REMARK INTER:                  -9.808
REMARK INTRA:                  -0.711
REMARK UNBOUND:                -0.916
REMARK  4 active torsions:
REMARK  status: ('A' for Active; 'I' for Inactive)
REMARK    1  A    between atoms: S_2  and  N_5 
REMARK    2  A    between atoms: N_5  and  C_7 
REMARK    3  A    between atoms: C_15  and  C_16 
REMARK       I    between atoms: C_16  and  N_18 
REMARK    4  A    between atoms: N_18  and  C_20 
ROOT
HETATM    1  C   UNL     1       8.612  -3.554  23.807  1.00  0.00     0.109 C 
HETATM    2  C   UNL     1       8.919  -2.393  23.336  1.00  0.00    -0.008 A 
HETATM    3  C   UNL     1       9.634  -1.380  23.440  1.00  0.00     0.057 A 
HETATM    4  C   UNL     1       9.770  -0.306  24.714  1.00  0.00    -0.007 C 
HETATM    5  C   UNL     1      10.686   0.257  24.951  1.00  0.00    -0.025 C 
HETATM    6  C   UNL     1      11.911   0.188  24.472  1.00  0.00     0.053 C 
HETATM    7  C   UNL     1      12.056  -0.938  23.405  1.00  0.00    -0.025 C 
HETATM    8  C   UNL     1      11.372  -1.543  23.031  1.00  0.00    -0.007 C 
HETATM    9  C   UNL     1       9.140  -0.926  22.433  1.00  0.00     0.040 A 
ENDROOT
BRANCH   9  10
HETATM   10  C   UNL     1       8.597  -0.332  21.341  1.00  0.00     0.254 C 
HETATM   11  O   UNL     1       9.305   0.315  20.706  1.00  0.00    -0.268 OA
HETATM   12  N   UNL     1       7.312  -0.622  21.200  1.00  0.00    -0.321 N 
ATOM     13  HN  UNL     1       6.849  -1.207  21.896  1.00  0.00     0.169 HD
BRANCH  12  14
HETATM   14  C   UNL     1       6.658  -0.186  20.222  1.00  0.00     0.056 A 
HETATM   15  C   UNL     1       6.343  -0.627  19.010  1.00  0.00     0.117 A 
HETATM   16  N   UNL     1       5.804  -0.488  17.951  1.00  0.00    -0.373 N 
HETATM   17  C   UNL     1       5.307   0.803  18.096  1.00  0.00     0.088 A 
ATOM     18  HN  UNL     1       5.729  -1.134  17.165  1.00  0.00     0.164 HD
HETATM   19  C   UNL     1       5.422   1.477  19.109  1.00  0.00     0.026 A 
HETATM   20  C   UNL     1       6.014   1.236  20.307  1.00  0.00    -0.033 A 
HETATM   21  C   UNL     1       6.120   2.161  21.596  1.00  0.00     0.050 C 
ENDBRANCH  12  14
ENDBRANCH   9  10
BRANCH   1  22
HETATM   22  N   UNL     1       7.834  -4.416  24.031  1.00  0.00    -0.295 N 
ATOM     23  HN  UNL     1       7.974  -4.934  24.899  1.00  0.00     0.177 HD
BRANCH  22  24
HETATM   24  S   UNL     1       6.562  -4.875  23.116  1.00  0.00     0.226 S 
HETATM   25  C   UNL     1       7.129  -5.686  21.831  1.00  0.00     0.186 C 
HETATM   26  O   UNL     1       5.686  -5.719  23.896  1.00  0.00    -0.206 OA
HETATM   27  O   UNL     1       5.819  -3.728  22.627  1.00  0.00    -0.206 OA
ENDBRANCH  22  24
ENDBRANCH   1  22
TORSDOF 4
ENDMDL
MODEL 3
REMARK VINA RESULT:    -7.377      3.509      7.515
REMARK INTER + INTRA:         -10.018
REMARK INTER:                  -9.237
REMARK INTRA:                  -0.781
REMARK UNBOUND:                -0.916
REMARK  4 active torsions:
REMARK  status: ('A' for Active; 'I' for Inactive)
REMARK    1  A    between atoms: S_2  and  N_5 
REMARK    2  A    between atoms: N_5  and  C_7 
REMARK    3  A    between atoms: C_15  and  C_16 
REMARK       I    between atoms: C_16  and  N_18 
REMARK    4  A    between atoms: N_18  and  C_20 
ROOT
HETATM    1  C   UNL     1       6.942  -5.663  26.540  1.00  0.00     0.109 C 
HETATM    2  C   UNL     1       7.028  -4.894  25.508  1.00  0.00    -0.008 A 
HETATM    3  C   UNL     1       6.874  -4.775  24.279  1.00  0.00     0.057 A 
HETATM    4  C   UNL     1       7.591  -5.630  23.035  1.00  0.00    -0.007 C 
HETATM    5  C   UNL     1       7.115  -5.815  22.059  1.00  0.00    -0.025 C 
HETATM    6  C   UNL     1       5.894  -5.591  21.618  1.00  0.00     0.053 C 
HETATM    7  C   UNL     1       4.977  -4.993  22.726  1.00  0.00    -0.025 C 
HETATM    8  C   UNL     1       5.195  -4.731  23.651  1.00  0.00    -0.007 C 
HETATM    9  C   UNL     1       7.188  -3.609  24.351  1.00  0.00     0.040 A 
ENDROOT
BRANCH   9  10
HETATM   10  C   UNL     1       7.577  -2.309  24.347  1.00  0.00     0.254 C 
HETATM   11  O   UNL     1       6.751  -1.527  24.520  1.00  0.00    -0.268 OA
HETATM   12  N   UNL     1       8.880  -2.177  24.145  1.00  0.00    -0.321 N 
ATOM     13  HN  UNL     1       9.451  -3.007  23.985  1.00  0.00     0.169 HD
BRANCH  12  14
HETATM   14  C   UNL     1       9.419  -1.044  24.145  1.00  0.00     0.056 A 
HETATM   15  C   UNL     1      10.005  -0.265  25.047  1.00  0.00     0.117 A 
HETATM   16  N   UNL     1      10.561   0.749  25.354  1.00  0.00    -0.373 N 
HETATM   17  C   UNL     1      10.510   1.433  24.144  1.00  0.00     0.088 A 
ATOM     18  HN  UNL     1      10.959   1.032  26.249  1.00  0.00     0.164 HD
HETATM   19  C   UNL     1      10.039   0.976  23.112  1.00  0.00     0.026 A 
HETATM   20  C   UNL     1       9.460  -0.216  22.820  1.00  0.00    -0.033 A 
HETATM   21  C   UNL     1       8.873  -0.753  21.443  1.00  0.00     0.050 C 
ENDBRANCH  12  14
ENDBRANCH   9  10
BRANCH   1  22
HETATM   22  N   UNL     1       7.311  -6.028  27.603  1.00  0.00    -0.295 N 
ATOM     23  HN  UNL     1       8.320  -6.115  27.723  1.00  0.00     0.177 HD
BRANCH  22  24
HETATM   24  S   UNL     1       6.396  -6.408  28.900  1.00  0.00     0.226 S 
HETATM   25  C   UNL     1       4.866  -6.604  28.401  1.00  0.00     0.186 C 
HETATM   26  O   UNL     1       6.889  -7.628  29.497  1.00  0.00    -0.206 OA
HETATM   27  O   UNL     1       6.410  -5.347  29.890  1.00  0.00    -0.206 OA
ENDBRANCH  22  24
ENDBRANCH   1  22
TORSDOF 4
ENDMDL
MODEL 4
REMARK VINA RESULT:    -7.343      2.504      6.389
REMARK INTER + INTRA:          -9.976
REMARK INTER:                  -9.358
REMARK INTRA:                  -0.618
REMARK UNBOUND:                -0.916
REMARK  4 active torsions:
REMARK  status: ('A' for Active; 'I' for Inactive)
REMARK    1  A    between atoms: S_2  and  N_5 
REMARK    2  A    between atoms: N_5  and  C_7 
REMARK    3  A    between atoms: C_15  and  C_16 
REMARK       I    between atoms: C_16  and  N_18 
REMARK    4  A    between atoms: N_18  and  C_20 
ROOT
HETATM    1  C   UNL     1       8.644  -2.585  25.786  1.00  0.00     0.109 C 
HETATM    2  C   UNL     1       8.772  -1.791  24.777  1.00  0.00    -0.008 A 
HETATM    3  C   UNL     1       9.416  -0.864  24.254  1.00  0.00     0.057 A 
HETATM    4  C   UNL     1       9.700   0.681  24.824  1.00  0.00    -0.007 C 
HETATM    5  C   UNL     1      10.599   1.271  24.585  1.00  0.00    -0.025 C 
HETATM    6  C   UNL     1      11.717   0.959  23.963  1.00  0.00     0.053 C 
HETATM    7  C   UNL     1      11.749  -0.540  23.542  1.00  0.00    -0.025 C 
HETATM    8  C   UNL     1      11.057  -1.236  23.635  1.00  0.00    -0.007 C 
HETATM    9  C   UNL     1       8.713  -0.929  23.271  1.00  0.00     0.040 A 
ENDROOT
BRANCH   9  10
HETATM   10  C   UNL     1       7.937  -0.911  22.158  1.00  0.00     0.254 C 
HETATM   11  O   UNL     1       7.385  -1.888  21.904  1.00  0.00    -0.268 OA
HETATM   12  N   UNL     1       7.953   0.269  21.556  1.00  0.00    -0.321 N 
ATOM     13  HN  UNL     1       8.535   1.018  21.930  1.00  0.00     0.169 HD
BRANCH  12  14
HETATM   14  C   UNL     1       7.261   0.476  20.529  1.00  0.00     0.056 A 
HETATM   15  C   UNL     1       7.267   0.050  19.271  1.00  0.00     0.117 A 
HETATM   16  N   UNL     1       6.811   0.044  18.165  1.00  0.00    -0.373 N 
HETATM   17  C   UNL     1       5.805   0.994  18.307  1.00  0.00     0.088 A 
ATOM     18  HN  UNL     1       7.083  -0.504  17.349  1.00  0.00     0.164 HD
HETATM   19  C   UNL     1       5.539   1.566  19.355  1.00  0.00     0.026 A 
HETATM   20  C   UNL     1       6.073   1.489  20.600  1.00  0.00    -0.033 A 
HETATM   21  C   UNL     1       5.668   2.260  21.931  1.00  0.00     0.050 C 
ENDBRANCH  12  14
ENDBRANCH   9  10
BRANCH   1  22
HETATM   22  N   UNL     1       7.988  -3.223  26.534  1.00  0.00    -0.295 N 
ATOM     23  HN  UNL     1       7.536  -2.707  27.289  1.00  0.00     0.177 HD
BRANCH  22  24
HETATM   24  S   UNL     1       7.719  -4.833  26.503  1.00  0.00     0.226 S 
HETATM   25  C   UNL     1       6.334  -5.100  25.703  1.00  0.00     0.186 C 
HETATM   26  O   UNL     1       8.819  -5.493  25.837  1.00  0.00    -0.206 OA
HETATM   27  O   UNL     1       7.571  -5.373  27.842  1.00  0.00    -0.206 OA
ENDBRANCH  22  24
ENDBRANCH   1  22
TORSDOF 4
ENDMDL
MODEL 5
REMARK VINA RESULT:    -7.337      2.421      5.701
REMARK INTER + INTRA:          -9.969
REMARK INTER:                  -9.255
REMARK INTRA:                  -0.714
REMARK UNBOUND:                -0.916
REMARK  4 active torsions:
REMARK  status: ('A' for Active; 'I' for Inactive)
REMARK    1  A    between atoms: S_2  and  N_5 
REMARK    2  A    between atoms: N_5  and  C_7 
REMARK    3  A    between atoms: C_15  and  C_16 
REMARK       I    between atoms: C_16  and  N_18 
REMARK    4  A    between atoms: N_18  and  C_20 
ROOT
HETATM    1  C   UNL     1       5.632  -1.842  20.254  1.00  0.00     0.109 C 
HETATM    2  C   UNL     1       6.170  -2.475  21.241  1.00  0.00    -0.008 A 
HETATM    3  C   UNL     1       6.098  -3.435  22.029  1.00  0.00     0.057 A 
HETATM    4  C   UNL     1       4.904  -3.808  23.138  1.00  0.00    -0.007 C 
HETATM    5  C   UNL     1       4.653  -4.833  23.453  1.00  0.00    -0.025 C 
HETATM    6  C   UNL     1       5.046  -6.010  23.012  1.00  0.00     0.053 C 
HETATM    7  C   UNL     1       6.011  -5.884  21.796  1.00  0.00    -0.025 C 
HETATM    8  C   UNL     1       6.381  -5.077  21.367  1.00  0.00    -0.007 C 
HETATM    9  C   UNL     1       7.166  -3.126  22.506  1.00  0.00     0.040 A 
ENDROOT
BRANCH   9  10
HETATM   10  C   UNL     1       8.333  -2.812  23.122  1.00  0.00     0.254 C 
HETATM   11  O   UNL     1       8.621  -3.455  24.031  1.00  0.00    -0.268 OA
HETATM   12  N   UNL     1       8.948  -1.793  22.540  1.00  0.00    -0.321 N 
ATOM     13  HN  UNL     1       8.511  -1.330  21.743  1.00  0.00     0.169 HD
BRANCH  12  14
HETATM   14  C   UNL     1      10.060  -1.389  22.957  1.00  0.00     0.056 A 
HETATM   15  C   UNL     1      11.333  -1.706  22.746  1.00  0.00     0.117 A 
HETATM   16  N   UNL     1      12.500  -1.546  22.951  1.00  0.00    -0.373 N 
HETATM   17  C   UNL     1      12.446  -0.557  23.926  1.00  0.00     0.088 A 
ATOM     18  HN  UNL     1      13.307  -2.007  22.529  1.00  0.00     0.164 HD
HETATM   19  C   UNL     1      11.413  -0.044  24.333  1.00  0.00     0.026 A 
HETATM   20  C   UNL     1      10.108  -0.242  24.018  1.00  0.00    -0.033 A 
HETATM   21  C   UNL     1       8.804   0.472  24.583  1.00  0.00     0.050 C 
ENDBRANCH  12  14
ENDBRANCH   9  10
BRANCH   1  22
HETATM   22  N   UNL     1       5.393  -0.850  19.658  1.00  0.00    -0.295 N 
ATOM     23  HN  UNL     1       4.462  -0.785  19.245  1.00  0.00     0.177 HD
BRANCH  22  24
HETATM   24  S   UNL     1       6.377   0.431  19.416  1.00  0.00     0.226 S 
HETATM   25  C   UNL     1       6.331   1.363  20.741  1.00  0.00     0.186 C 
HETATM   26  O   UNL     1       7.724  -0.034  19.175  1.00  0.00    -0.206 OA
HETATM   27  O   UNL     1       5.936   1.234  18.290  1.00  0.00    -0.206 OA
ENDBRANCH  22  24
ENDBRANCH   1  22
TORSDOF 4
ENDMDL
MODEL 6
REMARK VINA RESULT:    -6.938     13.930     16.413
REMARK INTER + INTRA:          -9.477
REMARK INTER:                  -8.665
REMARK INTRA:                  -0.812
REMARK UNBOUND:                -0.916
REMARK  4 active torsions:
REMARK  status: ('A' for Active; 'I' for Inactive)
REMARK    1  A    between atoms: S_2  and  N_5 
REMARK    2  A    between atoms: N_5  and  C_7 
REMARK    3  A    between atoms: C_15  and  C_16 
REMARK       I    between atoms: C_16  and  N_18 
REMARK    4  A    between atoms: N_18  and  C_20 
ROOT
HETATM    1  C   UNL     1      23.949  -4.142  24.420  1.00  0.00     0.109 C 
HETATM    2  C   UNL     1      23.642  -3.063  23.782  1.00  0.00    -0.008 A 
HETATM    3  C   UNL     1      23.063  -1.962  23.811  1.00  0.00     0.057 A 
HETATM    4  C   UNL     1      21.450  -1.621  24.086  1.00  0.00    -0.007 C 
HETATM    5  C   UNL     1      21.086  -0.688  24.545  1.00  0.00    -0.025 C 
HETATM    6  C   UNL     1      21.718   0.315  25.120  1.00  0.00     0.053 C 
HETATM    7  C   UNL     1      23.257   0.079  25.173  1.00  0.00    -0.025 C 
HETATM    8  C   UNL     1      23.793  -0.665  24.810  1.00  0.00    -0.007 C 
HETATM    9  C   UNL     1      23.457  -1.724  22.692  1.00  0.00     0.040 A 
ENDROOT
BRANCH   9  10
HETATM   10  C   UNL     1      23.820  -1.409  21.424  1.00  0.00     0.254 C 
HETATM   11  O   UNL     1      24.781  -0.787  21.306  1.00  0.00    -0.268 OA
HETATM   12  N   UNL     1      22.978  -1.897  20.525  1.00  0.00    -0.321 N 
ATOM     13  HN  UNL     1      22.155  -2.414  20.836  1.00  0.00     0.169 HD
BRANCH  12  14
HETATM   14  C   UNL     1      23.180  -1.733  19.298  1.00  0.00     0.056 A 
HETATM   15  C   UNL     1      22.851  -0.822  18.389  1.00  0.00     0.117 A 
HETATM   16  N   UNL     1      22.872  -0.404  17.268  1.00  0.00    -0.373 N 
HETATM   17  C   UNL     1      23.561  -1.434  16.635  1.00  0.00     0.088 A 
ATOM     18  HN  UNL     1      22.493   0.462  16.885  1.00  0.00     0.164 HD
HETATM   19  C   UNL     1      24.009  -2.417  17.206  1.00  0.00     0.026 A 
HETATM   20  C   UNL     1      23.989  -2.810  18.505  1.00  0.00    -0.033 A 
HETATM   21  C   UNL     1      24.606  -4.107  19.187  1.00  0.00     0.050 C 
ENDBRANCH  12  14
ENDBRANCH   9  10
BRANCH   1  22
HETATM   22  N   UNL     1      24.173  -5.302  24.459  1.00  0.00    -0.295 N 
ATOM     23  HN  UNL     1      24.155  -5.795  23.566  1.00  0.00     0.177 HD
BRANCH  22  24
HETATM   24  S   UNL     1      24.506  -6.210  25.775  1.00  0.00     0.226 S 
HETATM   25  C   UNL     1      26.118  -6.327  25.914  1.00  0.00     0.186 C 
HETATM   26  O   UNL     1      23.945  -5.582  26.949  1.00  0.00    -0.206 OA
HETATM   27  O   UNL     1      23.971  -7.552  25.643  1.00  0.00    -0.206 OA
ENDBRANCH  22  24
ENDBRANCH   1  22
TORSDOF 4
ENDMDL
MODEL 7
REMARK VINA RESULT:    -6.670      1.918      2.432
REMARK INTER + INTRA:          -9.146
REMARK INTER:                  -8.407
REMARK INTRA:                  -0.739
REMARK UNBOUND:                -0.916
REMARK  4 active torsions:
REMARK  status: ('A' for Active; 'I' for Inactive)
REMARK    1  A    between atoms: S_2  and  N_5 
REMARK    2  A    between atoms: N_5  and  C_7 
REMARK    3  A    between atoms: C_15  and  C_16 
REMARK       I    between atoms: C_16  and  N_18 
REMARK    4  A    between atoms: N_18  and  C_20 
ROOT
HETATM    1  C   UNL     1       8.226   0.069  20.665  1.00  0.00     0.109 C 
HETATM    2  C   UNL     1       8.521  -0.777  21.593  1.00  0.00    -0.008 A 
HETATM    3  C   UNL     1       9.302  -1.090  22.509  1.00  0.00     0.057 A 
HETATM    4  C   UNL     1      10.942  -1.408  22.441  1.00  0.00    -0.007 C 
HETATM    5  C   UNL     1      11.641  -1.226  23.272  1.00  0.00    -0.025 C 
HETATM    6  C   UNL     1      11.490  -0.621  24.433  1.00  0.00     0.053 C 
HETATM    7  C   UNL     1      10.056  -0.036  24.602  1.00  0.00    -0.025 C 
HETATM    8  C   UNL     1       9.276  -0.097  24.002  1.00  0.00    -0.007 C 
HETATM    9  C   UNL     1       8.604  -2.041  22.781  1.00  0.00     0.040 A 
ENDROOT
BRANCH   9  10
HETATM   10  C   UNL     1       7.899  -3.152  23.110  1.00  0.00     0.254 C 
HETATM   11  O   UNL     1       7.887  -4.000  22.333  1.00  0.00    -0.268 OA
HETATM   12  N   UNL     1       7.341  -3.054  24.308  1.00  0.00    -0.321 N 
ATOM     13  HN  UNL     1       7.450  -2.194  24.846  1.00  0.00     0.169 HD
BRANCH  12  14
HETATM   14  C   UNL     1       6.680  -4.005  24.790  1.00  0.00     0.056 A 
HETATM   15  C   UNL     1       5.502  -4.569  24.548  1.00  0.00     0.117 A 
HETATM   16  N   UNL     1       4.665  -5.390  24.786  1.00  0.00    -0.373 N 
HETATM   17  C   UNL     1       5.236  -6.012  25.891  1.00  0.00     0.088 A 
ATOM     18  HN  UNL     1       3.782  -5.580  24.311  1.00  0.00     0.164 HD
HETATM   19  C   UNL     1       6.330  -5.726  26.355  1.00  0.00     0.026 A 
HETATM   20  C   UNL     1       7.260  -4.802  26.003  1.00  0.00    -0.033 A 
HETATM   21  C   UNL     1       8.678  -4.487  26.650  1.00  0.00     0.050 C 
ENDBRANCH  12  14
ENDBRANCH   9  10
BRANCH   1  22
HETATM   22  N   UNL     1       7.779   0.339  19.604  1.00  0.00    -0.295 N 
ATOM     23  HN  UNL     1       8.457   0.523  18.863  1.00  0.00     0.177 HD
BRANCH  22  24
HETATM   24  S   UNL     1       6.206   0.454  19.184  1.00  0.00     0.226 S 
HETATM   25  C   UNL     1       5.541  -1.020  19.301  1.00  0.00     0.186 C 
HETATM   26  O   UNL     1       5.536   1.379  20.069  1.00  0.00    -0.206 OA
HETATM   27  O   UNL     1       6.054   0.904  17.812  1.00  0.00    -0.206 OA
ENDBRANCH  22  24
ENDBRANCH   1  22
TORSDOF 4
ENDMDL
MODEL 8
REMARK VINA RESULT:    -6.628     24.944     28.626
REMARK INTER + INTRA:          -9.093
REMARK INTER:                  -8.371
REMARK INTRA:                  -0.722
REMARK UNBOUND:                -0.916
REMARK  4 active torsions:
REMARK  status: ('A' for Active; 'I' for Inactive)
REMARK    1  A    between atoms: S_2  and  N_5 
REMARK    2  A    between atoms: N_5  and  C_7 
REMARK    3  A    between atoms: C_15  and  C_16 
REMARK       I    between atoms: C_16  and  N_18 
REMARK    4  A    between atoms: N_18  and  C_20 
ROOT
HETATM    1  C   UNL     1       7.917  14.813   2.004  1.00  0.00     0.109 C 
HETATM    2  C   UNL     1       8.411  15.988   2.209  1.00  0.00    -0.008 A 
HETATM    3  C   UNL     1       8.584  17.138   1.769  1.00  0.00     0.057 A 
HETATM    4  C   UNL     1       9.377  17.634   0.383  1.00  0.00    -0.007 C 
HETATM    5  C   UNL     1       9.119  18.542  -0.183  1.00  0.00    -0.025 C 
HETATM    6  C   UNL     1       8.116  19.390  -0.080  1.00  0.00     0.053 C 
HETATM    7  C   UNL     1       7.112  18.969   1.034  1.00  0.00    -0.025 C 
HETATM    8  C   UNL     1       7.154  18.214   1.668  1.00  0.00    -0.007 C 
HETATM    9  C   UNL     1       9.115  17.458   2.808  1.00  0.00     0.040 A 
ENDROOT
BRANCH   9  10
HETATM   10  C   UNL     1       9.763  17.873   3.924  1.00  0.00     0.254 C 
HETATM   11  O   UNL     1       9.382  17.452   4.925  1.00  0.00    -0.268 OA
HETATM   12  N   UNL     1      10.753  18.710   3.647  1.00  0.00    -0.321 N 
ATOM     13  HN  UNL     1      10.922  18.986   2.679  1.00  0.00     0.169 HD
BRANCH  12  14
HETATM   14  C   UNL     1      11.483  19.167   4.558  1.00  0.00     0.056 A 
HETATM   15  C   UNL     1      12.474  18.704   5.313  1.00  0.00     0.117 A 
HETATM   16  N   UNL     1      13.293  18.850   6.172  1.00  0.00    -0.373 N 
HETATM   17  C   UNL     1      12.999  20.147   6.575  1.00  0.00     0.088 A 
ATOM     18  HN  UNL     1      14.006  18.204   6.513  1.00  0.00     0.164 HD
HETATM   19  C   UNL     1      12.139  20.851   6.064  1.00  0.00     0.026 A 
HETATM   20  C   UNL     1      11.266  20.636   5.047  1.00  0.00    -0.033 A 
HETATM   21  C   UNL     1      10.172  21.606   4.421  1.00  0.00     0.050 C 
ENDBRANCH  12  14
ENDBRANCH   9  10
BRANCH   1  22
HETATM   22  N   UNL     1       7.935  13.638   2.132  1.00  0.00    -0.295 N 
ATOM     23  HN  UNL     1       7.846  13.090   1.275  1.00  0.00     0.177 HD
BRANCH  22  24
HETATM   24  S   UNL     1       8.085  12.787   3.517  1.00  0.00     0.226 S 
HETATM   25  C   UNL     1       7.490  11.300   3.266  1.00  0.00     0.186 C 
HETATM   26  O   UNL     1       9.479  12.714   3.890  1.00  0.00    -0.206 OA
HETATM   27  O   UNL     1       7.328  13.393   4.597  1.00  0.00    -0.206 OA
ENDBRANCH  22  24
ENDBRANCH   1  22
TORSDOF 4
ENDMDL
MODEL 9
REMARK VINA RESULT:    -6.322      2.111      2.239
REMARK INTER + INTRA:          -8.717
REMARK INTER:                  -7.938
REMARK INTRA:                  -0.778
REMARK UNBOUND:                -0.916
REMARK  4 active torsions:
REMARK  status: ('A' for Active; 'I' for Inactive)
REMARK    1  A    between atoms: S_2  and  N_5 
REMARK    2  A    between atoms: N_5  and  C_7 
REMARK    3  A    between atoms: C_15  and  C_16 
REMARK       I    between atoms: C_16  and  N_18 
REMARK    4  A    between atoms: N_18  and  C_20 
ROOT
HETATM    1  C   UNL     1       7.262   0.479  22.467  1.00  0.00     0.109 C 
HETATM    2  C   UNL     1       7.901  -0.479  23.049  1.00  0.00    -0.008 A 
HETATM    3  C   UNL     1       9.005  -0.942  23.389  1.00  0.00     0.057 A 
HETATM    4  C   UNL     1      10.312  -1.366  22.438  1.00  0.00    -0.007 C 
HETATM    5  C   UNL     1      11.360  -1.323  22.776  1.00  0.00    -0.025 C 
HETATM    6  C   UNL     1      11.914  -0.835  23.867  1.00  0.00     0.053 C 
HETATM    7  C   UNL     1      10.864  -0.171  24.806  1.00  0.00    -0.025 C 
HETATM    8  C   UNL     1       9.883  -0.113  24.713  1.00  0.00    -0.007 C 
HETATM    9  C   UNL     1       8.449  -1.864  23.941  1.00  0.00     0.040 A 
ENDROOT
BRANCH   9  10
HETATM   10  C   UNL     1       7.899  -2.950  24.539  1.00  0.00     0.254 C 
HETATM   11  O   UNL     1       7.425  -3.733  23.842  1.00  0.00    -0.268 OA
HETATM   12  N   UNL     1       8.019  -2.911  25.858  1.00  0.00    -0.321 N 
ATOM     13  HN  UNL     1       8.460  -2.104  26.300  1.00  0.00     0.169 HD
BRANCH  12  14
HETATM   14  C   UNL     1       7.597  -3.854  26.571  1.00  0.00     0.056 A 
HETATM   15  C   UNL     1       8.049  -5.045  26.945  1.00  0.00     0.117 A 
HETATM   16  N   UNL     1       7.922  -6.074  27.544  1.00  0.00    -0.373 N 
HETATM   17  C   UNL     1       6.638  -5.907  28.049  1.00  0.00     0.088 A 
ATOM     18  HN  UNL     1       8.573  -6.852  27.652  1.00  0.00     0.164 HD
HETATM   19  C   UNL     1       5.956  -4.905  27.888  1.00  0.00     0.026 A 
HETATM   20  C   UNL     1       6.184  -3.741  27.228  1.00  0.00    -0.033 A 
HETATM   21  C   UNL     1       5.250  -2.464  27.065  1.00  0.00     0.050 C 
ENDBRANCH  12  14
ENDBRANCH   9  10
BRANCH   1  22
HETATM   22  N   UNL     1       6.359   0.891  21.825  1.00  0.00    -0.295 N 
ATOM     23  HN  UNL     1       5.952   0.242  21.151  1.00  0.00     0.177 HD
BRANCH  22  24
HETATM   24  S   UNL     1       5.685   2.377  21.888  1.00  0.00     0.226 S 
HETATM   25  C   UNL     1       6.877   3.469  22.025  1.00  0.00     0.186 C 
HETATM   26  O   UNL     1       4.923   2.613  20.684  1.00  0.00    -0.206 OA
HETATM   27  O   UNL     1       4.818   2.518  23.043  1.00  0.00    -0.206 OA
ENDBRANCH  22  24
ENDBRANCH   1  22
TORSDOF 4
ENDMDL
