stable:False satoms:14 tatoms:24 sratio:0.5833333333333334
  -OEChem-07092417413D

 24 26  0     1  0  0  0  0  0999 V2000
    6.5784   -4.9480   26.4423 Cl  0  0  0  0  0  0  0  0  0  0  0  0
    8.2238   -4.2824   26.0706 S   0  0  0  0  0  0  0  0  0  0  0  0
    9.0956   -5.4159   25.9431 O   0  0  0  0  0  0  0  0  0  0  0  0
    8.5430   -3.3910   27.1466 O   0  0  0  0  0  0  0  0  0  0  0  0
    8.0745   -3.4688   24.6662 N   0  0  0  0  0  0  0  0  0  0  0  0
    8.9089   -2.7862   24.1097 C   0  0  0  0  0  0  0  0  0  0  0  0
    9.4541   -1.8958   23.4580 C   0  0  0  0  0  0  0  0  0  0  0  0
   10.8149   -1.0326   23.2791 C   0  0  1  0  0  0  0  0  0  0  0  0
   11.2470   -0.1140   24.1796 O   0  0  0  0  0  0  0  0  0  0  0  0
   13.1273    0.4326   24.3544 H   0  0  0  0  0  0  0  0  0  0  0  0
   12.7137   -0.2136   23.7548 C   0  3  0  0  0  0  0  0  0  0  0  0
   12.8932   -1.0680   22.8162 N   0  3  0  0  0  0  0  0  0  0  0  0
   11.8104   -1.6807   22.7330 C   0  0  0  0  0  0  0  0  0  0  0  0
    9.6693   -0.8803   22.6103 C   0  0  3  0  0  0  0  0  0  0  0  0
    9.0358   -0.0180   21.4479 C   0  0  0  0  0  0  0  0  0  0  0  0
    9.6030    0.9308   21.0511 O   0  0  0  0  0  0  0  0  0  0  0  0
    7.8812   -0.5685   21.0626 N   0  0  0  0  0  0  0  0  0  0  0  0
    7.0963   -0.1059   20.0731 C   0  0  0  0  0  0  0  0  0  0  0  0
    7.3683   -0.1504   18.7182 N   0  0  0  0  0  0  0  0  0  0  0  0
    6.4465    0.3091   17.9995 N   0  0  0  0  0  0  0  0  0  0  0  0
    5.4901    0.7252   18.8155 C   0  0  0  0  0  0  0  0  0  0  0  0
    4.5751    1.1687   18.6867 H   0  0  0  0  0  0  0  0  0  0  0  0
    5.8571    0.4464   20.2237 C   0  0  0  0  0  0  0  0  0  0  0  0
    5.0763    0.7170   21.6543 Cl  0  0  0  0  0  0  0  0  0  0  0  0
 19 20  1  0  0  0  0
 20 21  2  0  0  0  0
 21 22  1  0  0  0  0
 18 19  1  0  0  0  0
 21 23  1  0  0  0  0
 18 23  2  0  0  0  0
 17 18  1  0  0  0  0
 23 24  1  0  0  0  0
 15 16  2  0  0  0  0
 15 17  1  0  0  0  0
 14 15  1  0  0  0  0
  8 14  1  0  0  0  0
  7 14  1  0  0  0  0
 12 13  1  0  0  0  0
  8 13  1  0  0  0  0
 11 12  1  0  0  0  0
  7  8  1  0  0  0  0
  8  9  1  0  0  0  0
  6  7  2  0  0  0  0
  9 11  1  0  0  0  0
 10 11  1  0  0  0  0
  5  6  1  0  0  0  0
  2  5  1  0  0  0  0
  2  3  2  0  0  0  0
  1  2  1  0  0  0  0
  2  4  2  0  0  0  0
M  CHG  2  11   1  12   1
M  END
> <Shapegauss>
-260.989166

$$$$
