stable:False satoms:14 tatoms:24 sratio:0.5833333333333334
  -OEChem-08062412053D

 32 34  0     1  0  0  0  0  0999 V2000
   -6.1107   -3.9987  -26.8970 Cl  0  0  0  0  0  0  0  0  0  0  0  0
   -7.7999   -3.3582  -26.7396 S   0  0  0  0  0  0  0  0  0  0  0  0
   -8.6741   -4.4804  -26.9337 O   0  0  0  0  0  0  0  0  0  0  0  0
   -7.9224   -2.3187  -27.7186 O   0  0  0  0  0  0  0  0  0  0  0  0
   -7.9138   -2.7524  -25.2307 N   0  0  0  0  0  0  0  0  0  0  0  0
   -8.8394   -2.1375  -24.7440 C   0  0  0  0  0  0  0  0  0  0  0  0
   -9.4992   -1.3361  -24.0827 C   0  0  0  0  0  0  0  0  0  0  0  0
  -10.8745   -0.4789  -24.0334 C   0  0  1  0  0  0  0  0  0  0  0  0
  -11.1402    0.5653  -24.8583 O   0  0  0  0  0  0  0  0  0  0  0  0
  -12.6592    0.4372  -24.7249 C   0  0  0  0  0  2  0  0  0  0  0  0
  -13.0022   -0.5363  -23.9647 N   0  3  0  0  0  0  0  0  0  0  0  0
  -11.9494   -1.1766  -23.7740 C   0  0  0  0  0  0  0  0  0  0  0  0
   -9.8710   -0.4451  -23.1532 C   0  0  3  0  0  0  0  0  0  0  0  0
   -9.4649    0.2329  -21.7853 C   0  0  0  0  0  0  0  0  0  0  0  0
  -10.1002    1.1283  -21.3678 O   0  0  0  0  0  0  0  0  0  0  0  0
   -8.3969   -0.3895  -21.2787 N   0  0  0  0  0  0  0  0  0  0  0  0
   -7.8082   -0.0861  -20.1080 C   0  0  0  0  0  0  0  0  0  0  0  0
   -8.3225   -0.3142  -18.8450 N   0  0  0  0  0  0  0  0  0  0  0  0
   -7.5498    0.0213  -17.9135 N   0  0  0  0  0  0  0  0  0  0  0  0
   -6.4629    0.5279  -18.4754 C   0  0  0  0  0  0  0  0  0  0  0  0
   -5.5892    0.9302  -18.1215 H   0  0  0  0  0  0  0  0  0  0  0  0
   -6.5654    0.4565  -19.9519 C   0  0  0  0  0  0  0  0  0  0  0  0
   -5.5383    0.9086  -21.1643 Cl  0  0  0  0  0  0  0  0  0  0  0  0
   -7.1280   -2.1401  -25.1430 H   0  0  0  0  0  0  0  0  0  0  0  0
   -9.6526   -2.6547  -25.2315 H   0  0  0  0  0  0  0  0  0  0  0  0
  -13.6871   -1.1099  -24.4140 H   0  0  0  0  0  0  0  0  0  0  0  0
  -11.9168   -1.4925  -22.7209 H   0  0  0  0  0  0  0  0  0  0  0  0
  -11.9563   -2.0645  -24.4232 H   0  0  0  0  0  0  0  0  0  0  0  0
   -9.3853    0.3665  -23.7148 H   0  0  0  0  0  0  0  0  0  0  0  0
   -8.0046   -1.1394  -21.8114 H   0  0  0  0  0  0  0  0  0  0  0  0
   -9.2272   -0.7102  -18.6876 H   0  0  0  0  0  0  0  0  0  0  0  0
  -13.3690   -0.1952  -23.0992 H   0  0  0  0  0  0  0  0  0  0  0  0
 18 19  1  0  0  0  0
 19 20  2  0  0  0  0
 20 21  1  0  0  0  0
 17 18  1  0  0  0  0
 20 22  1  0  0  0  0
 17 22  2  0  0  0  0
 16 17  1  0  0  0  0
 22 23  1  0  0  0  0
 14 15  2  0  0  0  0
 14 16  1  0  0  0  0
 13 14  1  0  0  0  0
  8 13  1  0  0  0  0
  7 13  1  0  0  0  0
 11 12  1  0  0  0  0
  8 12  1  0  0  0  0
 10 11  1  0  0  0  0
  7  8  1  0  0  0  0
  8  9  1  0  0  0  0
  6  7  2  0  0  0  0
  9 10  1  0  0  0  0
  5  6  1  0  0  0  0
  2  5  1  0  0  0  0
  2  3  2  0  0  0  0
  1  2  1  0  0  0  0
  2  4  2  0  0  0  0
  5 24  1  0  0  0  0
  6 25  1  0  0  0  0
 11 26  1  0  0  0  0
 12 27  1  0  0  0  0
 12 28  1  0  0  0  0
 13 29  1  0  0  0  0
 16 30  1  0  0  0  0
 18 31  1  0  0  0  0
 11 32  1  0  0  0  0
M  CHG  1  11   1
M  END
> <Chemgauss4>
-8.510595

$$$$
