stable:False satoms:14 tatoms:24 sratio:0.5833333333333334
  -OEChem-08062412063D

 32 34  0     1  0  0  0  0  0999 V2000
    6.0354   -4.0595   26.8235 Cl  0  0  0  0  0  0  0  0  0  0  0  0
    7.7247   -3.4191   26.6660 S   0  0  0  0  0  0  0  0  0  0  0  0
    8.5989   -4.5412   26.8602 O   0  0  0  0  0  0  0  0  0  0  0  0
    7.8472   -2.3795   27.6451 O   0  0  0  0  0  0  0  0  0  0  0  0
    7.8385   -2.8132   25.1572 N   0  0  0  0  0  0  0  0  0  0  0  0
    8.7642   -2.1983   24.6704 C   0  0  0  0  0  0  0  0  0  0  0  0
    9.4240   -1.3969   24.0092 C   0  0  0  0  0  0  0  0  0  0  0  0
   10.7993   -0.5397   23.9598 C   0  0  1  0  0  0  0  0  0  0  0  0
   11.0650    0.5045   24.7847 O   0  0  0  0  0  0  0  0  0  0  0  0
   12.5840    0.3764   24.6513 C   0  0  0  0  0  2  0  0  0  0  0  0
   12.9269   -0.5971   23.8911 N   0  3  0  0  0  0  0  0  0  0  0  0
   11.8741   -1.2374   23.7004 C   0  0  0  0  0  0  0  0  0  0  0  0
    9.7957   -0.5059   23.0797 C   0  0  3  0  0  0  0  0  0  0  0  0
    9.3896    0.1721   21.7117 C   0  0  0  0  0  0  0  0  0  0  0  0
   10.0249    1.0674   21.2943 O   0  0  0  0  0  0  0  0  0  0  0  0
    8.3217   -0.4503   21.2051 N   0  0  0  0  0  0  0  0  0  0  0  0
    7.7329   -0.1469   20.0345 C   0  0  0  0  0  0  0  0  0  0  0  0
    8.2472   -0.3750   18.7715 N   0  0  0  0  0  0  0  0  0  0  0  0
    7.4745   -0.0395   17.8399 N   0  0  0  0  0  0  0  0  0  0  0  0
    6.3876    0.4671   18.4019 C   0  0  0  0  0  0  0  0  0  0  0  0
    5.5139    0.8694   18.0479 H   0  0  0  0  0  0  0  0  0  0  0  0
    6.4901    0.3956   19.8783 C   0  0  0  0  0  0  0  0  0  0  0  0
    5.4630    0.8478   21.0908 Cl  0  0  0  0  0  0  0  0  0  0  0  0
    7.0528   -2.2009   25.0694 H   0  0  0  0  0  0  0  0  0  0  0  0
    9.5773   -2.7155   25.1579 H   0  0  0  0  0  0  0  0  0  0  0  0
   13.6118   -1.1707   24.3405 H   0  0  0  0  0  0  0  0  0  0  0  0
   11.8416   -1.5533   22.6473 H   0  0  0  0  0  0  0  0  0  0  0  0
   11.8811   -2.1253   24.3496 H   0  0  0  0  0  0  0  0  0  0  0  0
    9.3100    0.3057   23.6412 H   0  0  0  0  0  0  0  0  0  0  0  0
    7.9294   -1.2003   21.7378 H   0  0  0  0  0  0  0  0  0  0  0  0
    9.1519   -0.7710   18.6140 H   0  0  0  0  0  0  0  0  0  0  0  0
   13.2937   -0.2560   23.0256 H   0  0  0  0  0  0  0  0  0  0  0  0
 18 19  1  0  0  0  0
 19 20  2  0  0  0  0
 20 21  1  0  0  0  0
 17 18  1  0  0  0  0
 20 22  1  0  0  0  0
 17 22  2  0  0  0  0
 16 17  1  0  0  0  0
 22 23  1  0  0  0  0
 14 15  2  0  0  0  0
 14 16  1  0  0  0  0
 13 14  1  0  0  0  0
  8 13  1  0  0  0  0
  7 13  1  0  0  0  0
 11 12  1  0  0  0  0
  8 12  1  0  0  0  0
 10 11  1  0  0  0  0
  7  8  1  0  0  0  0
  8  9  1  0  0  0  0
  6  7  2  0  0  0  0
  9 10  1  0  0  0  0
  5  6  1  0  0  0  0
  2  5  1  0  0  0  0
  2  3  2  0  0  0  0
  1  2  1  0  0  0  0
  2  4  2  0  0  0  0
  5 24  1  0  0  0  0
  6 25  1  0  0  0  0
 11 26  1  0  0  0  0
 12 27  1  0  0  0  0
 12 28  1  0  0  0  0
 13 29  1  0  0  0  0
 16 30  1  0  0  0  0
 18 31  1  0  0  0  0
 11 32  1  0  0  0  0
M  CHG  1  11   1
M  END
> <Chemgauss4>
-8.235641

$$$$
