MODEL 1
REMARK VINA RESULT:    -7.061      0.000      0.000
REMARK INTER + INTRA:          -9.956
REMARK INTER:                  -9.125
REMARK INTRA:                  -0.832
REMARK UNBOUND:                -0.832
REMARK  5 active torsions:
REMARK  status: ('A' for Active; 'I' for Inactive)
REMARK    1  A    between atoms: S_2  and  N_5 
REMARK    2  A    between atoms: N_5  and  C_7 
REMARK    3  A    between atoms: C_8  and  C_9 
REMARK    4  A    between atoms: C_9  and  C_11 
REMARK       I    between atoms: N_12  and  C_14 
REMARK       I    between atoms: C_14  and  N_16 
REMARK    5  A    between atoms: N_16  and  C_18 
ROOT
HETATM    1  C   UNL     1       9.581  -1.635  22.525  1.00  0.00     0.091 C 
HETATM    2  N   UNL     1       9.223  -0.662  21.955  1.00  0.00    -0.301 N 
ATOM      3  HN  UNL     1       9.878   0.028  22.322  1.00  0.00     0.171 HD
HETATM    4  C   UNL     1       8.494   0.097  21.129  1.00  0.00     0.326 C 
HETATM    5  O   UNL     1       8.910   1.194  20.882  1.00  0.00    -0.247 OA
HETATM    6  N   UNL     1       7.306  -0.428  20.651  1.00  0.00    -0.293 N 
ATOM      7  HN  UNL     1       6.918  -1.304  21.001  1.00  0.00     0.172 HD
ENDROOT
BRANCH   1   8
HETATM    8  C   UNL     1       8.662  -2.664  22.729  1.00  0.00    -0.025 C 
HETATM    9  C   UNL     1       7.907  -3.455  23.029  1.00  0.00     0.028 C 
BRANCH   9  10
HETATM   10  N   UNL     1       7.030  -4.307  23.124  1.00  0.00    -0.229 N 
ATOM     11  HN  UNL     1       6.846  -4.617  24.078  1.00  0.00     0.190 HD
BRANCH  10  12
HETATM   12  S   UNL     1       6.123  -5.018  22.012  1.00  0.00     0.327 S 
HETATM   13 CL   UNL     1       4.732  -5.668  23.028  1.00  0.00     0.042 Cl
HETATM   14  O   UNL     1       5.606  -4.087  21.050  1.00  0.00    -0.188 OA
HETATM   15  O   UNL     1       6.783  -6.153  21.435  1.00  0.00    -0.188 OA
ENDBRANCH  10  12
ENDBRANCH   9  10
ENDBRANCH   1   8
BRANCH   1  16
HETATM   16  C   UNL     1      11.011  -1.537  22.881  1.00  0.00     0.029 C 
HETATM   17  C   UNL     1      11.223  -0.815  24.031  1.00  0.00     0.014 C 
ENDBRANCH   1  16
BRANCH   6  18
HETATM   18  C   UNL     1       6.694   0.300  19.688  1.00  0.00     0.126 A 
HETATM   19  N   UNL     1       7.134   0.431  18.436  1.00  0.00    -0.271 N 
HETATM   20  N   UNL     1       6.628   1.085  17.521  1.00  0.00    -0.242 N 
ATOM     21  HN  UNL     1       7.992  -0.070  18.207  1.00  0.00     0.190 HD
HETATM   22  N   UNL     1       5.582   1.661  17.696  1.00  0.00    -0.297 N 
ATOM     23  HN  UNL     1       7.094   1.140  16.615  1.00  0.00     0.208 HD
HETATM   24  C   UNL     1       5.201   1.499  18.826  1.00  0.00     0.112 A 
ATOM     25  HN  UNL     1       5.091   2.207  16.988  1.00  0.00     0.187 HD
HETATM   26  C   UNL     1       5.458   0.944  19.967  1.00  0.00     0.068 A 
ENDBRANCH   6  18
TORSDOF 5
ENDMDL
MODEL 2
REMARK VINA RESULT:    -6.606      4.528      5.867
REMARK INTER + INTRA:          -9.369
REMARK INTER:                  -8.547
REMARK INTRA:                  -0.822
REMARK UNBOUND:                -0.832
REMARK  5 active torsions:
REMARK  status: ('A' for Active; 'I' for Inactive)
REMARK    1  A    between atoms: S_2  and  N_5 
REMARK    2  A    between atoms: N_5  and  C_7 
REMARK    3  A    between atoms: C_8  and  C_9 
REMARK    4  A    between atoms: C_9  and  C_11 
REMARK       I    between atoms: N_12  and  C_14 
REMARK       I    between atoms: C_14  and  N_16 
REMARK    5  A    between atoms: N_16  and  C_18 
ROOT
HETATM    1  C   UNL     1       7.600  -4.355  23.114  1.00  0.00     0.091 C 
HETATM    2  N   UNL     1       8.332  -3.488  22.778  1.00  0.00    -0.301 N 
ATOM      3  HN  UNL     1       8.323  -3.610  21.765  1.00  0.00     0.171 HD
HETATM    4  C   UNL     1       9.163  -2.447  22.899  1.00  0.00     0.326 C 
HETATM    5  O   UNL     1       9.446  -1.852  21.896  1.00  0.00    -0.247 OA
HETATM    6  N   UNL     1       9.656  -2.159  24.158  1.00  0.00    -0.293 N 
ATOM      7  HN  UNL     1       9.509  -2.777  24.956  1.00  0.00     0.172 HD
ENDROOT
BRANCH   1   8
HETATM    8  C   UNL     1       7.736  -4.882  24.398  1.00  0.00    -0.025 C 
HETATM    9  C   UNL     1       7.884  -5.179  25.482  1.00  0.00     0.028 C 
BRANCH   9  10
HETATM   10  N   UNL     1       7.885  -5.669  26.607  1.00  0.00    -0.229 N 
ATOM     11  HN  UNL     1       8.810  -5.921  26.955  1.00  0.00     0.190 HD
BRANCH  10  12
HETATM   12  S   UNL     1       6.688  -5.981  27.623  1.00  0.00     0.327 S 
HETATM   13 CL   UNL     1       5.999  -4.298  27.912  1.00  0.00     0.042 Cl
HETATM   14  O   UNL     1       5.673  -6.808  27.037  1.00  0.00    -0.188 OA
HETATM   15  O   UNL     1       7.174  -6.453  28.887  1.00  0.00    -0.188 OA
ENDBRANCH  10  12
ENDBRANCH   9  10
ENDBRANCH   1   8
BRANCH   1  16
HETATM   16  C   UNL     1       6.638  -4.674  22.040  1.00  0.00     0.029 C 
HETATM   17  C   UNL     1       6.591  -6.017  21.751  1.00  0.00     0.014 C 
ENDBRANCH   1  16
BRANCH   6  18
HETATM   18  C   UNL     1      10.348  -1.000  24.262  1.00  0.00     0.126 A 
HETATM   19  N   UNL     1      11.617  -0.832  23.887  1.00  0.00    -0.271 N 
HETATM   20  N   UNL     1      12.300   0.191  23.965  1.00  0.00    -0.242 N 
ATOM     21  HN  UNL     1      12.077  -1.650  23.486  1.00  0.00     0.190 HD
HETATM   22  N   UNL     1      11.811   1.214  24.376  1.00  0.00    -0.297 N 
ATOM     23  HN  UNL     1      13.280   0.172  23.683  1.00  0.00     0.208 HD
HETATM   24  C   UNL     1      10.660   1.034  24.679  1.00  0.00     0.112 A 
ATOM     25  HN  UNL     1      12.302   2.105  24.455  1.00  0.00     0.187 HD
HETATM   26  C   UNL     1       9.700   0.169  24.748  1.00  0.00     0.068 A 
ENDBRANCH   6  18
TORSDOF 5
ENDMDL
MODEL 3
REMARK VINA RESULT:    -6.489      3.452      4.691
REMARK INTER + INTRA:          -9.217
REMARK INTER:                  -8.382
REMARK INTRA:                  -0.835
REMARK UNBOUND:                -0.832
REMARK  5 active torsions:
REMARK  status: ('A' for Active; 'I' for Inactive)
REMARK    1  A    between atoms: S_2  and  N_5 
REMARK    2  A    between atoms: N_5  and  C_7 
REMARK    3  A    between atoms: C_8  and  C_9 
REMARK    4  A    between atoms: C_9  and  C_11 
REMARK       I    between atoms: N_12  and  C_14 
REMARK       I    between atoms: C_14  and  N_16 
REMARK    5  A    between atoms: N_16  and  C_18 
ROOT
HETATM    1  C   UNL     1       7.919  -3.112  23.231  1.00  0.00     0.091 C 
HETATM    2  N   UNL     1       7.147  -2.881  22.365  1.00  0.00    -0.301 N 
ATOM      3  HN  UNL     1       6.632  -3.760  22.326  1.00  0.00     0.171 HD
HETATM    4  C   UNL     1       6.528  -2.184  21.404  1.00  0.00     0.326 C 
HETATM    5  O   UNL     1       5.501  -2.633  20.977  1.00  0.00    -0.247 OA
HETATM    6  N   UNL     1       7.135  -1.025  20.956  1.00  0.00    -0.293 N 
ATOM      7  HN  UNL     1       8.078  -0.759  21.240  1.00  0.00     0.172 HD
ENDROOT
BRANCH   1   8
HETATM    8  C   UNL     1       9.125  -2.412  23.253  1.00  0.00    -0.025 C 
HETATM    9  C   UNL     1      10.044  -1.752  23.181  1.00  0.00     0.028 C 
BRANCH   9  10
HETATM   10  N   UNL     1      11.088  -1.122  23.320  1.00  0.00    -0.229 N 
ATOM     11  HN  UNL     1      11.879  -1.498  22.797  1.00  0.00     0.190 HD
BRANCH  10  12
HETATM   12  S   UNL     1      11.425   0.187  24.179  1.00  0.00     0.327 S 
HETATM   13 CL   UNL     1      10.988   1.528  22.996  1.00  0.00     0.042 Cl
HETATM   14  O   UNL     1      10.600   0.303  25.346  1.00  0.00    -0.188 OA
HETATM   15  O   UNL     1      12.831   0.303  24.438  1.00  0.00    -0.188 OA
ENDBRANCH  10  12
ENDBRANCH   9  10
ENDBRANCH   1   8
BRANCH   1  16
HETATM   16  C   UNL     1       7.378  -4.125  24.158  1.00  0.00     0.029 C 
HETATM   17  C   UNL     1       8.152  -4.282  25.284  1.00  0.00     0.014 C 
ENDBRANCH   1  16
BRANCH   6  18
HETATM   18  C   UNL     1       6.393  -0.267  20.116  1.00  0.00     0.126 A 
HETATM   19  N   UNL     1       5.915  -0.675  18.940  1.00  0.00    -0.271 N 
HETATM   20  N   UNL     1       5.245  -0.030  18.130  1.00  0.00    -0.242 N 
ATOM     21  HN  UNL     1       6.129  -1.638  18.679  1.00  0.00     0.190 HD
HETATM   22  N   UNL     1       4.902   1.097  18.391  1.00  0.00    -0.297 N 
ATOM     23  HN  UNL     1       4.979  -0.450  17.239  1.00  0.00     0.208 HD
HETATM   24  C   UNL     1       5.327   1.423  19.468  1.00  0.00     0.112 A 
ATOM     25  HN  UNL     1       4.334   1.689  17.785  1.00  0.00     0.187 HD
HETATM   26  C   UNL     1       6.021   1.052  20.496  1.00  0.00     0.068 A 
ENDBRANCH   6  18
TORSDOF 5
ENDMDL
MODEL 4
REMARK VINA RESULT:    -6.416     15.928     18.113
REMARK INTER + INTRA:          -9.123
REMARK INTER:                  -8.258
REMARK INTRA:                  -0.865
REMARK UNBOUND:                -0.832
REMARK  5 active torsions:
REMARK  status: ('A' for Active; 'I' for Inactive)
REMARK    1  A    between atoms: S_2  and  N_5 
REMARK    2  A    between atoms: N_5  and  C_7 
REMARK    3  A    between atoms: C_8  and  C_9 
REMARK    4  A    between atoms: C_9  and  C_11 
REMARK       I    between atoms: N_12  and  C_14 
REMARK       I    between atoms: C_14  and  N_16 
REMARK    5  A    between atoms: N_16  and  C_18 
ROOT
HETATM    1  C   UNL     1      22.709  -1.723  25.207  1.00  0.00     0.091 C 
HETATM    2  N   UNL     1      23.015  -1.293  26.267  1.00  0.00    -0.301 N 
ATOM      3  HN  UNL     1      23.055  -0.294  26.066  1.00  0.00     0.171 HD
HETATM    4  C   UNL     1      23.341  -1.302  27.564  1.00  0.00     0.326 C 
HETATM    5  O   UNL     1      23.349  -0.247  28.135  1.00  0.00    -0.247 OA
HETATM    6  N   UNL     1      23.674  -2.517  28.137  1.00  0.00    -0.293 N 
ATOM      7  HN  UNL     1      23.798  -3.364  27.584  1.00  0.00     0.172 HD
ENDROOT
BRANCH   1   8
HETATM    8  C   UNL     1      23.054  -3.038  24.896  1.00  0.00    -0.025 C 
HETATM    9  C   UNL     1      23.387  -4.114  24.774  1.00  0.00     0.028 C 
BRANCH   9  10
HETATM   10  N   UNL     1      23.571  -5.292  24.484  1.00  0.00    -0.229 N 
ATOM     11  HN  UNL     1      23.237  -5.554  23.557  1.00  0.00     0.190 HD
BRANCH  10  12
HETATM   12  S   UNL     1      24.246  -6.489  25.307  1.00  0.00     0.327 S 
HETATM   13 CL   UNL     1      26.027  -6.258  24.903  1.00  0.00     0.042 Cl
HETATM   14  O   UNL     1      24.064  -6.351  26.723  1.00  0.00    -0.188 OA
HETATM   15  O   UNL     1      23.864  -7.770  24.787  1.00  0.00    -0.188 OA
ENDBRANCH  10  12
ENDBRANCH   9  10
ENDBRANCH   1   8
BRANCH   1  16
HETATM   16  C   UNL     1      21.962  -0.714  24.429  1.00  0.00     0.029 C 
HETATM   17  C   UNL     1      20.622  -1.004  24.333  1.00  0.00     0.014 C 
ENDBRANCH   1  16
BRANCH   6  18
HETATM   18  C   UNL     1      23.824  -2.504  29.482  1.00  0.00     0.126 A 
HETATM   19  N   UNL     1      22.835  -2.337  30.360  1.00  0.00    -0.271 N 
HETATM   20  N   UNL     1      22.911  -2.305  31.590  1.00  0.00    -0.242 N 
ATOM     21  HN  UNL     1      21.901  -2.220  29.965  1.00  0.00     0.190 HD
HETATM   22  N   UNL     1      23.971  -2.491  32.134  1.00  0.00    -0.297 N 
ATOM     23  HN  UNL     1      22.077  -2.123  32.148  1.00  0.00     0.208 HD
HETATM   24  C   UNL     1      24.836  -2.666  31.315  1.00  0.00     0.112 A 
ATOM     25  HN  UNL     1      24.115  -2.500  33.144  1.00  0.00     0.187 HD
HETATM   26  C   UNL     1      25.106  -2.739  30.052  1.00  0.00     0.068 A 
ENDBRANCH   6  18
TORSDOF 5
ENDMDL
MODEL 5
REMARK VINA RESULT:    -6.018      3.204      5.679
REMARK INTER + INTRA:          -8.608
REMARK INTER:                  -7.684
REMARK INTRA:                  -0.924
REMARK UNBOUND:                -0.832
REMARK  5 active torsions:
REMARK  status: ('A' for Active; 'I' for Inactive)
REMARK    1  A    between atoms: S_2  and  N_5 
REMARK    2  A    between atoms: N_5  and  C_7 
REMARK    3  A    between atoms: C_8  and  C_9 
REMARK    4  A    between atoms: C_9  and  C_11 
REMARK       I    between atoms: N_12  and  C_14 
REMARK       I    between atoms: C_14  and  N_16 
REMARK    5  A    between atoms: N_16  and  C_18 
ROOT
HETATM    1  C   UNL     1       8.592   0.104  23.052  1.00  0.00     0.091 C 
HETATM    2  N   UNL     1       8.689  -1.071  23.156  1.00  0.00    -0.301 N 
ATOM      3  HN  UNL     1       9.584  -1.148  23.639  1.00  0.00     0.171 HD
HETATM    4  C   UNL     1       8.356  -2.361  23.035  1.00  0.00     0.326 C 
HETATM    5  O   UNL     1       8.997  -3.154  23.668  1.00  0.00    -0.247 OA
HETATM    6  N   UNL     1       7.327  -2.683  22.169  1.00  0.00    -0.293 N 
ATOM      7  HN  UNL     1       6.908  -1.996  21.542  1.00  0.00     0.172 HD
ENDROOT
BRANCH   1   8
HETATM    8  C   UNL     1       7.813   0.619  22.016  1.00  0.00    -0.025 C 
HETATM    9  C   UNL     1       7.166   0.903  21.130  1.00  0.00     0.028 C 
BRANCH   9  10
HETATM   10  N   UNL     1       6.404   1.397  20.304  1.00  0.00    -0.229 N 
ATOM     11  HN  UNL     1       6.393   2.417  20.299  1.00  0.00     0.190 HD
BRANCH  10  12
HETATM   12  S   UNL     1       5.425   0.720  19.233  1.00  0.00     0.327 S 
HETATM   13 CL   UNL     1       5.563  -1.061  19.680  1.00  0.00     0.042 Cl
HETATM   14  O   UNL     1       4.063   1.140  19.395  1.00  0.00    -0.188 OA
HETATM   15  O   UNL     1       5.927   0.853  17.897  1.00  0.00    -0.188 OA
ENDBRANCH  10  12
ENDBRANCH   9  10
ENDBRANCH   1   8
BRANCH   1  16
HETATM   16  C   UNL     1       9.338   0.788  24.126  1.00  0.00     0.029 C 
HETATM   17  C   UNL     1       8.523   1.229  25.141  1.00  0.00     0.014 C 
ENDBRANCH   1  16
BRANCH   6  18
HETATM   18  C   UNL     1       6.911  -3.970  22.212  1.00  0.00     0.126 A 
HETATM   19  N   UNL     1       7.682  -5.030  21.965  1.00  0.00    -0.271 N 
HETATM   20  N   UNL     1       7.360  -6.220  21.978  1.00  0.00    -0.242 N 
ATOM     21  HN  UNL     1       8.657  -4.832  21.739  1.00  0.00     0.190 HD
HETATM   22  N   UNL     1       6.239  -6.539  22.291  1.00  0.00    -0.297 N 
ATOM     23  HN  UNL     1       8.041  -6.936  21.724  1.00  0.00     0.208 HD
HETATM   24  C   UNL     1       5.579  -5.562  22.533  1.00  0.00     0.112 A 
ATOM     25  HN  UNL     1       5.899  -7.500  22.344  1.00  0.00     0.187 HD
HETATM   26  C   UNL     1       5.575  -4.269  22.598  1.00  0.00     0.068 A 
ENDBRANCH   6  18
TORSDOF 5
ENDMDL
MODEL 6
REMARK VINA RESULT:    -5.903      4.533      6.455
REMARK INTER + INTRA:          -8.460
REMARK INTER:                  -7.685
REMARK INTRA:                  -0.775
REMARK UNBOUND:                -0.832
REMARK  5 active torsions:
REMARK  status: ('A' for Active; 'I' for Inactive)
REMARK    1  A    between atoms: S_2  and  N_5 
REMARK    2  A    between atoms: N_5  and  C_7 
REMARK    3  A    between atoms: C_8  and  C_9 
REMARK    4  A    between atoms: C_9  and  C_11 
REMARK       I    between atoms: N_12  and  C_14 
REMARK       I    between atoms: C_14  and  N_16 
REMARK    5  A    between atoms: N_16  and  C_18 
ROOT
HETATM    1  C   UNL     1       5.814  -4.805  24.405  1.00  0.00     0.091 C 
HETATM    2  N   UNL     1       6.508  -4.192  23.668  1.00  0.00    -0.301 N 
ATOM      3  HN  UNL     1       6.062  -4.391  22.773  1.00  0.00     0.171 HD
HETATM    4  C   UNL     1       7.514  -3.401  23.277  1.00  0.00     0.326 C 
HETATM    5  O   UNL     1       7.480  -2.987  22.152  1.00  0.00    -0.247 OA
HETATM    6  N   UNL     1       8.527  -3.150  24.185  1.00  0.00    -0.293 N 
ATOM      7  HN  UNL     1       8.592  -3.640  25.078  1.00  0.00     0.172 HD
ENDROOT
BRANCH   1   8
HETATM    8  C   UNL     1       6.349  -5.240  25.617  1.00  0.00    -0.025 C 
HETATM    9  C   UNL     1       6.676  -5.526  26.664  1.00  0.00     0.028 C 
BRANCH   9  10
HETATM   10  N   UNL     1       7.129  -6.023  27.691  1.00  0.00    -0.229 N 
ATOM     11  HN  UNL     1       8.131  -6.206  27.662  1.00  0.00     0.190 HD
BRANCH  10  12
HETATM   12  S   UNL     1       6.420  -6.433  29.067  1.00  0.00     0.327 S 
HETATM   13 CL   UNL     1       4.664  -6.607  28.542  1.00  0.00     0.042 Cl
HETATM   14  O   UNL     1       6.887  -7.693  29.569  1.00  0.00    -0.188 OA
HETATM   15  O   UNL     1       6.464  -5.366  30.024  1.00  0.00    -0.188 OA
ENDBRANCH  10  12
ENDBRANCH   9  10
ENDBRANCH   1   8
BRANCH   1  16
HETATM   16  C   UNL     1       4.454  -4.946  23.847  1.00  0.00     0.029 C 
HETATM   17  C   UNL     1       3.987  -6.237  23.910  1.00  0.00     0.014 C 
ENDBRANCH   1  16
BRANCH   6  18
HETATM   18  C   UNL     1       9.426  -2.211  23.810  1.00  0.00     0.126 A 
HETATM   19  N   UNL     1      10.122  -2.232  22.672  1.00  0.00    -0.271 N 
HETATM   20  N   UNL     1      10.958  -1.414  22.282  1.00  0.00    -0.242 N 
ATOM     21  HN  UNL     1       9.939  -3.019  22.050  1.00  0.00     0.190 HD
HETATM   22  N   UNL     1      11.189  -0.426  22.935  1.00  0.00    -0.297 N 
ATOM     23  HN  UNL     1      11.456  -1.573  21.406  1.00  0.00     0.208 HD
HETATM   24  C   UNL     1      10.525  -0.426  23.940  1.00  0.00     0.112 A 
ATOM     25  HN  UNL     1      11.851   0.304  22.674  1.00  0.00     0.187 HD
HETATM   26  C   UNL     1       9.638  -1.069  24.630  1.00  0.00     0.068 A 
ENDBRANCH   6  18
TORSDOF 5
ENDMDL
MODEL 7
REMARK VINA RESULT:    -5.851     22.241     23.910
REMARK INTER + INTRA:          -8.393
REMARK INTER:                  -7.646
REMARK INTRA:                  -0.747
REMARK UNBOUND:                -0.832
REMARK  5 active torsions:
REMARK  status: ('A' for Active; 'I' for Inactive)
REMARK    1  A    between atoms: S_2  and  N_5 
REMARK    2  A    between atoms: N_5  and  C_7 
REMARK    3  A    between atoms: C_8  and  C_9 
REMARK    4  A    between atoms: C_9  and  C_11 
REMARK       I    between atoms: N_12  and  C_14 
REMARK       I    between atoms: C_14  and  N_16 
REMARK    5  A    between atoms: N_16  and  C_18 
ROOT
HETATM    1  C   UNL     1       5.568  10.817   2.658  1.00  0.00     0.091 C 
HETATM    2  N   UNL     1       6.573  11.180   3.167  1.00  0.00    -0.301 N 
ATOM      3  HN  UNL     1       6.834  10.348   3.695  1.00  0.00     0.171 HD
HETATM    4  C   UNL     1       7.580  12.003   3.480  1.00  0.00     0.326 C 
HETATM    5  O   UNL     1       8.531  11.521   4.030  1.00  0.00    -0.247 OA
HETATM    6  N   UNL     1       7.434  13.345   3.178  1.00  0.00    -0.293 N 
ATOM      7  HN  UNL     1       6.552  13.736   2.846  1.00  0.00     0.172 HD
ENDROOT
BRANCH   1   8
HETATM    8  C   UNL     1       4.623  11.773   2.291  1.00  0.00    -0.025 C 
HETATM    9  C   UNL     1       3.765  12.484   2.080  1.00  0.00     0.028 C 
BRANCH   9  10
HETATM   10  N   UNL     1       3.008  13.409   1.804  1.00  0.00    -0.229 N 
ATOM     11  HN  UNL     1       3.438  14.154   1.256  1.00  0.00     0.190 HD
BRANCH  10  12
HETATM   12  S   UNL     1       1.464  13.651   2.153  1.00  0.00     0.327 S 
HETATM   13 CL   UNL     1       0.899  14.611   0.687  1.00  0.00     0.042 Cl
HETATM   14  O   UNL     1       0.721  12.427   2.227  1.00  0.00    -0.188 OA
HETATM   15  O   UNL     1       1.306  14.504   3.295  1.00  0.00    -0.188 OA
ENDBRANCH  10  12
ENDBRANCH   9  10
ENDBRANCH   1   8
BRANCH   1  16
HETATM   16  C   UNL     1       5.566   9.349   2.494  1.00  0.00     0.029 C 
HETATM   17  C   UNL     1       4.516   8.745   3.143  1.00  0.00     0.014 C 
ENDBRANCH   1  16
BRANCH   6  18
HETATM   18  C   UNL     1       8.541  14.105   3.351  1.00  0.00     0.126 A 
HETATM   19  N   UNL     1       9.737  13.843   2.823  1.00  0.00    -0.271 N 
HETATM   20  N   UNL     1      10.779  14.489   2.953  1.00  0.00    -0.242 N 
ATOM     21  HN  UNL     1       9.796  13.008   2.240  1.00  0.00     0.190 HD
HETATM   22  N   UNL     1      10.777  15.520   3.580  1.00  0.00    -0.297 N 
ATOM     23  HN  UNL     1      11.644  14.152   2.530  1.00  0.00     0.208 HD
HETATM   24  C   UNL     1       9.678  15.739   4.019  1.00  0.00     0.112 A 
ATOM     25  HN  UNL     1      11.591  16.120   3.719  1.00  0.00     0.187 HD
HETATM   26  C   UNL     1       8.459  15.312   4.098  1.00  0.00     0.068 A 
ENDBRANCH   6  18
TORSDOF 5
ENDMDL
MODEL 8
REMARK VINA RESULT:    -5.732      4.001      5.167
REMARK INTER + INTRA:          -8.239
REMARK INTER:                  -7.437
REMARK INTRA:                  -0.802
REMARK UNBOUND:                -0.832
REMARK  5 active torsions:
REMARK  status: ('A' for Active; 'I' for Inactive)
REMARK    1  A    between atoms: S_2  and  N_5 
REMARK    2  A    between atoms: N_5  and  C_7 
REMARK    3  A    between atoms: C_8  and  C_9 
REMARK    4  A    between atoms: C_9  and  C_11 
REMARK       I    between atoms: N_12  and  C_14 
REMARK       I    between atoms: C_14  and  N_16 
REMARK    5  A    between atoms: N_16  and  C_18 
ROOT
HETATM    1  C   UNL     1       4.990  -3.357  23.730  1.00  0.00     0.091 C 
HETATM    2  N   UNL     1       5.299  -3.292  22.589  1.00  0.00    -0.301 N 
ATOM      3  HN  UNL     1       5.299  -4.279  22.333  1.00  0.00     0.171 HD
HETATM    4  C   UNL     1       5.647  -2.730  21.426  1.00  0.00     0.326 C 
HETATM    5  O   UNL     1       5.628  -3.428  20.452  1.00  0.00    -0.247 OA
HETATM    6  N   UNL     1       6.034  -1.401  21.443  1.00  0.00    -0.293 N 
ATOM      7  HN  UNL     1       6.178  -0.887  22.312  1.00  0.00     0.172 HD
ENDROOT
BRANCH   1   8
HETATM    8  C   UNL     1       5.376  -2.326  24.585  1.00  0.00    -0.025 C 
HETATM    9  C   UNL     1       5.739  -1.422  25.165  1.00  0.00     0.028 C 
BRANCH   9  10
HETATM   10  N   UNL     1       5.961  -0.502  25.946  1.00  0.00    -0.229 N 
ATOM     11  HN  UNL     1       5.129  -0.000  26.253  1.00  0.00     0.190 HD
BRANCH  10  12
HETATM   12  S   UNL     1       7.331   0.047  26.568  1.00  0.00     0.327 S 
HETATM   13 CL   UNL     1       7.843   1.283  25.303  1.00  0.00     0.042 Cl
HETATM   14  O   UNL     1       7.134   0.714  27.823  1.00  0.00    -0.188 OA
HETATM   15  O   UNL     1       8.345  -0.966  26.594  1.00  0.00    -0.188 OA
ENDBRANCH  10  12
ENDBRANCH   9  10
ENDBRANCH   1   8
BRANCH   1  16
HETATM   16  C   UNL     1       4.194  -4.574  23.987  1.00  0.00     0.029 C 
HETATM   17  C   UNL     1       4.695  -5.326  25.024  1.00  0.00     0.014 C 
ENDBRANCH   1  16
BRANCH   6  18
HETATM   18  C   UNL     1       6.207  -0.830  20.228  1.00  0.00     0.126 A 
HETATM   19  N   UNL     1       5.359  -0.940  19.205  1.00  0.00    -0.271 N 
HETATM   20  N   UNL     1       5.467  -0.454  18.077  1.00  0.00    -0.242 N 
ATOM     21  HN  UNL     1       4.519  -1.492  19.377  1.00  0.00     0.190 HD
HETATM   22  N   UNL     1       6.404   0.259  17.813  1.00  0.00    -0.297 N 
ATOM     23  HN  UNL     1       4.763  -0.653  17.366  1.00  0.00     0.208 HD
HETATM   24  C   UNL     1       7.134   0.357  18.765  1.00  0.00     0.112 A 
ATOM     25  HN  UNL     1       6.557   0.712  16.912  1.00  0.00     0.187 HD
HETATM   26  C   UNL     1       7.335   0.004  19.994  1.00  0.00     0.068 A 
ENDBRANCH   6  18
TORSDOF 5
ENDMDL
MODEL 9
REMARK VINA RESULT:    -5.611      1.844      2.043
REMARK INTER + INTRA:          -8.083
REMARK INTER:                  -7.302
REMARK INTRA:                  -0.780
REMARK UNBOUND:                -0.832
REMARK  5 active torsions:
REMARK  status: ('A' for Active; 'I' for Inactive)
REMARK    1  A    between atoms: S_2  and  N_5 
REMARK    2  A    between atoms: N_5  and  C_7 
REMARK    3  A    between atoms: C_8  and  C_9 
REMARK    4  A    between atoms: C_9  and  C_11 
REMARK       I    between atoms: N_12  and  C_14 
REMARK       I    between atoms: C_14  and  N_16 
REMARK    5  A    between atoms: N_16  and  C_18 
ROOT
HETATM    1  C   UNL     1       8.224  -0.308  23.871  1.00  0.00     0.091 C 
HETATM    2  N   UNL     1       7.932   0.515  23.072  1.00  0.00    -0.301 N 
ATOM      3  HN  UNL     1       8.315   1.353  23.509  1.00  0.00     0.171 HD
HETATM    4  C   UNL     1       7.413   1.030  21.952  1.00  0.00     0.326 C 
HETATM    5  O   UNL     1       7.715   2.157  21.675  1.00  0.00    -0.247 OA
HETATM    6  N   UNL     1       6.546   0.238  21.220  1.00  0.00    -0.293 N 
ATOM      7  HN  UNL     1       6.201  -0.657  21.567  1.00  0.00     0.172 HD
ENDROOT
BRANCH   1   8
HETATM    8  C   UNL     1       7.459  -1.471  23.942  1.00  0.00    -0.025 C 
HETATM    9  C   UNL     1       6.952  -2.485  23.956  1.00  0.00     0.028 C 
BRANCH   9  10
HETATM   10  N   UNL     1       6.265  -3.485  24.136  1.00  0.00    -0.229 N 
ATOM     11  HN  UNL     1       5.308  -3.290  24.430  1.00  0.00     0.190 HD
BRANCH  10  12
HETATM   12  S   UNL     1       6.608  -5.042  23.991  1.00  0.00     0.327 S 
HETATM   13 CL   UNL     1       6.321  -5.646  25.706  1.00  0.00     0.042 Cl
HETATM   14  O   UNL     1       5.712  -5.720  23.099  1.00  0.00    -0.188 OA
HETATM   15  O   UNL     1       7.996  -5.255  23.702  1.00  0.00    -0.188 OA
ENDBRANCH  10  12
ENDBRANCH   9  10
ENDBRANCH   1   8
BRANCH   1  16
HETATM   16  C   UNL     1       9.423   0.103  24.631  1.00  0.00     0.029 C 
HETATM   17  C   UNL     1      10.521   0.294  23.826  1.00  0.00     0.014 C 
ENDBRANCH   1  16
BRANCH   6  18
HETATM   18  C   UNL     1       6.186   0.732  20.012  1.00  0.00     0.126 A 
HETATM   19  N   UNL     1       5.226   1.635  19.812  1.00  0.00    -0.271 N 
HETATM   20  N   UNL     1       4.847   2.113  18.740  1.00  0.00    -0.242 N 
ATOM     21  HN  UNL     1       4.747   1.972  20.647  1.00  0.00     0.190 HD
HETATM   22  N   UNL     1       5.402   1.807  17.713  1.00  0.00    -0.297 N 
ATOM     23  HN  UNL     1       4.065   2.767  18.721  1.00  0.00     0.208 HD
HETATM   24  C   UNL     1       6.279   1.012  17.933  1.00  0.00     0.112 A 
ATOM     25  HN  UNL     1       5.162   2.170  16.790  1.00  0.00     0.187 HD
HETATM   26  C   UNL     1       6.892   0.329  18.845  1.00  0.00     0.068 A 
ENDBRANCH   6  18
TORSDOF 5
ENDMDL
