stable:False satoms:14 tatoms:24 sratio:0.5833333333333334
  -OEChem-07092417443D

 24 24  0     1  0  0  0  0  0999 V2000
    6.4596   -4.9799   26.3703 Cl  0  0  0  0  0  0  0  0  0  0  0  0
    8.1950   -4.4019   26.1570 S   0  0  0  0  0  0  0  0  0  0  0  0
    9.0527   -5.5407   26.0030 O   0  0  0  0  0  0  0  0  0  0  0  0
    8.5031   -3.5828   27.2931 O   0  0  0  0  0  0  0  0  0  0  0  0
    8.0830   -3.5355   24.8149 N   0  0  0  0  0  0  0  0  0  0  0  0
    8.9107   -2.8502   24.2225 C   0  0  0  0  0  0  0  0  0  0  0  0
    9.5030   -2.0960   23.6177 C   0  0  0  0  0  0  0  0  0  0  0  0
   10.3660   -1.2081   22.9769 C   0  0  3  0  0  0  0  0  0  0  0  0
   11.4224    0.3424   24.4833 H   0  0  0  0  0  0  0  0  0  0  0  0
   12.2349   -0.0793   23.9089 C   0  0  0  0  0  0  0  0  0  0  0  0
   13.2579    0.1768   23.9348 H   0  0  0  0  0  0  0  0  0  0  0  0
   12.5675   -1.5195   22.4505 H   0  0  0  0  0  0  0  0  0  0  0  0
   11.8347   -1.0731   23.0484 C   0  0  0  0  0  0  0  0  0  0  0  0
    9.9094   -0.4239   22.2174 N   0  0  0  0  0  0  0  0  0  0  0  0
    9.0449    0.0970   21.3386 C   0  0  0  0  0  0  0  0  0  0  0  0
    9.4053    1.0605   20.7205 O   0  0  0  0  0  0  0  0  0  0  0  0
    7.7966   -0.4908   21.2357 N   0  0  0  0  0  0  0  0  0  0  0  0
    7.0252   -0.0436   20.2182 C   0  0  0  0  0  0  0  0  0  0  0  0
    7.3447   -0.1223   18.9259 N   0  0  0  0  0  0  0  0  0  0  0  0
    6.6905    0.2747   17.9585 N   0  0  0  0  0  0  0  0  0  0  0  0
    5.5975    0.7582   18.1258 N   0  0  0  0  0  0  0  0  0  0  0  0
    5.3301    0.7882   19.2989 C   0  0  0  0  0  0  0  0  0  0  0  0
    5.7431    0.5070   20.4926 C   0  0  0  0  0  0  0  0  0  0  0  0
    5.3064    0.6527   21.4833 H   0  0  0  0  0  0  0  0  0  0  0  0
 20 21  2  0  0  0  0
 19 20  1  0  0  0  0
 21 22  1  0  0  0  0
 18 19  2  0  0  0  0
 22 23  2  0  0  0  0
 18 23  1  0  0  0  0
 17 18  1  0  0  0  0
 23 24  1  0  0  0  0
 15 16  2  0  0  0  0
 15 17  1  0  0  0  0
 14 15  1  0  0  0  0
  8 14  1  0  0  0  0
 12 13  1  0  0  0  0
  8 13  1  0  0  0  0
  7  8  1  0  0  0  0
 10 13  2  0  0  0  0
  6  7  3  0  0  0  0
 10 11  1  0  0  0  0
  9 10  1  0  0  0  0
  5  6  1  0  0  0  0
  2  5  1  0  0  0  0
  2  3  2  0  0  0  0
  1  2  1  0  0  0  0
  2  4  2  0  0  0  0
M  END
> <Shapegauss>
-245.648178

$$$$
