stable:False satoms:7 tatoms:24 sratio:0.2916666666666667
  -OEChem-07092417453D

 24 24  0     1  0  0  0  0  0999 V2000
    6.5408   -4.8229   26.5127 C   0  0  0  0  0  0  0  0  0  0  0  0
    8.2861   -4.2840   26.1389 S   0  0  0  0  0  0  0  0  0  0  0  0
    9.0939   -5.4796   26.1020 O   0  0  0  0  0  0  0  0  0  0  0  0
    8.6185   -3.3955   27.1878 O   0  0  0  0  0  0  0  0  0  0  0  0
    8.1735   -3.5655   24.7090 N   0  0  0  0  0  0  0  0  0  0  0  0
    8.9392   -2.8481   24.1541 C   0  0  0  0  0  0  0  0  0  0  0  0
    9.4023   -1.9964   23.5320 C   0  0  0  0  0  0  0  0  0  0  0  0
   10.3357   -1.1714   23.1382 C   0  0  1  0  0  0  0  0  0  0  0  0
   11.0621    0.0190   24.3102 C   0  0  0  0  0  0  0  0  0  0  0  0
   12.0487    0.2523   24.2556 C   0  0  0  0  0  0  0  0  0  0  0  0
   13.1582   -0.3147   23.3770 C   0  0  0  0  0  0  0  0  0  0  0  0
   12.7907   -1.1617   22.7048 C   0  0  0  0  0  0  0  0  0  0  0  0
   11.7682   -1.6847   22.4625 C   0  0  0  0  0  0  0  0  0  0  0  0
    9.6888   -0.5645   22.3177 C   0  0  0  0  0  0  0  0  0  0  0  0
    8.9871    0.0485   21.3979 C   0  0  0  0  0  0  0  0  0  0  0  0
    9.4959    0.9958   21.0015 O   0  0  0  0  0  0  0  0  0  0  0  0
    7.8415   -0.5913   21.1479 N   0  0  0  0  0  0  0  0  0  0  0  0
    7.1915   -0.1386   20.2035 C   0  0  0  0  0  0  0  0  0  0  0  0
    7.2282   -0.0353   18.8966 C   0  0  0  0  0  0  0  0  0  0  0  0
    6.7910    0.3395   17.8049 N   0  0  0  0  0  0  0  0  0  0  0  0
    5.7151    0.8860   18.2550 C   0  0  0  0  0  0  0  0  0  0  0  0
    5.2633    0.9949   19.4517 C   0  0  0  0  0  0  0  0  0  0  0  0
    5.7522    0.5774   20.6187 C   0  0  0  0  0  0  0  0  0  0  0  0
    5.4116    0.6508   21.6165 C   0  0  0  0  0  0  0  0  0  0  0  0
 20 21  2  0  0  0  0
 19 20  1  0  0  0  0
 21 22  1  0  0  0  0
 18 19  2  0  0  0  0
 22 23  2  0  0  0  0
 18 23  1  0  0  0  0
 17 18  1  0  0  0  0
 23 24  1  0  0  0  0
 15 16  2  0  0  0  0
 15 17  1  0  0  0  0
 14 15  1  0  0  0  0
  8 14  1  0  0  0  0
 12 13  2  0  0  0  0
  8 13  1  0  0  0  0
 11 12  1  0  0  0  0
  7  8  1  0  0  0  0
 10 11  1  0  0  0  0
  6  7  3  0  0  0  0
  5  6  1  0  0  0  0
  9 10  2  0  0  0  0
  2  5  1  0  0  0  0
  2  3  2  0  0  0  0
  1  2  1  0  0  0  0
  2  4  2  0  0  0  0
M  END
> <Shapegauss>
-287.776764

$$$$
