MODEL 1
REMARK VINA RESULT:    -6.054      0.000      0.000
REMARK INTER + INTRA:         -11.489
REMARK INTER:                  -9.947
REMARK INTRA:                  -1.542
REMARK UNBOUND:                -1.542
REMARK  11 active torsions:
REMARK  status: ('A' for Active; 'I' for Inactive)
REMARK    1  A    between atoms: S_2  and  N_5 
REMARK    2  A    between atoms: N_5  and  C_7 
REMARK    3  A    between atoms: C_7  and  C_8 
REMARK    4  A    between atoms: C_8  and  C_9 
REMARK    5  A    between atoms: C_9  and  C_15 
REMARK    6  A    between atoms: C_9  and  C_14 
REMARK    7  A    between atoms: C_11  and  C_12 
REMARK    8  A    between atoms: C_12  and  C_13 
REMARK    9  A    between atoms: C_13  and  C_14 
REMARK   10  A    between atoms: C_15  and  C_16 
REMARK       I    between atoms: C_16  and  N_18 
REMARK   11  A    between atoms: N_18  and  C_20 
ROOT
HETATM    1  C   UNL     1       8.512  -1.690  23.887  1.00  0.00     0.096 C 
ENDROOT
BRANCH   1   2
HETATM    2  C   UNL     1       8.253  -2.943  23.619  1.00  0.00     0.125 C 
BRANCH   2   3
HETATM    3  C   UNL     1       8.033  -3.857  22.954  1.00  0.00    -0.059 C 
BRANCH   3   4
HETATM    4  N   UNL     1       7.488  -4.732  22.366  1.00  0.00    -0.254 N 
ATOM      5  HN  UNL     1       8.043  -5.579  22.241  1.00  0.00     0.188 HD
BRANCH   4   6
HETATM    6  S   UNL     1       6.013  -4.790  21.738  1.00  0.00     0.233 S 
HETATM    7  C   UNL     1       4.903  -5.054  23.212  1.00  0.00     0.186 C 
HETATM    8  O   UNL     1       5.614  -3.541  21.133  1.00  0.00    -0.206 OA
HETATM    9  O   UNL     1       5.796  -5.922  20.919  1.00  0.00    -0.206 OA
ENDBRANCH   4   6
ENDBRANCH   3   4
ENDBRANCH   2   3
ENDBRANCH   1   2
BRANCH   1  10
HETATM   10  C   UNL     1       8.242  -1.228  22.805  1.00  0.00    -0.074 C 
BRANCH  10  11
HETATM   11  C   UNL     1       7.943  -0.679  21.653  1.00  0.00     0.289 C 
HETATM   12  O   UNL     1       8.864  -0.330  21.069  1.00  0.00    -0.259 OA
HETATM   13  N   UNL     1       6.623  -0.665  21.446  1.00  0.00    -0.315 N 
ATOM     14  HN  UNL     1       5.952  -0.952  22.159  1.00  0.00     0.170 HD
BRANCH  13  15
HETATM   15  C   UNL     1       6.279  -0.280  20.327  1.00  0.00     0.060 A 
HETATM   16  C   UNL     1       6.109  -0.720  19.104  1.00  0.00     0.117 A 
HETATM   17  N   UNL     1       5.833  -0.584  17.908  1.00  0.00    -0.373 N 
HETATM   18  C   UNL     1       5.537   0.668  17.966  1.00  0.00     0.088 A 
ATOM     19  HN  UNL     1       5.837  -1.245  17.132  1.00  0.00     0.164 HD
HETATM   20  C   UNL     1       5.537   1.489  18.953  1.00  0.00     0.030 A 
HETATM   21  C   UNL     1       5.836   1.318  20.240  1.00  0.00    -0.016 A 
HETATM   22  C   UNL     1       5.850   1.966  21.074  1.00  0.00     0.026 C 
ENDBRANCH  13  15
ENDBRANCH  10  11
ENDBRANCH   1  10
BRANCH   1  23
HETATM   23  C   UNL     1      10.016  -1.163  24.368  1.00  0.00    -0.009 C 
BRANCH  23  24
HETATM   24  C   UNL     1      10.255  -0.022  24.517  1.00  0.00    -0.003 C 
BRANCH  24  25
HETATM   25  C   UNL     1      11.185   0.628  24.641  1.00  0.00    -0.001 C 
BRANCH  25  26
HETATM   26  C   UNL     1      11.192   1.820  23.691  1.00  0.00    -0.010 C 
HETATM   27  C   UNL     1      10.737   2.726  23.762  1.00  0.00     0.011 C 
ENDBRANCH  25  26
ENDBRANCH  24  25
ENDBRANCH  23  24
ENDBRANCH   1  23
TORSDOF 11
ENDMDL
MODEL 2
REMARK VINA RESULT:    -5.960      2.783      6.028
REMARK INTER + INTRA:         -11.334
REMARK INTER:                  -9.805
REMARK INTRA:                  -1.528
REMARK UNBOUND:                -1.542
REMARK  11 active torsions:
REMARK  status: ('A' for Active; 'I' for Inactive)
REMARK    1  A    between atoms: S_2  and  N_5 
REMARK    2  A    between atoms: N_5  and  C_7 
REMARK    3  A    between atoms: C_7  and  C_8 
REMARK    4  A    between atoms: C_8  and  C_9 
REMARK    5  A    between atoms: C_9  and  C_15 
REMARK    6  A    between atoms: C_9  and  C_14 
REMARK    7  A    between atoms: C_11  and  C_12 
REMARK    8  A    between atoms: C_12  and  C_13 
REMARK    9  A    between atoms: C_13  and  C_14 
REMARK   10  A    between atoms: C_15  and  C_16 
REMARK       I    between atoms: C_16  and  N_18 
REMARK   11  A    between atoms: N_18  and  C_20 
ROOT
HETATM    1  C   UNL     1       9.503  -1.913  22.259  1.00  0.00     0.096 C 
ENDROOT
BRANCH   1   2
HETATM    2  C   UNL     1       8.458  -1.153  22.062  1.00  0.00     0.125 C 
BRANCH   2   3
HETATM    3  C   UNL     1       7.889  -0.184  21.810  1.00  0.00    -0.059 C 
BRANCH   3   4
HETATM    4  N   UNL     1       7.314   0.682  21.238  1.00  0.00    -0.254 N 
ATOM      5  HN  UNL     1       7.278   1.575  21.730  1.00  0.00     0.188 HD
BRANCH   4   6
HETATM    6  S   UNL     1       6.586   0.666  19.809  1.00  0.00     0.233 S 
HETATM    7  C   UNL     1       5.675  -0.960  19.783  1.00  0.00     0.186 C 
HETATM    8  O   UNL     1       5.591   1.704  19.677  1.00  0.00    -0.206 OA
HETATM    9  O   UNL     1       7.486   0.589  18.721  1.00  0.00    -0.206 OA
ENDBRANCH   4   6
ENDBRANCH   3   4
ENDBRANCH   2   3
ENDBRANCH   1   2
BRANCH   1  10
HETATM   10  C   UNL     1       9.139  -2.437  23.284  1.00  0.00    -0.074 C 
BRANCH  10  11
HETATM   11  C   UNL     1       8.698  -2.980  24.392  1.00  0.00     0.289 C 
HETATM   12  O   UNL     1       8.673  -2.247  25.272  1.00  0.00    -0.259 OA
HETATM   13  N   UNL     1       8.383  -4.266  24.214  1.00  0.00    -0.315 N 
ATOM     14  HN  UNL     1       8.575  -4.764  23.345  1.00  0.00     0.170 HD
BRANCH  13  15
HETATM   15  C   UNL     1       7.841  -4.804  25.182  1.00  0.00     0.060 A 
HETATM   16  C   UNL     1       8.122  -5.298  26.363  1.00  0.00     0.117 A 
HETATM   17  N   UNL     1       7.833  -5.862  27.423  1.00  0.00    -0.373 N 
HETATM   18  C   UNL     1       6.570  -5.967  27.196  1.00  0.00     0.088 A 
ATOM     19  HN  UNL     1       8.406  -6.149  28.216  1.00  0.00     0.164 HD
HETATM   20  C   UNL     1       5.862  -5.600  26.190  1.00  0.00     0.030 A 
HETATM   21  C   UNL     1       6.196  -4.987  25.055  1.00  0.00    -0.016 A 
HETATM   22  C   UNL     1       5.645  -4.675  24.210  1.00  0.00     0.026 C 
ENDBRANCH  13  15
ENDBRANCH  10  11
ENDBRANCH   1  10
BRANCH   1  23
HETATM   23  C   UNL     1      11.040  -1.301  22.450  1.00  0.00    -0.009 C 
BRANCH  23  24
HETATM   24  C   UNL     1      11.457  -0.990  23.503  1.00  0.00    -0.003 C 
BRANCH  24  25
HETATM   25  C   UNL     1      11.809  -0.031  24.013  1.00  0.00    -0.001 C 
BRANCH  25  26
HETATM   26  C   UNL     1      10.768   0.534  24.973  1.00  0.00    -0.010 C 
HETATM   27  C   UNL     1       9.996   1.174  24.811  1.00  0.00     0.011 C 
ENDBRANCH  25  26
ENDBRANCH  24  25
ENDBRANCH  23  24
ENDBRANCH   1  23
TORSDOF 11
ENDMDL
MODEL 3
REMARK VINA RESULT:    -5.915      2.289      4.851
REMARK INTER + INTRA:         -11.260
REMARK INTER:                  -9.628
REMARK INTRA:                  -1.632
REMARK UNBOUND:                -1.542
REMARK  11 active torsions:
REMARK  status: ('A' for Active; 'I' for Inactive)
REMARK    1  A    between atoms: S_2  and  N_5 
REMARK    2  A    between atoms: N_5  and  C_7 
REMARK    3  A    between atoms: C_7  and  C_8 
REMARK    4  A    between atoms: C_8  and  C_9 
REMARK    5  A    between atoms: C_9  and  C_15 
REMARK    6  A    between atoms: C_9  and  C_14 
REMARK    7  A    between atoms: C_11  and  C_12 
REMARK    8  A    between atoms: C_12  and  C_13 
REMARK    9  A    between atoms: C_13  and  C_14 
REMARK   10  A    between atoms: C_15  and  C_16 
REMARK       I    between atoms: C_16  and  N_18 
REMARK   11  A    between atoms: N_18  and  C_20 
ROOT
HETATM    1  C   UNL     1      10.590  -1.541  22.438  1.00  0.00     0.096 C 
ENDROOT
BRANCH   1   2
HETATM    2  C   UNL     1       9.974  -0.620  21.745  1.00  0.00     0.125 C 
BRANCH   2   3
HETATM    3  C   UNL     1       9.128   0.118  21.486  1.00  0.00    -0.059 C 
BRANCH   3   4
HETATM    4  N   UNL     1       8.067   0.597  21.251  1.00  0.00    -0.254 N 
ATOM      5  HN  UNL     1       7.795   1.365  21.865  1.00  0.00     0.188 HD
BRANCH   4   6
HETATM    6  S   UNL     1       6.996   0.224  20.117  1.00  0.00     0.233 S 
HETATM    7  C   UNL     1       5.680   1.532  20.289  1.00  0.00     0.186 C 
HETATM    8  O   UNL     1       7.532   0.343  18.782  1.00  0.00    -0.206 OA
HETATM    9  O   UNL     1       6.322  -0.995  20.362  1.00  0.00    -0.206 OA
ENDBRANCH   4   6
ENDBRANCH   3   4
ENDBRANCH   2   3
ENDBRANCH   1   2
BRANCH   1  10
HETATM   10  C   UNL     1       9.614  -2.108  22.868  1.00  0.00    -0.074 C 
BRANCH  10  11
HETATM   11  C   UNL     1       8.560  -2.757  23.295  1.00  0.00     0.289 C 
HETATM   12  O   UNL     1       8.489  -2.797  24.438  1.00  0.00    -0.259 OA
HETATM   13  N   UNL     1       7.821  -3.213  22.279  1.00  0.00    -0.315 N 
ATOM     14  HN  UNL     1       8.122  -3.145  21.307  1.00  0.00     0.170 HD
BRANCH  13  15
HETATM   15  C   UNL     1       6.748  -3.723  22.607  1.00  0.00     0.060 A 
HETATM   16  C   UNL     1       5.595  -3.413  23.150  1.00  0.00     0.117 A 
HETATM   17  N   UNL     1       4.469  -3.678  23.581  1.00  0.00    -0.373 N 
HETATM   18  C   UNL     1       4.488  -4.932  23.285  1.00  0.00     0.088 A 
ATOM     19  HN  UNL     1       3.759  -3.097  24.025  1.00  0.00     0.164 HD
HETATM   20  C   UNL     1       5.393  -5.651  22.726  1.00  0.00     0.030 A 
HETATM   21  C   UNL     1       6.604  -5.341  22.264  1.00  0.00    -0.016 A 
HETATM   22  C   UNL     1       7.371  -5.903  21.804  1.00  0.00     0.026 C 
ENDBRANCH  13  15
ENDBRANCH  10  11
ENDBRANCH   1  10
BRANCH   1  23
HETATM   23  C   UNL     1      11.634  -1.186  23.684  1.00  0.00    -0.009 C 
BRANCH  23  24
HETATM   24  C   UNL     1      11.536  -0.199  24.313  1.00  0.00    -0.003 C 
BRANCH  24  25
HETATM   25  C   UNL     1      12.034   0.828  24.340  1.00  0.00    -0.001 C 
BRANCH  25  26
HETATM   26  C   UNL     1      11.042   1.962  24.106  1.00  0.00    -0.010 C 
HETATM   27  C   UNL     1      11.059   2.731  23.443  1.00  0.00     0.011 C 
ENDBRANCH  25  26
ENDBRANCH  24  25
ENDBRANCH  23  24
ENDBRANCH   1  23
TORSDOF 11
ENDMDL
MODEL 4
REMARK VINA RESULT:    -5.860      1.800      2.271
REMARK INTER + INTRA:         -11.171
REMARK INTER:                  -9.410
REMARK INTRA:                  -1.761
REMARK UNBOUND:                -1.542
REMARK  11 active torsions:
REMARK  status: ('A' for Active; 'I' for Inactive)
REMARK    1  A    between atoms: S_2  and  N_5 
REMARK    2  A    between atoms: N_5  and  C_7 
REMARK    3  A    between atoms: C_7  and  C_8 
REMARK    4  A    between atoms: C_8  and  C_9 
REMARK    5  A    between atoms: C_9  and  C_15 
REMARK    6  A    between atoms: C_9  and  C_14 
REMARK    7  A    between atoms: C_11  and  C_12 
REMARK    8  A    between atoms: C_12  and  C_13 
REMARK    9  A    between atoms: C_13  and  C_14 
REMARK   10  A    between atoms: C_15  and  C_16 
REMARK       I    between atoms: C_16  and  N_18 
REMARK   11  A    between atoms: N_18  and  C_20 
ROOT
HETATM    1  C   UNL     1       8.983   0.763  24.468  1.00  0.00     0.096 C 
ENDROOT
BRANCH   1   2
HETATM    2  C   UNL     1       8.620  -0.479  24.655  1.00  0.00     0.125 C 
BRANCH   2   3
HETATM    3  C   UNL     1       7.995  -1.432  24.491  1.00  0.00    -0.059 C 
BRANCH   3   4
HETATM    4  N   UNL     1       7.333  -2.290  24.006  1.00  0.00    -0.254 N 
ATOM      5  HN  UNL     1       6.540  -2.594  24.571  1.00  0.00     0.188 HD
BRANCH   4   6
HETATM    6  S   UNL     1       7.491  -3.044  22.599  1.00  0.00     0.233 S 
HETATM    7  C   UNL     1       5.878  -2.715  21.725  1.00  0.00     0.186 C 
HETATM    8  O   UNL     1       8.535  -2.479  21.777  1.00  0.00    -0.206 OA
HETATM    9  O   UNL     1       7.551  -4.451  22.721  1.00  0.00    -0.206 OA
ENDBRANCH   4   6
ENDBRANCH   3   4
ENDBRANCH   2   3
ENDBRANCH   1   2
BRANCH   1  10
HETATM   10  C   UNL     1       8.714   0.841  23.293  1.00  0.00    -0.074 C 
BRANCH  10  11
HETATM   11  C   UNL     1       8.423   0.978  22.023  1.00  0.00     0.289 C 
HETATM   12  O   UNL     1       9.340   1.202  21.374  1.00  0.00    -0.259 OA
HETATM   13  N   UNL     1       7.115   0.820  21.800  1.00  0.00    -0.315 N 
ATOM     14  HN  UNL     1       6.438   0.716  22.556  1.00  0.00     0.170 HD
BRANCH  13  15
HETATM   15  C   UNL     1       6.790   0.809  20.611  1.00  0.00     0.060 A 
HETATM   16  C   UNL     1       7.114   0.252  19.470  1.00  0.00     0.117 A 
HETATM   17  N   UNL     1       7.005   0.081  18.252  1.00  0.00    -0.373 N 
HETATM   18  C   UNL     1       6.011   0.881  18.079  1.00  0.00     0.088 A 
ATOM     19  HN  UNL     1       7.528  -0.501  17.599  1.00  0.00     0.164 HD
HETATM   20  C   UNL     1       5.361   1.610  18.913  1.00  0.00     0.030 A 
HETATM   21  C   UNL     1       5.495   1.775  20.229  1.00  0.00    -0.016 A 
HETATM   22  C   UNL     1       4.985   2.364  20.941  1.00  0.00     0.026 C 
ENDBRANCH  13  15
ENDBRANCH  10  11
ENDBRANCH   1  10
BRANCH   1  23
HETATM   23  C   UNL     1      10.537   1.299  24.730  1.00  0.00    -0.009 C 
BRANCH  23  24
HETATM   24  C   UNL     1      11.445   0.557  24.797  1.00  0.00    -0.003 C 
BRANCH  24  25
HETATM   25  C   UNL     1      12.348   0.281  24.155  1.00  0.00    -0.001 C 
BRANCH  25  26
HETATM   26  C   UNL     1      12.252  -1.133  23.593  1.00  0.00    -0.010 C 
HETATM   27  C   UNL     1      11.738  -1.495  22.796  1.00  0.00     0.011 C 
ENDBRANCH  25  26
ENDBRANCH  24  25
ENDBRANCH  23  24
ENDBRANCH   1  23
TORSDOF 11
ENDMDL
MODEL 5
REMARK VINA RESULT:    -5.808      2.231      5.139
REMARK INTER + INTRA:         -11.085
REMARK INTER:                  -9.871
REMARK INTRA:                  -1.215
REMARK UNBOUND:                -1.542
REMARK  11 active torsions:
REMARK  status: ('A' for Active; 'I' for Inactive)
REMARK    1  A    between atoms: S_2  and  N_5 
REMARK    2  A    between atoms: N_5  and  C_7 
REMARK    3  A    between atoms: C_7  and  C_8 
REMARK    4  A    between atoms: C_8  and  C_9 
REMARK    5  A    between atoms: C_9  and  C_15 
REMARK    6  A    between atoms: C_9  and  C_14 
REMARK    7  A    between atoms: C_11  and  C_12 
REMARK    8  A    between atoms: C_12  and  C_13 
REMARK    9  A    between atoms: C_13  and  C_14 
REMARK   10  A    between atoms: C_15  and  C_16 
REMARK       I    between atoms: C_16  and  N_18 
REMARK   11  A    between atoms: N_18  and  C_20 
ROOT
HETATM    1  C   UNL     1       9.328  -0.483  21.982  1.00  0.00     0.096 C 
ENDROOT
BRANCH   1   2
HETATM    2  C   UNL     1       8.727   0.094  20.975  1.00  0.00     0.125 C 
BRANCH   2   3
HETATM    3  C   UNL     1       8.251   0.163  19.928  1.00  0.00    -0.059 C 
BRANCH   3   4
HETATM    4  N   UNL     1       7.553   0.000  18.982  1.00  0.00    -0.254 N 
ATOM      5  HN  UNL     1       8.038  -0.017  18.085  1.00  0.00     0.188 HD
BRANCH   4   6
HETATM    6  S   UNL     1       5.964  -0.198  18.895  1.00  0.00     0.233 S 
HETATM    7  C   UNL     1       5.271   1.373  19.620  1.00  0.00     0.186 C 
HETATM    8  O   UNL     1       5.484  -0.279  17.536  1.00  0.00    -0.206 OA
HETATM    9  O   UNL     1       5.480  -1.224  19.739  1.00  0.00    -0.206 OA
ENDBRANCH   4   6
ENDBRANCH   3   4
ENDBRANCH   2   3
ENDBRANCH   1   2
BRANCH   1  10
HETATM   10  C   UNL     1       8.470  -1.290  22.248  1.00  0.00    -0.074 C 
BRANCH  10  11
HETATM   11  C   UNL     1       7.577  -2.203  22.543  1.00  0.00     0.289 C 
HETATM   12  O   UNL     1       6.539  -1.764  22.753  1.00  0.00    -0.259 OA
HETATM   13  N   UNL     1       8.105  -3.430  22.523  1.00  0.00    -0.315 N 
ATOM     14  HN  UNL     1       9.104  -3.596  22.399  1.00  0.00     0.170 HD
BRANCH  13  15
HETATM   15  C   UNL     1       7.293  -4.346  22.665  1.00  0.00     0.060 A 
HETATM   16  C   UNL     1       6.518  -5.139  21.967  1.00  0.00     0.117 A 
HETATM   17  N   UNL     1       5.672  -6.030  21.843  1.00  0.00    -0.373 N 
HETATM   18  C   UNL     1       5.553  -6.298  23.097  1.00  0.00     0.088 A 
ATOM     19  HN  UNL     1       5.218  -6.424  21.019  1.00  0.00     0.164 HD
HETATM   20  C   UNL     1       6.132  -5.791  24.125  1.00  0.00     0.030 A 
HETATM   21  C   UNL     1       7.048  -4.829  24.234  1.00  0.00    -0.016 A 
HETATM   22  C   UNL     1       7.540  -4.388  25.057  1.00  0.00     0.026 C 
ENDBRANCH  13  15
ENDBRANCH  10  11
ENDBRANCH   1  10
BRANCH   1  23
HETATM   23  C   UNL     1       9.776   0.340  23.357  1.00  0.00    -0.009 C 
BRANCH  23  24
HETATM   24  C   UNL     1      10.765   0.973  23.406  1.00  0.00    -0.003 C 
BRANCH  24  25
HETATM   25  C   UNL     1      11.719   0.985  24.032  1.00  0.00    -0.001 C 
BRANCH  25  26
HETATM   26  C   UNL     1      12.460  -0.347  23.990  1.00  0.00    -0.010 C 
HETATM   27  C   UNL     1      13.397  -0.594  24.293  1.00  0.00     0.011 C 
ENDBRANCH  25  26
ENDBRANCH  24  25
ENDBRANCH  23  24
ENDBRANCH   1  23
TORSDOF 11
ENDMDL
MODEL 6
REMARK VINA RESULT:    -5.669      2.596      5.849
REMARK INTER + INTRA:         -10.856
REMARK INTER:                  -9.610
REMARK INTRA:                  -1.246
REMARK UNBOUND:                -1.542
REMARK  11 active torsions:
REMARK  status: ('A' for Active; 'I' for Inactive)
REMARK    1  A    between atoms: S_2  and  N_5 
REMARK    2  A    between atoms: N_5  and  C_7 
REMARK    3  A    between atoms: C_7  and  C_8 
REMARK    4  A    between atoms: C_8  and  C_9 
REMARK    5  A    between atoms: C_9  and  C_15 
REMARK    6  A    between atoms: C_9  and  C_14 
REMARK    7  A    between atoms: C_11  and  C_12 
REMARK    8  A    between atoms: C_12  and  C_13 
REMARK    9  A    between atoms: C_13  and  C_14 
REMARK   10  A    between atoms: C_15  and  C_16 
REMARK       I    between atoms: C_16  and  N_18 
REMARK   11  A    between atoms: N_18  and  C_20 
ROOT
HETATM    1  C   UNL     1       9.714  -1.839  24.302  1.00  0.00     0.096 C 
ENDROOT
BRANCH   1   2
HETATM    2  C   UNL     1       9.576  -1.918  23.004  1.00  0.00     0.125 C 
BRANCH   2   3
HETATM    3  C   UNL     1       9.362  -1.534  21.939  1.00  0.00    -0.059 C 
BRANCH   3   4
HETATM    4  N   UNL     1       9.017  -0.873  21.016  1.00  0.00    -0.254 N 
ATOM      5  HN  UNL     1       9.480  -1.090  20.133  1.00  0.00     0.188 HD
BRANCH   4   6
HETATM    6  S   UNL     1       7.936   0.309  20.941  1.00  0.00     0.233 S 
HETATM    7  C   UNL     1       7.289   0.222  19.195  1.00  0.00     0.186 C 
HETATM    8  O   UNL     1       6.807   0.090  21.815  1.00  0.00    -0.206 OA
HETATM    9  O   UNL     1       8.506   1.598  21.047  1.00  0.00    -0.206 OA
ENDBRANCH   4   6
ENDBRANCH   3   4
ENDBRANCH   2   3
ENDBRANCH   1   2
BRANCH   1  10
HETATM   10  C   UNL     1       8.763  -2.516  24.612  1.00  0.00    -0.074 C 
BRANCH  10  11
HETATM   11  C   UNL     1       7.717  -3.212  24.983  1.00  0.00     0.289 C 
HETATM   12  O   UNL     1       6.913  -2.576  25.497  1.00  0.00    -0.259 OA
HETATM   13  N   UNL     1       7.849  -4.503  24.665  1.00  0.00    -0.315 N 
ATOM     14  HN  UNL     1       8.713  -4.888  24.281  1.00  0.00     0.170 HD
BRANCH  13  15
HETATM   15  C   UNL     1       6.848  -5.192  24.870  1.00  0.00     0.060 A 
HETATM   16  C   UNL     1       6.143  -5.700  25.851  1.00  0.00     0.117 A 
HETATM   17  N   UNL     1       5.218  -6.373  26.315  1.00  0.00    -0.373 N 
HETATM   18  C   UNL     1       4.688  -6.695  25.186  1.00  0.00     0.088 A 
ATOM     19  HN  UNL     1       4.959  -6.600  27.275  1.00  0.00     0.164 HD
HETATM   20  C   UNL     1       5.027  -6.401  23.983  1.00  0.00     0.030 A 
HETATM   21  C   UNL     1       6.030  -5.667  23.505  1.00  0.00    -0.016 A 
HETATM   22  C   UNL     1       6.339  -5.408  22.529  1.00  0.00     0.026 C 
ENDBRANCH  13  15
ENDBRANCH  10  11
ENDBRANCH   1  10
BRANCH   1  23
HETATM   23  C   UNL     1       9.674  -0.394  25.127  1.00  0.00    -0.009 C 
BRANCH  23  24
HETATM   24  C   UNL     1      10.613   0.307  25.194  1.00  0.00    -0.003 C 
BRANCH  24  25
HETATM   25  C   UNL     1      11.184   1.010  24.497  1.00  0.00    -0.001 C 
BRANCH  25  26
HETATM   26  C   UNL     1      12.482   0.395  23.986  1.00  0.00    -0.010 C 
HETATM   27  C   UNL     1      13.066  -0.338  24.377  1.00  0.00     0.011 C 
ENDBRANCH  25  26
ENDBRANCH  24  25
ENDBRANCH  23  24
ENDBRANCH   1  23
TORSDOF 11
ENDMDL
MODEL 7
REMARK VINA RESULT:    -5.568      3.067      6.048
REMARK INTER + INTRA:         -10.690
REMARK INTER:                  -9.369
REMARK INTRA:                  -1.321
REMARK UNBOUND:                -1.542
REMARK  11 active torsions:
REMARK  status: ('A' for Active; 'I' for Inactive)
REMARK    1  A    between atoms: S_2  and  N_5 
REMARK    2  A    between atoms: N_5  and  C_7 
REMARK    3  A    between atoms: C_7  and  C_8 
REMARK    4  A    between atoms: C_8  and  C_9 
REMARK    5  A    between atoms: C_9  and  C_15 
REMARK    6  A    between atoms: C_9  and  C_14 
REMARK    7  A    between atoms: C_11  and  C_12 
REMARK    8  A    between atoms: C_12  and  C_13 
REMARK    9  A    between atoms: C_13  and  C_14 
REMARK   10  A    between atoms: C_15  and  C_16 
REMARK       I    between atoms: C_16  and  N_18 
REMARK   11  A    between atoms: N_18  and  C_20 
ROOT
HETATM    1  C   UNL     1       7.866   3.521  22.389  1.00  0.00     0.096 C 
ENDROOT
BRANCH   1   2
HETATM    2  C   UNL     1       6.903   2.658  22.192  1.00  0.00     0.125 C 
BRANCH   2   3
HETATM    3  C   UNL     1       6.301   1.860  21.619  1.00  0.00    -0.059 C 
BRANCH   3   4
HETATM    4  N   UNL     1       5.767   1.233  20.765  1.00  0.00    -0.254 N 
ATOM      5  HN  UNL     1       4.755   1.349  20.713  1.00  0.00     0.188 HD
BRANCH   4   6
HETATM    6  S   UNL     1       6.391   0.231  19.679  1.00  0.00     0.233 S 
HETATM    7  C   UNL     1       5.805   0.912  18.045  1.00  0.00     0.186 C 
HETATM    8  O   UNL     1       7.835   0.264  19.652  1.00  0.00    -0.206 OA
HETATM    9  O   UNL     1       5.846  -1.072  19.739  1.00  0.00    -0.206 OA
ENDBRANCH   4   6
ENDBRANCH   3   4
ENDBRANCH   2   3
ENDBRANCH   1   2
BRANCH   1  10
HETATM   10  C   UNL     1       8.789   2.743  22.393  1.00  0.00    -0.074 C 
BRANCH  10  11
HETATM   11  C   UNL     1       9.802   1.913  22.348  1.00  0.00     0.289 C 
HETATM   12  O   UNL     1      10.459   2.057  21.420  1.00  0.00    -0.259 OA
HETATM   13  N   UNL     1       9.817   1.100  23.407  1.00  0.00    -0.315 N 
ATOM     14  HN  UNL     1       9.061   1.076  24.092  1.00  0.00     0.170 HD
BRANCH  13  15
HETATM   15  C   UNL     1      10.814   0.380  23.494  1.00  0.00     0.060 A 
HETATM   16  C   UNL     1      12.018   0.364  24.011  1.00  0.00     0.117 A 
HETATM   17  N   UNL     1      13.125  -0.142  24.220  1.00  0.00    -0.373 N 
HETATM   18  C   UNL     1      12.902  -1.248  23.599  1.00  0.00     0.088 A 
ATOM     19  HN  UNL     1      13.944   0.202  24.719  1.00  0.00     0.164 HD
HETATM   20  C   UNL     1      11.863  -1.668  22.973  1.00  0.00     0.030 A 
HETATM   21  C   UNL     1      10.674  -1.104  22.763  1.00  0.00    -0.016 A 
HETATM   22  C   UNL     1       9.803  -1.416  22.254  1.00  0.00     0.026 C 
ENDBRANCH  13  15
ENDBRANCH  10  11
ENDBRANCH   1  10
BRANCH   1  23
HETATM   23  C   UNL     1       7.941   4.497  23.735  1.00  0.00    -0.009 C 
BRANCH  23  24
HETATM   24  C   UNL     1       8.230   5.633  23.662  1.00  0.00    -0.003 C 
BRANCH  24  25
HETATM   25  C   UNL     1       9.148   6.244  23.366  1.00  0.00    -0.001 C 
BRANCH  25  26
HETATM   26  C   UNL     1      10.441   5.659  23.924  1.00  0.00    -0.010 C 
HETATM   27  C   UNL     1      11.220   6.106  24.397  1.00  0.00     0.011 C 
ENDBRANCH  25  26
ENDBRANCH  24  25
ENDBRANCH  23  24
ENDBRANCH   1  23
TORSDOF 11
ENDMDL
MODEL 8
REMARK VINA RESULT:    -5.514      2.405      5.969
REMARK INTER + INTRA:         -10.602
REMARK INTER:                  -9.471
REMARK INTRA:                  -1.131
REMARK UNBOUND:                -1.542
REMARK  11 active torsions:
REMARK  status: ('A' for Active; 'I' for Inactive)
REMARK    1  A    between atoms: S_2  and  N_5 
REMARK    2  A    between atoms: N_5  and  C_7 
REMARK    3  A    between atoms: C_7  and  C_8 
REMARK    4  A    between atoms: C_8  and  C_9 
REMARK    5  A    between atoms: C_9  and  C_15 
REMARK    6  A    between atoms: C_9  and  C_14 
REMARK    7  A    between atoms: C_11  and  C_12 
REMARK    8  A    between atoms: C_12  and  C_13 
REMARK    9  A    between atoms: C_13  and  C_14 
REMARK   10  A    between atoms: C_15  and  C_16 
REMARK       I    between atoms: C_16  and  N_18 
REMARK   11  A    between atoms: N_18  and  C_20 
ROOT
HETATM    1  C   UNL     1       8.770  -2.539  23.150  1.00  0.00     0.096 C 
ENDROOT
BRANCH   1   2
HETATM    2  C   UNL     1       8.092  -1.970  22.188  1.00  0.00     0.125 C 
BRANCH   2   3
HETATM    3  C   UNL     1       7.174  -1.490  21.684  1.00  0.00    -0.059 C 
BRANCH   3   4
HETATM    4  N   UNL     1       6.420  -0.715  21.194  1.00  0.00    -0.254 N 
ATOM      5  HN  UNL     1       5.636  -0.443  21.787  1.00  0.00     0.188 HD
BRANCH   4   6
HETATM    6  S   UNL     1       6.442  -0.030  19.744  1.00  0.00     0.233 S 
HETATM    7  C   UNL     1       5.394   1.498  19.949  1.00  0.00     0.186 C 
HETATM    8  O   UNL     1       7.760   0.416  19.357  1.00  0.00    -0.206 OA
HETATM    9  O   UNL     1       5.777  -0.790  18.755  1.00  0.00    -0.206 OA
ENDBRANCH   4   6
ENDBRANCH   3   4
ENDBRANCH   2   3
ENDBRANCH   1   2
BRANCH   1  10
HETATM   10  C   UNL     1       8.084  -3.524  23.279  1.00  0.00    -0.074 C 
BRANCH  10  11
HETATM   11  C   UNL     1       7.301  -4.562  23.440  1.00  0.00     0.289 C 
HETATM   12  O   UNL     1       7.647  -5.481  22.850  1.00  0.00    -0.259 OA
HETATM   13  N   UNL     1       6.284  -4.286  24.262  1.00  0.00    -0.315 N 
ATOM     14  HN  UNL     1       6.104  -3.346  24.617  1.00  0.00     0.170 HD
BRANCH  13  15
HETATM   15  C   UNL     1       5.581  -5.254  24.558  1.00  0.00     0.060 A 
HETATM   16  C   UNL     1       4.726  -6.094  24.027  1.00  0.00     0.117 A 
HETATM   17  N   UNL     1       3.932  -7.038  24.070  1.00  0.00    -0.373 N 
HETATM   18  C   UNL     1       4.100  -7.317  25.316  1.00  0.00     0.088 A 
ATOM     19  HN  UNL     1       3.339  -7.459  23.355  1.00  0.00     0.164 HD
HETATM   20  C   UNL     1       4.851  -6.777  26.206  1.00  0.00     0.030 A 
HETATM   21  C   UNL     1       5.707  -5.757  26.135  1.00  0.00    -0.016 A 
HETATM   22  C   UNL     1       6.335  -5.287  26.842  1.00  0.00     0.026 C 
ENDBRANCH  13  15
ENDBRANCH  10  11
ENDBRANCH   1  10
BRANCH   1  23
HETATM   23  C   UNL     1       9.012  -1.819  24.632  1.00  0.00    -0.009 C 
BRANCH  23  24
HETATM   24  C   UNL     1       9.347  -0.697  24.729  1.00  0.00    -0.003 C 
BRANCH  24  25
HETATM   25  C   UNL     1      10.212  -0.122  25.203  1.00  0.00    -0.001 C 
BRANCH  25  26
HETATM   26  C   UNL     1      11.518  -0.297  24.436  1.00  0.00    -0.010 C 
HETATM   27  C   UNL     1      12.350   0.283  24.403  1.00  0.00     0.011 C 
ENDBRANCH  25  26
ENDBRANCH  24  25
ENDBRANCH  23  24
ENDBRANCH   1  23
TORSDOF 11
ENDMDL
MODEL 9
REMARK VINA RESULT:    -5.398      2.958      6.506
REMARK INTER + INTRA:         -10.411
REMARK INTER:                  -9.063
REMARK INTRA:                  -1.348
REMARK UNBOUND:                -1.542
REMARK  11 active torsions:
REMARK  status: ('A' for Active; 'I' for Inactive)
REMARK    1  A    between atoms: S_2  and  N_5 
REMARK    2  A    between atoms: N_5  and  C_7 
REMARK    3  A    between atoms: C_7  and  C_8 
REMARK    4  A    between atoms: C_8  and  C_9 
REMARK    5  A    between atoms: C_9  and  C_15 
REMARK    6  A    between atoms: C_9  and  C_14 
REMARK    7  A    between atoms: C_11  and  C_12 
REMARK    8  A    between atoms: C_12  and  C_13 
REMARK    9  A    between atoms: C_13  and  C_14 
REMARK   10  A    between atoms: C_15  and  C_16 
REMARK       I    between atoms: C_16  and  N_18 
REMARK   11  A    between atoms: N_18  and  C_20 
ROOT
HETATM    1  C   UNL     1       7.865   0.718  21.150  1.00  0.00     0.096 C 
ENDROOT
BRANCH   1   2
HETATM    2  C   UNL     1       8.923   1.246  21.707  1.00  0.00     0.125 C 
BRANCH   2   3
HETATM    3  C   UNL     1       9.847   1.284  22.393  1.00  0.00    -0.059 C 
BRANCH   3   4
HETATM    4  N   UNL     1      10.934   1.138  22.849  1.00  0.00    -0.254 N 
ATOM      5  HN  UNL     1      11.625   1.824  22.546  1.00  0.00     0.188 HD
BRANCH   4   6
HETATM    6  S   UNL     1      11.483   0.027  23.867  1.00  0.00     0.233 S 
HETATM    7  C   UNL     1      11.663  -1.502  22.815  1.00  0.00     0.186 C 
HETATM    8  O   UNL     1      12.796   0.339  24.379  1.00  0.00    -0.206 OA
HETATM    9  O   UNL     1      10.546  -0.334  24.863  1.00  0.00    -0.206 OA
ENDBRANCH   4   6
ENDBRANCH   3   4
ENDBRANCH   2   3
ENDBRANCH   1   2
BRANCH   1  10
HETATM   10  C   UNL     1       7.670  -0.158  21.958  1.00  0.00    -0.074 C 
BRANCH  10  11
HETATM   11  C   UNL     1       7.485  -1.079  22.871  1.00  0.00     0.289 C 
HETATM   12  O   UNL     1       6.844  -0.719  23.749  1.00  0.00    -0.259 OA
HETATM   13  N   UNL     1       8.095  -2.222  22.544  1.00  0.00    -0.315 N 
ATOM     14  HN  UNL     1       8.711  -2.304  21.735  1.00  0.00     0.170 HD
BRANCH  13  15
HETATM   15  C   UNL     1       7.856  -3.170  23.295  1.00  0.00     0.060 A 
HETATM   16  C   UNL     1       8.231  -3.681  24.443  1.00  0.00     0.117 A 
HETATM   17  N   UNL     1       8.200  -4.532  25.336  1.00  0.00    -0.373 N 
HETATM   18  C   UNL     1       7.267  -5.255  24.822  1.00  0.00     0.088 A 
ATOM     19  HN  UNL     1       8.737  -4.631  26.198  1.00  0.00     0.164 HD
HETATM   20  C   UNL     1       6.600  -5.118  23.733  1.00  0.00     0.030 A 
HETATM   21  C   UNL     1       6.648  -4.186  22.782  1.00  0.00    -0.016 A 
HETATM   22  C   UNL     1       6.121  -4.044  21.878  1.00  0.00     0.026 C 
ENDBRANCH  13  15
ENDBRANCH  10  11
ENDBRANCH   1  10
BRANCH   1  23
HETATM   23  C   UNL     1       7.878   0.077  19.613  1.00  0.00    -0.009 C 
BRANCH  23  24
HETATM   24  C   UNL     1       7.035   0.321  18.833  1.00  0.00    -0.003 C 
BRANCH  24  25
HETATM   25  C   UNL     1       6.008  -0.092  18.555  1.00  0.00    -0.001 C 
BRANCH  25  26
HETATM   26  C   UNL     1       4.892   0.920  18.786  1.00  0.00    -0.010 C 
HETATM   27  C   UNL     1       4.870   1.765  19.349  1.00  0.00     0.011 C 
ENDBRANCH  25  26
ENDBRANCH  24  25
ENDBRANCH  23  24
ENDBRANCH   1  23
TORSDOF 11
ENDMDL
