REMARK  11 active torsions:
REMARK  status: ('A' for Active; 'I' for Inactive)
REMARK    1  A    between atoms: S_2  and  N_5 
REMARK    2  A    between atoms: N_5  and  C_7 
REMARK    3  A    between atoms: C_7  and  C_8 
REMARK    4  A    between atoms: C_8  and  C_9 
REMARK    5  A    between atoms: C_9  and  C_15 
REMARK    6  A    between atoms: C_9  and  C_14 
REMARK    7  A    between atoms: C_11  and  C_12 
REMARK    8  A    between atoms: C_12  and  C_13 
REMARK    9  A    between atoms: C_13  and  C_14 
REMARK   10  A    between atoms: C_15  and  C_16 
REMARK       I    between atoms: C_16  and  N_18 
REMARK   11  A    between atoms: N_18  and  C_20 
ROOT
HETATM    1  C   UNL     1      10.336  -1.171  23.138  1.00  0.00     0.096 C 
ENDROOT
BRANCH   1   2
HETATM    2  C   UNL     1       9.402  -1.996  23.532  1.00  0.00     0.125 C 
BRANCH   2   3
HETATM    3  C   UNL     1       8.939  -2.848  24.154  1.00  0.00    -0.059 C 
BRANCH   3   4
HETATM    4  N   UNL     1       8.174  -3.566  24.709  1.00  0.00    -0.254 N 
ATOM      5  HN  UNL     1       7.312  -3.756  24.198  1.00  0.00     0.188 HD
BRANCH   4   6
HETATM    6  S   UNL     1       8.286  -4.284  26.139  1.00  0.00     0.233 S 
HETATM    7  C   UNL     1       6.541  -4.823  26.513  1.00  0.00     0.186 C 
HETATM    8  O   UNL     1       9.094  -5.480  26.102  1.00  0.00    -0.206 OA
HETATM    9  O   UNL     1       8.618  -3.396  27.188  1.00  0.00    -0.206 OA
ENDBRANCH   4   6
ENDBRANCH   3   4
ENDBRANCH   2   3
ENDBRANCH   1   2
BRANCH   1  10
HETATM   10  C   UNL     1       9.689  -0.565  22.318  1.00  0.00    -0.074 C 
BRANCH  10  11
HETATM   11  C   UNL     1       8.987   0.049  21.398  1.00  0.00     0.289 C 
HETATM   12  O   UNL     1       9.496   0.996  21.002  1.00  0.00    -0.259 OA
HETATM   13  N   UNL     1       7.841  -0.591  21.148  1.00  0.00    -0.315 N 
ATOM     14  HN  UNL     1       7.528  -1.392  21.697  1.00  0.00     0.170 HD
BRANCH  13  15
HETATM   15  C   UNL     1       7.191  -0.139  20.203  1.00  0.00     0.060 A 
HETATM   16  C   UNL     1       7.228  -0.035  18.897  1.00  0.00     0.117 A 
HETATM   17  N   UNL     1       6.791   0.340  17.805  1.00  0.00    -0.373 N 
HETATM   18  C   UNL     1       5.715   0.886  18.255  1.00  0.00     0.088 A 
ATOM     19  HN  UNL     1       7.160   0.248  16.859  1.00  0.00     0.164 HD
HETATM   20  C   UNL     1       5.263   0.995  19.452  1.00  0.00     0.030 A 
HETATM   21  C   UNL     1       5.752   0.577  20.619  1.00  0.00    -0.016 A 
HETATM   22  C   UNL     1       5.412   0.651  21.616  1.00  0.00     0.026 C 
ENDBRANCH  13  15
ENDBRANCH  10  11
ENDBRANCH   1  10
BRANCH   1  23
HETATM   23  C   UNL     1      11.768  -1.685  22.462  1.00  0.00    -0.009 C 
BRANCH  23  24
HETATM   24  C   UNL     1      12.791  -1.162  22.705  1.00  0.00    -0.003 C 
BRANCH  24  25
HETATM   25  C   UNL     1      13.158  -0.315  23.377  1.00  0.00    -0.001 C 
BRANCH  25  26
HETATM   26  C   UNL     1      12.049   0.252  24.256  1.00  0.00    -0.010 C 
HETATM   27  C   UNL     1      11.062   0.019  24.310  1.00  0.00     0.011 C 
ENDBRANCH  25  26
ENDBRANCH  24  25
ENDBRANCH  23  24
ENDBRANCH   1  23
TORSDOF 11
