stable:False satoms:23 tatoms:24 sratio:0.9583333333333334
  -OEChem-08052420383D

 25 24  0     1  0  0  0  0  0999 V2000
  -13.1270   -1.3858  -23.5696 H   0  0  0  0  0  0  0  0  0  0  0  0
  -10.5028   -0.8914  -22.1077 H   0  0  0  0  0  0  0  0  0  0  0  0
  -10.8024   -1.9000  -24.9773 H   0  0  0  0  0  0  0  0  0  0  0  0
  -12.6690   -2.6294  -22.5274 H   0  0  0  0  0  0  0  0  0  0  0  0
   -9.5914   -0.7946  -24.3951 H   0  0  0  0  0  0  0  0  0  0  0  0
  -12.2624   -0.3041  -25.2977 H   0  0  0  0  0  0  0  0  0  0  0  0
  -10.8776    0.7874  -25.1758 H   0  0  0  0  0  0  0  0  0  0  0  0
  -12.4004   -1.6237  -22.7469 C   0  0  0  0  0  0  0  0  0  0  0  0
  -10.2477    1.5762  -22.2479 C   0  0  0  0  0  2  0  0  0  0  0  0
  -10.8493   -1.5725  -22.8619 C   0  0  0  0  0  0  0  0  0  0  0  0
  -10.5929   -1.0983  -24.2689 C   0  0  0  0  0  0  0  0  0  0  0  0
  -10.3268   -2.5056  -22.6666 H   0  0  0  0  0  0  0  0  0  0  0  0
  -12.6071   -0.8644  -22.0172 H   0  0  0  0  0  0  0  0  0  0  0  0
  -11.5226    0.1317  -24.6410 C   0  0  0  0  0  0  0  0  0  0  0  0
  -11.0816    3.0830  -24.9564 H   0  0  0  0  0  0  0  0  0  0  0  0
  -10.1219    1.0709  -21.4138 H   0  0  0  0  0  0  0  0  0  0  0  0
  -10.7346    2.2916  -23.0456 N   0  3  3  0  0  0  0  0  0  0  0  0
  -10.2923    4.1682  -23.8046 H   0  0  0  0  0  0  0  0  0  0  0  0
  -12.1951    2.1322  -23.0809 C   0  0  0  0  0  0  0  0  0  0  0  0
   -9.3996    2.8374  -24.5450 H   0  0  0  0  0  0  0  0  0  0  0  0
  -12.6241    1.9124  -22.1103 H   0  0  0  0  0  0  0  0  0  0  0  0
  -12.6424    3.0901  -23.3818 H   0  0  0  0  0  0  0  0  0  0  0  0
  -10.3517    3.1474  -24.1723 C   0  0  0  0  0  0  0  0  0  0  0  0
  -12.4082    1.0198  -23.8639 O   0  0  0  0  0  0  0  0  0  0  0  0
  -10.7850    3.0639  -22.4123 H   0  0  0  0  0  0  0  0  0  0  0  0
 18 23  1  0  0  0  0
 20 23  1  0  0  0  0
 15 23  1  0  0  0  0
 17 23  1  0  0  0  0
  9 17  1  0  0  0  0
 17 19  1  0  0  0  0
 19 22  1  0  0  0  0
  9 16  1  0  0  0  0
 19 21  1  0  0  0  0
 19 24  1  0  0  0  0
  7 14  1  0  0  0  0
  5 11  1  0  0  0  0
 14 24  1  0  0  0  0
 11 14  1  0  0  0  0
  6 14  1  0  0  0  0
  3 11  1  0  0  0  0
 10 11  1  0  0  0  0
  2 10  1  0  0  0  0
 10 12  1  0  0  0  0
  8 10  1  0  0  0  0
  8 13  1  0  0  0  0
  1  8  1  0  0  0  0
  4  8  1  0  0  0  0
 17 25  1  0  0  0  0
M  CHG  1  17   1
M  END
> <Chemgauss4>
-4.380115

$$$$
