stable:False satoms:23 tatoms:24 sratio:0.9583333333333334
  -OEChem-08052420383D

 25 24  0     1  0  0  0  0  0999 V2000
   12.9730   -0.8214   23.9453 H   0  0  0  0  0  0  0  0  0  0  0  0
   10.3779   -0.9460   22.3586 H   0  0  0  0  0  0  0  0  0  0  0  0
   10.7253   -1.6907   25.3025 H   0  0  0  0  0  0  0  0  0  0  0  0
   12.8158   -2.1947   22.9800 H   0  0  0  0  0  0  0  0  0  0  0  0
    9.3536   -0.8839   24.5990 H   0  0  0  0  0  0  0  0  0  0  0  0
   11.8318    0.1779   25.5587 H   0  0  0  0  0  0  0  0  0  0  0  0
   10.2698    0.9663   25.3088 H   0  0  0  0  0  0  0  0  0  0  0  0
   12.3475   -1.2493   23.1165 C   0  0  0  0  0  0  0  0  0  0  0  0
    9.6441    1.4275   22.3109 C   0  0  0  0  0  2  0  0  0  0  0  0
   10.8120   -1.4962   23.1720 C   0  0  0  0  0  0  0  0  0  0  0  0
   10.4000   -0.9926   24.5310 C   0  0  0  0  0  0  0  0  0  0  0  0
   10.4900   -2.5242   23.0261 H   0  0  0  0  0  0  0  0  0  0  0  0
   12.4391   -0.5124   22.3417 H   0  0  0  0  0  0  0  0  0  0  0  0
   11.0549    0.4171   24.8462 C   0  0  0  0  0  0  0  0  0  0  0  0
   10.0368    3.2385   24.9315 H   0  0  0  0  0  0  0  0  0  0  0  0
    9.6595    0.8550   21.5116 H   0  0  0  0  0  0  0  0  0  0  0  0
    9.9437    2.2740   23.0718 N   0  3  3  0  0  0  0  0  0  0  0  0
    9.1102    4.0719   23.6768 H   0  0  0  0  0  0  0  0  0  0  0  0
   11.4039    2.4068   23.1707 C   0  0  0  0  0  0  0  0  0  0  0  0
    8.4563    2.6419   24.4791 H   0  0  0  0  0  0  0  0  0  0  0  0
   11.9145    2.2139   22.2345 H   0  0  0  0  0  0  0  0  0  0  0  0
   11.6423    3.4511   23.4173 H   0  0  0  0  0  0  0  0  0  0  0  0
    9.3476    3.1082   24.1193 C   0  0  0  0  0  0  0  0  0  0  0  0
   11.7893    1.4102   24.0391 O   0  0  0  0  0  0  0  0  0  0  0  0
    9.8749    2.9991   22.3866 H   0  0  0  0  0  0  0  0  0  0  0  0
 18 23  1  0  0  0  0
 20 23  1  0  0  0  0
 15 23  1  0  0  0  0
 17 23  1  0  0  0  0
  9 17  1  0  0  0  0
 17 19  1  0  0  0  0
 19 22  1  0  0  0  0
  9 16  1  0  0  0  0
 19 21  1  0  0  0  0
 19 24  1  0  0  0  0
  7 14  1  0  0  0  0
  5 11  1  0  0  0  0
 14 24  1  0  0  0  0
 11 14  1  0  0  0  0
  6 14  1  0  0  0  0
  3 11  1  0  0  0  0
 10 11  1  0  0  0  0
  2 10  1  0  0  0  0
 10 12  1  0  0  0  0
  8 10  1  0  0  0  0
  8 13  1  0  0  0  0
  1  8  1  0  0  0  0
  4  8  1  0  0  0  0
 17 25  1  0  0  0  0
M  CHG  1  17   1
M  END
> <Chemgauss4>
-4.482958

$$$$
