stable:False satoms:16 tatoms:24 sratio:0.6666666666666666
  -OEChem-07092417363D

 24 23  0     1  0  0  0  0  0999 V2000
    7.5243   -3.9144   24.9331 H   0  0  0  0  0  0  0  0  0  0  0  0
    8.6037   -3.9555   25.0907 C   0  0  0  0  0  0  0  0  0  0  0  0
    8.9605   -4.9769   24.9667 H   0  0  0  0  0  0  0  0  0  0  0  0
    8.7972   -3.6142   26.1053 H   0  0  0  0  0  0  0  0  0  0  0  0
    9.1719   -1.8159   24.4245 N   0  0  0  0  0  0  0  0  0  0  0  0
    9.4133   -2.9925   24.1247 C   0  0  0  0  0  0  0  0  0  0  0  0
    8.6497   -0.9395   22.5122 C   0  0  1  0  0  0  0  0  0  0  0  0
   10.8735   -0.4633   23.2407 C   0  0  0  0  0  0  0  0  0  0  0  0
   11.7200   -0.2082   24.2124 N   0  0  0  0  0  0  0  0  0  0  0  0
   11.5463   -0.4030   25.1701 H   0  0  0  0  0  0  0  0  0  0  0  0
   12.6787    0.0296   24.0092 H   0  0  0  0  0  0  0  0  0  0  0  0
   11.2834   -0.2632   22.2729 H   0  0  0  0  0  0  0  0  0  0  0  0
   10.2948   -3.2652   23.2430 O   0  0  0  0  0  0  0  0  0  0  0  0
    9.6501   -0.9061   23.3918 N   0  3  0  0  0  0  0  0  0  0  0  0
    8.3241   -0.6655   21.1590 C   0  0  1  0  0  0  0  0  0  0  0  0
    9.1653   -0.1850   20.6454 H   0  0  0  0  0  0  0  0  0  0  0  0
    8.0116   -1.7422   21.8522 O   0  0  0  0  0  0  0  0  0  0  0  0
    7.1006   -0.6034   20.4396 O   0  0  0  0  0  0  0  0  0  0  0  0
    6.7476    0.1241   19.3291 C   0  0  0  0  0  0  0  0  0  0  0  0
    6.8238   -0.4829   18.4199 H   0  0  0  0  0  0  0  0  0  0  0  0
    7.2865    1.0669   19.1604 H   0  0  0  0  0  0  0  0  0  0  0  0
    4.6744    1.2791   19.7176 O   0  0  0  0  0  0  0  0  0  0  0  0
    5.4711    0.6214   19.6272 C   0  0  0  0  0  0  0  0  0  0  0  0
    6.8119    0.9856   23.2490 Cl  0  5  0  0  0  0  0  0  0  0  0  0
 19 20  1  0  0  0  0
 19 21  1  0  0  0  0
 19 23  1  0  0  0  0
 18 19  1  0  0  0  0
 22 23  1  0  0  0  0
 15 18  1  0  0  0  0
 15 16  1  0  0  0  0
 15 17  1  0  0  0  0
  7 15  1  0  0  0  0
  7 17  1  0  0  0  0
  8 12  1  0  0  0  0
  7 14  1  0  0  0  0
  8 14  2  0  0  0  0
  8  9  1  0  0  0  0
  6 13  2  0  0  0  0
  5 14  1  0  0  0  0
  9 11  1  0  0  0  0
  5  6  1  0  0  0  0
  2  6  1  0  0  0  0
  9 10  1  0  0  0  0
  1  2  1  0  0  0  0
  2  3  1  0  0  0  0
  2  4  1  0  0  0  0
M  CHG  2  14   1  24  -1
M  END
> <Shapegauss>
-153.891815

$$$$
