stable:False satoms:10 tatoms:24 sratio:0.4166666666666667
  -OEChem-07092417503D

 24 25  0     1  0  0  0  0  0999 V2000
    6.6211   -4.9007   26.4628 C   0  0  0  0  0  0  0  0  0  0  0  0
    8.2117   -4.3200   26.1157 S   0  0  0  0  0  0  0  0  0  0  0  0
    9.0787   -5.4637   26.0447 O   0  0  0  0  0  0  0  0  0  0  0  0
    8.6163   -3.4423   27.1760 O   0  0  0  0  0  0  0  0  0  0  0  0
    8.1001   -3.5479   24.7017 N   0  0  0  0  0  0  0  0  0  0  0  0
    8.9512   -2.9199   24.1611 C   0  0  0  0  0  0  0  0  0  0  0  0
    9.4083   -1.9159   23.4593 C   0  0  0  0  0  0  0  0  0  0  0  0
   10.3178   -1.0903   23.2976 C   0  0  2  0  0  0  0  0  0  0  0  0
   11.0442   -0.0156   24.2647 C   0  0  0  0  0  0  0  0  0  0  0  0
   12.0551    0.3166   24.2373 C   0  0  0  0  0  0  0  0  0  0  0  0
   13.1642   -0.1440   23.4805 C   0  0  0  0  0  0  0  0  0  0  0  0
   12.7098   -1.3028   22.6247 C   0  0  0  0  0  0  0  0  0  0  0  0
   11.8455   -1.7660   22.5118 C   0  0  0  0  0  0  0  0  0  0  0  0
    9.7352   -0.5534   22.3370 C   0  0  2  0  0  0  0  0  0  0  0  0
    9.0860    0.0621   21.3813 C   0  0  0  0  0  0  0  0  0  0  0  0
    9.5518    0.9994   20.9575 O   0  0  0  0  0  0  0  0  0  0  0  0
    7.9333   -0.5109   21.1004 N   0  0  0  0  0  0  0  0  0  0  0  0
    7.2325   -0.1182   20.1656 C   0  0  0  0  0  0  0  0  0  0  0  0
    7.2417   -0.0244   18.8865 C   0  0  0  0  0  0  0  0  0  0  0  0
    6.7510    0.3257   17.8065 N   0  0  0  0  0  0  0  0  0  0  0  0
    5.6616    0.8479   18.1932 C   0  0  0  0  0  0  0  0  0  0  0  0
    5.2153    0.9503   19.4681 C   0  0  0  0  0  0  0  0  0  0  0  0
    5.7576    0.5721   20.5747 C   0  0  0  0  0  0  0  0  0  0  0  0
    5.2941    0.6718   21.8883 C   0  0  0  0  0  0  0  0  0  0  0  0
 20 21  2  0  0  0  0
 19 20  1  0  0  0  0
 21 22  1  0  0  0  0
 18 19  2  0  0  0  0
 22 23  2  0  0  0  0
 18 23  1  0  0  0  0
 17 18  1  0  0  0  0
 23 24  1  0  0  0  0
 15 16  2  0  0  0  0
 15 17  1  0  0  0  0
 14 15  1  0  0  0  0
  8 14  1  0  0  0  0
  7 14  1  0  0  0  0
 12 13  2  0  0  0  0
 11 12  1  0  0  0  0
  7  8  1  0  0  0  0
  8  9  1  0  0  0  0
  6  7  2  3  0  0  0
 10 11  1  0  0  0  0
  5  6  1  0  0  0  0
  9 10  2  0  0  0  0
  2  5  1  0  0  0  0
  2  3  2  0  0  0  0
  1  2  1  0  0  0  0
  2  4  2  0  0  0  0
M  END
> <Shapegauss>
-285.202942

$$$$
