stable:False satoms:10 tatoms:24 sratio:0.4166666666666667
  -OEChem-08062417453D

 45 46  0     1  0  0  0  0  0999 V2000
   -6.5005   -5.0654  -26.4507 C   0  0  0  0  0  0  0  0  0  0  0  0
   -8.1146   -4.4852  -26.2371 S   0  0  0  0  0  0  0  0  0  0  0  0
   -8.9813   -5.6311  -26.2114 O   0  0  0  0  0  0  0  0  0  0  0  0
   -8.4394   -3.6287  -27.3414 O   0  0  0  0  0  0  0  0  0  0  0  0
   -8.1138   -3.6869  -24.8333 N   0  0  0  0  0  0  0  0  0  0  0  0
   -9.0055   -3.0527  -24.3711 C   0  0  0  0  0  0  0  0  0  0  0  0
   -9.5178   -2.0380  -23.7251 C   0  0  0  0  0  0  0  0  0  0  0  0
  -10.4393   -1.2134  -23.6487 C   0  0  2  0  0  0  0  0  0  0  0  0
  -11.0926   -0.1597  -24.6883 C   0  0  0  0  0  0  0  0  0  0  0  0
  -12.1036    0.1687  -24.7445 C   0  0  0  0  0  0  0  0  0  0  0  0
  -13.2661   -0.2827  -24.0663 C   0  0  0  0  0  0  0  0  0  0  0  0
  -12.8752   -1.4237  -23.1569 C   0  0  0  0  0  0  0  0  0  0  0  0
  -12.0208   -1.8811  -22.9697 C   0  0  0  0  0  0  0  0  0  0  0  0
   -9.9335   -0.6566  -22.6565 C   0  0  2  0  0  0  0  0  0  0  0  0
   -9.3611   -0.0210  -21.6656 C   0  0  0  0  0  0  0  0  0  0  0  0
   -9.8606    0.9219  -21.2961 O   0  0  0  0  0  0  0  0  0  0  0  0
   -8.2316   -0.5839  -21.2868 N   0  0  0  0  0  0  0  0  0  0  0  0
   -7.6056   -0.1712  -20.3086 C   0  0  0  0  0  0  0  0  0  0  0  0
   -7.7129   -0.0541  -19.0359 C   0  0  0  0  0  0  0  0  0  0  0  0
   -7.3073    0.3178  -17.9282 N   0  0  0  0  0  0  0  0  0  0  0  0
   -6.1930    0.8375  -18.2401 C   0  0  0  0  0  0  0  0  0  0  0  0
   -5.6507    0.9184  -19.4788 C   0  0  0  0  0  0  0  0  0  0  0  0
   -6.1056    0.5178  -20.6164 C   0  0  0  0  0  0  0  0  0  0  0  0
   -5.5432    0.5954  -21.8923 C   0  0  0  0  0  0  0  0  0  0  0  0
   -6.4328   -5.6227  -27.3967 H   0  0  0  0  0  0  0  0  0  0  0  0
   -5.8052   -4.2134  -26.4767 H   0  0  0  0  0  0  0  0  0  0  0  0
   -6.2359   -5.7292  -25.6145 H   0  0  0  0  0  0  0  0  0  0  0  0
   -7.3500   -3.0451  -24.9023 H   0  0  0  0  0  0  0  0  0  0  0  0
   -9.8755   -3.6399  -24.6257 H   0  0  0  0  0  0  0  0  0  0  0  0
  -11.3189   -1.7624  -23.2812 H   0  0  0  0  0  0  0  0  0  0  0  0
  -10.4177    0.2640  -25.4173 H   0  0  0  0  0  0  0  0  0  0  0  0
  -12.2736    0.9826  -25.4337 H   0  0  0  0  0  0  0  0  0  0  0  0
  -14.0116   -0.6289  -24.7972 H   0  0  0  0  0  0  0  0  0  0  0  0
  -13.6908    0.5385  -23.4703 H   0  0  0  0  0  0  0  0  0  0  0  0
  -13.7052   -1.8231  -22.5930 H   0  0  0  0  0  0  0  0  0  0  0  0
  -11.9878   -2.6940  -22.2594 H   0  0  0  0  0  0  0  0  0  0  0  0
  -11.1189   -1.5687  -23.4751 H   0  0  0  0  0  0  0  0  0  0  0  0
  -10.4711   -1.3215  -21.9645 H   0  0  0  0  0  0  0  0  0  0  0  0
   -7.8750   -1.3621  -21.8036 H   0  0  0  0  0  0  0  0  0  0  0  0
   -8.6551   -0.5332  -18.8145 H   0  0  0  0  0  0  0  0  0  0  0  0
   -5.6149    1.2605  -17.4318 H   0  0  0  0  0  0  0  0  0  0  0  0
   -4.6823    1.3948  -19.5198 H   0  0  0  0  0  0  0  0  0  0  0  0
   -4.9425   -0.3059  -22.0843 H   0  0  0  0  0  0  0  0  0  0  0  0
   -6.3446    0.6684  -22.6423 H   0  0  0  0  0  0  0  0  0  0  0  0
   -4.8996    1.4852  -21.9557 H   0  0  0  0  0  0  0  0  0  0  0  0
 20 21  2  0  0  0  0
 19 20  1  0  0  0  0
 21 22  1  0  0  0  0
 18 19  2  0  0  0  0
 22 23  2  0  0  0  0
 18 23  1  0  0  0  0
 17 18  1  0  0  0  0
 23 24  1  0  0  0  0
 15 16  2  0  0  0  0
 15 17  1  0  0  0  0
 14 15  1  0  0  0  0
  8 14  1  0  0  0  0
  7 14  1  0  0  0  0
 12 13  2  0  0  0  0
 11 12  1  0  0  0  0
  7  8  1  0  0  0  0
  8  9  1  0  0  0  0
  6  7  2  3  0  0  0
 10 11  1  0  0  0  0
  5  6  1  0  0  0  0
  9 10  2  0  0  0  0
  2  5  1  0  0  0  0
  2  3  2  0  0  0  0
  1  2  1  0  0  0  0
  2  4  2  0  0  0  0
  1 25  1  0  0  0  0
  1 26  1  0  0  0  0
  1 27  1  0  0  0  0
  5 28  1  0  0  0  0
  6 29  1  0  0  0  0
  8 30  1  0  0  0  0
  9 31  1  0  0  0  0
 10 32  1  0  0  0  0
 11 33  1  0  0  0  0
 11 34  1  0  0  0  0
 12 35  1  0  0  0  0
 13 36  1  0  0  0  0
 13 37  1  0  0  0  0
 14 38  1  0  0  0  0
 17 39  1  0  0  0  0
 19 40  1  0  0  0  0
 21 41  1  0  0  0  0
 22 42  1  0  0  0  0
 24 43  1  0  0  0  0
 24 44  1  0  0  0  0
 24 45  1  0  0  0  0
M  END
> <Chemgauss4>
-12.998549

$$$$
