stable:False satoms:10 tatoms:24 sratio:0.4166666666666667
  -OEChem-08062417453D

 45 46  0     1  0  0  0  0  0999 V2000
    6.1672   -5.0654   26.1174 C   0  0  0  0  0  0  0  0  0  0  0  0
    7.7813   -4.4852   25.9038 S   0  0  0  0  0  0  0  0  0  0  0  0
    8.6480   -5.6311   25.8781 O   0  0  0  0  0  0  0  0  0  0  0  0
    8.1060   -3.6287   27.0080 O   0  0  0  0  0  0  0  0  0  0  0  0
    7.7804   -3.6869   24.5000 N   0  0  0  0  0  0  0  0  0  0  0  0
    8.6722   -3.0527   24.0378 C   0  0  0  0  0  0  0  0  0  0  0  0
    9.1845   -2.0380   23.3917 C   0  0  0  0  0  0  0  0  0  0  0  0
   10.1060   -1.2134   23.3154 C   0  0  2  0  0  0  0  0  0  0  0  0
   10.7593   -0.1597   24.3550 C   0  0  0  0  0  0  0  0  0  0  0  0
   11.7703    0.1687   24.4112 C   0  0  0  0  0  0  0  0  0  0  0  0
   12.9327   -0.2827   23.7330 C   0  0  0  0  0  0  0  0  0  0  0  0
   12.5419   -1.4237   22.8236 C   0  0  0  0  0  0  0  0  0  0  0  0
   11.6875   -1.8811   22.6363 C   0  0  0  0  0  0  0  0  0  0  0  0
    9.6002   -0.6566   22.3232 C   0  0  2  0  0  0  0  0  0  0  0  0
    9.0277   -0.0210   21.3322 C   0  0  0  0  0  0  0  0  0  0  0  0
    9.5273    0.9219   20.9628 O   0  0  0  0  0  0  0  0  0  0  0  0
    7.8983   -0.5839   20.9534 N   0  0  0  0  0  0  0  0  0  0  0  0
    7.2722   -0.1712   19.9752 C   0  0  0  0  0  0  0  0  0  0  0  0
    7.3796   -0.0541   18.7025 C   0  0  0  0  0  0  0  0  0  0  0  0
    6.9739    0.3178   17.5949 N   0  0  0  0  0  0  0  0  0  0  0  0
    5.8596    0.8375   17.9067 C   0  0  0  0  0  0  0  0  0  0  0  0
    5.3173    0.9184   19.1455 C   0  0  0  0  0  0  0  0  0  0  0  0
    5.7723    0.5178   20.2831 C   0  0  0  0  0  0  0  0  0  0  0  0
    5.2099    0.5954   21.5590 C   0  0  0  0  0  0  0  0  0  0  0  0
    6.0995   -5.6227   27.0633 H   0  0  0  0  0  0  0  0  0  0  0  0
    5.4718   -4.2134   26.1434 H   0  0  0  0  0  0  0  0  0  0  0  0
    5.9026   -5.7292   25.2811 H   0  0  0  0  0  0  0  0  0  0  0  0
    7.0166   -3.0451   24.5690 H   0  0  0  0  0  0  0  0  0  0  0  0
    9.5421   -3.6399   24.2924 H   0  0  0  0  0  0  0  0  0  0  0  0
   10.9855   -1.7624   22.9479 H   0  0  0  0  0  0  0  0  0  0  0  0
   10.0844    0.2640   25.0840 H   0  0  0  0  0  0  0  0  0  0  0  0
   11.9402    0.9826   25.1004 H   0  0  0  0  0  0  0  0  0  0  0  0
   13.6783   -0.6289   24.4639 H   0  0  0  0  0  0  0  0  0  0  0  0
   13.3574    0.5385   23.1370 H   0  0  0  0  0  0  0  0  0  0  0  0
   13.3719   -1.8231   22.2596 H   0  0  0  0  0  0  0  0  0  0  0  0
   11.6544   -2.6940   21.9261 H   0  0  0  0  0  0  0  0  0  0  0  0
   10.7856   -1.5687   23.1417 H   0  0  0  0  0  0  0  0  0  0  0  0
   10.1377   -1.3215   21.6311 H   0  0  0  0  0  0  0  0  0  0  0  0
    7.5416   -1.3621   21.4703 H   0  0  0  0  0  0  0  0  0  0  0  0
    8.3218   -0.5332   18.4811 H   0  0  0  0  0  0  0  0  0  0  0  0
    5.2815    1.2605   17.0985 H   0  0  0  0  0  0  0  0  0  0  0  0
    4.3490    1.3948   19.1865 H   0  0  0  0  0  0  0  0  0  0  0  0
    4.6092   -0.3059   21.7510 H   0  0  0  0  0  0  0  0  0  0  0  0
    6.0113    0.6684   22.3090 H   0  0  0  0  0  0  0  0  0  0  0  0
    4.5663    1.4852   21.6224 H   0  0  0  0  0  0  0  0  0  0  0  0
 20 21  2  0  0  0  0
 19 20  1  0  0  0  0
 21 22  1  0  0  0  0
 18 19  2  0  0  0  0
 22 23  2  0  0  0  0
 18 23  1  0  0  0  0
 17 18  1  0  0  0  0
 23 24  1  0  0  0  0
 15 16  2  0  0  0  0
 15 17  1  0  0  0  0
 14 15  1  0  0  0  0
  8 14  1  0  0  0  0
  7 14  1  0  0  0  0
 12 13  2  0  0  0  0
 11 12  1  0  0  0  0
  7  8  1  0  0  0  0
  8  9  1  0  0  0  0
  6  7  2  3  0  0  0
 10 11  1  0  0  0  0
  5  6  1  0  0  0  0
  9 10  2  0  0  0  0
  2  5  1  0  0  0  0
  2  3  2  0  0  0  0
  1  2  1  0  0  0  0
  2  4  2  0  0  0  0
  1 25  1  0  0  0  0
  1 26  1  0  0  0  0
  1 27  1  0  0  0  0
  5 28  1  0  0  0  0
  6 29  1  0  0  0  0
  8 30  1  0  0  0  0
  9 31  1  0  0  0  0
 10 32  1  0  0  0  0
 11 33  1  0  0  0  0
 11 34  1  0  0  0  0
 12 35  1  0  0  0  0
 13 36  1  0  0  0  0
 13 37  1  0  0  0  0
 14 38  1  0  0  0  0
 17 39  1  0  0  0  0
 19 40  1  0  0  0  0
 21 41  1  0  0  0  0
 22 42  1  0  0  0  0
 24 43  1  0  0  0  0
 24 44  1  0  0  0  0
 24 45  1  0  0  0  0
M  END
> <Chemgauss4>
-12.818726

$$$$
