MODEL 1
REMARK VINA RESULT:    -5.384      0.000      0.000
REMARK INTER + INTRA:          -6.702
REMARK INTER:                  -6.486
REMARK INTRA:                  -0.216
REMARK UNBOUND:                -0.216
REMARK  4 active torsions:
REMARK  status: ('A' for Active; 'I' for Inactive)
REMARK    1  A    between atoms: C_2  and  C_8 
REMARK    2  A    between atoms: C_2  and  O_15 
REMARK    3  A    between atoms: O_6  and  C_8 
REMARK    4  A    between atoms: C_7  and  C_10 
ROOT
HETATM    1  N   UNL     1       8.865  12.629   3.100  1.00  0.00    -0.301 N 
ATOM      2  HN  UNL     1       9.064  11.653   3.319  1.00  0.00     0.187 HD
HETATM    3  C   UNL     1       7.197  14.238   2.304  1.00  0.00     0.031 C 
HETATM    4  C   UNL     1       7.670  12.904   2.638  1.00  0.00     0.050 C 
HETATM    5  C   UNL     1       7.940  15.430   2.178  1.00  0.00     0.004 C 
HETATM    6  C   UNL     1       9.281  15.614   2.453  1.00  0.00     0.019 C 
HETATM    7  N   UNL     1       9.752  13.427   3.291  1.00  0.00    -0.311 N 
ATOM      8  HN  UNL     1      10.496  12.980   3.828  1.00  0.00     0.186 HD
HETATM    9  C   UNL     1      10.081  14.649   3.049  1.00  0.00     0.107 C 
ENDROOT
BRANCH   4  10
HETATM   10  C   UNL     1       7.041  11.619   2.585  1.00  0.00     0.065 C 
HETATM   11  C   UNL     1       6.649  10.869   1.516  1.00  0.00     0.069 C 
BRANCH  11  12
HETATM   12  C   UNL     1       5.571   9.818   1.659  1.00  0.00     0.231 C 
BRANCH  12  13
HETATM   13  O   UNL     1       5.231   9.709   3.008  1.00  0.00    -0.390 OA
HETATM   14  C   UNL     1       4.704   8.541   3.573  1.00  0.00     0.201 C 
ENDBRANCH  12  13
ENDBRANCH  11  12
BRANCH  11  15
HETATM   15  O   UNL     1       7.130  11.053   0.295  1.00  0.00    -0.363 OA
HETATM   16  H   UNL     1       6.885  11.971   0.053  1.00  0.00     0.217 HD
ENDBRANCH  11  15
ENDBRANCH   4  10
TORSDOF 4
ENDMDL
MODEL 2
REMARK VINA RESULT:    -5.040      3.401      4.602
REMARK INTER + INTRA:          -6.288
REMARK INTER:                  -5.875
REMARK INTRA:                  -0.412
REMARK UNBOUND:                -0.216
REMARK  4 active torsions:
REMARK  status: ('A' for Active; 'I' for Inactive)
REMARK    1  A    between atoms: C_2  and  C_8 
REMARK    2  A    between atoms: C_2  and  O_15 
REMARK    3  A    between atoms: O_6  and  C_8 
REMARK    4  A    between atoms: C_7  and  C_10 
ROOT
HETATM    1  N   UNL     1       9.743  17.470   2.622  1.00  0.00    -0.301 N 
ATOM      2  HN  UNL     1      10.278  17.024   3.367  1.00  0.00     0.187 HD
HETATM    3  C   UNL     1       7.773  17.341   1.170  1.00  0.00     0.031 C 
HETATM    4  C   UNL     1       8.674  16.843   2.198  1.00  0.00     0.050 C 
HETATM    5  C   UNL     1       7.961  18.421   0.282  1.00  0.00     0.004 C 
HETATM    6  C   UNL     1       9.009  19.320   0.267  1.00  0.00     0.019 C 
HETATM    7  N   UNL     1      10.154  18.530   2.210  1.00  0.00    -0.311 N 
ATOM      8  HN  UNL     1      10.880  18.875   2.838  1.00  0.00     0.186 HD
HETATM    9  C   UNL     1       9.987  19.373   1.250  1.00  0.00     0.107 C 
ENDROOT
BRANCH   4  10
HETATM   10  C   UNL     1       8.664  15.649   2.990  1.00  0.00     0.065 C 
HETATM   11  C   UNL     1       9.538  14.603   3.023  1.00  0.00     0.069 C 
BRANCH  11  12
HETATM   12  C   UNL     1       9.102  13.244   3.523  1.00  0.00     0.231 C 
BRANCH  12  13
HETATM   13  O   UNL     1       7.707  13.204   3.542  1.00  0.00    -0.390 OA
HETATM   14  C   UNL     1       6.977  12.011   3.626  1.00  0.00     0.201 C 
ENDBRANCH  12  13
ENDBRANCH  11  12
BRANCH  11  15
HETATM   15  O   UNL     1      10.779  14.690   2.569  1.00  0.00    -0.363 OA
HETATM   16  H   UNL     1      10.738  15.310   1.811  1.00  0.00     0.217 HD
ENDBRANCH  11  15
ENDBRANCH   4  10
TORSDOF 4
ENDMDL
MODEL 3
REMARK VINA RESULT:    -5.020      3.894      5.484
REMARK INTER + INTRA:          -6.264
REMARK INTER:                  -5.820
REMARK INTRA:                  -0.444
REMARK UNBOUND:                -0.216
REMARK  4 active torsions:
REMARK  status: ('A' for Active; 'I' for Inactive)
REMARK    1  A    between atoms: C_2  and  C_8 
REMARK    2  A    between atoms: C_2  and  O_15 
REMARK    3  A    between atoms: O_6  and  C_8 
REMARK    4  A    between atoms: C_7  and  C_10 
ROOT
HETATM    1  N   UNL     1      11.656  16.970   4.573  1.00  0.00    -0.301 N 
ATOM      2  HN  UNL     1      11.964  16.020   4.777  1.00  0.00     0.187 HD
HETATM    3  C   UNL     1       9.762  18.424   4.021  1.00  0.00     0.031 C 
HETATM    4  C   UNL     1      10.385  17.141   4.303  1.00  0.00     0.050 C 
HETATM    5  C   UNL     1      10.379  19.663   3.752  1.00  0.00     0.004 C 
HETATM    6  C   UNL     1      11.728  19.955   3.804  1.00  0.00     0.019 C 
HETATM    7  N   UNL     1      12.497  17.838   4.602  1.00  0.00    -0.311 N 
ATOM      8  HN  UNL     1      13.350  17.465   5.021  1.00  0.00     0.186 HD
HETATM    9  C   UNL     1      12.686  19.073   4.284  1.00  0.00     0.107 C 
ENDROOT
BRANCH   4  10
HETATM   10  C   UNL     1       9.858  15.811   4.380  1.00  0.00     0.065 C 
HETATM   11  C   UNL     1      10.148  14.701   3.643  1.00  0.00     0.069 C 
BRANCH  11  12
HETATM   12  C   UNL     1       9.154  13.567   3.524  1.00  0.00     0.231 C 
BRANCH  12  13
HETATM   13  O   UNL     1       7.963  14.073   3.001  1.00  0.00    -0.390 OA
HETATM   14  C   UNL     1       7.687  14.117   1.629  1.00  0.00     0.201 C 
ENDBRANCH  12  13
ENDBRANCH  11  12
BRANCH  11  15
HETATM   15  O   UNL     1      11.267  14.575   2.945  1.00  0.00    -0.363 OA
HETATM   16  H   UNL     1      11.060  13.934   2.232  1.00  0.00     0.217 HD
ENDBRANCH  11  15
ENDBRANCH   4  10
TORSDOF 4
ENDMDL
MODEL 4
REMARK VINA RESULT:    -4.936     31.354     34.006
REMARK INTER + INTRA:          -6.162
REMARK INTER:                  -5.755
REMARK INTRA:                  -0.407
REMARK UNBOUND:                -0.216
REMARK  4 active torsions:
REMARK  status: ('A' for Active; 'I' for Inactive)
REMARK    1  A    between atoms: C_2  and  C_8 
REMARK    2  A    between atoms: C_2  and  O_15 
REMARK    3  A    between atoms: O_6  and  C_8 
REMARK    4  A    between atoms: C_7  and  C_10 
ROOT
HETATM    1  N   UNL     1       1.555 -21.134   9.430  1.00  0.00    -0.301 N 
ATOM      2  HN  UNL     1       0.876 -20.493   9.839  1.00  0.00     0.187 HD
HETATM    3  C   UNL     1       3.327 -21.431   7.762  1.00  0.00     0.031 C 
HETATM    4  C   UNL     1       2.288 -20.675   8.444  1.00  0.00     0.050 C 
HETATM    5  C   UNL     1       3.602 -22.813   7.834  1.00  0.00     0.004 C 
HETATM    6  C   UNL     1       3.005 -23.744   8.661  1.00  0.00     0.019 C 
HETATM    7  N   UNL     1       1.612 -22.247   9.897  1.00  0.00    -0.311 N 
ATOM      8  HN  UNL     1       1.077 -22.274  10.765  1.00  0.00     0.186 HD
HETATM    9  C   UNL     1       2.117 -23.411   9.674  1.00  0.00     0.107 C 
ENDROOT
BRANCH   4  10
HETATM   10  C   UNL     1       1.806 -19.337   8.278  1.00  0.00     0.065 C 
HETATM   11  C   UNL     1       1.454 -18.402   9.206  1.00  0.00     0.069 C 
BRANCH  11  12
HETATM   12  C   UNL     1       0.508 -17.276   8.853  1.00  0.00     0.231 C 
BRANCH  12  13
HETATM   13  O   UNL     1       0.202 -16.571  10.019  1.00  0.00    -0.390 OA
HETATM   14  C   UNL     1      -1.012 -15.900  10.211  1.00  0.00     0.201 C 
ENDBRANCH  12  13
ENDBRANCH  11  12
BRANCH  11  15
HETATM   15  O   UNL     1       1.857 -18.455  10.467  1.00  0.00    -0.363 OA
HETATM   16  H   UNL     1       2.021 -17.524  10.729  1.00  0.00     0.217 HD
ENDBRANCH  11  15
ENDBRANCH   4  10
TORSDOF 4
ENDMDL
MODEL 5
REMARK VINA RESULT:    -4.916     21.408     23.375
REMARK INTER + INTRA:          -6.138
REMARK INTER:                  -5.740
REMARK INTRA:                  -0.398
REMARK UNBOUND:                -0.216
REMARK  4 active torsions:
REMARK  status: ('A' for Active; 'I' for Inactive)
REMARK    1  A    between atoms: C_2  and  C_8 
REMARK    2  A    between atoms: C_2  and  O_15 
REMARK    3  A    between atoms: O_6  and  C_8 
REMARK    4  A    between atoms: C_7  and  C_10 
ROOT
HETATM    1  N   UNL     1      10.668  -0.897  21.850  1.00  0.00    -0.301 N 
ATOM      2  HN  UNL     1      10.203  -1.291  21.032  1.00  0.00     0.187 HD
HETATM    3  C   UNL     1      10.748   0.958  23.451  1.00  0.00     0.031 C 
HETATM    4  C   UNL     1      10.232   0.261  22.283  1.00  0.00     0.050 C 
HETATM    5  C   UNL     1      11.916   0.687  24.193  1.00  0.00     0.004 C 
HETATM    6  C   UNL     1      12.780  -0.379  24.035  1.00  0.00     0.019 C 
HETATM    7  N   UNL     1      11.571  -1.540  22.333  1.00  0.00    -0.311 N 
ATOM      8  HN  UNL     1      11.573  -2.475  21.924  1.00  0.00     0.186 HD
HETATM    9  C   UNL     1      12.531  -1.449  23.186  1.00  0.00     0.107 C 
ENDROOT
BRANCH   4  10
HETATM   10  C   UNL     1       9.190   0.581  21.354  1.00  0.00     0.065 C 
HETATM   11  C   UNL     1       8.140  -0.166  20.910  1.00  0.00     0.069 C 
BRANCH  11  12
HETATM   12  C   UNL     1       7.473   0.141  19.587  1.00  0.00     0.231 C 
BRANCH  12  13
HETATM   13  O   UNL     1       6.110   0.341  19.813  1.00  0.00    -0.390 OA
HETATM   14  C   UNL     1       5.232   0.808  18.827  1.00  0.00     0.201 C 
ENDBRANCH  12  13
ENDBRANCH  11  12
BRANCH  11  15
HETATM   15  O   UNL     1       7.687  -1.227  21.562  1.00  0.00    -0.363 OA
HETATM   16  H   UNL     1       8.292  -1.343  22.324  1.00  0.00     0.217 HD
ENDBRANCH  11  15
ENDBRANCH   4  10
TORSDOF 4
ENDMDL
MODEL 6
REMARK VINA RESULT:    -4.912     20.246     22.258
REMARK INTER + INTRA:          -6.133
REMARK INTER:                  -5.876
REMARK INTRA:                  -0.257
REMARK UNBOUND:                -0.216
REMARK  4 active torsions:
REMARK  status: ('A' for Active; 'I' for Inactive)
REMARK    1  A    between atoms: C_2  and  C_8 
REMARK    2  A    between atoms: C_2  and  O_15 
REMARK    3  A    between atoms: O_6  and  C_8 
REMARK    4  A    between atoms: C_7  and  C_10 
ROOT
HETATM    1  N   UNL     1       7.752   0.154  19.491  1.00  0.00    -0.301 N 
ATOM      2  HN  UNL     1       8.601  -0.409  19.447  1.00  0.00     0.187 HD
HETATM    3  C   UNL     1       6.296   1.537  20.896  1.00  0.00     0.031 C 
HETATM    4  C   UNL     1       7.446   0.681  20.651  1.00  0.00     0.050 C 
HETATM    5  C   UNL     1       5.188   1.783  20.059  1.00  0.00     0.004 C 
HETATM    6  C   UNL     1       5.002   1.343  18.763  1.00  0.00     0.019 C 
HETATM    7  N   UNL     1       7.119   0.275  18.468  1.00  0.00    -0.311 N 
ATOM      8  HN  UNL     1       7.676  -0.072  17.686  1.00  0.00     0.186 HD
HETATM    9  C   UNL     1       5.982   0.691  18.027  1.00  0.00     0.107 C 
ENDROOT
BRANCH   4  10
HETATM   10  C   UNL     1       8.496   0.212  21.506  1.00  0.00     0.065 C 
HETATM   11  C   UNL     1       9.748   0.705  21.722  1.00  0.00     0.069 C 
BRANCH  11  12
HETATM   12  C   UNL     1      10.855  -0.187  22.239  1.00  0.00     0.231 C 
BRANCH  12  13
HETATM   13  O   UNL     1      11.458   0.441  23.331  1.00  0.00    -0.390 OA
HETATM   14  C   UNL     1      10.892   0.460  24.611  1.00  0.00     0.201 C 
ENDBRANCH  12  13
ENDBRANCH  11  12
BRANCH  11  15
HETATM   15  O   UNL     1      10.087   1.953  21.436  1.00  0.00    -0.363 OA
HETATM   16  H   UNL     1      11.055   1.933  21.282  1.00  0.00     0.217 HD
ENDBRANCH  11  15
ENDBRANCH   4  10
TORSDOF 4
ENDMDL
MODEL 7
REMARK VINA RESULT:    -4.776     22.691     23.772
REMARK INTER + INTRA:          -5.969
REMARK INTER:                  -5.543
REMARK INTRA:                  -0.426
REMARK UNBOUND:                -0.216
REMARK  4 active torsions:
REMARK  status: ('A' for Active; 'I' for Inactive)
REMARK    1  A    between atoms: C_2  and  C_8 
REMARK    2  A    between atoms: C_2  and  O_15 
REMARK    3  A    between atoms: O_6  and  C_8 
REMARK    4  A    between atoms: C_7  and  C_10 
ROOT
HETATM    1  N   UNL     1       9.644   3.322  23.169  1.00  0.00    -0.301 N 
ATOM      2  HN  UNL     1       9.289   2.383  22.993  1.00  0.00     0.187 HD
HETATM    3  C   UNL     1      11.601   4.688  23.729  1.00  0.00     0.031 C 
HETATM    4  C   UNL     1      10.914   3.431  23.477  1.00  0.00     0.050 C 
HETATM    5  C   UNL     1      11.048   5.971  23.925  1.00  0.00     0.004 C 
HETATM    6  C   UNL     1       9.721   6.336  23.814  1.00  0.00     0.019 C 
HETATM    7  N   UNL     1       8.857   4.234  23.076  1.00  0.00    -0.311 N 
ATOM      8  HN  UNL     1       7.998   3.893  22.642  1.00  0.00     0.186 HD
HETATM    9  C   UNL     1       8.730   5.490  23.336  1.00  0.00     0.107 C 
ENDROOT
BRANCH   4  10
HETATM   10  C   UNL     1      11.365   2.072  23.473  1.00  0.00     0.065 C 
HETATM   11  C   UNL     1      11.167   1.072  24.378  1.00  0.00     0.069 C 
BRANCH  11  12
HETATM   12  C   UNL     1      12.120  -0.100  24.461  1.00  0.00     0.231 C 
BRANCH  12  13
HETATM   13  O   UNL     1      12.007  -0.848  23.288  1.00  0.00    -0.390 OA
HETATM   14  C   UNL     1      10.866  -1.591  22.960  1.00  0.00     0.201 C 
ENDBRANCH  12  13
ENDBRANCH  11  12
BRANCH  11  15
HETATM   15  O   UNL     1      10.186   1.093  25.269  1.00  0.00    -0.363 OA
HETATM   16  H   UNL     1       9.840   0.176  25.299  1.00  0.00     0.217 HD
ENDBRANCH  11  15
ENDBRANCH   4  10
TORSDOF 4
ENDMDL
MODEL 8
REMARK VINA RESULT:    -4.760     31.321     32.278
REMARK INTER + INTRA:          -5.950
REMARK INTER:                  -5.522
REMARK INTRA:                  -0.428
REMARK UNBOUND:                -0.216
REMARK  4 active torsions:
REMARK  status: ('A' for Active; 'I' for Inactive)
REMARK    1  A    between atoms: C_2  and  C_8 
REMARK    2  A    between atoms: C_2  and  O_15 
REMARK    3  A    between atoms: O_6  and  C_8 
REMARK    4  A    between atoms: C_7  and  C_10 
ROOT
HETATM    1  N   UNL     1      23.722  -2.028  25.783  1.00  0.00    -0.301 N 
ATOM      2  HN  UNL     1      24.575  -2.501  26.079  1.00  0.00     0.187 HD
HETATM    3  C   UNL     1      21.371  -2.281  25.138  1.00  0.00     0.031 C 
HETATM    4  C   UNL     1      22.677  -2.780  25.537  1.00  0.00     0.050 C 
HETATM    5  C   UNL     1      21.015  -0.982  24.718  1.00  0.00     0.004 C 
HETATM    6  C   UNL     1      21.819   0.141  24.696  1.00  0.00     0.019 C 
HETATM    7  N   UNL     1      23.765  -0.823  25.692  1.00  0.00    -0.311 N 
ATOM      8  HN  UNL     1      24.627  -0.485  26.122  1.00  0.00     0.186 HD
HETATM    9  C   UNL     1      23.096   0.180  25.238  1.00  0.00     0.107 C 
ENDROOT
BRANCH   4  10
HETATM   10  C   UNL     1      23.171  -4.104  25.772  1.00  0.00     0.065 C 
HETATM   11  C   UNL     1      23.894  -4.607  26.812  1.00  0.00     0.069 C 
BRANCH  11  12
HETATM   12  C   UNL     1      24.739  -5.849  26.642  1.00  0.00     0.231 C 
BRANCH  12  13
HETATM   13  O   UNL     1      23.950  -6.849  26.069  1.00  0.00    -0.390 OA
HETATM   14  C   UNL     1      24.316  -7.540  24.907  1.00  0.00     0.201 C 
ENDBRANCH  12  13
ENDBRANCH  11  12
BRANCH  11  15
HETATM   15  O   UNL     1      23.954  -4.016  27.997  1.00  0.00    -0.363 OA
HETATM   16  H   UNL     1      24.909  -3.946  28.206  1.00  0.00     0.217 HD
ENDBRANCH  11  15
ENDBRANCH   4  10
TORSDOF 4
ENDMDL
MODEL 9
REMARK VINA RESULT:    -4.760      4.435      5.854
REMARK INTER + INTRA:          -5.950
REMARK INTER:                  -5.518
REMARK INTRA:                  -0.432
REMARK UNBOUND:                -0.216
REMARK  4 active torsions:
REMARK  status: ('A' for Active; 'I' for Inactive)
REMARK    1  A    between atoms: C_2  and  C_8 
REMARK    2  A    between atoms: C_2  and  O_15 
REMARK    3  A    between atoms: O_6  and  C_8 
REMARK    4  A    between atoms: C_7  and  C_10 
ROOT
HETATM    1  N   UNL     1       9.836  17.950   1.981  1.00  0.00    -0.301 N 
ATOM      2  HN  UNL     1      10.281  17.344   2.670  1.00  0.00     0.187 HD
HETATM    3  C   UNL     1       8.182  18.113   0.179  1.00  0.00     0.031 C 
HETATM    4  C   UNL     1       8.941  17.401   1.195  1.00  0.00     0.050 C 
HETATM    5  C   UNL     1       8.391  19.413  -0.327  1.00  0.00     0.004 C 
HETATM    6  C   UNL     1       9.308  20.346   0.115  1.00  0.00     0.019 C 
HETATM    7  N   UNL     1      10.180  19.108   1.963  1.00  0.00    -0.311 N 
ATOM      8  HN  UNL     1      10.738  19.305   2.794  1.00  0.00     0.186 HD
HETATM    9  C   UNL     1      10.085  20.179   1.253  1.00  0.00     0.107 C 
ENDROOT
BRANCH   4  10
HETATM   10  C   UNL     1       8.937  16.033   1.617  1.00  0.00     0.065 C 
HETATM   11  C   UNL     1       8.556  15.472   2.799  1.00  0.00     0.069 C 
BRANCH  11  12
HETATM   12  C   UNL     1       9.094  14.126   3.230  1.00  0.00     0.231 C 
BRANCH  12  13
HETATM   13  O   UNL     1      10.478  14.229   3.383  1.00  0.00    -0.390 OA
HETATM   14  C   UNL     1      11.083  15.020   4.367  1.00  0.00     0.201 C 
ENDBRANCH  12  13
ENDBRANCH  11  12
BRANCH  11  15
HETATM   15  O   UNL     1       7.757  16.086   3.660  1.00  0.00    -0.363 OA
HETATM   16  H   UNL     1       7.874  15.611   4.510  1.00  0.00     0.217 HD
ENDBRANCH  11  15
ENDBRANCH   4  10
TORSDOF 4
ENDMDL
