REMARK  4 active torsions:
REMARK  status: ('A' for Active; 'I' for Inactive)
REMARK    1  A    between atoms: C_2  and  C_8 
REMARK    2  A    between atoms: C_2  and  O_15 
REMARK    3  A    between atoms: O_6  and  C_8 
REMARK    4  A    between atoms: C_7  and  C_10 
ROOT
HETATM    1  N   UNL     1       8.541   0.158  21.409  1.00  0.00    -0.301 N 
ATOM      2  HN  UNL     1       8.459  -0.661  20.807  1.00  0.00     0.187 HD
HETATM    3  C   UNL     1       8.631   0.992  23.712  1.00  0.00     0.031 C 
HETATM    4  C   UNL     1       8.498  -0.047  22.703  1.00  0.00     0.050 C 
HETATM    5  C   UNL     1       8.596   2.392  23.545  1.00  0.00     0.004 C 
HETATM    6  C   UNL     1       8.534   3.092  22.356  1.00  0.00     0.019 C 
HETATM    7  N   UNL     1       8.669   1.230  20.865  1.00  0.00    -0.311 N 
ATOM      8  HN  UNL     1       8.862   1.082  19.874  1.00  0.00     0.186 HD
HETATM    9  C   UNL     1       8.645   2.495  21.108  1.00  0.00     0.107 C 
ENDROOT
BRANCH   4  10
HETATM   10  C   UNL     1       8.313  -1.464  22.799  1.00  0.00     0.065 C 
HETATM   11  C   UNL     1       8.964  -2.392  23.556  1.00  0.00     0.069 C 
BRANCH  11  12
HETATM   12  C   UNL     1       8.984  -3.849  23.151  1.00  0.00     0.231 C 
BRANCH  12  13
HETATM   13  O   UNL     1       8.529  -3.951  21.835  1.00  0.00    -0.390 OA
HETATM   14  C   UNL     1       8.669  -5.112  21.065  1.00  0.00     0.201 C 
ENDBRANCH  12  13
ENDBRANCH  11  12
BRANCH  11  15
HETATM   15  O   UNL     1       9.662  -2.075  24.637  1.00  0.00    -0.363 OA
HETATM   16  H   UNL     1       9.832  -2.924  25.097  1.00  0.00     0.217 HD
ENDBRANCH  11  15
ENDBRANCH   4  10
TORSDOF 4
