stable:False satoms:14 tatoms:24 sratio:0.5833333333333334
  -OEChem-07092417393D

 24 23  0     1  0  0  0  0  0999 V2000
    6.7198   -5.1063   26.2699 Cl  0  0  0  0  0  0  0  0  0  0  0  0
    8.3374   -4.4284   26.1492 C   0  0  0  0  0  0  0  0  0  0  0  0
    9.0708   -5.2800   25.9840 H   0  0  0  0  0  0  0  0  0  0  0  0
    8.5636   -3.8883   27.1681 H   0  0  0  0  0  0  0  0  0  0  0  0
    8.2786   -3.5650   25.0232 N   0  0  0  0  0  0  0  0  0  0  0  0
    9.0853   -3.0293   24.3659 C   0  0  0  0  0  0  0  0  0  0  0  0
    9.5129   -2.1359   23.8063 N   0  0  0  0  0  0  0  0  0  0  0  0
   10.3133   -1.4128   23.0580 C   0  0  3  0  0  0  0  0  0  0  0  0
   11.7884   -0.5518   24.6376 H   0  0  0  0  0  0  0  0  0  0  0  0
   11.8715    0.4208   23.2560 H   0  0  0  0  0  0  0  0  0  0  0  0
   13.2529   -0.6151   23.4435 H   0  0  0  0  0  0  0  0  0  0  0  0
   12.1669   -0.5672   23.5922 C   0  0  0  0  0  0  0  0  0  0  0  0
   11.6356   -1.7353   22.9821 O   0  0  0  0  0  0  0  0  0  0  0  0
    9.7661   -0.5448   22.2474 C   0  0  0  0  0  0  0  0  0  0  0  0
    9.1131    0.2373   21.3740 C   0  0  0  0  0  0  0  0  0  0  0  0
    9.4877    1.3342   21.0333 O   0  0  0  0  0  0  0  0  0  0  0  0
    7.8949   -0.2880   20.8687 N   0  0  0  0  0  0  0  0  0  0  0  0
    7.4392   -0.0690   19.8493 C   0  0  0  0  0  0  0  0  0  0  0  0
    6.7567    0.2629   18.7744 C   0  0  0  0  0  0  0  0  0  0  0  0
    7.0027    0.1529   17.7484 H   0  0  0  0  0  0  0  0  0  0  0  0
    4.8676    1.2678   18.4861 H   0  0  0  0  0  0  0  0  0  0  0  0
    5.5601    0.8334   19.1896 C   0  0  0  0  0  0  0  0  0  0  0  0
    5.5090    0.7536   20.4869 C   0  5  0  0  0  0  0  0  0  0  0  0
    5.5902    0.6641   21.5029 H   0  0  0  0  0  0  0  0  0  0  0  0
 19 20  1  0  0  0  0
 21 22  1  0  0  0  0
 19 22  1  0  0  0  0
 18 19  2  0  0  0  0
 22 23  2  0  0  0  0
 17 18  1  0  0  0  0
 23 24  1  0  0  0  0
 15 17  1  0  0  0  0
 15 16  2  0  0  0  0
 14 15  1  0  0  0  0
  8 14  1  0  0  0  0
  8 13  1  0  0  0  0
 12 13  1  0  0  0  0
  7  8  1  0  0  0  0
 10 12  1  0  0  0  0
 11 12  1  0  0  0  0
  9 12  1  0  0  0  0
  6  7  2  0  0  0  0
  5  6  1  0  0  0  0
  2  5  1  0  0  0  0
  2  3  1  0  0  0  0
  1  2  1  0  0  0  0
  2  4  1  0  0  0  0
M  CHG  1  23  -1
M  END
> <Shapegauss>
-191.421799

$$$$
