stable:False satoms:14 tatoms:24 sratio:0.5833333333333334
  -OEChem-08062406513D

 33 32  0     1  0  0  0  0  0999 V2000
   -6.8617   -5.3128  -25.9943 Cl  0  0  0  0  0  0  0  0  0  0  0  0
   -8.4564   -4.5728  -26.0079 C   0  0  0  0  0  0  0  0  0  0  0  0
   -9.2310   -5.3892  -25.8536 H   0  0  0  0  0  0  0  0  0  0  0  0
   -8.5970   -4.0722  -27.0618 H   0  0  0  0  0  0  0  0  0  0  0  0
   -8.4354   -3.6614  -24.9190 N   0  0  0  0  0  0  0  0  0  0  0  0
   -9.2606   -3.0677  -24.3391 C   0  0  0  0  0  0  0  0  0  0  0  0
   -9.6878   -2.1349  -23.8477 N   0  3  0  0  0  0  0  0  0  0  0  0
  -10.5053   -1.3502  -23.1848 C   0  0  3  0  0  0  0  0  0  0  0  0
  -11.8437   -0.5103  -24.8923 H   0  0  0  0  0  0  0  0  0  0  0  0
  -11.9761    0.5269  -23.5625 H   0  0  0  0  0  0  0  0  0  0  0  0
  -13.3819   -0.4665  -23.7937 H   0  0  0  0  0  0  0  0  0  0  0  0
  -12.2876   -0.4643  -23.8738 C   0  0  0  0  0  0  0  0  0  0  0  0
  -11.8412   -1.6214  -23.1805 O   0  0  0  0  0  0  0  0  0  0  0  0
   -9.9772   -0.4660  -22.3790 C   0  0  0  0  0  0  0  0  0  0  0  0
   -9.3508    0.3314  -21.5000 C   0  0  0  0  0  0  0  0  0  0  0  0
   -9.7036    1.4555  -21.2321 O   0  0  0  0  0  0  0  0  0  0  0  0
   -8.1880   -0.2133  -20.8947 N   0  0  0  0  0  0  0  0  0  0  0  0
   -7.7893    0.0357  -19.8584 C   0  0  0  0  0  0  0  0  0  0  0  0
   -7.1635    0.3920  -18.7571 C   0  0  0  0  0  0  0  0  0  0  0  0
   -7.4777    0.3379  -17.7453 H   0  0  0  0  0  0  0  0  0  0  0  0
   -5.2590    1.3409  -18.3912 H   0  0  0  0  0  0  0  0  0  0  0  0
   -5.9221    0.8998  -19.1185 C   0  0  0  0  0  0  0  0  0  0  0  0
   -5.7925    0.7589  -20.4051 C   0  0  0  0  0  0  0  0  0  0  0  0
   -6.5869    0.3085  -20.9817 H   0  0  0  0  0  0  0  0  0  0  0  0
   -7.5136   -3.4891  -24.5717 H   0  0  0  0  0  0  0  0  0  0  0  0
  -10.0365   -3.8039  -24.1897 H   0  0  0  0  0  0  0  0  0  0  0  0
  -10.5919   -0.6342  -24.0154 H   0  0  0  0  0  0  0  0  0  0  0  0
  -10.9647   -0.1828  -21.9857 H   0  0  0  0  0  0  0  0  0  0  0  0
   -9.7139    0.1939  -23.2187 H   0  0  0  0  0  0  0  0  0  0  0  0
   -7.6695   -0.8799  -21.4303 H   0  0  0  0  0  0  0  0  0  0  0  0
   -8.6658   -0.3273  -19.3424 H   0  0  0  0  0  0  0  0  0  0  0  0
   -4.8905    1.0922  -20.8967 H   0  0  0  0  0  0  0  0  0  0  0  0
   -8.9615   -1.4818  -24.0620 H   0  0  0  0  0  0  0  0  0  0  0  0
 19 20  1  0  0  0  0
 21 22  1  0  0  0  0
 19 22  1  0  0  0  0
 18 19  2  0  0  0  0
 22 23  2  0  0  0  0
 17 18  1  0  0  0  0
 23 24  1  0  0  0  0
 15 17  1  0  0  0  0
 15 16  2  0  0  0  0
 14 15  1  0  0  0  0
  8 14  1  0  0  0  0
  8 13  1  0  0  0  0
 12 13  1  0  0  0  0
  7  8  1  0  0  0  0
 10 12  1  0  0  0  0
 11 12  1  0  0  0  0
  9 12  1  0  0  0  0
  6  7  2  0  0  0  0
  5  6  1  0  0  0  0
  2  5  1  0  0  0  0
  2  3  1  0  0  0  0
  1  2  1  0  0  0  0
  2  4  1  0  0  0  0
  5 25  1  0  0  0  0
  6 26  1  0  0  0  0
  8 27  1  0  0  0  0
 14 28  1  0  0  0  0
 14 29  1  0  0  0  0
 17 30  1  0  0  0  0
 18 31  1  0  0  0  0
 23 32  1  0  0  0  0
  7 33  1  0  0  0  0
M  CHG  1   7   1
M  END
> <Chemgauss4>
-6.527845

$$$$
