stable:False satoms:14 tatoms:24 sratio:0.5833333333333334
  -OEChem-08062406513D

 33 32  0     1  0  0  0  0  0999 V2000
    6.4516   -5.5822   25.6527 Cl  0  0  0  0  0  0  0  0  0  0  0  0
    8.0641   -4.8832   25.6959 C   0  0  0  0  0  0  0  0  0  0  0  0
    8.8202   -5.7187   25.5528 H   0  0  0  0  0  0  0  0  0  0  0  0
    8.1991   -4.3888   26.7535 H   0  0  0  0  0  0  0  0  0  0  0  0
    8.0852   -3.9690   24.6094 N   0  0  0  0  0  0  0  0  0  0  0  0
    8.9352   -3.3952   24.0455 C   0  0  0  0  0  0  0  0  0  0  0  0
    9.3946   -2.4724   23.5641 N   0  3  0  0  0  0  0  0  0  0  0  0
   10.2431   -1.7073   22.9176 C   0  0  3  0  0  0  0  0  0  0  0  0
   11.5727   -0.9059   24.6503 H   0  0  0  0  0  0  0  0  0  0  0  0
   11.7545    0.1307   23.3259 H   0  0  0  0  0  0  0  0  0  0  0  0
   13.1303   -0.8989   23.5786 H   0  0  0  0  0  0  0  0  0  0  0  0
   12.0352   -0.8689   23.6399 C   0  0  0  0  0  0  0  0  0  0  0  0
   11.5716   -2.0126   22.9357 O   0  0  0  0  0  0  0  0  0  0  0  0
    9.7518   -0.8081   22.1053 C   0  0  0  0  0  0  0  0  0  0  0  0
    9.1613    0.0072   21.2178 C   0  0  0  0  0  0  0  0  0  0  0  0
    9.5472    1.1225   20.9593 O   0  0  0  0  0  0  0  0  0  0  0  0
    7.9956   -0.5063   20.5910 N   0  0  0  0  0  0  0  0  0  0  0  0
    7.6214   -0.2447   19.5487 C   0  0  0  0  0  0  0  0  0  0  0  0
    7.0241    0.1300   18.4378 C   0  0  0  0  0  0  0  0  0  0  0  0
    7.3543    0.0703   17.4314 H   0  0  0  0  0  0  0  0  0  0  0  0
    5.1511    1.1282   18.0417 H   0  0  0  0  0  0  0  0  0  0  0  0
    5.7899    0.6685   18.7791 C   0  0  0  0  0  0  0  0  0  0  0  0
    5.6345    0.5279   20.0628 C   0  0  0  0  0  0  0  0  0  0  0  0
    6.4071    0.0561   20.6518 H   0  0  0  0  0  0  0  0  0  0  0  0
    7.1742   -3.7724   24.2467 H   0  0  0  0  0  0  0  0  0  0  0  0
    9.6946   -4.1506   23.9074 H   0  0  0  0  0  0  0  0  0  0  0  0
   10.3336   -0.9957   23.7516 H   0  0  0  0  0  0  0  0  0  0  0  0
   10.7528   -0.5493   21.7299 H   0  0  0  0  0  0  0  0  0  0  0  0
    9.4909   -0.1436   22.9422 H   0  0  0  0  0  0  0  0  0  0  0  0
    7.4511   -1.1606   21.1158 H   0  0  0  0  0  0  0  0  0  0  0  0
    8.4973   -0.6288   19.0470 H   0  0  0  0  0  0  0  0  0  0  0  0
    4.7330    0.8831   20.5397 H   0  0  0  0  0  0  0  0  0  0  0  0
    8.6815   -1.8015   23.7677 H   0  0  0  0  0  0  0  0  0  0  0  0
 19 20  1  0  0  0  0
 21 22  1  0  0  0  0
 19 22  1  0  0  0  0
 18 19  2  0  0  0  0
 22 23  2  0  0  0  0
 17 18  1  0  0  0  0
 23 24  1  0  0  0  0
 15 17  1  0  0  0  0
 15 16  2  0  0  0  0
 14 15  1  0  0  0  0
  8 14  1  0  0  0  0
  8 13  1  0  0  0  0
 12 13  1  0  0  0  0
  7  8  1  0  0  0  0
 10 12  1  0  0  0  0
 11 12  1  0  0  0  0
  9 12  1  0  0  0  0
  6  7  2  0  0  0  0
  5  6  1  0  0  0  0
  2  5  1  0  0  0  0
  2  3  1  0  0  0  0
  1  2  1  0  0  0  0
  2  4  1  0  0  0  0
  5 25  1  0  0  0  0
  6 26  1  0  0  0  0
  8 27  1  0  0  0  0
 14 28  1  0  0  0  0
 14 29  1  0  0  0  0
 17 30  1  0  0  0  0
 18 31  1  0  0  0  0
 23 32  1  0  0  0  0
  7 33  1  0  0  0  0
M  CHG  1   7   1
M  END
> <Chemgauss4>
-6.575560

$$$$
