MODEL 1
REMARK VINA RESULT:    -5.516      0.000      0.000
REMARK INTER + INTRA:          -6.910
REMARK INTER:                  -6.484
REMARK INTRA:                  -0.426
REMARK UNBOUND:                -0.426
REMARK  3 active torsions:
REMARK  status: ('A' for Active; 'I' for Inactive)
REMARK    1  A    between atoms: N_2  and  O_4 
REMARK    2  A    between atoms: N_5  and  C_7 
REMARK    3  A    between atoms: C_11  and  C_13 
ROOT
HETATM    1  C   UNL     1       6.705  -0.689  20.663  1.00  0.00     0.184 A 
HETATM    2  C   UNL     1       5.239   0.393  18.995  1.00  0.00     0.190 C 
HETATM    3  O   UNL     1       7.433   0.681  18.961  1.00  0.00    -0.103 OA
HETATM    4  N   UNL     1       6.482  -0.052  19.505  1.00  0.00    -0.210 N 
HETATM    5  C   UNL     1       8.161  -0.440  20.850  1.00  0.00     0.174 A 
HETATM    6  O   UNL     1       8.561   0.328  19.887  1.00  0.00    -0.168 OA
ENDROOT
BRANCH   1   7
HETATM    7  N   UNL     1       5.980  -1.407  21.433  1.00  0.00    -0.262 N 
HETATM    8  N   UNL     1       5.623  -2.571  21.828  1.00  0.00    -0.206 N 
ATOM      9  HN  UNL     1       4.751  -2.956  21.464  1.00  0.00     0.216 HD
ATOM     10  HN  UNL     1       5.435  -0.749  21.989  1.00  0.00     0.190 HD
BRANCH   8  11
HETATM   11  O   UNL     1       6.288  -3.269  22.644  1.00  0.00    -0.270 OA
HETATM   12  C   UNL     1       6.864  -4.500  22.167  1.00  0.00     0.239 C 
ENDBRANCH   8  11
ENDBRANCH   1   7
BRANCH   5  13
HETATM   13  C   UNL     1       9.153  -0.816  21.775  1.00  0.00     0.057 A 
HETATM   14  S   UNL     1      10.346   0.441  21.939  1.00  0.00    -0.106 SA
HETATM   15  C   UNL     1      11.282  -0.582  23.157  1.00  0.00     0.199 A 
HETATM   16  N   UNL     1      10.655  -1.834  23.213  1.00  0.00    -0.389 N 
HETATM   17  C   UNL     1       9.583  -1.927  22.477  1.00  0.00     0.105 A 
ATOM     18  HN  UNL     1      11.006  -2.605  23.780  1.00  0.00     0.159 HD
ENDBRANCH   5  13
TORSDOF 3
ENDMDL
MODEL 2
REMARK VINA RESULT:    -5.470      1.819      4.248
REMARK INTER + INTRA:          -6.856
REMARK INTER:                  -6.513
REMARK INTRA:                  -0.343
REMARK UNBOUND:                -0.426
REMARK  3 active torsions:
REMARK  status: ('A' for Active; 'I' for Inactive)
REMARK    1  A    between atoms: N_2  and  O_4 
REMARK    2  A    between atoms: N_5  and  C_7 
REMARK    3  A    between atoms: C_11  and  C_13 
ROOT
HETATM    1  C   UNL     1       7.911  -1.222  21.772  1.00  0.00     0.184 A 
HETATM    2  C   UNL     1      10.024  -1.850  22.888  1.00  0.00     0.190 C 
HETATM    3  O   UNL     1       9.936  -0.177  21.441  1.00  0.00    -0.103 OA
HETATM    4  N   UNL     1       9.176  -0.991  22.147  1.00  0.00    -0.210 N 
HETATM    5  C   UNL     1       7.757  -0.240  20.663  1.00  0.00     0.174 A 
HETATM    6  O   UNL     1       8.901   0.344  20.488  1.00  0.00    -0.168 OA
ENDROOT
BRANCH   1   7
HETATM    7  N   UNL     1       6.980  -1.979  22.213  1.00  0.00    -0.262 N 
HETATM    8  N   UNL     1       5.798  -2.453  22.079  1.00  0.00    -0.206 N 
ATOM      9  HN  UNL     1       5.048  -2.037  22.631  1.00  0.00     0.216 HD
ATOM     10  HN  UNL     1       7.350  -2.400  23.065  1.00  0.00     0.190 HD
BRANCH   8  11
HETATM   11  O   UNL     1       5.509  -3.406  21.302  1.00  0.00    -0.270 OA
HETATM   12  C   UNL     1       6.088  -4.697  21.573  1.00  0.00     0.239 C 
ENDBRANCH   8  11
ENDBRANCH   1   7
BRANCH   5  13
HETATM   13  C   UNL     1       6.726   0.181  19.804  1.00  0.00     0.057 A 
HETATM   14  S   UNL     1       5.844   1.506  20.507  1.00  0.00    -0.106 SA
HETATM   15  C   UNL     1       4.730   1.568  19.037  1.00  0.00     0.199 A 
HETATM   16  N   UNL     1       5.066   0.482  18.219  1.00  0.00    -0.389 N 
HETATM   17  C   UNL     1       6.076  -0.220  18.652  1.00  0.00     0.105 A 
ATOM     18  HN  UNL     1       4.564   0.260  17.359  1.00  0.00     0.159 HD
ENDBRANCH   5  13
TORSDOF 3
ENDMDL
MODEL 3
REMARK VINA RESULT:    -5.390      1.798      2.070
REMARK INTER + INTRA:          -6.762
REMARK INTER:                  -6.390
REMARK INTRA:                  -0.372
REMARK UNBOUND:                -0.426
REMARK  3 active torsions:
REMARK  status: ('A' for Active; 'I' for Inactive)
REMARK    1  A    between atoms: N_2  and  O_4 
REMARK    2  A    between atoms: N_5  and  C_7 
REMARK    3  A    between atoms: C_11  and  C_13 
ROOT
HETATM    1  C   UNL     1       8.253  -1.088  21.568  1.00  0.00     0.184 A 
HETATM    2  C   UNL     1       6.331  -0.289  20.237  1.00  0.00     0.190 C 
HETATM    3  O   UNL     1       8.248   0.818  20.275  1.00  0.00    -0.103 OA
HETATM    4  N   UNL     1       7.695  -0.331  20.613  1.00  0.00    -0.210 N 
HETATM    5  C   UNL     1       9.524  -0.352  21.811  1.00  0.00     0.174 A 
HETATM    6  O   UNL     1       9.512   0.716  21.077  1.00  0.00    -0.168 OA
ENDROOT
BRANCH   1   7
HETATM    7  N   UNL     1       7.927  -2.190  22.128  1.00  0.00    -0.262 N 
HETATM    8  N   UNL     1       8.284  -3.324  22.603  1.00  0.00    -0.206 N 
ATOM      9  HN  UNL     1       8.155  -4.151  22.021  1.00  0.00     0.216 HD
ATOM     10  HN  UNL     1       6.916  -2.144  22.255  1.00  0.00     0.190 HD
BRANCH   8  11
HETATM   11  O   UNL     1       8.785  -3.476  23.753  1.00  0.00    -0.270 OA
HETATM   12  C   UNL     1       8.244  -4.513  24.594  1.00  0.00     0.239 C 
ENDBRANCH   8  11
ENDBRANCH   1   7
BRANCH   5  13
HETATM   13  C   UNL     1      10.672  -0.526  22.606  1.00  0.00     0.057 A 
HETATM   14  S   UNL     1      11.055   0.942  23.459  1.00  0.00    -0.106 SA
HETATM   15  C   UNL     1      12.525   0.133  24.227  1.00  0.00     0.199 A 
HETATM   16  N   UNL     1      12.646  -1.137  23.649  1.00  0.00    -0.389 N 
HETATM   17  C   UNL     1      11.695  -1.433  22.807  1.00  0.00     0.105 A 
ATOM     18  HN  UNL     1      13.411  -1.775  23.867  1.00  0.00     0.159 HD
ENDBRANCH   5  13
TORSDOF 3
ENDMDL
MODEL 4
REMARK VINA RESULT:    -5.274      1.980      3.828
REMARK INTER + INTRA:          -6.625
REMARK INTER:                  -6.272
REMARK INTRA:                  -0.353
REMARK UNBOUND:                -0.426
REMARK  3 active torsions:
REMARK  status: ('A' for Active; 'I' for Inactive)
REMARK    1  A    between atoms: N_2  and  O_4 
REMARK    2  A    between atoms: N_5  and  C_7 
REMARK    3  A    between atoms: C_11  and  C_13 
ROOT
HETATM    1  C   UNL     1       8.653  -1.381  22.014  1.00  0.00     0.184 A 
HETATM    2  C   UNL     1       6.435  -2.416  21.678  1.00  0.00     0.190 C 
HETATM    3  O   UNL     1       7.689  -2.919  23.431  1.00  0.00    -0.103 OA
HETATM    4  N   UNL     1       7.579  -2.063  22.433  1.00  0.00    -0.210 N 
HETATM    5  C   UNL     1       9.655  -1.759  23.048  1.00  0.00     0.174 A 
HETATM    6  O   UNL     1       9.102  -2.621  23.841  1.00  0.00    -0.168 OA
ENDROOT
BRANCH   1   7
HETATM    7  N   UNL     1       8.858  -0.549  21.066  1.00  0.00    -0.262 N 
HETATM    8  N   UNL     1       8.585  -0.151  19.880  1.00  0.00    -0.206 N 
ATOM      9  HN  UNL     1       9.220  -0.413  19.126  1.00  0.00     0.216 HD
ATOM     10  HN  UNL     1       9.567   0.096  21.415  1.00  0.00     0.190 HD
BRANCH   8  11
HETATM   11  O   UNL     1       7.573   0.548  19.590  1.00  0.00    -0.270 OA
HETATM   12  C   UNL     1       6.538  -0.059  18.794  1.00  0.00     0.239 C 
ENDBRANCH   8  11
ENDBRANCH   1   7
BRANCH   5  13
HETATM   13  C   UNL     1      10.988  -1.426  23.352  1.00  0.00     0.057 A 
HETATM   14  S   UNL     1      11.048  -0.055  24.423  1.00  0.00    -0.106 SA
HETATM   15  C   UNL     1      12.893  -0.111  24.419  1.00  0.00     0.199 A 
HETATM   16  N   UNL     1      13.274  -1.091  23.493  1.00  0.00    -0.389 N 
HETATM   17  C   UNL     1      12.275  -1.728  22.949  1.00  0.00     0.105 A 
ATOM     18  HN  UNL     1      14.248  -1.289  23.265  1.00  0.00     0.159 HD
ENDBRANCH   5  13
TORSDOF 3
ENDMDL
MODEL 5
REMARK VINA RESULT:    -5.177     17.008     18.941
REMARK INTER + INTRA:          -6.511
REMARK INTER:                  -6.168
REMARK INTRA:                  -0.344
REMARK UNBOUND:                -0.426
REMARK  3 active torsions:
REMARK  status: ('A' for Active; 'I' for Inactive)
REMARK    1  A    between atoms: N_2  and  O_4 
REMARK    2  A    between atoms: N_5  and  C_7 
REMARK    3  A    between atoms: C_11  and  C_13 
ROOT
HETATM    1  C   UNL     1      24.871  -0.064  12.763  1.00  0.00     0.184 A 
HETATM    2  C   UNL     1      26.318  -0.543  10.818  1.00  0.00     0.190 C 
HETATM    3  O   UNL     1      26.137  -1.970  12.501  1.00  0.00    -0.103 OA
HETATM    4  N   UNL     1      25.596  -0.882  11.988  1.00  0.00    -0.210 N 
HETATM    5  C   UNL     1      24.798  -0.854  14.023  1.00  0.00     0.174 A 
HETATM    6  O   UNL     1      25.510  -1.924  13.864  1.00  0.00    -0.168 OA
ENDROOT
BRANCH   1   7
HETATM    7  N   UNL     1      24.286   1.055  12.565  1.00  0.00    -0.262 N 
HETATM    8  N   UNL     1      24.277   2.199  11.990  1.00  0.00    -0.206 N 
ATOM      9  HN  UNL     1      24.576   3.011  12.530  1.00  0.00     0.216 HD
ATOM     10  HN  UNL     1      23.433   1.021  13.123  1.00  0.00     0.190 HD
BRANCH   8  11
HETATM   11  O   UNL     1      23.917   2.379  10.793  1.00  0.00    -0.270 OA
HETATM   12  C   UNL     1      24.855   2.998   9.892  1.00  0.00     0.239 C 
ENDBRANCH   8  11
ENDBRANCH   1   7
BRANCH   5  13
HETATM   13  C   UNL     1      24.177  -0.722  15.279  1.00  0.00     0.057 A 
HETATM   14  S   UNL     1      23.939  -2.283  16.012  1.00  0.00    -0.106 SA
HETATM   15  C   UNL     1      23.145  -1.492  17.479  1.00  0.00     0.199 A 
HETATM   16  N   UNL     1      23.026  -0.125  17.196  1.00  0.00    -0.389 N 
HETATM   17  C   UNL     1      23.543   0.231  16.054  1.00  0.00     0.105 A 
ATOM     18  HN  UNL     1      22.574   0.534  17.830  1.00  0.00     0.159 HD
ENDBRANCH   5  13
TORSDOF 3
ENDMDL
MODEL 6
REMARK VINA RESULT:    -5.077      3.658      5.602
REMARK INTER + INTRA:          -6.393
REMARK INTER:                  -6.038
REMARK INTRA:                  -0.355
REMARK UNBOUND:                -0.426
REMARK  3 active torsions:
REMARK  status: ('A' for Active; 'I' for Inactive)
REMARK    1  A    between atoms: N_2  and  O_4 
REMARK    2  A    between atoms: N_5  and  C_7 
REMARK    3  A    between atoms: C_11  and  C_13 
ROOT
HETATM    1  C   UNL     1      11.572  -0.576  23.158  1.00  0.00     0.184 A 
HETATM    2  C   UNL     1      13.616  -1.950  22.968  1.00  0.00     0.190 C 
HETATM    3  O   UNL     1      13.393  -0.428  24.560  1.00  0.00    -0.103 OA
HETATM    4  N   UNL     1      12.719  -1.081  23.633  1.00  0.00    -0.210 N 
HETATM    5  C   UNL     1      11.372   0.586  24.067  1.00  0.00     0.174 A 
HETATM    6  O   UNL     1      12.400   0.658  24.853  1.00  0.00    -0.168 OA
ENDROOT
BRANCH   1   7
HETATM    7  N   UNL     1      10.752  -0.943  22.249  1.00  0.00    -0.262 N 
HETATM    8  N   UNL     1       9.969  -1.841  21.779  1.00  0.00    -0.206 N 
ATOM      9  HN  UNL     1      10.311  -2.426  21.016  1.00  0.00     0.216 HD
ATOM     10  HN  UNL     1      10.695  -0.160  21.598  1.00  0.00     0.190 HD
BRANCH   8  11
HETATM   11  O   UNL     1       8.797  -2.042  22.205  1.00  0.00    -0.270 OA
HETATM   12  C   UNL     1       8.636  -2.867  23.374  1.00  0.00     0.239 C 
ENDBRANCH   8  11
ENDBRANCH   1   7
BRANCH   5  13
HETATM   13  C   UNL     1      10.390   1.574  24.265  1.00  0.00     0.057 A 
HETATM   14  S   UNL     1       8.960   0.884  24.977  1.00  0.00    -0.106 SA
HETATM   15  C   UNL     1       8.133   2.534  24.961  1.00  0.00     0.199 A 
HETATM   16  N   UNL     1       8.990   3.417  24.291  1.00  0.00    -0.389 N 
HETATM   17  C   UNL     1      10.125   2.888  23.929  1.00  0.00     0.105 A 
ATOM     18  HN  UNL     1       8.746   4.389  24.103  1.00  0.00     0.159 HD
ENDBRANCH   5  13
TORSDOF 3
ENDMDL
MODEL 7
REMARK VINA RESULT:    -5.006     21.674     23.289
REMARK INTER + INTRA:          -6.311
REMARK INTER:                  -5.951
REMARK INTRA:                  -0.359
REMARK UNBOUND:                -0.426
REMARK  3 active torsions:
REMARK  status: ('A' for Active; 'I' for Inactive)
REMARK    1  A    between atoms: N_2  and  O_4 
REMARK    2  A    between atoms: N_5  and  C_7 
REMARK    3  A    between atoms: C_11  and  C_13 
ROOT
HETATM    1  C   UNL     1       1.011 -17.841   8.388  1.00  0.00     0.184 A 
HETATM    2  C   UNL     1      -0.343 -16.216   9.665  1.00  0.00     0.190 C 
HETATM    3  O   UNL     1       0.818 -17.803  10.682  1.00  0.00    -0.103 OA
HETATM    4  N   UNL     1       0.653 -17.211   9.515  1.00  0.00    -0.210 N 
HETATM    5  C   UNL     1       1.691 -19.046   8.936  1.00  0.00     0.174 A 
HETATM    6  O   UNL     1       1.580 -19.013  10.227  1.00  0.00    -0.168 OA
ENDROOT
BRANCH   1   7
HETATM    7  N   UNL     1       0.925 -17.551   7.146  1.00  0.00    -0.262 N 
HETATM    8  N   UNL     1       0.189 -17.320   6.124  1.00  0.00    -0.206 N 
ATOM      9  HN  UNL     1       0.047 -18.074   5.453  1.00  0.00     0.216 HD
ATOM     10  HN  UNL     1       1.886 -17.463   6.817  1.00  0.00     0.190 HD
BRANCH   8  11
HETATM   11  O   UNL     1      -0.372 -16.210   5.900  1.00  0.00    -0.270 OA
HETATM   12  C   UNL     1      -1.761 -16.071   6.253  1.00  0.00     0.239 C 
ENDBRANCH   8  11
ENDBRANCH   1   7
BRANCH   5  13
HETATM   13  C   UNL     1       2.385 -20.155   8.418  1.00  0.00     0.057 A 
HETATM   14  S   UNL     1       1.647 -21.641   8.943  1.00  0.00    -0.106 SA
HETATM   15  C   UNL     1       2.918 -22.617   8.028  1.00  0.00     0.199 A 
HETATM   16  N   UNL     1       3.853 -21.705   7.523  1.00  0.00    -0.389 N 
HETATM   17  C   UNL     1       3.563 -20.456   7.760  1.00  0.00     0.105 A 
ATOM     18  HN  UNL     1       4.689 -21.992   7.014  1.00  0.00     0.159 HD
ENDBRANCH   5  13
TORSDOF 3
ENDMDL
MODEL 8
REMARK VINA RESULT:    -4.974      2.999      3.718
REMARK INTER + INTRA:          -6.273
REMARK INTER:                  -5.867
REMARK INTRA:                  -0.406
REMARK UNBOUND:                -0.426
REMARK  3 active torsions:
REMARK  status: ('A' for Active; 'I' for Inactive)
REMARK    1  A    between atoms: N_2  and  O_4 
REMARK    2  A    between atoms: N_5  and  C_7 
REMARK    3  A    between atoms: C_11  and  C_13 
ROOT
HETATM    1  C   UNL     1       7.835  -1.807  22.288  1.00  0.00     0.184 A 
HETATM    2  C   UNL     1       8.615   0.009  20.807  1.00  0.00     0.190 C 
HETATM    3  O   UNL     1      10.029  -1.152  22.053  1.00  0.00    -0.103 OA
HETATM    4  N   UNL     1       8.783  -1.137  21.621  1.00  0.00    -0.210 N 
HETATM    5  C   UNL     1       8.654  -2.540  23.293  1.00  0.00     0.174 A 
HETATM    6  O   UNL     1       9.886  -2.166  23.150  1.00  0.00    -0.168 OA
ENDROOT
BRANCH   1   7
HETATM    7  N   UNL     1       6.571  -1.931  22.145  1.00  0.00    -0.262 N 
HETATM    8  N   UNL     1       5.585  -2.516  21.574  1.00  0.00    -0.206 N 
ATOM      9  HN  UNL     1       5.131  -2.042  20.793  1.00  0.00     0.216 HD
ATOM     10  HN  UNL     1       6.155  -1.248  22.779  1.00  0.00     0.190 HD
BRANCH   8  11
HETATM   11  O   UNL     1       5.144  -3.647  21.922  1.00  0.00    -0.270 OA
HETATM   12  C   UNL     1       4.799  -3.840  23.307  1.00  0.00     0.239 C 
ENDBRANCH   8  11
ENDBRANCH   1   7
BRANCH   5  13
HETATM   13  C   UNL     1       8.424  -3.486  24.308  1.00  0.00     0.057 A 
HETATM   14  S   UNL     1       8.471  -2.729  25.875  1.00  0.00    -0.106 SA
HETATM   15  C   UNL     1       8.149  -4.353  26.689  1.00  0.00     0.199 A 
HETATM   16  N   UNL     1       8.169  -5.330  25.685  1.00  0.00    -0.389 N 
HETATM   17  C   UNL     1       8.335  -4.855  24.482  1.00  0.00     0.105 A 
ATOM     18  HN  UNL     1       8.063  -6.325  25.878  1.00  0.00     0.159 HD
ENDBRANCH   5  13
TORSDOF 3
ENDMDL
MODEL 9
REMARK VINA RESULT:    -4.889      5.322      7.392
REMARK INTER + INTRA:          -6.172
REMARK INTER:                  -5.849
REMARK INTRA:                  -0.324
REMARK UNBOUND:                -0.426
REMARK  3 active torsions:
REMARK  status: ('A' for Active; 'I' for Inactive)
REMARK    1  A    between atoms: N_2  and  O_4 
REMARK    2  A    between atoms: N_5  and  C_7 
REMARK    3  A    between atoms: C_11  and  C_13 
ROOT
HETATM    1  C   UNL     1       5.883  -5.914  26.540  1.00  0.00     0.184 A 
HETATM    2  C   UNL     1       5.295  -7.162  28.589  1.00  0.00     0.190 C 
HETATM    3  O   UNL     1       7.111  -5.899  28.488  1.00  0.00    -0.103 OA
HETATM    4  N   UNL     1       5.990  -6.175  27.850  1.00  0.00    -0.210 N 
HETATM    5  C   UNL     1       7.151  -5.176  26.290  1.00  0.00     0.174 A 
HETATM    6  O   UNL     1       7.833  -5.171  27.392  1.00  0.00    -0.168 OA
ENDROOT
BRANCH   1   7
HETATM    7  N   UNL     1       4.969  -6.114  25.669  1.00  0.00    -0.262 N 
HETATM    8  N   UNL     1       4.525  -6.805  24.687  1.00  0.00    -0.206 N 
ATOM      9  HN  UNL     1       4.659  -6.441  23.743  1.00  0.00     0.216 HD
ATOM     10  HN  UNL     1       4.272  -5.387  25.831  1.00  0.00     0.190 HD
BRANCH   8  11
HETATM   11  O   UNL     1       3.931  -7.912  24.820  1.00  0.00    -0.270 OA
HETATM   12  C   UNL     1       2.505  -7.893  25.018  1.00  0.00     0.239 C 
ENDBRANCH   8  11
ENDBRANCH   1   7
BRANCH   5  13
HETATM   13  C   UNL     1       7.758  -4.520  25.202  1.00  0.00     0.057 A 
HETATM   14  S   UNL     1       8.413  -2.986  25.698  1.00  0.00    -0.106 SA
HETATM   15  C   UNL     1       8.992  -2.657  23.977  1.00  0.00     0.199 A 
HETATM   16  N   UNL     1       8.508  -3.697  23.173  1.00  0.00    -0.389 N 
HETATM   17  C   UNL     1       7.862  -4.621  23.828  1.00  0.00     0.105 A 
ATOM     18  HN  UNL     1       8.649  -3.729  22.164  1.00  0.00     0.159 HD
ENDBRANCH   5  13
TORSDOF 3
ENDMDL
