stable:False satoms:7 tatoms:24 sratio:0.2916666666666667
  -OEChem-08062416083D

 47 47  0     1  0  0  0  0  0999 V2000
   -6.2561   -5.1154  -26.1566 C   0  0  0  0  0  0  0  0  0  0  0  0
   -7.8343   -4.5784  -26.0223 S   0  0  0  0  0  0  0  0  0  0  0  0
   -8.6964   -5.7331  -25.9977 O   0  0  0  0  0  0  0  0  0  0  0  0
   -8.1506   -3.7060  -27.1403 O   0  0  0  0  0  0  0  0  0  0  0  0
   -7.9217   -3.7620  -24.6021 N   0  0  0  0  0  0  0  0  0  0  0  0
   -8.8321   -3.1248  -24.2240 C   0  0  0  0  0  0  0  0  0  0  0  0
   -9.3596   -2.1172  -23.6655 C   0  0  0  0  0  0  0  0  0  0  0  0
  -10.2747   -1.2511  -23.6129 C   0  0  2  0  0  0  0  0  0  0  0  0
  -10.9113   -0.2769  -24.7755 C   0  0  0  0  0  0  0  0  0  0  0  0
  -11.9692   -0.0094  -24.7444 C   0  0  0  0  0  0  0  0  0  0  0  0
  -13.1172   -0.3342  -24.1228 C   0  0  0  0  0  0  0  0  0  0  0  0
  -12.7190   -1.5119  -23.1606 C   0  0  0  0  0  0  0  0  0  0  0  0
  -11.8465   -1.9340  -22.9017 C   0  0  0  0  0  0  0  0  0  0  0  0
   -9.8105   -0.6585  -22.6478 C   0  0  0  0  0  0  0  0  0  0  0  0
   -9.2430   -0.0042  -21.6395 C   0  0  0  0  0  0  0  0  0  0  0  0
   -9.7810    0.9435  -21.3098 O   0  0  0  0  0  0  0  0  0  0  0  0
   -8.1419   -0.5829  -21.1856 N   0  0  0  0  0  0  0  0  0  0  0  0
   -7.4811   -0.0556  -20.2588 C   0  0  0  0  0  0  0  0  0  0  0  0
   -7.6771    0.1087  -18.9426 C   0  0  0  0  0  0  0  0  0  0  0  0
   -7.3833    0.4835  -17.8401 N   0  0  0  0  0  0  0  0  0  0  0  0
   -6.1123    1.1187  -18.2265 C   0  0  0  0  0  0  0  0  0  0  0  0
   -5.6569    1.1047  -19.3399 C   0  0  0  0  0  0  0  0  0  0  0  0
   -6.1061    0.6144  -20.5240 C   0  0  0  0  0  0  0  0  0  0  0  0
   -5.4414    0.6773  -21.8948 C   0  0  0  0  0  0  0  0  0  0  0  0
   -6.1370   -5.6738  -27.0968 H   0  0  0  0  0  0  0  0  0  0  0  0
   -5.5738   -4.2526  -26.1538 H   0  0  0  0  0  0  0  0  0  0  0  0
   -6.0192   -5.7730  -25.3072 H   0  0  0  0  0  0  0  0  0  0  0  0
   -7.1477   -3.1290  -24.6165 H   0  0  0  0  0  0  0  0  0  0  0  0
   -9.6852   -3.7240  -24.5059 H   0  0  0  0  0  0  0  0  0  0  0  0
   -8.7127   -1.8905  -22.8309 H   0  0  0  0  0  0  0  0  0  0  0  0
  -11.1659   -1.7819  -23.2470 H   0  0  0  0  0  0  0  0  0  0  0  0
  -10.2827    0.0980  -25.5697 H   0  0  0  0  0  0  0  0  0  0  0  0
  -12.1580    0.7844  -25.4518 H   0  0  0  0  0  0  0  0  0  0  0  0
  -13.8741   -0.6640  -24.8497 H   0  0  0  0  0  0  0  0  0  0  0  0
  -13.5062    0.5213  -23.5511 H   0  0  0  0  0  0  0  0  0  0  0  0
  -13.5692   -1.9649  -22.6725 H   0  0  0  0  0  0  0  0  0  0  0  0
  -11.8309   -2.7550  -22.2001 H   0  0  0  0  0  0  0  0  0  0  0  0
  -10.9227   -1.5674  -23.3244 H   0  0  0  0  0  0  0  0  0  0  0  0
  -10.0135   -1.5218  -21.9971 H   0  0  0  0  0  0  0  0  0  0  0  0
  -10.6723    0.0249  -22.6299 H   0  0  0  0  0  0  0  0  0  0  0  0
   -7.8347   -1.4468  -21.5848 H   0  0  0  0  0  0  0  0  0  0  0  0
   -8.6386   -0.3576  -18.7861 H   0  0  0  0  0  0  0  0  0  0  0  0
   -5.5513    1.6313  -17.4590 H   0  0  0  0  0  0  0  0  0  0  0  0
   -4.6903    1.5808  -19.4129 H   0  0  0  0  0  0  0  0  0  0  0  0
   -4.8042   -0.2083  -22.0348 H   0  0  0  0  0  0  0  0  0  0  0  0
   -6.2150    0.6996  -22.6765 H   0  0  0  0  0  0  0  0  0  0  0  0
   -4.8257    1.5863  -21.9622 H   0  0  0  0  0  0  0  0  0  0  0  0
 20 21  2  0  0  0  0
 19 20  1  0  0  0  0
 21 22  1  0  0  0  0
 18 19  2  0  0  0  0
 22 23  2  0  0  0  0
 18 23  1  0  0  0  0
 17 18  1  0  0  0  0
 23 24  1  0  0  0  0
 15 16  2  0  0  0  0
 15 17  1  0  0  0  0
 14 15  1  0  0  0  0
  8 14  1  0  0  0  0
 12 13  2  0  0  0  0
 11 12  1  0  0  0  0
  7  8  1  0  0  0  0
  8  9  1  0  0  0  0
 10 11  1  0  0  0  0
  6  7  2  3  0  0  0
  5  6  1  0  0  0  0
  9 10  2  0  0  0  0
  2  5  1  0  0  0  0
  2  3  2  0  0  0  0
  1  2  1  0  0  0  0
  2  4  2  0  0  0  0
  1 25  1  0  0  0  0
  1 26  1  0  0  0  0
  1 27  1  0  0  0  0
  5 28  1  0  0  0  0
  6 29  1  0  0  0  0
  7 30  1  0  0  0  0
  8 31  1  0  0  0  0
  9 32  1  0  0  0  0
 10 33  1  0  0  0  0
 11 34  1  0  0  0  0
 11 35  1  0  0  0  0
 12 36  1  0  0  0  0
 13 37  1  0  0  0  0
 13 38  1  0  0  0  0
 14 39  1  0  0  0  0
 14 40  1  0  0  0  0
 17 41  1  0  0  0  0
 19 42  1  0  0  0  0
 21 43  1  0  0  0  0
 22 44  1  0  0  0  0
 24 45  1  0  0  0  0
 24 46  1  0  0  0  0
 24 47  1  0  0  0  0
M  END
> <Chemgauss4>
-13.003959

$$$$
