stable:False satoms:7 tatoms:24 sratio:0.2916666666666667
  -OEChem-08062416083D

 47 47  0     1  0  0  0  0  0999 V2000
    6.1231   -5.2691   26.0572 C   0  0  0  0  0  0  0  0  0  0  0  0
    7.7012   -4.7321   25.9229 S   0  0  0  0  0  0  0  0  0  0  0  0
    8.5634   -5.8867   25.8983 O   0  0  0  0  0  0  0  0  0  0  0  0
    8.0175   -3.8597   27.0409 O   0  0  0  0  0  0  0  0  0  0  0  0
    7.7886   -3.9157   24.5027 N   0  0  0  0  0  0  0  0  0  0  0  0
    8.6990   -3.2785   24.1246 C   0  0  0  0  0  0  0  0  0  0  0  0
    9.2265   -2.2709   23.5661 C   0  0  0  0  0  0  0  0  0  0  0  0
   10.1416   -1.4048   23.5135 C   0  0  2  0  0  0  0  0  0  0  0  0
   10.7783   -0.4306   24.6762 C   0  0  0  0  0  0  0  0  0  0  0  0
   11.8361   -0.1631   24.6450 C   0  0  0  0  0  0  0  0  0  0  0  0
   12.9842   -0.4879   24.0234 C   0  0  0  0  0  0  0  0  0  0  0  0
   12.5859   -1.6656   23.0613 C   0  0  0  0  0  0  0  0  0  0  0  0
   11.7134   -2.0877   22.8023 C   0  0  0  0  0  0  0  0  0  0  0  0
    9.6774   -0.8122   22.5484 C   0  0  0  0  0  0  0  0  0  0  0  0
    9.1099   -0.1579   21.5401 C   0  0  0  0  0  0  0  0  0  0  0  0
    9.6480    0.7898   21.2105 O   0  0  0  0  0  0  0  0  0  0  0  0
    8.0088   -0.7366   21.0863 N   0  0  0  0  0  0  0  0  0  0  0  0
    7.3481   -0.2093   20.1594 C   0  0  0  0  0  0  0  0  0  0  0  0
    7.5441   -0.0450   18.8433 C   0  0  0  0  0  0  0  0  0  0  0  0
    7.2502    0.3298   17.7408 N   0  0  0  0  0  0  0  0  0  0  0  0
    5.9792    0.9650   18.1271 C   0  0  0  0  0  0  0  0  0  0  0  0
    5.5239    0.9510   19.2405 C   0  0  0  0  0  0  0  0  0  0  0  0
    5.9730    0.4607   20.4246 C   0  0  0  0  0  0  0  0  0  0  0  0
    5.3084    0.5236   21.7954 C   0  0  0  0  0  0  0  0  0  0  0  0
    6.0040   -5.8275   26.9974 H   0  0  0  0  0  0  0  0  0  0  0  0
    5.4408   -4.4062   26.0544 H   0  0  0  0  0  0  0  0  0  0  0  0
    5.8861   -5.9267   25.2078 H   0  0  0  0  0  0  0  0  0  0  0  0
    7.0146   -3.2826   24.5171 H   0  0  0  0  0  0  0  0  0  0  0  0
    9.5522   -3.8777   24.4066 H   0  0  0  0  0  0  0  0  0  0  0  0
    8.5797   -2.0442   22.7315 H   0  0  0  0  0  0  0  0  0  0  0  0
   11.0329   -1.9356   23.1476 H   0  0  0  0  0  0  0  0  0  0  0  0
   10.1496   -0.0557   25.4703 H   0  0  0  0  0  0  0  0  0  0  0  0
   12.0250    0.6307   25.3525 H   0  0  0  0  0  0  0  0  0  0  0  0
   13.7410   -0.8176   24.7504 H   0  0  0  0  0  0  0  0  0  0  0  0
   13.3731    0.3676   23.4517 H   0  0  0  0  0  0  0  0  0  0  0  0
   13.4361   -2.1186   22.5731 H   0  0  0  0  0  0  0  0  0  0  0  0
   11.6979   -2.9087   22.1008 H   0  0  0  0  0  0  0  0  0  0  0  0
   10.7897   -1.7211   23.2251 H   0  0  0  0  0  0  0  0  0  0  0  0
    9.8805   -1.6755   21.8977 H   0  0  0  0  0  0  0  0  0  0  0  0
   10.5392   -0.1288   22.5306 H   0  0  0  0  0  0  0  0  0  0  0  0
    7.7017   -1.6005   21.4854 H   0  0  0  0  0  0  0  0  0  0  0  0
    8.5055   -0.5113   18.6867 H   0  0  0  0  0  0  0  0  0  0  0  0
    5.4183    1.4776   17.3596 H   0  0  0  0  0  0  0  0  0  0  0  0
    4.5572    1.4271   19.3135 H   0  0  0  0  0  0  0  0  0  0  0  0
    4.6711   -0.3620   21.9354 H   0  0  0  0  0  0  0  0  0  0  0  0
    6.0819    0.5459   22.5772 H   0  0  0  0  0  0  0  0  0  0  0  0
    4.6926    1.4326   21.8629 H   0  0  0  0  0  0  0  0  0  0  0  0
 20 21  2  0  0  0  0
 19 20  1  0  0  0  0
 21 22  1  0  0  0  0
 18 19  2  0  0  0  0
 22 23  2  0  0  0  0
 18 23  1  0  0  0  0
 17 18  1  0  0  0  0
 23 24  1  0  0  0  0
 15 16  2  0  0  0  0
 15 17  1  0  0  0  0
 14 15  1  0  0  0  0
  8 14  1  0  0  0  0
 12 13  2  0  0  0  0
 11 12  1  0  0  0  0
  7  8  1  0  0  0  0
  8  9  1  0  0  0  0
 10 11  1  0  0  0  0
  6  7  2  3  0  0  0
  5  6  1  0  0  0  0
  9 10  2  0  0  0  0
  2  5  1  0  0  0  0
  2  3  2  0  0  0  0
  1  2  1  0  0  0  0
  2  4  2  0  0  0  0
  1 25  1  0  0  0  0
  1 26  1  0  0  0  0
  1 27  1  0  0  0  0
  5 28  1  0  0  0  0
  6 29  1  0  0  0  0
  7 30  1  0  0  0  0
  8 31  1  0  0  0  0
  9 32  1  0  0  0  0
 10 33  1  0  0  0  0
 11 34  1  0  0  0  0
 11 35  1  0  0  0  0
 12 36  1  0  0  0  0
 13 37  1  0  0  0  0
 13 38  1  0  0  0  0
 14 39  1  0  0  0  0
 14 40  1  0  0  0  0
 17 41  1  0  0  0  0
 19 42  1  0  0  0  0
 21 43  1  0  0  0  0
 22 44  1  0  0  0  0
 24 45  1  0  0  0  0
 24 46  1  0  0  0  0
 24 47  1  0  0  0  0
M  END
> <Chemgauss4>
-12.802654

$$$$
