stable:False satoms:17 tatoms:24 sratio:0.7083333333333334
  -OEChem-08062407533D

 28 29  0     1  0  0  0  0  0999 V2000
    7.2789   -0.2325   27.6254 H   0  0  0  0  0  0  0  0  0  0  0  0
    7.9914   -0.8113   27.0281 C   0  0  0  0  0  0  0  0  0  0  0  0
    7.4329   -1.5054   26.3802 H   0  0  0  0  0  0  0  0  0  0  0  0
    8.6213   -1.4120   27.7054 H   0  0  0  0  0  0  0  0  0  0  0  0
    8.7762    0.1024   26.2815 N   0  3  0  0  0  0  0  0  0  0  0  0
    9.6914    0.0205   25.5534 C   0  0  0  0  0  0  0  0  0  0  0  0
   10.7727    0.2108   24.8777 C   0  0  0  0  0  0  0  0  0  0  0  0
   11.9424   -0.3151   24.3938 C   0  0  1  0  0  0  0  0  0  0  0  0
   12.5692   -0.7057   25.2056 H   0  0  0  0  0  0  0  0  0  0  0  0
   13.8846   -1.8284   24.1163 H   0  0  0  0  0  0  0  0  0  0  0  0
   13.8160   -2.0226   22.3297 H   0  0  0  0  0  0  0  0  0  0  0  0
   13.3308   -1.6328   23.1868 C   0  0  0  0  0  0  0  0  0  0  0  0
   12.3003   -1.0012   23.2733 C   0  0  0  0  0  0  0  0  0  0  0  0
   11.5490    1.3019   24.1691 C   0  0  3  0  0  0  0  0  0  0  0  0
   12.3068    3.1570   23.4862 N   0  0  0  0  0  0  0  0  0  0  0  0
   11.3305    2.4530   23.9934 N   0  0  0  0  0  0  0  0  0  0  0  0
   12.0937    4.5352   23.5293 C   0  0  0  0  0  0  0  0  0  0  0  0
   11.9299    5.4518   22.7755 C   0  0  0  0  0  0  0  0  0  0  0  0
   11.7334    5.7445   21.7723 H   0  0  0  0  0  0  0  0  0  0  0  0
   12.1516    7.5874   23.8083 H   0  0  0  0  0  0  0  0  0  0  0  0
   12.0954    6.5429   24.0463 C   0  0  0  0  0  0  0  0  0  0  0  0
   12.0914    5.6032   24.7938 C   0  0  0  0  0  0  0  0  0  0  0  0
   12.1143    5.3645   25.8523 H   0  0  0  0  0  0  0  0  0  0  0  0
    9.1131    0.7270   26.9861 H   0  0  0  0  0  0  0  0  0  0  0  0
    9.4354   -0.9378   25.1263 H   0  0  0  0  0  0  0  0  0  0  0  0
   11.6351   -0.9816   22.4227 H   0  0  0  0  0  0  0  0  0  0  0  0
   11.0460    1.0538   23.2228 H   0  0  0  0  0  0  0  0  0  0  0  0
    8.0926    0.5697   25.7209 H   0  0  0  0  0  0  0  0  0  0  0  0
 18 19  1  0  0  0  0
 20 21  1  0  0  0  0
 18 21  2  0  0  0  0
 17 18  1  0  0  0  0
 21 22  1  0  0  0  0
 17 22  2  0  0  0  0
 15 17  1  0  0  0  0
 22 23  1  0  0  0  0
 15 16  2  0  0  0  0
 14 16  1  0  0  0  0
  8 14  1  0  0  0  0
  7 14  1  0  0  0  0
 11 12  1  0  0  0  0
 12 13  2  0  0  0  0
  8 13  1  0  0  0  0
 10 12  1  0  0  0  0
  7  8  1  0  0  0  0
  8  9  1  0  0  0  0
  6  7  2  3  0  0  0
  5  6  1  0  0  0  0
  2  5  1  0  0  0  0
  2  3  1  0  0  0  0
  1  2  1  0  0  0  0
  2  4  1  0  0  0  0
  5 24  1  0  0  0  0
  6 25  1  0  0  0  0
 13 26  1  0  0  0  0
 14 27  1  0  0  0  0
  5 28  1  0  0  0  0
M  CHG  1   5   1
M  END
> <Chemgauss4>
-7.675828

$$$$
