stable:False satoms:17 tatoms:24 sratio:0.7083333333333334
  -OEChem-08062407533D

 28 29  0     1  0  0  0  0  0999 V2000
   -7.6807   -0.6635  -28.1362 H   0  0  0  0  0  0  0  0  0  0  0  0
   -8.2786   -1.2130  -27.4014 C   0  0  0  0  0  0  0  0  0  0  0  0
   -7.6110   -1.8601  -26.8104 H   0  0  0  0  0  0  0  0  0  0  0  0
   -8.9942   -1.8609  -27.9348 H   0  0  0  0  0  0  0  0  0  0  0  0
   -8.9554   -0.2647  -26.5949 N   0  3  0  0  0  0  0  0  0  0  0  0
   -9.7433   -0.3126  -25.7280 C   0  0  0  0  0  0  0  0  0  0  0  0
  -10.7090   -0.0940  -24.9025 C   0  0  0  0  0  0  0  0  0  0  0  0
  -11.7773   -0.6028  -24.2104 C   0  0  1  0  0  0  0  0  0  0  0  0
  -12.5153   -1.0491  -24.8890 H   0  0  0  0  0  0  0  0  0  0  0  0
  -13.6200   -2.1185  -23.5425 H   0  0  0  0  0  0  0  0  0  0  0  0
  -13.2682   -2.2030  -21.7808 H   0  0  0  0  0  0  0  0  0  0  0  0
  -12.9315   -1.8606  -22.7249 C   0  0  0  0  0  0  0  0  0  0  0  0
  -11.9407   -1.2237  -23.0095 C   0  0  0  0  0  0  0  0  0  0  0  0
  -11.3872    1.0292  -24.1450 C   0  0  3  0  0  0  0  0  0  0  0  0
  -12.0671    2.9136  -23.4602 N   0  0  0  0  0  0  0  0  0  0  0  0
  -11.1679    2.1913  -24.0732 N   0  0  0  0  0  0  0  0  0  0  0  0
  -11.8921    4.2890  -23.6165 C   0  0  0  0  0  0  0  0  0  0  0  0
  -11.6313    5.2515  -22.9526 C   0  0  0  0  0  0  0  0  0  0  0  0
  -11.2861    5.6068  -22.0117 H   0  0  0  0  0  0  0  0  0  0  0  0
  -12.0565    7.3178  -24.0599 H   0  0  0  0  0  0  0  0  0  0  0  0
  -12.0166    6.2614  -24.2426 C   0  0  0  0  0  0  0  0  0  0  0  0
  -12.1103    5.2782  -24.9255 C   0  0  0  0  0  0  0  0  0  0  0  0
  -12.2938    4.9754  -25.9515 H   0  0  0  0  0  0  0  0  0  0  0  0
   -9.4115    0.3121  -27.2726 H   0  0  0  0  0  0  0  0  0  0  0  0
   -9.4037   -1.2403  -25.2916 H   0  0  0  0  0  0  0  0  0  0  0  0
  -11.1510   -1.1448  -22.2770 H   0  0  0  0  0  0  0  0  0  0  0  0
  -10.7370    0.8448  -23.2771 H   0  0  0  0  0  0  0  0  0  0  0  0
   -8.2023    0.2436  -26.1772 H   0  0  0  0  0  0  0  0  0  0  0  0
 18 19  1  0  0  0  0
 20 21  1  0  0  0  0
 18 21  2  0  0  0  0
 17 18  1  0  0  0  0
 21 22  1  0  0  0  0
 17 22  2  0  0  0  0
 15 17  1  0  0  0  0
 22 23  1  0  0  0  0
 15 16  2  0  0  0  0
 14 16  1  0  0  0  0
  8 14  1  0  0  0  0
  7 14  1  0  0  0  0
 11 12  1  0  0  0  0
 12 13  2  0  0  0  0
  8 13  1  0  0  0  0
 10 12  1  0  0  0  0
  7  8  1  0  0  0  0
  8  9  1  0  0  0  0
  6  7  2  3  0  0  0
  5  6  1  0  0  0  0
  2  5  1  0  0  0  0
  2  3  1  0  0  0  0
  1  2  1  0  0  0  0
  2  4  1  0  0  0  0
  5 24  1  0  0  0  0
  6 25  1  0  0  0  0
 13 26  1  0  0  0  0
 14 27  1  0  0  0  0
  5 28  1  0  0  0  0
M  CHG  1   5   1
M  END
> <Chemgauss4>
-7.229049

$$$$
