stable:False satoms:12 tatoms:24 sratio:0.5
  -OEChem-07092417503D

 24 25  0     1  0  0  0  0  0999 V2000
    6.6057   -4.8484   26.4483 C   0  0  0  0  0  0  0  0  0  0  0  0
    8.1953   -4.3197   26.1129 S   0  0  0  0  0  0  0  0  0  0  0  0
    9.0757   -5.4674   26.0169 O   0  0  0  0  0  0  0  0  0  0  0  0
    8.5664   -3.4647   27.1830 O   0  0  0  0  0  0  0  0  0  0  0  0
    8.0674   -3.5889   24.6730 N   0  0  0  0  0  0  0  0  0  0  0  0
    9.0156   -2.9538   24.1428 C   0  0  0  0  0  0  0  0  0  0  0  0
    9.4373   -1.9717   23.4860 C   0  0  0  0  0  0  0  0  0  0  0  0
   10.3351   -1.0742   23.3037 C   0  0  2  0  0  0  0  0  0  0  0  0
   11.0300   -0.0344   24.3153 C   0  0  0  0  0  0  0  0  0  0  0  0
   12.1233    0.2830   24.2345 C   0  0  0  0  0  0  0  0  0  0  0  0
   13.1494   -0.0813   23.5359 C   0  0  0  0  0  0  0  0  0  0  0  0
   12.7164   -1.3392   22.5772 C   0  0  0  0  0  0  0  0  0  0  0  0
   11.8666   -1.7303   22.4902 C   0  0  0  0  0  0  0  0  0  0  0  0
    9.7437   -0.6441   22.4093 C   0  0  2  0  0  0  0  0  0  0  0  0
    9.0515    0.0348   21.3950 C   0  0  0  0  0  0  0  0  0  0  0  0
    9.4977    1.0338   20.9751 O   0  0  0  0  0  0  0  0  0  0  0  0
    7.9508   -0.5745   21.0751 N   0  0  0  0  0  0  0  0  0  0  0  0
    7.1887   -0.0725   20.1625 C   0  0  0  0  0  0  0  0  0  0  0  0
    7.2348    0.0134   18.8861 C   0  0  0  0  0  0  0  0  0  0  0  0
    6.7596    0.3242   17.7776 N   0  0  0  0  0  0  0  0  0  0  0  0
    5.6314    0.8745   18.2056 C   0  0  0  0  0  0  0  0  0  0  0  0
    5.2395    0.9779   19.3908 C   0  0  0  0  0  0  0  0  0  0  0  0
    5.8062    0.5962   20.5207 C   0  0  0  0  0  0  0  0  0  0  0  0
    5.2960    0.7372   21.9792 C   0  0  0  0  0  0  0  0  0  0  0  0
 20 21  2  0  0  0  0
 19 20  1  0  0  0  0
 21 22  1  0  0  0  0
 18 19  2  0  0  0  0
 22 23  2  0  0  0  0
 18 23  1  0  0  0  0
 17 18  1  0  0  0  0
 23 24  1  0  0  0  0
 15 16  2  0  0  0  0
 15 17  1  0  0  0  0
 14 15  1  0  0  0  0
  8 14  1  0  0  0  0
  7 14  1  0  0  0  0
 12 13  2  0  0  0  0
 11 12  1  0  0  0  0
  7  8  1  0  0  0  0
  8  9  1  0  0  0  0
  6  7  2  3  0  0  0
 10 11  1  0  0  0  0
  5  6  1  0  0  0  0
  9 10  2  0  0  0  0
  2  5  1  0  0  0  0
  2  3  2  0  0  0  0
  1  2  1  0  0  0  0
  2  4  2  0  0  0  0
M  END
> <Shapegauss>
-285.774017

$$$$
