stable:False satoms:12 tatoms:24 sratio:0.5
  -OEChem-08062416463D

 45 46  0     1  0  0  0  0  0999 V2000
   -6.0281   -5.3440  -25.7855 C   0  0  0  0  0  0  0  0  0  0  0  0
   -7.6491   -4.8148  -25.6802 S   0  0  0  0  0  0  0  0  0  0  0  0
   -8.5272   -5.9644  -25.5858 O   0  0  0  0  0  0  0  0  0  0  0  0
   -7.9006   -4.0605  -26.8556 O   0  0  0  0  0  0  0  0  0  0  0  0
   -7.6920   -3.9617  -24.3039 N   0  0  0  0  0  0  0  0  0  0  0  0
   -8.6989   -3.2993  -23.9420 C   0  0  0  0  0  0  0  0  0  0  0  0
   -9.1995   -2.2718  -23.4250 C   0  0  0  0  0  0  0  0  0  0  0  0
  -10.1181   -1.3768  -23.4245 C   0  0  2  0  0  0  0  0  0  0  0  0
  -10.6992   -0.4388  -24.5949 C   0  0  0  0  0  0  0  0  0  0  0  0
  -11.7966   -0.1336  -24.6667 C   0  0  0  0  0  0  0  0  0  0  0  0
  -12.8937   -0.4537  -24.0604 C   0  0  0  0  0  0  0  0  0  0  0  0
  -12.5653   -1.6179  -22.9533 C   0  0  0  0  0  0  0  0  0  0  0  0
  -11.7285   -1.9861  -22.7366 C   0  0  0  0  0  0  0  0  0  0  0  0
   -9.6361   -0.8623  -22.5093 C   0  0  2  0  0  0  0  0  0  0  0  0
   -9.0692   -0.0880  -21.4856 C   0  0  0  0  0  0  0  0  0  0  0  0
   -9.5672    0.9357  -21.2074 O   0  0  0  0  0  0  0  0  0  0  0  0
   -8.0085   -0.6496  -20.9910 N   0  0  0  0  0  0  0  0  0  0  0  0
   -7.3594   -0.0591  -20.0447 C   0  0  0  0  0  0  0  0  0  0  0  0
   -7.5522    0.1347  -18.7941 C   0  0  0  0  0  0  0  0  0  0  0  0
   -7.2093    0.5467  -17.6699 N   0  0  0  0  0  0  0  0  0  0  0  0
   -6.0431    1.0769  -18.0129 C   0  0  0  0  0  0  0  0  0  0  0  0
   -5.5185    1.0852  -19.1503 C   0  0  0  0  0  0  0  0  0  0  0  0
   -5.9494    0.5992  -20.3000 C   0  0  0  0  0  0  0  0  0  0  0  0
   -5.2762    0.6235  -21.6977 C   0  0  0  0  0  0  0  0  0  0  0  0
   -5.8954   -5.9407  -26.7000 H   0  0  0  0  0  0  0  0  0  0  0  0
   -5.3589   -4.4715  -25.8169 H   0  0  0  0  0  0  0  0  0  0  0  0
   -5.7860   -5.9605  -24.9073 H   0  0  0  0  0  0  0  0  0  0  0  0
   -6.9373   -3.3080  -24.3606 H   0  0  0  0  0  0  0  0  0  0  0  0
   -9.5450   -3.9169  -24.2047 H   0  0  0  0  0  0  0  0  0  0  0  0
  -11.0234   -1.8894  -23.0671 H   0  0  0  0  0  0  0  0  0  0  0  0
  -10.0165   -0.0796  -25.3507 H   0  0  0  0  0  0  0  0  0  0  0  0
  -11.9604    0.6090  -25.4336 H   0  0  0  0  0  0  0  0  0  0  0  0
  -13.6227   -0.8337  -24.7912 H   0  0  0  0  0  0  0  0  0  0  0  0
  -13.3083    0.4308  -23.5548 H   0  0  0  0  0  0  0  0  0  0  0  0
  -13.4120   -2.0079  -22.4080 H   0  0  0  0  0  0  0  0  0  0  0  0
  -11.6558   -2.7538  -21.9804 H   0  0  0  0  0  0  0  0  0  0  0  0
  -10.8394   -1.6418  -23.2438 H   0  0  0  0  0  0  0  0  0  0  0  0
  -10.2196   -1.4618  -21.7951 H   0  0  0  0  0  0  0  0  0  0  0  0
   -7.6967   -1.5331  -21.3406 H   0  0  0  0  0  0  0  0  0  0  0  0
   -8.5348   -0.2794  -18.6226 H   0  0  0  0  0  0  0  0  0  0  0  0
   -5.4829    1.5552  -17.2230 H   0  0  0  0  0  0  0  0  0  0  0  0
   -4.5546    1.5699  -19.1987 H   0  0  0  0  0  0  0  0  0  0  0  0
   -4.6548   -0.2757  -21.8217 H   0  0  0  0  0  0  0  0  0  0  0  0
   -6.0516    0.6436  -22.4777 H   0  0  0  0  0  0  0  0  0  0  0  0
   -4.6449    1.5201  -21.7849 H   0  0  0  0  0  0  0  0  0  0  0  0
 20 21  2  0  0  0  0
 19 20  1  0  0  0  0
 21 22  1  0  0  0  0
 18 19  2  0  0  0  0
 22 23  2  0  0  0  0
 18 23  1  0  0  0  0
 17 18  1  0  0  0  0
 23 24  1  0  0  0  0
 15 16  2  0  0  0  0
 15 17  1  0  0  0  0
 14 15  1  0  0  0  0
  8 14  1  0  0  0  0
  7 14  1  0  0  0  0
 12 13  2  0  0  0  0
 11 12  1  0  0  0  0
  7  8  1  0  0  0  0
  8  9  1  0  0  0  0
  6  7  2  3  0  0  0
 10 11  1  0  0  0  0
  5  6  1  0  0  0  0
  9 10  2  0  0  0  0
  2  5  1  0  0  0  0
  2  3  2  0  0  0  0
  1  2  1  0  0  0  0
  2  4  2  0  0  0  0
  1 25  1  0  0  0  0
  1 26  1  0  0  0  0
  1 27  1  0  0  0  0
  5 28  1  0  0  0  0
  6 29  1  0  0  0  0
  8 30  1  0  0  0  0
  9 31  1  0  0  0  0
 10 32  1  0  0  0  0
 11 33  1  0  0  0  0
 11 34  1  0  0  0  0
 12 35  1  0  0  0  0
 13 36  1  0  0  0  0
 13 37  1  0  0  0  0
 14 38  1  0  0  0  0
 17 39  1  0  0  0  0
 19 40  1  0  0  0  0
 21 41  1  0  0  0  0
 22 42  1  0  0  0  0
 24 43  1  0  0  0  0
 24 44  1  0  0  0  0
 24 45  1  0  0  0  0
M  END
> <Chemgauss4>
-13.050710

$$$$
