stable:False satoms:12 tatoms:24 sratio:0.5
  -OEChem-08062416463D

 45 46  0     1  0  0  0  0  0999 V2000
    6.1484   -5.2906   25.8182 C   0  0  0  0  0  0  0  0  0  0  0  0
    7.7694   -4.7614   25.7129 S   0  0  0  0  0  0  0  0  0  0  0  0
    8.6475   -5.9110   25.6185 O   0  0  0  0  0  0  0  0  0  0  0  0
    8.0209   -4.0071   26.8883 O   0  0  0  0  0  0  0  0  0  0  0  0
    7.8123   -3.9083   24.3366 N   0  0  0  0  0  0  0  0  0  0  0  0
    8.8192   -3.2459   23.9747 C   0  0  0  0  0  0  0  0  0  0  0  0
    9.3199   -2.2184   23.4577 C   0  0  0  0  0  0  0  0  0  0  0  0
   10.2385   -1.3234   23.4572 C   0  0  2  0  0  0  0  0  0  0  0  0
   10.8196   -0.3854   24.6276 C   0  0  0  0  0  0  0  0  0  0  0  0
   11.9170   -0.0802   24.6994 C   0  0  0  0  0  0  0  0  0  0  0  0
   13.0140   -0.4003   24.0931 C   0  0  0  0  0  0  0  0  0  0  0  0
   12.6856   -1.5645   22.9859 C   0  0  0  0  0  0  0  0  0  0  0  0
   11.8489   -1.9327   22.7693 C   0  0  0  0  0  0  0  0  0  0  0  0
    9.7564   -0.8089   22.5420 C   0  0  2  0  0  0  0  0  0  0  0  0
    9.1896   -0.0346   21.5183 C   0  0  0  0  0  0  0  0  0  0  0  0
    9.6875    0.9891   21.2401 O   0  0  0  0  0  0  0  0  0  0  0  0
    8.1289   -0.5962   21.0237 N   0  0  0  0  0  0  0  0  0  0  0  0
    7.4798   -0.0057   20.0773 C   0  0  0  0  0  0  0  0  0  0  0  0
    7.6725    0.1881   18.8268 C   0  0  0  0  0  0  0  0  0  0  0  0
    7.3296    0.6001   17.7026 N   0  0  0  0  0  0  0  0  0  0  0  0
    6.1634    1.1303   18.0456 C   0  0  0  0  0  0  0  0  0  0  0  0
    5.6388    1.1386   19.1830 C   0  0  0  0  0  0  0  0  0  0  0  0
    6.0697    0.6526   20.3326 C   0  0  0  0  0  0  0  0  0  0  0  0
    5.3965    0.6769   21.7304 C   0  0  0  0  0  0  0  0  0  0  0  0
    6.0157   -5.8873   26.7327 H   0  0  0  0  0  0  0  0  0  0  0  0
    5.4793   -4.4181   25.8496 H   0  0  0  0  0  0  0  0  0  0  0  0
    5.9063   -5.9071   24.9400 H   0  0  0  0  0  0  0  0  0  0  0  0
    7.0577   -3.2546   24.3933 H   0  0  0  0  0  0  0  0  0  0  0  0
    9.6654   -3.8635   24.2374 H   0  0  0  0  0  0  0  0  0  0  0  0
   11.1438   -1.8360   23.0998 H   0  0  0  0  0  0  0  0  0  0  0  0
   10.1369   -0.0262   25.3834 H   0  0  0  0  0  0  0  0  0  0  0  0
   12.0807    0.6624   25.4663 H   0  0  0  0  0  0  0  0  0  0  0  0
   13.7430   -0.7803   24.8239 H   0  0  0  0  0  0  0  0  0  0  0  0
   13.4287    0.4843   23.5875 H   0  0  0  0  0  0  0  0  0  0  0  0
   13.5323   -1.9545   22.4407 H   0  0  0  0  0  0  0  0  0  0  0  0
   11.7762   -2.7004   22.0131 H   0  0  0  0  0  0  0  0  0  0  0  0
   10.9597   -1.5884   23.2765 H   0  0  0  0  0  0  0  0  0  0  0  0
   10.3400   -1.4084   21.8278 H   0  0  0  0  0  0  0  0  0  0  0  0
    7.8171   -1.4797   21.3733 H   0  0  0  0  0  0  0  0  0  0  0  0
    8.6551   -0.2260   18.6553 H   0  0  0  0  0  0  0  0  0  0  0  0
    5.6032    1.6086   17.2557 H   0  0  0  0  0  0  0  0  0  0  0  0
    4.6749    1.6233   19.2314 H   0  0  0  0  0  0  0  0  0  0  0  0
    4.7751   -0.2223   21.8543 H   0  0  0  0  0  0  0  0  0  0  0  0
    6.1719    0.6970   22.5103 H   0  0  0  0  0  0  0  0  0  0  0  0
    4.7653    1.5735   21.8176 H   0  0  0  0  0  0  0  0  0  0  0  0
 20 21  2  0  0  0  0
 19 20  1  0  0  0  0
 21 22  1  0  0  0  0
 18 19  2  0  0  0  0
 22 23  2  0  0  0  0
 18 23  1  0  0  0  0
 17 18  1  0  0  0  0
 23 24  1  0  0  0  0
 15 16  2  0  0  0  0
 15 17  1  0  0  0  0
 14 15  1  0  0  0  0
  8 14  1  0  0  0  0
  7 14  1  0  0  0  0
 12 13  2  0  0  0  0
 11 12  1  0  0  0  0
  7  8  1  0  0  0  0
  8  9  1  0  0  0  0
  6  7  2  3  0  0  0
 10 11  1  0  0  0  0
  5  6  1  0  0  0  0
  9 10  2  0  0  0  0
  2  5  1  0  0  0  0
  2  3  2  0  0  0  0
  1  2  1  0  0  0  0
  2  4  2  0  0  0  0
  1 25  1  0  0  0  0
  1 26  1  0  0  0  0
  1 27  1  0  0  0  0
  5 28  1  0  0  0  0
  6 29  1  0  0  0  0
  8 30  1  0  0  0  0
  9 31  1  0  0  0  0
 10 32  1  0  0  0  0
 11 33  1  0  0  0  0
 11 34  1  0  0  0  0
 12 35  1  0  0  0  0
 13 36  1  0  0  0  0
 13 37  1  0  0  0  0
 14 38  1  0  0  0  0
 17 39  1  0  0  0  0
 19 40  1  0  0  0  0
 21 41  1  0  0  0  0
 22 42  1  0  0  0  0
 24 43  1  0  0  0  0
 24 44  1  0  0  0  0
 24 45  1  0  0  0  0
M  END
> <Chemgauss4>
-13.036019

$$$$
