
 OpenBabel07202414173D

 45 47  0  0  1  0  0  0  0  0999 V2000
   -2.0570   -0.4629   -0.4320 Cl  0  0  0  0  0  0  0  0  0  0  0  0
   -0.3617   -0.2885   -0.1993 C   0  0  0  0  0  0  0  0  0  0  0  0
    0.5058   -1.2740   -0.6679 C   0  0  0  0  0  0  0  0  0  0  0  0
    1.8852   -1.1354   -0.4876 C   0  0  0  0  0  0  0  0  0  0  0  0
    2.3988    0.0169    0.1094 C   0  0  0  0  0  0  0  0  0  0  0  0
    3.8025    0.1601    0.1645 N   0  0  0  0  0  0  0  0  0  0  0  0
    4.4262    1.3786   -0.0770 C   0  0  0  0  0  0  0  0  0  0  0  0
    3.8089    2.4077   -0.3576 O   0  0  0  0  0  0  0  0  0  0  0  0
    5.9816    1.3307   -0.0375 C   0  0  3  0  0  0  0  0  0  0  0  0
    6.5714    0.7896   -1.3071 N   0  0  0  0  0  0  0  0  0  0  0  0
    7.3616   -0.3622   -1.4400 C   0  0  0  0  0  0  0  0  0  0  0  0
    7.7492   -0.7933   -2.5247 O   0  0  0  0  0  0  0  0  0  0  0  0
    7.7234   -1.1257   -0.2146 C   0  0  0  0  0  0  0  0  0  0  0  0
    8.0272   -2.4286   -0.3221 C   0  0  0  0  0  0  0  0  0  0  0  0
    6.3371    1.5273   -2.5135 C   0  0  0  0  0  0  0  0  0  0  0  0
    5.0549    1.6281   -3.0607 C   0  0  0  0  0  0  0  0  0  0  0  0
    4.8398    2.3419   -4.2421 C   0  0  0  0  0  0  0  0  0  0  0  0
    5.9121    2.9501   -4.8913 C   0  0  0  0  0  0  0  0  0  0  0  0
    5.5846    4.0236   -6.6374 I   0  0  0  0  0  0  0  0  0  0  0  0
    7.2028    2.8242   -4.3801 C   0  0  0  0  0  0  0  0  0  0  0  0
    7.4158    2.0981   -3.2050 C   0  0  0  0  0  0  0  0  0  0  0  0
    6.5930    2.6428    0.4410 C   0  0  0  0  0  0  0  0  0  0  0  0
    5.9151    3.5280    1.2695 C   0  0  0  0  0  0  0  0  0  0  0  0
    6.4393    4.6547    1.7891 N   0  0  0  0  0  0  0  0  0  0  0  0
    7.7072    4.9106    1.4542 C   0  0  0  0  0  0  0  0  0  0  0  0
    8.4801    4.1350    0.6818 N   0  0  0  0  0  0  0  0  0  0  0  0
    7.9007    3.0158    0.1956 C   0  0  0  0  0  0  0  0  0  0  0  0
    1.5196    0.9932    0.5952 C   0  0  0  0  0  0  0  0  0  0  0  0
    0.1374    0.8378    0.4488 C   0  0  0  0  0  0  0  0  0  0  0  0
    0.1170   -2.1428   -1.1923 H   0  0  0  0  0  0  0  0  0  0  0  0
    2.5458   -1.9004   -0.8852 H   0  0  0  0  0  0  0  0  0  0  0  0
    4.3521   -0.6755   -0.0006 H   0  0  0  0  0  0  0  0  0  0  0  0
    6.2053    0.6264    0.7703 H   0  0  0  0  0  0  0  0  0  0  0  0
    7.8241   -0.6267    0.7370 H   0  0  0  0  0  0  0  0  0  0  0  0
    7.9923   -2.9477   -1.2800 H   0  0  0  0  0  0  0  0  0  0  0  0
    8.3472   -3.0094    0.5365 H   0  0  0  0  0  0  0  0  0  0  0  0
    4.2031    1.1233   -2.6172 H   0  0  0  0  0  0  0  0  0  0  0  0
    3.8316    2.4050   -4.6437 H   0  0  0  0  0  0  0  0  0  0  0  0
    8.0508    3.2788   -4.8857 H   0  0  0  0  0  0  0  0  0  0  0  0
    8.4315    1.9894   -2.8364 H   0  0  0  0  0  0  0  0  0  0  0  0
    4.8810    3.3687    1.5719 H   0  0  0  0  0  0  0  0  0  0  0  0
    8.1501    5.8158    1.8534 H   0  0  0  0  0  0  0  0  0  0  0  0
    8.5662    2.4131   -0.4145 H   0  0  0  0  0  0  0  0  0  0  0  0
    1.8890    1.8864    1.0957 H   0  0  0  0  0  0  0  0  0  0  0  0
   -0.5356    1.6029    0.8262 H   0  0  0  0  0  0  0  0  0  0  0  0
  1  2  1  0  0  0  0
  2  3  1  0  0  0  0
  2 29  2  0  0  0  0
  3  4  2  0  0  0  0
  3 30  1  0  0  0  0
  4  5  1  0  0  0  0
  4 31  1  0  0  0  0
  5  6  1  0  0  0  0
  5 28  2  0  0  0  0
  6  7  1  0  0  0  0
  6 32  1  0  0  0  0
  7  8  2  0  0  0  0
  7  9  1  0  0  0  0
  9 10  1  0  0  0  0
  9 22  1  0  0  0  0
  9 33  1  0  0  0  0
 10 11  1  0  0  0  0
 10 15  1  0  0  0  0
 11 12  2  0  0  0  0
 11 13  1  0  0  0  0
 13 14  2  0  0  0  0
 13 34  1  0  0  0  0
 14 35  1  0  0  0  0
 14 36  1  0  0  0  0
 15 16  1  0  0  0  0
 15 21  2  0  0  0  0
 16 17  2  0  0  0  0
 16 37  1  0  0  0  0
 17 18  1  0  0  0  0
 17 38  1  0  0  0  0
 18 19  1  0  0  0  0
 18 20  2  0  0  0  0
 20 21  1  0  0  0  0
 20 39  1  0  0  0  0
 21 40  1  0  0  0  0
 22 23  1  0  0  0  0
 22 27  2  0  0  0  0
 23 24  2  0  0  0  0
 23 41  1  0  0  0  0
 24 25  1  0  0  0  0
 25 26  2  0  0  0  0
 25 42  1  0  0  0  0
 26 27  1  0  0  0  0
 27 43  1  0  0  0  0
 28 29  1  0  0  0  0
 28 44  1  0  0  0  0
 29 45  1  0  0  0  0
M  END
$$$$
