stable:False satoms:21 tatoms:24 sratio:0.875
  -OEChem-08062402393D

 26 27  0     1  0  0  0  0  0999 V2000
  -12.4776   -0.6961  -23.5748 C   0  0  0  0  0  0  0  0  0  0  0  0
  -13.7938   -2.1163  -22.7469 H   0  0  0  0  0  0  0  0  0  0  0  0
  -14.6022   -0.6210  -23.1259 H   0  0  0  0  0  0  0  0  0  0  0  0
  -14.1768   -1.7200  -24.4245 H   0  0  0  0  0  0  0  0  0  0  0  0
  -13.8297   -1.3086  -23.4678 C   0  0  0  0  0  0  0  0  0  0  0  0
  -11.8448    0.0295  -24.6713 C   0  0  0  0  0  0  0  0  0  0  0  0
  -10.4438   -0.1104  -22.9269 N   0  0  2  0  0  0  0  0  0  0  0  0
   -9.8768    1.2401  -24.2558 H   0  0  0  0  0  0  0  0  0  0  0  0
  -10.4219    0.3584  -24.5979 C   0  0  1  0  0  0  0  0  0  0  0  0
   -9.8226    0.2917  -25.9419 O   0  0  0  0  0  0  0  0  0  0  0  0
  -10.1611    1.0167  -26.4802 H   0  0  0  0  0  0  0  0  0  0  0  0
  -12.2986    0.3838  -25.5882 H   0  0  0  0  0  0  0  0  0  0  0  0
  -11.5123   -0.6940  -22.7155 N   0  0  0  0  0  0  0  0  0  0  0  0
   -9.7052    0.4585  -21.8478 C   0  0  0  0  0  0  0  0  0  0  0  0
   -8.7325   -0.4115  -21.2259 N   0  3  0  0  0  0  0  0  0  0  0  0
   -7.2253    0.8270  -21.2162 H   0  0  0  0  0  0  0  0  0  0  0  0
  -10.4270    0.7394  -21.0667 H   0  0  0  0  0  0  0  0  0  0  0  0
   -9.1651    1.3662  -22.1426 H   0  0  0  0  0  0  0  0  0  0  0  0
   -7.8157    0.4016  -20.3858 C   0  0  1  0  0  0  0  0  0  0  0  0
   -7.4728    1.0964  -19.1977 O   0  0  0  0  0  0  0  0  0  0  0  0
   -6.7188   -0.8373  -18.8728 H   0  0  0  0  0  0  0  0  0  0  0  0
   -8.3765   -0.5812  -18.4099 H   0  0  0  0  0  0  0  0  0  0  0  0
   -7.5842   -0.1932  -19.0654 C   0  0  0  0  0  0  0  0  0  0  0  0
   -8.2070   -0.8848  -21.9328 H   0  0  0  0  0  0  0  0  0  0  0  0
  -11.2793   -1.6531  -22.5551 H   0  0  0  0  0  0  0  0  0  0  0  0
   -9.2026   -1.0836  -20.6537 H   0  0  0  0  0  0  0  0  0  0  0  0
 20 23  1  0  0  0  0
 19 20  1  0  0  0  0
 21 23  1  0  0  0  0
 19 23  1  0  0  0  0
 22 23  1  0  0  0  0
 16 19  1  0  0  0  0
 15 19  1  0  0  0  0
 14 18  1  0  0  0  0
 14 17  1  0  0  0  0
 14 15  1  0  0  0  0
 15 24  1  0  0  0  0
  7 14  1  0  0  0  0
  8  9  1  0  0  0  0
  7  9  1  0  0  0  0
  7 13  1  0  0  0  0
  9 10  1  0  0  0  0
  6  9  1  0  0  0  0
 10 11  1  0  0  0  0
  1 13  1  0  0  0  0
  1  6  2  0  0  0  0
  6 12  1  0  0  0  0
  1  5  1  0  0  0  0
  3  5  1  0  0  0  0
  2  5  1  0  0  0  0
  4  5  1  0  0  0  0
 13 25  1  0  0  0  0
 15 26  1  0  0  0  0
M  CHG  1  15   1
M  END
> <Chemgauss4>
-6.302123

$$$$
