stable:False satoms:21 tatoms:24 sratio:0.875
  -OEChem-08062402393D

 26 27  0     1  0  0  0  0  0999 V2000
   12.6141   -1.1961   23.4038 C   0  0  0  0  0  0  0  0  0  0  0  0
   13.9303   -2.6163   22.5759 H   0  0  0  0  0  0  0  0  0  0  0  0
   14.7387   -1.1210   22.9549 H   0  0  0  0  0  0  0  0  0  0  0  0
   14.3133   -2.2200   24.2535 H   0  0  0  0  0  0  0  0  0  0  0  0
   13.9662   -1.8086   23.2968 C   0  0  0  0  0  0  0  0  0  0  0  0
   11.9813   -0.4705   24.5003 C   0  0  0  0  0  0  0  0  0  0  0  0
   10.5803   -0.6104   22.7558 N   0  0  2  0  0  0  0  0  0  0  0  0
   10.0134    0.7401   24.0848 H   0  0  0  0  0  0  0  0  0  0  0  0
   10.5584   -0.1416   24.4269 C   0  0  1  0  0  0  0  0  0  0  0  0
    9.9591   -0.2083   25.7709 O   0  0  0  0  0  0  0  0  0  0  0  0
   10.2976    0.5167   26.3091 H   0  0  0  0  0  0  0  0  0  0  0  0
   12.4352   -0.1162   25.4172 H   0  0  0  0  0  0  0  0  0  0  0  0
   11.6488   -1.1940   22.5445 N   0  0  0  0  0  0  0  0  0  0  0  0
    9.8417   -0.0415   21.6768 C   0  0  0  0  0  0  0  0  0  0  0  0
    8.8691   -0.9115   21.0549 N   0  3  0  0  0  0  0  0  0  0  0  0
    7.3619    0.3270   21.0452 H   0  0  0  0  0  0  0  0  0  0  0  0
   10.5635    0.2394   20.8957 H   0  0  0  0  0  0  0  0  0  0  0  0
    9.3016    0.8662   21.9716 H   0  0  0  0  0  0  0  0  0  0  0  0
    7.9522   -0.0984   20.2148 C   0  0  1  0  0  0  0  0  0  0  0  0
    7.6093    0.5964   19.0267 O   0  0  0  0  0  0  0  0  0  0  0  0
    6.8553   -1.3373   18.7018 H   0  0  0  0  0  0  0  0  0  0  0  0
    8.5130   -1.0812   18.2389 H   0  0  0  0  0  0  0  0  0  0  0  0
    7.7207   -0.6932   18.8944 C   0  0  0  0  0  0  0  0  0  0  0  0
    8.3435   -1.3848   21.7618 H   0  0  0  0  0  0  0  0  0  0  0  0
   11.4159   -2.1531   22.3841 H   0  0  0  0  0  0  0  0  0  0  0  0
    9.3391   -1.5836   20.4827 H   0  0  0  0  0  0  0  0  0  0  0  0
 20 23  1  0  0  0  0
 19 20  1  0  0  0  0
 21 23  1  0  0  0  0
 19 23  1  0  0  0  0
 22 23  1  0  0  0  0
 16 19  1  0  0  0  0
 15 19  1  0  0  0  0
 14 18  1  0  0  0  0
 14 17  1  0  0  0  0
 14 15  1  0  0  0  0
 15 24  1  0  0  0  0
  7 14  1  0  0  0  0
  8  9  1  0  0  0  0
  7  9  1  0  0  0  0
  7 13  1  0  0  0  0
  9 10  1  0  0  0  0
  6  9  1  0  0  0  0
 10 11  1  0  0  0  0
  1 13  1  0  0  0  0
  1  6  2  0  0  0  0
  6 12  1  0  0  0  0
  1  5  1  0  0  0  0
  3  5  1  0  0  0  0
  2  5  1  0  0  0  0
  4  5  1  0  0  0  0
 13 25  1  0  0  0  0
 15 26  1  0  0  0  0
M  CHG  1  15   1
M  END
> <Chemgauss4>
-6.317644

$$$$
