stable:False satoms:7 tatoms:24 sratio:0.2916666666666667
  -OEChem-07092417493D

 24 25  0     1  0  0  0  0  0999 V2000
    6.5935   -4.8353   26.4626 C   0  0  0  0  0  0  0  0  0  0  0  0
    8.2191   -4.3034   26.1252 S   0  0  0  0  0  0  0  0  0  0  0  0
    9.0854   -5.4527   26.0376 O   0  0  0  0  0  0  0  0  0  0  0  0
    8.6084   -3.4244   27.1898 O   0  0  0  0  0  0  0  0  0  0  0  0
    8.1159   -3.5533   24.6838 N   0  0  0  0  0  0  0  0  0  0  0  0
    8.9665   -2.9355   24.1433 C   0  0  0  0  0  0  0  0  0  0  0  0
    9.4177   -1.9668   23.4776 C   0  0  0  0  0  0  0  0  0  0  0  0
   10.3202   -1.1435   23.2307 C   0  0  1  0  0  0  0  0  0  0  0  0
   11.0246    0.0104   24.3019 C   0  0  0  0  0  0  0  0  0  0  0  0
   12.0516    0.3051   24.2431 C   0  0  0  0  0  0  0  0  0  0  0  0
   13.1613   -0.1114   23.5235 C   0  0  0  0  0  0  0  0  0  0  0  0
   12.7384   -1.3170   22.6518 C   0  0  0  0  0  0  0  0  0  0  0  0
   11.8431   -1.7384   22.4975 C   0  0  0  0  0  0  0  0  0  0  0  0
    9.7464   -0.5735   22.3502 C   0  0  0  0  0  0  0  0  0  0  0  0
    9.0512    0.0388   21.3777 C   0  0  0  0  0  0  0  0  0  0  0  0
    9.5291    0.9919   20.9750 O   0  0  0  0  0  0  0  0  0  0  0  0
    7.9429   -0.5676   21.0803 N   0  0  0  0  0  0  0  0  0  0  0  0
    7.1775   -0.0924   20.1718 C   0  0  0  0  0  0  0  0  0  0  0  0
    7.2580   -0.0233   18.8515 C   0  0  0  0  0  0  0  0  0  0  0  0
    6.7173    0.3194   17.7815 N   0  0  0  0  0  0  0  0  0  0  0  0
    5.6079    0.8934   18.1996 C   0  0  0  0  0  0  0  0  0  0  0  0
    5.2437    0.9741   19.3997 C   0  0  0  0  0  0  0  0  0  0  0  0
    5.8384    0.5556   20.5330 C   0  0  0  0  0  0  0  0  0  0  0  0
    5.3257    0.6596   22.0082 C   0  0  0  0  0  0  0  0  0  0  0  0
 20 21  2  0  0  0  0
 19 20  1  0  0  0  0
 21 22  1  0  0  0  0
 18 19  2  0  0  0  0
 22 23  2  0  0  0  0
 18 23  1  0  0  0  0
 17 18  1  0  0  0  0
 23 24  1  0  0  0  0
 15 16  2  0  0  0  0
 15 17  1  0  0  0  0
 14 15  1  0  0  0  0
  8 14  1  0  0  0  0
 12 13  1  0  0  0  0
  8 13  1  0  0  0  0
 11 12  2  0  0  0  0
  7  8  1  0  0  0  0
  8  9  1  0  0  0  0
  6  7  2  3  0  0  0
 10 11  1  0  0  0  0
  5  6  1  0  0  0  0
  9 10  2  0  0  0  0
  2  5  1  0  0  0  0
  2  3  2  0  0  0  0
  1  2  1  0  0  0  0
  2  4  2  0  0  0  0
M  END
> <Shapegauss>
-285.676910

$$$$
