stable:False satoms:7 tatoms:24 sratio:0.2916666666666667
  -OEChem-08062417143D

 45 46  0     1  0  0  0  0  0999 V2000
    6.1426   -5.2936   25.8331 C   0  0  0  0  0  0  0  0  0  0  0  0
    7.7995   -4.7614   25.7298 S   0  0  0  0  0  0  0  0  0  0  0  0
    8.6628   -5.9130   25.6422 O   0  0  0  0  0  0  0  0  0  0  0  0
    8.0699   -3.9826   26.9036 O   0  0  0  0  0  0  0  0  0  0  0  0
    7.8669   -3.8898   24.3562 N   0  0  0  0  0  0  0  0  0  0  0  0
    8.7778   -3.2421   23.9712 C   0  0  0  0  0  0  0  0  0  0  0  0
    9.3085   -2.2277   23.4473 C   0  0  0  0  0  0  0  0  0  0  0  0
   10.2386   -1.4012   23.3766 C   0  0  1  0  0  0  0  0  0  0  0  0
   10.8230   -0.3542   24.6165 C   0  0  0  0  0  0  0  0  0  0  0  0
   11.8518   -0.0722   24.7004 C   0  0  0  0  0  0  0  0  0  0  0  0
   13.0340   -0.4440   24.0783 C   0  0  0  0  0  0  0  0  0  0  0  0
   12.7060   -1.5640   23.0633 C   0  0  0  0  0  0  0  0  0  0  0  0
   11.8316   -1.9561   22.7725 C   0  0  0  0  0  0  0  0  0  0  0  0
    9.7731   -0.7491   22.4891 C   0  0  0  0  0  0  0  0  0  0  0  0
    9.1978   -0.0450   21.5005 C   0  0  0  0  0  0  0  0  0  0  0  0
    9.7248    0.9310   21.2386 O   0  0  0  0  0  0  0  0  0  0  0  0
    8.1271   -0.6059   21.0279 N   0  0  0  0  0  0  0  0  0  0  0  0
    7.4739   -0.0427   20.0828 C   0  0  0  0  0  0  0  0  0  0  0  0
    7.7055    0.1372   18.7911 C   0  0  0  0  0  0  0  0  0  0  0  0
    7.2932    0.5784   17.7002 N   0  0  0  0  0  0  0  0  0  0  0  0
    6.1469    1.1327   18.0376 C   0  0  0  0  0  0  0  0  0  0  0  0
    5.6481    1.1168   19.1910 C   0  0  0  0  0  0  0  0  0  0  0  0
    6.1064    0.5938   20.3441 C   0  0  0  0  0  0  0  0  0  0  0  0
    5.4287    0.5802   21.7549 C   0  0  0  0  0  0  0  0  0  0  0  0
    6.0067   -5.8967   26.7429 H   0  0  0  0  0  0  0  0  0  0  0  0
    5.4780   -4.4179   25.8712 H   0  0  0  0  0  0  0  0  0  0  0  0
    5.8973   -5.9019   24.9501 H   0  0  0  0  0  0  0  0  0  0  0  0
    7.1025   -3.2482   24.4197 H   0  0  0  0  0  0  0  0  0  0  0  0
    9.6282   -3.8702   24.1917 H   0  0  0  0  0  0  0  0  0  0  0  0
    8.6138   -1.9230   22.6785 H   0  0  0  0  0  0  0  0  0  0  0  0
   10.1203    0.0335   25.3392 H   0  0  0  0  0  0  0  0  0  0  0  0
   12.0073    0.6866   25.4530 H   0  0  0  0  0  0  0  0  0  0  0  0
   14.0111   -0.0253   24.2688 H   0  0  0  0  0  0  0  0  0  0  0  0
   13.5709   -1.9991   22.5847 H   0  0  0  0  0  0  0  0  0  0  0  0
   11.7969   -1.8318   21.6801 H   0  0  0  0  0  0  0  0  0  0  0  0
   11.8879   -3.0269   23.0180 H   0  0  0  0  0  0  0  0  0  0  0  0
   10.5738   -1.0763   21.8096 H   0  0  0  0  0  0  0  0  0  0  0  0
   10.0770    0.1801   22.9933 H   0  0  0  0  0  0  0  0  0  0  0  0
    7.8126   -1.4781   21.4024 H   0  0  0  0  0  0  0  0  0  0  0  0
    8.6812   -0.2836   18.5976 H   0  0  0  0  0  0  0  0  0  0  0  0
    5.5923    1.6404   17.2624 H   0  0  0  0  0  0  0  0  0  0  0  0
    4.6886    1.6060   19.2710 H   0  0  0  0  0  0  0  0  0  0  0  0
    4.8098   -0.3235   21.8563 H   0  0  0  0  0  0  0  0  0  0  0  0
    6.2048    0.5823   22.5344 H   0  0  0  0  0  0  0  0  0  0  0  0
    4.7952    1.4726   21.8659 H   0  0  0  0  0  0  0  0  0  0  0  0
 20 21  2  0  0  0  0
 19 20  1  0  0  0  0
 21 22  1  0  0  0  0
 18 19  2  0  0  0  0
 22 23  2  0  0  0  0
 18 23  1  0  0  0  0
 17 18  1  0  0  0  0
 23 24  1  0  0  0  0
 15 16  2  0  0  0  0
 15 17  1  0  0  0  0
 14 15  1  0  0  0  0
  8 14  1  0  0  0  0
 12 13  1  0  0  0  0
  8 13  1  0  0  0  0
 11 12  2  0  0  0  0
  7  8  1  0  0  0  0
  8  9  1  0  0  0  0
  6  7  2  3  0  0  0
 10 11  1  0  0  0  0
  5  6  1  0  0  0  0
  9 10  2  0  0  0  0
  2  5  1  0  0  0  0
  2  3  2  0  0  0  0
  1  2  1  0  0  0  0
  2  4  2  0  0  0  0
  1 25  1  0  0  0  0
  1 26  1  0  0  0  0
  1 27  1  0  0  0  0
  5 28  1  0  0  0  0
  6 29  1  0  0  0  0
  7 30  1  0  0  0  0
  9 31  1  0  0  0  0
 10 32  1  0  0  0  0
 11 33  1  0  0  0  0
 12 34  1  0  0  0  0
 13 35  1  0  0  0  0
 13 36  1  0  0  0  0
 14 37  1  0  0  0  0
 14 38  1  0  0  0  0
 17 39  1  0  0  0  0
 19 40  1  0  0  0  0
 21 41  1  0  0  0  0
 22 42  1  0  0  0  0
 24 43  1  0  0  0  0
 24 44  1  0  0  0  0
 24 45  1  0  0  0  0
M  END
> <Chemgauss4>
-13.219288

$$$$
