stable:False satoms:7 tatoms:24 sratio:0.2916666666666667
  -OEChem-08062417143D

 45 46  0     1  0  0  0  0  0999 V2000
   -6.1669   -5.2446  -25.8331 C   0  0  0  0  0  0  0  0  0  0  0  0
   -7.8238   -4.7124  -25.7298 S   0  0  0  0  0  0  0  0  0  0  0  0
   -8.6871   -5.8640  -25.6422 O   0  0  0  0  0  0  0  0  0  0  0  0
   -8.0942   -3.9336  -26.9036 O   0  0  0  0  0  0  0  0  0  0  0  0
   -7.8912   -3.8408  -24.3562 N   0  0  0  0  0  0  0  0  0  0  0  0
   -8.8021   -3.1932  -23.9712 C   0  0  0  0  0  0  0  0  0  0  0  0
   -9.3328   -2.1788  -23.4473 C   0  0  0  0  0  0  0  0  0  0  0  0
  -10.2629   -1.3522  -23.3766 C   0  0  1  0  0  0  0  0  0  0  0  0
  -10.8473   -0.3052  -24.6165 C   0  0  0  0  0  0  0  0  0  0  0  0
  -11.8761   -0.0233  -24.7004 C   0  0  0  0  0  0  0  0  0  0  0  0
  -13.0583   -0.3950  -24.0783 C   0  0  0  0  0  0  0  0  0  0  0  0
  -12.7303   -1.5150  -23.0633 C   0  0  0  0  0  0  0  0  0  0  0  0
  -11.8559   -1.9072  -22.7725 C   0  0  0  0  0  0  0  0  0  0  0  0
   -9.7974   -0.7001  -22.4891 C   0  0  0  0  0  0  0  0  0  0  0  0
   -9.2222    0.0039  -21.5005 C   0  0  0  0  0  0  0  0  0  0  0  0
   -9.7491    0.9799  -21.2386 O   0  0  0  0  0  0  0  0  0  0  0  0
   -8.1514   -0.5569  -21.0279 N   0  0  0  0  0  0  0  0  0  0  0  0
   -7.4982    0.0062  -20.0828 C   0  0  0  0  0  0  0  0  0  0  0  0
   -7.7299    0.1861  -18.7911 C   0  0  0  0  0  0  0  0  0  0  0  0
   -7.3175    0.6273  -17.7002 N   0  0  0  0  0  0  0  0  0  0  0  0
   -6.1712    1.1816  -18.0376 C   0  0  0  0  0  0  0  0  0  0  0  0
   -5.6724    1.1658  -19.1910 C   0  0  0  0  0  0  0  0  0  0  0  0
   -6.1307    0.6428  -20.3441 C   0  0  0  0  0  0  0  0  0  0  0  0
   -5.4530    0.6292  -21.7549 C   0  0  0  0  0  0  0  0  0  0  0  0
   -6.0310   -5.8478  -26.7429 H   0  0  0  0  0  0  0  0  0  0  0  0
   -5.5023   -4.3689  -25.8712 H   0  0  0  0  0  0  0  0  0  0  0  0
   -5.9216   -5.8530  -24.9501 H   0  0  0  0  0  0  0  0  0  0  0  0
   -7.1268   -3.1993  -24.4197 H   0  0  0  0  0  0  0  0  0  0  0  0
   -9.6525   -3.8213  -24.1917 H   0  0  0  0  0  0  0  0  0  0  0  0
   -8.6382   -1.8740  -22.6785 H   0  0  0  0  0  0  0  0  0  0  0  0
  -10.1446    0.0824  -25.3392 H   0  0  0  0  0  0  0  0  0  0  0  0
  -12.0316    0.7356  -25.4530 H   0  0  0  0  0  0  0  0  0  0  0  0
  -14.0354    0.0236  -24.2688 H   0  0  0  0  0  0  0  0  0  0  0  0
  -13.5952   -1.9502  -22.5847 H   0  0  0  0  0  0  0  0  0  0  0  0
  -11.8212   -1.7829  -21.6801 H   0  0  0  0  0  0  0  0  0  0  0  0
  -11.9122   -2.9780  -23.0180 H   0  0  0  0  0  0  0  0  0  0  0  0
  -10.5981   -1.0273  -21.8096 H   0  0  0  0  0  0  0  0  0  0  0  0
  -10.1013    0.2291  -22.9933 H   0  0  0  0  0  0  0  0  0  0  0  0
   -7.8369   -1.4292  -21.4024 H   0  0  0  0  0  0  0  0  0  0  0  0
   -8.7055   -0.2347  -18.5976 H   0  0  0  0  0  0  0  0  0  0  0  0
   -5.6166    1.6894  -17.2624 H   0  0  0  0  0  0  0  0  0  0  0  0
   -4.7129    1.6550  -19.2710 H   0  0  0  0  0  0  0  0  0  0  0  0
   -4.8341   -0.2745  -21.8563 H   0  0  0  0  0  0  0  0  0  0  0  0
   -6.2292    0.6313  -22.5344 H   0  0  0  0  0  0  0  0  0  0  0  0
   -4.8195    1.5216  -21.8659 H   0  0  0  0  0  0  0  0  0  0  0  0
 20 21  2  0  0  0  0
 19 20  1  0  0  0  0
 21 22  1  0  0  0  0
 18 19  2  0  0  0  0
 22 23  2  0  0  0  0
 18 23  1  0  0  0  0
 17 18  1  0  0  0  0
 23 24  1  0  0  0  0
 15 16  2  0  0  0  0
 15 17  1  0  0  0  0
 14 15  1  0  0  0  0
  8 14  1  0  0  0  0
 12 13  1  0  0  0  0
  8 13  1  0  0  0  0
 11 12  2  0  0  0  0
  7  8  1  0  0  0  0
  8  9  1  0  0  0  0
  6  7  2  3  0  0  0
 10 11  1  0  0  0  0
  5  6  1  0  0  0  0
  9 10  2  0  0  0  0
  2  5  1  0  0  0  0
  2  3  2  0  0  0  0
  1  2  1  0  0  0  0
  2  4  2  0  0  0  0
  1 25  1  0  0  0  0
  1 26  1  0  0  0  0
  1 27  1  0  0  0  0
  5 28  1  0  0  0  0
  6 29  1  0  0  0  0
  7 30  1  0  0  0  0
  9 31  1  0  0  0  0
 10 32  1  0  0  0  0
 11 33  1  0  0  0  0
 12 34  1  0  0  0  0
 13 35  1  0  0  0  0
 13 36  1  0  0  0  0
 14 37  1  0  0  0  0
 14 38  1  0  0  0  0
 17 39  1  0  0  0  0
 19 40  1  0  0  0  0
 21 41  1  0  0  0  0
 22 42  1  0  0  0  0
 24 43  1  0  0  0  0
 24 44  1  0  0  0  0
 24 45  1  0  0  0  0
M  END
> <Chemgauss4>
-13.204986

$$$$
