MODEL 1
REMARK VINA RESULT:    -4.987      0.000      0.000
REMARK INTER + INTRA:          -7.181
REMARK INTER:                  -6.736
REMARK INTRA:                  -0.444
REMARK UNBOUND:                -0.444
REMARK  6 active torsions:
REMARK  status: ('A' for Active; 'I' for Inactive)
REMARK    1  A    between atoms: C_1  and  C_10 
REMARK    2  A    between atoms: C_4  and  C_18 
REMARK    3  A    between atoms: C_4  and  N_17 
REMARK    4  A    between atoms: N_7  and  N_13 
REMARK    5  A    between atoms: C_10  and  N_17 
REMARK    6  A    between atoms: N_12  and  N_14 
ROOT
HETATM    1  H   UNL     1       7.037  13.969   1.449  1.00  0.00     0.157 HD
HETATM    2  C   UNL     1       8.597  15.077   1.593  1.00  0.00     0.112 C 
HETATM    3  N   UNL     1       8.003  14.006   1.181  1.00  0.00    -0.385 N 
ATOM      4  HN  UNL     1       8.468  13.276   0.641  1.00  0.00     0.157 HD
ENDROOT
BRANCH   2   5
HETATM    5  C   UNL     1       9.814  14.914   2.120  1.00  0.00     0.156 C 
HETATM    6  N   UNL     1      10.502  14.512   3.044  1.00  0.00    -0.293 N 
HETATM    7  H   UNL     1      10.143  13.698   3.557  1.00  0.00     0.187 HD
BRANCH   6   8
HETATM    8  N   UNL     1      11.575  15.035   3.680  1.00  0.00    -0.229 N 
HETATM    9  N   UNL     1      11.226  16.106   4.202  1.00  0.00    -0.233 N 
ATOM     10  HN  UNL     1      10.227  16.248   4.355  1.00  0.00     0.209 HD
ATOM     11  HN  UNL     1      12.507  14.623   3.723  1.00  0.00     0.210 HD
BRANCH   9  12
HETATM   12  N   UNL     1      12.033  17.070   4.571  1.00  0.00    -0.325 N 
HETATM   13  H   UNL     1      12.986  16.941   4.265  1.00  0.00     0.181 HD
HETATM   14  C   UNL     1      11.544  18.391   4.851  1.00  0.00     0.169 C 
ENDBRANCH   9  12
ENDBRANCH   6   8
ENDBRANCH   2   5
BRANCH   2  15
HETATM   15  N   UNL     1       8.031  16.324   1.279  1.00  0.00    -0.371 N 
HETATM   16  H   UNL     1       7.552  16.338   0.401  1.00  0.00     0.161 HD
BRANCH  15  17
HETATM   17  C   UNL     1       7.973  17.357   2.248  1.00  0.00     0.165 C 
BRANCH  17  18
HETATM   18  C   UNL     1       8.831  18.547   1.898  1.00  0.00     0.072 C 
HETATM   19  N   UNL     1      10.093  18.584   1.469  1.00  0.00    -0.410 N 
HETATM   20  H   UNL     1      10.273  18.701   0.486  1.00  0.00     0.155 HD
HETATM   21  H   UNL     1      10.676  17.903   1.982  1.00  0.00     0.155 HD
ENDBRANCH  17  18
ENDBRANCH  15  17
ENDBRANCH   2  15
TORSDOF 6
ENDMDL
MODEL 2
REMARK VINA RESULT:    -4.861     33.994     35.776
REMARK INTER + INTRA:          -7.010
REMARK INTER:                  -6.769
REMARK INTRA:                  -0.241
REMARK UNBOUND:                -0.444
REMARK  6 active torsions:
REMARK  status: ('A' for Active; 'I' for Inactive)
REMARK    1  A    between atoms: C_1  and  C_10 
REMARK    2  A    between atoms: C_4  and  C_18 
REMARK    3  A    between atoms: C_4  and  N_17 
REMARK    4  A    between atoms: N_7  and  N_13 
REMARK    5  A    between atoms: C_10  and  N_17 
REMARK    6  A    between atoms: N_12  and  N_14 
ROOT
HETATM    1  H   UNL     1       1.777 -14.753   9.104  1.00  0.00     0.157 HD
HETATM    2  C   UNL     1       0.855 -16.376   9.550  1.00  0.00     0.112 C 
HETATM    3  N   UNL     1       0.861 -15.161   9.111  1.00  0.00    -0.385 N 
ATOM      4  HN  UNL     1       0.021 -14.668   8.804  1.00  0.00     0.157 HD
ENDROOT
BRANCH   2   5
HETATM    5  C   UNL     1      -0.119 -16.692  10.408  1.00  0.00     0.156 C 
HETATM    6  N   UNL     1      -1.194 -16.408  10.913  1.00  0.00    -0.293 N 
HETATM    7  H   UNL     1      -1.849 -15.885  10.322  1.00  0.00     0.187 HD
BRANCH   6   8
HETATM    8  N   UNL     1      -1.650 -16.470  12.185  1.00  0.00    -0.229 N 
HETATM    9  N   UNL     1      -0.818 -15.912  12.918  1.00  0.00    -0.233 N 
ATOM     10  HN  UNL     1      -0.167 -15.264  12.476  1.00  0.00     0.209 HD
ATOM     11  HN  UNL     1      -2.524 -16.901  12.489  1.00  0.00     0.210 HD
BRANCH   9  12
HETATM   12  N   UNL     1      -0.708 -16.086  14.212  1.00  0.00    -0.325 N 
HETATM   13  H   UNL     1       0.048 -15.562  14.628  1.00  0.00     0.181 HD
HETATM   14  C   UNL     1      -1.831 -16.483  15.014  1.00  0.00     0.169 C 
ENDBRANCH   9  12
ENDBRANCH   6   8
ENDBRANCH   2   5
BRANCH   2  15
HETATM   15  N   UNL     1       1.720 -17.310   8.957  1.00  0.00    -0.371 N 
HETATM   16  H   UNL     1       2.340 -16.911   8.281  1.00  0.00     0.161 HD
BRANCH  15  17
HETATM   17  C   UNL     1       1.822 -18.629   9.468  1.00  0.00     0.165 C 
BRANCH  17  18
HETATM   18  C   UNL     1       3.122 -19.304   9.111  1.00  0.00     0.072 C 
HETATM   19  N   UNL     1       4.361 -18.808   9.108  1.00  0.00    -0.410 N 
HETATM   20  H   UNL     1       4.966 -18.999   9.890  1.00  0.00     0.155 HD
HETATM   21  H   UNL     1       4.373 -17.852   8.719  1.00  0.00     0.155 HD
ENDBRANCH  17  18
ENDBRANCH  15  17
ENDBRANCH   2  15
TORSDOF 6
ENDMDL
MODEL 3
REMARK VINA RESULT:    -4.815     35.702     37.070
REMARK INTER + INTRA:          -6.949
REMARK INTER:                  -6.590
REMARK INTRA:                  -0.359
REMARK UNBOUND:                -0.444
REMARK  6 active torsions:
REMARK  status: ('A' for Active; 'I' for Inactive)
REMARK    1  A    between atoms: C_1  and  C_10 
REMARK    2  A    between atoms: C_4  and  C_18 
REMARK    3  A    between atoms: C_4  and  N_17 
REMARK    4  A    between atoms: N_7  and  N_13 
REMARK    5  A    between atoms: C_10  and  N_17 
REMARK    6  A    between atoms: N_12  and  N_14 
ROOT
HETATM    1  H   UNL     1       1.381 -17.364  12.018  1.00  0.00     0.157 HD
HETATM    2  C   UNL     1       0.335 -16.536  13.397  1.00  0.00     0.112 C 
HETATM    3  N   UNL     1       1.470 -16.787  12.833  1.00  0.00    -0.385 N 
ATOM      4  HN  UNL     1       2.363 -16.435  13.181  1.00  0.00     0.157 HD
ENDROOT
BRANCH   2   5
HETATM    5  C   UNL     1       0.301 -16.633  14.729  1.00  0.00     0.156 C 
HETATM    6  N   UNL     1       0.374 -17.336  15.724  1.00  0.00    -0.293 N 
HETATM    7  H   UNL     1       0.986 -18.157  15.655  1.00  0.00     0.187 HD
BRANCH   6   8
HETATM    8  N   UNL     1      -0.342 -17.375  16.871  1.00  0.00    -0.229 N 
HETATM    9  N   UNL     1      -1.542 -17.478  16.569  1.00  0.00    -0.233 N 
ATOM     10  HN  UNL     1      -1.761 -17.826  15.635  1.00  0.00     0.209 HD
ATOM     11  HN  UNL     1       0.036 -17.327  17.817  1.00  0.00     0.210 HD
BRANCH   9  12
HETATM   12  N   UNL     1      -2.550 -17.176  17.349  1.00  0.00    -0.325 N 
HETATM   13  H   UNL     1      -3.338 -17.800  17.253  1.00  0.00     0.181 HD
HETATM   14  C   UNL     1      -2.361 -16.446  18.571  1.00  0.00     0.169 C 
ENDBRANCH   9  12
ENDBRANCH   6   8
ENDBRANCH   2   5
BRANCH   2  15
HETATM   15  N   UNL     1      -0.700 -15.995  12.616  1.00  0.00    -0.371 N 
HETATM   16  H   UNL     1      -0.631 -15.004  12.490  1.00  0.00     0.161 HD
BRANCH  15  17
HETATM   17  C   UNL     1      -1.591 -16.840  11.909  1.00  0.00     0.165 C 
BRANCH  17  18
HETATM   18  C   UNL     1      -2.945 -16.953  12.564  1.00  0.00     0.072 C 
HETATM   19  N   UNL     1      -3.348 -16.515  13.758  1.00  0.00    -0.410 N 
HETATM   20  H   UNL     1      -3.864 -15.652  13.814  1.00  0.00     0.155 HD
HETATM   21  H   UNL     1      -2.625 -16.685  14.475  1.00  0.00     0.155 HD
ENDBRANCH  17  18
ENDBRANCH  15  17
ENDBRANCH   2  15
TORSDOF 6
ENDMDL
MODEL 4
REMARK VINA RESULT:    -4.634      2.132      3.448
REMARK INTER + INTRA:          -6.704
REMARK INTER:                  -6.442
REMARK INTRA:                  -0.261
REMARK UNBOUND:                -0.444
REMARK  6 active torsions:
REMARK  status: ('A' for Active; 'I' for Inactive)
REMARK    1  A    between atoms: C_1  and  C_10 
REMARK    2  A    between atoms: C_4  and  C_18 
REMARK    3  A    between atoms: C_4  and  N_17 
REMARK    4  A    between atoms: N_7  and  N_13 
REMARK    5  A    between atoms: C_10  and  N_17 
REMARK    6  A    between atoms: N_12  and  N_14 
ROOT
HETATM    1  H   UNL     1       6.872  14.165   4.684  1.00  0.00     0.157 HD
HETATM    2  C   UNL     1       8.169  14.362   3.283  1.00  0.00     0.112 C 
HETATM    3  N   UNL     1       7.727  13.768   4.342  1.00  0.00    -0.385 N 
ATOM      4  HN  UNL     1       8.199  12.977   4.783  1.00  0.00     0.157 HD
ENDROOT
BRANCH   2   5
HETATM    5  C   UNL     1       9.479  14.621   3.252  1.00  0.00     0.156 C 
HETATM    6  N   UNL     1      10.619  14.255   3.490  1.00  0.00    -0.293 N 
HETATM    7  H   UNL     1      10.791  13.244   3.436  1.00  0.00     0.187 HD
BRANCH   6   8
HETATM    8  N   UNL     1      11.693  14.891   4.012  1.00  0.00    -0.229 N 
HETATM    9  N   UNL     1      11.346  16.044   4.311  1.00  0.00    -0.233 N 
ATOM     10  HN  UNL     1      10.348  16.217   4.431  1.00  0.00     0.209 HD
ATOM     11  HN  UNL     1      12.623  14.492   4.137  1.00  0.00     0.210 HD
BRANCH   9  12
HETATM   12  N   UNL     1      12.156  17.060   4.484  1.00  0.00    -0.325 N 
HETATM   13  H   UNL     1      13.015  16.988   3.958  1.00  0.00     0.181 HD
HETATM   14  C   UNL     1      11.667  18.349   4.883  1.00  0.00     0.169 C 
ENDBRANCH   9  12
ENDBRANCH   6   8
ENDBRANCH   2   5
BRANCH   2  15
HETATM   15  N   UNL     1       7.308  14.505   2.182  1.00  0.00    -0.371 N 
HETATM   16  H   UNL     1       6.702  15.299   2.247  1.00  0.00     0.161 HD
BRANCH  15  17
HETATM   17  C   UNL     1       7.482  13.714   1.020  1.00  0.00     0.165 C 
BRANCH  17  18
HETATM   18  C   UNL     1       6.562  12.520   0.971  1.00  0.00     0.072 C 
HETATM   19  N   UNL     1       6.830  11.259   0.627  1.00  0.00    -0.410 N 
HETATM   20  H   UNL     1       6.984  10.577   1.352  1.00  0.00     0.155 HD
HETATM   21  H   UNL     1       7.449  11.226  -0.197  1.00  0.00     0.155 HD
ENDBRANCH  17  18
ENDBRANCH  15  17
ENDBRANCH   2  15
TORSDOF 6
ENDMDL
MODEL 5
REMARK VINA RESULT:    -4.591     35.150     36.475
REMARK INTER + INTRA:          -6.646
REMARK INTER:                  -6.386
REMARK INTRA:                  -0.260
REMARK UNBOUND:                -0.444
REMARK  6 active torsions:
REMARK  status: ('A' for Active; 'I' for Inactive)
REMARK    1  A    between atoms: C_1  and  C_10 
REMARK    2  A    between atoms: C_4  and  C_18 
REMARK    3  A    between atoms: C_4  and  N_17 
REMARK    4  A    between atoms: N_7  and  N_13 
REMARK    5  A    between atoms: C_10  and  N_17 
REMARK    6  A    between atoms: N_12  and  N_14 
ROOT
HETATM    1  H   UNL     1       2.361 -17.646  13.506  1.00  0.00     0.157 HD
HETATM    2  C   UNL     1       0.747 -16.781  12.934  1.00  0.00     0.112 C 
HETATM    3  N   UNL     1       1.781 -16.852  13.704  1.00  0.00    -0.385 N 
ATOM      4  HN  UNL     1       1.987 -16.172  14.437  1.00  0.00     0.157 HD
ENDROOT
BRANCH   2   5
HETATM    5  C   UNL     1      -0.413 -16.480  13.525  1.00  0.00     0.156 C 
HETATM    6  N   UNL     1      -1.053 -15.723  14.237  1.00  0.00    -0.293 N 
HETATM    7  H   UNL     1      -0.784 -14.734  14.205  1.00  0.00     0.187 HD
BRANCH   6   8
HETATM    8  N   UNL     1      -1.943 -15.939  15.233  1.00  0.00    -0.229 N 
HETATM    9  N   UNL     1      -1.546 -16.911  15.897  1.00  0.00    -0.233 N 
ATOM     10  HN  UNL     1      -0.559 -17.156  15.822  1.00  0.00     0.209 HD
ATOM     11  HN  UNL     1      -2.791 -15.400  15.408  1.00  0.00     0.210 HD
BRANCH   9  12
HETATM   12  N   UNL     1      -2.290 -17.647  16.685  1.00  0.00    -0.325 N 
HETATM   13  H   UNL     1      -1.761 -18.197  17.345  1.00  0.00     0.181 HD
HETATM   14  C   UNL     1      -3.651 -17.294  16.977  1.00  0.00     0.169 C 
ENDBRANCH   9  12
ENDBRANCH   6   8
ENDBRANCH   2   5
BRANCH   2  15
HETATM   15  N   UNL     1       0.940 -16.817  11.543  1.00  0.00    -0.371 N 
HETATM   16  H   UNL     1       1.887 -16.993  11.274  1.00  0.00     0.161 HD
BRANCH  15  17
HETATM   17  C   UNL     1      -0.168 -16.830  10.659  1.00  0.00     0.165 C 
BRANCH  17  18
HETATM   18  C   UNL     1       0.226 -17.025   9.216  1.00  0.00     0.072 C 
HETATM   19  N   UNL     1       1.438 -16.993   8.659  1.00  0.00    -0.410 N 
HETATM   20  H   UNL     1       1.909 -17.861   8.463  1.00  0.00     0.155 HD
HETATM   21  H   UNL     1       2.002 -16.222   9.049  1.00  0.00     0.155 HD
ENDBRANCH  17  18
ENDBRANCH  15  17
ENDBRANCH   2  15
TORSDOF 6
ENDMDL
MODEL 6
REMARK VINA RESULT:    -4.537     41.600     43.191
REMARK INTER + INTRA:          -6.573
REMARK INTER:                  -6.413
REMARK INTRA:                  -0.160
REMARK UNBOUND:                -0.444
REMARK  6 active torsions:
REMARK  status: ('A' for Active; 'I' for Inactive)
REMARK    1  A    between atoms: C_1  and  C_10 
REMARK    2  A    between atoms: C_4  and  C_18 
REMARK    3  A    between atoms: C_4  and  N_17 
REMARK    4  A    between atoms: N_7  and  N_13 
REMARK    5  A    between atoms: C_10  and  N_17 
REMARK    6  A    between atoms: N_12  and  N_14 
ROOT
HETATM    1  H   UNL     1      24.095 -15.213  27.380  1.00  0.00     0.157 HD
HETATM    2  C   UNL     1      23.299 -16.379  26.081  1.00  0.00     0.112 C 
HETATM    3  N   UNL     1      23.216 -15.424  26.947  1.00  0.00    -0.385 N 
ATOM      4  HN  UNL     1      22.347 -14.936  27.166  1.00  0.00     0.157 HD
ENDROOT
BRANCH   2   5
HETATM    5  C   UNL     1      22.332 -17.300  26.120  1.00  0.00     0.156 C 
HETATM    6  N   UNL     1      21.317 -17.722  26.651  1.00  0.00    -0.293 N 
HETATM    7  H   UNL     1      20.699 -17.019  27.072  1.00  0.00     0.187 HD
BRANCH   6   8
HETATM    8  N   UNL     1      20.909 -18.969  26.981  1.00  0.00    -0.229 N 
HETATM    9  N   UNL     1      20.772 -19.013  28.214  1.00  0.00    -0.233 N 
ATOM     10  HN  UNL     1      20.662 -18.125  28.704  1.00  0.00     0.209 HD
ATOM     11  HN  UNL     1      20.743 -19.738  26.331  1.00  0.00     0.210 HD
BRANCH   9  12
HETATM   12  N   UNL     1      20.759 -20.104  28.938  1.00  0.00    -0.325 N 
HETATM   13  H   UNL     1      20.324 -19.986  29.842  1.00  0.00     0.181 HD
HETATM   14  C   UNL     1      20.811 -21.406  28.334  1.00  0.00     0.169 C 
ENDBRANCH   9  12
ENDBRANCH   6   8
ENDBRANCH   2   5
BRANCH   2  15
HETATM   15  N   UNL     1      24.253 -16.277  25.055  1.00  0.00    -0.371 N 
HETATM   16  H   UNL     1      25.164 -16.594  25.321  1.00  0.00     0.161 HD
BRANCH  15  17
HETATM   17  C   UNL     1      23.859 -15.969  23.729  1.00  0.00     0.165 C 
BRANCH  17  18
HETATM   18  C   UNL     1      25.026 -15.751  22.799  1.00  0.00     0.072 C 
HETATM   19  N   UNL     1      25.631 -14.614  22.451  1.00  0.00    -0.410 N 
HETATM   20  H   UNL     1      26.492 -14.359  22.907  1.00  0.00     0.155 HD
HETATM   21  H   UNL     1      24.939 -13.866  22.286  1.00  0.00     0.155 HD
ENDBRANCH  17  18
ENDBRANCH  15  17
ENDBRANCH   2  15
TORSDOF 6
ENDMDL
MODEL 7
REMARK VINA RESULT:    -4.489     34.971     36.790
REMARK INTER + INTRA:          -6.508
REMARK INTER:                  -6.268
REMARK INTRA:                  -0.239
REMARK UNBOUND:                -0.444
REMARK  6 active torsions:
REMARK  status: ('A' for Active; 'I' for Inactive)
REMARK    1  A    between atoms: C_1  and  C_10 
REMARK    2  A    between atoms: C_4  and  C_18 
REMARK    3  A    between atoms: C_4  and  N_17 
REMARK    4  A    between atoms: N_7  and  N_13 
REMARK    5  A    between atoms: C_10  and  N_17 
REMARK    6  A    between atoms: N_12  and  N_14 
ROOT
HETATM    1  H   UNL     1      -4.907 -16.433  14.736  1.00  0.00     0.157 HD
HETATM    2  C   UNL     1      -3.042 -16.848  14.555  1.00  0.00     0.112 C 
HETATM    3  N   UNL     1      -4.026 -16.012  14.507  1.00  0.00    -0.385 N 
ATOM      4  HN  UNL     1      -3.918 -15.027  14.261  1.00  0.00     0.157 HD
ENDROOT
BRANCH   2   5
HETATM    5  C   UNL     1      -2.165 -16.790  13.549  1.00  0.00     0.156 C 
HETATM    6  N   UNL     1      -1.231 -16.214  13.014  1.00  0.00    -0.293 N 
HETATM    7  H   UNL     1      -0.585 -15.720  13.641  1.00  0.00     0.187 HD
BRANCH   6   8
HETATM    8  N   UNL     1      -0.958 -15.918  11.723  1.00  0.00    -0.229 N 
HETATM    9  N   UNL     1      -0.003 -16.623  11.362  1.00  0.00    -0.233 N 
ATOM     10  HN  UNL     1       0.190 -17.464  11.906  1.00  0.00     0.209 HD
ATOM     11  HN  UNL     1      -1.451 -15.235  11.147  1.00  0.00     0.210 HD
BRANCH   9  12
HETATM   12  N   UNL     1       0.779 -16.377  10.340  1.00  0.00    -0.325 N 
HETATM   13  H   UNL     1       1.591 -16.976  10.297  1.00  0.00     0.181 HD
HETATM   14  C   UNL     1       0.278 -15.765   9.142  1.00  0.00     0.169 C 
ENDBRANCH   9  12
ENDBRANCH   6   8
ENDBRANCH   2   5
BRANCH   2  15
HETATM   15  N   UNL     1      -2.851 -17.596  15.729  1.00  0.00    -0.371 N 
HETATM   16  H   UNL     1      -2.429 -18.490  15.571  1.00  0.00     0.161 HD
BRANCH  15  17
HETATM   17  C   UNL     1      -3.037 -17.004  17.003  1.00  0.00     0.165 C 
BRANCH  17  18
HETATM   18  C   UNL     1      -1.747 -16.559  17.645  1.00  0.00     0.072 C 
HETATM   19  N   UNL     1      -0.495 -16.933  17.375  1.00  0.00    -0.410 N 
HETATM   20  H   UNL     1       0.080 -16.338  16.801  1.00  0.00     0.155 HD
HETATM   21  H   UNL     1      -0.442 -17.950  17.210  1.00  0.00     0.155 HD
ENDBRANCH  17  18
ENDBRANCH  15  17
ENDBRANCH   2  15
TORSDOF 6
ENDMDL
MODEL 8
REMARK VINA RESULT:    -4.417      7.551      9.502
REMARK INTER + INTRA:          -6.411
REMARK INTER:                  -6.224
REMARK INTRA:                  -0.188
REMARK UNBOUND:                -0.444
REMARK  6 active torsions:
REMARK  status: ('A' for Active; 'I' for Inactive)
REMARK    1  A    between atoms: C_1  and  C_10 
REMARK    2  A    between atoms: C_4  and  C_18 
REMARK    3  A    between atoms: C_4  and  N_17 
REMARK    4  A    between atoms: N_7  and  N_13 
REMARK    5  A    between atoms: C_10  and  N_17 
REMARK    6  A    between atoms: N_12  and  N_14 
ROOT
HETATM    1  H   UNL     1       4.758  11.294   4.593  1.00  0.00     0.157 HD
HETATM    2  C   UNL     1       5.969   9.805   4.608  1.00  0.00     0.112 C 
HETATM    3  N   UNL     1       4.868  10.365   4.230  1.00  0.00    -0.385 N 
ATOM      4  HN  UNL     1       4.182   9.911   3.625  1.00  0.00     0.157 HD
ENDROOT
BRANCH   2   5
HETATM    5  C   UNL     1       5.881   8.533   5.005  1.00  0.00     0.156 C 
HETATM    6  N   UNL     1       6.448   7.497   5.313  1.00  0.00    -0.293 N 
HETATM    7  H   UNL     1       7.368   7.598   5.756  1.00  0.00     0.187 HD
BRANCH   6   8
HETATM    8  N   UNL     1       6.205   6.199   5.018  1.00  0.00    -0.229 N 
HETATM    9  N   UNL     1       4.975   6.040   4.979  1.00  0.00    -0.233 N 
ATOM     10  HN  UNL     1       4.399   6.871   4.845  1.00  0.00     0.209 HD
ATOM     11  HN  UNL     1       6.909   5.478   4.857  1.00  0.00     0.210 HD
BRANCH   9  12
HETATM   12  N   UNL     1       4.353   4.892   5.095  1.00  0.00    -0.325 N 
HETATM   13  H   UNL     1       4.935   4.151   5.457  1.00  0.00     0.181 HD
HETATM   14  C   UNL     1       2.928   4.824   5.253  1.00  0.00     0.169 C 
ENDBRANCH   9  12
ENDBRANCH   6   8
ENDBRANCH   2   5
BRANCH   2  15
HETATM   15  N   UNL     1       7.179  10.483   4.387  1.00  0.00    -0.371 N 
HETATM   16  H   UNL     1       7.935  10.148   4.951  1.00  0.00     0.161 HD
BRANCH  15  17
HETATM   17  C   UNL     1       7.318  11.381   3.300  1.00  0.00     0.165 C 
BRANCH  17  18
HETATM   18  C   UNL     1       8.095  12.625   3.653  1.00  0.00     0.072 C 
HETATM   19  N   UNL     1       9.349  12.956   3.341  1.00  0.00    -0.410 N 
HETATM   20  H   UNL     1       9.512  13.585   2.572  1.00  0.00     0.155 HD
HETATM   21  H   UNL     1       9.978  12.143   3.433  1.00  0.00     0.155 HD
ENDBRANCH  17  18
ENDBRANCH  15  17
ENDBRANCH   2  15
TORSDOF 6
ENDMDL
MODEL 9
REMARK VINA RESULT:    -4.406     36.050     38.020
REMARK INTER + INTRA:          -6.396
REMARK INTER:                  -6.162
REMARK INTRA:                  -0.235
REMARK UNBOUND:                -0.444
REMARK  6 active torsions:
REMARK  status: ('A' for Active; 'I' for Inactive)
REMARK    1  A    between atoms: C_1  and  C_10 
REMARK    2  A    between atoms: C_4  and  C_18 
REMARK    3  A    between atoms: C_4  and  N_17 
REMARK    4  A    between atoms: N_7  and  N_13 
REMARK    5  A    between atoms: C_10  and  N_17 
REMARK    6  A    between atoms: N_12  and  N_14 
ROOT
HETATM    1  H   UNL     1       4.813 -21.880   7.528  1.00  0.00     0.157 HD
HETATM    2  C   UNL     1       3.189 -21.043   8.114  1.00  0.00     0.112 C 
HETATM    3  N   UNL     1       4.181 -21.137   7.293  1.00  0.00    -0.385 N 
ATOM      4  HN  UNL     1       4.310 -20.521   6.489  1.00  0.00     0.157 HD
ENDROOT
BRANCH   2   5
HETATM    5  C   UNL     1       2.863 -19.810   8.512  1.00  0.00     0.156 C 
HETATM    6  N   UNL     1       2.799 -18.991   9.414  1.00  0.00    -0.293 N 
HETATM    7  H   UNL     1       3.512 -19.067  10.148  1.00  0.00     0.187 HD
BRANCH   6   8
HETATM    8  N   UNL     1       1.850 -18.094   9.768  1.00  0.00    -0.229 N 
HETATM    9  N   UNL     1       1.851 -17.183   8.924  1.00  0.00    -0.233 N 
ATOM     10  HN  UNL     1       2.267 -17.388   8.016  1.00  0.00     0.209 HD
ATOM     11  HN  UNL     1       1.241 -18.154  10.584  1.00  0.00     0.210 HD
BRANCH   9  12
HETATM   12  N   UNL     1       1.362 -15.981   9.104  1.00  0.00    -0.325 N 
HETATM   13  H   UNL     1       1.867 -15.260   8.609  1.00  0.00     0.181 HD
HETATM   14  C   UNL     1      -0.014 -15.776   9.458  1.00  0.00     0.169 C 
ENDBRANCH   9  12
ENDBRANCH   6   8
ENDBRANCH   2   5
BRANCH   2  15
HETATM   15  N   UNL     1       2.411 -22.186   8.363  1.00  0.00    -0.371 N 
HETATM   16  H   UNL     1       2.047 -22.613   7.534  1.00  0.00     0.161 HD
BRANCH  15  17
HETATM   17  C   UNL     1       2.370 -22.766   9.656  1.00  0.00     0.165 C 
BRANCH  17  18
HETATM   18  C   UNL     1       2.783 -24.217   9.668  1.00  0.00     0.072 C 
HETATM   19  N   UNL     1       3.691 -24.845   8.920  1.00  0.00    -0.410 N 
HETATM   20  H   UNL     1       4.605 -25.021   9.304  1.00  0.00     0.155 HD
HETATM   21  H   UNL     1       3.641 -24.529   7.938  1.00  0.00     0.155 HD
ENDBRANCH  17  18
ENDBRANCH  15  17
ENDBRANCH   2  15
TORSDOF 6
ENDMDL
