MODEL 1
REMARK VINA RESULT:    -5.896      0.000      0.000
REMARK INTER + INTRA:          -9.447
REMARK INTER:                  -8.653
REMARK INTRA:                  -0.794
REMARK UNBOUND:                -0.794
REMARK  9 active torsions:
REMARK  status: ('A' for Active; 'I' for Inactive)
REMARK    1  A    between atoms: C_1  and  N_6 
REMARK    2  A    between atoms: C_1  and  O_2 
REMARK    3  A    between atoms: C_1  and  O_4 
REMARK    4  A    between atoms: N_6  and  C_8 
REMARK    5  A    between atoms: C_8  and  C_9 
REMARK    6  A    between atoms: C_9  and  N_12 
REMARK    7  A    between atoms: C_9  and  C_11 
REMARK       I    between atoms: N_12  and  C_14 
REMARK       I    between atoms: C_14  and  N_16 
REMARK    8  A    between atoms: N_16  and  C_18 
REMARK    9  A    between atoms: C_20  and  C_22 
ROOT
HETATM    1  N   UNL     1       8.503  -3.133  22.179  1.00  0.00    -0.308 N 
ATOM      2  HN  UNL     1       9.171  -3.897  22.074  1.00  0.00     0.170 HD
HETATM    3  C   UNL     1       9.177  -2.002  22.189  1.00  0.00     0.324 C 
HETATM    4  O   UNL     1       9.053  -1.039  21.445  1.00  0.00    -0.247 OA
HETATM    5  N   UNL     1      10.093  -2.173  23.167  1.00  0.00    -0.317 N 
ATOM      6  HN  UNL     1       9.845  -2.853  23.885  1.00  0.00     0.170 HD
ENDROOT
BRANCH   1   7
HETATM    7  C   UNL     1       7.316  -3.647  22.252  1.00  0.00     0.047 C 
BRANCH   7   8
HETATM    8  C   UNL     1       6.196  -2.896  21.854  1.00  0.00     0.116 C 
BRANCH   8   9
HETATM    9  N   UNL     1       5.529  -2.175  21.195  1.00  0.00    -0.350 N 
ATOM     10  HN  UNL     1       4.540  -2.419  21.157  1.00  0.00     0.163 HD
BRANCH   9  11
HETATM   11  C   UNL     1       5.923  -0.917  20.382  1.00  0.00     0.365 C 
BRANCH  11  12
HETATM   12  O   UNL     1       4.928  -0.657  19.555  1.00  0.00    -0.355 OA
ATOM     13  HO  UNL     1       4.476  -1.492  19.600  1.00  0.00     0.214 HD
ENDBRANCH  11  12
BRANCH  11  14
HETATM   14  O   UNL     1       6.280   0.036  21.264  1.00  0.00    -0.355 OA
ATOM     15  HO  UNL     1       7.221   0.139  21.344  1.00  0.00     0.214 HD
ENDBRANCH  11  14
ENDBRANCH   9  11
ENDBRANCH   8   9
ENDBRANCH   7   8
BRANCH   7  16
HETATM   16  C   UNL     1       7.311  -4.984  22.763  1.00  0.00    -0.000 C 
HETATM   17  C   UNL     1       6.876  -6.034  21.916  1.00  0.00     0.038 C 
ENDBRANCH   7  16
ENDBRANCH   1   7
BRANCH   5  18
HETATM   18  C   UNL     1      11.229  -1.601  23.318  1.00  0.00     0.123 C 
HETATM   19  C   UNL     1      11.475  -0.605  24.228  1.00  0.00     0.125 C 
HETATM   20 CL   UNL     1      10.177  -0.006  25.226  1.00  0.00    -0.075 Cl
BRANCH  19  21
HETATM   21  C   UNL     1      12.834  -0.140  24.205  1.00  0.00     0.222 C 
HETATM   22  O   UNL     1      13.853  -0.896  24.243  1.00  0.00    -0.643 OA
HETATM   23  O   UNL     1      12.679   1.029  24.158  1.00  0.00    -0.643 OA
ENDBRANCH  19  21
ENDBRANCH   5  18
TORSDOF 9
ENDMDL
MODEL 2
REMARK VINA RESULT:    -5.808      2.043      3.413
REMARK INTER + INTRA:          -9.318
REMARK INTER:                  -8.309
REMARK INTRA:                  -1.009
REMARK UNBOUND:                -0.794
REMARK  9 active torsions:
REMARK  status: ('A' for Active; 'I' for Inactive)
REMARK    1  A    between atoms: C_1  and  N_6 
REMARK    2  A    between atoms: C_1  and  O_2 
REMARK    3  A    between atoms: C_1  and  O_4 
REMARK    4  A    between atoms: N_6  and  C_8 
REMARK    5  A    between atoms: C_8  and  C_9 
REMARK    6  A    between atoms: C_9  and  N_12 
REMARK    7  A    between atoms: C_9  and  C_11 
REMARK       I    between atoms: N_12  and  C_14 
REMARK       I    between atoms: C_14  and  N_16 
REMARK    8  A    between atoms: N_16  and  C_18 
REMARK    9  A    between atoms: C_20  and  C_22 
ROOT
HETATM    1  N   UNL     1       8.494  -0.208  20.259  1.00  0.00    -0.308 N 
ATOM      2  HN  UNL     1       9.009  -0.771  19.581  1.00  0.00     0.170 HD
HETATM    3  C   UNL     1       9.360   0.282  21.121  1.00  0.00     0.324 C 
HETATM    4  O   UNL     1       9.570   1.455  21.400  1.00  0.00    -0.247 OA
HETATM    5  N   UNL     1      10.018  -0.803  21.581  1.00  0.00    -0.317 N 
ATOM      6  HN  UNL     1       9.509  -1.684  21.515  1.00  0.00     0.170 HD
ENDROOT
BRANCH   1   7
HETATM    7  C   UNL     1       7.239  -0.249  19.942  1.00  0.00     0.047 C 
BRANCH   7   8
HETATM    8  C   UNL     1       6.329  -0.953  20.749  1.00  0.00     0.116 C 
BRANCH   8   9
HETATM    9  N   UNL     1       5.935  -1.630  21.636  1.00  0.00    -0.350 N 
ATOM     10  HN  UNL     1       5.131  -1.255  22.139  1.00  0.00     0.163 HD
BRANCH   9  11
HETATM   11  C   UNL     1       6.449  -2.997  22.152  1.00  0.00     0.365 C 
BRANCH  11  12
HETATM   12  O   UNL     1       5.857  -3.934  21.436  1.00  0.00    -0.355 OA
ATOM     13  HO  UNL     1       5.102  -3.440  21.140  1.00  0.00     0.214 HD
ENDBRANCH  11  12
BRANCH  11  14
HETATM   14  O   UNL     1       7.796  -2.949  22.145  1.00  0.00    -0.355 OA
ATOM     15  HO  UNL     1       8.178  -3.295  21.348  1.00  0.00     0.214 HD
ENDBRANCH  11  14
ENDBRANCH   9  11
ENDBRANCH   8   9
ENDBRANCH   7   8
BRANCH   7  16
HETATM   16  C   UNL     1       6.938   0.466  18.739  1.00  0.00    -0.000 C 
HETATM   17  C   UNL     1       5.582   0.747  18.437  1.00  0.00     0.038 C 
ENDBRANCH   7  16
ENDBRANCH   1   7
BRANCH   5  18
HETATM   18  C   UNL     1      11.193  -0.882  22.087  1.00  0.00     0.123 C 
HETATM   19  C   UNL     1      11.446  -1.051  23.423  1.00  0.00     0.125 C 
HETATM   20 CL   UNL     1      10.120  -1.114  24.554  1.00  0.00    -0.075 Cl
BRANCH  19  21
HETATM   21  C   UNL     1      12.848  -1.119  23.730  1.00  0.00     0.222 C 
HETATM   22  O   UNL     1      13.433  -0.385  24.584  1.00  0.00    -0.643 OA
HETATM   23  O   UNL     1      13.205  -1.972  22.997  1.00  0.00    -0.643 OA
ENDBRANCH  19  21
ENDBRANCH   5  18
TORSDOF 9
ENDMDL
MODEL 3
REMARK VINA RESULT:    -5.744      1.813      2.291
REMARK INTER + INTRA:          -9.224
REMARK INTER:                  -8.262
REMARK INTRA:                  -0.962
REMARK UNBOUND:                -0.794
REMARK  9 active torsions:
REMARK  status: ('A' for Active; 'I' for Inactive)
REMARK    1  A    between atoms: C_1  and  N_6 
REMARK    2  A    between atoms: C_1  and  O_2 
REMARK    3  A    between atoms: C_1  and  O_4 
REMARK    4  A    between atoms: N_6  and  C_8 
REMARK    5  A    between atoms: C_8  and  C_9 
REMARK    6  A    between atoms: C_9  and  N_12 
REMARK    7  A    between atoms: C_9  and  C_11 
REMARK       I    between atoms: N_12  and  C_14 
REMARK       I    between atoms: C_14  and  N_16 
REMARK    8  A    between atoms: N_16  and  C_18 
REMARK    9  A    between atoms: C_20  and  C_22 
ROOT
HETATM    1  N   UNL     1       7.980  -1.762  21.525  1.00  0.00    -0.308 N 
ATOM      2  HN  UNL     1       8.276  -2.706  21.274  1.00  0.00     0.170 HD
HETATM    3  C   UNL     1       9.059  -1.024  21.676  1.00  0.00     0.324 C 
HETATM    4  O   UNL     1       9.358   0.010  21.093  1.00  0.00    -0.247 OA
HETATM    5  N   UNL     1       9.802  -1.706  22.573  1.00  0.00    -0.317 N 
ATOM      6  HN  UNL     1       9.282  -2.329  23.190  1.00  0.00     0.170 HD
ENDROOT
BRANCH   1   7
HETATM    7  C   UNL     1       6.685  -1.748  21.574  1.00  0.00     0.047 C 
BRANCH   7   8
HETATM    8  C   UNL     1       5.944  -1.195  20.515  1.00  0.00     0.116 C 
BRANCH   8   9
HETATM    9  N   UNL     1       5.552  -0.384  19.749  1.00  0.00    -0.350 N 
ATOM     10  HN  UNL     1       4.614  -0.031  19.940  1.00  0.00     0.163 HD
BRANCH   9  11
HETATM   11  C   UNL     1       6.238   0.227  18.503  1.00  0.00     0.365 C 
BRANCH  11  12
HETATM   12  O   UNL     1       7.542   0.120  18.682  1.00  0.00    -0.355 OA
ATOM     13  HO  UNL     1       7.823   0.202  17.779  1.00  0.00     0.214 HD
ENDBRANCH  11  12
BRANCH  11  14
HETATM   14  O   UNL     1       5.696  -0.360  17.418  1.00  0.00    -0.355 OA
ATOM     15  HO  UNL     1       6.120  -0.108  16.606  1.00  0.00     0.214 HD
ENDBRANCH  11  14
ENDBRANCH   9  11
ENDBRANCH   8   9
ENDBRANCH   7   8
BRANCH   7  16
HETATM   16  C   UNL     1       6.160  -2.329  22.773  1.00  0.00    -0.000 C 
HETATM   17  C   UNL     1       6.352  -1.645  24.000  1.00  0.00     0.038 C 
ENDBRANCH   7  16
ENDBRANCH   1   7
BRANCH   5  18
HETATM   18  C   UNL     1      11.070  -1.682  22.757  1.00  0.00     0.123 C 
HETATM   19  C   UNL     1      11.688  -1.000  23.773  1.00  0.00     0.125 C 
HETATM   20 CL   UNL     1      10.736  -0.045  24.878  1.00  0.00    -0.075 Cl
BRANCH  19  21
HETATM   21  C   UNL     1      13.118  -1.143  23.764  1.00  0.00     0.222 C 
HETATM   22  O   UNL     1      13.910  -0.485  24.505  1.00  0.00    -0.643 OA
HETATM   23  O   UNL     1      13.263  -1.966  22.931  1.00  0.00    -0.643 OA
ENDBRANCH  19  21
ENDBRANCH   5  18
TORSDOF 9
ENDMDL
MODEL 4
REMARK VINA RESULT:    -5.722      3.267      3.552
REMARK INTER + INTRA:          -9.192
REMARK INTER:                  -8.628
REMARK INTRA:                  -0.564
REMARK UNBOUND:                -0.794
REMARK  9 active torsions:
REMARK  status: ('A' for Active; 'I' for Inactive)
REMARK    1  A    between atoms: C_1  and  N_6 
REMARK    2  A    between atoms: C_1  and  O_2 
REMARK    3  A    between atoms: C_1  and  O_4 
REMARK    4  A    between atoms: N_6  and  C_8 
REMARK    5  A    between atoms: C_8  and  C_9 
REMARK    6  A    between atoms: C_9  and  N_12 
REMARK    7  A    between atoms: C_9  and  C_11 
REMARK       I    between atoms: N_12  and  C_14 
REMARK       I    between atoms: C_14  and  N_16 
REMARK    8  A    between atoms: N_16  and  C_18 
REMARK    9  A    between atoms: C_20  and  C_22 
ROOT
HETATM    1  N   UNL     1       8.392   0.640  21.426  1.00  0.00    -0.308 N 
ATOM      2  HN  UNL     1       8.364  -0.254  20.936  1.00  0.00     0.170 HD
HETATM    3  C   UNL     1       9.641   0.879  21.766  1.00  0.00     0.324 C 
HETATM    4  O   UNL     1      10.334   1.845  21.475  1.00  0.00    -0.247 OA
HETATM    5  N   UNL     1      10.012  -0.222  22.452  1.00  0.00    -0.317 N 
ATOM      6  HN  UNL     1       9.252  -0.747  22.883  1.00  0.00     0.170 HD
ENDROOT
BRANCH   1   7
HETATM    7  C   UNL     1       7.184   1.107  21.477  1.00  0.00     0.047 C 
BRANCH   7   8
HETATM    8  C   UNL     1       6.372   1.091  20.329  1.00  0.00     0.116 C 
BRANCH   8   9
HETATM    9  N   UNL     1       5.643   0.668  19.499  1.00  0.00    -0.350 N 
ATOM     10  HN  UNL     1       4.730   0.367  19.842  1.00  0.00     0.163 HD
BRANCH   9  11
HETATM   11  C   UNL     1       5.856   0.499  17.975  1.00  0.00     0.365 C 
BRANCH  11  12
HETATM   12  O   UNL     1       6.995   1.093  17.670  1.00  0.00    -0.355 OA
ATOM     13  HO  UNL     1       6.895   1.880  18.192  1.00  0.00     0.214 HD
ENDBRANCH  11  12
BRANCH  11  14
HETATM   14  O   UNL     1       5.729  -0.813  17.694  1.00  0.00    -0.355 OA
ATOM     15  HO  UNL     1       4.959  -1.206  18.087  1.00  0.00     0.214 HD
ENDBRANCH  11  14
ENDBRANCH   9  11
ENDBRANCH   8   9
ENDBRANCH   7   8
BRANCH   7  16
HETATM   16  C   UNL     1       6.826   1.606  22.769  1.00  0.00    -0.000 C 
HETATM   17  C   UNL     1       6.441   0.682  23.773  1.00  0.00     0.038 C 
ENDBRANCH   7  16
ENDBRANCH   1   7
BRANCH   5  18
HETATM   18  C   UNL     1      11.186  -0.702  22.636  1.00  0.00     0.123 C 
HETATM   19  C   UNL     1      11.944  -0.476  23.756  1.00  0.00     0.125 C 
HETATM   20 CL   UNL     1      11.338   0.568  25.014  1.00  0.00    -0.075 Cl
BRANCH  19  21
HETATM   21  C   UNL     1      13.219  -1.137  23.720  1.00  0.00     0.222 C 
HETATM   22  O   UNL     1      13.502  -2.111  22.958  1.00  0.00    -0.643 OA
HETATM   23  O   UNL     1      13.813  -0.539  24.545  1.00  0.00    -0.643 OA
ENDBRANCH  19  21
ENDBRANCH   5  18
TORSDOF 9
ENDMDL
MODEL 5
REMARK VINA RESULT:    -5.649      4.293      6.235
REMARK INTER + INTRA:          -9.084
REMARK INTER:                  -7.899
REMARK INTRA:                  -1.185
REMARK UNBOUND:                -0.794
REMARK  9 active torsions:
REMARK  status: ('A' for Active; 'I' for Inactive)
REMARK    1  A    between atoms: C_1  and  N_6 
REMARK    2  A    between atoms: C_1  and  O_2 
REMARK    3  A    between atoms: C_1  and  O_4 
REMARK    4  A    between atoms: N_6  and  C_8 
REMARK    5  A    between atoms: C_8  and  C_9 
REMARK    6  A    between atoms: C_9  and  N_12 
REMARK    7  A    between atoms: C_9  and  C_11 
REMARK       I    between atoms: N_12  and  C_14 
REMARK       I    between atoms: C_14  and  N_16 
REMARK    8  A    between atoms: N_16  and  C_18 
REMARK    9  A    between atoms: C_20  and  C_22 
ROOT
HETATM    1  N   UNL     1       6.815  -1.301  21.527  1.00  0.00    -0.308 N 
ATOM      2  HN  UNL     1       6.570  -0.893  22.430  1.00  0.00     0.170 HD
HETATM    3  C   UNL     1       6.038  -2.345  21.329  1.00  0.00     0.324 C 
HETATM    4  O   UNL     1       5.273  -2.556  20.397  1.00  0.00    -0.247 OA
HETATM    5  N   UNL     1       6.222  -3.106  22.429  1.00  0.00    -0.317 N 
ATOM      6  HN  UNL     1       7.108  -2.967  22.915  1.00  0.00     0.170 HD
ENDROOT
BRANCH   1   7
HETATM    7  C   UNL     1       7.770  -0.592  21.014  1.00  0.00     0.047 C 
BRANCH   7   8
HETATM    8  C   UNL     1       7.561   0.113  19.817  1.00  0.00     0.116 C 
BRANCH   8   9
HETATM    9  N   UNL     1       6.982   0.569  18.891  1.00  0.00    -0.350 N 
ATOM     10  HN  UNL     1       7.497   1.276  18.367  1.00  0.00     0.163 HD
BRANCH   9  11
HETATM   11  C   UNL     1       5.564   0.259  18.350  1.00  0.00     0.365 C 
BRANCH  11  12
HETATM   12  O   UNL     1       5.657  -0.830  17.611  1.00  0.00    -0.355 OA
ATOM     13  HO  UNL     1       5.316  -0.485  16.794  1.00  0.00     0.214 HD
ENDBRANCH  11  12
BRANCH  11  14
HETATM   14  O   UNL     1       4.727   0.242  19.405  1.00  0.00    -0.355 OA
ATOM     15  HO  UNL     1       4.025  -0.391  19.314  1.00  0.00     0.214 HD
ENDBRANCH  11  14
ENDBRANCH   9  11
ENDBRANCH   8   9
ENDBRANCH   7   8
BRANCH   7  16
HETATM   16  C   UNL     1       8.978  -0.634  21.782  1.00  0.00    -0.000 C 
HETATM   17  C   UNL     1       9.895   0.440  21.665  1.00  0.00     0.038 C 
ENDBRANCH   7  16
ENDBRANCH   1   7
BRANCH   5  18
HETATM   18  C   UNL     1       5.439  -3.977  22.950  1.00  0.00     0.123 C 
HETATM   19  C   UNL     1       5.468  -5.314  22.650  1.00  0.00     0.125 C 
HETATM   20 CL   UNL     1       6.585  -5.909  21.450  1.00  0.00    -0.075 Cl
BRANCH  19  21
HETATM   21  C   UNL     1       4.493  -6.079  23.379  1.00  0.00     0.222 C 
HETATM   22  O   UNL     1       4.773  -6.920  24.286  1.00  0.00    -0.643 OA
HETATM   23  O   UNL     1       3.489  -5.702  22.888  1.00  0.00    -0.643 OA
ENDBRANCH  19  21
ENDBRANCH   5  18
TORSDOF 9
ENDMDL
MODEL 6
REMARK VINA RESULT:    -5.592      2.924      3.998
REMARK INTER + INTRA:          -9.002
REMARK INTER:                  -7.942
REMARK INTRA:                  -1.060
REMARK UNBOUND:                -0.794
REMARK  9 active torsions:
REMARK  status: ('A' for Active; 'I' for Inactive)
REMARK    1  A    between atoms: C_1  and  N_6 
REMARK    2  A    between atoms: C_1  and  O_2 
REMARK    3  A    between atoms: C_1  and  O_4 
REMARK    4  A    between atoms: N_6  and  C_8 
REMARK    5  A    between atoms: C_8  and  C_9 
REMARK    6  A    between atoms: C_9  and  N_12 
REMARK    7  A    between atoms: C_9  and  C_11 
REMARK       I    between atoms: N_12  and  C_14 
REMARK       I    between atoms: C_14  and  N_16 
REMARK    8  A    between atoms: N_16  and  C_18 
REMARK    9  A    between atoms: C_20  and  C_22 
ROOT
HETATM    1  N   UNL     1       8.009  -4.278  22.909  1.00  0.00    -0.308 N 
ATOM      2  HN  UNL     1       8.856  -4.729  22.563  1.00  0.00     0.170 HD
HETATM    3  C   UNL     1       8.176  -2.975  22.821  1.00  0.00     0.324 C 
HETATM    4  O   UNL     1       7.489  -2.161  22.218  1.00  0.00    -0.247 OA
HETATM    5  N   UNL     1       9.325  -2.745  23.491  1.00  0.00    -0.317 N 
ATOM      6  HN  UNL     1       9.570  -3.442  24.194  1.00  0.00     0.170 HD
ENDROOT
BRANCH   1   7
HETATM    7  C   UNL     1       7.179  -5.207  23.266  1.00  0.00     0.047 C 
BRANCH   7   8
HETATM    8  C   UNL     1       6.678  -5.240  24.579  1.00  0.00     0.116 C 
BRANCH   8   9
HETATM    9  N   UNL     1       6.683  -5.307  25.760  1.00  0.00    -0.350 N 
ATOM     10  HN  UNL     1       5.880  -5.786  26.167  1.00  0.00     0.163 HD
BRANCH   9  11
HETATM   11  C   UNL     1       7.717  -4.781  26.786  1.00  0.00     0.365 C 
BRANCH  11  12
HETATM   12  O   UNL     1       8.091  -5.808  27.527  1.00  0.00    -0.355 OA
ATOM     13  HO  UNL     1       7.234  -6.156  27.741  1.00  0.00     0.214 HD
ENDBRANCH  11  12
BRANCH  11  14
HETATM   14  O   UNL     1       8.665  -4.117  26.096  1.00  0.00    -0.355 OA
ATOM     15  HO  UNL     1       8.383  -3.258  25.806  1.00  0.00     0.214 HD
ENDBRANCH  11  14
ENDBRANCH   9  11
ENDBRANCH   8   9
ENDBRANCH   7   8
BRANCH   7  16
HETATM   16  C   UNL     1       6.875  -6.126  22.212  1.00  0.00    -0.000 C 
HETATM   17  C   UNL     1       6.120  -5.666  21.104  1.00  0.00     0.038 C 
ENDBRANCH   7  16
ENDBRANCH   1   7
BRANCH   5  18
HETATM   18  C   UNL     1      10.152  -1.774  23.368  1.00  0.00     0.123 C 
HETATM   19  C   UNL     1      10.308  -0.773  24.292  1.00  0.00     0.125 C 
HETATM   20 CL   UNL     1       9.302  -0.745  25.716  1.00  0.00    -0.075 Cl
BRANCH  19  21
HETATM   21  C   UNL     1      11.308   0.189  23.920  1.00  0.00     0.222 C 
HETATM   22  O   UNL     1      11.205   0.992  22.943  1.00  0.00    -0.643 OA
HETATM   23  O   UNL     1      12.142  -0.018  24.729  1.00  0.00    -0.643 OA
ENDBRANCH  19  21
ENDBRANCH   5  18
TORSDOF 9
ENDMDL
MODEL 7
REMARK VINA RESULT:    -5.328      3.352      4.625
REMARK INTER + INTRA:          -8.614
REMARK INTER:                  -7.752
REMARK INTRA:                  -0.862
REMARK UNBOUND:                -0.794
REMARK  9 active torsions:
REMARK  status: ('A' for Active; 'I' for Inactive)
REMARK    1  A    between atoms: C_1  and  N_6 
REMARK    2  A    between atoms: C_1  and  O_2 
REMARK    3  A    between atoms: C_1  and  O_4 
REMARK    4  A    between atoms: N_6  and  C_8 
REMARK    5  A    between atoms: C_8  and  C_9 
REMARK    6  A    between atoms: C_9  and  N_12 
REMARK    7  A    between atoms: C_9  and  C_11 
REMARK       I    between atoms: N_12  and  C_14 
REMARK       I    between atoms: C_14  and  N_16 
REMARK    8  A    between atoms: N_16  and  C_18 
REMARK    9  A    between atoms: C_20  and  C_22 
ROOT
HETATM    1  N   UNL     1       8.359  -0.900  22.045  1.00  0.00    -0.308 N 
ATOM      2  HN  UNL     1       8.523  -0.459  22.951  1.00  0.00     0.170 HD
HETATM    3  C   UNL     1       7.842  -2.091  22.261  1.00  0.00     0.324 C 
HETATM    4  O   UNL     1       6.779  -2.541  21.853  1.00  0.00    -0.247 OA
HETATM    5  N   UNL     1       8.720  -2.685  23.096  1.00  0.00    -0.317 N 
ATOM      6  HN  UNL     1       9.674  -2.326  23.057  1.00  0.00     0.170 HD
ENDROOT
BRANCH   1   7
HETATM    7  C   UNL     1       8.740  -0.073  21.124  1.00  0.00     0.047 C 
BRANCH   7   8
HETATM    8  C   UNL     1       7.937   0.140  19.990  1.00  0.00     0.116 C 
BRANCH   8   9
HETATM    9  N   UNL     1       7.316  -0.112  19.014  1.00  0.00    -0.350 N 
ATOM     10  HN  UNL     1       7.877  -0.262  18.175  1.00  0.00     0.163 HD
BRANCH   9  11
HETATM   11  C   UNL     1       5.787  -0.249  18.811  1.00  0.00     0.365 C 
BRANCH  11  12
HETATM   12  O   UNL     1       5.588  -0.585  17.550  1.00  0.00    -0.355 OA
ATOM     13  HO  UNL     1       6.467  -0.871  17.332  1.00  0.00     0.214 HD
ENDBRANCH  11  12
BRANCH  11  14
HETATM   14  O   UNL     1       5.327  -1.077  19.769  1.00  0.00    -0.355 OA
ATOM     15  HO  UNL     1       4.438  -1.372  19.613  1.00  0.00     0.214 HD
ENDBRANCH  11  14
ENDBRANCH   9  11
ENDBRANCH   8   9
ENDBRANCH   7   8
BRANCH   7  16
HETATM   16  C   UNL     1      10.002   0.541  21.403  1.00  0.00    -0.000 C 
HETATM   17  C   UNL     1      10.020   1.760  22.127  1.00  0.00     0.038 C 
ENDBRANCH   7  16
ENDBRANCH   1   7
BRANCH   5  18
HETATM   18  C   UNL     1       8.523  -3.636  23.933  1.00  0.00     0.123 C 
HETATM   19  C   UNL     1       8.397  -3.458  25.286  1.00  0.00     0.125 C 
HETATM   20 CL   UNL     1       8.564  -1.862  25.968  1.00  0.00    -0.075 Cl
BRANCH  19  21
HETATM   21  C   UNL     1       8.171  -4.684  26.000  1.00  0.00     0.222 C 
HETATM   22  O   UNL     1       8.679  -4.962  27.129  1.00  0.00    -0.643 OA
HETATM   23  O   UNL     1       7.458  -5.257  25.256  1.00  0.00    -0.643 OA
ENDBRANCH  19  21
ENDBRANCH   5  18
TORSDOF 9
ENDMDL
MODEL 8
REMARK VINA RESULT:    -5.300      3.529      4.702
REMARK INTER + INTRA:          -8.573
REMARK INTER:                  -7.354
REMARK INTRA:                  -1.219
REMARK UNBOUND:                -0.794
REMARK  9 active torsions:
REMARK  status: ('A' for Active; 'I' for Inactive)
REMARK    1  A    between atoms: C_1  and  N_6 
REMARK    2  A    between atoms: C_1  and  O_2 
REMARK    3  A    between atoms: C_1  and  O_4 
REMARK    4  A    between atoms: N_6  and  C_8 
REMARK    5  A    between atoms: C_8  and  C_9 
REMARK    6  A    between atoms: C_9  and  N_12 
REMARK    7  A    between atoms: C_9  and  C_11 
REMARK       I    between atoms: N_12  and  C_14 
REMARK       I    between atoms: C_14  and  N_16 
REMARK    8  A    between atoms: N_16  and  C_18 
REMARK    9  A    between atoms: C_20  and  C_22 
ROOT
HETATM    1  N   UNL     1       6.995  -3.884  23.630  1.00  0.00    -0.308 N 
ATOM      2  HN  UNL     1       6.410  -3.192  23.160  1.00  0.00     0.170 HD
HETATM    3  C   UNL     1       8.160  -3.326  23.884  1.00  0.00     0.324 C 
HETATM    4  O   UNL     1       8.717  -3.191  24.966  1.00  0.00    -0.247 OA
HETATM    5  N   UNL     1       8.574  -2.868  22.684  1.00  0.00    -0.317 N 
ATOM      6  HN  UNL     1       8.183  -3.347  21.873  1.00  0.00     0.170 HD
ENDROOT
BRANCH   1   7
HETATM    7  C   UNL     1       6.307  -4.975  23.749  1.00  0.00     0.047 C 
BRANCH   7   8
HETATM    8  C   UNL     1       6.032  -5.501  25.023  1.00  0.00     0.116 C 
BRANCH   8   9
HETATM    9  N   UNL     1       6.222  -5.846  26.139  1.00  0.00    -0.350 N 
ATOM     10  HN  UNL     1       5.508  -6.463  26.526  1.00  0.00     0.163 HD
BRANCH   9  11
HETATM   11  C   UNL     1       7.386  -5.508  27.104  1.00  0.00     0.365 C 
BRANCH  11  12
HETATM   12  O   UNL     1       8.505  -5.891  26.517  1.00  0.00    -0.355 OA
ATOM     13  HO  UNL     1       8.536  -6.788  26.828  1.00  0.00     0.214 HD
ENDBRANCH  11  12
BRANCH  11  14
HETATM   14  O   UNL     1       7.260  -4.212  27.447  1.00  0.00    -0.355 OA
ATOM     15  HO  UNL     1       6.728  -3.714  26.837  1.00  0.00     0.214 HD
ENDBRANCH  11  14
ENDBRANCH   9  11
ENDBRANCH   8   9
ENDBRANCH   7   8
BRANCH   7  16
HETATM   16  C   UNL     1       5.902  -5.526  22.492  1.00  0.00    -0.000 C 
HETATM   17  C   UNL     1       6.866  -6.208  21.707  1.00  0.00     0.038 C 
ENDBRANCH   7  16
ENDBRANCH   1   7
BRANCH   5  18
HETATM   18  C   UNL     1       9.390  -1.915  22.420  1.00  0.00     0.123 C 
HETATM   19  C   UNL     1       9.018  -0.707  21.889  1.00  0.00     0.125 C 
HETATM   20 CL   UNL     1       7.348  -0.421  21.476  1.00  0.00    -0.075 Cl
BRANCH  19  21
HETATM   21  C   UNL     1      10.122   0.192  21.699  1.00  0.00     0.222 C 
HETATM   22  O   UNL     1      10.010   1.394  21.309  1.00  0.00    -0.643 OA
HETATM   23  O   UNL     1      11.035  -0.499  21.984  1.00  0.00    -0.643 OA
ENDBRANCH  19  21
ENDBRANCH   5  18
TORSDOF 9
ENDMDL
MODEL 9
REMARK VINA RESULT:    -5.243      3.291      4.402
REMARK INTER + INTRA:          -8.489
REMARK INTER:                  -7.322
REMARK INTRA:                  -1.167
REMARK UNBOUND:                -0.794
REMARK  9 active torsions:
REMARK  status: ('A' for Active; 'I' for Inactive)
REMARK    1  A    between atoms: C_1  and  N_6 
REMARK    2  A    between atoms: C_1  and  O_2 
REMARK    3  A    between atoms: C_1  and  O_4 
REMARK    4  A    between atoms: N_6  and  C_8 
REMARK    5  A    between atoms: C_8  and  C_9 
REMARK    6  A    between atoms: C_9  and  N_12 
REMARK    7  A    between atoms: C_9  and  C_11 
REMARK       I    between atoms: N_12  and  C_14 
REMARK       I    between atoms: C_14  and  N_16 
REMARK    8  A    between atoms: N_16  and  C_18 
REMARK    9  A    between atoms: C_20  and  C_22 
ROOT
HETATM    1  N   UNL     1       6.633   1.284  21.681  1.00  0.00    -0.308 N 
ATOM      2  HN  UNL     1       6.319   1.071  22.628  1.00  0.00     0.170 HD
HETATM    3  C   UNL     1       7.746   0.615  21.461  1.00  0.00     0.324 C 
HETATM    4  O   UNL     1       7.981  -0.195  20.574  1.00  0.00    -0.247 OA
HETATM    5  N   UNL     1       8.552   0.972  22.484  1.00  0.00    -0.317 N 
ATOM      6  HN  UNL     1       8.343   1.873  22.912  1.00  0.00     0.170 HD
ENDROOT
BRANCH   1   7
HETATM    7  C   UNL     1       5.785   2.110  21.154  1.00  0.00     0.047 C 
BRANCH   7   8
HETATM    8  C   UNL     1       5.145   1.789  19.945  1.00  0.00     0.116 C 
BRANCH   8   9
HETATM    9  N   UNL     1       5.019   1.437  18.822  1.00  0.00    -0.350 N 
ATOM     10  HN  UNL     1       4.274   1.904  18.306  1.00  0.00     0.163 HD
BRANCH   9  11
HETATM   11  C   UNL     1       5.810   0.379  18.013  1.00  0.00     0.365 C 
BRANCH  11  12
HETATM   12  O   UNL     1       7.053   0.813  17.911  1.00  0.00    -0.355 OA
ATOM     13  HO  UNL     1       7.181   0.678  16.979  1.00  0.00     0.214 HD
ENDBRANCH  11  12
BRANCH  11  14
HETATM   14  O   UNL     1       5.601  -0.815  18.600  1.00  0.00    -0.355 OA
ATOM     15  HO  UNL     1       5.272  -0.742  19.488  1.00  0.00     0.214 HD
ENDBRANCH  11  14
ENDBRANCH   9  11
ENDBRANCH   8   9
ENDBRANCH   7   8
BRANCH   7  16
HETATM   16  C   UNL     1       5.613   3.307  21.920  1.00  0.00    -0.000 C 
HETATM   17  C   UNL     1       5.780   3.243  23.327  1.00  0.00     0.038 C 
ENDBRANCH   7  16
ENDBRANCH   1   7
BRANCH   5  18
HETATM   18  C   UNL     1       9.541   0.336  22.992  1.00  0.00     0.123 C 
HETATM   19  C   UNL     1      10.639   0.938  23.549  1.00  0.00     0.125 C 
HETATM   20 CL   UNL     1      10.771   2.677  23.539  1.00  0.00    -0.075 Cl
BRANCH  19  21
HETATM   21  C   UNL     1      11.602   0.001  24.059  1.00  0.00     0.222 C 
HETATM   22  O   UNL     1      12.741   0.320  24.518  1.00  0.00    -0.643 OA
HETATM   23  O   UNL     1      11.034  -1.022  23.904  1.00  0.00    -0.643 OA
ENDBRANCH  19  21
ENDBRANCH   5  18
TORSDOF 9
ENDMDL
