stable:False satoms:14 tatoms:24 sratio:0.5833333333333334
  -OEChem-07092417393D

 24 23  0     1  0  0  0  0  0999 V2000
    7.0191   -4.4274   26.3442 H   0  0  0  0  0  0  0  0  0  0  0  0
    8.1902   -4.2578   26.0035 C   0  0  0  0  0  0  0  0  0  0  0  0
    8.5148   -5.5128   25.7538 O   0  0  0  0  0  0  0  0  0  0  0  0
    8.9157   -3.5833   26.9151 O   0  0  0  0  0  0  0  0  0  0  0  0
    8.2921   -3.4829   24.6664 N   0  3  0  0  0  0  0  0  0  0  0  0
    9.1051   -2.7076   24.2942 C   0  0  0  0  0  0  0  0  0  0  0  0
    9.6375   -1.5351   23.7309 C   0  0  3  0  0  0  0  0  0  0  0  0
   11.8545   -0.8774   22.9196 C   0  0  0  0  0  0  0  0  0  0  0  0
   10.9278   -0.9725   23.9892 C   0  5  3  0  0  0  0  0  0  0  0  0
   11.2727   -0.6240   24.9247 H   0  0  0  0  0  0  0  0  0  0  0  0
   12.1528    0.1704   22.7790 H   0  0  0  0  0  0  0  0  0  0  0  0
   12.8198   -1.3945   23.0785 H   0  0  0  0  0  0  0  0  0  0  0  0
   11.4320   -1.3207   22.0087 H   0  0  0  0  0  0  0  0  0  0  0  0
    8.9380   -0.8418   22.8893 N   0  0  0  0  0  0  0  0  0  0  0  0
    8.9944   -0.1615   21.7628 C   0  0  0  0  0  0  0  0  0  0  0  0
    9.7000    0.8007   21.4932 O   0  0  0  0  0  0  0  0  0  0  0  0
    8.0401   -0.7235   20.9908 N   0  0  0  0  0  0  0  0  0  0  0  0
    7.3916   -0.2163   20.0089 C   0  0  0  0  0  0  0  0  0  0  0  0
    7.6767   -0.4913   18.9711 H   0  0  0  0  0  0  0  0  0  0  0  0
    6.3344    0.8936   17.7725 O   0  5  0  0  0  0  0  0  0  0  0  0
    5.7458    1.0230   18.8896 C   0  0  0  0  0  0  0  0  0  0  0  0
    4.7212    1.4983   19.2295 O   0  0  0  0  0  0  0  0  0  0  0  0
    6.2783    0.5705   20.1465 C   0  0  0  0  0  0  0  0  0  0  0  0
    5.6297    0.8838   21.7344 Cl  0  0  0  0  0  0  0  0  0  0  0  0
 20 21  1  0  0  0  0
 21 22  2  0  0  0  0
 21 23  1  0  0  0  0
 18 19  1  0  0  0  0
 18 23  2  0  0  0  0
 17 18  1  0  0  0  0
 23 24  1  0  0  0  0
 15 17  1  0  0  0  0
 15 16  2  0  0  0  0
 14 15  1  0  0  0  0
  8 13  1  0  0  0  0
  8 11  1  0  0  0  0
  7 14  1  0  0  0  0
  8 12  1  0  0  0  0
  8  9  1  0  0  0  0
  7  9  1  0  0  0  0
  6  7  1  0  0  0  0
  9 10  1  0  0  0  0
  5  6  1  0  0  0  0
  2  5  1  0  0  0  0
  2  3  1  0  0  0  0
  1  2  1  0  0  0  0
  2  4  1  0  0  0  0
M  CHG  3   5   1   9  -1  20  -1
M  END
> <Shapegauss>
-207.251221

$$$$
