stable:False satoms:7 tatoms:24 sratio:0.2916666666666667
  -OEChem-08062414293D

 42 42  0     1  0  0  0  0  0999 V2000
    6.4171   -5.0881   26.3549 C   0  0  0  0  0  0  0  0  0  0  0  0
    8.1047   -4.4809   26.0727 S   0  0  0  0  0  0  0  0  0  0  0  0
    8.9171   -5.6584   25.9815 O   0  0  0  0  0  0  0  0  0  0  0  0
    8.4047   -3.6167   27.1725 O   0  0  0  0  0  0  0  0  0  0  0  0
    8.0776   -3.7016   24.6552 N   0  0  0  0  0  0  0  0  0  0  0  0
    8.9102   -2.9955   24.2222 C   0  0  0  0  0  0  0  0  0  0  0  0
    9.4225   -2.0511   23.6635 C   0  0  0  0  0  0  0  0  0  0  0  0
   10.3374   -1.2144   23.3899 C   0  0  1  0  0  0  0  0  0  0  0  0
   10.9589    0.0128   24.6310 C   0  0  0  0  0  0  0  0  0  0  0  0
   11.9559    0.2361   24.6387 C   0  0  0  0  0  0  0  0  0  0  0  0
   13.0782   -0.1980   23.9184 C   0  0  0  0  0  0  0  0  0  0  0  0
   12.7914   -1.2246   23.0602 C   0  0  0  0  0  0  0  0  0  0  0  0
   11.8561   -1.7299   22.8677 C   0  0  0  0  0  0  0  0  0  0  0  0
    9.7393   -0.5969   22.5558 C   0  0  0  0  0  0  0  0  0  0  0  0
    9.1616    0.0877   21.5956 C   0  0  0  0  0  0  0  0  0  0  0  0
    9.7033    1.0430   21.2667 O   0  0  0  0  0  0  0  0  0  0  0  0
    8.0263   -0.4714   21.2236 N   0  0  0  0  0  0  0  0  0  0  0  0
    7.3598   -0.0168   20.2500 C   0  0  0  0  0  0  0  0  0  0  0  0
    7.4649    0.1134   18.9504 C   0  0  0  0  0  0  0  0  0  0  0  0
    7.1164    0.4224   17.8414 N   0  0  0  0  0  0  0  0  0  0  0  0
    5.9021    1.0103   18.2772 C   0  0  0  0  0  0  0  0  0  0  0  0
    5.5092    1.0241   19.3911 C   0  0  0  0  0  0  0  0  0  0  0  0
    5.9847    0.5969   20.5596 C   0  0  0  0  0  0  0  0  0  0  0  0
    5.3399    0.6605   22.0573 Br  0  0  0  0  0  0  0  0  0  0  0  0
    6.3769   -5.6297   27.3115 H   0  0  0  0  0  0  0  0  0  0  0  0
    5.7216   -4.2365   26.3863 H   0  0  0  0  0  0  0  0  0  0  0  0
    6.1300   -5.7660   25.5376 H   0  0  0  0  0  0  0  0  0  0  0  0
    7.2521   -3.1380   24.6864 H   0  0  0  0  0  0  0  0  0  0  0  0
   10.5428   -0.5882   24.2707 H   0  0  0  0  0  0  0  0  0  0  0  0
   10.5753   -0.7216   23.9383 H   0  0  0  0  0  0  0  0  0  0  0  0
   10.2886    0.5113   25.3157 H   0  0  0  0  0  0  0  0  0  0  0  0
   12.2046    0.9841   25.3770 H   0  0  0  0  0  0  0  0  0  0  0  0
   13.8434   -0.5389   24.6313 H   0  0  0  0  0  0  0  0  0  0  0  0
   13.4710    0.6482   23.3356 H   0  0  0  0  0  0  0  0  0  0  0  0
   13.6313   -1.5862   22.4856 H   0  0  0  0  0  0  0  0  0  0  0  0
   11.8970   -2.6427   22.2920 H   0  0  0  0  0  0  0  0  0  0  0  0
    9.3748    0.1140   23.3119 H   0  0  0  0  0  0  0  0  0  0  0  0
    9.0123   -1.4143   22.4405 H   0  0  0  0  0  0  0  0  0  0  0  0
    7.6864   -1.2697   21.7208 H   0  0  0  0  0  0  0  0  0  0  0  0
    8.4440   -0.3033   18.7656 H   0  0  0  0  0  0  0  0  0  0  0  0
    5.2851    1.4848   17.5285 H   0  0  0  0  0  0  0  0  0  0  0  0
    4.5399    1.4914   19.4833 H   0  0  0  0  0  0  0  0  0  0  0  0
 20 21  2  0  0  0  0
 19 20  1  0  0  0  0
 21 22  1  0  0  0  0
 18 19  2  0  0  0  0
 22 23  2  0  0  0  0
 18 23  1  0  0  0  0
 17 18  1  0  0  0  0
 23 24  1  0  0  0  0
 15 16  2  0  0  0  0
 15 17  1  0  0  0  0
 14 15  1  0  0  0  0
  8 14  1  0  0  0  0
 12 13  2  0  0  0  0
  8 13  1  0  0  0  0
 11 12  1  0  0  0  0
  7  8  1  0  0  0  0
 10 11  1  0  0  0  0
  6  7  3  0  0  0  0
  5  6  1  0  0  0  0
  9 10  2  0  0  0  0
  2  5  1  0  0  0  0
  2  3  2  0  0  0  0
  1  2  1  0  0  0  0
  2  4  2  0  0  0  0
  1 25  1  0  0  0  0
  1 26  1  0  0  0  0
  1 27  1  0  0  0  0
  5 28  1  0  0  0  0
  8 29  1  0  0  0  0
  9 30  1  0  0  0  0
  9 31  1  0  0  0  0
 10 32  1  0  0  0  0
 11 33  1  0  0  0  0
 11 34  1  0  0  0  0
 12 35  1  0  0  0  0
 13 36  1  0  0  0  0
 14 37  1  0  0  0  0
 14 38  1  0  0  0  0
 17 39  1  0  0  0  0
 19 40  1  0  0  0  0
 21 41  1  0  0  0  0
 22 42  1  0  0  0  0
M  END
> <Chemgauss4>
-13.439507

$$$$
