stable:False satoms:7 tatoms:24 sratio:0.2916666666666667
  -OEChem-08062414293D

 42 42  0     1  0  0  0  0  0999 V2000
   -6.5086   -5.3215  -26.3695 C   0  0  0  0  0  0  0  0  0  0  0  0
   -8.1754   -4.6723  -26.0583 S   0  0  0  0  0  0  0  0  0  0  0  0
   -9.0156   -5.8291  -25.9548 O   0  0  0  0  0  0  0  0  0  0  0  0
   -8.4719   -3.7991  -27.1519 O   0  0  0  0  0  0  0  0  0  0  0  0
   -8.1048   -3.8961  -24.6406 N   0  0  0  0  0  0  0  0  0  0  0  0
   -8.9120   -3.1700  -24.1928 C   0  0  0  0  0  0  0  0  0  0  0  0
   -9.3908   -2.2138  -23.6246 C   0  0  0  0  0  0  0  0  0  0  0  0
  -10.2796   -1.3547  -23.3347 C   0  0  1  0  0  0  0  0  0  0  0  0
  -10.8906   -0.1103  -24.5638 C   0  0  0  0  0  0  0  0  0  0  0  0
  -11.8817    0.1381  -24.5545 C   0  0  0  0  0  0  0  0  0  0  0  0
  -13.0023   -0.2687  -23.8159 C   0  0  0  0  0  0  0  0  0  0  0  0
  -12.7273   -1.3036  -22.9638 C   0  0  0  0  0  0  0  0  0  0  0  0
  -11.8019   -1.8326  -22.7877 C   0  0  0  0  0  0  0  0  0  0  0  0
   -9.6522   -0.7538  -22.5100 C   0  0  0  0  0  0  0  0  0  0  0  0
   -9.0414   -0.0855  -21.5589 C   0  0  0  0  0  0  0  0  0  0  0  0
   -9.5532    0.8826  -21.2199 O   0  0  0  0  0  0  0  0  0  0  0  0
   -7.9145   -0.6736  -21.2066 N   0  0  0  0  0  0  0  0  0  0  0  0
   -7.2205   -0.2375  -20.2438 C   0  0  0  0  0  0  0  0  0  0  0  0
   -7.3005   -0.1067  -18.9425 C   0  0  0  0  0  0  0  0  0  0  0  0
   -6.9258    0.1916  -17.8392 N   0  0  0  0  0  0  0  0  0  0  0  0
   -5.7045    0.7493  -18.2946 C   0  0  0  0  0  0  0  0  0  0  0  0
   -5.3301    0.7550  -19.4149 C   0  0  0  0  0  0  0  0  0  0  0  0
   -5.8357    0.3417  -20.5758 C   0  0  0  0  0  0  0  0  0  0  0  0
   -5.2147    0.3914  -22.0841 Br  0  0  0  0  0  0  0  0  0  0  0  0
   -6.4981   -5.8624  -27.3273 H   0  0  0  0  0  0  0  0  0  0  0  0
   -5.7925   -4.4876  -26.4116 H   0  0  0  0  0  0  0  0  0  0  0  0
   -6.2251   -6.0077  -25.5579 H   0  0  0  0  0  0  0  0  0  0  0  0
   -7.2660   -3.3535  -24.6850 H   0  0  0  0  0  0  0  0  0  0  0  0
  -10.4839   -0.7222  -24.2112 H   0  0  0  0  0  0  0  0  0  0  0  0
  -10.5142   -0.8552  -23.8784 H   0  0  0  0  0  0  0  0  0  0  0  0
  -10.2196    0.3722  -25.2590 H   0  0  0  0  0  0  0  0  0  0  0  0
  -12.1237    0.8932  -25.2876 H   0  0  0  0  0  0  0  0  0  0  0  0
  -13.7878   -0.5890  -24.5162 H   0  0  0  0  0  0  0  0  0  0  0  0
  -13.3638    0.5863  -23.2257 H   0  0  0  0  0  0  0  0  0  0  0  0
  -13.5663   -1.6448  -22.3756 H   0  0  0  0  0  0  0  0  0  0  0  0
  -11.8562   -2.7450  -22.2124 H   0  0  0  0  0  0  0  0  0  0  0  0
   -9.2826   -0.0511  -23.2714 H   0  0  0  0  0  0  0  0  0  0  0  0
   -8.9443   -1.5895  -22.4078 H   0  0  0  0  0  0  0  0  0  0  0  0
   -7.6033   -1.4795  -21.7104 H   0  0  0  0  0  0  0  0  0  0  0  0
   -8.2866   -0.4989  -18.7418 H   0  0  0  0  0  0  0  0  0  0  0  0
   -5.0633    1.2070  -17.5559 H   0  0  0  0  0  0  0  0  0  0  0  0
   -4.3510    1.1979  -19.5229 H   0  0  0  0  0  0  0  0  0  0  0  0
 20 21  2  0  0  0  0
 19 20  1  0  0  0  0
 21 22  1  0  0  0  0
 18 19  2  0  0  0  0
 22 23  2  0  0  0  0
 18 23  1  0  0  0  0
 17 18  1  0  0  0  0
 23 24  1  0  0  0  0
 15 16  2  0  0  0  0
 15 17  1  0  0  0  0
 14 15  1  0  0  0  0
  8 14  1  0  0  0  0
 12 13  2  0  0  0  0
  8 13  1  0  0  0  0
 11 12  1  0  0  0  0
  7  8  1  0  0  0  0
 10 11  1  0  0  0  0
  6  7  3  0  0  0  0
  5  6  1  0  0  0  0
  9 10  2  0  0  0  0
  2  5  1  0  0  0  0
  2  3  2  0  0  0  0
  1  2  1  0  0  0  0
  2  4  2  0  0  0  0
  1 25  1  0  0  0  0
  1 26  1  0  0  0  0
  1 27  1  0  0  0  0
  5 28  1  0  0  0  0
  8 29  1  0  0  0  0
  9 30  1  0  0  0  0
  9 31  1  0  0  0  0
 10 32  1  0  0  0  0
 11 33  1  0  0  0  0
 11 34  1  0  0  0  0
 12 35  1  0  0  0  0
 13 36  1  0  0  0  0
 14 37  1  0  0  0  0
 14 38  1  0  0  0  0
 17 39  1  0  0  0  0
 19 40  1  0  0  0  0
 21 41  1  0  0  0  0
 22 42  1  0  0  0  0
M  END
> <Chemgauss4>
-13.169355

$$$$
