MODEL 1
REMARK VINA RESULT:    -7.869      0.000      0.000
REMARK INTER + INTRA:         -10.862
REMARK INTER:                 -10.169
REMARK INTRA:                  -0.693
REMARK UNBOUND:                -0.693
REMARK  5 active torsions:
REMARK  status: ('A' for Active; 'I' for Inactive)
REMARK    1  A    between atoms: S_2  and  N_5 
REMARK    2  A    between atoms: N_5  and  C_7 
REMARK    3  A    between atoms: C_7  and  C_8 
REMARK    4  A    between atoms: C_15  and  C_16 
REMARK       I    between atoms: C_16  and  N_18 
REMARK    5  A    between atoms: N_18  and  C_20 
ROOT
HETATM    1  C   UNL     1       8.884  -2.370  23.532  1.00  0.00     0.040 A 
HETATM    2  C   UNL     1       9.663  -1.335  23.489  1.00  0.00     0.066 A 
HETATM    3  C   UNL     1       9.790  -0.166  24.693  1.00  0.00    -0.003 C 
HETATM    4  C   UNL     1      10.700   0.366  24.929  1.00  0.00    -0.002 C 
HETATM    5  C   UNL     1      12.001   0.138  24.396  1.00  0.00    -0.001 C 
HETATM    6  C   UNL     1      12.057  -0.812  23.630  1.00  0.00    -0.002 C 
HETATM    7  C   UNL     1      11.262  -1.553  23.193  1.00  0.00    -0.003 C 
HETATM    8  C   UNL     1       9.101  -1.002  22.515  1.00  0.00     0.049 A 
ENDROOT
BRANCH   8   9
HETATM    9  C   UNL     1       8.617  -0.354  21.367  1.00  0.00     0.255 C 
HETATM   10  O   UNL     1       9.353   0.293  20.736  1.00  0.00    -0.268 OA
HETATM   11  N   UNL     1       7.343  -0.584  21.250  1.00  0.00    -0.321 N 
ATOM     12  HN  UNL     1       6.856  -1.121  21.968  1.00  0.00     0.169 HD
BRANCH  11  13
HETATM   13  C   UNL     1       6.720  -0.157  20.271  1.00  0.00     0.060 A 
HETATM   14  C   UNL     1       6.390  -0.568  19.077  1.00  0.00     0.117 A 
HETATM   15  N   UNL     1       5.779  -0.402  17.976  1.00  0.00    -0.373 N 
HETATM   16  C   UNL     1       5.317   0.734  18.286  1.00  0.00     0.088 A 
ATOM     17  HN  UNL     1       5.691  -0.979  17.140  1.00  0.00     0.164 HD
HETATM   18  C   UNL     1       5.408   1.472  19.259  1.00  0.00     0.030 A 
HETATM   19  C   UNL     1       6.036   1.259  20.425  1.00  0.00    -0.016 A 
HETATM   20  C   UNL     1       6.130   2.049  21.548  1.00  0.00     0.026 C 
ENDBRANCH  11  13
ENDBRANCH   8   9
BRANCH   1  21
HETATM   21  C   UNL     1       8.442  -3.428  24.028  1.00  0.00    -0.022 C 
BRANCH  21  22
HETATM   22  N   UNL     1       8.401  -4.421  24.595  1.00  0.00    -0.249 N 
ATOM     23  HN  UNL     1       8.733  -5.243  24.091  1.00  0.00     0.188 HD
BRANCH  22  24
HETATM   24  S   UNL     1       7.869  -4.672  26.125  1.00  0.00     0.233 S 
HETATM   25  C   UNL     1       6.704  -3.424  26.369  1.00  0.00     0.186 C 
HETATM   26  O   UNL     1       7.186  -5.913  26.254  1.00  0.00    -0.205 OA
HETATM   27  O   UNL     1       8.981  -4.550  27.039  1.00  0.00    -0.205 OA
ENDBRANCH  22  24
ENDBRANCH  21  22
ENDBRANCH   1  21
TORSDOF 5
ENDMDL
MODEL 2
REMARK VINA RESULT:    -7.712      2.768      6.332
REMARK INTER + INTRA:         -10.660
REMARK INTER:                  -9.842
REMARK INTRA:                  -0.818
REMARK UNBOUND:                -0.693
REMARK  5 active torsions:
REMARK  status: ('A' for Active; 'I' for Inactive)
REMARK    1  A    between atoms: S_2  and  N_5 
REMARK    2  A    between atoms: N_5  and  C_7 
REMARK    3  A    between atoms: C_7  and  C_8 
REMARK    4  A    between atoms: C_15  and  C_16 
REMARK       I    between atoms: C_16  and  N_18 
REMARK    5  A    between atoms: N_18  and  C_20 
ROOT
HETATM    1  C   UNL     1       9.365   0.106  23.071  1.00  0.00     0.040 A 
HETATM    2  C   UNL     1      10.383  -0.501  23.597  1.00  0.00     0.066 A 
HETATM    3  C   UNL     1      11.482  -1.458  22.755  1.00  0.00    -0.003 C 
HETATM    4  C   UNL     1      12.529  -1.543  23.006  1.00  0.00    -0.002 C 
HETATM    5  C   UNL     1      13.249  -0.804  23.988  1.00  0.00    -0.001 C 
HETATM    6  C   UNL     1      12.577   0.050  24.548  1.00  0.00    -0.002 C 
HETATM    7  C   UNL     1      11.451   0.365  24.492  1.00  0.00    -0.003 C 
HETATM    8  C   UNL     1       9.632  -1.078  24.287  1.00  0.00     0.049 A 
ENDROOT
BRANCH   8   9
HETATM    9  C   UNL     1       8.991  -1.914  25.216  1.00  0.00     0.255 C 
HETATM   10  O   UNL     1       8.763  -1.497  26.281  1.00  0.00    -0.268 OA
HETATM   11  N   UNL     1       8.802  -3.084  24.682  1.00  0.00    -0.321 N 
ATOM     12  HN  UNL     1       9.155  -3.277  23.745  1.00  0.00     0.169 HD
BRANCH  11  13
HETATM   13  C   UNL     1       8.198  -3.964  25.306  1.00  0.00     0.060 A 
HETATM   14  C   UNL     1       8.447  -4.822  26.258  1.00  0.00     0.117 A 
HETATM   15  N   UNL     1       8.064  -5.726  27.064  1.00  0.00    -0.373 N 
HETATM   16  C   UNL     1       6.866  -5.723  26.659  1.00  0.00     0.088 A 
ATOM     17  HN  UNL     1       8.550  -6.262  27.783  1.00  0.00     0.164 HD
HETATM   18  C   UNL     1       6.242  -5.119  25.796  1.00  0.00     0.030 A 
HETATM   19  C   UNL     1       6.664  -4.145  24.975  1.00  0.00    -0.016 A 
HETATM   20  C   UNL     1       5.984  -3.423  24.021  1.00  0.00     0.026 C 
ENDBRANCH  11  13
ENDBRANCH   8   9
BRANCH   1  21
HETATM   21  C   UNL     1       8.810   0.893  22.275  1.00  0.00    -0.022 C 
BRANCH  21  22
HETATM   22  N   UNL     1       8.166   1.285  21.415  1.00  0.00    -0.249 N 
ATOM     23  HN  UNL     1       8.093   2.298  21.329  1.00  0.00     0.188 HD
BRANCH  22  24
HETATM   24  S   UNL     1       7.347   0.400  20.303  1.00  0.00     0.233 S 
HETATM   25  C   UNL     1       6.783  -0.965  21.193  1.00  0.00     0.186 C 
HETATM   26  O   UNL     1       6.200   1.087  19.818  1.00  0.00    -0.205 OA
HETATM   27  O   UNL     1       8.252   0.012  19.247  1.00  0.00    -0.205 OA
ENDBRANCH  22  24
ENDBRANCH  21  22
ENDBRANCH   1  21
TORSDOF 5
ENDMDL
MODEL 3
REMARK VINA RESULT:    -7.359      3.851      5.819
REMARK INTER + INTRA:         -10.204
REMARK INTER:                  -9.447
REMARK INTRA:                  -0.756
REMARK UNBOUND:                -0.693
REMARK  5 active torsions:
REMARK  status: ('A' for Active; 'I' for Inactive)
REMARK    1  A    between atoms: S_2  and  N_5 
REMARK    2  A    between atoms: N_5  and  C_7 
REMARK    3  A    between atoms: C_7  and  C_8 
REMARK    4  A    between atoms: C_15  and  C_16 
REMARK       I    between atoms: C_16  and  N_18 
REMARK    5  A    between atoms: N_18  and  C_20 
ROOT
HETATM    1  C   UNL     1       6.996  -4.920  25.472  1.00  0.00     0.040 A 
HETATM    2  C   UNL     1       6.826  -4.818  24.191  1.00  0.00     0.066 A 
HETATM    3  C   UNL     1       7.613  -5.749  23.031  1.00  0.00    -0.003 C 
HETATM    4  C   UNL     1       7.173  -6.046  22.091  1.00  0.00    -0.002 C 
HETATM    5  C   UNL     1       5.830  -5.847  21.660  1.00  0.00    -0.001 C 
HETATM    6  C   UNL     1       5.117  -5.325  22.504  1.00  0.00    -0.002 C 
HETATM    7  C   UNL     1       5.306  -4.903  23.580  1.00  0.00    -0.003 C 
HETATM    8  C   UNL     1       7.181  -3.703  24.273  1.00  0.00     0.049 A 
ENDROOT
BRANCH   8   9
HETATM    9  C   UNL     1       7.570  -2.371  24.060  1.00  0.00     0.255 C 
HETATM   10  O   UNL     1       6.893  -1.688  23.401  1.00  0.00    -0.268 OA
HETATM   11  N   UNL     1       8.711  -2.159  24.646  1.00  0.00    -0.321 N 
ATOM     12  HN  UNL     1       9.191  -2.927  25.115  1.00  0.00     0.169 HD
BRANCH  11  13
HETATM   13  C   UNL     1       9.216  -1.030  24.638  1.00  0.00     0.060 A 
HETATM   14  C   UNL     1       9.039   0.115  25.239  1.00  0.00     0.117 A 
HETATM   15  N   UNL     1       9.387   1.316  25.463  1.00  0.00    -0.373 N 
HETATM   16  C   UNL     1      10.369   1.287  24.666  1.00  0.00     0.088 A 
ATOM     17  HN  UNL     1       9.009   2.044  26.069  1.00  0.00     0.164 HD
HETATM   18  C   UNL     1      10.849   0.453  23.908  1.00  0.00     0.030 A 
HETATM   19  C   UNL     1      10.479  -0.822  23.713  1.00  0.00    -0.016 A 
HETATM   20  C   UNL     1      11.014  -1.793  22.898  1.00  0.00     0.026 C 
ENDBRANCH  11  13
ENDBRANCH   8   9
BRANCH   1  21
HETATM   21  C   UNL     1       7.001  -5.529  26.563  1.00  0.00    -0.022 C 
BRANCH  21  22
HETATM   22  N   UNL     1       7.367  -5.963  27.556  1.00  0.00    -0.249 N 
ATOM     23  HN  UNL     1       8.374  -6.093  27.650  1.00  0.00     0.188 HD
BRANCH  22  24
HETATM   24  S   UNL     1       6.454  -6.401  28.846  1.00  0.00     0.233 S 
HETATM   25  C   UNL     1       4.901  -6.717  28.167  1.00  0.00     0.186 C 
HETATM   26  O   UNL     1       6.910  -7.614  29.432  1.00  0.00    -0.205 OA
HETATM   27  O   UNL     1       6.412  -5.308  29.789  1.00  0.00    -0.205 OA
ENDBRANCH  22  24
ENDBRANCH  21  22
ENDBRANCH   1  21
TORSDOF 5
ENDMDL
MODEL 4
REMARK VINA RESULT:    -7.008      3.482      6.536
REMARK INTER + INTRA:          -9.750
REMARK INTER:                  -8.836
REMARK INTRA:                  -0.914
REMARK UNBOUND:                -0.693
REMARK  5 active torsions:
REMARK  status: ('A' for Active; 'I' for Inactive)
REMARK    1  A    between atoms: S_2  and  N_5 
REMARK    2  A    between atoms: N_5  and  C_7 
REMARK    3  A    between atoms: C_7  and  C_8 
REMARK    4  A    between atoms: C_15  and  C_16 
REMARK       I    between atoms: C_16  and  N_18 
REMARK    5  A    between atoms: N_18  and  C_20 
ROOT
HETATM    1  C   UNL     1       9.481   0.240  23.114  1.00  0.00     0.040 A 
HETATM    2  C   UNL     1      10.460  -0.464  23.590  1.00  0.00     0.066 A 
HETATM    3  C   UNL     1      11.457  -1.474  22.686  1.00  0.00    -0.003 C 
HETATM    4  C   UNL     1      12.499  -1.651  22.904  1.00  0.00    -0.002 C 
HETATM    5  C   UNL     1      13.301  -1.008  23.890  1.00  0.00    -0.001 C 
HETATM    6  C   UNL     1      12.715  -0.124  24.497  1.00  0.00    -0.002 C 
HETATM    7  C   UNL     1      11.617   0.281  24.484  1.00  0.00    -0.003 C 
HETATM    8  C   UNL     1       9.682  -1.005  24.281  1.00  0.00     0.049 A 
ENDROOT
BRANCH   8   9
HETATM    9  C   UNL     1       9.000  -1.820  25.199  1.00  0.00     0.255 C 
HETATM   10  O   UNL     1       8.678  -1.363  26.222  1.00  0.00    -0.268 OA
HETATM   11  N   UNL     1       8.892  -3.019  24.710  1.00  0.00    -0.321 N 
ATOM     12  HN  UNL     1       9.322  -3.242  23.812  1.00  0.00     0.169 HD
BRANCH  11  13
HETATM   13  C   UNL     1       8.271  -3.891  25.328  1.00  0.00     0.060 A 
HETATM   14  C   UNL     1       8.488  -4.722  26.312  1.00  0.00     0.117 A 
HETATM   15  N   UNL     1       8.081  -5.610  27.124  1.00  0.00    -0.373 N 
HETATM   16  C   UNL     1       6.902  -5.634  26.666  1.00  0.00     0.088 A 
ATOM     17  HN  UNL     1       8.541  -6.121  27.877  1.00  0.00     0.164 HD
HETATM   18  C   UNL     1       6.310  -5.060  25.759  1.00  0.00     0.030 A 
HETATM   19  C   UNL     1       6.756  -4.102  24.934  1.00  0.00    -0.016 A 
HETATM   20  C   UNL     1       6.112  -3.414  23.931  1.00  0.00     0.026 C 
ENDBRANCH  11  13
ENDBRANCH   8   9
BRANCH   1  21
HETATM   21  C   UNL     1       8.971   1.098  22.362  1.00  0.00    -0.022 C 
BRANCH  21  22
HETATM   22  N   UNL     1       8.418   2.036  22.012  1.00  0.00    -0.249 N 
ATOM     23  HN  UNL     1       8.321   2.154  21.003  1.00  0.00     0.188 HD
BRANCH  22  24
HETATM   24  S   UNL     1       7.765   3.214  22.947  1.00  0.00     0.233 S 
HETATM   25  C   UNL     1       9.134   3.995  23.645  1.00  0.00     0.186 C 
HETATM   26  O   UNL     1       7.078   4.188  22.171  1.00  0.00    -0.205 OA
HETATM   27  O   UNL     1       6.925   2.608  23.953  1.00  0.00    -0.205 OA
ENDBRANCH  22  24
ENDBRANCH  21  22
ENDBRANCH   1  21
TORSDOF 5
ENDMDL
MODEL 5
REMARK VINA RESULT:    -6.953     14.291     17.301
REMARK INTER + INTRA:          -9.679
REMARK INTER:                  -8.895
REMARK INTRA:                  -0.785
REMARK UNBOUND:                -0.693
REMARK  5 active torsions:
REMARK  status: ('A' for Active; 'I' for Inactive)
REMARK    1  A    between atoms: S_2  and  N_5 
REMARK    2  A    between atoms: N_5  and  C_7 
REMARK    3  A    between atoms: C_7  and  C_8 
REMARK    4  A    between atoms: C_15  and  C_16 
REMARK       I    between atoms: C_16  and  N_18 
REMARK    5  A    between atoms: N_18  and  C_20 
ROOT
HETATM    1  C   UNL     1      23.614  -3.465  25.240  1.00  0.00     0.040 A 
HETATM    2  C   UNL     1      22.949  -2.354  25.302  1.00  0.00     0.066 A 
HETATM    3  C   UNL     1      23.182  -1.027  24.294  1.00  0.00    -0.003 C 
HETATM    4  C   UNL     1      22.396  -0.356  23.982  1.00  0.00    -0.002 C 
HETATM    5  C   UNL     1      20.998  -0.485  24.225  1.00  0.00    -0.001 C 
HETATM    6  C   UNL     1      20.696  -1.515  24.808  1.00  0.00    -0.002 C 
HETATM    7  C   UNL     1      21.310  -2.403  25.261  1.00  0.00    -0.003 C 
HETATM    8  C   UNL     1      23.336  -2.230  26.402  1.00  0.00     0.049 A 
ENDROOT
BRANCH   8   9
HETATM    9  C   UNL     1      23.642  -1.810  27.707  1.00  0.00     0.255 C 
HETATM   10  O   UNL     1      23.827  -0.676  27.902  1.00  0.00    -0.268 OA
HETATM   11  N   UNL     1      23.704  -2.848  28.487  1.00  0.00    -0.321 N 
ATOM     12  HN  UNL     1      23.588  -3.784  28.098  1.00  0.00     0.169 HD
BRANCH  11  13
HETATM   13  C   UNL     1      23.904  -2.706  29.699  1.00  0.00     0.060 A 
HETATM   14  C   UNL     1      23.198  -2.557  30.787  1.00  0.00     0.117 A 
HETATM   15  N   UNL     1      23.116  -2.449  32.049  1.00  0.00    -0.373 N 
HETATM   16  C   UNL     1      24.365  -2.516  32.239  1.00  0.00     0.088 A 
ATOM     17  HN  UNL     1      22.324  -2.345  32.684  1.00  0.00     0.164 HD
HETATM   18  C   UNL     1      25.348  -2.621  31.517  1.00  0.00     0.030 A 
HETATM   19  C   UNL     1      25.406  -2.764  30.184  1.00  0.00    -0.016 A 
HETATM   20  C   UNL     1      26.488  -2.918  29.348  1.00  0.00     0.026 C 
ENDBRANCH  11  13
ENDBRANCH   8   9
BRANCH   1  21
HETATM   21  C   UNL     1      24.039  -4.494  24.673  1.00  0.00    -0.022 C 
BRANCH  21  22
HETATM   22  N   UNL     1      24.108  -5.575  24.307  1.00  0.00    -0.249 N 
ATOM     23  HN  UNL     1      23.953  -5.726  23.310  1.00  0.00     0.188 HD
BRANCH  22  24
HETATM   24  S   UNL     1      24.428  -6.910  25.203  1.00  0.00     0.233 S 
HETATM   25  C   UNL     1      26.150  -7.015  25.190  1.00  0.00     0.186 C 
HETATM   26  O   UNL     1      24.029  -6.749  26.558  1.00  0.00    -0.205 OA
HETATM   27  O   UNL     1      23.819  -8.059  24.575  1.00  0.00    -0.205 OA
ENDBRANCH  22  24
ENDBRANCH  21  22
ENDBRANCH   1  21
TORSDOF 5
ENDMDL
MODEL 6
REMARK VINA RESULT:    -6.889      2.992      6.235
REMARK INTER + INTRA:          -9.596
REMARK INTER:                  -8.790
REMARK INTRA:                  -0.806
REMARK UNBOUND:                -0.693
REMARK  5 active torsions:
REMARK  status: ('A' for Active; 'I' for Inactive)
REMARK    1  A    between atoms: S_2  and  N_5 
REMARK    2  A    between atoms: N_5  and  C_7 
REMARK    3  A    between atoms: C_7  and  C_8 
REMARK    4  A    between atoms: C_15  and  C_16 
REMARK       I    between atoms: C_16  and  N_18 
REMARK    5  A    between atoms: N_18  and  C_20 
ROOT
HETATM    1  C   UNL     1       8.164  -0.040  21.140  1.00  0.00     0.040 A 
HETATM    2  C   UNL     1       7.013   0.101  20.557  1.00  0.00     0.066 A 
HETATM    3  C   UNL     1       5.929   1.354  20.846  1.00  0.00    -0.003 C 
HETATM    4  C   UNL     1       5.272   1.773  20.097  1.00  0.00    -0.002 C 
HETATM    5  C   UNL     1       5.244   1.477  18.704  1.00  0.00    -0.001 C 
HETATM    6  C   UNL     1       6.115   0.696  18.352  1.00  0.00    -0.002 C 
HETATM    7  C   UNL     1       6.944   0.092  18.918  1.00  0.00    -0.003 C 
HETATM    8  C   UNL     1       6.709  -0.944  20.993  1.00  0.00     0.049 A 
ENDROOT
BRANCH   8   9
HETATM    9  C   UNL     1       6.070  -2.134  21.378  1.00  0.00     0.255 C 
HETATM   10  O   UNL     1       5.583  -2.800  20.555  1.00  0.00    -0.268 OA
HETATM   11  N   UNL     1       6.114  -2.245  22.673  1.00  0.00    -0.321 N 
ATOM     12  HN  UNL     1       6.525  -1.498  23.233  1.00  0.00     0.169 HD
BRANCH  11  13
HETATM   13  C   UNL     1       5.661  -3.253  23.228  1.00  0.00     0.060 A 
HETATM   14  C   UNL     1       4.492  -3.772  23.488  1.00  0.00     0.117 A 
HETATM   15  N   UNL     1       3.774  -4.715  23.946  1.00  0.00    -0.373 N 
HETATM   16  C   UNL     1       4.756  -5.426  24.305  1.00  0.00     0.088 A 
ATOM     17  HN  UNL     1       2.765  -4.850  24.004  1.00  0.00     0.164 HD
HETATM   18  C   UNL     1       5.975  -5.302  24.276  1.00  0.00     0.030 A 
HETATM   19  C   UNL     1       6.710  -4.308  23.758  1.00  0.00    -0.016 A 
HETATM   20  C   UNL     1       8.075  -4.152  23.678  1.00  0.00     0.026 C 
ENDBRANCH  11  13
ENDBRANCH   8   9
BRANCH   1  21
HETATM   21  C   UNL     1       9.312   0.324  21.469  1.00  0.00    -0.022 C 
BRANCH  21  22
HETATM   22  N   UNL     1      10.411   0.281  21.784  1.00  0.00    -0.249 N 
ATOM     23  HN  UNL     1      11.097   0.515  21.066  1.00  0.00     0.188 HD
BRANCH  22  24
HETATM   24  S   UNL     1      11.008  -0.116  23.258  1.00  0.00     0.233 S 
HETATM   25  C   UNL     1      11.951  -1.528  22.957  1.00  0.00     0.186 C 
HETATM   26  O   UNL     1      11.892   0.879  23.759  1.00  0.00    -0.205 OA
HETATM   27  O   UNL     1       9.910  -0.389  24.156  1.00  0.00    -0.205 OA
ENDBRANCH  22  24
ENDBRANCH  21  22
ENDBRANCH   1  21
TORSDOF 5
ENDMDL
MODEL 7
REMARK VINA RESULT:    -6.866      3.479      6.309
REMARK INTER + INTRA:          -9.566
REMARK INTER:                  -8.711
REMARK INTRA:                  -0.855
REMARK UNBOUND:                -0.693
REMARK  5 active torsions:
REMARK  status: ('A' for Active; 'I' for Inactive)
REMARK    1  A    between atoms: S_2  and  N_5 
REMARK    2  A    between atoms: N_5  and  C_7 
REMARK    3  A    between atoms: C_7  and  C_8 
REMARK    4  A    between atoms: C_15  and  C_16 
REMARK       I    between atoms: C_16  and  N_18 
REMARK    5  A    between atoms: N_18  and  C_20 
ROOT
HETATM    1  C   UNL     1       8.450   0.954  21.398  1.00  0.00     0.040 A 
HETATM    2  C   UNL     1       7.419   0.523  20.738  1.00  0.00     0.066 A 
HETATM    3  C   UNL     1       5.902   1.251  20.727  1.00  0.00    -0.003 C 
HETATM    4  C   UNL     1       5.234   1.247  19.879  1.00  0.00    -0.002 C 
HETATM    5  C   UNL     1       5.499   0.758  18.567  1.00  0.00    -0.001 C 
HETATM    6  C   UNL     1       6.644   0.358  18.416  1.00  0.00    -0.002 C 
HETATM    7  C   UNL     1       7.564   0.239  19.129  1.00  0.00    -0.003 C 
HETATM    8  C   UNL     1       7.498  -0.476  21.348  1.00  0.00     0.049 A 
ENDROOT
BRANCH   8   9
HETATM    9  C   UNL     1       7.334  -1.750  21.916  1.00  0.00     0.255 C 
HETATM   10  O   UNL     1       8.284  -2.357  22.213  1.00  0.00    -0.268 OA
HETATM   11  N   UNL     1       6.068  -2.039  21.963  1.00  0.00    -0.321 N 
ATOM     12  HN  UNL     1       5.384  -1.392  21.569  1.00  0.00     0.169 HD
BRANCH  11  13
HETATM   13  C   UNL     1       5.688  -3.094  22.483  1.00  0.00     0.060 A 
HETATM   14  C   UNL     1       5.510  -4.339  22.131  1.00  0.00     0.117 A 
HETATM   15  N   UNL     1       5.214  -5.541  22.416  1.00  0.00    -0.373 N 
HETATM   16  C   UNL     1       4.988  -5.303  23.638  1.00  0.00     0.088 A 
ATOM     17  HN  UNL     1       5.172  -6.393  21.858  1.00  0.00     0.164 HD
HETATM   18  C   UNL     1       5.005  -4.303  24.346  1.00  0.00     0.030 A 
HETATM   19  C   UNL     1       5.352  -3.048  24.026  1.00  0.00    -0.016 A 
HETATM   20  C   UNL     1       5.415  -1.912  24.800  1.00  0.00     0.026 C 
ENDBRANCH  11  13
ENDBRANCH   8   9
BRANCH   1  21
HETATM   21  C   UNL     1       9.311   1.801  21.712  1.00  0.00    -0.022 C 
BRANCH  21  22
HETATM   22  N   UNL     1      10.294   2.259  22.078  1.00  0.00    -0.249 N 
ATOM     23  HN  UNL     1      10.951   2.555  21.357  1.00  0.00     0.188 HD
BRANCH  22  24
HETATM   24  S   UNL     1      10.767   2.491  23.631  1.00  0.00     0.233 S 
HETATM   25  C   UNL     1      11.618   3.990  23.585  1.00  0.00     0.186 C 
HETATM   26  O   UNL     1       9.657   2.667  24.503  1.00  0.00    -0.205 OA
HETATM   27  O   UNL     1      11.625   1.402  24.033  1.00  0.00    -0.205 OA
ENDBRANCH  22  24
ENDBRANCH  21  22
ENDBRANCH   1  21
TORSDOF 5
ENDMDL
MODEL 8
REMARK VINA RESULT:    -6.770     14.065     15.682
REMARK INTER + INTRA:          -9.442
REMARK INTER:                  -8.629
REMARK INTRA:                  -0.813
REMARK UNBOUND:                -0.693
REMARK  5 active torsions:
REMARK  status: ('A' for Active; 'I' for Inactive)
REMARK    1  A    between atoms: S_2  and  N_5 
REMARK    2  A    between atoms: N_5  and  C_7 
REMARK    3  A    between atoms: C_7  and  C_8 
REMARK    4  A    between atoms: C_15  and  C_16 
REMARK       I    between atoms: C_16  and  N_18 
REMARK    5  A    between atoms: N_18  and  C_20 
ROOT
HETATM    1  C   UNL     1      23.647  -3.062  23.863  1.00  0.00     0.040 A 
HETATM    2  C   UNL     1      23.074  -1.901  23.782  1.00  0.00     0.066 A 
HETATM    3  C   UNL     1      21.421  -1.624  23.930  1.00  0.00    -0.003 C 
HETATM    4  C   UNL     1      20.992  -0.729  24.355  1.00  0.00    -0.002 C 
HETATM    5  C   UNL     1      21.678   0.345  24.991  1.00  0.00    -0.001 C 
HETATM    6  C   UNL     1      22.882   0.165  25.092  1.00  0.00    -0.002 C 
HETATM    7  C   UNL     1      23.611  -0.678  24.734  1.00  0.00    -0.003 C 
HETATM    8  C   UNL     1      23.509  -1.807  22.697  1.00  0.00     0.049 A 
ENDROOT
BRANCH   8   9
HETATM    9  C   UNL     1      23.872  -1.424  21.395  1.00  0.00     0.255 C 
HETATM   10  O   UNL     1      24.785  -0.712  21.255  1.00  0.00    -0.268 OA
HETATM   11  N   UNL     1      23.034  -1.941  20.547  1.00  0.00    -0.321 N 
ATOM     12  HN  UNL     1      22.238  -2.481  20.885  1.00  0.00     0.169 HD
BRANCH  11  13
HETATM   13  C   UNL     1      23.199  -1.781  19.332  1.00  0.00     0.060 A 
HETATM   14  C   UNL     1      22.880  -0.905  18.417  1.00  0.00     0.117 A 
HETATM   15  N   UNL     1      22.939  -0.477  17.223  1.00  0.00    -0.373 N 
HETATM   16  C   UNL     1      23.658  -1.432  16.808  1.00  0.00     0.088 A 
ATOM     17  HN  UNL     1      22.546   0.344  16.763  1.00  0.00     0.164 HD
HETATM   18  C   UNL     1      24.135  -2.442  17.310  1.00  0.00     0.030 A 
HETATM   19  C   UNL     1      24.083  -2.856  18.585  1.00  0.00    -0.016 A 
HETATM   20  C   UNL     1      24.634  -3.963  19.189  1.00  0.00     0.026 C 
ENDBRANCH  11  13
ENDBRANCH   8   9
BRANCH   1  21
HETATM   21  C   UNL     1      23.937  -4.137  24.427  1.00  0.00    -0.022 C 
BRANCH  21  22
HETATM   22  N   UNL     1      24.497  -5.095  24.705  1.00  0.00    -0.249 N 
ATOM     23  HN  UNL     1      25.063  -5.518  23.969  1.00  0.00     0.188 HD
BRANCH  22  24
HETATM   24  S   UNL     1      24.495  -5.866  26.152  1.00  0.00     0.233 S 
HETATM   25  C   UNL     1      26.138  -5.782  26.669  1.00  0.00     0.186 C 
HETATM   26  O   UNL     1      23.716  -5.174  27.121  1.00  0.00    -0.205 OA
HETATM   27  O   UNL     1      24.064  -7.230  25.961  1.00  0.00    -0.205 OA
ENDBRANCH  22  24
ENDBRANCH  21  22
ENDBRANCH   1  21
TORSDOF 5
ENDMDL
MODEL 9
REMARK VINA RESULT:    -6.616      2.657      6.937
REMARK INTER + INTRA:          -9.243
REMARK INTER:                  -8.375
REMARK INTRA:                  -0.868
REMARK UNBOUND:                -0.693
REMARK  5 active torsions:
REMARK  status: ('A' for Active; 'I' for Inactive)
REMARK    1  A    between atoms: S_2  and  N_5 
REMARK    2  A    between atoms: N_5  and  C_7 
REMARK    3  A    between atoms: C_7  and  C_8 
REMARK    4  A    between atoms: C_15  and  C_16 
REMARK       I    between atoms: C_16  and  N_18 
REMARK    5  A    between atoms: N_18  and  C_20 
ROOT
HETATM    1  C   UNL     1       7.316  -1.496  22.472  1.00  0.00     0.040 A 
HETATM    2  C   UNL     1       8.382  -1.398  23.205  1.00  0.00     0.066 A 
HETATM    3  C   UNL     1       9.905  -1.976  22.782  1.00  0.00    -0.003 C 
HETATM    4  C   UNL     1      10.833  -1.509  23.075  1.00  0.00    -0.002 C 
HETATM    5  C   UNL     1      11.005  -0.269  23.754  1.00  0.00    -0.001 C 
HETATM    6  C   UNL     1       9.958   0.325  23.960  1.00  0.00    -0.002 C 
HETATM    7  C   UNL     1       8.830   0.077  23.767  1.00  0.00    -0.003 C 
HETATM    8  C   UNL     1       7.820  -2.008  24.033  1.00  0.00     0.049 A 
ENDROOT
BRANCH   8   9
HETATM    9  C   UNL     1       7.418  -2.713  25.179  1.00  0.00     0.255 C 
HETATM   10  O   UNL     1       7.160  -2.114  26.145  1.00  0.00    -0.268 OA
HETATM   11  N   UNL     1       7.458  -3.989  24.933  1.00  0.00    -0.321 N 
ATOM     12  HN  UNL     1       7.797  -4.321  24.030  1.00  0.00     0.169 HD
BRANCH  11  13
HETATM   13  C   UNL     1       7.086  -4.801  25.788  1.00  0.00     0.060 A 
HETATM   14  C   UNL     1       7.562  -5.354  26.871  1.00  0.00     0.117 A 
HETATM   15  N   UNL     1       7.423  -6.104  27.887  1.00  0.00    -0.373 N 
HETATM   16  C   UNL     1       6.229  -6.424  27.614  1.00  0.00     0.088 A 
ATOM     17  HN  UNL     1       8.049  -6.357  28.650  1.00  0.00     0.164 HD
HETATM   18  C   UNL     1       5.446  -6.165  26.708  1.00  0.00     0.030 A 
HETATM   19  C   UNL     1       5.608  -5.344  25.660  1.00  0.00    -0.016 A 
HETATM   20  C   UNL     1       4.741  -5.005  24.647  1.00  0.00     0.026 C 
ENDBRANCH  11  13
ENDBRANCH   8   9
BRANCH   1  21
HETATM   21  C   UNL     1       6.641  -1.317  21.436  1.00  0.00    -0.022 C 
BRANCH  21  22
HETATM   22  N   UNL     1       6.202  -0.818  20.506  1.00  0.00    -0.249 N 
ATOM     23  HN  UNL     1       5.526  -1.367  19.975  1.00  0.00     0.188 HD
BRANCH  22  24
HETATM   24  S   UNL     1       6.536   0.680  19.928  1.00  0.00     0.233 S 
HETATM   25  C   UNL     1       5.021   1.237  19.322  1.00  0.00     0.186 C 
HETATM   26  O   UNL     1       6.927   1.573  20.964  1.00  0.00    -0.205 OA
HETATM   27  O   UNL     1       7.524   0.574  18.881  1.00  0.00    -0.205 OA
ENDBRANCH  22  24
ENDBRANCH  21  22
ENDBRANCH   1  21
TORSDOF 5
ENDMDL
