stable:False satoms:7 tatoms:24 sratio:0.2916666666666667
  -OEChem-07092417453D

 24 26  0     1  0  0  0  0  0999 V2000
    6.6199   -4.9125   26.4138 C   0  0  0  0  0  0  0  0  0  0  0  0
    8.2153   -4.3225   26.1294 S   0  0  0  0  0  0  0  0  0  0  0  0
    9.0780   -5.4523   26.0870 O   0  0  0  0  0  0  0  0  0  0  0  0
    8.6123   -3.3540   27.1237 O   0  0  0  0  0  0  0  0  0  0  0  0
    8.1064   -3.5797   24.6714 N   0  0  0  0  0  0  0  0  0  0  0  0
    8.8953   -2.9236   24.1654 C   0  0  0  0  0  0  0  0  0  0  0  0
    9.4143   -1.9931   23.5137 C   0  0  0  0  0  0  0  0  0  0  0  0
   10.3631   -1.1601   23.2180 C   0  0  1  0  0  0  0  0  0  0  0  0
   11.0456   -0.0509   24.2831 C   0  0  0  0  0  0  0  0  0  0  0  0
   12.0795    0.2624   24.2534 C   0  0  0  0  0  0  0  0  0  0  0  0
   13.1178   -0.2527   23.4262 C   0  0  0  0  0  0  0  0  0  0  0  0
   12.7669   -1.1912   22.7257 C   0  0  0  0  0  0  0  0  0  0  0  0
   11.7454   -1.7330   22.5446 C   0  0  0  0  0  0  0  0  0  0  0  0
    9.6562   -0.7075   22.3989 C   0  0  3  0  0  0  0  0  0  0  0  0
    9.0466    0.0332   21.3731 C   0  0  0  0  0  0  0  0  0  0  0  0
    9.5944    0.9771   20.9633 O   0  0  0  0  0  0  0  0  0  0  0  0
    7.8922   -0.4927   21.0919 N   0  0  0  0  0  0  0  0  0  0  0  0
    7.2050   -0.0338   20.1721 C   0  0  0  0  0  0  0  0  0  0  0  0
    7.2585    0.0464   18.8699 C   0  0  0  0  0  0  0  0  0  0  0  0
    6.7410    0.3735   17.7570 N   0  0  0  0  0  0  0  0  0  0  0  0
    5.6865    0.8473   18.2699 C   0  0  0  0  0  0  0  0  0  0  0  0
    5.2648    0.9925   19.4106 C   0  0  0  0  0  0  0  0  0  0  0  0
    5.8195    0.6102   20.5713 C   0  0  0  0  0  0  0  0  0  0  0  0
    5.3597    0.7268   21.8633 C   0  0  0  0  0  0  0  0  0  0  0  0
 20 21  2  0  0  0  0
 19 20  1  0  0  0  0
 21 22  1  0  0  0  0
 18 19  2  0  0  0  0
 22 23  2  0  0  0  0
 18 23  1  0  0  0  0
 17 18  1  0  0  0  0
 23 24  1  0  0  0  0
 15 16  2  0  0  0  0
 15 17  1  0  0  0  0
 14 15  1  0  0  0  0
  8 14  1  0  0  0  0
  7 14  1  0  0  0  0
 12 13  1  0  0  0  0
  8 13  1  0  0  0  0
 11 12  2  0  0  0  0
  7  8  1  0  0  0  0
  8  9  1  0  0  0  0
 10 11  1  0  0  0  0
  6  7  2  0  0  0  0
  5  6  1  0  0  0  0
  9 10  2  0  0  0  0
  2  5  1  0  0  0  0
  2  3  2  0  0  0  0
  1  2  1  0  0  0  0
  2  4  2  0  0  0  0
M  END
> <Shapegauss>
-288.134094

$$$$
