REMARK  5 active torsions:
REMARK  status: ('A' for Active; 'I' for Inactive)
REMARK    1  A    between atoms: S_2  and  N_5 
REMARK    2  A    between atoms: N_5  and  C_7 
REMARK    3  A    between atoms: C_7  and  C_8 
REMARK    4  A    between atoms: C_15  and  C_16 
REMARK       I    between atoms: C_16  and  N_18 
REMARK    5  A    between atoms: N_18  and  C_20 
ROOT
HETATM    1  C   UNL     1       9.414  -1.993  23.514  1.00  0.00     0.040 A 
HETATM    2  C   UNL     1      10.363  -1.160  23.218  1.00  0.00     0.066 A 
HETATM    3  C   UNL     1      11.046  -0.051  24.283  1.00  0.00    -0.003 C 
HETATM    4  C   UNL     1      12.079   0.262  24.253  1.00  0.00    -0.002 C 
HETATM    5  C   UNL     1      13.118  -0.253  23.426  1.00  0.00    -0.001 C 
HETATM    6  C   UNL     1      12.767  -1.191  22.726  1.00  0.00    -0.002 C 
HETATM    7  C   UNL     1      11.745  -1.733  22.545  1.00  0.00    -0.003 C 
HETATM    8  C   UNL     1       9.656  -0.708  22.399  1.00  0.00     0.049 A 
ENDROOT
BRANCH   8   9
HETATM    9  C   UNL     1       9.047   0.033  21.373  1.00  0.00     0.255 C 
HETATM   10  O   UNL     1       9.594   0.977  20.963  1.00  0.00    -0.268 OA
HETATM   11  N   UNL     1       7.892  -0.493  21.092  1.00  0.00    -0.321 N 
ATOM     12  HN  UNL     1       7.551  -1.288  21.633  1.00  0.00     0.169 HD
BRANCH  11  13
HETATM   13  C   UNL     1       7.205  -0.034  20.172  1.00  0.00     0.060 A 
HETATM   14  C   UNL     1       7.258   0.046  18.870  1.00  0.00     0.117 A 
HETATM   15  N   UNL     1       6.741   0.373  17.757  1.00  0.00    -0.373 N 
HETATM   16  C   UNL     1       5.686   0.847  18.270  1.00  0.00     0.088 A 
ATOM     17  HN  UNL     1       7.062   0.285  16.793  1.00  0.00     0.164 HD
HETATM   18  C   UNL     1       5.265   0.993  19.411  1.00  0.00     0.030 A 
HETATM   19  C   UNL     1       5.819   0.610  20.571  1.00  0.00    -0.016 A 
HETATM   20  C   UNL     1       5.360   0.727  21.863  1.00  0.00     0.026 C 
ENDBRANCH  11  13
ENDBRANCH   8   9
BRANCH   1  21
HETATM   21  C   UNL     1       8.895  -2.924  24.165  1.00  0.00    -0.022 C 
BRANCH  21  22
HETATM   22  N   UNL     1       8.106  -3.580  24.671  1.00  0.00    -0.249 N 
ATOM     23  HN  UNL     1       7.236  -3.719  24.157  1.00  0.00     0.188 HD
BRANCH  22  24
HETATM   24  S   UNL     1       8.215  -4.322  26.129  1.00  0.00     0.233 S 
HETATM   25  C   UNL     1       6.620  -4.912  26.414  1.00  0.00     0.186 C 
HETATM   26  O   UNL     1       9.078  -5.452  26.087  1.00  0.00    -0.205 OA
HETATM   27  O   UNL     1       8.612  -3.354  27.124  1.00  0.00    -0.205 OA
ENDBRANCH  22  24
ENDBRANCH  21  22
ENDBRANCH   1  21
TORSDOF 5
