stable:False satoms:9 tatoms:24 sratio:0.375
  -OEChem-08062413123D

 38 40  0     1  0  0  0  0  0999 V2000
    6.2689   -5.4002   26.2108 C   0  0  0  0  0  0  0  0  0  0  0  0
    7.9337   -4.8906   26.0375 S   0  0  0  0  0  0  0  0  0  0  0  0
    8.7492   -6.0591   25.9158 O   0  0  0  0  0  0  0  0  0  0  0  0
    8.2634   -4.1092   27.2024 O   0  0  0  0  0  0  0  0  0  0  0  0
    7.9219   -4.0520   24.6601 N   0  0  0  0  0  0  0  0  0  0  0  0
    8.7686   -3.3207   24.1745 C   0  0  0  0  0  0  0  0  0  0  0  0
    9.2497   -2.4412   23.6580 C   0  0  0  0  0  0  0  0  0  0  0  0
   10.1911   -1.5870   23.3883 C   0  0  1  0  0  0  0  0  0  0  0  0
   10.7691   -0.4742   24.5686 C   0  0  0  0  0  0  0  0  0  0  0  0
   11.8108   -0.1450   24.5557 C   0  0  0  0  0  0  0  0  0  0  0  0
   12.9607   -0.5180   23.8049 C   0  0  0  0  0  0  0  0  0  0  0  0
   12.6196   -1.5077   23.0067 C   0  0  0  0  0  0  0  0  0  0  0  0
   11.6268   -2.0369   22.8293 C   0  0  0  0  0  0  0  0  0  0  0  0
    9.6113   -0.8969   22.5233 C   0  0  0  0  0  0  0  0  0  0  0  0
    8.9822   -0.2519   21.5498 C   0  0  0  0  0  0  0  0  0  0  0  0
    9.4873    0.7269   21.2248 O   0  0  0  0  0  0  0  0  0  0  0  0
    7.8481   -0.8877   21.1397 N   0  0  0  0  0  0  0  0  0  0  0  0
    7.1664   -0.3673   20.2063 C   0  0  0  0  0  0  0  0  0  0  0  0
    7.2108   -0.1672   18.8916 C   0  0  0  0  0  0  0  0  0  0  0  0
    6.9535    0.1038   17.7056 N   0  0  0  0  0  0  0  0  0  0  0  0
    5.8845    0.5335   18.2349 C   0  0  0  0  0  0  0  0  0  0  0  0
    5.2309    0.6644   19.3428 C   0  0  0  0  0  0  0  0  0  0  0  0
    5.7568    0.2269   20.4782 C   0  0  0  0  0  0  0  0  0  0  0  0
    5.1544    0.3022   21.9513 Cl  0  0  0  0  0  0  0  0  0  0  0  0
    6.1596   -5.9901   27.1328 H   0  0  0  0  0  0  0  0  0  0  0  0
    5.6181   -4.5149   26.2626 H   0  0  0  0  0  0  0  0  0  0  0  0
    5.9822   -6.0160   25.3456 H   0  0  0  0  0  0  0  0  0  0  0  0
    7.1134   -3.4687   24.7381 H   0  0  0  0  0  0  0  0  0  0  0  0
   10.0974   -0.0993   25.3267 H   0  0  0  0  0  0  0  0  0  0  0  0
   12.0128    0.6376   25.2721 H   0  0  0  0  0  0  0  0  0  0  0  0
   13.9400   -0.0686   23.8772 H   0  0  0  0  0  0  0  0  0  0  0  0
   13.4335   -1.8891   22.4079 H   0  0  0  0  0  0  0  0  0  0  0  0
   11.5108   -2.0676   21.7358 H   0  0  0  0  0  0  0  0  0  0  0  0
   11.7750   -3.0578   23.2111 H   0  0  0  0  0  0  0  0  0  0  0  0
   10.4779   -0.2243   22.4429 H   0  0  0  0  0  0  0  0  0  0  0  0
    8.9091   -0.5025   23.2725 H   0  0  0  0  0  0  0  0  0  0  0  0
    7.5604   -1.7454   21.5657 H   0  0  0  0  0  0  0  0  0  0  0  0
    4.2565    1.1302   19.3430 H   0  0  0  0  0  0  0  0  0  0  0  0
 20 21  2  0  0  0  0
 19 20  1  0  0  0  0
 19 21  1  0  0  0  0
 21 22  1  0  0  0  0
 18 19  2  0  0  0  0
 22 23  2  0  0  0  0
 18 23  1  0  0  0  0
 17 18  1  0  0  0  0
 23 24  1  0  0  0  0
 15 16  2  0  0  0  0
 15 17  1  0  0  0  0
 14 15  1  0  0  0  0
  8 14  1  0  0  0  0
 12 13  1  0  0  0  0
  8 13  1  0  0  0  0
 11 12  2  0  0  0  0
  7  8  1  0  0  0  0
  8  9  1  0  0  0  0
 10 11  1  0  0  0  0
  6  7  3  0  0  0  0
  5  6  1  0  0  0  0
  9 10  2  0  0  0  0
  2  5  1  0  0  0  0
  2  3  2  0  0  0  0
  1  2  1  0  0  0  0
  2  4  2  0  0  0  0
  1 25  1  0  0  0  0
  1 26  1  0  0  0  0
  1 27  1  0  0  0  0
  5 28  1  0  0  0  0
  9 29  1  0  0  0  0
 10 30  1  0  0  0  0
 11 31  1  0  0  0  0
 12 32  1  0  0  0  0
 13 33  1  0  0  0  0
 13 34  1  0  0  0  0
 14 35  1  0  0  0  0
 14 36  1  0  0  0  0
 17 37  1  0  0  0  0
 22 38  1  0  0  0  0
M  END
> <Chemgauss4>
-8.927535

$$$$
