stable:False satoms:9 tatoms:24 sratio:0.375
  -OEChem-08062413123D

 38 40  0     1  0  0  0  0  0999 V2000
   -6.5527   -5.2032  -26.2838 C   0  0  0  0  0  0  0  0  0  0  0  0
   -8.2012   -4.6516  -26.0860 S   0  0  0  0  0  0  0  0  0  0  0  0
   -9.0442   -5.7990  -25.9525 O   0  0  0  0  0  0  0  0  0  0  0  0
   -8.5280   -3.8614  -27.2457 O   0  0  0  0  0  0  0  0  0  0  0  0
   -8.1479   -3.8143  -24.7087 N   0  0  0  0  0  0  0  0  0  0  0  0
   -8.9685   -3.0620  -24.2106 C   0  0  0  0  0  0  0  0  0  0  0  0
   -9.4194   -2.1709  -23.6868 C   0  0  0  0  0  0  0  0  0  0  0  0
  -10.3347   -1.2931  -23.4032 C   0  0  1  0  0  0  0  0  0  0  0  0
  -10.9016   -0.1654  -24.5747 C   0  0  0  0  0  0  0  0  0  0  0  0
  -11.9343    0.1902  -24.5464 C   0  0  0  0  0  0  0  0  0  0  0  0
  -13.0821   -0.1539  -23.7788 C   0  0  0  0  0  0  0  0  0  0  0  0
  -12.7546   -1.1523  -22.9859 C   0  0  0  0  0  0  0  0  0  0  0  0
  -11.7731   -1.7067  -22.8232 C   0  0  0  0  0  0  0  0  0  0  0  0
   -9.7249   -0.6186  -22.5466 C   0  0  0  0  0  0  0  0  0  0  0  0
   -9.0654    0.0097  -21.5824 C   0  0  0  0  0  0  0  0  0  0  0  0
   -9.5407    1.0008  -21.2498 O   0  0  0  0  0  0  0  0  0  0  0  0
   -7.9420   -0.6549  -21.1891 N   0  0  0  0  0  0  0  0  0  0  0  0
   -7.2336   -0.1525  -20.2658 C   0  0  0  0  0  0  0  0  0  0  0  0
   -7.2536    0.0478  -18.9505 C   0  0  0  0  0  0  0  0  0  0  0  0
   -6.9721    0.3115  -17.7683 N   0  0  0  0  0  0  0  0  0  0  0  0
   -5.9005    0.7142  -18.3132 C   0  0  0  0  0  0  0  0  0  0  0  0
   -5.2600    0.8291  -19.4305 C   0  0  0  0  0  0  0  0  0  0  0  0
   -5.8135    0.4058  -20.5582 C   0  0  0  0  0  0  0  0  0  0  0  0
   -5.2311    0.4665  -22.0400 Cl  0  0  0  0  0  0  0  0  0  0  0  0
   -6.4719   -5.7951  -27.2075 H   0  0  0  0  0  0  0  0  0  0  0  0
   -5.8804   -4.3347  -26.3450 H   0  0  0  0  0  0  0  0  0  0  0  0
   -6.2690   -5.8265  -25.4230 H   0  0  0  0  0  0  0  0  0  0  0  0
   -7.3260   -3.2517  -24.7985 H   0  0  0  0  0  0  0  0  0  0  0  0
  -10.2318    0.1928  -25.3424 H   0  0  0  0  0  0  0  0  0  0  0  0
  -12.1268    0.9781  -25.2595 H   0  0  0  0  0  0  0  0  0  0  0  0
  -14.0507    0.3203  -23.8366 H   0  0  0  0  0  0  0  0  0  0  0  0
  -13.5691   -1.5134  -22.3754 H   0  0  0  0  0  0  0  0  0  0  0  0
  -11.6418   -1.7411  -21.7316 H   0  0  0  0  0  0  0  0  0  0  0  0
  -11.9528   -2.7233  -23.2031 H   0  0  0  0  0  0  0  0  0  0  0  0
  -10.5729    0.0759  -22.4534 H   0  0  0  0  0  0  0  0  0  0  0  0
   -9.0241   -0.2416  -23.3060 H   0  0  0  0  0  0  0  0  0  0  0  0
   -7.6825   -1.5195  -21.6195 H   0  0  0  0  0  0  0  0  0  0  0  0
   -4.2742    1.2700  -19.4450 H   0  0  0  0  0  0  0  0  0  0  0  0
 20 21  2  0  0  0  0
 19 20  1  0  0  0  0
 19 21  1  0  0  0  0
 21 22  1  0  0  0  0
 18 19  2  0  0  0  0
 22 23  2  0  0  0  0
 18 23  1  0  0  0  0
 17 18  1  0  0  0  0
 23 24  1  0  0  0  0
 15 16  2  0  0  0  0
 15 17  1  0  0  0  0
 14 15  1  0  0  0  0
  8 14  1  0  0  0  0
 12 13  1  0  0  0  0
  8 13  1  0  0  0  0
 11 12  2  0  0  0  0
  7  8  1  0  0  0  0
  8  9  1  0  0  0  0
 10 11  1  0  0  0  0
  6  7  3  0  0  0  0
  5  6  1  0  0  0  0
  9 10  2  0  0  0  0
  2  5  1  0  0  0  0
  2  3  2  0  0  0  0
  1  2  1  0  0  0  0
  2  4  2  0  0  0  0
  1 25  1  0  0  0  0
  1 26  1  0  0  0  0
  1 27  1  0  0  0  0
  5 28  1  0  0  0  0
  9 29  1  0  0  0  0
 10 30  1  0  0  0  0
 11 31  1  0  0  0  0
 12 32  1  0  0  0  0
 13 33  1  0  0  0  0
 13 34  1  0  0  0  0
 14 35  1  0  0  0  0
 14 36  1  0  0  0  0
 17 37  1  0  0  0  0
 22 38  1  0  0  0  0
M  END
> <Chemgauss4>
-8.964555

$$$$
