
 OpenBabel07202414163D

 30 31  0  0  0  0  0  0  0  0999 V2000
    1.7237    0.7107    0.3364 C   0  0  0  0  0  0  0  0  0  0  0  0
    3.0369    0.0736   -0.0100 C   0  0  0  0  0  0  0  0  0  0  0  0
    4.1028    0.9010   -0.3883 C   0  0  0  0  0  0  0  0  0  0  0  0
    5.3462    0.3441   -0.6054 C   0  0  0  0  0  0  0  0  0  0  0  0
    5.5794   -0.9692   -0.4446 N   0  0  0  0  0  0  0  0  0  0  0  0
    4.5503   -1.7835   -0.0730 N   0  0  0  0  0  0  0  0  0  0  0  0
    3.3007   -1.2933    0.0918 C   0  0  0  0  0  0  0  0  0  0  0  0
    2.3683   -2.2619    0.4900 N   0  0  0  0  0  0  0  0  0  0  0  0
    1.1538   -2.4657   -0.1339 C   0  0  0  0  0  0  0  0  0  0  0  0
    0.7228   -1.8236   -1.0855 O   0  0  0  0  0  0  0  0  0  0  0  0
    0.3593   -3.6078    0.4888 C   0  0  0  0  0  0  0  0  0  0  0  0
    0.7018   -5.0013    0.0079 C   0  0  0  0  0  0  0  0  0  0  0  0
    0.5321   -5.3677   -1.3338 C   0  0  0  0  0  0  0  0  0  0  0  0
    0.7317   -6.6926   -1.7451 C   0  0  0  0  0  0  0  0  0  0  0  0
    1.1032   -7.6688   -0.8205 C   0  0  0  0  0  0  0  0  0  0  0  0
    1.2845   -7.3119    0.5125 C   0  0  0  0  0  0  0  0  0  0  0  0
    1.0889   -5.9927    0.9273 C   0  0  0  0  0  0  0  0  0  0  0  0
    1.7244   -8.5130    1.6648 Cl  0  0  0  0  0  0  0  0  0  0  0  0
    1.8482    1.7855    0.5236 H   0  0  0  0  0  0  0  0  0  0  0  0
    1.3155    0.2859    1.2591 H   0  0  0  0  0  0  0  0  0  0  0  0
    1.0037    0.6035   -0.4769 H   0  0  0  0  0  0  0  0  0  0  0  0
    3.9765    1.9771   -0.4865 H   0  0  0  0  0  0  0  0  0  0  0  0
    6.2040    0.9396   -0.8921 H   0  0  0  0  0  0  0  0  0  0  0  0
    2.8274   -3.1106    0.7967 H   0  0  0  0  0  0  0  0  0  0  0  0
   -0.7059   -3.4233    0.3035 H   0  0  0  0  0  0  0  0  0  0  0  0
    0.4842   -3.5453    1.5772 H   0  0  0  0  0  0  0  0  0  0  0  0
    0.2153   -4.6316   -2.0722 H   0  0  0  0  0  0  0  0  0  0  0  0
    0.5769   -6.9681   -2.7859 H   0  0  0  0  0  0  0  0  0  0  0  0
    1.2363   -8.6984   -1.1404 H   0  0  0  0  0  0  0  0  0  0  0  0
    1.2118   -5.7475    1.9809 H   0  0  0  0  0  0  0  0  0  0  0  0
  1  2  1  0  0  0  0
  1 19  1  0  0  0  0
  1 20  1  0  0  0  0
  1 21  1  0  0  0  0
  2  3  1  0  0  0  0
  2  7  2  0  0  0  0
  3  4  2  0  0  0  0
  3 22  1  0  0  0  0
  4  5  1  0  0  0  0
  4 23  1  0  0  0  0
  5  6  2  0  0  0  0
  6  7  1  0  0  0  0
  7  8  1  0  0  0  0
  8  9  1  0  0  0  0
  8 24  1  0  0  0  0
  9 10  2  0  0  0  0
  9 11  1  0  0  0  0
 11 12  1  0  0  0  0
 11 25  1  0  0  0  0
 11 26  1  0  0  0  0
 12 13  1  0  0  0  0
 12 17  2  0  0  0  0
 13 14  2  0  0  0  0
 13 27  1  0  0  0  0
 14 15  1  0  0  0  0
 14 28  1  0  0  0  0
 15 16  2  0  0  0  0
 15 29  1  0  0  0  0
 16 17  1  0  0  0  0
 16 18  1  0  0  0  0
 17 30  1  0  0  0  0
M  END
$$$$
