stable:False satoms:21 tatoms:24 sratio:0.875
  -OEChem-07092417313D

 24 24  0     1  0  0  0  0  0999 V2000
    7.9429   -2.7429   22.0550 H   0  0  0  0  0  0  0  0  0  0  0  0
    9.2749   -4.4874   22.7088 H   0  0  0  0  0  0  0  0  0  0  0  0
    8.9690   -4.2284   25.2387 O   0  0  0  0  0  0  0  0  0  0  0  0
    8.9665   -3.3259   24.4110 C   0  0  0  0  0  0  0  0  0  0  0  0
    8.4151   -2.0806   24.5821 C   0  0  3  0  0  0  0  0  0  0  0  0
    7.1614   -1.1221   25.6955 H   0  0  0  0  0  0  0  0  0  0  0  0
    9.9212   -0.6721   24.3904 H   0  0  0  0  0  0  0  0  0  0  0  0
    9.4758   -1.2405   22.3796 C   0  0  1  0  0  0  0  0  0  0  0  0
    9.5232   -3.4635   22.9975 C   0  0  0  0  0  0  0  0  0  0  0  0
    8.5957    0.0343   20.4793 C   0  0  0  0  0  0  0  0  0  0  0  0
   10.5822   -1.3210   22.3097 H   0  0  0  0  0  0  0  0  0  0  0  0
   10.6050   -3.3376   23.0219 H   0  0  0  0  0  0  0  0  0  0  0  0
    9.7709    0.7081   22.0529 H   0  0  0  0  0  0  0  0  0  0  0  0
    7.5113   -1.9389   25.4800 O   0  0  0  0  0  0  0  0  0  0  0  0
    8.0815    0.1557   23.7874 O   0  0  0  0  0  0  0  0  0  0  0  0
    9.0032   -0.8954   23.8163 C   0  0  1  0  0  0  0  0  0  0  0  0
    8.9441   -2.4980   22.0062 N   0  0  0  0  0  0  0  0  0  0  0  0
    7.9377    1.2157   18.8567 H   0  0  0  0  0  0  0  0  0  0  0  0
    9.1604    0.0043   21.6559 N   0  0  0  0  0  0  0  0  0  0  0  0
    8.4022   -0.9594   19.7576 O   0  0  0  0  0  0  0  0  0  0  0  0
    7.3280   -0.2174   23.2121 H   0  0  0  0  0  0  0  0  0  0  0  0
    8.0773    1.3594   19.9241 C   0  0  0  0  0  0  0  0  0  0  0  0
    7.1444    1.6048   20.4017 H   0  0  0  0  0  0  0  0  0  0  0  0
    8.7902    2.1586   20.0763 H   0  0  0  0  0  0  0  0  0  0  0  0
 18 22  1  0  0  0  0
 10 20  2  0  0  0  0
 22 24  1  0  0  0  0
 22 23  1  0  0  0  0
 10 22  1  0  0  0  0
 10 19  1  0  0  0  0
 13 19  1  0  0  0  0
  8 19  1  0  0  0  0
  1 17  1  0  0  0  0
  8 17  1  0  0  0  0
  9 17  1  0  0  0  0
  8 11  1  0  0  0  0
  8 16  1  0  0  0  0
  2  9  1  0  0  0  0
  9 12  1  0  0  0  0
  4  9  1  0  0  0  0
 15 21  1  0  0  0  0
 15 16  1  0  0  0  0
  7 16  1  0  0  0  0
  5 16  1  0  0  0  0
  4  5  1  0  0  0  0
  3  4  2  0  0  0  0
  5 14  1  0  0  0  0
  6 14  1  0  0  0  0
M  END
> <Shapegauss>
-103.301193

$$$$
