REMARK  4 active torsions:
REMARK  status: ('A' for Active; 'I' for Inactive)
REMARK    1  A    between atoms: S_2  and  N_5 
REMARK    2  A    between atoms: N_5  and  C_7 
REMARK    3  A    between atoms: C_15  and  C_16 
REMARK       I    between atoms: C_16  and  N_18 
REMARK    4  A    between atoms: N_18  and  C_20 
ROOT
HETATM    1  C   UNL     1       8.910  -2.890  24.145  1.00  0.00     0.109 C 
HETATM    2  C   UNL     1       9.406  -1.957  23.494  1.00  0.00    -0.008 A 
HETATM    3  C   UNL     1      10.333  -1.079  23.252  1.00  0.00     0.058 A 
HETATM    4  C   UNL     1      11.009  -0.020  24.283  1.00  0.00    -0.003 C 
HETATM    5  C   UNL     1      12.063   0.275  24.252  1.00  0.00    -0.002 C 
HETATM    6  C   UNL     1      13.111  -0.194  23.503  1.00  0.00    -0.001 C 
HETATM    7  C   UNL     1      12.706  -1.261  22.695  1.00  0.00    -0.002 C 
HETATM    8  C   UNL     1      11.828  -1.752  22.524  1.00  0.00    -0.003 C 
HETATM    9  C   UNL     1       9.716  -0.626  22.337  1.00  0.00     0.040 A 
ENDROOT
BRANCH   9  10
HETATM   10  C   UNL     1       9.061   0.022  21.365  1.00  0.00     0.254 C 
HETATM   11  O   UNL     1       9.560   0.964  20.928  1.00  0.00    -0.268 OA
HETATM   12  N   UNL     1       7.916  -0.594  21.138  1.00  0.00    -0.321 N 
ATOM     13  HN  UNL     1       7.612  -1.402  21.682  1.00  0.00     0.169 HD
BRANCH  12  14
HETATM   14  C   UNL     1       7.226  -0.112  20.202  1.00  0.00     0.060 A 
HETATM   15  C   UNL     1       7.256   0.016  18.960  1.00  0.00     0.117 A 
HETATM   16  N   UNL     1       6.764   0.400  17.801  1.00  0.00    -0.373 N 
HETATM   17  C   UNL     1       5.720   0.898  18.292  1.00  0.00     0.088 A 
ATOM     18  HN  UNL     1       7.108   0.321  16.844  1.00  0.00     0.164 HD
HETATM   19  C   UNL     1       5.306   1.010  19.439  1.00  0.00     0.030 A 
HETATM   20  C   UNL     1       5.770   0.582  20.633  1.00  0.00    -0.016 A 
HETATM   21  C   UNL     1       5.325   0.651  21.780  1.00  0.00     0.026 C 
ENDBRANCH  12  14
ENDBRANCH   9  10
BRANCH   1  22
HETATM   22  N   UNL     1       8.075  -3.512  24.689  1.00  0.00    -0.295 N 
ATOM     23  HN  UNL     1       7.174  -3.543  24.212  1.00  0.00     0.177 HD
BRANCH  22  24
HETATM   24  S   UNL     1       8.146  -4.342  26.110  1.00  0.00     0.226 S 
HETATM   25  C   UNL     1       6.747  -4.882  26.343  1.00  0.00     0.186 C 
HETATM   26  O   UNL     1       9.083  -5.432  25.979  1.00  0.00    -0.206 OA
HETATM   27  O   UNL     1       8.544  -3.454  27.152  1.00  0.00    -0.206 OA
ENDBRANCH  22  24
ENDBRANCH   1  22
TORSDOF 4
