stable:False satoms:6 tatoms:24 sratio:0.25
  -OEChem-07092417473D

 24 26  0     1  0  0  0  0  0999 V2000
    6.7472   -4.8823   26.3425 C   0  0  0  0  0  0  0  0  0  0  0  0
    8.1463   -4.3418   26.1097 S   0  0  0  0  0  0  0  0  0  0  0  0
    9.0828   -5.4323   25.9791 O   0  0  0  0  0  0  0  0  0  0  0  0
    8.5445   -3.4543   27.1521 O   0  0  0  0  0  0  0  0  0  0  0  0
    8.0753   -3.5124   24.6892 N   0  0  0  0  0  0  0  0  0  0  0  0
    8.9101   -2.8901   24.1451 C   0  0  0  0  0  0  0  0  0  0  0  0
    9.4064   -1.9569   23.4943 C   0  0  0  0  0  0  0  0  0  0  0  0
   10.3333   -1.0795   23.2521 C   0  0  1  0  0  0  0  0  0  0  0  0
   11.0089   -0.0201   24.2829 C   0  0  0  0  0  0  0  0  0  0  0  0
   12.0629    0.2751   24.2524 C   0  0  0  0  0  0  0  0  0  0  0  0
   13.1113   -0.1937   23.5029 C   0  0  0  0  0  0  0  0  0  0  0  0
   12.7058   -1.2610   22.6946 C   0  0  0  0  0  0  0  0  0  0  0  0
   11.8279   -1.7525   22.5240 C   0  0  0  0  0  0  0  0  0  0  0  0
    9.7165   -0.6257   22.3365 C   0  0  2  0  0  0  0  0  0  0  0  0
    9.0607    0.0220   21.3647 C   0  0  0  0  0  0  0  0  0  0  0  0
    9.5602    0.9637   20.9283 O   0  0  0  0  0  0  0  0  0  0  0  0
    7.9159   -0.5939   21.1382 N   0  0  0  0  0  0  0  0  0  0  0  0
    7.2265   -0.1124   20.2021 C   0  0  0  0  0  0  0  0  0  0  0  0
    7.2565    0.0164   18.9603 C   0  0  0  0  0  0  0  0  0  0  0  0
    6.7644    0.4003   17.8014 N   0  0  0  0  0  0  0  0  0  0  0  0
    5.7198    0.8978   18.2923 C   0  0  0  0  0  0  0  0  0  0  0  0
    5.3059    1.0097   19.4395 C   0  0  0  0  0  0  0  0  0  0  0  0
    5.7698    0.5824   20.6328 C   0  0  0  0  0  0  0  0  0  0  0  0
    5.3251    0.6513   21.7797 C   0  0  0  0  0  0  0  0  0  0  0  0
 20 21  2  0  0  0  0
 19 20  1  0  0  0  0
 21 22  1  0  0  0  0
 18 19  2  0  0  0  0
 22 23  2  0  0  0  0
 18 23  1  0  0  0  0
 17 18  1  0  0  0  0
 23 24  1  0  0  0  0
 15 16  2  0  0  0  0
 15 17  1  0  0  0  0
 14 15  1  0  0  0  0
  8 14  1  0  0  0  0
  7 14  1  0  0  0  0
 12 13  1  0  0  0  0
  8 13  1  0  0  0  0
 11 12  2  0  0  0  0
  7  8  1  0  0  0  0
  8  9  1  0  0  0  0
  6  7  2  3  0  0  0
 10 11  1  0  0  0  0
  5  6  1  0  0  0  0
  9 10  2  0  0  0  0
  2  5  1  0  0  0  0
  2  3  2  0  0  0  0
  1  2  1  0  0  0  0
  2  4  2  0  0  0  0
M  END
> <Shapegauss>
-287.540314

$$$$
