MODEL 1
REMARK VINA RESULT:    -7.902      0.000      0.000
REMARK INTER + INTRA:         -10.592
REMARK INTER:                  -9.750
REMARK INTRA:                  -0.841
REMARK UNBOUND:                -0.841
REMARK  4 active torsions:
REMARK  status: ('A' for Active; 'I' for Inactive)
REMARK    1  A    between atoms: S_2  and  N_5 
REMARK    2  A    between atoms: N_5  and  C_7 
REMARK    3  A    between atoms: C_15  and  C_16 
REMARK       I    between atoms: C_16  and  N_18 
REMARK    4  A    between atoms: N_18  and  C_20 
ROOT
HETATM    1  C   UNL     1       8.641   0.637  22.253  1.00  0.00     0.109 C 
HETATM    2  C   UNL     1       9.213  -0.109  23.063  1.00  0.00    -0.008 A 
HETATM    3  C   UNL     1      10.265  -0.692  23.557  1.00  0.00     0.058 A 
HETATM    4  C   UNL     1      11.404  -1.545  22.771  1.00  0.00    -0.003 C 
HETATM    5  C   UNL     1      12.465  -1.537  23.039  1.00  0.00    -0.002 C 
HETATM    6  C   UNL     1      13.164  -0.782  23.945  1.00  0.00    -0.001 C 
HETATM    7  C   UNL     1      12.325   0.148  24.567  1.00  0.00    -0.002 C 
HETATM    8  C   UNL     1      11.333   0.382  24.517  1.00  0.00    -0.003 C 
HETATM    9  C   UNL     1       9.607  -1.279  24.361  1.00  0.00     0.040 A 
ENDROOT
BRANCH   9  10
HETATM   10  C   UNL     1       8.952  -2.062  25.228  1.00  0.00     0.254 C 
HETATM   11  O   UNL     1       8.654  -1.598  26.239  1.00  0.00    -0.268 OA
HETATM   12  N   UNL     1       8.814  -3.263  24.698  1.00  0.00    -0.321 N 
ATOM     13  HN  UNL     1       9.208  -3.509  23.789  1.00  0.00     0.169 HD
BRANCH  12  14
HETATM   14  C   UNL     1       8.163  -4.084  25.396  1.00  0.00     0.060 A 
HETATM   15  C   UNL     1       8.330  -4.871  26.351  1.00  0.00     0.117 A 
HETATM   16  N   UNL     1       7.923  -5.757  27.235  1.00  0.00    -0.373 N 
HETATM   17  C   UNL     1       6.734  -5.768  26.830  1.00  0.00     0.088 A 
ATOM     18  HN  UNL     1       8.403  -6.258  27.983  1.00  0.00     0.164 HD
HETATM   19  C   UNL     1       6.153  -5.182  25.925  1.00  0.00     0.030 A 
HETATM   20  C   UNL     1       6.539  -4.237  25.041  1.00  0.00    -0.016 A 
HETATM   21  C   UNL     1       5.938  -3.611  24.165  1.00  0.00     0.026 C 
ENDBRANCH  12  14
ENDBRANCH   9  10
BRANCH   1  22
HETATM   22  N   UNL     1       7.810   0.994  21.504  1.00  0.00    -0.295 N 
ATOM     23  HN  UNL     1       7.433   1.925  21.681  1.00  0.00     0.177 HD
BRANCH  22  24
HETATM   24  S   UNL     1       7.163   0.210  20.208  1.00  0.00     0.226 S 
HETATM   25  C   UNL     1       6.034   1.095  19.711  1.00  0.00     0.186 C 
HETATM   26  O   UNL     1       8.170   0.069  19.184  1.00  0.00    -0.206 OA
HETATM   27  O   UNL     1       6.682  -1.066  20.624  1.00  0.00    -0.206 OA
ENDBRANCH  22  24
ENDBRANCH   1  22
TORSDOF 4
ENDMDL
MODEL 2
REMARK VINA RESULT:    -7.859      2.588      6.042
REMARK INTER + INTRA:         -10.538
REMARK INTER:                  -9.905
REMARK INTRA:                  -0.633
REMARK UNBOUND:                -0.841
REMARK  4 active torsions:
REMARK  status: ('A' for Active; 'I' for Inactive)
REMARK    1  A    between atoms: S_2  and  N_5 
REMARK    2  A    between atoms: N_5  and  C_7 
REMARK    3  A    between atoms: C_15  and  C_16 
REMARK       I    between atoms: C_16  and  N_18 
REMARK    4  A    between atoms: N_18  and  C_20 
ROOT
HETATM    1  C   UNL     1       8.540  -3.566  23.773  1.00  0.00     0.109 C 
HETATM    2  C   UNL     1       8.904  -2.466  23.330  1.00  0.00    -0.008 A 
HETATM    3  C   UNL     1       9.585  -1.360  23.393  1.00  0.00     0.058 A 
HETATM    4  C   UNL     1       9.670  -0.301  24.622  1.00  0.00    -0.003 C 
HETATM    5  C   UNL     1      10.577   0.251  24.891  1.00  0.00    -0.002 C 
HETATM    6  C   UNL     1      11.864   0.156  24.428  1.00  0.00    -0.001 C 
HETATM    7  C   UNL     1      11.978  -0.870  23.485  1.00  0.00    -0.002 C 
HETATM    8  C   UNL     1      11.338  -1.541  23.058  1.00  0.00    -0.003 C 
HETATM    9  C   UNL     1       9.110  -0.967  22.371  1.00  0.00     0.040 A 
ENDROOT
BRANCH   9  10
HETATM   10  C   UNL     1       8.561  -0.390  21.295  1.00  0.00     0.254 C 
HETATM   11  O   UNL     1       9.237   0.290  20.656  1.00  0.00    -0.268 OA
HETATM   12  N   UNL     1       7.289  -0.736  21.227  1.00  0.00    -0.321 N 
ATOM     13  HN  UNL     1       6.841  -1.315  21.938  1.00  0.00     0.169 HD
BRANCH  12  14
HETATM   14  C   UNL     1       6.669  -0.300  20.222  1.00  0.00     0.060 A 
HETATM   15  C   UNL     1       6.355  -0.651  19.066  1.00  0.00     0.117 A 
HETATM   16  N   UNL     1       5.774  -0.480  17.897  1.00  0.00    -0.373 N 
HETATM   17  C   UNL     1       5.337   0.667  18.166  1.00  0.00     0.088 A 
ATOM     18  HN  UNL     1       5.703  -1.069  17.068  1.00  0.00     0.164 HD
HETATM   19  C   UNL     1       5.429   1.387  19.153  1.00  0.00     0.030 A 
HETATM   20  C   UNL     1       5.977   1.212  20.374  1.00  0.00    -0.016 A 
HETATM   21  C   UNL     1       6.023   1.919  21.383  1.00  0.00     0.026 C 
ENDBRANCH  12  14
ENDBRANCH   9  10
BRANCH   1  22
HETATM   22  N   UNL     1       7.802  -4.440  24.039  1.00  0.00    -0.295 N 
ATOM     23  HN  UNL     1       7.965  -4.890  24.940  1.00  0.00     0.177 HD
BRANCH  22  24
HETATM   24  S   UNL     1       6.540  -5.045  23.170  1.00  0.00     0.226 S 
HETATM   25  C   UNL     1       7.163  -5.860  22.051  1.00  0.00     0.186 C 
HETATM   26  O   UNL     1       5.742  -5.898  24.019  1.00  0.00    -0.206 OA
HETATM   27  O   UNL     1       5.761  -3.966  22.660  1.00  0.00    -0.206 OA
ENDBRANCH  22  24
ENDBRANCH   1  22
TORSDOF 4
ENDMDL
MODEL 3
REMARK VINA RESULT:    -7.482      2.374      5.569
REMARK INTER + INTRA:         -10.072
REMARK INTER:                  -9.468
REMARK INTRA:                  -0.605
REMARK UNBOUND:                -0.841
REMARK  4 active torsions:
REMARK  status: ('A' for Active; 'I' for Inactive)
REMARK    1  A    between atoms: S_2  and  N_5 
REMARK    2  A    between atoms: N_5  and  C_7 
REMARK    3  A    between atoms: C_15  and  C_16 
REMARK       I    between atoms: C_16  and  N_18 
REMARK    4  A    between atoms: N_18  and  C_20 
ROOT
HETATM    1  C   UNL     1       5.864  -1.717  20.537  1.00  0.00     0.109 C 
HETATM    2  C   UNL     1       6.362  -2.400  21.445  1.00  0.00    -0.008 A 
HETATM    3  C   UNL     1       6.326  -3.348  22.334  1.00  0.00     0.058 A 
HETATM    4  C   UNL     1       5.193  -3.620  23.468  1.00  0.00    -0.003 C 
HETATM    5  C   UNL     1       4.879  -4.618  23.790  1.00  0.00    -0.002 C 
HETATM    6  C   UNL     1       5.191  -5.863  23.309  1.00  0.00    -0.001 C 
HETATM    7  C   UNL     1       6.021  -5.769  22.188  1.00  0.00    -0.002 C 
HETATM    8  C   UNL     1       6.452  -5.007  21.663  1.00  0.00    -0.003 C 
HETATM    9  C   UNL     1       7.423  -3.081  22.717  1.00  0.00     0.040 A 
ENDROOT
BRANCH   9  10
HETATM   10  C   UNL     1       8.599  -2.796  23.291  1.00  0.00     0.254 C 
HETATM   11  O   UNL     1       8.947  -3.479  24.151  1.00  0.00    -0.268 OA
HETATM   12  N   UNL     1       9.104  -1.720  22.718  1.00  0.00    -0.321 N 
ATOM     13  HN  UNL     1       8.608  -1.203  21.992  1.00  0.00     0.169 HD
BRANCH  12  14
HETATM   14  C   UNL     1      10.243  -1.378  23.133  1.00  0.00     0.060 A 
HETATM   15  C   UNL     1      11.449  -1.637  22.939  1.00  0.00     0.117 A 
HETATM   16  N   UNL     1      12.738  -1.482  23.152  1.00  0.00    -0.373 N 
HETATM   17  C   UNL     1      12.592  -0.596  24.031  1.00  0.00     0.088 A 
ATOM     18  HN  UNL     1      13.564  -1.923  22.747  1.00  0.00     0.164 HD
HETATM   19  C   UNL     1      11.606  -0.071  24.534  1.00  0.00     0.030 A 
HETATM   20  C   UNL     1      10.281  -0.181  24.297  1.00  0.00    -0.016 A 
HETATM   21  C   UNL     1       9.294   0.387  24.768  1.00  0.00     0.026 C 
ENDBRANCH  12  14
ENDBRANCH   9  10
BRANCH   1  22
HETATM   22  N   UNL     1       5.603  -0.750  19.923  1.00  0.00    -0.295 N 
ATOM     23  HN  UNL     1       4.631  -0.674  19.622  1.00  0.00     0.177 HD
BRANCH  22  24
HETATM   24  S   UNL     1       6.575   0.502  19.478  1.00  0.00     0.226 S 
HETATM   25  C   UNL     1       5.941   1.095  18.232  1.00  0.00     0.186 C 
HETATM   26  O   UNL     1       6.603   1.484  20.535  1.00  0.00    -0.206 OA
HETATM   27  O   UNL     1       7.885   0.007  19.212  1.00  0.00    -0.206 OA
ENDBRANCH  22  24
ENDBRANCH   1  22
TORSDOF 4
ENDMDL
MODEL 4
REMARK VINA RESULT:    -7.458      3.416      7.470
REMARK INTER + INTRA:         -10.043
REMARK INTER:                  -9.305
REMARK INTRA:                  -0.739
REMARK UNBOUND:                -0.841
REMARK  4 active torsions:
REMARK  status: ('A' for Active; 'I' for Inactive)
REMARK    1  A    between atoms: S_2  and  N_5 
REMARK    2  A    between atoms: N_5  and  C_7 
REMARK    3  A    between atoms: C_15  and  C_16 
REMARK       I    between atoms: C_16  and  N_18 
REMARK    4  A    between atoms: N_18  and  C_20 
ROOT
HETATM    1  C   UNL     1       7.052  -5.610  26.603  1.00  0.00     0.109 C 
HETATM    2  C   UNL     1       7.151  -4.916  25.579  1.00  0.00    -0.008 A 
HETATM    3  C   UNL     1       7.046  -4.720  24.298  1.00  0.00     0.058 A 
HETATM    4  C   UNL     1       7.616  -5.645  23.090  1.00  0.00    -0.003 C 
HETATM    5  C   UNL     1       7.096  -5.796  22.138  1.00  0.00    -0.002 C 
HETATM    6  C   UNL     1       5.847  -5.413  21.720  1.00  0.00    -0.001 C 
HETATM    7  C   UNL     1       5.157  -4.764  22.748  1.00  0.00    -0.002 C 
HETATM    8  C   UNL     1       5.365  -4.499  23.711  1.00  0.00    -0.003 C 
HETATM    9  C   UNL     1       7.491  -3.618  24.393  1.00  0.00     0.040 A 
ENDROOT
BRANCH   9  10
HETATM   10  C   UNL     1       8.077  -2.413  24.376  1.00  0.00     0.254 C 
HETATM   11  O   UNL     1       7.485  -1.531  24.821  1.00  0.00    -0.268 OA
HETATM   12  N   UNL     1       9.257  -2.521  23.795  1.00  0.00    -0.321 N 
ATOM     13  HN  UNL     1       9.594  -3.399  23.399  1.00  0.00     0.169 HD
BRANCH  12  14
HETATM   14  C   UNL     1       9.937  -1.462  23.764  1.00  0.00     0.060 A 
HETATM   15  C   UNL     1      10.794  -0.856  24.440  1.00  0.00     0.117 A 
HETATM   16  N   UNL     1      11.628   0.136  24.674  1.00  0.00    -0.373 N 
HETATM   17  C   UNL     1      11.342   0.761  23.622  1.00  0.00     0.088 A 
ATOM     18  HN  UNL     1      12.276   0.328  25.438  1.00  0.00     0.164 HD
HETATM   19  C   UNL     1      10.557   0.545  22.708  1.00  0.00     0.030 A 
HETATM   20  C   UNL     1       9.731  -0.485  22.425  1.00  0.00    -0.016 A 
HETATM   21  C   UNL     1       8.980  -0.724  21.478  1.00  0.00     0.026 C 
ENDBRANCH  12  14
ENDBRANCH   9  10
BRANCH   1  22
HETATM   22  N   UNL     1       7.358  -6.063  27.642  1.00  0.00    -0.295 N 
ATOM     23  HN  UNL     1       8.352  -6.263  27.755  1.00  0.00     0.177 HD
BRANCH  22  24
HETATM   24  S   UNL     1       6.418  -6.424  28.946  1.00  0.00     0.226 S 
HETATM   25  C   UNL     1       5.022  -6.653  28.397  1.00  0.00     0.186 C 
HETATM   26  O   UNL     1       6.910  -7.629  29.569  1.00  0.00    -0.206 OA
HETATM   27  O   UNL     1       6.448  -5.331  29.861  1.00  0.00    -0.206 OA
ENDBRANCH  22  24
ENDBRANCH   1  22
TORSDOF 4
ENDMDL
MODEL 5
REMARK VINA RESULT:    -7.426      2.492      6.401
REMARK INTER + INTRA:         -10.004
REMARK INTER:                  -9.305
REMARK INTRA:                  -0.699
REMARK UNBOUND:                -0.841
REMARK  4 active torsions:
REMARK  status: ('A' for Active; 'I' for Inactive)
REMARK    1  A    between atoms: S_2  and  N_5 
REMARK    2  A    between atoms: N_5  and  C_7 
REMARK    3  A    between atoms: C_15  and  C_16 
REMARK       I    between atoms: C_16  and  N_18 
REMARK    4  A    between atoms: N_18  and  C_20 
ROOT
HETATM    1  C   UNL     1       8.652  -2.672  25.759  1.00  0.00     0.109 C 
HETATM    2  C   UNL     1       8.817  -1.860  24.836  1.00  0.00    -0.008 A 
HETATM    3  C   UNL     1       9.389  -0.829  24.289  1.00  0.00     0.058 A 
HETATM    4  C   UNL     1       9.617   0.650  24.924  1.00  0.00    -0.003 C 
HETATM    5  C   UNL     1      10.503   1.265  24.738  1.00  0.00    -0.002 C 
HETATM    6  C   UNL     1      11.675   0.986  24.084  1.00  0.00    -0.001 C 
HETATM    7  C   UNL     1      11.696  -0.341  23.646  1.00  0.00    -0.002 C 
HETATM    8  C   UNL     1      11.051  -1.130  23.684  1.00  0.00    -0.003 C 
HETATM    9  C   UNL     1       8.687  -0.903  23.327  1.00  0.00     0.040 A 
ENDROOT
BRANCH   9  10
HETATM   10  C   UNL     1       7.884  -0.834  22.258  1.00  0.00     0.254 C 
HETATM   11  O   UNL     1       7.118  -1.682  22.116  1.00  0.00    -0.268 OA
HETATM   12  N   UNL     1       8.195   0.244  21.561  1.00  0.00    -0.321 N 
ATOM     13  HN  UNL     1       8.965   0.860  21.820  1.00  0.00     0.169 HD
BRANCH  12  14
HETATM   14  C   UNL     1       7.471   0.455  20.553  1.00  0.00     0.060 A 
HETATM   15  C   UNL     1       7.373   0.108  19.357  1.00  0.00     0.117 A 
HETATM   16  N   UNL     1       6.804   0.114  18.170  1.00  0.00    -0.373 N 
HETATM   17  C   UNL     1       5.902   0.927  18.491  1.00  0.00     0.088 A 
ATOM     18  HN  UNL     1       7.020  -0.370  17.298  1.00  0.00     0.164 HD
HETATM   19  C   UNL     1       5.644   1.523  19.529  1.00  0.00     0.030 A 
HETATM   20  C   UNL     1       6.183   1.494  20.767  1.00  0.00    -0.016 A 
HETATM   21  C   UNL     1       5.888   2.057  21.824  1.00  0.00     0.026 C 
ENDBRANCH  12  14
ENDBRANCH   9  10
BRANCH   1  22
HETATM   22  N   UNL     1       8.066  -3.355  26.515  1.00  0.00    -0.295 N 
ATOM     23  HN  UNL     1       7.680  -2.874  27.327  1.00  0.00     0.177 HD
BRANCH  22  24
HETATM   24  S   UNL     1       7.777  -4.975  26.455  1.00  0.00     0.226 S 
HETATM   25  C   UNL     1       6.528  -5.140  25.608  1.00  0.00     0.186 C 
HETATM   26  O   UNL     1       8.894  -5.636  25.824  1.00  0.00    -0.206 OA
HETATM   27  O   UNL     1       7.579  -5.465  27.779  1.00  0.00    -0.206 OA
ENDBRANCH  22  24
ENDBRANCH   1  22
TORSDOF 4
ENDMDL
MODEL 6
REMARK VINA RESULT:    -6.984     13.881     16.337
REMARK INTER + INTRA:          -9.459
REMARK INTER:                  -8.722
REMARK INTRA:                  -0.736
REMARK UNBOUND:                -0.841
REMARK  4 active torsions:
REMARK  status: ('A' for Active; 'I' for Inactive)
REMARK    1  A    between atoms: S_2  and  N_5 
REMARK    2  A    between atoms: N_5  and  C_7 
REMARK    3  A    between atoms: C_15  and  C_16 
REMARK       I    between atoms: C_16  and  N_18 
REMARK    4  A    between atoms: N_18  and  C_20 
ROOT
HETATM    1  C   UNL     1      23.845  -4.142  24.343  1.00  0.00     0.109 C 
HETATM    2  C   UNL     1      23.581  -3.049  23.819  1.00  0.00    -0.008 A 
HETATM    3  C   UNL     1      22.998  -1.888  23.793  1.00  0.00     0.058 A 
HETATM    4  C   UNL     1      21.431  -1.544  24.052  1.00  0.00    -0.003 C 
HETATM    5  C   UNL     1      21.079  -0.638  24.557  1.00  0.00    -0.002 C 
HETATM    6  C   UNL     1      21.763   0.358  25.204  1.00  0.00    -0.001 C 
HETATM    7  C   UNL     1      23.134   0.086  25.228  1.00  0.00    -0.002 C 
HETATM    8  C   UNL     1      23.735  -0.657  24.869  1.00  0.00    -0.003 C 
HETATM    9  C   UNL     1      23.431  -1.654  22.706  1.00  0.00     0.040 A 
ENDROOT
BRANCH   9  10
HETATM   10  C   UNL     1      23.777  -1.338  21.451  1.00  0.00     0.254 C 
HETATM   11  O   UNL     1      24.740  -0.723  21.307  1.00  0.00    -0.268 OA
HETATM   12  N   UNL     1      22.865  -1.815  20.625  1.00  0.00    -0.321 N 
ATOM     13  HN  UNL     1      22.028  -2.297  20.953  1.00  0.00     0.169 HD
BRANCH  12  14
HETATM   14  C   UNL     1      23.103  -1.632  19.403  1.00  0.00     0.060 A 
HETATM   15  C   UNL     1      22.890  -0.793  18.502  1.00  0.00     0.117 A 
HETATM   16  N   UNL     1      22.991  -0.328  17.275  1.00  0.00    -0.373 N 
HETATM   17  C   UNL     1      23.658  -1.304  16.849  1.00  0.00     0.088 A 
ATOM     18  HN  UNL     1      22.649   0.523  16.828  1.00  0.00     0.164 HD
HETATM   19  C   UNL     1      24.060  -2.335  17.373  1.00  0.00     0.030 A 
HETATM   20  C   UNL     1      24.010  -2.807  18.638  1.00  0.00    -0.016 A 
HETATM   21  C   UNL     1      24.461  -3.821  19.173  1.00  0.00     0.026 C 
ENDBRANCH  12  14
ENDBRANCH   9  10
BRANCH   1  22
HETATM   22  N   UNL     1      24.024  -5.302  24.408  1.00  0.00    -0.295 N 
ATOM     23  HN  UNL     1      23.880  -5.814  23.538  1.00  0.00     0.177 HD
BRANCH  22  24
HETATM   24  S   UNL     1      24.473  -6.221  25.699  1.00  0.00     0.226 S 
HETATM   25  C   UNL     1      25.990  -6.210  25.706  1.00  0.00     0.186 C 
HETATM   26  O   UNL     1      23.966  -5.622  26.910  1.00  0.00    -0.206 OA
HETATM   27  O   UNL     1      23.960  -7.542  25.534  1.00  0.00    -0.206 OA
ENDBRANCH  22  24
ENDBRANCH   1  22
TORSDOF 4
ENDMDL
MODEL 7
REMARK VINA RESULT:    -6.520      2.311      2.421
REMARK INTER + INTRA:          -8.886
REMARK INTER:                  -8.165
REMARK INTRA:                  -0.721
REMARK UNBOUND:                -0.841
REMARK  4 active torsions:
REMARK  status: ('A' for Active; 'I' for Inactive)
REMARK    1  A    between atoms: S_2  and  N_5 
REMARK    2  A    between atoms: N_5  and  C_7 
REMARK    3  A    between atoms: C_15  and  C_16 
REMARK       I    between atoms: C_16  and  N_18 
REMARK    4  A    between atoms: N_18  and  C_20 
ROOT
HETATM    1  C   UNL     1       8.549   1.569  23.468  1.00  0.00     0.109 C 
HETATM    2  C   UNL     1       9.084   0.537  23.904  1.00  0.00    -0.008 A 
HETATM    3  C   UNL     1      10.053  -0.327  23.965  1.00  0.00     0.058 A 
HETATM    4  C   UNL     1      10.798  -1.091  22.739  1.00  0.00    -0.003 C 
HETATM    5  C   UNL     1      11.865  -1.334  22.729  1.00  0.00    -0.002 C 
HETATM    6  C   UNL     1      12.877  -0.998  23.592  1.00  0.00    -0.001 C 
HETATM    7  C   UNL     1      12.405  -0.163  24.609  1.00  0.00    -0.002 C 
HETATM    8  C   UNL     1      11.500   0.234  24.864  1.00  0.00    -0.003 C 
HETATM    9  C   UNL     1       9.447  -1.005  24.738  1.00  0.00     0.040 A 
ENDROOT
BRANCH   9  10
HETATM   10  C   UNL     1       8.814  -1.888  25.521  1.00  0.00     0.254 C 
HETATM   11  O   UNL     1       8.479  -1.526  26.562  1.00  0.00    -0.268 OA
HETATM   12  N   UNL     1       8.738  -3.043  24.887  1.00  0.00    -0.321 N 
ATOM     13  HN  UNL     1       9.156  -3.192  23.969  1.00  0.00     0.169 HD
BRANCH  12  14
HETATM   14  C   UNL     1       8.111  -3.948  25.499  1.00  0.00     0.060 A 
HETATM   15  C   UNL     1       8.286  -4.782  26.412  1.00  0.00     0.117 A 
HETATM   16  N   UNL     1       7.899  -5.748  27.217  1.00  0.00    -0.373 N 
HETATM   17  C   UNL     1       6.734  -5.811  26.751  1.00  0.00     0.088 A 
ATOM     18  HN  UNL     1       8.375  -6.263  27.958  1.00  0.00     0.164 HD
HETATM   19  C   UNL     1       6.158  -5.208  25.854  1.00  0.00     0.030 A 
HETATM   20  C   UNL     1       6.521  -4.184  25.050  1.00  0.00    -0.016 A 
HETATM   21  C   UNL     1       5.922  -3.545  24.184  1.00  0.00     0.026 C 
ENDBRANCH  12  14
ENDBRANCH   9  10
BRANCH   1  22
HETATM   22  N   UNL     1       7.691   2.257  23.057  1.00  0.00    -0.295 N 
ATOM     23  HN  UNL     1       7.045   1.809  22.408  1.00  0.00     0.177 HD
BRANCH  22  24
HETATM   24  S   UNL     1       7.377   3.842  23.377  1.00  0.00     0.226 S 
HETATM   25  C   UNL     1       6.611   4.362  22.174  1.00  0.00     0.186 C 
HETATM   26  O   UNL     1       6.560   3.937  24.563  1.00  0.00    -0.206 OA
HETATM   27  O   UNL     1       8.608   4.538  23.553  1.00  0.00    -0.206 OA
ENDBRANCH  22  24
ENDBRANCH   1  22
TORSDOF 4
ENDMDL
MODEL 8
REMARK VINA RESULT:    -6.366      2.532      2.988
REMARK INTER + INTRA:          -8.697
REMARK INTER:                  -7.896
REMARK INTRA:                  -0.801
REMARK UNBOUND:                -0.841
REMARK  4 active torsions:
REMARK  status: ('A' for Active; 'I' for Inactive)
REMARK    1  A    between atoms: S_2  and  N_5 
REMARK    2  A    between atoms: N_5  and  C_7 
REMARK    3  A    between atoms: C_15  and  C_16 
REMARK       I    between atoms: C_16  and  N_18 
REMARK    4  A    between atoms: N_18  and  C_20 
ROOT
HETATM    1  C   UNL     1       6.606   1.910  21.366  1.00  0.00     0.109 C 
HETATM    2  C   UNL     1       7.527   1.276  21.903  1.00  0.00    -0.008 A 
HETATM    3  C   UNL     1       8.683   1.188  22.490  1.00  0.00     0.058 A 
HETATM    4  C   UNL     1      10.103   1.822  22.017  1.00  0.00    -0.003 C 
HETATM    5  C   UNL     1      10.858   2.213  22.706  1.00  0.00    -0.002 C 
HETATM    6  C   UNL     1      10.825   2.415  24.062  1.00  0.00    -0.001 C 
HETATM    7  C   UNL     1       9.569   2.089  24.583  1.00  0.00    -0.002 C 
HETATM    8  C   UNL     1       8.695   1.728  24.201  1.00  0.00    -0.003 C 
HETATM    9  C   UNL     1       8.609  -0.001  22.538  1.00  0.00     0.040 A 
ENDROOT
BRANCH   9  10
HETATM   10  C   UNL     1       8.674  -1.339  22.546  1.00  0.00     0.254 C 
HETATM   11  O   UNL     1       9.423  -1.836  21.824  1.00  0.00    -0.268 OA
HETATM   12  N   UNL     1       7.795  -1.804  23.413  1.00  0.00    -0.321 N 
ATOM     13  HN  UNL     1       7.161  -1.194  23.930  1.00  0.00     0.169 HD
BRANCH  12  14
HETATM   14  C   UNL     1       7.795  -3.055  23.556  1.00  0.00     0.060 A 
HETATM   15  C   UNL     1       8.351  -3.939  24.239  1.00  0.00     0.117 A 
HETATM   16  N   UNL     1       8.557  -5.183  24.619  1.00  0.00    -0.373 N 
HETATM   17  C   UNL     1       7.725  -5.675  23.816  1.00  0.00     0.088 A 
ATOM     18  HN  UNL     1       9.174  -5.600  25.316  1.00  0.00     0.164 HD
HETATM   19  C   UNL     1       6.992  -5.185  22.966  1.00  0.00     0.030 A 
HETATM   20  C   UNL     1       6.731  -3.912  22.596  1.00  0.00    -0.016 A 
HETATM   21  C   UNL     1       5.955  -3.419  21.776  1.00  0.00     0.026 C 
ENDBRANCH  12  14
ENDBRANCH   9  10
BRANCH   1  22
HETATM   22  N   UNL     1       5.768   2.153  20.578  1.00  0.00    -0.295 N 
ATOM     23  HN  UNL     1       5.454   3.123  20.561  1.00  0.00     0.177 HD
BRANCH  22  24
HETATM   24  S   UNL     1       5.027   1.155  19.497  1.00  0.00     0.226 S 
HETATM   25  C   UNL     1       5.648   1.473  18.149  1.00  0.00     0.186 C 
HETATM   26  O   UNL     1       5.294  -0.217  19.854  1.00  0.00    -0.206 OA
HETATM   27  O   UNL     1       3.626   1.417  19.502  1.00  0.00    -0.206 OA
ENDBRANCH  22  24
ENDBRANCH   1  22
TORSDOF 4
ENDMDL
MODEL 9
REMARK VINA RESULT:    -6.366      4.063      7.577
REMARK INTER + INTRA:          -8.695
REMARK INTER:                  -8.022
REMARK INTRA:                  -0.674
REMARK UNBOUND:                -0.841
REMARK  4 active torsions:
REMARK  status: ('A' for Active; 'I' for Inactive)
REMARK    1  A    between atoms: S_2  and  N_5 
REMARK    2  A    between atoms: N_5  and  C_7 
REMARK    3  A    between atoms: C_15  and  C_16 
REMARK       I    between atoms: C_16  and  N_18 
REMARK    4  A    between atoms: N_18  and  C_20 
ROOT
HETATM    1  C   UNL     1       7.042  -0.676  21.783  1.00  0.00     0.109 C 
HETATM    2  C   UNL     1       7.501   0.427  22.120  1.00  0.00    -0.008 A 
HETATM    3  C   UNL     1       8.367   1.184  22.725  1.00  0.00     0.058 A 
HETATM    4  C   UNL     1       8.885   1.089  24.262  1.00  0.00    -0.003 C 
HETATM    5  C   UNL     1       9.912   1.307  24.575  1.00  0.00    -0.002 C 
HETATM    6  C   UNL     1      11.041   1.577  23.846  1.00  0.00    -0.001 C 
HETATM    7  C   UNL     1      10.778   1.499  22.475  1.00  0.00    -0.002 C 
HETATM    8  C   UNL     1       9.956   1.307  21.902  1.00  0.00    -0.003 C 
HETATM    9  C   UNL     1       7.775   2.172  22.413  1.00  0.00     0.040 A 
ENDROOT
BRANCH   9  10
HETATM   10  C   UNL     1       7.134   3.329  22.208  1.00  0.00     0.254 C 
HETATM   11  O   UNL     1       6.076   3.275  21.755  1.00  0.00    -0.268 OA
HETATM   12  N   UNL     1       7.921   4.324  22.572  1.00  0.00    -0.321 N 
ATOM     13  HN  UNL     1       8.874   4.174  22.904  1.00  0.00     0.169 HD
BRANCH  12  14
HETATM   14  C   UNL     1       7.411   5.471  22.479  1.00  0.00     0.060 A 
HETATM   15  C   UNL     1       7.165   6.341  21.617  1.00  0.00     0.117 A 
HETATM   16  N   UNL     1       6.688   7.499  21.213  1.00  0.00    -0.373 N 
HETATM   17  C   UNL     1       6.311   7.861  22.356  1.00  0.00     0.088 A 
ATOM     18  HN  UNL     1       6.642   7.945  20.297  1.00  0.00     0.164 HD
HETATM   19  C   UNL     1       6.375   7.339  23.462  1.00  0.00     0.030 A 
HETATM   20  C   UNL     1       6.814   6.136  23.890  1.00  0.00    -0.016 A 
HETATM   21  C   UNL     1       6.830   5.593  24.996  1.00  0.00     0.026 C 
ENDBRANCH  12  14
ENDBRANCH   9  10
BRANCH   1  22
HETATM   22  N   UNL     1       6.227  -1.497  21.576  1.00  0.00    -0.295 N 
ATOM     23  HN  UNL     1       5.478  -1.217  20.943  1.00  0.00     0.177 HD
BRANCH  22  24
HETATM   24  S   UNL     1       6.117  -3.033  22.159  1.00  0.00     0.226 S 
HETATM   25  C   UNL     1       7.531  -3.434  22.535  1.00  0.00     0.186 C 
HETATM   26  O   UNL     1       5.272  -3.039  23.330  1.00  0.00    -0.206 OA
HETATM   27  O   UNL     1       5.584  -3.882  21.146  1.00  0.00    -0.206 OA
ENDBRANCH  22  24
ENDBRANCH   1  22
TORSDOF 4
ENDMDL
