stable:False satoms:10 tatoms:24 sratio:0.4166666666666667
  -OEChem-07092417483D

 24 24  0     1  0  0  0  0  0999 V2000
    6.5807   -4.8646   26.4501 C   0  0  0  0  0  0  0  0  0  0  0  0
    8.2210   -4.2999   26.0924 S   0  0  0  0  0  0  0  0  0  0  0  0
    9.0903   -5.4542   26.0297 O   0  0  0  0  0  0  0  0  0  0  0  0
    8.5936   -3.4357   27.1852 O   0  0  0  0  0  0  0  0  0  0  0  0
    8.0851   -3.5906   24.6657 N   0  0  0  0  0  0  0  0  0  0  0  0
    8.9817   -2.9158   24.1383 C   0  0  0  0  0  0  0  0  0  0  0  0
    9.4318   -1.9765   23.5214 C   0  0  0  0  0  0  0  0  0  0  0  0
   10.2930   -1.0826   23.3210 C   0  0  2  0  0  0  0  0  0  0  0  0
   11.0180   -0.0282   24.2887 C   0  0  0  0  0  0  0  0  0  0  0  0
   12.0849    0.3118   24.2618 C   0  0  0  0  0  0  0  0  0  0  0  0
   13.1651   -0.2006   23.4151 C   0  0  0  0  0  0  0  0  0  0  0  0
   12.7279   -1.2804   22.6288 C   0  0  0  0  0  0  0  0  0  0  0  0
   11.8382   -1.7415   22.4701 C   0  0  0  0  0  0  0  0  0  0  0  0
    9.7446   -0.5763   22.3387 C   0  0  0  0  0  0  0  0  0  0  0  0
    9.0765    0.0395   21.3899 C   0  0  0  0  0  0  0  0  0  0  0  0
    9.5331    1.0226   20.9990 O   0  0  0  0  0  0  0  0  0  0  0  0
    7.9373   -0.5680   21.0898 N   0  0  0  0  0  0  0  0  0  0  0  0
    7.1987   -0.1095   20.1715 C   0  0  0  0  0  0  0  0  0  0  0  0
    7.2215   -0.0224   18.8739 C   0  0  0  0  0  0  0  0  0  0  0  0
    6.7569    0.3234   17.7790 N   0  0  0  0  0  0  0  0  0  0  0  0
    5.6479    0.9040   18.2190 C   0  0  0  0  0  0  0  0  0  0  0  0
    5.2651    0.9985   19.3975 C   0  0  0  0  0  0  0  0  0  0  0  0
    5.8214    0.5593   20.5474 C   0  0  0  0  0  0  0  0  0  0  0  0
    5.2697    0.6976   22.0228 C   0  0  0  0  0  0  0  0  0  0  0  0
 20 21  2  0  0  0  0
 19 20  1  0  0  0  0
 21 22  1  0  0  0  0
 18 19  2  0  0  0  0
 22 23  2  0  0  0  0
 18 23  1  0  0  0  0
 17 18  1  0  0  0  0
 23 24  1  0  0  0  0
 15 16  2  0  0  0  0
 15 17  1  0  0  0  0
 14 15  1  0  0  0  0
  8 14  1  0  0  0  0
 12 13  2  0  0  0  0
 11 12  1  0  0  0  0
  7  8  1  0  0  0  0
  8  9  1  0  0  0  0
 10 11  1  0  0  0  0
  6  7  2  3  0  0  0
  5  6  1  0  0  0  0
  9 10  2  0  0  0  0
  2  5  1  0  0  0  0
  2  3  2  0  0  0  0
  1  2  1  0  0  0  0
  2  4  2  0  0  0  0
M  END
> <Shapegauss>
-285.288971

$$$$
