stable:False satoms:10 tatoms:24 sratio:0.4166666666666667
  -OEChem-08062416513D

 47 47  0     1  0  0  0  0  0999 V2000
    6.1404   -5.1226   26.3802 C   0  0  0  0  0  0  0  0  0  0  0  0
    7.8046   -4.5574   26.1608 S   0  0  0  0  0  0  0  0  0  0  0  0
    8.6735   -5.7136   26.1430 O   0  0  0  0  0  0  0  0  0  0  0  0
    8.0939   -3.7156   27.2956 O   0  0  0  0  0  0  0  0  0  0  0  0
    7.7807   -3.8205   24.7419 N   0  0  0  0  0  0  0  0  0  0  0  0
    8.7168   -3.1392   24.2982 C   0  0  0  0  0  0  0  0  0  0  0  0
    9.2153   -2.1900   23.7360 C   0  0  0  0  0  0  0  0  0  0  0  0
   10.0914   -1.2957   23.6198 C   0  0  2  0  0  0  0  0  0  0  0  0
   10.7421   -0.2627   24.6606 C   0  0  0  0  0  0  0  0  0  0  0  0
   11.8087    0.0737   24.7225 C   0  0  0  0  0  0  0  0  0  0  0  0
   12.9497   -0.4265   23.9517 C   0  0  0  0  0  0  0  0  0  0  0  0
   12.5720   -1.4895   23.1134 C   0  0  0  0  0  0  0  0  0  0  0  0
   11.6961   -1.9441   22.8778 C   0  0  0  0  0  0  0  0  0  0  0  0
    9.6215   -0.7687   22.6081 C   0  0  0  0  0  0  0  0  0  0  0  0
    9.0299   -0.1324   21.6228 C   0  0  0  0  0  0  0  0  0  0  0  0
    9.5175    0.8562   21.2872 O   0  0  0  0  0  0  0  0  0  0  0  0
    7.9158   -0.7298   21.2242 N   0  0  0  0  0  0  0  0  0  0  0  0
    7.2512   -0.2511   20.2607 C   0  0  0  0  0  0  0  0  0  0  0  0
    7.3742   -0.1394   18.9707 C   0  0  0  0  0  0  0  0  0  0  0  0
    6.9961    0.2290   17.8501 N   0  0  0  0  0  0  0  0  0  0  0  0
    5.8578    0.8053   18.2146 C   0  0  0  0  0  0  0  0  0  0  0  0
    5.3856    0.8788   19.3617 C   0  0  0  0  0  0  0  0  0  0  0  0
    5.8506    0.4156   20.5423 C   0  0  0  0  0  0  0  0  0  0  0  0
    5.1872    0.5279   21.9733 C   0  0  0  0  0  0  0  0  0  0  0  0
    6.0553   -5.6495   27.3421 H   0  0  0  0  0  0  0  0  0  0  0  0
    5.4566   -4.2609   26.3726 H   0  0  0  0  0  0  0  0  0  0  0  0
    5.8753   -5.8083   25.5620 H   0  0  0  0  0  0  0  0  0  0  0  0
    6.9892   -3.2098   24.7670 H   0  0  0  0  0  0  0  0  0  0  0  0
    9.5805   -3.7295   24.5663 H   0  0  0  0  0  0  0  0  0  0  0  0
    8.5661   -2.0242   22.8889 H   0  0  0  0  0  0  0  0  0  0  0  0
   10.9837   -1.8323   23.2649 H   0  0  0  0  0  0  0  0  0  0  0  0
   10.0689    0.1604   25.3915 H   0  0  0  0  0  0  0  0  0  0  0  0
   12.0207    0.8586   25.4334 H   0  0  0  0  0  0  0  0  0  0  0  0
   13.7263   -0.7772   24.6475 H   0  0  0  0  0  0  0  0  0  0  0  0
   13.3519    0.3908   23.3351 H   0  0  0  0  0  0  0  0  0  0  0  0
   13.4142   -1.9261   22.5974 H   0  0  0  0  0  0  0  0  0  0  0  0
   11.6860   -2.7679   22.1795 H   0  0  0  0  0  0  0  0  0  0  0  0
   10.7738   -1.6043   23.3254 H   0  0  0  0  0  0  0  0  0  0  0  0
    9.4023   -1.7473   22.1561 H   0  0  0  0  0  0  0  0  0  0  0  0
   10.6146   -0.4276   22.2804 H   0  0  0  0  0  0  0  0  0  0  0  0
    7.6008   -1.5592   21.6855 H   0  0  0  0  0  0  0  0  0  0  0  0
    8.3115   -0.6353   18.7663 H   0  0  0  0  0  0  0  0  0  0  0  0
    5.2770    1.2613   17.4264 H   0  0  0  0  0  0  0  0  0  0  0  0
    4.4429    1.4019   19.4255 H   0  0  0  0  0  0  0  0  0  0  0  0
    4.5552   -0.3539   22.1552 H   0  0  0  0  0  0  0  0  0  0  0  0
    5.9748    0.5787   22.7395 H   0  0  0  0  0  0  0  0  0  0  0  0
    4.5701    1.4373   22.0209 H   0  0  0  0  0  0  0  0  0  0  0  0
 20 21  2  0  0  0  0
 19 20  1  0  0  0  0
 21 22  1  0  0  0  0
 18 19  2  0  0  0  0
 22 23  2  0  0  0  0
 18 23  1  0  0  0  0
 17 18  1  0  0  0  0
 23 24  1  0  0  0  0
 15 16  2  0  0  0  0
 15 17  1  0  0  0  0
 14 15  1  0  0  0  0
  8 14  1  0  0  0  0
 12 13  2  0  0  0  0
 11 12  1  0  0  0  0
  7  8  1  0  0  0  0
  8  9  1  0  0  0  0
 10 11  1  0  0  0  0
  6  7  2  3  0  0  0
  5  6  1  0  0  0  0
  9 10  2  0  0  0  0
  2  5  1  0  0  0  0
  2  3  2  0  0  0  0
  1  2  1  0  0  0  0
  2  4  2  0  0  0  0
  1 25  1  0  0  0  0
  1 26  1  0  0  0  0
  1 27  1  0  0  0  0
  5 28  1  0  0  0  0
  6 29  1  0  0  0  0
  7 30  1  0  0  0  0
  8 31  1  0  0  0  0
  9 32  1  0  0  0  0
 10 33  1  0  0  0  0
 11 34  1  0  0  0  0
 11 35  1  0  0  0  0
 12 36  1  0  0  0  0
 13 37  1  0  0  0  0
 13 38  1  0  0  0  0
 14 39  1  0  0  0  0
 14 40  1  0  0  0  0
 17 41  1  0  0  0  0
 19 42  1  0  0  0  0
 21 43  1  0  0  0  0
 22 44  1  0  0  0  0
 24 45  1  0  0  0  0
 24 46  1  0  0  0  0
 24 47  1  0  0  0  0
M  END
> <Chemgauss4>
-12.852681

$$$$
