stable:False satoms:10 tatoms:24 sratio:0.4166666666666667
  -OEChem-08062416513D

 47 47  0     1  0  0  0  0  0999 V2000
   -6.0746   -5.0416  -26.4180 C   0  0  0  0  0  0  0  0  0  0  0  0
   -7.7389   -4.4764  -26.1986 S   0  0  0  0  0  0  0  0  0  0  0  0
   -8.6078   -5.6325  -26.1807 O   0  0  0  0  0  0  0  0  0  0  0  0
   -8.0282   -3.6346  -27.3333 O   0  0  0  0  0  0  0  0  0  0  0  0
   -7.7150   -3.7395  -24.7796 N   0  0  0  0  0  0  0  0  0  0  0  0
   -8.6511   -3.0582  -24.3359 C   0  0  0  0  0  0  0  0  0  0  0  0
   -9.1495   -2.1090  -23.7737 C   0  0  0  0  0  0  0  0  0  0  0  0
  -10.0257   -1.2147  -23.6575 C   0  0  2  0  0  0  0  0  0  0  0  0
  -10.6764   -0.1817  -24.6983 C   0  0  0  0  0  0  0  0  0  0  0  0
  -11.7430    0.1547  -24.7602 C   0  0  0  0  0  0  0  0  0  0  0  0
  -12.8840   -0.3455  -23.9895 C   0  0  0  0  0  0  0  0  0  0  0  0
  -12.5062   -1.4085  -23.1512 C   0  0  0  0  0  0  0  0  0  0  0  0
  -11.6303   -1.8631  -22.9156 C   0  0  0  0  0  0  0  0  0  0  0  0
   -9.5558   -0.6877  -22.6459 C   0  0  0  0  0  0  0  0  0  0  0  0
   -8.9642   -0.0514  -21.6605 C   0  0  0  0  0  0  0  0  0  0  0  0
   -9.4518    0.9372  -21.3250 O   0  0  0  0  0  0  0  0  0  0  0  0
   -7.8501   -0.6488  -21.2619 N   0  0  0  0  0  0  0  0  0  0  0  0
   -7.1855   -0.1701  -20.2985 C   0  0  0  0  0  0  0  0  0  0  0  0
   -7.3084   -0.0583  -19.0084 C   0  0  0  0  0  0  0  0  0  0  0  0
   -6.9303    0.3100  -17.8879 N   0  0  0  0  0  0  0  0  0  0  0  0
   -5.7921    0.8863  -18.2523 C   0  0  0  0  0  0  0  0  0  0  0  0
   -5.3198    0.9598  -19.3994 C   0  0  0  0  0  0  0  0  0  0  0  0
   -5.7849    0.4966  -20.5801 C   0  0  0  0  0  0  0  0  0  0  0  0
   -5.1214    0.6089  -22.0110 C   0  0  0  0  0  0  0  0  0  0  0  0
   -5.9895   -5.5685  -27.3798 H   0  0  0  0  0  0  0  0  0  0  0  0
   -5.3909   -4.1799  -26.4103 H   0  0  0  0  0  0  0  0  0  0  0  0
   -5.8095   -5.7273  -25.5997 H   0  0  0  0  0  0  0  0  0  0  0  0
   -6.9235   -3.1288  -24.8047 H   0  0  0  0  0  0  0  0  0  0  0  0
   -9.5148   -3.6485  -24.6041 H   0  0  0  0  0  0  0  0  0  0  0  0
   -8.5004   -1.9432  -22.9267 H   0  0  0  0  0  0  0  0  0  0  0  0
  -10.9179   -1.7513  -23.3027 H   0  0  0  0  0  0  0  0  0  0  0  0
  -10.0032    0.2414  -25.4292 H   0  0  0  0  0  0  0  0  0  0  0  0
  -11.9550    0.9396  -25.4712 H   0  0  0  0  0  0  0  0  0  0  0  0
  -13.6605   -0.6962  -24.6852 H   0  0  0  0  0  0  0  0  0  0  0  0
  -13.2862    0.4718  -23.3729 H   0  0  0  0  0  0  0  0  0  0  0  0
  -13.3485   -1.8451  -22.6351 H   0  0  0  0  0  0  0  0  0  0  0  0
  -11.6202   -2.6869  -22.2172 H   0  0  0  0  0  0  0  0  0  0  0  0
  -10.7080   -1.5233  -23.3631 H   0  0  0  0  0  0  0  0  0  0  0  0
   -9.3366   -1.6663  -22.1938 H   0  0  0  0  0  0  0  0  0  0  0  0
  -10.5489   -0.3466  -22.3182 H   0  0  0  0  0  0  0  0  0  0  0  0
   -7.5351   -1.4782  -21.7232 H   0  0  0  0  0  0  0  0  0  0  0  0
   -8.2458   -0.5543  -18.8040 H   0  0  0  0  0  0  0  0  0  0  0  0
   -5.2113    1.3423  -17.4642 H   0  0  0  0  0  0  0  0  0  0  0  0
   -4.3772    1.4830  -19.4633 H   0  0  0  0  0  0  0  0  0  0  0  0
   -4.4894   -0.2729  -22.1929 H   0  0  0  0  0  0  0  0  0  0  0  0
   -5.9091    0.6597  -22.7772 H   0  0  0  0  0  0  0  0  0  0  0  0
   -4.5044    1.5183  -22.0586 H   0  0  0  0  0  0  0  0  0  0  0  0
 20 21  2  0  0  0  0
 19 20  1  0  0  0  0
 21 22  1  0  0  0  0
 18 19  2  0  0  0  0
 22 23  2  0  0  0  0
 18 23  1  0  0  0  0
 17 18  1  0  0  0  0
 23 24  1  0  0  0  0
 15 16  2  0  0  0  0
 15 17  1  0  0  0  0
 14 15  1  0  0  0  0
  8 14  1  0  0  0  0
 12 13  2  0  0  0  0
 11 12  1  0  0  0  0
  7  8  1  0  0  0  0
  8  9  1  0  0  0  0
 10 11  1  0  0  0  0
  6  7  2  3  0  0  0
  5  6  1  0  0  0  0
  9 10  2  0  0  0  0
  2  5  1  0  0  0  0
  2  3  2  0  0  0  0
  1  2  1  0  0  0  0
  2  4  2  0  0  0  0
  1 25  1  0  0  0  0
  1 26  1  0  0  0  0
  1 27  1  0  0  0  0
  5 28  1  0  0  0  0
  6 29  1  0  0  0  0
  7 30  1  0  0  0  0
  8 31  1  0  0  0  0
  9 32  1  0  0  0  0
 10 33  1  0  0  0  0
 11 34  1  0  0  0  0
 11 35  1  0  0  0  0
 12 36  1  0  0  0  0
 13 37  1  0  0  0  0
 13 38  1  0  0  0  0
 14 39  1  0  0  0  0
 14 40  1  0  0  0  0
 17 41  1  0  0  0  0
 19 42  1  0  0  0  0
 21 43  1  0  0  0  0
 22 44  1  0  0  0  0
 24 45  1  0  0  0  0
 24 46  1  0  0  0  0
 24 47  1  0  0  0  0
M  END
> <Chemgauss4>
-12.765133

$$$$
