stable:False satoms:8 tatoms:24 sratio:0.3333333333333333
  -OEChem-07092417433D

 24 24  0     0  0  0  0  0  0999 V2000
    6.6933   -4.8363   26.3753 C   0  0  0  0  0  0  0  0  0  0  0  0
    8.2959   -4.3368   26.1129 S   0  0  0  0  0  0  0  0  0  0  0  0
    9.1484   -5.4555   26.0683 O   0  0  0  0  0  0  0  0  0  0  0  0
    8.6590   -3.4357   27.1333 O   0  0  0  0  0  0  0  0  0  0  0  0
    8.1937   -3.6445   24.6556 N   0  0  0  0  0  0  0  0  0  0  0  0
    8.9830   -2.9522   24.2031 C   0  0  0  0  0  0  0  0  0  0  0  0
    9.4217   -2.0928   23.7225 C   0  0  0  0  0  0  0  0  0  0  0  0
   10.0662   -1.0131   23.4951 C   0  0  0  0  0  0  0  0  0  0  0  0
   11.0304   -0.0924   24.2954 C   0  0  0  0  0  0  0  0  0  0  0  0
   12.0363    0.2310   24.2298 C   0  0  0  0  0  0  0  0  0  0  0  0
   12.9569   -0.2729   23.3842 C   0  0  0  0  0  0  0  0  0  0  0  0
   12.7534   -1.1238   22.6449 C   0  5  0  0  0  0  0  0  0  0  0  0
   12.1633   -1.7646   22.2499 H   0  0  0  0  0  0  0  0  0  0  0  0
    9.6765   -0.6270   22.4508 C   0  0  0  0  0  0  0  0  0  0  0  0
    9.0903   -0.0200   21.4407 C   0  0  0  0  0  0  0  0  0  0  0  0
    9.6479    0.8625   21.0240 O   0  0  0  0  0  0  0  0  0  0  0  0
    7.8721   -0.5949   21.1274 N   0  0  0  0  0  0  0  0  0  0  0  0
    7.0376    0.0012   20.3843 C   0  0  0  0  0  0  0  0  0  0  0  0
    6.9537    0.2145   19.0456 C   0  0  0  0  0  0  0  0  0  0  0  0
    6.5344    0.4866   17.2872 N   0  0  0  0  0  0  0  0  0  0  0  0
    6.1773    0.6461   18.2395 C   0  0  0  0  0  0  0  0  0  0  0  0
    4.9455    1.2241   19.3910 S   0  0  0  0  0  0  0  0  0  0  0  0
    5.8263    0.6105   20.6668 C   0  0  0  0  0  0  0  0  0  0  0  0
    5.4209    0.6958   21.6691 H   0  0  0  0  0  0  0  0  0  0  0  0
 20 21  1  0  0  0  0
 19 21  2  0  0  0  0
 21 22  1  0  0  0  0
 18 19  1  0  0  0  0
 22 23  1  0  0  0  0
 18 23  2  0  0  0  0
 17 18  1  0  0  0  0
 23 24  1  0  0  0  0
 15 16  2  0  0  0  0
 15 17  1  0  0  0  0
 14 15  1  0  0  0  0
 12 13  1  0  0  0  0
  8 14  2  3  0  0  0
 11 12  2  0  0  0  0
 10 11  1  0  0  0  0
  7  8  1  0  0  0  0
  8  9  1  0  0  0  0
  6  7  3  0  0  0  0
  5  6  1  0  0  0  0
  9 10  2  0  0  0  0
  2  5  1  0  0  0  0
  2  3  2  0  0  0  0
  1  2  1  0  0  0  0
  2  4  2  0  0  0  0
M  CHG  1  12  -1
M  END
> <Shapegauss>
-276.539154

$$$$
