stable:False satoms:8 tatoms:24 sratio:0.3333333333333333
  -OEChem-08062411533D

 37 37  0     0  0  0  0  0  0999 V2000
    6.3283   -5.2053   26.1637 C   0  0  0  0  0  0  0  0  0  0  0  0
    7.9278   -4.6578   25.9954 S   0  0  0  0  0  0  0  0  0  0  0  0
    8.8105   -5.7530   25.9544 O   0  0  0  0  0  0  0  0  0  0  0  0
    8.2187   -3.7839   27.0616 O   0  0  0  0  0  0  0  0  0  0  0  0
    7.8764   -3.9182   24.5588 N   0  0  0  0  0  0  0  0  0  0  0  0
    8.6678   -3.1915   24.1681 C   0  0  0  0  0  0  0  0  0  0  0  0
    9.1060   -2.3054   23.7381 C   0  0  0  0  0  0  0  0  0  0  0  0
    9.7320   -1.2030   23.5782 C   0  0  0  0  0  0  0  0  0  0  0  0
   10.6330   -0.2872   24.4542 C   0  0  0  0  0  0  0  0  0  0  0  0
   11.6321    0.0629   24.4478 C   0  0  0  0  0  0  0  0  0  0  0  0
   12.6044   -0.3886   23.6310 C   0  0  0  0  0  0  0  0  0  0  0  0
   12.4583   -1.2182   22.8548 C   0  0  0  0  0  0  0  0  0  0  0  0
   11.4932   -1.6900   22.7438 H   0  0  0  0  0  0  0  0  0  0  0  0
    9.3821   -0.7907   22.5298 C   0  0  0  0  0  0  0  0  0  0  0  0
    8.8285   -0.1636   21.5136 C   0  0  0  0  0  0  0  0  0  0  0  0
    9.3818    0.7462   21.1539 O   0  0  0  0  0  0  0  0  0  0  0  0
    7.6419   -0.7571   21.1231 N   0  0  0  0  0  0  0  0  0  0  0  0
    6.8280   -0.1563   20.3611 C   0  0  0  0  0  0  0  0  0  0  0  0
    6.8018    0.1011   19.0278 C   0  0  0  0  0  0  0  0  0  0  0  0
    6.4589    0.4236   17.2614 N   0  0  0  0  0  0  0  0  0  0  0  0
    6.0533    0.5412   18.2002 C   0  0  0  0  0  0  0  0  0  0  0  0
    4.7538    1.0486   19.3099 S   0  0  0  0  0  0  0  0  0  0  0  0
    5.5892    0.4130   20.6053 C   0  0  0  0  0  0  0  0  0  0  0  0
    5.1349    0.4535   21.5893 H   0  0  0  0  0  0  0  0  0  0  0  0
    6.2213   -5.7382   27.1200 H   0  0  0  0  0  0  0  0  0  0  0  0
    5.6426   -4.3453   26.1445 H   0  0  0  0  0  0  0  0  0  0  0  0
    6.0850   -5.8867   25.3351 H   0  0  0  0  0  0  0  0  0  0  0  0
    7.0175   -3.4060   24.5528 H   0  0  0  0  0  0  0  0  0  0  0  0
   10.0893    0.0983   25.3039 H   0  0  0  0  0  0  0  0  0  0  0  0
   11.8921    0.8416   25.1496 H   0  0  0  0  0  0  0  0  0  0  0  0
   13.5833    0.0601   23.7136 H   0  0  0  0  0  0  0  0  0  0  0  0
   13.2857   -1.5285   22.2338 H   0  0  0  0  0  0  0  0  0  0  0  0
   10.0126   -1.4362   21.9365 H   0  0  0  0  0  0  0  0  0  0  0  0
    7.4226   -1.6770   21.4482 H   0  0  0  0  0  0  0  0  0  0  0  0
    7.7423   -0.1747   18.5741 H   0  0  0  0  0  0  0  0  0  0  0  0
    5.8146    0.7603   16.5747 H   0  0  0  0  0  0  0  0  0  0  0  0
    7.3122    0.9413   17.1998 H   0  0  0  0  0  0  0  0  0  0  0  0
 20 21  1  0  0  0  0
 19 21  2  0  0  0  0
 21 22  1  0  0  0  0
 18 19  1  0  0  0  0
 22 23  1  0  0  0  0
 18 23  2  0  0  0  0
 17 18  1  0  0  0  0
 23 24  1  0  0  0  0
 15 16  2  0  0  0  0
 15 17  1  0  0  0  0
 14 15  1  0  0  0  0
 12 13  1  0  0  0  0
  8 14  2  3  0  0  0
 11 12  2  0  0  0  0
 10 11  1  0  0  0  0
  7  8  1  0  0  0  0
  8  9  1  0  0  0  0
  6  7  3  0  0  0  0
  5  6  1  0  0  0  0
  9 10  2  0  0  0  0
  2  5  1  0  0  0  0
  2  3  2  0  0  0  0
  1  2  1  0  0  0  0
  2  4  2  0  0  0  0
  1 25  1  0  0  0  0
  1 26  1  0  0  0  0
  1 27  1  0  0  0  0
  5 28  1  0  0  0  0
  9 29  1  0  0  0  0
 10 30  1  0  0  0  0
 11 31  1  0  0  0  0
 12 32  1  0  0  0  0
 14 33  1  0  0  0  0
 17 34  1  0  0  0  0
 19 35  1  0  0  0  0
 20 36  1  0  0  0  0
 20 37  1  0  0  0  0
M  END
> <Chemgauss4>
-9.224392

$$$$
