stable:False satoms:8 tatoms:24 sratio:0.3333333333333333
  -OEChem-08062411533D

 37 37  0     0  0  0  0  0  0999 V2000
   -6.5410   -5.0963  -26.1637 C   0  0  0  0  0  0  0  0  0  0  0  0
   -8.1405   -4.5488  -25.9954 S   0  0  0  0  0  0  0  0  0  0  0  0
   -9.0232   -5.6440  -25.9544 O   0  0  0  0  0  0  0  0  0  0  0  0
   -8.4314   -3.6749  -27.0616 O   0  0  0  0  0  0  0  0  0  0  0  0
   -8.0891   -3.8092  -24.5588 N   0  0  0  0  0  0  0  0  0  0  0  0
   -8.8805   -3.0825  -24.1681 C   0  0  0  0  0  0  0  0  0  0  0  0
   -9.3187   -2.1964  -23.7381 C   0  0  0  0  0  0  0  0  0  0  0  0
   -9.9447   -1.0940  -23.5782 C   0  0  0  0  0  0  0  0  0  0  0  0
  -10.8457   -0.1782  -24.4542 C   0  0  0  0  0  0  0  0  0  0  0  0
  -11.8447    0.1719  -24.4478 C   0  0  0  0  0  0  0  0  0  0  0  0
  -12.8171   -0.2797  -23.6310 C   0  0  0  0  0  0  0  0  0  0  0  0
  -12.6710   -1.1092  -22.8548 C   0  0  0  0  0  0  0  0  0  0  0  0
  -11.7059   -1.5810  -22.7438 H   0  0  0  0  0  0  0  0  0  0  0  0
   -9.5947   -0.6817  -22.5298 C   0  0  0  0  0  0  0  0  0  0  0  0
   -9.0411   -0.0546  -21.5136 C   0  0  0  0  0  0  0  0  0  0  0  0
   -9.5945    0.8552  -21.1539 O   0  0  0  0  0  0  0  0  0  0  0  0
   -7.8545   -0.6481  -21.1231 N   0  0  0  0  0  0  0  0  0  0  0  0
   -7.0407   -0.0473  -20.3611 C   0  0  0  0  0  0  0  0  0  0  0  0
   -7.0145    0.2101  -19.0278 C   0  0  0  0  0  0  0  0  0  0  0  0
   -6.6716    0.5326  -17.2614 N   0  0  0  0  0  0  0  0  0  0  0  0
   -6.2659    0.6502  -18.2002 C   0  0  0  0  0  0  0  0  0  0  0  0
   -4.9665    1.1576  -19.3099 S   0  0  0  0  0  0  0  0  0  0  0  0
   -5.8019    0.5220  -20.6053 C   0  0  0  0  0  0  0  0  0  0  0  0
   -5.3476    0.5625  -21.5893 H   0  0  0  0  0  0  0  0  0  0  0  0
   -6.4339   -5.6292  -27.1200 H   0  0  0  0  0  0  0  0  0  0  0  0
   -5.8553   -4.2363  -26.1445 H   0  0  0  0  0  0  0  0  0  0  0  0
   -6.2977   -5.7777  -25.3351 H   0  0  0  0  0  0  0  0  0  0  0  0
   -7.2302   -3.2970  -24.5528 H   0  0  0  0  0  0  0  0  0  0  0  0
  -10.3020    0.2073  -25.3039 H   0  0  0  0  0  0  0  0  0  0  0  0
  -12.1047    0.9506  -25.1496 H   0  0  0  0  0  0  0  0  0  0  0  0
  -13.7960    0.1691  -23.7136 H   0  0  0  0  0  0  0  0  0  0  0  0
  -13.4984   -1.4195  -22.2338 H   0  0  0  0  0  0  0  0  0  0  0  0
  -10.2253   -1.3272  -21.9365 H   0  0  0  0  0  0  0  0  0  0  0  0
   -7.6352   -1.5680  -21.4482 H   0  0  0  0  0  0  0  0  0  0  0  0
   -7.9549   -0.0657  -18.5741 H   0  0  0  0  0  0  0  0  0  0  0  0
   -6.0273    0.8693  -16.5747 H   0  0  0  0  0  0  0  0  0  0  0  0
   -7.5249    1.0503  -17.1998 H   0  0  0  0  0  0  0  0  0  0  0  0
 20 21  1  0  0  0  0
 19 21  2  0  0  0  0
 21 22  1  0  0  0  0
 18 19  1  0  0  0  0
 22 23  1  0  0  0  0
 18 23  2  0  0  0  0
 17 18  1  0  0  0  0
 23 24  1  0  0  0  0
 15 16  2  0  0  0  0
 15 17  1  0  0  0  0
 14 15  1  0  0  0  0
 12 13  1  0  0  0  0
  8 14  2  3  0  0  0
 11 12  2  0  0  0  0
 10 11  1  0  0  0  0
  7  8  1  0  0  0  0
  8  9  1  0  0  0  0
  6  7  3  0  0  0  0
  5  6  1  0  0  0  0
  9 10  2  0  0  0  0
  2  5  1  0  0  0  0
  2  3  2  0  0  0  0
  1  2  1  0  0  0  0
  2  4  2  0  0  0  0
  1 25  1  0  0  0  0
  1 26  1  0  0  0  0
  1 27  1  0  0  0  0
  5 28  1  0  0  0  0
  9 29  1  0  0  0  0
 10 30  1  0  0  0  0
 11 31  1  0  0  0  0
 12 32  1  0  0  0  0
 14 33  1  0  0  0  0
 17 34  1  0  0  0  0
 19 35  1  0  0  0  0
 20 36  1  0  0  0  0
 20 37  1  0  0  0  0
M  END
> <Chemgauss4>
-9.480408

$$$$
