stable:False satoms:18 tatoms:24 sratio:0.75
  -OEChem-08052418313D

 25 25  0     1  0  0  0  0  0999 V2000
    7.5123   -5.4280   28.2409 H   0  0  0  0  0  0  0  0  0  0  0  0
    5.5210   -7.5342   26.7648 H   0  0  0  0  0  0  0  0  0  0  0  0
    8.9189   -4.1320   27.7514 H   0  0  0  0  0  0  0  0  0  0  0  0
    5.8034   -6.7864   27.3657 N   0  0  0  0  0  0  0  0  0  0  0  0
    6.2865   -7.1596   28.1577 H   0  0  0  0  0  0  0  0  0  0  0  0
    8.8374   -4.9197   26.9675 C   0  0  0  0  0  0  0  0  0  0  0  0
    6.5105   -4.0000   25.1284 C   0  0  0  0  0  0  0  0  0  0  0  0
    7.7820   -5.7482   27.3328 N   0  3  0  0  0  0  0  0  0  0  0  0
    8.1047   -2.3284   25.8537 O   0  0  0  0  0  0  0  0  0  0  0  0
    7.8324   -3.4567   25.5675 C   0  0  0  0  0  0  0  0  0  0  0  0
    9.7647   -5.5219   26.8610 H   0  0  0  0  0  0  0  0  0  0  0  0
    8.7423   -4.4099   25.6236 O   0  0  0  0  0  0  0  0  0  0  0  0
    6.1789   -5.2920   25.5279 C   0  0  0  0  0  0  0  0  0  0  0  0
    6.6258   -5.9479   26.6876 C   0  0  3  0  0  0  0  0  0  0  0  0
    5.3005   -7.5947   24.3152 H   0  0  0  0  0  0  0  0  0  0  0  0
    4.4949   -6.9170   24.5030 C   0  0  0  0  0  0  0  0  0  0  0  0
    3.5008   -6.6022   24.7962 H   0  0  0  0  0  0  0  0  0  0  0  0
    5.1771   -5.7192   24.7292 O   0  0  0  0  0  0  0  0  0  0  0  0
    3.5338   -8.3369   24.0098 O   0  0  0  0  0  0  0  0  0  0  0  0
    3.2865   -8.1098   23.1835 H   0  0  0  0  0  0  0  0  0  0  0  0
    5.8921   -2.2113   23.6071 O   0  0  0  0  0  0  0  0  0  0  0  0
    5.6402   -3.3346   24.2322 C   0  0  0  0  0  2  0  0  0  0  0  0
    6.0830   -1.5417   24.2678 H   0  0  0  0  0  0  0  0  0  0  0  0
    7.0505   -6.7759   26.1011 H   0  0  0  0  0  0  0  0  0  0  0  0
    8.1897   -6.6583   27.4077 H   0  0  0  0  0  0  0  0  0  0  0  0
 19 20  1  0  0  0  0
 16 19  1  0  0  0  0
 15 16  1  0  0  0  0
 16 17  1  0  0  0  0
 16 18  1  0  0  0  0
 13 18  1  0  0  0  0
  4  5  1  0  0  0  0
 13 14  1  0  0  0  0
  7 13  2  0  0  0  0
  4 14  1  0  0  0  0
  2  4  1  0  0  0  0
 21 22  1  0  0  0  0
  7 22  1  0  0  0  0
 21 23  1  0  0  0  0
  8 14  1  0  0  0  0
  7 10  1  0  0  0  0
  1  8  1  0  0  0  0
  6  8  1  0  0  0  0
 10 12  1  0  0  0  0
  6 12  1  0  0  0  0
  9 10  2  0  0  0  0
  6 11  1  0  0  0  0
  3  6  1  0  0  0  0
 14 24  1  0  0  0  0
  8 25  1  0  0  0  0
M  CHG  1   8   1
M  END
> <Chemgauss4>
-5.569897

$$$$
