stable:False satoms:18 tatoms:24 sratio:0.75
  -OEChem-08052418313D

 25 25  0     1  0  0  0  0  0999 V2000
   -8.0151   -1.0870  -20.8228 H   0  0  0  0  0  0  0  0  0  0  0  0
   -9.5696    1.7699  -20.7782 H   0  0  0  0  0  0  0  0  0  0  0  0
   -8.2249   -2.8713  -21.6414 H   0  0  0  0  0  0  0  0  0  0  0  0
   -8.8116    1.1254  -20.8774 N   0  0  0  0  0  0  0  0  0  0  0  0
   -8.5412    0.7876  -19.9759 H   0  0  0  0  0  0  0  0  0  0  0  0
   -9.2167   -2.3696  -21.5622 C   0  0  0  0  0  0  0  0  0  0  0  0
   -9.4045   -0.5386  -24.0632 C   0  0  0  0  0  0  0  0  0  0  0  0
   -8.9877   -1.0953  -21.0550 N   0  3  0  0  0  0  0  0  0  0  0  0
   -8.5280   -2.7753  -24.3646 O   0  0  0  0  0  0  0  0  0  0  0  0
   -9.2344   -1.9991  -23.7922 C   0  0  0  0  0  0  0  0  0  0  0  0
   -9.9248   -2.9127  -20.9008 H   0  0  0  0  0  0  0  0  0  0  0  0
   -9.9865   -2.3848  -22.7796 O   0  0  0  0  0  0  0  0  0  0  0  0
   -9.6322    0.2977  -22.9734 C   0  0  0  0  0  0  0  0  0  0  0  0
   -9.2027    0.0835  -21.6526 C   0  0  3  0  0  0  0  0  0  0  0  0
  -11.4600    2.2288  -22.2845 H   0  0  0  0  0  0  0  0  0  0  0  0
  -10.6909    2.6220  -22.9151 C   0  0  0  0  0  0  0  0  0  0  0  0
   -9.9585    3.3354  -23.2728 H   0  0  0  0  0  0  0  0  0  0  0  0
  -10.1370    1.4563  -23.4495 O   0  0  0  0  0  0  0  0  0  0  0  0
  -11.4732    4.1609  -22.4644 O   0  0  0  0  0  0  0  0  0  0  0  0
  -11.9257    4.3581  -23.2072 H   0  0  0  0  0  0  0  0  0  0  0  0
   -9.4849   -0.6461  -26.4877 O   0  0  0  0  0  0  0  0  0  0  0  0
   -9.4759    0.0219  -25.3609 C   0  0  0  0  0  2  0  0  0  0  0  0
   -8.6880   -1.1800  -26.5212 H   0  0  0  0  0  0  0  0  0  0  0  0
  -10.2326    0.1346  -21.2695 H   0  0  0  0  0  0  0  0  0  0  0  0
   -9.5310   -1.0560  -20.2164 H   0  0  0  0  0  0  0  0  0  0  0  0
 19 20  1  0  0  0  0
 16 19  1  0  0  0  0
 15 16  1  0  0  0  0
 16 17  1  0  0  0  0
 16 18  1  0  0  0  0
 13 18  1  0  0  0  0
  4  5  1  0  0  0  0
 13 14  1  0  0  0  0
  7 13  2  0  0  0  0
  4 14  1  0  0  0  0
  2  4  1  0  0  0  0
 21 22  1  0  0  0  0
  7 22  1  0  0  0  0
 21 23  1  0  0  0  0
  8 14  1  0  0  0  0
  7 10  1  0  0  0  0
  1  8  1  0  0  0  0
  6  8  1  0  0  0  0
 10 12  1  0  0  0  0
  6 12  1  0  0  0  0
  9 10  2  0  0  0  0
  6 11  1  0  0  0  0
  3  6  1  0  0  0  0
 14 24  1  0  0  0  0
  8 25  1  0  0  0  0
M  CHG  1   8   1
M  END
> <Chemgauss4>
-5.438850

$$$$
