stable:False satoms:19 tatoms:24 sratio:0.7916666666666666
  -OEChem-07092417283D

 24 25  0     1  0  0  0  0  0999 V2000
    9.2082   -1.8040   18.9016 H   0  0  0  0  0  0  0  0  0  0  0  0
    5.5776    0.3165   24.1777 H   0  0  0  0  0  0  0  0  0  0  0  0
    8.5658   -1.8765   21.0222 C   0  0  2  0  0  0  0  0  0  0  0  0
    6.2784    1.7808   23.4894 H   0  0  0  0  0  0  0  0  0  0  0  0
   10.6446   -0.7564   20.0366 C   0  0  0  0  0  0  0  0  0  0  0  0
    7.0894   -0.0140   22.7058 N   0  0  0  0  0  0  0  0  0  0  0  0
    6.5654   -1.1488   22.2351 C   0  0  0  0  0  0  0  0  0  0  0  0
    8.6014   -3.2280   25.7397 H   0  0  0  0  0  0  0  0  0  0  0  0
   11.2220   -0.4555   19.1724 H   0  0  0  0  0  0  0  0  0  0  0  0
    7.7120    0.2662   23.9781 O   0  0  0  0  0  0  0  0  0  0  0  0
    9.4103   -1.7960   24.5949 C   0  0  0  0  0  0  0  0  0  0  0  0
    9.7236   -0.6908   25.0271 O   0  0  0  0  0  0  0  0  0  0  0  0
    9.3695   -1.6207   22.3108 C   0  0  0  0  0  0  0  0  0  0  0  0
    9.4677   -1.4346   19.8836 C   0  5  3  0  0  0  0  0  0  0  0  0
    7.2509   -1.4136   21.1269 N   0  0  0  0  0  0  0  0  0  0  0  0
   10.4896   -0.9112   22.3902 N   0  0  0  0  0  0  0  0  0  0  0  0
    8.4310   -2.9708   20.8553 H   0  0  0  0  0  0  0  0  0  0  0  0
   11.9777    0.1482   21.4653 H   0  0  0  0  0  0  0  0  0  0  0  0
    6.4985    0.6837   23.6532 C   0  0  0  0  0  0  0  0  0  0  0  0
    8.9102   -2.1770   23.3927 N   0  0  0  0  0  0  0  0  0  0  0  0
   11.1007   -0.4595   21.3190 C   0  0  0  0  0  0  0  0  0  0  0  0
   10.4149   -3.0229   25.7617 H   0  0  0  0  0  0  0  0  0  0  0  0
    5.5801   -1.7546   22.6963 O   0  0  0  0  0  0  0  0  0  0  0  0
    9.4945   -2.9503   25.3611 N   0  0  0  0  0  0  0  0  0  0  0  0
  1 14  1  0  0  0  0
  5  9  1  0  0  0  0
  5 14  1  0  0  0  0
  3 14  1  0  0  0  0
  5 21  2  0  0  0  0
  3 17  1  0  0  0  0
  3 15  1  0  0  0  0
  3 13  1  0  0  0  0
  7 15  1  0  0  0  0
 18 21  1  0  0  0  0
 16 21  1  0  0  0  0
  7 23  2  0  0  0  0
  6  7  1  0  0  0  0
 13 16  2  0  0  0  0
 13 20  1  0  0  0  0
  6 19  1  0  0  0  0
  6 10  1  0  0  0  0
 11 20  1  0  0  0  0
  4 19  1  0  0  0  0
 10 19  1  0  0  0  0
  2 19  1  0  0  0  0
 11 12  2  0  0  0  0
 11 24  1  0  0  0  0
  8 24  1  0  0  0  0
 22 24  1  0  0  0  0
M  CHG  1  14  -1
M  END
> <Shapegauss>
-108.943031

$$$$
