stable:False satoms:19 tatoms:24 sratio:0.7916666666666666
  -OEChem-08052416493D

 28 29  0     1  0  0  0  0  0999 V2000
   12.4903    0.3166   26.0884 H   0  0  0  0  0  0  0  0  0  0  0  0
    7.1624   -2.3828   25.3401 H   0  0  0  0  0  0  0  0  0  0  0  0
   11.0062    0.5151   24.6169 C   0  0  2  0  0  0  0  0  0  0  0  0
    8.3817   -3.4709   26.0023 H   0  0  0  0  0  0  0  0  0  0  0  0
   13.4128   -0.3428   24.4772 C   0  0  0  0  0  0  0  0  0  0  0  0
    9.1690   -1.6592   25.2333 N   0  0  0  0  0  0  0  0  0  0  0  0
    8.8485   -0.3696   25.3677 C   0  0  0  0  0  0  0  0  0  0  0  0
    7.9310   -0.4094   20.9059 H   0  0  0  0  0  0  0  0  0  0  0  0
   14.4380   -0.3079   24.8217 H   0  0  0  0  0  0  0  0  0  0  0  0
    8.9283   -2.5688   24.1380 O   0  0  0  0  0  0  0  0  0  0  0  0
    9.5056   -1.2809   21.7874 C   0  0  0  0  0  0  0  0  0  0  0  0
    9.6810   -2.4957   21.7947 O   0  0  0  0  0  0  0  0  0  0  0  0
   10.8916   -0.4074   23.3890 C   0  0  0  0  0  0  0  0  0  0  0  0
   12.4742    0.4999   25.0039 C   0  0  3  0  0  0  0  0  0  0  0  0
   10.0056    0.2570   25.5584 N   0  0  0  0  0  0  0  0  0  0  0  0
   11.8365   -1.2362   22.9592 N   0  3  0  0  0  0  0  0  0  0  0  0
   10.8099    1.5748   24.3304 H   0  0  0  0  0  0  0  0  0  0  0  0
   13.7379   -1.9792   23.1160 H   0  0  0  0  0  0  0  0  0  0  0  0
    8.2591   -2.6098   25.2794 C   0  0  0  0  0  0  0  0  0  0  0  0
    9.7807   -0.3322   22.7173 N   0  0  0  0  0  0  0  0  0  0  0  0
   13.0400   -1.2466   23.4849 C   0  0  0  0  0  0  0  0  0  0  0  0
    9.3589   -0.8717   19.8672 H   0  0  0  0  0  0  0  0  0  0  0  0
    7.6981    0.1057   25.4050 O   0  0  0  0  0  0  0  0  0  0  0  0
    8.9018   -0.6186   20.7274 N   0  0  0  0  0  0  0  0  0  0  0  0
   12.8428    1.5157   24.7982 H   0  0  0  0  0  0  0  0  0  0  0  0
   10.1813    0.5830   26.4873 H   0  0  0  0  0  0  0  0  0  0  0  0
    9.1376    0.4152   22.8840 H   0  0  0  0  0  0  0  0  0  0  0  0
   11.6256   -1.8697   22.2148 H   0  0  0  0  0  0  0  0  0  0  0  0
  1 14  1  0  0  0  0
  5  9  1  0  0  0  0
  5 14  1  0  0  0  0
  3 14  1  0  0  0  0
  5 21  2  0  0  0  0
  3 17  1  0  0  0  0
  3 15  1  0  0  0  0
  3 13  1  0  0  0  0
  7 15  1  0  0  0  0
 18 21  1  0  0  0  0
 16 21  1  0  0  0  0
  7 23  2  0  0  0  0
  6  7  1  0  0  0  0
 13 16  2  0  0  0  0
 13 20  1  0  0  0  0
  6 19  1  0  0  0  0
  6 10  1  0  0  0  0
 11 20  1  0  0  0  0
  4 19  1  0  0  0  0
 10 19  1  0  0  0  0
  2 19  1  0  0  0  0
 11 12  2  0  0  0  0
 11 24  1  0  0  0  0
  8 24  1  0  0  0  0
 22 24  1  0  0  0  0
 14 25  1  0  0  0  0
 15 26  1  0  0  0  0
 20 27  1  0  0  0  0
 16 28  1  0  0  0  0
M  CHG  1  16   1
M  END
> <Chemgauss4>
-5.865432

$$$$
