stable:False satoms:19 tatoms:24 sratio:0.7916666666666666
  -OEChem-08052416493D

 28 29  0     1  0  0  0  0  0999 V2000
  -12.8645   -2.1054  -21.5022 H   0  0  0  0  0  0  0  0  0  0  0  0
   -8.7991    2.3330  -21.4211 H   0  0  0  0  0  0  0  0  0  0  0  0
  -11.1966   -1.7021  -22.7117 C   0  0  2  0  0  0  0  0  0  0  0  0
  -10.4132    2.8898  -20.9808 H   0  0  0  0  0  0  0  0  0  0  0  0
  -13.6976   -1.7451  -23.2508 C   0  0  0  0  0  0  0  0  0  0  0  0
  -10.3738    0.9522  -21.8395 N   0  0  0  0  0  0  0  0  0  0  0  0
   -9.6406   -0.1454  -21.6358 C   0  0  0  0  0  0  0  0  0  0  0  0
   -8.1128    0.4107  -25.8910 H   0  0  0  0  0  0  0  0  0  0  0  0
  -14.6835   -2.1551  -23.0759 H   0  0  0  0  0  0  0  0  0  0  0  0
  -10.3047    1.9350  -22.8951 O   0  0  0  0  0  0  0  0  0  0  0  0
  -10.0113    0.6300  -25.2885 C   0  0  0  0  0  0  0  0  0  0  0  0
  -10.6063    1.7028  -25.3278 O   0  0  0  0  0  0  0  0  0  0  0  0
  -11.2276   -0.7461  -23.9187 C   0  0  0  0  0  0  0  0  0  0  0  0
  -12.6151   -2.2237  -22.5670 C   0  0  3  0  0  0  0  0  0  0  0  0
  -10.5136   -1.1483  -21.6250 N   0  0  0  0  0  0  0  0  0  0  0  0
  -12.3261   -0.2868  -24.5077 N   0  3  0  0  0  0  0  0  0  0  0  0
  -10.5940   -2.6104  -22.9467 H   0  0  0  0  0  0  0  0  0  0  0  0
  -14.3670   -0.2715  -24.6711 H   0  0  0  0  0  0  0  0  0  0  0  0
   -9.8809    2.1601  -21.6613 C   0  0  0  0  0  0  0  0  0  0  0  0
  -10.0724   -0.3943  -24.4011 N   0  0  0  0  0  0  0  0  0  0  0  0
  -13.5208   -0.7254  -24.1834 C   0  0  0  0  0  0  0  0  0  0  0  0
   -9.4307    0.3832  -27.1534 H   0  0  0  0  0  0  0  0  0  0  0  0
   -8.4173   -0.1845  -21.4061 O   0  0  0  0  0  0  0  0  0  0  0  0
   -9.0538    0.2708  -26.2270 N   0  0  0  0  0  0  0  0  0  0  0  0
  -12.5612   -3.2942  -22.8142 H   0  0  0  0  0  0  0  0  0  0  0  0
  -10.7045   -1.5555  -20.7318 H   0  0  0  0  0  0  0  0  0  0  0  0
   -9.2399   -0.8727  -24.1215 H   0  0  0  0  0  0  0  0  0  0  0  0
  -12.2410    0.4122  -25.2177 H   0  0  0  0  0  0  0  0  0  0  0  0
  1 14  1  0  0  0  0
  5  9  1  0  0  0  0
  5 14  1  0  0  0  0
  3 14  1  0  0  0  0
  5 21  2  0  0  0  0
  3 17  1  0  0  0  0
  3 15  1  0  0  0  0
  3 13  1  0  0  0  0
  7 15  1  0  0  0  0
 18 21  1  0  0  0  0
 16 21  1  0  0  0  0
  7 23  2  0  0  0  0
  6  7  1  0  0  0  0
 13 16  2  0  0  0  0
 13 20  1  0  0  0  0
  6 19  1  0  0  0  0
  6 10  1  0  0  0  0
 11 20  1  0  0  0  0
  4 19  1  0  0  0  0
 10 19  1  0  0  0  0
  2 19  1  0  0  0  0
 11 12  2  0  0  0  0
 11 24  1  0  0  0  0
  8 24  1  0  0  0  0
 22 24  1  0  0  0  0
 14 25  1  0  0  0  0
 15 26  1  0  0  0  0
 20 27  1  0  0  0  0
 16 28  1  0  0  0  0
M  CHG  1  16   1
M  END
> <Chemgauss4>
-5.936443

$$$$
