MODEL 1
REMARK VINA RESULT:    -9.729      0.000      0.000
REMARK INTER + INTRA:         -16.120
REMARK INTER:                 -15.132
REMARK INTRA:                  -0.988
REMARK UNBOUND:                -0.988
REMARK  12 active torsions:
REMARK  status: ('A' for Active; 'I' for Inactive)
REMARK    1  A    between atoms: P_1  and  O5'_31 
REMARK    2  A    between atoms: C2_4  and  O2_5 
REMARK    3  A    between atoms: C4_8  and  O4_9 
REMARK    4  A    between atoms: C1'_17  and  N10_19 
REMARK    5  A    between atoms: C1'_17  and  C2'_21 
REMARK    6  A    between atoms: C2'_21  and  O2'_22 
REMARK    7  A    between atoms: C2'_21  and  C3'_24 
REMARK    8  A    between atoms: C3'_24  and  O3'_25 
REMARK    9  A    between atoms: C3'_24  and  C4'_27 
REMARK   10  A    between atoms: C4'_27  and  O4'_28 
REMARK   11  A    between atoms: C4'_27  and  C5'_30 
REMARK   12  A    between atoms: C5'_30  and  O5'_31 
ROOT
HETATM    1  N1  FMN A 152      51.756  12.039  21.679  1.00 10.21    -0.306 N 
ATOM      2  H1  FMN A 152      52.598  12.012  21.104  1.00  0.00     0.171 HD
HETATM    3  C2  FMN A 152      50.606  11.348  21.330  1.00  5.15     0.224 A 
HETATM    4  N3  FMN A 152      49.471  11.302  22.101  1.00 10.89    -0.301 N 
HETATM    5  C4  FMN A 152      49.444  11.972  23.323  1.00  8.86     0.174 A 
HETATM    6  N5  FMN A 152      50.561  13.387  24.926  1.00 10.27    -0.348 N 
ATOM      7  H5  FMN A 152      49.692  13.482  25.453  1.00  0.00     0.166 HD
HETATM    8  C6  FMN A 152      51.779  14.468  26.722  1.00 13.25     0.039 A 
HETATM    9  C7  FMN A 152      53.010  14.961  27.193  1.00 17.54    -0.054 A 
HETATM   10  C8  FMN A 152      54.139  14.963  26.364  1.00 14.42    -0.054 A 
HETATM   11  C9  FMN A 152      54.080  14.454  25.037  1.00 12.31     0.039 A 
HETATM   12  C10 FMN A 152      51.692  12.766  22.851  1.00 11.58     0.142 A 
HETATM   13  N10 FMN A 152      52.843  13.438  23.233  1.00 14.21    -0.327 N 
HETATM   14  C4A FMN A 152      50.584  12.709  23.717  1.00 11.49     0.129 A 
HETATM   15  C5A FMN A 152      51.750  13.937  25.407  1.00  7.85     0.060 A 
HETATM   16  C7M FMN A 152      53.104  15.469  28.552  1.00 17.70     0.049 C 
HETATM   17  C8M FMN A 152      55.425  15.424  26.778  1.00  9.61     0.049 C 
HETATM   18  C9A FMN A 152      52.869  13.912  24.561  1.00 10.60     0.063 A 
HETATM   19  H3  FMN A 152      48.670  10.791  21.788  1.00 20.00     0.171 HD
ENDROOT
BRANCH  13  20
HETATM   20  C1' FMN A 152      53.933  13.383  22.354  1.00 12.50     0.165 C 
BRANCH  20  21
HETATM   21  C2' FMN A 152      54.090  14.696  21.589  1.00  4.22     0.167 C 
BRANCH  21  22
HETATM   22  O2' FMN A 152      53.051  14.760  20.582  1.00 11.74    -0.391 OA
HETATM   23  H2' FMN A 152      52.527  13.968  20.616  1.00 20.00     0.210 HD
ENDBRANCH  21  22
BRANCH  21  24
HETATM   24  C3' FMN A 152      55.508  14.690  20.974  1.00 10.81     0.179 C 
BRANCH  24  25
HETATM   25  O3' FMN A 152      56.401  15.473  21.805  1.00 12.86    -0.390 OA
HETATM   26  H3' FMN A 152      56.680  14.953  22.550  1.00 20.00     0.210 HD
ENDBRANCH  24  25
BRANCH  24  27
HETATM   27  C4' FMN A 152      55.590  15.159  19.555  1.00  7.88     0.173 C 
BRANCH  27  28
HETATM   28  O4' FMN A 152      56.380  14.185  18.781  1.00  9.93    -0.391 OA
HETATM   29  H4' FMN A 152      57.000  13.752  19.356  1.00 20.00     0.210 HD
ENDBRANCH  27  28
BRANCH  27  30
HETATM   30  C5' FMN A 152      56.217  16.431  19.345  1.00 10.12     0.217 C 
BRANCH  30  31
HETATM   31  O5' FMN A 152      55.208  17.439  19.570  1.00  8.45    -0.280 OA
BRANCH  31  32
HETATM   32  P   FMN A 152      55.519  19.019  19.262  1.00  6.03     0.422 P 
HETATM   33  O1P FMN A 152      55.161  19.545  17.716  1.00 11.39    -0.617 OA
HETATM   34  O2P FMN A 152      57.197  19.267  19.468  1.00 10.51    -0.617 OA
HETATM   35  O3P FMN A 152      54.733  19.929  20.388  1.00  8.79    -0.617 OA
ENDBRANCH  31  32
ENDBRANCH  30  31
ENDBRANCH  27  30
ENDBRANCH  24  27
ENDBRANCH  21  24
ENDBRANCH  20  21
ENDBRANCH  13  20
BRANCH   3  36
HETATM   36  O2  FMN A 152      50.669  10.679  20.156  1.00 15.20    -0.332 OA
ATOM     37  H2  FMN A 152      50.107  11.015  19.468  1.00  0.00     0.221 HD
ENDBRANCH   3  36
BRANCH   5  38
HETATM   38  O4  FMN A 152      48.344  11.968  24.139  1.00 13.93    -0.344 OA
ATOM     39  H4  FMN A 152      48.075  12.733  24.634  1.00  0.00     0.219 HD
ENDBRANCH   5  38
TORSDOF 12
ENDMDL
MODEL 2
REMARK VINA RESULT:    -8.959      1.718      2.203
REMARK INTER + INTRA:         -14.922
REMARK INTER:                 -13.592
REMARK INTRA:                  -1.330
REMARK UNBOUND:                -0.988
REMARK  12 active torsions:
REMARK  status: ('A' for Active; 'I' for Inactive)
REMARK    1  A    between atoms: P_1  and  O5'_31 
REMARK    2  A    between atoms: C2_4  and  O2_5 
REMARK    3  A    between atoms: C4_8  and  O4_9 
REMARK    4  A    between atoms: C1'_17  and  N10_19 
REMARK    5  A    between atoms: C1'_17  and  C2'_21 
REMARK    6  A    between atoms: C2'_21  and  O2'_22 
REMARK    7  A    between atoms: C2'_21  and  C3'_24 
REMARK    8  A    between atoms: C3'_24  and  O3'_25 
REMARK    9  A    between atoms: C3'_24  and  C4'_27 
REMARK   10  A    between atoms: C4'_27  and  O4'_28 
REMARK   11  A    between atoms: C4'_27  and  C5'_30 
REMARK   12  A    between atoms: C5'_30  and  O5'_31 
ROOT
HETATM    1  N1  FMN A 152      51.778  12.008  21.667  1.00 10.21    -0.306 N 
ATOM      2  H1  FMN A 152      52.619  11.961  21.093  1.00  0.00     0.171 HD
HETATM    3  C2  FMN A 152      50.618  11.328  21.329  1.00  5.15     0.224 A 
HETATM    4  N3  FMN A 152      49.482  11.309  22.100  1.00 10.89    -0.301 N 
HETATM    5  C4  FMN A 152      49.464  11.999  23.311  1.00  8.86     0.174 A 
HETATM    6  N5  FMN A 152      50.601  13.423  24.893  1.00 10.27    -0.348 N 
ATOM      7  H5  FMN A 152      49.734  13.538  25.418  1.00  0.00     0.166 HD
HETATM    8  C6  FMN A 152      51.834  14.514  26.672  1.00 13.25     0.039 A 
HETATM    9  C7  FMN A 152      53.073  14.997  27.135  1.00 17.54    -0.054 A 
HETATM   10  C8  FMN A 152      54.201  14.970  26.306  1.00 14.42    -0.054 A 
HETATM   11  C9  FMN A 152      54.136  14.441  24.988  1.00 12.31     0.039 A 
HETATM   12  C10 FMN A 152      51.724  12.754  22.827  1.00 11.58     0.142 A 
HETATM   13  N10 FMN A 152      52.883  13.416  23.199  1.00 14.21    -0.327 N 
HETATM   14  C4A FMN A 152      50.615  12.726  23.695  1.00 11.49     0.129 A 
HETATM   15  C5A FMN A 152      51.798  13.963  25.366  1.00  7.85     0.060 A 
HETATM   16  C7M FMN A 152      53.173  15.524  28.487  1.00 17.70     0.049 C 
HETATM   17  C8M FMN A 152      55.493  15.420  26.714  1.00  9.61     0.049 C 
HETATM   18  C9A FMN A 152      52.917  13.909  24.520  1.00 10.60     0.063 A 
HETATM   19  H3  FMN A 152      48.674  10.805  21.795  1.00 20.00     0.171 HD
ENDROOT
BRANCH  13  20
HETATM   20  C1' FMN A 152      53.973  13.331  22.322  1.00 12.50     0.165 C 
BRANCH  20  21
HETATM   21  C2' FMN A 152      54.117  14.611  21.500  1.00  4.22     0.167 C 
BRANCH  21  22
HETATM   22  O2' FMN A 152      52.863  14.854  20.816  1.00 11.74    -0.391 OA
HETATM   23  H2' FMN A 152      52.787  15.778  20.611  1.00 20.00     0.210 HD
ENDBRANCH  21  22
BRANCH  21  24
HETATM   24  C3' FMN A 152      55.289  14.384  20.518  1.00 10.81     0.179 C 
BRANCH  24  25
HETATM   25  O3' FMN A 152      56.362  13.684  21.196  1.00 12.86    -0.390 OA
HETATM   26  H3' FMN A 152      57.018  14.309  21.481  1.00 20.00     0.210 HD
ENDBRANCH  24  25
BRANCH  24  27
HETATM   27  C4' FMN A 152      55.821  15.620  19.862  1.00  7.88     0.173 C 
BRANCH  27  28
HETATM   28  O4' FMN A 152      57.090  15.289  19.191  1.00  9.93    -0.391 OA
HETATM   29  H4' FMN A 152      57.419  14.462  19.525  1.00 20.00     0.210 HD
ENDBRANCH  27  28
BRANCH  27  30
HETATM   30  C5' FMN A 152      56.110  16.722  20.732  1.00 10.12     0.217 C 
BRANCH  30  31
HETATM   31  O5' FMN A 152      57.516  16.649  21.051  1.00  8.45    -0.280 OA
BRANCH  31  32
HETATM   32  P   FMN A 152      58.016  16.486  22.604  1.00  6.03     0.422 P 
HETATM   33  O1P FMN A 152      57.016  17.151  23.766  1.00 11.39    -0.617 OA
HETATM   34  O2P FMN A 152      59.515  17.294  22.753  1.00 10.51    -0.617 OA
HETATM   35  O3P FMN A 152      58.274  14.886  22.898  1.00  8.79    -0.617 OA
ENDBRANCH  31  32
ENDBRANCH  30  31
ENDBRANCH  27  30
ENDBRANCH  24  27
ENDBRANCH  21  24
ENDBRANCH  20  21
ENDBRANCH  13  20
BRANCH   3  36
HETATM   36  O2  FMN A 152      50.671  10.640  20.165  1.00 15.20    -0.332 OA
ATOM     37  H2  FMN A 152      51.535  10.562  19.780  1.00  0.00     0.221 HD
ENDBRANCH   3  36
BRANCH   5  38
HETATM   38  O4  FMN A 152      48.365  12.023  24.127  1.00 13.93    -0.344 OA
ATOM     39  H4  FMN A 152      47.487  11.855  23.804  1.00  0.00     0.219 HD
ENDBRANCH   5  38
TORSDOF 12
ENDMDL
MODEL 3
REMARK VINA RESULT:    -8.149      2.287      3.642
REMARK INTER + INTRA:         -13.662
REMARK INTER:                 -12.104
REMARK INTRA:                  -1.558
REMARK UNBOUND:                -0.988
REMARK  12 active torsions:
REMARK  status: ('A' for Active; 'I' for Inactive)
REMARK    1  A    between atoms: P_1  and  O5'_31 
REMARK    2  A    between atoms: C2_4  and  O2_5 
REMARK    3  A    between atoms: C4_8  and  O4_9 
REMARK    4  A    between atoms: C1'_17  and  N10_19 
REMARK    5  A    between atoms: C1'_17  and  C2'_21 
REMARK    6  A    between atoms: C2'_21  and  O2'_22 
REMARK    7  A    between atoms: C2'_21  and  C3'_24 
REMARK    8  A    between atoms: C3'_24  and  O3'_25 
REMARK    9  A    between atoms: C3'_24  and  C4'_27 
REMARK   10  A    between atoms: C4'_27  and  O4'_28 
REMARK   11  A    between atoms: C4'_27  and  C5'_30 
REMARK   12  A    between atoms: C5'_30  and  O5'_31 
ROOT
HETATM    1  N1  FMN A 152      51.746  12.211  21.577  1.00 10.21    -0.306 N 
ATOM      2  H1  FMN A 152      52.566  12.240  20.971  1.00  0.00     0.171 HD
HETATM    3  C2  FMN A 152      50.609  11.493  21.241  1.00  5.15     0.224 A 
HETATM    4  N3  FMN A 152      49.507  11.372  22.051  1.00 10.89    -0.301 N 
HETATM    5  C4  FMN A 152      49.504  11.988  23.302  1.00  8.86     0.174 A 
HETATM    6  N5  FMN A 152      50.632  13.372  24.924  1.00 10.27    -0.348 N 
ATOM      7  H5  FMN A 152      49.781  13.412  25.487  1.00  0.00     0.166 HD
HETATM    8  C6  FMN A 152      51.880  14.419  26.720  1.00 13.25     0.039 A 
HETATM    9  C7  FMN A 152      53.110  14.937  27.165  1.00 17.54    -0.054 A 
HETATM   10  C8  FMN A 152      54.205  15.016  26.295  1.00 14.42    -0.054 A 
HETATM   11  C9  FMN A 152      54.113  14.563  24.950  1.00 12.31     0.039 A 
HETATM   12  C10 FMN A 152      51.703  12.884  22.782  1.00 11.58     0.142 A 
HETATM   13  N10 FMN A 152      52.842  13.581  23.150  1.00 14.21    -0.327 N 
HETATM   14  C4A FMN A 152      50.632  12.749  23.686  1.00 11.49     0.129 A 
HETATM   15  C5A FMN A 152      51.818  13.945  25.384  1.00  7.85     0.060 A 
HETATM   16  C7M FMN A 152      53.239  15.389  28.541  1.00 17.70     0.049 C 
HETATM   17  C8M FMN A 152      55.489  15.506  26.682  1.00  9.61     0.049 C 
HETATM   18  C9A FMN A 152      52.904  13.997  24.496  1.00 10.60     0.063 A 
HETATM   19  H3  FMN A 152      48.713  10.846  21.746  1.00 20.00     0.171 HD
ENDROOT
BRANCH  13  20
HETATM   20  C1' FMN A 152      53.899  13.604  22.230  1.00 12.50     0.165 C 
BRANCH  20  21
HETATM   21  C2' FMN A 152      53.915  14.914  21.443  1.00  4.22     0.167 C 
BRANCH  21  22
HETATM   22  O2' FMN A 152      52.972  14.795  20.350  1.00 11.74    -0.391 OA
HETATM   23  H2' FMN A 152      53.184  15.432  19.677  1.00 20.00     0.210 HD
ENDBRANCH  21  22
BRANCH  21  24
HETATM   24  C3' FMN A 152      55.365  15.124  20.950  1.00 10.81     0.179 C 
BRANCH  24  25
HETATM   25  O3' FMN A 152      55.623  14.256  19.818  1.00 12.86    -0.390 OA
HETATM   26  H3' FMN A 152      54.989  13.549  19.809  1.00 20.00     0.210 HD
ENDBRANCH  24  25
BRANCH  24  27
HETATM   27  C4' FMN A 152      56.425  14.936  21.989  1.00  7.88     0.173 C 
BRANCH  27  28
HETATM   28  O4' FMN A 152      56.817  16.258  22.508  1.00  9.93    -0.391 OA
HETATM   29  H4' FMN A 152      57.432  16.149  23.224  1.00 20.00     0.210 HD
ENDBRANCH  27  28
BRANCH  27  30
HETATM   30  C5' FMN A 152      57.638  14.310  21.549  1.00 10.12     0.217 C 
BRANCH  30  31
HETATM   31  O5' FMN A 152      57.482  12.891  21.766  1.00  8.45    -0.280 OA
BRANCH  31  32
HETATM   32  P   FMN A 152      57.955  12.201  23.175  1.00  6.03     0.422 P 
HETATM   33  O1P FMN A 152      58.572  10.652  23.058  1.00 11.39    -0.617 OA
HETATM   34  O2P FMN A 152      56.580  12.087  24.184  1.00 10.51    -0.617 OA
HETATM   35  O3P FMN A 152      59.034  13.209  23.906  1.00  8.79    -0.617 OA
ENDBRANCH  31  32
ENDBRANCH  30  31
ENDBRANCH  27  30
ENDBRANCH  24  27
ENDBRANCH  21  24
ENDBRANCH  20  21
ENDBRANCH  13  20
BRANCH   3  36
HETATM   36  O2  FMN A 152      50.649  10.878  20.037  1.00 15.20    -0.332 OA
ATOM     37  H2  FMN A 152      51.474  10.951  19.573  1.00  0.00     0.221 HD
ENDBRANCH   3  36
BRANCH   5  38
HETATM   38  O4  FMN A 152      48.437  11.908  24.157  1.00 13.93    -0.344 OA
ATOM     39  H4  FMN A 152      47.574  11.634  23.871  1.00  0.00     0.219 HD
ENDBRANCH   5  38
TORSDOF 12
ENDMDL
MODEL 4
REMARK VINA RESULT:    -6.871      3.006      4.564
REMARK INTER + INTRA:         -11.675
REMARK INTER:                 -10.125
REMARK INTRA:                  -1.551
REMARK UNBOUND:                -0.988
REMARK  12 active torsions:
REMARK  status: ('A' for Active; 'I' for Inactive)
REMARK    1  A    between atoms: P_1  and  O5'_31 
REMARK    2  A    between atoms: C2_4  and  O2_5 
REMARK    3  A    between atoms: C4_8  and  O4_9 
REMARK    4  A    between atoms: C1'_17  and  N10_19 
REMARK    5  A    between atoms: C1'_17  and  C2'_21 
REMARK    6  A    between atoms: C2'_21  and  O2'_22 
REMARK    7  A    between atoms: C2'_21  and  C3'_24 
REMARK    8  A    between atoms: C3'_24  and  O3'_25 
REMARK    9  A    between atoms: C3'_24  and  C4'_27 
REMARK   10  A    between atoms: C4'_27  and  O4'_28 
REMARK   11  A    between atoms: C4'_27  and  C5'_30 
REMARK   12  A    between atoms: C5'_30  and  O5'_31 
ROOT
HETATM    1  N1  FMN A 152      52.934  12.920  22.205  1.00 10.21    -0.306 N 
ATOM      2  H1  FMN A 152      53.466  12.673  21.370  1.00  0.00     0.171 HD
HETATM    3  C2  FMN A 152      51.625  12.503  22.392  1.00  5.15     0.224 A 
HETATM    4  N3  FMN A 152      50.890  12.755  23.524  1.00 10.89    -0.301 N 
HETATM    5  C4  FMN A 152      51.470  13.463  24.575  1.00  8.86     0.174 A 
HETATM    6  N5  FMN A 152      53.378  14.642  25.465  1.00 10.27    -0.348 N 
ATOM      7  H5  FMN A 152      52.817  14.959  26.256  1.00  0.00     0.166 HD
HETATM    8  C6  FMN A 152      55.384  15.480  26.538  1.00 13.25     0.039 A 
HETATM    9  C7  FMN A 152      56.773  15.691  26.459  1.00 17.54    -0.054 A 
HETATM   10  C8  FMN A 152      57.471  15.395  25.281  1.00 14.42    -0.054 A 
HETATM   11  C9  FMN A 152      56.805  14.859  24.144  1.00 12.31     0.039 A 
HETATM   12  C10 FMN A 152      53.474  13.689  23.216  1.00 11.58     0.142 A 
HETATM   13  N10 FMN A 152      54.792  14.089  23.062  1.00 14.21    -0.327 N 
HETATM   14  C4A FMN A 152      52.798  13.929  24.428  1.00 11.49     0.129 A 
HETATM   15  C5A FMN A 152      54.745  14.918  25.404  1.00  7.85     0.060 A 
HETATM   16  C7M FMN A 152      57.483  16.218  27.614  1.00 17.70     0.049 C 
HETATM   17  C8M FMN A 152      58.881  15.559  25.135  1.00  9.61     0.049 C 
HETATM   18  C9A FMN A 152      55.422  14.597  24.217  1.00 10.60     0.063 A 
HETATM   19  H3  FMN A 152      49.945  12.434  23.593  1.00 20.00     0.171 HD
ENDROOT
BRANCH  13  20
HETATM   20  C1' FMN A 152      55.425  13.744  21.861  1.00 12.50     0.165 C 
BRANCH  20  21
HETATM   21  C2' FMN A 152      55.488  14.938  20.910  1.00  4.22     0.167 C 
BRANCH  21  22
HETATM   22  O2' FMN A 152      54.355  14.862  20.011  1.00 11.74    -0.391 OA
HETATM   23  H2' FMN A 152      54.532  15.376  19.232  1.00 20.00     0.210 HD
ENDBRANCH  21  22
BRANCH  21  24
HETATM   24  C3' FMN A 152      56.839  14.847  20.164  1.00 10.81     0.179 C 
BRANCH  24  25
HETATM   25  O3' FMN A 152      56.694  13.992  19.002  1.00 12.86    -0.390 OA
HETATM   26  H3' FMN A 152      56.907  13.096  19.239  1.00 20.00     0.210 HD
ENDBRANCH  24  25
BRANCH  24  27
HETATM   27  C4' FMN A 152      57.997  14.388  20.994  1.00  7.88     0.173 C 
BRANCH  27  28
HETATM   28  O4' FMN A 152      58.858  15.547  21.284  1.00  9.93    -0.391 OA
HETATM   29  H4' FMN A 152      59.553  15.286  21.877  1.00 20.00     0.210 HD
ENDBRANCH  27  28
BRANCH  27  30
HETATM   30  C5' FMN A 152      58.850  13.402  20.398  1.00 10.12     0.217 C 
BRANCH  30  31
HETATM   31  O5' FMN A 152      58.293  12.110  20.723  1.00  8.45    -0.280 OA
BRANCH  31  32
HETATM   32  P   FMN A 152      58.853  11.253  22.002  1.00  6.03     0.422 P 
HETATM   33  O1P FMN A 152      58.764   9.590  21.862  1.00 11.39    -0.617 OA
HETATM   34  O2P FMN A 152      57.897  11.664  23.359  1.00 10.51    -0.617 OA
HETATM   35  O3P FMN A 152      60.397  11.734  22.310  1.00  8.79    -0.617 OA
ENDBRANCH  31  32
ENDBRANCH  30  31
ENDBRANCH  27  30
ENDBRANCH  24  27
ENDBRANCH  21  24
ENDBRANCH  20  21
ENDBRANCH  13  20
BRANCH   3  36
HETATM   36  O2  FMN A 152      51.095  11.790  21.372  1.00 15.20    -0.332 OA
ATOM     37  H2  FMN A 152      51.693  11.598  20.659  1.00  0.00     0.221 HD
ENDBRANCH   3  36
BRANCH   5  38
HETATM   38  O4  FMN A 152      50.793  13.750  25.730  1.00 13.93    -0.344 OA
ATOM     39  H4  FMN A 152      49.847  13.691  25.794  1.00  0.00     0.219 HD
ENDBRANCH   5  38
TORSDOF 12
ENDMDL
