
 OpenBabel07202414163D

 48 50  0  0  0  0  0  0  0  0999 V2000
   -5.1873    3.1120   -4.6851 C   0  0  0  0  0  0  0  0  0  0  0  0
   -3.6981    3.2074   -4.8680 C   0  0  0  0  0  0  0  0  0  0  0  0
   -3.2007    3.0552   -6.1754 C   0  0  0  0  0  0  0  0  0  0  0  0
   -1.8417    3.1814   -6.4051 C   0  0  0  0  0  0  0  0  0  0  0  0
   -0.9549    3.4616   -5.4377 N   0  0  0  0  0  0  0  0  0  0  0  0
   -1.4498    3.6156   -4.1804 C   0  0  0  0  0  0  0  0  0  0  0  0
   -2.7981    3.4964   -3.8241 C   0  0  0  0  0  0  0  0  0  0  0  0
   -3.2745    3.6386   -2.4886 N   0  0  0  0  0  0  0  0  0  0  0  0
   -2.5146    3.8858   -1.3630 C   0  0  0  0  0  0  0  0  0  0  0  0
   -1.2985    4.0789   -1.3646 O   0  0  0  0  0  0  0  0  0  0  0  0
   -3.2363    3.9235   -0.0177 C   0  0  0  0  0  0  0  0  0  0  0  0
   -4.7250    3.6690    0.0111 C   0  0  0  0  0  0  0  0  0  0  0  0
   -5.6145    4.7513   -0.0528 C   0  0  0  0  0  0  0  0  0  0  0  0
   -6.9887    4.5257   -0.0215 C   0  0  0  0  0  0  0  0  0  0  0  0
   -8.0703    5.8606   -0.0866 Cl  0  0  0  0  0  0  0  0  0  0  0  0
   -7.4938    3.2267    0.0732 C   0  0  0  0  0  0  0  0  0  0  0  0
   -6.6234    2.1319    0.1455 C   0  0  0  0  0  0  0  0  0  0  0  0
   -7.1668    0.7604    0.2150 C   0  0  0  0  0  0  0  0  0  0  0  0
   -7.4448    0.0205   -0.8802 C   0  0  0  0  0  0  0  0  0  0  0  0
   -8.0039   -1.3421   -0.7863 C   0  0  0  0  0  0  0  0  0  0  0  0
   -9.3927   -1.5363   -0.7657 C   0  0  0  0  0  0  0  0  0  0  0  0
   -9.9306   -2.8067   -0.9963 C   0  0  0  0  0  0  0  0  0  0  0  0
   -9.0870   -3.8924   -1.2333 C   0  0  0  0  0  0  0  0  0  0  0  0
   -7.7051   -3.7191   -1.1955 C   0  0  0  0  0  0  0  0  0  0  0  0
   -7.1637   -2.4512   -0.9627 C   0  0  0  0  0  0  0  0  0  0  0  0
   -7.2216    0.4693   -2.3005 C   0  0  0  0  0  0  0  0  0  0  0  0
   -7.6225   -0.4366   -3.2349 F   0  0  0  0  0  0  0  0  0  0  0  0
   -7.8905    1.6175   -2.5843 F   0  0  0  0  0  0  0  0  0  0  0  0
   -5.9061    0.7026   -2.5413 F   0  0  0  0  0  0  0  0  0  0  0  0
   -5.2388    2.3627    0.1172 C   0  0  0  0  0  0  0  0  0  0  0  0
   -5.6516    2.5600   -5.5108 H   0  0  0  0  0  0  0  0  0  0  0  0
   -5.6269    4.1132   -4.6514 H   0  0  0  0  0  0  0  0  0  0  0  0
   -5.4438    2.5738   -3.7728 H   0  0  0  0  0  0  0  0  0  0  0  0
   -3.8608    2.8377   -7.0084 H   0  0  0  0  0  0  0  0  0  0  0  0
   -1.4253    3.0565   -7.4001 H   0  0  0  0  0  0  0  0  0  0  0  0
   -0.6727    3.8476   -3.4609 H   0  0  0  0  0  0  0  0  0  0  0  0
   -4.2680    3.5154   -2.3564 H   0  0  0  0  0  0  0  0  0  0  0  0
   -3.0343    4.9095    0.4212 H   0  0  0  0  0  0  0  0  0  0  0  0
   -2.7403    3.1937    0.6370 H   0  0  0  0  0  0  0  0  0  0  0  0
   -5.2378    5.7715   -0.1154 H   0  0  0  0  0  0  0  0  0  0  0  0
   -8.5706    3.0689    0.0851 H   0  0  0  0  0  0  0  0  0  0  0  0
   -7.3451    0.3811    1.2214 H   0  0  0  0  0  0  0  0  0  0  0  0
  -10.0711   -0.6948   -0.6434 H   0  0  0  0  0  0  0  0  0  0  0  0
  -11.0085   -2.9434   -1.0394 H   0  0  0  0  0  0  0  0  0  0  0  0
   -9.5072   -4.8682   -1.4665 H   0  0  0  0  0  0  0  0  0  0  0  0
   -7.0485   -4.5633   -1.3928 H   0  0  0  0  0  0  0  0  0  0  0  0
   -6.0828   -2.3302   -0.9911 H   0  0  0  0  0  0  0  0  0  0  0  0
   -4.5515    1.5188    0.1858 H   0  0  0  0  0  0  0  0  0  0  0  0
  1  2  1  0  0  0  0
  1 31  1  0  0  0  0
  1 32  1  0  0  0  0
  1 33  1  0  0  0  0
  2  3  1  0  0  0  0
  2  7  2  0  0  0  0
  3  4  2  0  0  0  0
  3 34  1  0  0  0  0
  4  5  1  0  0  0  0
  4 35  1  0  0  0  0
  5  6  2  0  0  0  0
  6  7  1  0  0  0  0
  6 36  1  0  0  0  0
  7  8  1  0  0  0  0
  8  9  1  0  0  0  0
  8 37  1  0  0  0  0
  9 10  2  0  0  0  0
  9 11  1  0  0  0  0
 11 12  1  0  0  0  0
 11 38  1  0  0  0  0
 11 39  1  0  0  0  0
 12 13  1  0  0  0  0
 12 30  2  0  0  0  0
 13 14  2  0  0  0  0
 13 40  1  0  0  0  0
 14 15  1  0  0  0  0
 14 16  1  0  0  0  0
 16 17  2  0  0  0  0
 16 41  1  0  0  0  0
 17 18  1  0  0  0  0
 17 30  1  0  0  0  0
 18 19  2  0  0  0  0
 18 42  1  0  0  0  0
 19 20  1  0  0  0  0
 19 26  1  0  0  0  0
 20 21  1  0  0  0  0
 20 25  2  0  0  0  0
 21 22  2  0  0  0  0
 21 43  1  0  0  0  0
 22 23  1  0  0  0  0
 22 44  1  0  0  0  0
 23 24  2  0  0  0  0
 23 45  1  0  0  0  0
 24 25  1  0  0  0  0
 24 46  1  0  0  0  0
 25 47  1  0  0  0  0
 26 27  1  0  0  0  0
 26 28  1  0  0  0  0
 26 29  1  0  0  0  0
 30 48  1  0  0  0  0
M  END
$$$$
