MODEL 1
REMARK VINA RESULT:    -6.322      0.000      0.000
REMARK INTER + INTRA:         -11.204
REMARK INTER:                 -10.017
REMARK INTRA:                  -1.187
REMARK UNBOUND:                -1.187
REMARK  10 active torsions:
REMARK  status: ('A' for Active; 'I' for Inactive)
REMARK    1  A    between atoms: S_2  and  N_5 
REMARK    2  A    between atoms: N_5  and  C_7 
REMARK    3  A    between atoms: C_8  and  C_9 
REMARK    4  A    between atoms: C_9  and  C_15 
REMARK    5  A    between atoms: C_9  and  C_10 
REMARK    6  A    between atoms: C_10  and  C_11 
REMARK    7  A    between atoms: C_11  and  C_12 
REMARK    8  A    between atoms: C_12  and  C_13 
REMARK    9  A    between atoms: C_15  and  C_16 
REMARK       I    between atoms: C_16  and  N_18 
REMARK   10  A    between atoms: N_18  and  C_20 
ROOT
HETATM    1  C   UNL     1       8.001  -2.928  23.622  1.00  0.00     0.108 C 
ENDROOT
BRANCH   1   2
HETATM    2  C   UNL     1       9.142  -2.459  23.282  1.00  0.00     0.011 C 
HETATM    3  C   UNL     1       9.996  -1.557  23.286  1.00  0.00     0.097 C 
BRANCH   3   4
HETATM    4  N   UNL     1      11.135  -1.173  23.407  1.00  0.00    -0.296 N 
ATOM      5  HN  UNL     1      11.870  -1.735  22.976  1.00  0.00     0.177 HD
BRANCH   4   6
HETATM    6  S   UNL     1      11.588   0.171  24.206  1.00  0.00     0.226 S 
HETATM    7  C   UNL     1      11.048   1.540  23.194  1.00  0.00     0.186 C 
HETATM    8  O   UNL     1      10.928   0.319  25.465  1.00  0.00    -0.206 OA
HETATM    9  O   UNL     1      13.003   0.291  24.330  1.00  0.00    -0.206 OA
ENDBRANCH   4   6
ENDBRANCH   3   4
ENDBRANCH   1   2
BRANCH   1  10
HETATM   10  C   UNL     1       7.419  -2.458  22.715  1.00  0.00    -0.071 C 
BRANCH  10  11
HETATM   11  C   UNL     1       6.643  -1.957  21.730  1.00  0.00     0.289 C 
HETATM   12  O   UNL     1       5.654  -2.505  21.549  1.00  0.00    -0.259 OA
HETATM   13  N   UNL     1       7.175  -0.910  21.131  1.00  0.00    -0.315 N 
ATOM     14  HN  UNL     1       8.083  -0.559  21.435  1.00  0.00     0.170 HD
BRANCH  13  15
HETATM   15  C   UNL     1       6.585  -0.357  20.213  1.00  0.00     0.057 A 
HETATM   16  C   UNL     1       6.243  -0.667  18.974  1.00  0.00     0.117 A 
HETATM   17  N   UNL     1       5.731  -0.395  17.894  1.00  0.00    -0.373 N 
HETATM   18  C   UNL     1       5.317   0.839  18.193  1.00  0.00     0.088 A 
ATOM     19  HN  UNL     1       5.647  -0.939  17.036  1.00  0.00     0.164 HD
HETATM   20  C   UNL     1       5.457   1.480  19.259  1.00  0.00     0.026 A 
HETATM   21  C   UNL     1       6.007   1.139  20.400  1.00  0.00    -0.033 A 
HETATM   22  C   UNL     1       6.174   1.928  21.654  1.00  0.00     0.050 C 
ENDBRANCH  13  15
ENDBRANCH  10  11
ENDBRANCH   1  10
BRANCH   1  23
HETATM   23  C   UNL     1       7.527  -4.412  24.095  1.00  0.00    -0.010 C 
BRANCH  23  24
HETATM   24  C   UNL     1       6.560  -4.833  23.878  1.00  0.00    -0.025 C 
BRANCH  24  25
HETATM   25  C   UNL     1       6.084  -5.892  23.208  1.00  0.00     0.053 C 
BRANCH  25  26
HETATM   26  C   UNL     1       6.581  -5.803  21.764  1.00  0.00    -0.033 C 
HETATM   27  C   UNL     1       6.141  -5.917  20.899  1.00  0.00     0.007 C 
ENDBRANCH  25  26
ENDBRANCH  24  25
ENDBRANCH  23  24
ENDBRANCH   1  23
TORSDOF 10
ENDMDL
MODEL 2
REMARK VINA RESULT:    -6.296      3.698      8.062
REMARK INTER + INTRA:         -11.163
REMARK INTER:                  -9.679
REMARK INTRA:                  -1.484
REMARK UNBOUND:                -1.187
REMARK  10 active torsions:
REMARK  status: ('A' for Active; 'I' for Inactive)
REMARK    1  A    between atoms: S_2  and  N_5 
REMARK    2  A    between atoms: N_5  and  C_7 
REMARK    3  A    between atoms: C_8  and  C_9 
REMARK    4  A    between atoms: C_9  and  C_15 
REMARK    5  A    between atoms: C_9  and  C_10 
REMARK    6  A    between atoms: C_10  and  C_11 
REMARK    7  A    between atoms: C_11  and  C_12 
REMARK    8  A    between atoms: C_12  and  C_13 
REMARK    9  A    between atoms: C_15  and  C_16 
REMARK       I    between atoms: C_16  and  N_18 
REMARK   10  A    between atoms: N_18  and  C_20 
ROOT
HETATM    1  C   UNL     1       6.171   3.177  22.128  1.00  0.00     0.108 C 
ENDROOT
BRANCH   1   2
HETATM    2  C   UNL     1       5.544   2.392  21.335  1.00  0.00     0.011 C 
HETATM    3  C   UNL     1       5.133   2.084  20.204  1.00  0.00     0.097 C 
BRANCH   3   4
HETATM    4  N   UNL     1       4.966   1.280  19.317  1.00  0.00    -0.296 N 
ATOM      5  HN  UNL     1       4.080   1.314  18.812  1.00  0.00     0.177 HD
BRANCH   4   6
HETATM    6  S   UNL     1       6.046   0.150  18.865  1.00  0.00     0.226 S 
HETATM    7  C   UNL     1       6.100  -1.030  20.203  1.00  0.00     0.186 C 
HETATM    8  O   UNL     1       5.638  -0.578  17.704  1.00  0.00    -0.206 OA
HETATM    9  O   UNL     1       7.367   0.670  18.727  1.00  0.00    -0.206 OA
ENDBRANCH   4   6
ENDBRANCH   3   4
ENDBRANCH   1   2
BRANCH   1  10
HETATM   10  C   UNL     1       7.174   2.564  22.112  1.00  0.00    -0.071 C 
BRANCH  10  11
HETATM   11  C   UNL     1       8.359   1.923  22.200  1.00  0.00     0.289 C 
HETATM   12  O   UNL     1       8.920   1.778  21.213  1.00  0.00    -0.259 OA
HETATM   13  N   UNL     1       8.664   1.560  23.430  1.00  0.00    -0.315 N 
ATOM     14  HN  UNL     1       8.027   1.779  24.196  1.00  0.00     0.170 HD
BRANCH  13  15
HETATM   15  C   UNL     1       9.707   0.962  23.659  1.00  0.00     0.057 A 
HETATM   16  C   UNL     1      10.068  -0.298  23.827  1.00  0.00     0.117 A 
HETATM   17  N   UNL     1      10.908  -1.160  24.059  1.00  0.00    -0.373 N 
HETATM   18  C   UNL     1      11.968  -0.357  24.174  1.00  0.00     0.088 A 
ATOM     19  HN  UNL     1      10.823  -2.173  24.140  1.00  0.00     0.164 HD
HETATM   20  C   UNL     1      12.025   0.890  24.085  1.00  0.00     0.026 A 
HETATM   21  C   UNL     1      11.092   1.775  23.821  1.00  0.00    -0.033 A 
HETATM   22  C   UNL     1      11.183   3.261  23.733  1.00  0.00     0.050 C 
ENDBRANCH  13  15
ENDBRANCH  10  11
ENDBRANCH   1  10
BRANCH   1  23
HETATM   23  C   UNL     1       6.314   4.798  22.174  1.00  0.00    -0.010 C 
BRANCH  23  24
HETATM   24  C   UNL     1       7.080   5.319  22.722  1.00  0.00    -0.025 C 
BRANCH  24  25
HETATM   25  C   UNL     1       7.925   6.334  22.493  1.00  0.00     0.053 C 
BRANCH  25  26
HETATM   26  C   UNL     1       9.081   6.224  23.490  1.00  0.00    -0.033 C 
HETATM   27  C   UNL     1       9.524   6.873  24.070  1.00  0.00     0.007 C 
ENDBRANCH  25  26
ENDBRANCH  24  25
ENDBRANCH  23  24
ENDBRANCH   1  23
TORSDOF 10
ENDMDL
MODEL 3
REMARK VINA RESULT:    -6.177     14.221     16.506
REMARK INTER + INTRA:         -10.976
REMARK INTER:                  -9.542
REMARK INTRA:                  -1.434
REMARK UNBOUND:                -1.187
REMARK  10 active torsions:
REMARK  status: ('A' for Active; 'I' for Inactive)
REMARK    1  A    between atoms: S_2  and  N_5 
REMARK    2  A    between atoms: N_5  and  C_7 
REMARK    3  A    between atoms: C_8  and  C_9 
REMARK    4  A    between atoms: C_9  and  C_15 
REMARK    5  A    between atoms: C_9  and  C_10 
REMARK    6  A    between atoms: C_10  and  C_11 
REMARK    7  A    between atoms: C_11  and  C_12 
REMARK    8  A    between atoms: C_12  and  C_13 
REMARK    9  A    between atoms: C_15  and  C_16 
REMARK       I    between atoms: C_16  and  N_18 
REMARK   10  A    between atoms: N_18  and  C_20 
ROOT
HETATM    1  C   UNL     1      24.307  -1.712  23.584  1.00  0.00     0.108 C 
ENDROOT
BRANCH   1   2
HETATM    2  C   UNL     1      24.268  -2.989  23.660  1.00  0.00     0.011 C 
HETATM    3  C   UNL     1      24.067  -4.038  24.293  1.00  0.00     0.097 C 
BRANCH   3   4
HETATM    4  N   UNL     1      23.591  -5.145  24.393  1.00  0.00    -0.296 N 
ATOM      5  HN  UNL     1      22.712  -5.324  23.906  1.00  0.00     0.177 HD
BRANCH   4   6
HETATM    6  S   UNL     1      24.243  -6.369  25.243  1.00  0.00     0.226 S 
HETATM    7  C   UNL     1      26.007  -6.244  24.998  1.00  0.00     0.186 C 
HETATM    8  O   UNL     1      24.024  -6.248  26.651  1.00  0.00    -0.206 OA
HETATM    9  O   UNL     1      23.854  -7.651  24.754  1.00  0.00    -0.206 OA
ENDBRANCH   4   6
ENDBRANCH   3   4
ENDBRANCH   1   2
BRANCH   1  10
HETATM   10  C   UNL     1      23.824  -1.655  22.513  1.00  0.00    -0.071 C 
BRANCH  10  11
HETATM   11  C   UNL     1      23.316  -1.705  21.263  1.00  0.00     0.289 C 
HETATM   12  O   UNL     1      22.193  -1.912  21.191  1.00  0.00    -0.259 OA
HETATM   13  N   UNL     1      24.223  -1.514  20.326  1.00  0.00    -0.315 N 
ATOM     14  HN  UNL     1      25.194  -1.342  20.588  1.00  0.00     0.170 HD
BRANCH  13  15
HETATM   15  C   UNL     1      23.907  -1.540  19.144  1.00  0.00     0.057 A 
HETATM   16  C   UNL     1      23.350  -0.703  18.287  1.00  0.00     0.117 A 
HETATM   17  N   UNL     1      22.918  -0.424  17.174  1.00  0.00    -0.373 N 
HETATM   18  C   UNL     1      23.196  -1.583  16.573  1.00  0.00     0.088 A 
ATOM     19  HN  UNL     1      22.484   0.427  16.818  1.00  0.00     0.164 HD
HETATM   20  C   UNL     1      23.717  -2.615  17.055  1.00  0.00     0.026 A 
HETATM   21  C   UNL     1      24.176  -2.862  18.258  1.00  0.00    -0.033 A 
HETATM   22  C   UNL     1      24.782  -4.108  18.812  1.00  0.00     0.050 C 
ENDBRANCH  13  15
ENDBRANCH  10  11
ENDBRANCH   1  10
BRANCH   1  23
HETATM   23  C   UNL     1      23.884  -0.541  24.633  1.00  0.00    -0.010 C 
BRANCH  23  24
HETATM   24  C   UNL     1      23.042   0.114  24.495  1.00  0.00    -0.025 C 
BRANCH  24  25
HETATM   25  C   UNL     1      21.828   0.272  25.040  1.00  0.00     0.053 C 
BRANCH  25  26
HETATM   26  C   UNL     1      20.944  -0.889  24.577  1.00  0.00    -0.033 C 
HETATM   27  C   UNL     1      20.381  -1.528  25.054  1.00  0.00     0.007 C 
ENDBRANCH  25  26
ENDBRANCH  24  25
ENDBRANCH  23  24
ENDBRANCH   1  23
TORSDOF 10
ENDMDL
MODEL 4
REMARK VINA RESULT:    -6.109      2.709      6.491
REMARK INTER + INTRA:         -10.867
REMARK INTER:                  -9.396
REMARK INTRA:                  -1.471
REMARK UNBOUND:                -1.187
REMARK  10 active torsions:
REMARK  status: ('A' for Active; 'I' for Inactive)
REMARK    1  A    between atoms: S_2  and  N_5 
REMARK    2  A    between atoms: N_5  and  C_7 
REMARK    3  A    between atoms: C_8  and  C_9 
REMARK    4  A    between atoms: C_9  and  C_15 
REMARK    5  A    between atoms: C_9  and  C_10 
REMARK    6  A    between atoms: C_10  and  C_11 
REMARK    7  A    between atoms: C_11  and  C_12 
REMARK    8  A    between atoms: C_12  and  C_13 
REMARK    9  A    between atoms: C_15  and  C_16 
REMARK       I    between atoms: C_16  and  N_18 
REMARK   10  A    between atoms: N_18  and  C_20 
ROOT
HETATM    1  C   UNL     1       8.204   0.659  22.809  1.00  0.00     0.108 C 
ENDROOT
BRANCH   1   2
HETATM    2  C   UNL     1       7.938   0.760  21.561  1.00  0.00     0.011 C 
HETATM    3  C   UNL     1       8.042   0.364  20.389  1.00  0.00     0.097 C 
BRANCH   3   4
HETATM    4  N   UNL     1       7.562   0.085  19.315  1.00  0.00    -0.296 N 
ATOM      5  HN  UNL     1       8.177   0.116  18.502  1.00  0.00     0.177 HD
BRANCH   4   6
HETATM    6  S   UNL     1       6.010  -0.338  19.068  1.00  0.00     0.226 S 
HETATM    7  C   UNL     1       5.045   1.113  19.455  1.00  0.00     0.186 C 
HETATM    8  O   UNL     1       5.730  -0.653  17.702  1.00  0.00    -0.206 OA
HETATM    9  O   UNL     1       5.569  -1.367  19.951  1.00  0.00    -0.206 OA
ENDBRANCH   4   6
ENDBRANCH   3   4
ENDBRANCH   1   2
BRANCH   1  10
HETATM   10  C   UNL     1       8.107  -0.512  22.844  1.00  0.00    -0.071 C 
BRANCH  10  11
HETATM   11  C   UNL     1       8.062  -1.853  22.993  1.00  0.00     0.289 C 
HETATM   12  O   UNL     1       8.957  -2.324  23.529  1.00  0.00    -0.259 OA
HETATM   13  N   UNL     1       6.978  -2.397  22.476  1.00  0.00    -0.315 N 
ATOM     14  HN  UNL     1       6.278  -1.805  22.028  1.00  0.00     0.170 HD
BRANCH  13  15
HETATM   15  C   UNL     1       6.806  -3.607  22.532  1.00  0.00     0.057 A 
HETATM   16  C   UNL     1       7.318  -4.672  21.939  1.00  0.00     0.117 A 
HETATM   17  N   UNL     1       7.374  -5.882  21.751  1.00  0.00    -0.373 N 
HETATM   18  C   UNL     1       6.435  -6.248  22.625  1.00  0.00     0.088 A 
ATOM     19  HN  UNL     1       7.957  -6.436  21.124  1.00  0.00     0.164 HD
HETATM   20  C   UNL     1       5.726  -5.529  23.367  1.00  0.00     0.026 A 
HETATM   21  C   UNL     1       5.711  -4.229  23.542  1.00  0.00    -0.033 A 
HETATM   22  C   UNL     1       4.846  -3.394  24.424  1.00  0.00     0.050 C 
ENDBRANCH  13  15
ENDBRANCH  10  11
ENDBRANCH   1  10
BRANCH   1  23
HETATM   23  C   UNL     1       9.372   1.317  23.734  1.00  0.00    -0.010 C 
BRANCH  23  24
HETATM   24  C   UNL     1      10.399   1.413  23.428  1.00  0.00    -0.025 C 
BRANCH  24  25
HETATM   25  C   UNL     1      11.596   1.477  24.029  1.00  0.00     0.053 C 
BRANCH  25  26
HETATM   26  C   UNL     1      12.044   0.049  24.348  1.00  0.00    -0.033 C 
HETATM   27  C   UNL     1      12.862  -0.450  24.160  1.00  0.00     0.007 C 
ENDBRANCH  25  26
ENDBRANCH  24  25
ENDBRANCH  23  24
ENDBRANCH   1  23
TORSDOF 10
ENDMDL
MODEL 5
REMARK VINA RESULT:    -6.033      1.917      5.703
REMARK INTER + INTRA:         -10.747
REMARK INTER:                  -9.170
REMARK INTRA:                  -1.577
REMARK UNBOUND:                -1.187
REMARK  10 active torsions:
REMARK  status: ('A' for Active; 'I' for Inactive)
REMARK    1  A    between atoms: S_2  and  N_5 
REMARK    2  A    between atoms: N_5  and  C_7 
REMARK    3  A    between atoms: C_8  and  C_9 
REMARK    4  A    between atoms: C_9  and  C_15 
REMARK    5  A    between atoms: C_9  and  C_10 
REMARK    6  A    between atoms: C_10  and  C_11 
REMARK    7  A    between atoms: C_11  and  C_12 
REMARK    8  A    between atoms: C_12  and  C_13 
REMARK    9  A    between atoms: C_15  and  C_16 
REMARK       I    between atoms: C_16  and  N_18 
REMARK   10  A    between atoms: N_18  and  C_20 
ROOT
HETATM    1  C   UNL     1       8.151   0.446  21.256  1.00  0.00     0.108 C 
ENDROOT
BRANCH   1   2
HETATM    2  C   UNL     1       9.368   0.468  21.652  1.00  0.00     0.011 C 
HETATM    3  C   UNL     1      10.332   1.043  22.185  1.00  0.00     0.097 C 
BRANCH   3   4
HETATM    4  N   UNL     1      11.264   1.064  22.953  1.00  0.00    -0.296 N 
ATOM      5  HN  UNL     1      11.859   1.893  22.950  1.00  0.00     0.177 HD
BRANCH   4   6
HETATM    6  S   UNL     1      11.643  -0.128  23.994  1.00  0.00     0.226 S 
HETATM    7  C   UNL     1      12.043  -1.544  22.983  1.00  0.00     0.186 C 
HETATM    8  O   UNL     1      12.812   0.157  24.765  1.00  0.00    -0.206 OA
HETATM    9  O   UNL     1      10.545  -0.513  24.818  1.00  0.00    -0.206 OA
ENDBRANCH   4   6
ENDBRANCH   3   4
ENDBRANCH   1   2
BRANCH   1  10
HETATM   10  C   UNL     1       7.815  -0.402  21.999  1.00  0.00    -0.071 C 
BRANCH  10  11
HETATM   11  C   UNL     1       7.477  -1.304  22.945  1.00  0.00     0.289 C 
HETATM   12  O   UNL     1       6.455  -1.150  23.436  1.00  0.00    -0.259 OA
HETATM   13  N   UNL     1       8.406  -2.217  23.148  1.00  0.00    -0.315 N 
ATOM     14  HN  UNL     1       9.269  -2.192  22.605  1.00  0.00     0.170 HD
BRANCH  13  15
HETATM   15  C   UNL     1       8.239  -3.096  23.983  1.00  0.00     0.057 A 
HETATM   16  C   UNL     1       8.476  -3.241  25.275  1.00  0.00     0.117 A 
HETATM   17  N   UNL     1       8.462  -3.900  26.309  1.00  0.00    -0.373 N 
HETATM   18  C   UNL     1       7.898  -5.004  25.816  1.00  0.00     0.088 A 
ATOM     19  HN  UNL     1       8.781  -3.675  27.251  1.00  0.00     0.164 HD
HETATM   20  C   UNL     1       7.536  -5.247  24.642  1.00  0.00     0.026 A 
HETATM   21  C   UNL     1       7.561  -4.500  23.564  1.00  0.00    -0.033 A 
HETATM   22  C   UNL     1       7.135  -4.818  22.171  1.00  0.00     0.050 C 
ENDBRANCH  13  15
ENDBRANCH  10  11
ENDBRANCH   1  10
BRANCH   1  23
HETATM   23  C   UNL     1       7.071   1.631  20.974  1.00  0.00    -0.010 C 
BRANCH  23  24
HETATM   24  C   UNL     1       6.021   1.461  20.810  1.00  0.00    -0.025 C 
BRANCH  24  25
HETATM   25  C   UNL     1       5.185   1.453  19.763  1.00  0.00     0.053 C 
BRANCH  25  26
HETATM   26  C   UNL     1       5.921   0.832  18.573  1.00  0.00    -0.033 C 
HETATM   27  C   UNL     1       5.713   0.089  17.975  1.00  0.00     0.007 C 
ENDBRANCH  25  26
ENDBRANCH  24  25
ENDBRANCH  23  24
ENDBRANCH   1  23
TORSDOF 10
ENDMDL
MODEL 6
REMARK VINA RESULT:    -6.021      3.390      7.994
REMARK INTER + INTRA:         -10.728
REMARK INTER:                  -9.073
REMARK INTRA:                  -1.655
REMARK UNBOUND:                -1.187
REMARK  10 active torsions:
REMARK  status: ('A' for Active; 'I' for Inactive)
REMARK    1  A    between atoms: S_2  and  N_5 
REMARK    2  A    between atoms: N_5  and  C_7 
REMARK    3  A    between atoms: C_8  and  C_9 
REMARK    4  A    between atoms: C_9  and  C_15 
REMARK    5  A    between atoms: C_9  and  C_10 
REMARK    6  A    between atoms: C_10  and  C_11 
REMARK    7  A    between atoms: C_11  and  C_12 
REMARK    8  A    between atoms: C_12  and  C_13 
REMARK    9  A    between atoms: C_15  and  C_16 
REMARK       I    between atoms: C_16  and  N_18 
REMARK   10  A    between atoms: N_18  and  C_20 
ROOT
HETATM    1  C   UNL     1       7.413   3.356  22.971  1.00  0.00     0.108 C 
ENDROOT
BRANCH   1   2
HETATM    2  C   UNL     1       6.573   2.583  22.391  1.00  0.00     0.011 C 
HETATM    3  C   UNL     1       5.920   2.234  21.394  1.00  0.00     0.097 C 
BRANCH   3   4
HETATM    4  N   UNL     1       5.509   1.388  20.636  1.00  0.00    -0.296 N 
ATOM      5  HN  UNL     1       4.506   1.368  20.451  1.00  0.00     0.177 HD
BRANCH   4   6
HETATM    6  S   UNL     1       6.433   0.276  19.887  1.00  0.00     0.226 S 
HETATM    7  C   UNL     1       5.772   0.130  18.236  1.00  0.00     0.186 C 
HETATM    8  O   UNL     1       7.793   0.691  19.740  1.00  0.00    -0.206 OA
HETATM    9  O   UNL     1       6.334  -1.016  20.481  1.00  0.00    -0.206 OA
ENDBRANCH   4   6
ENDBRANCH   3   4
ENDBRANCH   1   2
BRANCH   1  10
HETATM   10  C   UNL     1       8.348   2.676  22.757  1.00  0.00    -0.071 C 
BRANCH  10  11
HETATM   11  C   UNL     1       9.481   1.958  22.604  1.00  0.00     0.289 C 
HETATM   12  O   UNL     1      10.098   2.197  21.670  1.00  0.00    -0.259 OA
HETATM   13  N   UNL     1       9.678   1.085  23.571  1.00  0.00    -0.315 N 
ATOM     14  HN  UNL     1       9.005   1.013  24.334  1.00  0.00     0.170 HD
BRANCH  13  15
HETATM   15  C   UNL     1      10.663   0.359  23.559  1.00  0.00     0.057 A 
HETATM   16  C   UNL     1      11.888   0.405  24.054  1.00  0.00     0.117 A 
HETATM   17  N   UNL     1      13.008  -0.068  24.211  1.00  0.00    -0.373 N 
HETATM   18  C   UNL     1      12.827  -1.201  23.530  1.00  0.00     0.088 A 
ATOM     19  HN  UNL     1      13.823   0.293  24.707  1.00  0.00     0.164 HD
HETATM   20  C   UNL     1      11.810  -1.598  22.917  1.00  0.00     0.026 A 
HETATM   21  C   UNL     1      10.621  -1.058  22.787  1.00  0.00    -0.033 A 
HETATM   22  C   UNL     1       9.427  -1.546  22.038  1.00  0.00     0.050 C 
ENDBRANCH  13  15
ENDBRANCH  10  11
ENDBRANCH   1  10
BRANCH   1  23
HETATM   23  C   UNL     1       7.653   4.964  22.892  1.00  0.00    -0.010 C 
BRANCH  23  24
HETATM   24  C   UNL     1       8.619   5.432  22.968  1.00  0.00    -0.025 C 
BRANCH  24  25
HETATM   25  C   UNL     1       9.197   6.359  23.746  1.00  0.00     0.053 C 
BRANCH  25  26
HETATM   26  C   UNL     1      10.562   5.826  24.186  1.00  0.00    -0.033 C 
HETATM   27  C   UNL     1      11.317   5.444  23.698  1.00  0.00     0.007 C 
ENDBRANCH  25  26
ENDBRANCH  24  25
ENDBRANCH  23  24
ENDBRANCH   1  23
TORSDOF 10
ENDMDL
MODEL 7
REMARK VINA RESULT:    -5.969     24.457     28.071
REMARK INTER + INTRA:         -10.645
REMARK INTER:                  -9.191
REMARK INTRA:                  -1.454
REMARK UNBOUND:                -1.187
REMARK  10 active torsions:
REMARK  status: ('A' for Active; 'I' for Inactive)
REMARK    1  A    between atoms: S_2  and  N_5 
REMARK    2  A    between atoms: N_5  and  C_7 
REMARK    3  A    between atoms: C_8  and  C_9 
REMARK    4  A    between atoms: C_9  and  C_15 
REMARK    5  A    between atoms: C_9  and  C_10 
REMARK    6  A    between atoms: C_10  and  C_11 
REMARK    7  A    between atoms: C_11  and  C_12 
REMARK    8  A    between atoms: C_12  and  C_13 
REMARK    9  A    between atoms: C_15  and  C_16 
REMARK       I    between atoms: C_16  and  N_18 
REMARK   10  A    between atoms: N_18  and  C_20 
ROOT
HETATM    1  C   UNL     1       8.412  17.532   1.324  1.00  0.00     0.108 C 
ENDROOT
BRANCH   1   2
HETATM    2  C   UNL     1       8.571  16.284   1.560  1.00  0.00     0.011 C 
HETATM    3  C   UNL     1       9.295  15.286   1.712  1.00  0.00     0.097 C 
BRANCH   3   4
HETATM    4  N   UNL     1       9.615  14.287   2.312  1.00  0.00    -0.296 N 
ATOM      5  HN  UNL     1      10.505  13.854   2.064  1.00  0.00     0.177 HD
BRANCH   4   6
HETATM    6  S   UNL     1       8.736  13.580   3.484  1.00  0.00     0.226 S 
HETATM    7  C   UNL     1       7.208  13.080   2.708  1.00  0.00     0.186 C 
HETATM    8  O   UNL     1       9.339  12.386   3.988  1.00  0.00    -0.206 OA
HETATM    9  O   UNL     1       8.384  14.481   4.532  1.00  0.00    -0.206 OA
ENDBRANCH   4   6
ENDBRANCH   3   4
ENDBRANCH   1   2
BRANCH   1  10
HETATM   10  C   UNL     1       8.915  17.893   2.324  1.00  0.00    -0.071 C 
BRANCH  10  11
HETATM   11  C   UNL     1       9.565  18.203   3.466  1.00  0.00     0.289 C 
HETATM   12  O   UNL     1       9.052  17.873   4.435  1.00  0.00    -0.259 OA
HETATM   13  N   UNL     1      10.693  18.853   3.262  1.00  0.00    -0.315 N 
ATOM     14  HN  UNL     1      10.992  19.063   2.309  1.00  0.00     0.170 HD
BRANCH  13  15
HETATM   15  C   UNL     1      11.385  19.205   4.208  1.00  0.00     0.057 A 
HETATM   16  C   UNL     1      12.361  18.676   4.925  1.00  0.00     0.117 A 
HETATM   17  N   UNL     1      13.175  18.720   5.841  1.00  0.00    -0.373 N 
HETATM   18  C   UNL     1      12.891  19.947   6.281  1.00  0.00     0.088 A 
ATOM     19  HN  UNL     1      13.857  18.033   6.165  1.00  0.00     0.164 HD
HETATM   20  C   UNL     1      12.029  20.754   5.864  1.00  0.00     0.026 A 
HETATM   21  C   UNL     1      11.183  20.665   4.865  1.00  0.00    -0.033 A 
HETATM   22  C   UNL     1      10.155  21.638   4.395  1.00  0.00     0.050 C 
ENDBRANCH  13  15
ENDBRANCH  10  11
ENDBRANCH   1  10
BRANCH   1  23
HETATM   23  C   UNL     1       8.695  18.439   0.003  1.00  0.00    -0.010 C 
BRANCH  23  24
HETATM   24  C   UNL     1       9.083  19.443   0.034  1.00  0.00    -0.025 C 
BRANCH  24  25
HETATM   25  C   UNL     1       8.665  20.664  -0.327  1.00  0.00     0.053 C 
BRANCH  25  26
HETATM   26  C   UNL     1       9.757  21.669   0.045  1.00  0.00    -0.033 C 
HETATM   27  C   UNL     1      10.438  21.685   0.745  1.00  0.00     0.007 C 
ENDBRANCH  25  26
ENDBRANCH  24  25
ENDBRANCH  23  24
ENDBRANCH   1  23
TORSDOF 10
ENDMDL
MODEL 8
REMARK VINA RESULT:    -5.890      3.201      7.011
REMARK INTER + INTRA:         -10.521
REMARK INTER:                  -9.305
REMARK INTRA:                  -1.216
REMARK UNBOUND:                -1.187
REMARK  10 active torsions:
REMARK  status: ('A' for Active; 'I' for Inactive)
REMARK    1  A    between atoms: S_2  and  N_5 
REMARK    2  A    between atoms: N_5  and  C_7 
REMARK    3  A    between atoms: C_8  and  C_9 
REMARK    4  A    between atoms: C_9  and  C_15 
REMARK    5  A    between atoms: C_9  and  C_10 
REMARK    6  A    between atoms: C_10  and  C_11 
REMARK    7  A    between atoms: C_11  and  C_12 
REMARK    8  A    between atoms: C_12  and  C_13 
REMARK    9  A    between atoms: C_15  and  C_16 
REMARK       I    between atoms: C_16  and  N_18 
REMARK   10  A    between atoms: N_18  and  C_20 
ROOT
HETATM    1  C   UNL     1       8.807  -1.578  22.995  1.00  0.00     0.108 C 
ENDROOT
BRANCH   1   2
HETATM    2  C   UNL     1       7.788  -1.100  22.385  1.00  0.00     0.011 C 
HETATM    3  C   UNL     1       6.992  -0.177  22.149  1.00  0.00     0.097 C 
BRANCH   3   4
HETATM    4  N   UNL     1       6.362   0.513  21.382  1.00  0.00    -0.296 N 
ATOM      5  HN  UNL     1       5.841   1.298  21.774  1.00  0.00     0.177 HD
BRANCH   4   6
HETATM    6  S   UNL     1       6.281   0.287  19.773  1.00  0.00     0.226 S 
HETATM    7  C   UNL     1       5.153   1.530  19.165  1.00  0.00     0.186 C 
HETATM    8  O   UNL     1       7.528   0.520  19.114  1.00  0.00    -0.206 OA
HETATM    9  O   UNL     1       5.723  -0.977  19.420  1.00  0.00    -0.206 OA
ENDBRANCH   4   6
ENDBRANCH   3   4
ENDBRANCH   1   2
BRANCH   1  10
HETATM   10  C   UNL     1       8.263  -2.555  23.358  1.00  0.00    -0.071 C 
BRANCH  10  11
HETATM   11  C   UNL     1       7.737  -3.695  23.855  1.00  0.00     0.289 C 
HETATM   12  O   UNL     1       7.991  -4.652  23.280  1.00  0.00    -0.259 OA
HETATM   13  N   UNL     1       7.001  -3.502  24.931  1.00  0.00    -0.315 N 
ATOM     14  HN  UNL     1       6.886  -2.560  25.305  1.00  0.00     0.170 HD
BRANCH  13  15
HETATM   15  C   UNL     1       6.455  -4.447  25.485  1.00  0.00     0.057 A 
HETATM   16  C   UNL     1       6.779  -5.322  26.421  1.00  0.00     0.117 A 
HETATM   17  N   UNL     1       6.529  -6.292  27.127  1.00  0.00    -0.373 N 
HETATM   18  C   UNL     1       5.288  -6.520  26.693  1.00  0.00     0.088 A 
ATOM     19  HN  UNL     1       7.092  -6.775  27.826  1.00  0.00     0.164 HD
HETATM   20  C   UNL     1       4.636  -5.911  25.813  1.00  0.00     0.026 A 
HETATM   21  C   UNL     1       4.946  -4.861  25.089  1.00  0.00    -0.033 A 
HETATM   22  C   UNL     1       4.155  -4.161  24.036  1.00  0.00     0.050 C 
ENDBRANCH  13  15
ENDBRANCH  10  11
ENDBRANCH   1  10
BRANCH   1  23
HETATM   23  C   UNL     1      10.367  -1.737  22.558  1.00  0.00    -0.010 C 
BRANCH  23  24
HETATM   24  C   UNL     1      11.137  -1.026  22.804  1.00  0.00    -0.025 C 
BRANCH  24  25
HETATM   25  C   UNL     1      12.137  -0.938  23.693  1.00  0.00     0.053 C 
BRANCH  25  26
HETATM   26  C   UNL     1      12.085   0.453  24.329  1.00  0.00    -0.033 C 
HETATM   27  C   UNL     1      11.632   1.282  24.082  1.00  0.00     0.007 C 
ENDBRANCH  25  26
ENDBRANCH  24  25
ENDBRANCH  23  24
ENDBRANCH   1  23
TORSDOF 10
ENDMDL
MODEL 9
REMARK VINA RESULT:    -5.791      1.923      4.999
REMARK INTER + INTRA:         -10.364
REMARK INTER:                  -9.020
REMARK INTRA:                  -1.344
REMARK UNBOUND:                -1.187
REMARK  10 active torsions:
REMARK  status: ('A' for Active; 'I' for Inactive)
REMARK    1  A    between atoms: S_2  and  N_5 
REMARK    2  A    between atoms: N_5  and  C_7 
REMARK    3  A    between atoms: C_8  and  C_9 
REMARK    4  A    between atoms: C_9  and  C_15 
REMARK    5  A    between atoms: C_9  and  C_10 
REMARK    6  A    between atoms: C_10  and  C_11 
REMARK    7  A    between atoms: C_11  and  C_12 
REMARK    8  A    between atoms: C_12  and  C_13 
REMARK    9  A    between atoms: C_15  and  C_16 
REMARK       I    between atoms: C_16  and  N_18 
REMARK   10  A    between atoms: N_18  and  C_20 
ROOT
HETATM    1  C   UNL     1       8.257   0.551  21.112  1.00  0.00     0.108 C 
ENDROOT
BRANCH   1   2
HETATM    2  C   UNL     1       9.447   0.630  21.576  1.00  0.00     0.011 C 
HETATM    3  C   UNL     1      10.317   1.197  22.258  1.00  0.00     0.097 C 
BRANCH   3   4
HETATM    4  N   UNL     1      11.210   1.176  23.072  1.00  0.00    -0.296 N 
ATOM      5  HN  UNL     1      11.797   2.006  23.147  1.00  0.00     0.177 HD
BRANCH   4   6
HETATM    6  S   UNL     1      11.547  -0.076  24.056  1.00  0.00     0.226 S 
HETATM    7  C   UNL     1      11.962  -1.439  22.980  1.00  0.00     0.186 C 
HETATM    8  O   UNL     1      12.697   0.154  24.874  1.00  0.00    -0.206 OA
HETATM    9  O   UNL     1      10.422  -0.493  24.826  1.00  0.00    -0.206 OA
ENDBRANCH   4   6
ENDBRANCH   3   4
ENDBRANCH   1   2
BRANCH   1  10
HETATM   10  C   UNL     1       8.013  -0.481  21.621  1.00  0.00    -0.071 C 
BRANCH  10  11
HETATM   11  C   UNL     1       7.713  -1.712  22.088  1.00  0.00     0.289 C 
HETATM   12  O   UNL     1       8.588  -2.301  22.531  1.00  0.00    -0.259 OA
HETATM   13  N   UNL     1       6.443  -2.029  21.939  1.00  0.00    -0.315 N 
ATOM     14  HN  UNL     1       5.800  -1.361  21.512  1.00  0.00     0.170 HD
BRANCH  13  15
HETATM   15  C   UNL     1       6.029  -3.118  22.311  1.00  0.00     0.057 A 
HETATM   16  C   UNL     1       5.945  -4.333  21.797  1.00  0.00     0.117 A 
HETATM   17  N   UNL     1       5.617  -5.513  21.860  1.00  0.00    -0.373 N 
HETATM   18  C   UNL     1       5.117  -5.500  23.097  1.00  0.00     0.088 A 
ATOM     19  HN  UNL     1       5.701  -6.269  21.180  1.00  0.00     0.164 HD
HETATM   20  C   UNL     1       5.016  -4.540  23.896  1.00  0.00     0.026 A 
HETATM   21  C   UNL     1       5.395  -3.289  23.786  1.00  0.00    -0.033 A 
HETATM   22  C   UNL     1       5.252  -2.160  24.750  1.00  0.00     0.050 C 
ENDBRANCH  13  15
ENDBRANCH  10  11
ENDBRANCH   1  10
BRANCH   1  23
HETATM   23  C   UNL     1       7.038   1.628  21.040  1.00  0.00    -0.010 C 
BRANCH  23  24
HETATM   24  C   UNL     1       6.010   1.363  20.865  1.00  0.00    -0.025 C 
BRANCH  24  25
HETATM   25  C   UNL     1       5.174   1.331  19.817  1.00  0.00     0.053 C 
BRANCH  25  26
HETATM   26  C   UNL     1       5.955   0.825  18.602  1.00  0.00    -0.033 C 
HETATM   27  C   UNL     1       5.783   0.123  17.945  1.00  0.00     0.007 C 
ENDBRANCH  25  26
ENDBRANCH  24  25
ENDBRANCH  23  24
ENDBRANCH   1  23
TORSDOF 10
ENDMDL
