REMARK  10 active torsions:
REMARK  status: ('A' for Active; 'I' for Inactive)
REMARK    1  A    between atoms: S_2  and  N_5 
REMARK    2  A    between atoms: N_5  and  C_7 
REMARK    3  A    between atoms: C_8  and  C_9 
REMARK    4  A    between atoms: C_9  and  C_15 
REMARK    5  A    between atoms: C_9  and  C_10 
REMARK    6  A    between atoms: C_10  and  C_11 
REMARK    7  A    between atoms: C_11  and  C_12 
REMARK    8  A    between atoms: C_12  and  C_13 
REMARK    9  A    between atoms: C_15  and  C_16 
REMARK       I    between atoms: C_16  and  N_18 
REMARK   10  A    between atoms: N_18  and  C_20 
ROOT
HETATM    1  C   UNL     1      10.309  -1.100  23.273  1.00  0.00     0.109 C 
ENDROOT
BRANCH   1   2
HETATM    2  C   UNL     1       9.424  -1.956  23.460  1.00  0.00     0.011 C 
HETATM    3  C   UNL     1       8.960  -2.932  24.145  1.00  0.00     0.097 C 
BRANCH   3   4
HETATM    4  N   UNL     1       8.072  -3.539  24.668  1.00  0.00    -0.296 N 
ATOM      5  HN  UNL     1       7.179  -3.586  24.177  1.00  0.00     0.177 HD
BRANCH   4   6
HETATM    6  S   UNL     1       8.182  -4.303  26.118  1.00  0.00     0.226 S 
HETATM    7  C   UNL     1       6.623  -4.864  26.462  1.00  0.00     0.186 C 
HETATM    8  O   UNL     1       9.037  -5.472  26.052  1.00  0.00    -0.206 OA
HETATM    9  O   UNL     1       8.583  -3.427  27.163  1.00  0.00    -0.206 OA
ENDBRANCH   4   6
ENDBRANCH   3   4
ENDBRANCH   1   2
BRANCH   1  10
HETATM   10  C   UNL     1       9.738  -0.567  22.336  1.00  0.00    -0.071 C 
BRANCH  10  11
HETATM   11  C   UNL     1       9.078   0.040  21.379  1.00  0.00     0.289 C 
HETATM   12  O   UNL     1       9.574   0.987  20.982  1.00  0.00    -0.259 OA
HETATM   13  N   UNL     1       7.935  -0.550  21.091  1.00  0.00    -0.315 N 
ATOM     14  HN  UNL     1       7.642  -1.361  21.636  1.00  0.00     0.170 HD
BRANCH  13  15
HETATM   15  C   UNL     1       7.197  -0.136  20.159  1.00  0.00     0.057 A 
HETATM   16  C   UNL     1       7.248  -0.071  18.861  1.00  0.00     0.117 A 
HETATM   17  N   UNL     1       6.721   0.300  17.810  1.00  0.00    -0.373 N 
HETATM   18  C   UNL     1       5.619   0.899  18.222  1.00  0.00     0.088 A 
ATOM     19  HN  UNL     1       7.055   0.175  16.854  1.00  0.00     0.164 HD
HETATM   20  C   UNL     1       5.223   1.006  19.443  1.00  0.00     0.026 A 
HETATM   21  C   UNL     1       5.780   0.584  20.555  1.00  0.00    -0.033 A 
HETATM   22  C   UNL     1       5.349   0.686  21.920  1.00  0.00     0.050 C 
ENDBRANCH  13  15
ENDBRANCH  10  11
ENDBRANCH   1  10
BRANCH   1  23
HETATM   23  C   UNL     1      11.043   0.012  24.312  1.00  0.00    -0.006 C 
BRANCH  23  24
HETATM   24  C   UNL     1      12.107   0.281  24.263  1.00  0.00    -0.002 C 
BRANCH  24  25
HETATM   25  C   UNL     1      13.149  -0.153  23.498  1.00  0.00    -0.001 C 
BRANCH  25  26
HETATM   26  C   UNL     1      12.772  -1.253  22.641  1.00  0.00    -0.010 C 
HETATM   27  C   UNL     1      11.860  -1.762  22.486  1.00  0.00     0.011 C 
ENDBRANCH  25  26
ENDBRANCH  24  25
ENDBRANCH  23  24
ENDBRANCH   1  23
TORSDOF 10
