stable:False satoms:9 tatoms:24 sratio:0.375
  -OEChem-07092417493D

 24 24  0     1  0  0  0  0  0999 V2000
    6.6232   -4.8638   26.4622 C   0  0  0  0  0  0  0  0  0  0  0  0
    8.1822   -4.3034   26.1179 S   0  0  0  0  0  0  0  0  0  0  0  0
    9.0368   -5.4720   26.0517 O   0  0  0  0  0  0  0  0  0  0  0  0
    8.5834   -3.4272   27.1626 O   0  0  0  0  0  0  0  0  0  0  0  0
    8.0722   -3.5387   24.6680 N   0  0  0  0  0  0  0  0  0  0  0  0
    8.9596   -2.9321   24.1445 C   0  0  0  0  0  0  0  0  0  0  0  0
    9.4243   -1.9558   23.4602 C   0  0  0  0  0  0  0  0  0  0  0  0
   10.3088   -1.1000   23.2734 C   0  0  2  0  0  0  0  0  0  0  0  0
   11.0425    0.0122   24.3117 C   0  0  0  0  0  0  0  0  0  0  0  0
   12.1073    0.2814   24.2627 C   0  0  0  0  0  0  0  0  0  0  0  0
   13.1495   -0.1530   23.4981 C   0  0  0  0  0  0  0  0  0  0  0  0
   12.7716   -1.2533   22.6414 C   0  0  0  0  0  0  0  0  0  0  0  0
   11.8602   -1.7615   22.4859 C   0  0  0  0  0  0  0  0  0  0  0  0
    9.7383   -0.5673   22.3357 C   0  0  0  0  0  0  0  0  0  0  0  0
    9.0781    0.0402   21.3790 C   0  0  0  0  0  0  0  0  0  0  0  0
    9.5741    0.9865   20.9818 O   0  0  0  0  0  0  0  0  0  0  0  0
    7.9350   -0.5498   21.0911 N   0  0  0  0  0  0  0  0  0  0  0  0
    7.1972   -0.1361   20.1591 C   0  0  0  0  0  0  0  0  0  0  0  0
    7.2485   -0.0711   18.8606 C   0  0  0  0  0  0  0  0  0  0  0  0
    6.7212    0.2998   17.8102 N   0  0  0  0  0  0  0  0  0  0  0  0
    5.6188    0.8992   18.2216 C   0  0  0  0  0  0  0  0  0  0  0  0
    5.2227    1.0061   19.4429 C   0  0  0  0  0  0  0  0  0  0  0  0
    5.7796    0.5837   20.5545 C   0  0  0  0  0  0  0  0  0  0  0  0
    5.3489    0.6859   21.9199 C   0  0  0  0  0  0  0  0  0  0  0  0
 20 21  2  0  0  0  0
 19 20  1  0  0  0  0
 21 22  1  0  0  0  0
 18 19  2  0  0  0  0
 22 23  2  0  0  0  0
 18 23  1  0  0  0  0
 17 18  1  0  0  0  0
 23 24  1  0  0  0  0
 15 16  2  0  0  0  0
 15 17  1  0  0  0  0
 14 15  1  0  0  0  0
  8 14  1  0  0  0  0
 12 13  2  0  0  0  0
 11 12  1  0  0  0  0
  7  8  1  0  0  0  0
  8  9  1  0  0  0  0
  6  7  2  3  0  0  0
 10 11  1  0  0  0  0
  5  6  1  0  0  0  0
  9 10  2  0  0  0  0
  2  5  1  0  0  0  0
  2  3  2  0  0  0  0
  1  2  1  0  0  0  0
  2  4  2  0  0  0  0
M  END
> <Shapegauss>
-285.862732

$$$$
