MODEL 1
REMARK VINA RESULT:    -6.343      0.000      0.000
REMARK INTER + INTRA:         -11.085
REMARK INTER:                 -10.051
REMARK INTRA:                  -1.033
REMARK UNBOUND:                -1.033
REMARK  10 active torsions:
REMARK  status: ('A' for Active; 'I' for Inactive)
REMARK    1  A    between atoms: S_2  and  N_5 
REMARK    2  A    between atoms: N_5  and  C_7 
REMARK    3  A    between atoms: C_8  and  C_9 
REMARK    4  A    between atoms: C_9  and  C_15 
REMARK    5  A    between atoms: C_9  and  C_10 
REMARK    6  A    between atoms: C_10  and  C_11 
REMARK    7  A    between atoms: C_11  and  C_12 
REMARK    8  A    between atoms: C_12  and  C_13 
REMARK    9  A    between atoms: C_15  and  C_16 
REMARK       I    between atoms: C_16  and  N_18 
REMARK   10  A    between atoms: N_18  and  C_20 
ROOT
HETATM    1  C   UNL     1       9.398  -1.420  23.409  1.00  0.00     0.109 C 
ENDROOT
BRANCH   1   2
HETATM    2  C   UNL     1       8.603  -2.379  23.396  1.00  0.00     0.011 C 
HETATM    3  C   UNL     1       8.177  -3.451  22.843  1.00  0.00     0.097 C 
BRANCH   3   4
HETATM    4  N   UNL     1       7.766  -4.574  22.873  1.00  0.00    -0.296 N 
ATOM      5  HN  UNL     1       8.439  -5.319  23.054  1.00  0.00     0.177 HD
BRANCH   4   6
HETATM    6  S   UNL     1       6.198  -5.007  22.643  1.00  0.00     0.226 S 
HETATM    7  C   UNL     1       5.363  -3.567  22.338  1.00  0.00     0.186 C 
HETATM    8  O   UNL     1       6.031  -5.839  21.468  1.00  0.00    -0.206 OA
HETATM    9  O   UNL     1       5.630  -5.617  23.795  1.00  0.00    -0.206 OA
ENDBRANCH   4   6
ENDBRANCH   3   4
ENDBRANCH   1   2
BRANCH   1  10
HETATM   10  C   UNL     1       8.906  -0.868  22.439  1.00  0.00    -0.071 C 
BRANCH  10  11
HETATM   11  C   UNL     1       8.425  -0.315  21.351  1.00  0.00     0.289 C 
HETATM   12  O   UNL     1       9.176   0.304  20.756  1.00  0.00    -0.259 OA
HETATM   13  N   UNL     1       7.140  -0.553  21.181  1.00  0.00    -0.315 N 
ATOM     14  HN  UNL     1       6.632  -1.078  21.892  1.00  0.00     0.170 HD
BRANCH  13  15
HETATM   15  C   UNL     1       6.525  -0.146  20.161  1.00  0.00     0.057 A 
HETATM   16  C   UNL     1       6.277  -0.582  18.961  1.00  0.00     0.117 A 
HETATM   17  N   UNL     1       5.781  -0.372  17.852  1.00  0.00    -0.373 N 
HETATM   18  C   UNL     1       5.302   0.853  17.965  1.00  0.00     0.088 A 
ATOM     19  HN  UNL     1       5.750  -0.993  17.042  1.00  0.00     0.164 HD
HETATM   20  C   UNL     1       5.340   1.589  19.021  1.00  0.00     0.026 A 
HETATM   21  C   UNL     1       5.848   1.345  20.207  1.00  0.00    -0.033 A 
HETATM   22  C   UNL     1       5.891   2.149  21.396  1.00  0.00     0.050 C 
ENDBRANCH  13  15
ENDBRANCH  10  11
ENDBRANCH   1  10
BRANCH   1  23
HETATM   23  C   UNL     1       9.839  -0.334  24.627  1.00  0.00    -0.006 C 
BRANCH  23  24
HETATM   24  C   UNL     1      10.880  -0.079  24.867  1.00  0.00    -0.002 C 
BRANCH  24  25
HETATM   25  C   UNL     1      11.905   0.454  24.143  1.00  0.00    -0.001 C 
BRANCH  25  26
HETATM   26  C   UNL     1      13.083  -0.381  24.175  1.00  0.00    -0.010 C 
HETATM   27  C   UNL     1      13.379  -1.225  23.614  1.00  0.00     0.011 C 
ENDBRANCH  25  26
ENDBRANCH  24  25
ENDBRANCH  23  24
ENDBRANCH   1  23
TORSDOF 10
ENDMDL
MODEL 2
REMARK VINA RESULT:    -6.267     14.096     16.131
REMARK INTER + INTRA:         -10.965
REMARK INTER:                  -9.458
REMARK INTRA:                  -1.507
REMARK UNBOUND:                -1.033
REMARK  10 active torsions:
REMARK  status: ('A' for Active; 'I' for Inactive)
REMARK    1  A    between atoms: S_2  and  N_5 
REMARK    2  A    between atoms: N_5  and  C_7 
REMARK    3  A    between atoms: C_8  and  C_9 
REMARK    4  A    between atoms: C_9  and  C_15 
REMARK    5  A    between atoms: C_9  and  C_10 
REMARK    6  A    between atoms: C_10  and  C_11 
REMARK    7  A    between atoms: C_11  and  C_12 
REMARK    8  A    between atoms: C_12  and  C_13 
REMARK    9  A    between atoms: C_15  and  C_16 
REMARK       I    between atoms: C_16  and  N_18 
REMARK   10  A    between atoms: N_18  and  C_20 
ROOT
HETATM    1  C   UNL     1      24.343  -1.858  23.582  1.00  0.00     0.109 C 
ENDROOT
BRANCH   1   2
HETATM    2  C   UNL     1      24.032  -3.038  23.832  1.00  0.00     0.011 C 
HETATM    3  C   UNL     1      24.264  -4.290  23.707  1.00  0.00     0.097 C 
BRANCH   3   4
HETATM    4  N   UNL     1      24.329  -5.408  24.128  1.00  0.00    -0.296 N 
ATOM      5  HN  UNL     1      24.525  -6.153  23.459  1.00  0.00     0.177 HD
BRANCH   4   6
HETATM    6  S   UNL     1      24.126  -5.834  25.701  1.00  0.00     0.226 S 
HETATM    7  C   UNL     1      25.509  -5.284  26.508  1.00  0.00     0.186 C 
HETATM    8  O   UNL     1      22.997  -5.156  26.306  1.00  0.00    -0.206 OA
HETATM    9  O   UNL     1      24.038  -7.242  25.874  1.00  0.00    -0.206 OA
ENDBRANCH   4   6
ENDBRANCH   3   4
ENDBRANCH   1   2
BRANCH   1  10
HETATM   10  C   UNL     1      23.850  -1.857  22.467  1.00  0.00    -0.071 C 
BRANCH  10  11
HETATM   11  C   UNL     1      23.341  -1.782  21.260  1.00  0.00     0.289 C 
HETATM   12  O   UNL     1      22.206  -1.883  21.213  1.00  0.00    -0.259 OA
HETATM   13  N   UNL     1      24.259  -1.647  20.324  1.00  0.00    -0.315 N 
ATOM     14  HN  UNL     1      25.245  -1.658  20.588  1.00  0.00     0.170 HD
BRANCH  13  15
HETATM   15  C   UNL     1      23.949  -1.504  19.113  1.00  0.00     0.057 A 
HETATM   16  C   UNL     1      23.465  -0.561  18.359  1.00  0.00     0.117 A 
HETATM   17  N   UNL     1      23.059  -0.214  17.247  1.00  0.00    -0.373 N 
HETATM   18  C   UNL     1      23.176  -1.315  16.528  1.00  0.00     0.088 A 
ATOM     19  HN  UNL     1      22.715   0.701  16.954  1.00  0.00     0.164 HD
HETATM   20  C   UNL     1      23.645  -2.443  16.936  1.00  0.00     0.026 A 
HETATM   21  C   UNL     1      24.100  -2.795  18.117  1.00  0.00    -0.033 A 
HETATM   22  C   UNL     1      24.634  -4.042  18.585  1.00  0.00     0.050 C 
ENDBRANCH  13  15
ENDBRANCH  10  11
ENDBRANCH   1  10
BRANCH   1  23
HETATM   23  C   UNL     1      24.072  -0.417  24.421  1.00  0.00    -0.006 C 
BRANCH  23  24
HETATM   24  C   UNL     1      23.147   0.171  24.340  1.00  0.00    -0.002 C 
BRANCH  24  25
HETATM   25  C   UNL     1      22.073   0.346  25.162  1.00  0.00    -0.001 C 
BRANCH  25  26
HETATM   26  C   UNL     1      21.189  -0.796  25.152  1.00  0.00    -0.010 C 
HETATM   27  C   UNL     1      20.571  -1.218  24.408  1.00  0.00     0.011 C 
ENDBRANCH  25  26
ENDBRANCH  24  25
ENDBRANCH  23  24
ENDBRANCH   1  23
TORSDOF 10
ENDMDL
MODEL 3
REMARK VINA RESULT:    -6.197      1.604      2.161
REMARK INTER + INTRA:         -10.853
REMARK INTER:                  -9.729
REMARK INTRA:                  -1.124
REMARK UNBOUND:                -1.033
REMARK  10 active torsions:
REMARK  status: ('A' for Active; 'I' for Inactive)
REMARK    1  A    between atoms: S_2  and  N_5 
REMARK    2  A    between atoms: N_5  and  C_7 
REMARK    3  A    between atoms: C_8  and  C_9 
REMARK    4  A    between atoms: C_9  and  C_15 
REMARK    5  A    between atoms: C_9  and  C_10 
REMARK    6  A    between atoms: C_10  and  C_11 
REMARK    7  A    between atoms: C_11  and  C_12 
REMARK    8  A    between atoms: C_12  and  C_13 
REMARK    9  A    between atoms: C_15  and  C_16 
REMARK       I    between atoms: C_16  and  N_18 
REMARK   10  A    between atoms: N_18  and  C_20 
ROOT
HETATM    1  C   UNL     1      10.279  -1.783  22.751  1.00  0.00     0.109 C 
ENDROOT
BRANCH   1   2
HETATM    2  C   UNL     1       9.302  -1.940  23.507  1.00  0.00     0.011 C 
HETATM    3  C   UNL     1       8.168  -2.482  23.746  1.00  0.00     0.097 C 
BRANCH   3   4
HETATM    4  N   UNL     1       7.372  -3.015  24.462  1.00  0.00    -0.296 N 
ATOM      5  HN  UNL     1       6.497  -2.522  24.645  1.00  0.00     0.177 HD
BRANCH   4   6
HETATM    6  S   UNL     1       7.580  -4.481  25.172  1.00  0.00     0.226 S 
HETATM    7  C   UNL     1       8.361  -4.173  26.642  1.00  0.00     0.186 C 
HETATM    8  O   UNL     1       6.315  -5.110  25.500  1.00  0.00    -0.206 OA
HETATM    9  O   UNL     1       8.403  -5.345  24.401  1.00  0.00    -0.206 OA
ENDBRANCH   4   6
ENDBRANCH   3   4
ENDBRANCH   1   2
BRANCH   1  10
HETATM   10  C   UNL     1       9.695  -1.032  21.986  1.00  0.00    -0.071 C 
BRANCH  10  11
HETATM   11  C   UNL     1       9.019  -0.209  21.221  1.00  0.00     0.289 C 
HETATM   12  O   UNL     1       9.551   0.772  20.986  1.00  0.00    -0.259 OA
HETATM   13  N   UNL     1       7.824  -0.667  20.906  1.00  0.00    -0.315 N 
ATOM     14  HN  UNL     1       7.512  -1.556  21.298  1.00  0.00     0.170 HD
BRANCH  13  15
HETATM   15  C   UNL     1       7.059  -0.034  20.133  1.00  0.00     0.057 A 
HETATM   16  C   UNL     1       6.757  -0.049  18.868  1.00  0.00     0.117 A 
HETATM   17  N   UNL     1       6.129   0.456  17.935  1.00  0.00    -0.373 N 
HETATM   18  C   UNL     1       5.495   1.460  18.510  1.00  0.00     0.088 A 
ATOM     19  HN  UNL     1       6.105   0.168  16.956  1.00  0.00     0.164 HD
HETATM   20  C   UNL     1       5.533   1.768  19.760  1.00  0.00     0.026 A 
HETATM   21  C   UNL     1       6.186   1.207  20.752  1.00  0.00    -0.033 A 
HETATM   22  C   UNL     1       6.233   1.530  22.149  1.00  0.00     0.050 C 
ENDBRANCH  13  15
ENDBRANCH  10  11
ENDBRANCH   1  10
BRANCH   1  23
HETATM   23  C   UNL     1      11.872  -1.306  23.048  1.00  0.00    -0.006 C 
BRANCH  23  24
HETATM   24  C   UNL     1      12.190  -0.774  23.955  1.00  0.00    -0.002 C 
BRANCH  24  25
HETATM   25  C   UNL     1      12.471   0.532  24.225  1.00  0.00    -0.001 C 
BRANCH  25  26
HETATM   26  C   UNL     1      11.346   1.397  23.955  1.00  0.00    -0.010 C 
HETATM   27  C   UNL     1      11.263   2.437  23.793  1.00  0.00     0.011 C 
ENDBRANCH  25  26
ENDBRANCH  24  25
ENDBRANCH  23  24
ENDBRANCH   1  23
TORSDOF 10
ENDMDL
MODEL 4
REMARK VINA RESULT:    -6.134      1.571      2.429
REMARK INTER + INTRA:         -10.753
REMARK INTER:                  -9.054
REMARK INTRA:                  -1.698
REMARK UNBOUND:                -1.033
REMARK  10 active torsions:
REMARK  status: ('A' for Active; 'I' for Inactive)
REMARK    1  A    between atoms: S_2  and  N_5 
REMARK    2  A    between atoms: N_5  and  C_7 
REMARK    3  A    between atoms: C_8  and  C_9 
REMARK    4  A    between atoms: C_9  and  C_15 
REMARK    5  A    between atoms: C_9  and  C_10 
REMARK    6  A    between atoms: C_10  and  C_11 
REMARK    7  A    between atoms: C_11  and  C_12 
REMARK    8  A    between atoms: C_12  and  C_13 
REMARK    9  A    between atoms: C_15  and  C_16 
REMARK       I    between atoms: C_16  and  N_18 
REMARK   10  A    between atoms: N_18  and  C_20 
ROOT
HETATM    1  C   UNL     1       9.780  -1.827  22.207  1.00  0.00     0.109 C 
ENDROOT
BRANCH   1   2
HETATM    2  C   UNL     1       8.813  -2.578  22.435  1.00  0.00     0.011 C 
HETATM    3  C   UNL     1       7.818  -2.902  23.171  1.00  0.00     0.097 C 
BRANCH   3   4
HETATM    4  N   UNL     1       6.692  -3.271  23.338  1.00  0.00    -0.296 N 
ATOM      5  HN  UNL     1       6.313  -3.217  24.284  1.00  0.00     0.177 HD
BRANCH   4   6
HETATM    6  S   UNL     1       5.710  -3.858  22.160  1.00  0.00     0.226 S 
HETATM    7  C   UNL     1       6.463  -5.263  21.592  1.00  0.00     0.186 C 
HETATM    8  O   UNL     1       4.419  -4.262  22.680  1.00  0.00    -0.206 OA
HETATM    9  O   UNL     1       5.570  -2.955  21.071  1.00  0.00    -0.206 OA
ENDBRANCH   4   6
ENDBRANCH   3   4
ENDBRANCH   1   2
BRANCH   1  10
HETATM   10  C   UNL     1       9.106  -0.945  21.702  1.00  0.00    -0.071 C 
BRANCH  10  11
HETATM   11  C   UNL     1       8.416   0.054  21.206  1.00  0.00     0.289 C 
HETATM   12  O   UNL     1       9.031   0.980  20.950  1.00  0.00    -0.259 OA
HETATM   13  N   UNL     1       7.124  -0.198  21.140  1.00  0.00    -0.315 N 
ATOM     14  HN  UNL     1       6.770  -1.083  21.504  1.00  0.00     0.170 HD
BRANCH  13  15
HETATM   15  C   UNL     1       6.317   0.627  20.637  1.00  0.00     0.057 A 
HETATM   16  C   UNL     1       5.743   1.737  20.996  1.00  0.00     0.117 A 
HETATM   17  N   UNL     1       4.944   2.637  20.728  1.00  0.00    -0.373 N 
HETATM   18  C   UNL     1       4.476   2.281  19.547  1.00  0.00     0.088 A 
ATOM     19  HN  UNL     1       4.703   3.458  21.284  1.00  0.00     0.164 HD
HETATM   20  C   UNL     1       4.835   1.247  18.867  1.00  0.00     0.026 A 
HETATM   21  C   UNL     1       5.707   0.307  19.151  1.00  0.00    -0.033 A 
HETATM   22  C   UNL     1       6.126  -0.844  18.403  1.00  0.00     0.050 C 
ENDBRANCH  13  15
ENDBRANCH  10  11
ENDBRANCH   1  10
BRANCH   1  23
HETATM   23  C   UNL     1      11.006  -1.228  23.203  1.00  0.00    -0.006 C 
BRANCH  23  24
HETATM   24  C   UNL     1      10.994  -0.222  23.644  1.00  0.00    -0.002 C 
BRANCH  24  25
HETATM   25  C   UNL     1      10.692   0.254  24.886  1.00  0.00    -0.001 C 
BRANCH  25  26
HETATM   26  C   UNL     1       9.820   1.403  24.830  1.00  0.00    -0.010 C 
HETATM   27  C   UNL     1       8.777   1.507  24.703  1.00  0.00     0.011 C 
ENDBRANCH  25  26
ENDBRANCH  24  25
ENDBRANCH  23  24
ENDBRANCH   1  23
TORSDOF 10
ENDMDL
MODEL 5
REMARK VINA RESULT:    -5.921      3.098      6.987
REMARK INTER + INTRA:         -10.416
REMARK INTER:                  -8.760
REMARK INTRA:                  -1.656
REMARK UNBOUND:                -1.033
REMARK  10 active torsions:
REMARK  status: ('A' for Active; 'I' for Inactive)
REMARK    1  A    between atoms: S_2  and  N_5 
REMARK    2  A    between atoms: N_5  and  C_7 
REMARK    3  A    between atoms: C_8  and  C_9 
REMARK    4  A    between atoms: C_9  and  C_15 
REMARK    5  A    between atoms: C_9  and  C_10 
REMARK    6  A    between atoms: C_10  and  C_11 
REMARK    7  A    between atoms: C_11  and  C_12 
REMARK    8  A    between atoms: C_12  and  C_13 
REMARK    9  A    between atoms: C_15  and  C_16 
REMARK       I    between atoms: C_16  and  N_18 
REMARK   10  A    between atoms: N_18  and  C_20 
ROOT
HETATM    1  C   UNL     1       7.885   0.263  21.275  1.00  0.00     0.109 C 
ENDROOT
BRANCH   1   2
HETATM    2  C   UNL     1       9.098   0.357  21.543  1.00  0.00     0.011 C 
HETATM    3  C   UNL     1      10.059   0.994  22.097  1.00  0.00     0.097 C 
BRANCH   3   4
HETATM    4  N   UNL     1      11.072   1.054  22.731  1.00  0.00    -0.296 N 
ATOM      5  HN  UNL     1      11.738   1.788  22.488  1.00  0.00     0.177 HD
BRANCH   4   6
HETATM    6  S   UNL     1      11.472   0.043  23.962  1.00  0.00     0.226 S 
HETATM    7  C   UNL     1      10.318   0.312  25.171  1.00  0.00     0.186 C 
HETATM    8  O   UNL     1      11.354  -1.350  23.580  1.00  0.00    -0.206 OA
HETATM    9  O   UNL     1      12.757   0.326  24.499  1.00  0.00    -0.206 OA
ENDBRANCH   4   6
ENDBRANCH   3   4
ENDBRANCH   1   2
BRANCH   1  10
HETATM   10  C   UNL     1       7.633  -0.479  22.210  1.00  0.00    -0.071 C 
BRANCH  10  11
HETATM   11  C   UNL     1       7.422  -1.248  23.252  1.00  0.00     0.289 C 
HETATM   12  O   UNL     1       6.501  -0.977  23.868  1.00  0.00    -0.259 OA
HETATM   13  N   UNL     1       8.353  -2.168  23.406  1.00  0.00    -0.315 N 
ATOM     14  HN  UNL     1       9.149  -2.182  22.768  1.00  0.00     0.170 HD
BRANCH  13  15
HETATM   15  C   UNL     1       8.282  -3.029  24.321  1.00  0.00     0.057 A 
HETATM   16  C   UNL     1       8.576  -3.101  25.586  1.00  0.00     0.117 A 
HETATM   17  N   UNL     1       8.641  -3.788  26.608  1.00  0.00    -0.373 N 
HETATM   18  C   UNL     1       8.226  -4.973  26.201  1.00  0.00     0.088 A 
ATOM     19  HN  UNL     1       8.944  -3.508  27.542  1.00  0.00     0.164 HD
HETATM   20  C   UNL     1       7.824  -5.271  25.014  1.00  0.00     0.026 A 
HETATM   21  C   UNL     1       7.734  -4.524  23.937  1.00  0.00    -0.033 A 
HETATM   22  C   UNL     1       7.281  -4.837  22.612  1.00  0.00     0.050 C 
ENDBRANCH  13  15
ENDBRANCH  10  11
ENDBRANCH   1  10
BRANCH   1  23
HETATM   23  C   UNL     1       6.690   1.430  21.022  1.00  0.00    -0.006 C 
BRANCH  23  24
HETATM   24  C   UNL     1       5.750   1.233  20.490  1.00  0.00    -0.002 C 
BRANCH  24  25
HETATM   25  C   UNL     1       5.439   0.523  19.368  1.00  0.00    -0.001 C 
BRANCH  25  26
HETATM   26  C   UNL     1       6.223   0.939  18.228  1.00  0.00    -0.010 C 
HETATM   27  C   UNL     1       5.996   1.512  17.371  1.00  0.00     0.011 C 
ENDBRANCH  25  26
ENDBRANCH  24  25
ENDBRANCH  23  24
ENDBRANCH   1  23
TORSDOF 10
ENDMDL
MODEL 6
REMARK VINA RESULT:    -5.897      2.883      5.556
REMARK INTER + INTRA:         -10.377
REMARK INTER:                  -8.817
REMARK INTRA:                  -1.560
REMARK UNBOUND:                -1.033
REMARK  10 active torsions:
REMARK  status: ('A' for Active; 'I' for Inactive)
REMARK    1  A    between atoms: S_2  and  N_5 
REMARK    2  A    between atoms: N_5  and  C_7 
REMARK    3  A    between atoms: C_8  and  C_9 
REMARK    4  A    between atoms: C_9  and  C_15 
REMARK    5  A    between atoms: C_9  and  C_10 
REMARK    6  A    between atoms: C_10  and  C_11 
REMARK    7  A    between atoms: C_11  and  C_12 
REMARK    8  A    between atoms: C_12  and  C_13 
REMARK    9  A    between atoms: C_15  and  C_16 
REMARK       I    between atoms: C_16  and  N_18 
REMARK   10  A    between atoms: N_18  and  C_20 
ROOT
HETATM    1  C   UNL     1       7.698  -3.425  22.458  1.00  0.00     0.109 C 
ENDROOT
BRANCH   1   2
HETATM    2  C   UNL     1       6.963  -2.837  21.644  1.00  0.00     0.011 C 
HETATM    3  C   UNL     1       6.202  -1.849  21.357  1.00  0.00     0.097 C 
BRANCH   3   4
HETATM    4  N   UNL     1       5.786  -1.004  20.620  1.00  0.00    -0.296 N 
ATOM      5  HN  UNL     1       4.837  -1.114  20.263  1.00  0.00     0.177 HD
BRANCH   4   6
HETATM    6  S   UNL     1       6.630   0.321  20.139  1.00  0.00     0.226 S 
HETATM    7  C   UNL     1       5.807   0.925  18.789  1.00  0.00     0.186 C 
HETATM    8  O   UNL     1       6.609   1.370  21.139  1.00  0.00    -0.206 OA
HETATM    9  O   UNL     1       7.959   0.005  19.747  1.00  0.00    -0.206 OA
ENDBRANCH   4   6
ENDBRANCH   3   4
ENDBRANCH   1   2
BRANCH   1  10
HETATM   10  C   UNL     1       8.492  -2.504  22.561  1.00  0.00    -0.071 C 
BRANCH  10  11
HETATM   11  C   UNL     1       9.400  -1.561  22.644  1.00  0.00     0.289 C 
HETATM   12  O   UNL     1      10.476  -1.922  22.536  1.00  0.00    -0.259 OA
HETATM   13  N   UNL     1       8.883  -0.373  22.883  1.00  0.00    -0.315 N 
ATOM     14  HN  UNL     1       7.876  -0.287  23.026  1.00  0.00     0.170 HD
BRANCH  13  15
HETATM   15  C   UNL     1       9.602   0.659  22.940  1.00  0.00     0.057 A 
HETATM   16  C   UNL     1       9.996   1.591  22.123  1.00  0.00     0.117 A 
HETATM   17  N   UNL     1      10.682   2.598  21.937  1.00  0.00    -0.373 N 
HETATM   18  C   UNL     1      11.270   2.781  23.105  1.00  0.00     0.088 A 
ATOM     19  HN  UNL     1      10.774   3.155  21.086  1.00  0.00     0.164 HD
HETATM   20  C   UNL     1      11.098   2.066  24.162  1.00  0.00     0.026 A 
HETATM   21  C   UNL     1      10.344   1.009  24.357  1.00  0.00    -0.033 A 
HETATM   22  C   UNL     1      10.134   0.207  25.529  1.00  0.00     0.050 C 
ENDBRANCH  13  15
ENDBRANCH  10  11
ENDBRANCH   1  10
BRANCH   1  23
HETATM   23  C   UNL     1       7.374  -4.178  23.936  1.00  0.00    -0.006 C 
BRANCH  23  24
HETATM   24  C   UNL     1       8.135  -4.361  24.706  1.00  0.00    -0.002 C 
BRANCH  24  25
HETATM   25  C   UNL     1       8.322  -3.886  25.970  1.00  0.00    -0.001 C 
BRANCH  25  26
HETATM   26  C   UNL     1       8.211  -4.928  26.964  1.00  0.00    -0.010 C 
HETATM   27  C   UNL     1       7.388  -5.456  27.362  1.00  0.00     0.011 C 
ENDBRANCH  25  26
ENDBRANCH  24  25
ENDBRANCH  23  24
ENDBRANCH   1  23
TORSDOF 10
ENDMDL
MODEL 7
REMARK VINA RESULT:    -5.840      2.255      3.119
REMARK INTER + INTRA:         -10.287
REMARK INTER:                  -8.677
REMARK INTRA:                  -1.610
REMARK UNBOUND:                -1.033
REMARK  10 active torsions:
REMARK  status: ('A' for Active; 'I' for Inactive)
REMARK    1  A    between atoms: S_2  and  N_5 
REMARK    2  A    between atoms: N_5  and  C_7 
REMARK    3  A    between atoms: C_8  and  C_9 
REMARK    4  A    between atoms: C_9  and  C_15 
REMARK    5  A    between atoms: C_9  and  C_10 
REMARK    6  A    between atoms: C_10  and  C_11 
REMARK    7  A    between atoms: C_11  and  C_12 
REMARK    8  A    between atoms: C_12  and  C_13 
REMARK    9  A    between atoms: C_15  and  C_16 
REMARK       I    between atoms: C_16  and  N_18 
REMARK   10  A    between atoms: N_18  and  C_20 
ROOT
HETATM    1  C   UNL     1       9.805  -1.569  21.984  1.00  0.00     0.109 C 
ENDROOT
BRANCH   1   2
HETATM    2  C   UNL     1       8.794  -2.089  22.492  1.00  0.00     0.011 C 
HETATM    3  C   UNL     1       7.993  -3.083  22.585  1.00  0.00     0.097 C 
BRANCH   3   4
HETATM    4  N   UNL     1       7.307  -3.843  23.203  1.00  0.00    -0.296 N 
ATOM      5  HN  UNL     1       7.773  -4.494  23.835  1.00  0.00     0.177 HD
BRANCH   4   6
HETATM    6  S   UNL     1       5.668  -3.920  23.109  1.00  0.00     0.226 S 
HETATM    7  C   UNL     1       5.090  -2.883  24.315  1.00  0.00     0.186 C 
HETATM    8  O   UNL     1       5.172  -3.405  21.848  1.00  0.00    -0.206 OA
HETATM    9  O   UNL     1       5.171  -5.226  23.366  1.00  0.00    -0.206 OA
ENDBRANCH   4   6
ENDBRANCH   3   4
ENDBRANCH   1   2
BRANCH   1  10
HETATM   10  C   UNL     1       9.264  -0.500  21.754  1.00  0.00    -0.071 C 
BRANCH  10  11
HETATM   11  C   UNL     1       8.619   0.610  21.484  1.00  0.00     0.289 C 
HETATM   12  O   UNL     1       8.443   0.803  20.374  1.00  0.00    -0.259 OA
HETATM   13  N   UNL     1       8.337   1.313  22.563  1.00  0.00    -0.315 N 
ATOM     14  HN  UNL     1       8.664   0.984  23.471  1.00  0.00     0.170 HD
BRANCH  13  15
HETATM   15  C   UNL     1       7.673   2.380  22.498  1.00  0.00     0.057 A 
HETATM   16  C   UNL     1       6.528   2.762  22.011  1.00  0.00     0.117 A 
HETATM   17  N   UNL     1       5.738   3.683  21.793  1.00  0.00    -0.373 N 
HETATM   18  C   UNL     1       6.367   4.738  22.277  1.00  0.00     0.088 A 
ATOM     19  HN  UNL     1       4.821   3.640  21.347  1.00  0.00     0.164 HD
HETATM   20  C   UNL     1       7.515   4.738  22.860  1.00  0.00     0.026 A 
HETATM   21  C   UNL     1       8.338   3.746  23.111  1.00  0.00    -0.033 A 
HETATM   22  C   UNL     1       9.615   3.726  23.767  1.00  0.00     0.050 C 
ENDBRANCH  13  15
ENDBRANCH  10  11
ENDBRANCH   1  10
BRANCH   1  23
HETATM   23  C   UNL     1      11.389  -1.394  22.545  1.00  0.00    -0.006 C 
BRANCH  23  24
HETATM   24  C   UNL     1      11.646  -1.212  23.598  1.00  0.00    -0.002 C 
BRANCH  24  25
HETATM   25  C   UNL     1      12.024  -0.100  24.291  1.00  0.00    -0.001 C 
BRANCH  25  26
HETATM   26  C   UNL     1      10.918   0.501  24.998  1.00  0.00    -0.010 C 
HETATM   27  C   UNL     1      10.066   0.098  25.474  1.00  0.00     0.011 C 
ENDBRANCH  25  26
ENDBRANCH  24  25
ENDBRANCH  23  24
ENDBRANCH   1  23
TORSDOF 10
ENDMDL
MODEL 8
REMARK VINA RESULT:    -5.652     14.551     16.386
REMARK INTER + INTRA:          -9.990
REMARK INTER:                  -8.146
REMARK INTRA:                  -1.844
REMARK UNBOUND:                -1.033
REMARK  10 active torsions:
REMARK  status: ('A' for Active; 'I' for Inactive)
REMARK    1  A    between atoms: S_2  and  N_5 
REMARK    2  A    between atoms: N_5  and  C_7 
REMARK    3  A    between atoms: C_8  and  C_9 
REMARK    4  A    between atoms: C_9  and  C_15 
REMARK    5  A    between atoms: C_9  and  C_10 
REMARK    6  A    between atoms: C_10  and  C_11 
REMARK    7  A    between atoms: C_11  and  C_12 
REMARK    8  A    between atoms: C_12  and  C_13 
REMARK    9  A    between atoms: C_15  and  C_16 
REMARK       I    between atoms: C_16  and  N_18 
REMARK   10  A    between atoms: N_18  and  C_20 
ROOT
HETATM    1  C   UNL     1      24.246  -0.335  24.132  1.00  0.00     0.109 C 
ENDROOT
BRANCH   1   2
HETATM    2  C   UNL     1      24.678  -1.261  24.843  1.00  0.00     0.011 C 
HETATM    3  C   UNL     1      24.510  -2.409  25.382  1.00  0.00     0.097 C 
BRANCH   3   4
HETATM    4  N   UNL     1      24.884  -3.496  25.712  1.00  0.00    -0.296 N 
ATOM      5  HN  UNL     1      25.749  -3.555  26.250  1.00  0.00     0.177 HD
BRANCH   4   6
HETATM    6  S   UNL     1      24.110  -4.902  25.363  1.00  0.00     0.226 S 
HETATM    7  C   UNL     1      25.287  -6.114  25.470  1.00  0.00     0.186 C 
HETATM    8  O   UNL     1      23.097  -5.223  26.349  1.00  0.00    -0.206 OA
HETATM    9  O   UNL     1      23.575  -4.914  24.047  1.00  0.00    -0.206 OA
ENDBRANCH   4   6
ENDBRANCH   3   4
ENDBRANCH   1   2
BRANCH   1  10
HETATM   10  C   UNL     1      23.979  -1.052  23.182  1.00  0.00    -0.071 C 
BRANCH  10  11
HETATM   11  C   UNL     1      23.619  -1.802  22.167  1.00  0.00     0.289 C 
HETATM   12  O   UNL     1      22.492  -1.919  22.035  1.00  0.00    -0.259 OA
HETATM   13  N   UNL     1      24.646  -2.312  21.518  1.00  0.00    -0.315 N 
ATOM     14  HN  UNL     1      25.590  -2.136  21.862  1.00  0.00     0.170 HD
BRANCH  13  15
HETATM   15  C   UNL     1      24.489  -3.011  20.483  1.00  0.00     0.057 A 
HETATM   16  C   UNL     1      24.380  -4.275  20.195  1.00  0.00     0.117 A 
HETATM   17  N   UNL     1      24.275  -5.146  19.328  1.00  0.00    -0.373 N 
HETATM   18  C   UNL     1      24.289  -4.454  18.204  1.00  0.00     0.088 A 
ATOM     19  HN  UNL     1      24.197  -6.156  19.450  1.00  0.00     0.164 HD
HETATM   20  C   UNL     1      24.359  -3.172  18.102  1.00  0.00     0.026 A 
HETATM   21  C   UNL     1      24.444  -2.250  19.033  1.00  0.00    -0.033 A 
HETATM   22  C   UNL     1      24.514  -0.820  18.938  1.00  0.00     0.050 C 
ENDBRANCH  13  15
ENDBRANCH  10  11
ENDBRANCH   1  10
BRANCH   1  23
HETATM   23  C   UNL     1      23.073   0.849  24.409  1.00  0.00    -0.006 C 
BRANCH  23  24
HETATM   24  C   UNL     1      22.165   0.680  25.005  1.00  0.00    -0.002 C 
BRANCH  24  25
HETATM   25  C   UNL     1      20.989   0.036  24.758  1.00  0.00    -0.001 C 
BRANCH  25  26
HETATM   26  C   UNL     1      20.881  -1.200  25.497  1.00  0.00    -0.010 C 
HETATM   27  C   UNL     1      20.972  -2.214  25.217  1.00  0.00     0.011 C 
ENDBRANCH  25  26
ENDBRANCH  24  25
ENDBRANCH  23  24
ENDBRANCH   1  23
TORSDOF 10
ENDMDL
