MODEL 1
REMARK VINA RESULT:    -5.130      0.000      0.000
REMARK INTER + INTRA:          -7.199
REMARK INTER:                  -6.629
REMARK INTRA:                  -0.570
REMARK UNBOUND:                -0.570
REMARK  5 active torsions:
REMARK  status: ('A' for Active; 'I' for Inactive)
REMARK    1  A    between atoms: C_2  and  C_5 
REMARK    2  A    between atoms: C_4  and  C_7 
REMARK    3  A    between atoms: C_4  and  C_5 
REMARK       I    between atoms: C_7  and  N_12 
REMARK    4  A    between atoms: N_9  and  O_14 
REMARK    5  A    between atoms: N_12  and  O_14 
ROOT
HETATM    1  C   UNL     1       9.298  13.961   3.156  1.00  0.00     0.250 C 
HETATM    2  O   UNL     1       9.381  12.933   3.808  1.00  0.00    -0.271 OA
HETATM    3  N   UNL     1      10.436  14.686   2.880  1.00  0.00    -0.209 N 
ATOM      4  HN  UNL     1      10.341  15.356   2.117  1.00  0.00     0.200 HD
ENDROOT
BRANCH   1   5
HETATM    5  C   UNL     1       7.917  14.472   2.621  1.00  0.00     0.102 C 
HETATM    6  C   UNL     1       7.656  13.784   1.276  1.00  0.00     0.024 C 
BRANCH   5   7
HETATM    7  C   UNL     1       7.682  15.913   2.402  1.00  0.00     0.036 C 
BRANCH   7   8
HETATM    8  C   UNL     1       8.331  16.948   1.519  1.00  0.00     0.142 C 
HETATM    9  O   UNL     1       9.512  17.095   1.377  1.00  0.00    -0.294 OA
HETATM   10  C   UNL     1       7.534  17.960   0.781  1.00  0.00     0.095 C 
ENDBRANCH   7   8
ENDBRANCH   5   7
ENDBRANCH   1   5
BRANCH   3  11
HETATM   11  O   UNL     1      11.596  14.657   3.426  1.00  0.00    -0.159 OA
BRANCH  11  12
HETATM   12  N   UNL     1      11.344  15.033   4.744  1.00  0.00    -0.282 N 
HETATM   13  C   UNL     1      10.935  16.387   4.773  1.00  0.00     0.177 C 
HETATM   14  H   UNL     1      11.280  14.474   5.564  1.00  0.00     0.189 HD
ENDBRANCH  11  12
ENDBRANCH   3  11
TORSDOF 5
ENDMDL
MODEL 2
REMARK VINA RESULT:    -4.855      1.716      2.962
REMARK INTER + INTRA:          -6.845
REMARK INTER:                  -6.640
REMARK INTRA:                  -0.205
REMARK UNBOUND:                -0.570
REMARK  5 active torsions:
REMARK  status: ('A' for Active; 'I' for Inactive)
REMARK    1  A    between atoms: C_2  and  C_5 
REMARK    2  A    between atoms: C_4  and  C_7 
REMARK    3  A    between atoms: C_4  and  C_5 
REMARK       I    between atoms: C_7  and  N_12 
REMARK    4  A    between atoms: N_9  and  O_14 
REMARK    5  A    between atoms: N_12  and  O_14 
ROOT
HETATM    1  C   UNL     1       9.649  14.084   3.049  1.00  0.00     0.250 C 
HETATM    2  O   UNL     1       9.511  13.126   3.793  1.00  0.00    -0.271 OA
HETATM    3  N   UNL     1      10.790  14.850   3.131  1.00  0.00    -0.209 N 
ATOM      4  HN  UNL     1      10.967  15.441   2.318  1.00  0.00     0.200 HD
ENDROOT
BRANCH   1   5
HETATM    5  C   UNL     1       8.549  14.458   1.997  1.00  0.00     0.102 C 
HETATM    6  C   UNL     1       8.404  15.984   2.000  1.00  0.00     0.024 C 
BRANCH   5   7
HETATM    7  C   UNL     1       7.183  13.911   2.112  1.00  0.00     0.036 C 
BRANCH   7   8
HETATM    8  C   UNL     1       6.447  12.799   1.409  1.00  0.00     0.142 C 
HETATM    9  O   UNL     1       6.836  12.218   0.435  1.00  0.00    -0.294 OA
HETATM   10  C   UNL     1       5.094  12.362   1.835  1.00  0.00     0.095 C 
ENDBRANCH   7   8
ENDBRANCH   5   7
ENDBRANCH   1   5
BRANCH   3  11
HETATM   11  O   UNL     1      11.668  14.941   4.060  1.00  0.00    -0.159 OA
BRANCH  11  12
HETATM   12  N   UNL     1      11.743  16.312   4.302  1.00  0.00    -0.282 N 
HETATM   13  C   UNL     1      10.683  16.693   5.159  1.00  0.00     0.177 C 
HETATM   14  H   UNL     1      12.467  16.957   4.086  1.00  0.00     0.189 HD
ENDBRANCH  11  12
ENDBRANCH   3  11
TORSDOF 5
ENDMDL
MODEL 3
REMARK VINA RESULT:    -4.797      1.625      3.545
REMARK INTER + INTRA:          -6.770
REMARK INTER:                  -6.315
REMARK INTRA:                  -0.455
REMARK UNBOUND:                -0.570
REMARK  5 active torsions:
REMARK  status: ('A' for Active; 'I' for Inactive)
REMARK    1  A    between atoms: C_2  and  C_5 
REMARK    2  A    between atoms: C_4  and  C_7 
REMARK    3  A    between atoms: C_4  and  C_5 
REMARK       I    between atoms: C_7  and  N_12 
REMARK    4  A    between atoms: N_9  and  O_14 
REMARK    5  A    between atoms: N_12  and  O_14 
ROOT
HETATM    1  C   UNL     1       9.295  14.958   2.218  1.00  0.00     0.250 C 
HETATM    2  O   UNL     1       9.764  15.429   1.194  1.00  0.00    -0.271 OA
HETATM    3  N   UNL     1      10.119  14.707   3.292  1.00  0.00    -0.209 N 
ATOM      4  HN  UNL     1       9.636  14.586   4.182  1.00  0.00     0.200 HD
ENDROOT
BRANCH   1   5
HETATM    5  C   UNL     1       7.766  14.637   2.334  1.00  0.00     0.102 C 
HETATM    6  C   UNL     1       7.206  15.461   3.499  1.00  0.00     0.024 C 
BRANCH   5   7
HETATM    7  C   UNL     1       7.304  13.251   2.547  1.00  0.00     0.036 C 
BRANCH   7   8
HETATM    8  C   UNL     1       7.751  12.135   3.457  1.00  0.00     0.142 C 
HETATM    9  O   UNL     1       8.770  12.123   4.089  1.00  0.00    -0.294 OA
HETATM   10  C   UNL     1       6.976  10.877   3.596  1.00  0.00     0.095 C 
ENDBRANCH   7   8
ENDBRANCH   5   7
ENDBRANCH   1   5
BRANCH   3  11
HETATM   11  O   UNL     1      11.395  14.599   3.356  1.00  0.00    -0.159 OA
BRANCH  11  12
HETATM   12  N   UNL     1      11.644  14.508   4.725  1.00  0.00    -0.282 N 
HETATM   13  C   UNL     1      10.795  15.406   5.414  1.00  0.00     0.177 C 
HETATM   14  H   UNL     1      12.188  13.847   5.230  1.00  0.00     0.189 HD
ENDBRANCH  11  12
ENDBRANCH   3  11
TORSDOF 5
ENDMDL
MODEL 4
REMARK VINA RESULT:    -4.773      2.131      3.195
REMARK INTER + INTRA:          -6.738
REMARK INTER:                  -6.381
REMARK INTRA:                  -0.358
REMARK UNBOUND:                -0.570
REMARK  5 active torsions:
REMARK  status: ('A' for Active; 'I' for Inactive)
REMARK    1  A    between atoms: C_2  and  C_5 
REMARK    2  A    between atoms: C_4  and  C_7 
REMARK    3  A    between atoms: C_4  and  C_5 
REMARK       I    between atoms: C_7  and  N_12 
REMARK    4  A    between atoms: N_9  and  O_14 
REMARK    5  A    between atoms: N_12  and  O_14 
ROOT
HETATM    1  C   UNL     1       8.571  14.042   2.712  1.00  0.00     0.250 C 
HETATM    2  O   UNL     1       7.389  13.847   2.474  1.00  0.00    -0.271 OA
HETATM    3  N   UNL     1       9.293  13.091   3.398  1.00  0.00    -0.209 N 
ATOM      4  HN  UNL     1      10.306  13.183   3.316  1.00  0.00     0.200 HD
ENDROOT
BRANCH   1   5
HETATM    5  C   UNL     1       9.285  15.356   2.244  1.00  0.00     0.102 C 
HETATM    6  C   UNL     1       9.881  16.027   3.486  1.00  0.00     0.024 C 
BRANCH   5   7
HETATM    7  C   UNL     1       8.534  16.404   1.527  1.00  0.00     0.036 C 
BRANCH   7   8
HETATM    8  C   UNL     1       8.945  17.629   0.748  1.00  0.00     0.142 C 
HETATM    9  O   UNL     1      10.075  17.952   0.513  1.00  0.00    -0.294 OA
HETATM   10  C   UNL     1       7.952  18.614   0.253  1.00  0.00     0.095 C 
ENDBRANCH   7   8
ENDBRANCH   5   7
ENDBRANCH   1   5
BRANCH   3  11
HETATM   11  O   UNL     1       8.900  12.110   4.124  1.00  0.00    -0.159 OA
BRANCH  11  12
HETATM   12  N   UNL     1       8.238  11.282   3.219  1.00  0.00    -0.282 N 
HETATM   13  C   UNL     1       7.048  10.800   3.813  1.00  0.00     0.177 C 
HETATM   14  H   UNL     1       8.413  11.128   2.253  1.00  0.00     0.189 HD
ENDBRANCH  11  12
ENDBRANCH   3  11
TORSDOF 5
ENDMDL
MODEL 5
REMARK VINA RESULT:    -4.577      3.622      5.333
REMARK INTER + INTRA:          -6.485
REMARK INTER:                  -6.266
REMARK INTRA:                  -0.219
REMARK UNBOUND:                -0.570
REMARK  5 active torsions:
REMARK  status: ('A' for Active; 'I' for Inactive)
REMARK    1  A    between atoms: C_2  and  C_5 
REMARK    2  A    between atoms: C_4  and  C_7 
REMARK    3  A    between atoms: C_4  and  C_5 
REMARK       I    between atoms: C_7  and  N_12 
REMARK    4  A    between atoms: N_9  and  O_14 
REMARK    5  A    between atoms: N_12  and  O_14 
ROOT
HETATM    1  C   UNL     1       8.230  11.894   3.577  1.00  0.00     0.250 C 
HETATM    2  O   UNL     1       8.584  11.263   4.560  1.00  0.00    -0.271 OA
HETATM    3  N   UNL     1       8.999  12.945   3.130  1.00  0.00    -0.209 N 
ATOM      4  HN  UNL     1       8.806  13.238   2.171  1.00  0.00     0.200 HD
ENDROOT
BRANCH   1   5
HETATM    5  C   UNL     1       6.914  11.527   2.809  1.00  0.00     0.102 C 
HETATM    6  C   UNL     1       6.071  12.803   2.696  1.00  0.00     0.024 C 
BRANCH   5   7
HETATM    7  C   UNL     1       6.012  10.479   3.324  1.00  0.00     0.036 C 
BRANCH   7   8
HETATM    8  C   UNL     1       5.239   9.361   2.670  1.00  0.00     0.142 C 
HETATM    9  O   UNL     1       5.293   9.069   1.509  1.00  0.00    -0.294 OA
HETATM   10  C   UNL     1       4.253   8.545   3.421  1.00  0.00     0.095 C 
ENDBRANCH   7   8
ENDBRANCH   5   7
ENDBRANCH   1   5
BRANCH   3  11
HETATM   11  O   UNL     1       9.919  13.616   3.720  1.00  0.00    -0.159 OA
BRANCH  11  12
HETATM   12  N   UNL     1      10.482  14.369   2.692  1.00  0.00    -0.282 N 
HETATM   13  C   UNL     1       9.454  15.047   1.993  1.00  0.00     0.177 C 
HETATM   14  H   UNL     1      11.435  14.581   2.507  1.00  0.00     0.189 HD
ENDBRANCH  11  12
ENDBRANCH   3  11
TORSDOF 5
ENDMDL
MODEL 6
REMARK VINA RESULT:    -4.551     23.362     25.137
REMARK INTER + INTRA:          -6.451
REMARK INTER:                  -6.262
REMARK INTRA:                  -0.189
REMARK UNBOUND:                -0.570
REMARK  5 active torsions:
REMARK  status: ('A' for Active; 'I' for Inactive)
REMARK    1  A    between atoms: C_2  and  C_5 
REMARK    2  A    between atoms: C_4  and  C_7 
REMARK    3  A    between atoms: C_4  and  C_5 
REMARK       I    between atoms: C_7  and  N_12 
REMARK    4  A    between atoms: N_9  and  O_14 
REMARK    5  A    between atoms: N_12  and  O_14 
ROOT
HETATM    1  C   UNL     1       9.310  -0.222  21.422  1.00  0.00     0.250 C 
HETATM    2  O   UNL     1       9.574   0.855  21.931  1.00  0.00    -0.271 OA
HETATM    3  N   UNL     1       8.621  -0.262  20.231  1.00  0.00    -0.209 N 
ATOM      4  HN  UNL     1       8.681  -1.150  19.732  1.00  0.00     0.200 HD
ENDROOT
BRANCH   1   5
HETATM    5  C   UNL     1       9.747  -1.567  22.100  1.00  0.00     0.102 C 
HETATM    6  C   UNL     1       8.479  -2.266  22.602  1.00  0.00     0.024 C 
BRANCH   5   7
HETATM    7  C   UNL     1      10.695  -1.565  23.230  1.00  0.00     0.036 C 
BRANCH   7   8
HETATM    8  C   UNL     1      12.175  -1.298  23.344  1.00  0.00     0.142 C 
HETATM    9  O   UNL     1      13.039  -1.971  22.857  1.00  0.00    -0.294 OA
HETATM   10  C   UNL     1      12.711  -0.180  24.161  1.00  0.00     0.095 C 
ENDBRANCH   7   8
ENDBRANCH   5   7
ENDBRANCH   1   5
BRANCH   3  11
HETATM   11  O   UNL     1       7.916   0.634  19.646  1.00  0.00    -0.159 OA
BRANCH  11  12
HETATM   12  N   UNL     1       7.503   0.007  18.472  1.00  0.00    -0.282 N 
HETATM   13  C   UNL     1       6.089   0.011  18.413  1.00  0.00     0.177 C 
HETATM   14  H   UNL     1       8.035  -0.279  17.682  1.00  0.00     0.189 HD
ENDBRANCH  11  12
ENDBRANCH   3  11
TORSDOF 5
ENDMDL
MODEL 7
REMARK VINA RESULT:    -4.396      2.488      4.271
REMARK INTER + INTRA:          -6.251
REMARK INTER:                  -5.679
REMARK INTRA:                  -0.572
REMARK UNBOUND:                -0.570
REMARK  5 active torsions:
REMARK  status: ('A' for Active; 'I' for Inactive)
REMARK    1  A    between atoms: C_2  and  C_5 
REMARK    2  A    between atoms: C_4  and  C_7 
REMARK    3  A    between atoms: C_4  and  C_5 
REMARK       I    between atoms: C_7  and  N_12 
REMARK    4  A    between atoms: N_9  and  O_14 
REMARK    5  A    between atoms: N_12  and  O_14 
ROOT
HETATM    1  C   UNL     1       8.024  13.900   3.256  1.00  0.00     0.250 C 
HETATM    2  O   UNL     1       6.816  13.830   3.419  1.00  0.00    -0.271 OA
HETATM    3  N   UNL     1       8.796  12.769   3.393  1.00  0.00    -0.209 N 
ATOM      4  HN  UNL     1       9.726  12.833   2.977  1.00  0.00     0.200 HD
ENDROOT
BRANCH   1   5
HETATM    5  C   UNL     1       8.714  15.259   2.889  1.00  0.00     0.102 C 
HETATM    6  C   UNL     1       9.431  15.068   1.549  1.00  0.00     0.024 C 
BRANCH   5   7
HETATM    7  C   UNL     1       9.698  15.872   3.802  1.00  0.00     0.036 C 
BRANCH   7   8
HETATM    8  C   UNL     1      10.465  15.362   4.997  1.00  0.00     0.142 C 
HETATM    9  O   UNL     1      11.089  14.340   5.034  1.00  0.00    -0.294 OA
HETATM   10  C   UNL     1      10.450  16.073   6.300  1.00  0.00     0.095 C 
ENDBRANCH   7   8
ENDBRANCH   5   7
ENDBRANCH   1   5
BRANCH   3  11
HETATM   11  O   UNL     1       8.538  11.646   3.956  1.00  0.00    -0.159 OA
BRANCH  11  12
HETATM   12  N   UNL     1       7.789  10.967   2.997  1.00  0.00    -0.282 N 
HETATM   13  C   UNL     1       6.578  10.521   3.580  1.00  0.00     0.177 C 
HETATM   14  H   UNL     1       7.926  10.897   2.015  1.00  0.00     0.189 HD
ENDBRANCH  11  12
ENDBRANCH   3  11
TORSDOF 5
ENDMDL
MODEL 8
REMARK VINA RESULT:    -4.297     23.777     25.419
REMARK INTER + INTRA:          -6.123
REMARK INTER:                  -5.350
REMARK INTRA:                  -0.773
REMARK UNBOUND:                -0.570
REMARK  5 active torsions:
REMARK  status: ('A' for Active; 'I' for Inactive)
REMARK    1  A    between atoms: C_2  and  C_5 
REMARK    2  A    between atoms: C_4  and  C_7 
REMARK    3  A    between atoms: C_4  and  C_5 
REMARK       I    between atoms: C_7  and  N_12 
REMARK    4  A    between atoms: N_9  and  O_14 
REMARK    5  A    between atoms: N_12  and  O_14 
ROOT
HETATM    1  C   UNL     1      10.850  -1.138  23.193  1.00  0.00     0.250 C 
HETATM    2  O   UNL     1      11.627  -1.913  22.659  1.00  0.00    -0.271 OA
HETATM    3  N   UNL     1       9.543  -1.081  22.764  1.00  0.00    -0.209 N 
ATOM      4  HN  UNL     1       8.898  -0.637  23.418  1.00  0.00     0.200 HD
ENDROOT
BRANCH   1   5
HETATM    5  C   UNL     1      11.312  -0.207  24.366  1.00  0.00     0.102 C 
HETATM    6  C   UNL     1      10.188  -0.178  25.407  1.00  0.00     0.024 C 
BRANCH   5   7
HETATM    7  C   UNL     1      11.675   1.201  24.109  1.00  0.00     0.036 C 
BRANCH   7   8
HETATM    8  C   UNL     1      11.069   2.291  23.262  1.00  0.00     0.142 C 
HETATM    9  O   UNL     1      10.363   2.117  22.309  1.00  0.00    -0.294 OA
HETATM   10  C   UNL     1      11.367   3.726  23.499  1.00  0.00     0.095 C 
ENDBRANCH   7   8
ENDBRANCH   5   7
ENDBRANCH   1   5
BRANCH   3  11
HETATM   11  O   UNL     1       9.004  -1.495  21.677  1.00  0.00    -0.159 OA
BRANCH  11  12
HETATM   12  N   UNL     1       9.292  -0.481  20.765  1.00  0.00    -0.282 N 
HETATM   13  C   UNL     1       8.083   0.015  20.221  1.00  0.00     0.177 C 
HETATM   14  H   UNL     1      10.150  -0.013  20.585  1.00  0.00     0.189 HD
ENDBRANCH  11  12
ENDBRANCH   3  11
TORSDOF 5
ENDMDL
MODEL 9
REMARK VINA RESULT:    -4.235     22.097     23.527
REMARK INTER + INTRA:          -6.044
REMARK INTER:                  -5.511
REMARK INTRA:                  -0.533
REMARK UNBOUND:                -0.570
REMARK  5 active torsions:
REMARK  status: ('A' for Active; 'I' for Inactive)
REMARK    1  A    between atoms: C_2  and  C_5 
REMARK    2  A    between atoms: C_4  and  C_7 
REMARK    3  A    between atoms: C_4  and  C_5 
REMARK       I    between atoms: C_7  and  N_12 
REMARK    4  A    between atoms: N_9  and  O_14 
REMARK    5  A    between atoms: N_12  and  O_14 
ROOT
HETATM    1  C   UNL     1       7.206  -0.018  19.666  1.00  0.00     0.250 C 
HETATM    2  O   UNL     1       7.996   0.248  18.775  1.00  0.00    -0.271 OA
HETATM    3  N   UNL     1       5.867  -0.144  19.374  1.00  0.00    -0.209 N 
ATOM      4  HN  UNL     1       5.319  -0.631  20.083  1.00  0.00     0.200 HD
ENDROOT
BRANCH   1   5
HETATM    5  C   UNL     1       7.690  -0.222  21.143  1.00  0.00     0.102 C 
HETATM    6  C   UNL     1       7.031   0.862  22.002  1.00  0.00     0.024 C 
BRANCH   5   7
HETATM    7  C   UNL     1       9.129  -0.195  21.472  1.00  0.00     0.036 C 
BRANCH   7   8
HETATM    8  C   UNL     1      10.052   0.871  22.005  1.00  0.00     0.142 C 
HETATM    9  O   UNL     1      10.449   1.816  21.384  1.00  0.00    -0.294 OA
HETATM   10  C   UNL     1      10.630   0.798  23.371  1.00  0.00     0.095 C 
ENDBRANCH   7   8
ENDBRANCH   5   7
ENDBRANCH   1   5
BRANCH   3  11
HETATM   11  O   UNL     1       5.195   0.251  18.356  1.00  0.00    -0.159 OA
BRANCH  11  12
HETATM   12  N   UNL     1       5.058   1.621  18.569  1.00  0.00    -0.282 N 
HETATM   13  C   UNL     1       4.063   1.843  19.550  1.00  0.00     0.177 C 
HETATM   14  H   UNL     1       5.625   2.374  18.253  1.00  0.00     0.189 HD
ENDBRANCH  11  12
ENDBRANCH   3  11
TORSDOF 5
ENDMDL
