stable:False satoms:9 tatoms:24 sratio:0.375
  -OEChem-08062417243D

 47 47  0     1  0  0  0  0  0999 V2000
    5.9743   -5.2644   25.9062 C   0  0  0  0  0  0  0  0  0  0  0  0
    7.5666   -4.7039   25.7903 S   0  0  0  0  0  0  0  0  0  0  0  0
    8.4143   -5.8774   25.7211 O   0  0  0  0  0  0  0  0  0  0  0  0
    7.8523   -3.9263   26.9452 O   0  0  0  0  0  0  0  0  0  0  0  0
    7.6290   -3.8175   24.4085 N   0  0  0  0  0  0  0  0  0  0  0  0
    8.5750   -3.1842   24.0431 C   0  0  0  0  0  0  0  0  0  0  0  0
    9.1222   -2.1617   23.5024 C   0  0  0  0  0  0  0  0  0  0  0  0
   10.0287   -1.3086   23.4914 C   0  0  2  0  0  0  0  0  0  0  0  0
   10.6472   -0.3011   24.6979 C   0  0  0  0  0  0  0  0  0  0  0  0
   11.7126   -0.0472   24.7933 C   0  0  0  0  0  0  0  0  0  0  0  0
   12.8321   -0.4333   24.1172 C   0  0  0  0  0  0  0  0  0  0  0  0
   12.5464   -1.4505   23.1317 C   0  0  0  0  0  0  0  0  0  0  0  0
   11.6550   -1.9279   22.8308 C   0  0  0  0  0  0  0  0  0  0  0  0
    9.5733   -0.6887   22.5444 C   0  0  0  0  0  0  0  0  0  0  0  0
    9.0314    0.0089   21.5749 C   0  0  0  0  0  0  0  0  0  0  0  0
    9.5767    0.9767   21.3193 O   0  0  0  0  0  0  0  0  0  0  0  0
    7.9243   -0.5348   21.1096 N   0  0  0  0  0  0  0  0  0  0  0  0
    7.3011   -0.0310   20.1391 C   0  0  0  0  0  0  0  0  0  0  0  0
    7.5011    0.1428   18.8652 C   0  0  0  0  0  0  0  0  0  0  0  0
    7.1003    0.6103   17.7976 N   0  0  0  0  0  0  0  0  0  0  0  0
    5.9626    1.1917   18.1315 C   0  0  0  0  0  0  0  0  0  0  0  0
    5.4302    1.2017   19.3046 C   0  0  0  0  0  0  0  0  0  0  0  0
    5.8531    0.6772   20.4317 C   0  0  0  0  0  0  0  0  0  0  0  0
    5.2698    0.6709   21.7432 C   0  0  0  0  0  0  0  0  0  0  0  0
    5.8637   -5.8703   26.8176 H   0  0  0  0  0  0  0  0  0  0  0  0
    5.2863   -4.4072   25.9502 H   0  0  0  0  0  0  0  0  0  0  0  0
    5.7374   -5.8799   25.0259 H   0  0  0  0  0  0  0  0  0  0  0  0
    6.8789   -3.1599   24.4793 H   0  0  0  0  0  0  0  0  0  0  0  0
    9.4151   -3.8068   24.3132 H   0  0  0  0  0  0  0  0  0  0  0  0
    8.5026   -1.9271   22.6495 H   0  0  0  0  0  0  0  0  0  0  0  0
   10.9340   -1.8196   23.1319 H   0  0  0  0  0  0  0  0  0  0  0  0
    9.9573    0.1170   25.4160 H   0  0  0  0  0  0  0  0  0  0  0  0
   11.9148    0.6548   25.5887 H   0  0  0  0  0  0  0  0  0  0  0  0
   13.5619   -0.8318   24.8373 H   0  0  0  0  0  0  0  0  0  0  0  0
   13.2598    0.4434   23.6087 H   0  0  0  0  0  0  0  0  0  0  0  0
   13.4204   -1.7902   22.5958 H   0  0  0  0  0  0  0  0  0  0  0  0
   11.6797   -2.6778   22.0540 H   0  0  0  0  0  0  0  0  0  0  0  0
   10.7177   -1.6666   23.2995 H   0  0  0  0  0  0  0  0  0  0  0  0
    9.4353   -1.6206   21.9764 H   0  0  0  0  0  0  0  0  0  0  0  0
   10.5638   -0.2660   22.3204 H   0  0  0  0  0  0  0  0  0  0  0  0
    7.5715   -1.3668   21.5377 H   0  0  0  0  0  0  0  0  0  0  0  0
    8.4415   -0.3399   18.6436 H   0  0  0  0  0  0  0  0  0  0  0  0
    5.4282    1.7073   17.3473 H   0  0  0  0  0  0  0  0  0  0  0  0
    4.4872    1.7239   19.3717 H   0  0  0  0  0  0  0  0  0  0  0  0
    4.6337   -0.2191   21.8579 H   0  0  0  0  0  0  0  0  0  0  0  0
    6.0684    0.6507   22.4994 H   0  0  0  0  0  0  0  0  0  0  0  0
    4.6604    1.5768   21.8776 H   0  0  0  0  0  0  0  0  0  0  0  0
 20 21  2  0  0  0  0
 19 20  1  0  0  0  0
 21 22  1  0  0  0  0
 18 19  2  0  0  0  0
 22 23  2  0  0  0  0
 18 23  1  0  0  0  0
 17 18  1  0  0  0  0
 23 24  1  0  0  0  0
 15 16  2  0  0  0  0
 15 17  1  0  0  0  0
 14 15  1  0  0  0  0
  8 14  1  0  0  0  0
 12 13  2  0  0  0  0
 11 12  1  0  0  0  0
  7  8  1  0  0  0  0
  8  9  1  0  0  0  0
  6  7  2  3  0  0  0
 10 11  1  0  0  0  0
  5  6  1  0  0  0  0
  9 10  2  0  0  0  0
  2  5  1  0  0  0  0
  2  3  2  0  0  0  0
  1  2  1  0  0  0  0
  2  4  2  0  0  0  0
  1 25  1  0  0  0  0
  1 26  1  0  0  0  0
  1 27  1  0  0  0  0
  5 28  1  0  0  0  0
  6 29  1  0  0  0  0
  7 30  1  0  0  0  0
  8 31  1  0  0  0  0
  9 32  1  0  0  0  0
 10 33  1  0  0  0  0
 11 34  1  0  0  0  0
 11 35  1  0  0  0  0
 12 36  1  0  0  0  0
 13 37  1  0  0  0  0
 13 38  1  0  0  0  0
 14 39  1  0  0  0  0
 14 40  1  0  0  0  0
 17 41  1  0  0  0  0
 19 42  1  0  0  0  0
 21 43  1  0  0  0  0
 22 44  1  0  0  0  0
 24 45  1  0  0  0  0
 24 46  1  0  0  0  0
 24 47  1  0  0  0  0
M  END
> <Chemgauss4>
-12.967371

$$$$
