stable:False satoms:9 tatoms:24 sratio:0.375
  -OEChem-08062417243D

 47 47  0     1  0  0  0  0  0999 V2000
   -6.1336   -5.2079  -25.9226 C   0  0  0  0  0  0  0  0  0  0  0  0
   -7.7259   -4.6474  -25.8067 S   0  0  0  0  0  0  0  0  0  0  0  0
   -8.5736   -5.8208  -25.7375 O   0  0  0  0  0  0  0  0  0  0  0  0
   -8.0115   -3.8698  -26.9616 O   0  0  0  0  0  0  0  0  0  0  0  0
   -7.7882   -3.7610  -24.4248 N   0  0  0  0  0  0  0  0  0  0  0  0
   -8.7342   -3.1277  -24.0594 C   0  0  0  0  0  0  0  0  0  0  0  0
   -9.2815   -2.1052  -23.5187 C   0  0  0  0  0  0  0  0  0  0  0  0
  -10.1880   -1.2521  -23.5077 C   0  0  2  0  0  0  0  0  0  0  0  0
  -10.8065   -0.2446  -24.7143 C   0  0  0  0  0  0  0  0  0  0  0  0
  -11.8719    0.0094  -24.8096 C   0  0  0  0  0  0  0  0  0  0  0  0
  -12.9914   -0.3768  -24.1335 C   0  0  0  0  0  0  0  0  0  0  0  0
  -12.7057   -1.3939  -23.1481 C   0  0  0  0  0  0  0  0  0  0  0  0
  -11.8143   -1.8713  -22.8471 C   0  0  0  0  0  0  0  0  0  0  0  0
   -9.7325   -0.6321  -22.5607 C   0  0  0  0  0  0  0  0  0  0  0  0
   -9.1907    0.0655  -21.5912 C   0  0  0  0  0  0  0  0  0  0  0  0
   -9.7360    1.0332  -21.3357 O   0  0  0  0  0  0  0  0  0  0  0  0
   -8.0836   -0.4782  -21.1259 N   0  0  0  0  0  0  0  0  0  0  0  0
   -7.4604    0.0256  -20.1554 C   0  0  0  0  0  0  0  0  0  0  0  0
   -7.6604    0.1993  -18.8815 C   0  0  0  0  0  0  0  0  0  0  0  0
   -7.2595    0.6668  -17.8140 N   0  0  0  0  0  0  0  0  0  0  0  0
   -6.1219    1.2482  -18.1478 C   0  0  0  0  0  0  0  0  0  0  0  0
   -5.5895    1.2583  -19.3210 C   0  0  0  0  0  0  0  0  0  0  0  0
   -6.0124    0.7338  -20.4480 C   0  0  0  0  0  0  0  0  0  0  0  0
   -5.4291    0.7275  -21.7595 C   0  0  0  0  0  0  0  0  0  0  0  0
   -6.0230   -5.8138  -26.8340 H   0  0  0  0  0  0  0  0  0  0  0  0
   -5.4456   -4.3507  -25.9666 H   0  0  0  0  0  0  0  0  0  0  0  0
   -5.8966   -5.8234  -25.0422 H   0  0  0  0  0  0  0  0  0  0  0  0
   -7.0382   -3.1034  -24.4956 H   0  0  0  0  0  0  0  0  0  0  0  0
   -9.5743   -3.7503  -24.3296 H   0  0  0  0  0  0  0  0  0  0  0  0
   -8.6619   -1.8706  -22.6658 H   0  0  0  0  0  0  0  0  0  0  0  0
  -11.0933   -1.7631  -23.1482 H   0  0  0  0  0  0  0  0  0  0  0  0
  -10.1166    0.1736  -25.4323 H   0  0  0  0  0  0  0  0  0  0  0  0
  -12.0741    0.7114  -25.6050 H   0  0  0  0  0  0  0  0  0  0  0  0
  -13.7212   -0.7752  -24.8536 H   0  0  0  0  0  0  0  0  0  0  0  0
  -13.4191    0.4999  -23.6251 H   0  0  0  0  0  0  0  0  0  0  0  0
  -13.5797   -1.7336  -22.6121 H   0  0  0  0  0  0  0  0  0  0  0  0
  -11.8390   -2.6212  -22.0703 H   0  0  0  0  0  0  0  0  0  0  0  0
  -10.8770   -1.6100  -23.3159 H   0  0  0  0  0  0  0  0  0  0  0  0
   -9.5946   -1.5640  -21.9928 H   0  0  0  0  0  0  0  0  0  0  0  0
  -10.7231   -0.2095  -22.3368 H   0  0  0  0  0  0  0  0  0  0  0  0
   -7.7308   -1.3102  -21.5540 H   0  0  0  0  0  0  0  0  0  0  0  0
   -8.6008   -0.2833  -18.6599 H   0  0  0  0  0  0  0  0  0  0  0  0
   -5.5874    1.7639  -17.3636 H   0  0  0  0  0  0  0  0  0  0  0  0
   -4.6465    1.7805  -19.3880 H   0  0  0  0  0  0  0  0  0  0  0  0
   -4.7930   -0.1626  -21.8743 H   0  0  0  0  0  0  0  0  0  0  0  0
   -6.2277    0.7073  -22.5158 H   0  0  0  0  0  0  0  0  0  0  0  0
   -4.8197    1.6333  -21.8940 H   0  0  0  0  0  0  0  0  0  0  0  0
 20 21  2  0  0  0  0
 19 20  1  0  0  0  0
 21 22  1  0  0  0  0
 18 19  2  0  0  0  0
 22 23  2  0  0  0  0
 18 23  1  0  0  0  0
 17 18  1  0  0  0  0
 23 24  1  0  0  0  0
 15 16  2  0  0  0  0
 15 17  1  0  0  0  0
 14 15  1  0  0  0  0
  8 14  1  0  0  0  0
 12 13  2  0  0  0  0
 11 12  1  0  0  0  0
  7  8  1  0  0  0  0
  8  9  1  0  0  0  0
  6  7  2  3  0  0  0
 10 11  1  0  0  0  0
  5  6  1  0  0  0  0
  9 10  2  0  0  0  0
  2  5  1  0  0  0  0
  2  3  2  0  0  0  0
  1  2  1  0  0  0  0
  2  4  2  0  0  0  0
  1 25  1  0  0  0  0
  1 26  1  0  0  0  0
  1 27  1  0  0  0  0
  5 28  1  0  0  0  0
  6 29  1  0  0  0  0
  7 30  1  0  0  0  0
  8 31  1  0  0  0  0
  9 32  1  0  0  0  0
 10 33  1  0  0  0  0
 11 34  1  0  0  0  0
 11 35  1  0  0  0  0
 12 36  1  0  0  0  0
 13 37  1  0  0  0  0
 13 38  1  0  0  0  0
 14 39  1  0  0  0  0
 14 40  1  0  0  0  0
 17 41  1  0  0  0  0
 19 42  1  0  0  0  0
 21 43  1  0  0  0  0
 22 44  1  0  0  0  0
 24 45  1  0  0  0  0
 24 46  1  0  0  0  0
 24 47  1  0  0  0  0
M  END
> <Chemgauss4>
-12.916574

$$$$
