MODEL 1
REMARK VINA RESULT:    -5.438      0.000      0.000
REMARK INTER + INTRA:          -6.160
REMARK INTER:                  -5.756
REMARK INTRA:                  -0.403
REMARK UNBOUND:                -0.403
REMARK  1 active torsions:
REMARK  status: ('A' for Active; 'I' for Inactive)
REMARK    1  A    between atoms: C_2  and  N_15 
ROOT
HETATM    1  C   UNL     1       9.390  16.275   3.268  1.00  0.00     0.176 C 
HETATM    2  N   UNL     1       9.968  14.039   4.545  1.00  0.00    -0.260 NA
HETATM    3  C   UNL     1      10.905  15.140   4.636  1.00  0.00     0.263 C 
HETATM    4  H   UNL     1       9.225  13.962   5.255  1.00  0.00     0.131 HD
HETATM    5  C   UNL     1       9.535  15.000   2.402  1.00  0.00     0.096 C 
HETATM    6  C   UNL     1       9.388  13.845   3.334  1.00  0.00     0.061 C 
HETATM    7  O   UNL     1      10.217  16.330   4.400  1.00  0.00    -0.377 OA
HETATM    8  N   UNL     1       8.824  12.731   3.053  1.00  0.00    -0.331 N 
ATOM      9  HN  UNL     1       9.306  12.256   2.291  1.00  0.00     0.168 HD
ENDROOT
BRANCH   8  10
HETATM   10  C   UNL     1       7.804  12.036   3.471  1.00  0.00     0.149 C 
HETATM   11  O   UNL     1       7.314  12.483   4.656  1.00  0.00    -0.306 OA
HETATM   12  C   UNL     1       6.277  11.859   5.204  1.00  0.00     0.146 C 
HETATM   13  C   UNL     1       5.541  10.914   4.558  1.00  0.00     0.048 C 
HETATM   14  C   UNL     1       6.024  10.457   3.338  1.00  0.00     0.040 C 
HETATM   15 CL   UNL     1       5.156   9.202   2.508  1.00  0.00    -0.084 Cl
HETATM   16  C   UNL     1       7.167  10.988   2.791  1.00  0.00     0.080 C 
ENDBRANCH   8  10
TORSDOF 1
ENDMDL
MODEL 2
REMARK VINA RESULT:    -5.375     23.996     25.737
REMARK INTER + INTRA:          -6.092
REMARK INTER:                  -5.689
REMARK INTRA:                  -0.404
REMARK UNBOUND:                -0.403
REMARK  1 active torsions:
REMARK  status: ('A' for Active; 'I' for Inactive)
REMARK    1  A    between atoms: C_2  and  N_15 
ROOT
HETATM    1  C   UNL     1       5.080  -4.899  22.982  1.00  0.00     0.176 C 
HETATM    2  N   UNL     1       7.483  -4.952  21.893  1.00  0.00    -0.260 NA
HETATM    3  C   UNL     1       6.563  -6.024  21.572  1.00  0.00     0.263 C 
HETATM    4  H   UNL     1       7.498  -4.116  21.289  1.00  0.00     0.131 HD
HETATM    5  C   UNL     1       6.281  -4.965  23.956  1.00  0.00     0.096 C 
HETATM    6  C   UNL     1       7.473  -4.518  23.178  1.00  0.00     0.061 C 
HETATM    7  O   UNL     1       5.260  -5.563  21.760  1.00  0.00    -0.377 OA
HETATM    8  N   UNL     1       8.450  -3.835  23.643  1.00  0.00    -0.331 N 
ATOM      9  HN  UNL     1       8.930  -4.338  24.388  1.00  0.00     0.168 HD
ENDROOT
BRANCH   8  10
HETATM   10  C   UNL     1       9.002  -2.674  23.427  1.00  0.00     0.149 C 
HETATM   11  O   UNL     1       8.831  -2.240  22.152  1.00  0.00    -0.306 OA
HETATM   12  C   UNL     1       9.351  -1.072  21.791  1.00  0.00     0.146 C 
HETATM   13  C   UNL     1       9.881  -0.181  22.672  1.00  0.00     0.048 C 
HETATM   14  C   UNL     1      10.049  -0.607  23.984  1.00  0.00     0.040 C 
HETATM   15 CL   UNL     1      10.784   0.471  25.130  1.00  0.00    -0.084 Cl
HETATM   16  C   UNL     1       9.638  -1.859  24.374  1.00  0.00     0.080 C 
ENDBRANCH   8  10
TORSDOF 1
ENDMDL
MODEL 3
REMARK VINA RESULT:    -5.240     30.372     31.174
REMARK INTER + INTRA:          -5.950
REMARK INTER:                  -5.547
REMARK INTRA:                  -0.403
REMARK UNBOUND:                -0.403
REMARK  1 active torsions:
REMARK  status: ('A' for Active; 'I' for Inactive)
REMARK    1  A    between atoms: C_2  and  N_15 
ROOT
HETATM    1  C   UNL     1      24.841  -5.982  26.789  1.00  0.00     0.176 C 
HETATM    2  N   UNL     1      23.456  -5.573  24.580  1.00  0.00    -0.260 NA
HETATM    3  C   UNL     1      23.921  -6.917  24.857  1.00  0.00     0.263 C 
HETATM    4  H   UNL     1      22.525  -5.291  24.922  1.00  0.00     0.131 HD
HETATM    5  C   UNL     1      25.441  -4.982  25.770  1.00  0.00     0.096 C 
HETATM    6  C   UNL     1      24.316  -4.568  24.883  1.00  0.00     0.061 C 
HETATM    7  O   UNL     1      24.117  -7.046  26.232  1.00  0.00    -0.377 OA
HETATM    8  N   UNL     1      24.156  -3.401  24.381  1.00  0.00    -0.331 N 
ATOM      9  HN  UNL     1      24.935  -3.152  23.772  1.00  0.00     0.168 HD
ENDROOT
BRANCH   8  10
HETATM   10  C   UNL     1      23.274  -2.444  24.433  1.00  0.00     0.149 C 
HETATM   11  O   UNL     1      22.003  -2.906  24.548  1.00  0.00    -0.306 OA
HETATM   12  C   UNL     1      21.000  -2.036  24.603  1.00  0.00     0.146 C 
HETATM   13  C   UNL     1      21.176  -0.695  24.750  1.00  0.00     0.048 C 
HETATM   14  C   UNL     1      22.473  -0.209  24.648  1.00  0.00     0.040 C 
HETATM   15 CL   UNL     1      22.741   1.503  24.760  1.00  0.00    -0.084 Cl
HETATM   16  C   UNL     1      23.532  -1.066  24.465  1.00  0.00     0.080 C 
ENDBRANCH   8  10
TORSDOF 1
ENDMDL
MODEL 4
REMARK VINA RESULT:    -5.194     31.239     33.086
REMARK INTER + INTRA:          -5.901
REMARK INTER:                  -5.497
REMARK INTRA:                  -0.404
REMARK UNBOUND:                -0.403
REMARK  1 active torsions:
REMARK  status: ('A' for Active; 'I' for Inactive)
REMARK    1  A    between atoms: C_2  and  N_15 
ROOT
HETATM    1  C   UNL     1      -1.445 -15.792   9.125  1.00  0.00     0.176 C 
HETATM    2  N   UNL     1      -0.309 -17.281  10.984  1.00  0.00    -0.260 NA
HETATM    3  C   UNL     1      -1.104 -16.146  11.408  1.00  0.00     0.263 C 
HETATM    4  H   UNL     1      -0.770 -18.197  10.881  1.00  0.00     0.131 HD
HETATM    5  C   UNL     1       0.100 -15.883   9.091  1.00  0.00     0.096 C 
HETATM    6  C   UNL     1       0.462 -17.094   9.883  1.00  0.00     0.061 C 
HETATM    7  O   UNL     1      -2.022 -15.846  10.402  1.00  0.00    -0.377 OA
HETATM    8  N   UNL     1       1.433 -17.887   9.627  1.00  0.00    -0.331 N 
ATOM      9  HN  UNL     1       2.328 -17.400   9.668  1.00  0.00     0.168 HD
ENDROOT
BRANCH   8  10
HETATM   10  C   UNL     1       1.595 -19.145   9.327  1.00  0.00     0.149 C 
HETATM   11  O   UNL     1       0.525 -19.908   9.666  1.00  0.00    -0.306 OA
HETATM   12  C   UNL     1       0.559 -21.213   9.424  1.00  0.00     0.146 C 
HETATM   13  C   UNL     1       1.522 -21.815   8.674  1.00  0.00     0.048 C 
HETATM   14  C   UNL     1       2.617 -21.042   8.308  1.00  0.00     0.040 C 
HETATM   15 CL   UNL     1       3.905 -21.782   7.409  1.00  0.00    -0.084 Cl
HETATM   16  C   UNL     1       2.682 -19.712   8.646  1.00  0.00     0.080 C 
ENDBRANCH   8  10
TORSDOF 1
ENDMDL
MODEL 5
REMARK VINA RESULT:    -5.187     20.063     21.636
REMARK INTER + INTRA:          -5.894
REMARK INTER:                  -5.540
REMARK INTRA:                  -0.354
REMARK UNBOUND:                -0.403
REMARK  1 active torsions:
REMARK  status: ('A' for Active; 'I' for Inactive)
REMARK    1  A    between atoms: C_2  and  N_15 
ROOT
HETATM    1  C   UNL     1       5.112   1.499  19.426  1.00  0.00     0.176 C 
HETATM    2  N   UNL     1       7.438   0.548  18.621  1.00  0.00    -0.260 NA
HETATM    3  C   UNL     1       6.388   0.710  17.636  1.00  0.00     0.263 C 
HETATM    4  H   UNL     1       8.092   1.330  18.779  1.00  0.00     0.131 HD
HETATM    5  C   UNL     1       5.582   0.175  20.076  1.00  0.00     0.096 C 
HETATM    6  C   UNL     1       7.052   0.094  19.839  1.00  0.00     0.061 C 
HETATM    7  O   UNL     1       5.498   1.683  18.090  1.00  0.00    -0.377 OA
HETATM    8  N   UNL     1       7.910  -0.397  20.653  1.00  0.00    -0.331 N 
ATOM      9  HN  UNL     1       7.726  -1.384  20.830  1.00  0.00     0.168 HD
ENDROOT
BRANCH   8  10
HETATM   10  C   UNL     1       8.952   0.015  21.317  1.00  0.00     0.149 C 
HETATM   11  O   UNL     1       9.034   1.368  21.380  1.00  0.00    -0.306 OA
HETATM   12  C   UNL     1      10.055   1.926  22.022  1.00  0.00     0.146 C 
HETATM   13  C   UNL     1      10.929   1.226  22.795  1.00  0.00     0.048 C 
HETATM   14  C   UNL     1      10.848  -0.160  22.751  1.00  0.00     0.040 C 
HETATM   15 CL   UNL     1      11.986  -1.098  23.668  1.00  0.00    -0.084 Cl
HETATM   16  C   UNL     1       9.882  -0.783  21.999  1.00  0.00     0.080 C 
ENDBRANCH   8  10
TORSDOF 1
ENDMDL
MODEL 6
REMARK VINA RESULT:    -5.186      5.041      7.390
REMARK INTER + INTRA:          -5.892
REMARK INTER:                  -5.498
REMARK INTRA:                  -0.394
REMARK UNBOUND:                -0.403
REMARK  1 active torsions:
REMARK  status: ('A' for Active; 'I' for Inactive)
REMARK    1  A    between atoms: C_2  and  N_15 
ROOT
HETATM    1  C   UNL     1       8.734  14.582   3.585  1.00  0.00     0.176 C 
HETATM    2  N   UNL     1       7.779  15.200   1.203  1.00  0.00    -0.260 NA
HETATM    3  C   UNL     1       7.485  13.886   1.739  1.00  0.00     0.263 C 
HETATM    4  H   UNL     1       7.122  15.971   1.394  1.00  0.00     0.131 HD
HETATM    5  C   UNL     1       9.773  14.928   2.491  1.00  0.00     0.096 C 
HETATM    6  C   UNL     1       9.030  15.673   1.433  1.00  0.00     0.061 C 
HETATM    7  O   UNL     1       7.572  13.943   3.130  1.00  0.00    -0.377 OA
HETATM    8  N   UNL     1       9.498  16.640   0.737  1.00  0.00    -0.331 N 
ATOM      9  HN  UNL     1      10.300  16.342   0.184  1.00  0.00     0.168 HD
ENDROOT
BRANCH   8  10
HETATM   10  C   UNL     1       9.233  17.901   0.541  1.00  0.00     0.149 C 
HETATM   11  O   UNL     1       8.016  18.099  -0.026  1.00  0.00    -0.306 OA
HETATM   12  C   UNL     1       7.620  19.339  -0.291  1.00  0.00     0.146 C 
HETATM   13  C   UNL     1       8.274  20.448   0.150  1.00  0.00     0.048 C 
HETATM   14  C   UNL     1       9.515  20.258   0.746  1.00  0.00     0.040 C 
HETATM   15 CL   UNL     1      10.419  21.648   1.264  1.00  0.00    -0.084 Cl
HETATM   16  C   UNL     1      10.021  18.994   0.927  1.00  0.00     0.080 C 
ENDBRANCH   8  10
TORSDOF 1
ENDMDL
MODEL 7
REMARK VINA RESULT:    -5.161     23.148     24.895
REMARK INTER + INTRA:          -5.866
REMARK INTER:                  -5.479
REMARK INTRA:                  -0.388
REMARK UNBOUND:                -0.403
REMARK  1 active torsions:
REMARK  status: ('A' for Active; 'I' for Inactive)
REMARK    1  A    between atoms: C_2  and  N_15 
ROOT
HETATM    1  C   UNL     1       5.768  -5.131  23.858  1.00  0.00     0.176 C 
HETATM    2  N   UNL     1       7.463  -4.855  21.854  1.00  0.00    -0.260 NA
HETATM    3  C   UNL     1       6.922  -6.173  22.116  1.00  0.00     0.263 C 
HETATM    4  H   UNL     1       6.966  -4.238  21.194  1.00  0.00     0.131 HD
HETATM    5  C   UNL     1       7.186  -4.620  24.215  1.00  0.00     0.096 C 
HETATM    6  C   UNL     1       7.775  -4.109  22.944  1.00  0.00     0.061 C 
HETATM    7  O   UNL     1       5.706  -6.030  22.784  1.00  0.00    -0.377 OA
HETATM    8  N   UNL     1       8.554  -3.098  22.839  1.00  0.00    -0.331 N 
ATOM      9  HN  UNL     1       9.415  -3.241  23.365  1.00  0.00     0.168 HD
ENDROOT
BRANCH   8  10
HETATM   10  C   UNL     1       8.550  -1.937  22.248  1.00  0.00     0.149 C 
HETATM   11  O   UNL     1       7.377  -1.674  21.617  1.00  0.00    -0.306 OA
HETATM   12  C   UNL     1       7.237  -0.525  20.964  1.00  0.00     0.146 C 
HETATM   13  C   UNL     1       8.128   0.500  21.048  1.00  0.00     0.048 C 
HETATM   14  C   UNL     1       9.327   0.249  21.703  1.00  0.00     0.040 C 
HETATM   15 CL   UNL     1      10.523   1.505  21.777  1.00  0.00    -0.084 Cl
HETATM   16  C   UNL     1       9.565  -0.972  22.287  1.00  0.00     0.080 C 
ENDBRANCH   8  10
TORSDOF 1
ENDMDL
MODEL 8
REMARK VINA RESULT:    -5.017     23.405     25.147
REMARK INTER + INTRA:          -5.714
REMARK INTER:                  -5.504
REMARK INTRA:                  -0.210
REMARK UNBOUND:                -0.403
REMARK  1 active torsions:
REMARK  status: ('A' for Active; 'I' for Inactive)
REMARK    1  A    between atoms: C_2  and  N_15 
ROOT
HETATM    1  C   UNL     1       5.564  -5.072  23.797  1.00  0.00     0.176 C 
HETATM    2  N   UNL     1       7.526  -4.976  22.035  1.00  0.00    -0.260 NA
HETATM    3  C   UNL     1       6.784  -6.213  22.166  1.00  0.00     0.263 C 
HETATM    4  H   UNL     1       7.206  -4.277  21.348  1.00  0.00     0.131 HD
HETATM    5  C   UNL     1       6.978  -4.773  24.351  1.00  0.00     0.096 C 
HETATM    6  C   UNL     1       7.791  -4.312  23.189  1.00  0.00     0.061 C 
HETATM    7  O   UNL     1       5.522  -5.923  22.683  1.00  0.00    -0.377 OA
HETATM    8  N   UNL     1       8.704  -3.416  23.229  1.00  0.00    -0.331 N 
ATOM      9  HN  UNL     1       9.464  -3.692  23.851  1.00  0.00     0.168 HD
ENDROOT
BRANCH   8  10
HETATM   10  C   UNL     1       8.933  -2.250  22.696  1.00  0.00     0.149 C 
HETATM   11  O   UNL     1      10.235  -1.877  22.787  1.00  0.00    -0.306 OA
HETATM   12  C   UNL     1      10.607  -0.702  22.290  1.00  0.00     0.146 C 
HETATM   13  C   UNL     1       9.804   0.076  21.516  1.00  0.00     0.048 C 
HETATM   14  C   UNL     1       8.472  -0.302  21.402  1.00  0.00     0.040 C 
HETATM   15 CL   UNL     1       7.391   0.697  20.480  1.00  0.00    -0.084 Cl
HETATM   16  C   UNL     1       8.013  -1.448  22.006  1.00  0.00     0.080 C 
ENDBRANCH   8  10
TORSDOF 1
ENDMDL
MODEL 9
REMARK VINA RESULT:    -4.869     31.030     32.916
REMARK INTER + INTRA:          -5.557
REMARK INTER:                  -5.153
REMARK INTRA:                  -0.404
REMARK UNBOUND:                -0.403
REMARK  1 active torsions:
REMARK  status: ('A' for Active; 'I' for Inactive)
REMARK    1  A    between atoms: C_2  and  N_15 
ROOT
HETATM    1  C   UNL     1       1.346 -21.919   8.573  1.00  0.00     0.176 C 
HETATM    2  N   UNL     1       2.679 -19.904   7.511  1.00  0.00    -0.260 NA
HETATM    3  C   UNL     1       3.418 -21.094   7.880  1.00  0.00     0.263 C 
HETATM    4  H   UNL     1       2.300 -19.834   6.555  1.00  0.00     0.131 HD
HETATM    5  C   UNL     1       1.302 -20.576   9.342  1.00  0.00     0.096 C 
HETATM    6  C   UNL     1       1.695 -19.523   8.363  1.00  0.00     0.061 C 
HETATM    7  O   UNL     1       2.541 -22.178   7.886  1.00  0.00    -0.377 OA
HETATM    8  N   UNL     1       1.220 -18.335   8.318  1.00  0.00    -0.331 N 
ATOM      9  HN  UNL     1       1.416 -17.827   9.181  1.00  0.00     0.168 HD
ENDROOT
BRANCH   8  10
HETATM   10  C   UNL     1       0.555 -17.594   7.477  1.00  0.00     0.149 C 
HETATM   11  O   UNL     1       0.674 -18.022   6.194  1.00  0.00    -0.306 OA
HETATM   12  C   UNL     1       0.053 -17.352   5.229  1.00  0.00     0.146 C 
HETATM   13  C   UNL     1      -0.862 -16.373   5.462  1.00  0.00     0.048 C 
HETATM   14  C   UNL     1      -1.004 -15.935   6.773  1.00  0.00     0.040 C 
HETATM   15 CL   UNL     1      -2.110 -14.640   7.111  1.00  0.00    -0.084 Cl
HETATM   16  C   UNL     1      -0.286 -16.517   7.790  1.00  0.00     0.080 C 
ENDBRANCH   8  10
TORSDOF 1
ENDMDL
