FMB(F-240)
  -OEChem-06282412413D

 31 33  0     1  0  0  0  0  0999 V2000
  -19.0344   72.4635   64.6914 N   0  0  0  0  0  0  0  0  0  0  0  0
  -18.0781   72.7217   65.6491 C   0  0  0  0  0  0  0  0  0  0  0  0
  -17.8272   71.9149   66.6811 N   0  0  0  0  0  0  0  0  0  0  0  0
  -18.6202   70.8160   66.6710 C   0  0  0  0  0  0  0  0  0  0  0  0
  -19.5979   70.4724   65.7613 C   0  0  0  0  0  0  0  0  0  0  0  0
  -19.8586   71.3413   64.6698 C   0  0  0  0  0  0  0  0  0  0  0  0
  -20.6820   71.2180   63.7536 O   0  0  0  0  0  0  0  0  0  0  0  0
  -20.1867   69.2606   66.1071 N   0  0  0  0  0  0  0  0  0  0  0  0
  -19.5643   68.8988   67.1950 N   0  0  0  0  0  0  0  0  0  0  0  0
  -18.6006   69.7959   67.5980 C   0  0  0  0  0  0  0  0  0  0  0  0
  -17.9474   69.5131   68.9013 C   0  0  1  0  0  0  0  0  0  0  0  0
  -16.7164   70.3828   69.1723 C   0  0  2  0  0  0  0  0  0  0  0  0
  -15.5743   69.5749   69.2473 O   0  0  0  0  0  0  0  0  0  0  0  0
  -17.0208   71.0838   70.5094 C   0  0  2  0  0  0  0  0  0  0  0  0
  -16.3585   70.5137   71.6339 O   0  0  0  0  0  0  0  0  0  0  0  0
  -18.5159   70.9123   70.6957 C   0  0  2  0  0  0  0  0  0  0  0  0
  -18.8891   69.7371   69.9343 O   0  0  0  0  0  0  0  0  0  0  0  0
  -19.3632   72.0845   70.2653 C   0  0  0  0  0  0  0  0  0  0  0  0
  -20.6899   71.9357   70.7683 O   0  0  0  0  0  0  0  0  0  0  0  0
  -19.1448   73.1323   63.9568 H   0  0  0  0  0  0  0  0  0  0  0  0
  -17.4995   73.6290   65.5591 H   0  0  0  0  0  0  0  0  0  0  0  0
  -20.9207   68.7764   65.6297 H   0  0  0  0  0  0  0  0  0  0  0  0
  -18.9265   73.0139   70.6583 H   0  0  0  0  0  0  0  0  0  0  0  0
  -19.3928   72.1291   69.1662 H   0  0  0  0  0  0  0  0  0  0  0  0
  -17.6297   68.4603   68.9141 H   0  0  0  0  0  0  0  0  0  0  0  0
  -16.6202   71.1384   68.3789 H   0  0  0  0  0  0  0  0  0  0  0  0
  -14.9434   69.9712   69.8373 H   0  0  0  0  0  0  0  0  0  0  0  0
  -16.7839   72.1541   70.4180 H   0  0  0  0  0  0  0  0  0  0  0  0
  -15.4729   70.8529   71.6856 H   0  0  0  0  0  0  0  0  0  0  0  0
  -18.7079   70.7228   71.7625 H   0  0  0  0  0  0  0  0  0  0  0  0
  -21.3004   71.8814   70.0418 H   0  0  0  0  0  0  0  0  0  0  0  0
  1  2  1  0  0  0  0
  1  6  1  0  0  0  0
  1 20  1  0  0  0  0
  2  3  2  0  0  0  0
  2 21  1  0  0  0  0
  3  4  1  0  0  0  0
  4  5  2  0  0  0  0
  4 10  1  0  0  0  0
  5  6  1  0  0  0  0
  5  8  1  0  0  0  0
  6  7  2  0  0  0  0
  8  9  1  0  0  0  0
  8 22  1  0  0  0  0
  9 10  2  0  0  0  0
 10 11  1  0  0  0  0
 11 12  1  0  0  0  0
 11 17  1  0  0  0  0
 11 25  1  0  0  0  0
 12 13  1  0  0  0  0
 12 14  1  0  0  0  0
 12 26  1  0  0  0  0
 13 27  1  0  0  0  0
 14 15  1  0  0  0  0
 14 16  1  0  0  0  0
 14 28  1  0  0  0  0
 15 29  1  0  0  0  0
 16 17  1  0  0  0  0
 16 18  1  0  0  0  0
 16 30  1  0  0  0  0
 18 19  1  0  0  0  0
 18 23  1  0  0  0  0
 18 24  1  0  0  0  0
 19 31  1  0  0  0  0
M  END
> <Chemgauss4>
-12.772419

$$$$
