FMB(F-240)
  -OEChem-06282412413D

 31 33  0     1  0  0  0  0  0999 V2000
  -18.8898   72.3614   65.3031 N   0  0  0  0  0  0  0  0  0  0  0  0
  -17.9334   72.6195   66.2608 C   0  0  0  0  0  0  0  0  0  0  0  0
  -17.6825   71.8127   67.2928 N   0  0  0  0  0  0  0  0  0  0  0  0
  -18.4755   70.7139   67.2827 C   0  0  0  0  0  0  0  0  0  0  0  0
  -19.4532   70.3702   66.3730 C   0  0  0  0  0  0  0  0  0  0  0  0
  -19.7139   71.2391   65.2815 C   0  0  0  0  0  0  0  0  0  0  0  0
  -20.5373   71.1159   64.3653 O   0  0  0  0  0  0  0  0  0  0  0  0
  -20.0420   69.1585   66.7188 N   0  0  0  0  0  0  0  0  0  0  0  0
  -19.4196   68.7967   67.8067 N   0  0  0  0  0  0  0  0  0  0  0  0
  -18.4560   69.6938   68.2097 C   0  0  0  0  0  0  0  0  0  0  0  0
  -17.8027   69.4110   69.5130 C   0  0  1  0  0  0  0  0  0  0  0  0
  -16.5717   70.2806   69.7840 C   0  0  2  0  0  0  0  0  0  0  0  0
  -15.4296   69.4728   69.8590 O   0  0  0  0  0  0  0  0  0  0  0  0
  -16.8761   70.9817   71.1211 C   0  0  2  0  0  0  0  0  0  0  0  0
  -16.2138   70.4115   72.2457 O   0  0  0  0  0  0  0  0  0  0  0  0
  -18.3712   70.8101   71.3074 C   0  0  2  0  0  0  0  0  0  0  0  0
  -18.7444   69.6350   70.5460 O   0  0  0  0  0  0  0  0  0  0  0  0
  -19.2185   71.9824   70.8770 C   0  0  0  0  0  0  0  0  0  0  0  0
  -20.5452   71.8335   71.3800 O   0  0  0  0  0  0  0  0  0  0  0  0
  -19.0001   73.0302   64.5685 H   0  0  0  0  0  0  0  0  0  0  0  0
  -17.3548   73.5268   66.1708 H   0  0  0  0  0  0  0  0  0  0  0  0
  -20.7760   68.6743   66.2414 H   0  0  0  0  0  0  0  0  0  0  0  0
  -18.7818   72.9118   71.2701 H   0  0  0  0  0  0  0  0  0  0  0  0
  -19.2481   72.0270   69.7779 H   0  0  0  0  0  0  0  0  0  0  0  0
  -17.4850   68.3582   69.5258 H   0  0  0  0  0  0  0  0  0  0  0  0
  -16.4755   71.0362   68.9906 H   0  0  0  0  0  0  0  0  0  0  0  0
  -14.7987   69.8690   70.4491 H   0  0  0  0  0  0  0  0  0  0  0  0
  -16.6392   72.0519   71.0297 H   0  0  0  0  0  0  0  0  0  0  0  0
  -15.3282   70.7508   72.2973 H   0  0  0  0  0  0  0  0  0  0  0  0
  -18.5632   70.6207   72.3742 H   0  0  0  0  0  0  0  0  0  0  0  0
  -21.1557   71.7793   70.6535 H   0  0  0  0  0  0  0  0  0  0  0  0
  1  2  1  0  0  0  0
  1  6  1  0  0  0  0
  1 20  1  0  0  0  0
  2  3  2  0  0  0  0
  2 21  1  0  0  0  0
  3  4  1  0  0  0  0
  4  5  2  0  0  0  0
  4 10  1  0  0  0  0
  5  6  1  0  0  0  0
  5  8  1  0  0  0  0
  6  7  2  0  0  0  0
  8  9  1  0  0  0  0
  8 22  1  0  0  0  0
  9 10  2  0  0  0  0
 10 11  1  0  0  0  0
 11 12  1  0  0  0  0
 11 17  1  0  0  0  0
 11 25  1  0  0  0  0
 12 13  1  0  0  0  0
 12 14  1  0  0  0  0
 12 26  1  0  0  0  0
 13 27  1  0  0  0  0
 14 15  1  0  0  0  0
 14 16  1  0  0  0  0
 14 28  1  0  0  0  0
 15 29  1  0  0  0  0
 16 17  1  0  0  0  0
 16 18  1  0  0  0  0
 16 30  1  0  0  0  0
 18 19  1  0  0  0  0
 18 23  1  0  0  0  0
 18 24  1  0  0  0  0
 19 31  1  0  0  0  0
M  END
> <Chemgauss4>
-11.827587

$$$$
