FMB(F-240)
  -OEChem-06282412413D

 31 33  0     1  0  0  0  0  0999 V2000
  -19.1186   72.4024   64.7218 N   0  0  0  0  0  0  0  0  0  0  0  0
  -18.1981   72.6878   65.7066 C   0  0  0  0  0  0  0  0  0  0  0  0
  -17.9384   71.8782   66.7342 N   0  0  0  0  0  0  0  0  0  0  0  0
  -18.6831   70.7468   66.6901 C   0  0  0  0  0  0  0  0  0  0  0  0
  -19.6225   70.3745   65.7518 C   0  0  0  0  0  0  0  0  0  0  0  0
  -19.8932   71.2465   64.6651 C   0  0  0  0  0  0  0  0  0  0  0  0
  -20.6877   71.1010   63.7270 O   0  0  0  0  0  0  0  0  0  0  0  0
  -20.1671   69.1342   66.0671 N   0  0  0  0  0  0  0  0  0  0  0  0
  -19.5567   68.7841   67.1656 N   0  0  0  0  0  0  0  0  0  0  0  0
  -18.6427   69.7158   67.6043 C   0  0  0  0  0  0  0  0  0  0  0  0
  -18.0102   69.4431   68.9199 C   0  0  1  0  0  0  0  0  0  0  0  0
  -16.8248   70.3605   69.2329 C   0  0  2  0  0  0  0  0  0  0  0  0
  -15.6512   69.6010   69.3264 O   0  0  0  0  0  0  0  0  0  0  0  0
  -17.1918   71.0294   70.5707 C   0  0  2  0  0  0  0  0  0  0  0  0
  -16.5337   70.4725   71.7043 O   0  0  0  0  0  0  0  0  0  0  0  0
  -18.6823   70.7919   70.7170 C   0  0  2  0  0  0  0  0  0  0  0  0
  -18.9859   69.6125   69.9316 O   0  0  0  0  0  0  0  0  0  0  0  0
  -19.5682   71.9329   70.2803 C   0  0  0  0  0  0  0  0  0  0  0  0
  -20.8994   71.7208   70.7478 O   0  0  0  0  0  0  0  0  0  0  0  0
  -19.2394   73.0760   63.9933 H   0  0  0  0  0  0  0  0  0  0  0  0
  -17.6569   73.6200   65.6428 H   0  0  0  0  0  0  0  0  0  0  0  0
  -20.8677   68.6258   65.5652 H   0  0  0  0  0  0  0  0  0  0  0  0
  -19.1816   72.8745   70.6961 H   0  0  0  0  0  0  0  0  0  0  0  0
  -19.5726   71.9914   69.1816 H   0  0  0  0  0  0  0  0  0  0  0  0
  -17.6481   68.4047   68.9273 H   0  0  0  0  0  0  0  0  0  0  0  0
  -16.7415   71.1304   68.4519 H   0  0  0  0  0  0  0  0  0  0  0  0
  -15.0527   70.0155   69.9372 H   0  0  0  0  0  0  0  0  0  0  0  0
  -16.9989   72.1100   70.4990 H   0  0  0  0  0  0  0  0  0  0  0  0
  -15.6649   70.8484   71.7826 H   0  0  0  0  0  0  0  0  0  0  0  0
  -18.8923   70.5798   71.7762 H   0  0  0  0  0  0  0  0  0  0  0  0
  -21.4888   71.6507   70.0055 H   0  0  0  0  0  0  0  0  0  0  0  0
  1  2  1  0  0  0  0
  1  6  1  0  0  0  0
  1 20  1  0  0  0  0
  2  3  2  0  0  0  0
  2 21  1  0  0  0  0
  3  4  1  0  0  0  0
  4  5  2  0  0  0  0
  4 10  1  0  0  0  0
  5  6  1  0  0  0  0
  5  8  1  0  0  0  0
  6  7  2  0  0  0  0
  8  9  1  0  0  0  0
  8 22  1  0  0  0  0
  9 10  2  0  0  0  0
 10 11  1  0  0  0  0
 11 12  1  0  0  0  0
 11 17  1  0  0  0  0
 11 25  1  0  0  0  0
 12 13  1  0  0  0  0
 12 14  1  0  0  0  0
 12 26  1  0  0  0  0
 13 27  1  0  0  0  0
 14 15  1  0  0  0  0
 14 16  1  0  0  0  0
 14 28  1  0  0  0  0
 15 29  1  0  0  0  0
 16 17  1  0  0  0  0
 16 18  1  0  0  0  0
 16 30  1  0  0  0  0
 18 19  1  0  0  0  0
 18 23  1  0  0  0  0
 18 24  1  0  0  0  0
 19 31  1  0  0  0  0
M  END
> <Chemgauss4>
-12.671297

$$$$
