stable:False satoms:20 tatoms:24 sratio:0.8333333333333334
  -OEChem-08052417173D

 31 30  0     0  0  0  0  0  0999 V2000
   10.9025    2.5394   25.0364 S   0  0  0  0  0  0  0  0  0  0  0  0
   11.1554    7.3837   25.1133 H   0  0  0  0  0  0  0  0  0  0  0  0
   12.5978    7.5169   27.0590 H   0  0  0  0  0  0  0  0  0  0  0  0
   12.8637    7.4118   24.6720 H   0  0  0  0  0  0  0  0  0  0  0  0
   10.5320    4.9636   23.8231 C   0  0  0  0  0  0  0  0  0  0  0  0
    8.2736    2.0288   23.8165 N   0  3  0  0  0  0  0  0  0  0  0  0
   12.4256    5.7061   23.4256 H   0  0  0  0  0  0  0  0  0  0  0  0
    8.7574    3.2212   23.5981 C   0  0  0  0  0  0  0  0  0  0  0  0
    8.0945    4.0508   22.8273 N   0  0  0  0  0  0  0  0  0  0  0  0
    6.4164    6.0928   23.5321 N   0  3  0  0  0  0  0  0  0  0  0  0
    7.4071    1.7565   23.3982 H   0  0  0  0  0  0  0  0  0  0  0  0
    9.9778    5.5805   23.1300 H   0  0  0  0  0  0  0  0  0  0  0  0
    6.4091    4.6588   21.5872 N   0  0  0  0  0  0  0  0  0  0  0  0
    6.3601    5.5052   22.6250 C   0  0  0  0  0  0  0  0  0  0  0  0
   12.2315    4.7216   24.9443 H   0  0  0  0  0  0  0  0  0  0  0  0
   13.3999    5.9937   26.5464 H   0  0  0  0  0  0  0  0  0  0  0  0
    7.0552    2.4591   21.4872 O   0  0  0  0  0  0  0  0  0  0  0  0
   10.0318    3.7515   24.1151 C   0  0  0  0  0  0  0  0  0  0  0  0
    7.1928    3.5688   21.9368 C   0  0  0  0  0  0  0  0  0  0  0  0
   12.0768    6.8225   25.1586 C   0  0  0  0  0  0  0  0  0  0  0  0
    5.9392    4.7439   20.7317 H   0  0  0  0  0  0  0  0  0  0  0  0
   11.3197    1.5344   23.8723 O   0  0  0  0  0  0  0  0  0  0  0  0
   12.4587    6.5628   26.5296 C   0  0  0  0  0  0  0  0  0  0  0  0
   11.8540    5.5097   24.3164 C   0  0  0  0  0  0  0  0  0  0  0  0
    8.2538    5.0356   22.8964 H   0  0  0  0  0  0  0  0  0  0  0  0
    5.8986    6.9449   23.6088 H   0  0  0  0  0  0  0  0  0  0  0  0
    5.6797    6.1862   22.1355 H   0  0  0  0  0  0  0  0  0  0  0  0
   11.8115    0.8096   24.2402 H   0  0  0  0  0  0  0  0  0  0  0  0
   11.6689    5.9799   27.0260 H   0  0  0  0  0  0  0  0  0  0  0  0
    8.7695    1.3876   24.4020 H   0  0  0  0  0  0  0  0  0  0  0  0
    6.9863    5.7837   24.2935 H   0  0  0  0  0  0  0  0  0  0  0  0
  3 23  1  0  0  0  0
 16 23  1  0  0  0  0
 20 23  1  0  0  0  0
  4 20  1  0  0  0  0
  2 20  1  0  0  0  0
 20 24  1  0  0  0  0
 15 24  1  0  0  0  0
  7 24  1  0  0  0  0
  5 24  1  0  0  0  0
  5 12  1  0  0  0  0
  5 18  2  0  0  0  0
  1 18  1  0  0  0  0
  1 22  1  0  0  0  0
  8 18  1  0  0  0  0
 10 14  2  0  0  0  0
  8  9  1  0  0  0  0
  6  8  2  3  0  0  0
  9 19  1  0  0  0  0
 13 14  1  0  0  0  0
  6 11  1  0  0  0  0
 13 19  1  0  0  0  0
 17 19  2  0  0  0  0
 13 21  1  0  0  0  0
  9 25  1  0  0  0  0
 10 26  1  0  0  0  0
 14 27  1  0  0  0  0
 22 28  1  0  0  0  0
 23 29  1  0  0  0  0
  6 30  1  0  0  0  0
 10 31  1  0  0  0  0
M  CHG  2   6   1  10   1
M  END
> <Chemgauss4>
-5.473574

$$$$
