stable:False satoms:20 tatoms:24 sratio:0.8333333333333334
  -OEChem-08052417173D

 31 30  0     0  0  0  0  0  0999 V2000
   -7.1253    1.9675  -23.9726 S   0  0  0  0  0  0  0  0  0  0  0  0
   -8.4836   -2.2876  -22.0790 H   0  0  0  0  0  0  0  0  0  0  0  0
  -10.2721   -2.6956  -23.6661 H   0  0  0  0  0  0  0  0  0  0  0  0
   -7.9316   -3.2116  -23.4774 H   0  0  0  0  0  0  0  0  0  0  0  0
   -6.6431   -0.1775  -22.3439 C   0  0  0  0  0  0  0  0  0  0  0  0
   -6.0261    3.4081  -21.6539 N   0  3  0  0  0  0  0  0  0  0  0  0
   -6.3110   -1.7927  -23.5992 H   0  0  0  0  0  0  0  0  0  0  0  0
   -6.0991    2.1129  -21.5108 C   0  0  0  0  0  0  0  0  0  0  0  0
   -5.6355    1.5619  -20.4138 N   0  0  0  0  0  0  0  0  0  0  0  0
   -6.9953    0.7508  -18.1832 N   0  3  0  0  0  0  0  0  0  0  0  0
   -5.6203    3.9688  -20.9322 H   0  0  0  0  0  0  0  0  0  0  0  0
   -6.1881   -0.5822  -21.4511 H   0  0  0  0  0  0  0  0  0  0  0  0
   -4.7431    1.5920  -18.4262 N   0  0  0  0  0  0  0  0  0  0  0  0
   -5.9710    1.0987  -18.2145 C   0  0  0  0  0  0  0  0  0  0  0  0
   -7.5188   -0.5517  -24.1598 H   0  0  0  0  0  0  0  0  0  0  0  0
   -9.3061   -1.8744  -24.9385 H   0  0  0  0  0  0  0  0  0  0  0  0
   -4.0034    3.1497  -19.9402 O   0  0  0  0  0  0  0  0  0  0  0  0
   -6.6367    1.1573  -22.4959 C   0  0  0  0  0  0  0  0  0  0  0  0
   -4.7227    2.2241  -19.6609 C   0  0  0  0  0  0  0  0  0  0  0  0
   -8.3026   -2.2353  -23.1423 C   0  0  0  0  0  0  0  0  0  0  0  0
   -3.9823    1.5702  -17.8092 H   0  0  0  0  0  0  0  0  0  0  0  0
   -5.7043    2.3964  -24.5521 O   0  0  0  0  0  0  0  0  0  0  0  0
   -9.5181   -1.9185  -23.8600 C   0  0  0  0  0  0  0  0  0  0  0  0
   -7.1585   -1.1739  -23.3592 C   0  0  0  0  0  0  0  0  0  0  0  0
   -5.9544    0.6564  -20.1339 H   0  0  0  0  0  0  0  0  0  0  0  0
   -7.3396    0.2821  -17.3697 H   0  0  0  0  0  0  0  0  0  0  0  0
   -5.7387    0.7399  -17.2226 H   0  0  0  0  0  0  0  0  0  0  0  0
   -5.8231    2.8579  -25.3739 H   0  0  0  0  0  0  0  0  0  0  0  0
   -9.9004   -0.9442  -23.5214 H   0  0  0  0  0  0  0  0  0  0  0  0
   -6.3760    3.8398  -22.4853 H   0  0  0  0  0  0  0  0  0  0  0  0
   -7.5975    0.8982  -18.9678 H   0  0  0  0  0  0  0  0  0  0  0  0
  3 23  1  0  0  0  0
 16 23  1  0  0  0  0
 20 23  1  0  0  0  0
  4 20  1  0  0  0  0
  2 20  1  0  0  0  0
 20 24  1  0  0  0  0
 15 24  1  0  0  0  0
  7 24  1  0  0  0  0
  5 24  1  0  0  0  0
  5 12  1  0  0  0  0
  5 18  2  0  0  0  0
  1 18  1  0  0  0  0
  1 22  1  0  0  0  0
  8 18  1  0  0  0  0
 10 14  2  0  0  0  0
  8  9  1  0  0  0  0
  6  8  2  3  0  0  0
  9 19  1  0  0  0  0
 13 14  1  0  0  0  0
  6 11  1  0  0  0  0
 13 19  1  0  0  0  0
 17 19  2  0  0  0  0
 13 21  1  0  0  0  0
  9 25  1  0  0  0  0
 10 26  1  0  0  0  0
 14 27  1  0  0  0  0
 22 28  1  0  0  0  0
 23 29  1  0  0  0  0
  6 30  1  0  0  0  0
 10 31  1  0  0  0  0
M  CHG  2   6   1  10   1
M  END
> <Chemgauss4>
-5.797781

$$$$
