MODEL 1
REMARK VINA RESULT:    -6.531      0.000      0.000
REMARK INTER + INTRA:          -8.558
REMARK INTER:                  -8.440
REMARK INTRA:                  -0.118
REMARK UNBOUND:                -0.118
REMARK  5 active torsions:
REMARK  status: ('A' for Active; 'I' for Inactive)
REMARK    1  A    between atoms: N_4  and  N_6 
REMARK    2  A    between atoms: N_6  and  N_9 
REMARK    3  A    between atoms: C_8  and  N_9 
REMARK    4  A    between atoms: N_12  and  N_15 
REMARK    5  A    between atoms: C_14  and  C_17 
ROOT
HETATM    1  C   UNL     1      -0.241 -16.948   9.983  1.00  0.00     0.107 C 
HETATM    2  C   UNL     1      -0.756 -17.120   8.523  1.00  0.00     0.092 C 
HETATM    3  N   UNL     1      -0.812 -16.230  10.886  1.00  0.00    -0.288 N 
ATOM      4  HN  UNL     1      -1.619 -15.767  10.468  1.00  0.00     0.188 HD
ENDROOT
BRANCH   3   5
HETATM    5  N   UNL     1      -0.731 -15.865  12.187  1.00  0.00    -0.308 N 
HETATM    6  C   UNL     1      -1.315 -16.621  12.952  1.00  0.00     0.138 C 
ATOM      7  HN  UNL     1      -0.229 -15.035  12.502  1.00  0.00     0.186 HD
BRANCH   6   8
HETATM    8  C   UNL     1      -1.084 -16.535  14.398  1.00  0.00     0.065 C 
HETATM    9  N   UNL     1       0.117 -16.789  14.790  1.00  0.00    -0.300 N 
HETATM   10  N   UNL     1       0.497 -17.214  15.866  1.00  0.00    -0.311 N 
ATOM     11  HN  UNL     1       0.851 -16.609  14.104  1.00  0.00     0.187 HD
HETATM   12  C   UNL     1      -0.416 -17.115  16.582  1.00  0.00     0.107 C 
ATOM     13  HN  UNL     1       1.421 -17.580  16.093  1.00  0.00     0.186 HD
HETATM   14  C   UNL     1      -1.519 -16.686  16.481  1.00  0.00     0.021 C 
HETATM   15  C   UNL     1      -2.021 -16.269  15.424  1.00  0.00     0.034 C 
ENDBRANCH   6   8
ENDBRANCH   3   5
BRANCH   1  16
HETATM   16  N   UNL     1       0.917 -17.411  10.185  1.00  0.00    -0.273 N 
ATOM     17  HN  UNL     1       1.310 -18.040  10.885  1.00  0.00     0.190 HD
BRANCH  16  18
HETATM   18  N   UNL     1       1.436 -16.754   9.120  1.00  0.00    -0.227 N 
ATOM     19  HN  UNL     1       1.050 -15.870   8.793  1.00  0.00     0.210 HD
BRANCH  18  20
HETATM   20  N   UNL     1       2.421 -17.296   8.559  1.00  0.00    -0.233 N 
HETATM   21  N   UNL     1       2.721 -18.399   9.027  1.00  0.00    -0.325 N 
HETATM   22  C   UNL     1       3.825 -19.208   9.243  1.00  0.00     0.169 C 
ATOM     23  HN  UNL     1       1.880 -18.868   9.365  1.00  0.00     0.181 HD
ATOM     24  HN  UNL     1       2.928 -16.864   7.786  1.00  0.00     0.209 HD
ENDBRANCH  18  20
ENDBRANCH  16  18
ENDBRANCH   1  16
TORSDOF 5
ENDMDL
MODEL 2
REMARK VINA RESULT:    -6.313     20.078     21.322
REMARK INTER + INTRA:          -8.276
REMARK INTER:                  -7.934
REMARK INTRA:                  -0.343
REMARK UNBOUND:                -0.118
REMARK  5 active torsions:
REMARK  status: ('A' for Active; 'I' for Inactive)
REMARK    1  A    between atoms: N_4  and  N_6 
REMARK    2  A    between atoms: N_6  and  N_9 
REMARK    3  A    between atoms: C_8  and  N_9 
REMARK    4  A    between atoms: N_12  and  N_15 
REMARK    5  A    between atoms: C_14  and  C_17 
ROOT
HETATM    1  C   UNL     1       1.654   4.185  18.760  1.00  0.00     0.107 C 
HETATM    2  C   UNL     1       0.229   4.386  19.357  1.00  0.00     0.092 C 
HETATM    3  N   UNL     1       2.478   3.263  19.116  1.00  0.00    -0.288 N 
ATOM      4  HN  UNL     1       2.056   2.728  19.875  1.00  0.00     0.188 HD
ENDROOT
BRANCH   3   5
HETATM    5  N   UNL     1       3.700   2.743  18.851  1.00  0.00    -0.308 N 
HETATM    6  C   UNL     1       4.037   1.850  19.616  1.00  0.00     0.138 C 
ATOM      7  HN  UNL     1       4.287   3.067  18.082  1.00  0.00     0.186 HD
BRANCH   6   8
HETATM    8  C   UNL     1       5.184   0.995  19.296  1.00  0.00     0.065 C 
HETATM    9  N   UNL     1       5.167   0.445  18.130  1.00  0.00    -0.300 N 
HETATM   10  N   UNL     1       5.694  -0.591  17.765  1.00  0.00    -0.311 N 
ATOM     11  HN  UNL     1       4.638   0.946  17.416  1.00  0.00     0.187 HD
HETATM   12  C   UNL     1       6.440  -0.878  18.611  1.00  0.00     0.107 C 
ATOM     13  HN  UNL     1       5.517  -1.100  16.899  1.00  0.00     0.186 HD
HETATM   14  C   UNL     1       6.778  -0.383  19.636  1.00  0.00     0.021 C 
HETATM   15  C   UNL     1       6.279   0.645  20.122  1.00  0.00     0.034 C 
ENDBRANCH   6   8
ENDBRANCH   3   5
BRANCH   1  16
HETATM   16  N   UNL     1       2.047   5.129  18.019  1.00  0.00    -0.273 N 
ATOM     17  HN  UNL     1       2.486   6.031  18.204  1.00  0.00     0.190 HD
BRANCH  16  18
HETATM   18  N   UNL     1       1.665   4.489  16.888  1.00  0.00    -0.227 N 
ATOM     19  HN  UNL     1       0.811   3.934  16.847  1.00  0.00     0.210 HD
BRANCH  18  20
HETATM   20  N   UNL     1       2.422   4.616  15.893  1.00  0.00    -0.233 N 
HETATM   21  N   UNL     1       1.919   5.249  14.960  1.00  0.00    -0.325 N 
HETATM   22  C   UNL     1       1.944   5.320  13.575  1.00  0.00     0.169 C 
ATOM     23  HN  UNL     1       1.275   5.949  15.327  1.00  0.00     0.181 HD
ATOM     24  HN  UNL     1       3.366   4.232  15.860  1.00  0.00     0.209 HD
ENDBRANCH  18  20
ENDBRANCH  16  18
ENDBRANCH   1  16
TORSDOF 5
ENDMDL
MODEL 3
REMARK VINA RESULT:    -6.283     31.536     32.604
REMARK INTER + INTRA:          -8.237
REMARK INTER:                  -7.815
REMARK INTRA:                  -0.423
REMARK UNBOUND:                -0.118
REMARK  5 active torsions:
REMARK  status: ('A' for Active; 'I' for Inactive)
REMARK    1  A    between atoms: N_4  and  N_6 
REMARK    2  A    between atoms: N_6  and  N_9 
REMARK    3  A    between atoms: C_8  and  N_9 
REMARK    4  A    between atoms: N_12  and  N_15 
REMARK    5  A    between atoms: C_14  and  C_17 
ROOT
HETATM    1  C   UNL     1       9.638  14.306   3.587  1.00  0.00     0.107 C 
HETATM    2  C   UNL     1      10.848  14.950   4.328  1.00  0.00     0.092 C 
HETATM    3  N   UNL     1       9.417  13.041   3.501  1.00  0.00    -0.288 N 
ATOM      4  HN  UNL     1      10.185  12.546   3.956  1.00  0.00     0.188 HD
ENDROOT
BRANCH   3   5
HETATM    5  N   UNL     1       8.537  12.127   3.028  1.00  0.00    -0.308 N 
HETATM    6  C   UNL     1       7.865  11.587   3.897  1.00  0.00     0.138 C 
ATOM      7  HN  UNL     1       8.443  11.908   2.036  1.00  0.00     0.186 HD
BRANCH   6   8
HETATM    8  C   UNL     1       6.681  10.802   3.535  1.00  0.00     0.065 C 
HETATM    9  N   UNL     1       6.294   9.936   4.407  1.00  0.00    -0.300 N 
HETATM   10  N   UNL     1       5.675   8.901   4.235  1.00  0.00    -0.311 N 
ATOM     11  HN  UNL     1       6.539  10.146   5.375  1.00  0.00     0.187 HD
HETATM   12  C   UNL     1       5.270   8.955   3.145  1.00  0.00     0.107 C 
ATOM     13  HN  UNL     1       5.541   8.144   4.906  1.00  0.00     0.186 HD
HETATM   14  C   UNL     1       5.309   9.762   2.275  1.00  0.00     0.021 C 
HETATM   15  C   UNL     1       5.943  10.828   2.327  1.00  0.00     0.034 C 
ENDBRANCH   6   8
ENDBRANCH   3   5
BRANCH   1  16
HETATM   16  N   UNL     1       8.968  15.111   2.883  1.00  0.00    -0.273 N 
ATOM     17  HN  UNL     1       8.093  15.615   3.031  1.00  0.00     0.190 HD
BRANCH  16  18
HETATM   18  N   UNL     1       9.851  15.051   1.857  1.00  0.00    -0.227 N 
ATOM     19  HN  UNL     1      10.756  14.592   1.953  1.00  0.00     0.210 HD
BRANCH  18  20
HETATM   20  N   UNL     1       9.493  15.594   0.782  1.00  0.00    -0.233 N 
HETATM   21  N   UNL     1       9.508  16.828   0.814  1.00  0.00    -0.325 N 
HETATM   22  C   UNL     1       8.847  17.923   0.280  1.00  0.00     0.169 C 
ATOM     23  HN  UNL     1      10.250  17.146   1.438  1.00  0.00     0.181 HD
ATOM     24  HN  UNL     1       9.214  15.062  -0.043  1.00  0.00     0.209 HD
ENDBRANCH  18  20
ENDBRANCH  16  18
ENDBRANCH   1  16
TORSDOF 5
ENDMDL
MODEL 4
REMARK VINA RESULT:    -6.058      4.839      7.722
REMARK INTER + INTRA:          -7.948
REMARK INTER:                  -7.522
REMARK INTRA:                  -0.425
REMARK UNBOUND:                -0.118
REMARK  5 active torsions:
REMARK  status: ('A' for Active; 'I' for Inactive)
REMARK    1  A    between atoms: N_4  and  N_6 
REMARK    2  A    between atoms: N_6  and  N_9 
REMARK    3  A    between atoms: C_8  and  N_9 
REMARK    4  A    between atoms: N_12  and  N_15 
REMARK    5  A    between atoms: C_14  and  C_17 
ROOT
HETATM    1  C   UNL     1      -2.196 -16.579  17.716  1.00  0.00     0.107 C 
HETATM    2  C   UNL     1      -3.433 -16.502  16.773  1.00  0.00     0.092 C 
HETATM    3  N   UNL     1      -2.241 -16.887  18.965  1.00  0.00    -0.288 N 
ATOM      4  HN  UNL     1      -3.216 -17.022  19.230  1.00  0.00     0.188 HD
ENDROOT
BRANCH   3   5
HETATM    5  N   UNL     1      -1.465 -17.096  20.055  1.00  0.00    -0.308 N 
HETATM    6  C   UNL     1      -2.088 -17.132  21.108  1.00  0.00     0.138 C 
ATOM      7  HN  UNL     1      -0.454 -17.213  20.004  1.00  0.00     0.186 HD
BRANCH   6   8
HETATM    8  C   UNL     1      -1.449 -17.635  22.329  1.00  0.00     0.065 C 
HETATM    9  N   UNL     1      -0.166 -17.745  22.287  1.00  0.00    -0.300 N 
HETATM   10  N   UNL     1       0.559 -18.495  22.916  1.00  0.00    -0.311 N 
ATOM     11  HN  UNL     1       0.308 -17.117  21.638  1.00  0.00     0.187 HD
HETATM   12  C   UNL     1      -0.107 -18.936  23.763  1.00  0.00     0.107 C 
ATOM     13  HN  UNL     1       1.543 -18.695  22.737  1.00  0.00     0.186 HD
HETATM   14  C   UNL     1      -1.229 -18.779  24.116  1.00  0.00     0.021 C 
HETATM   15  C   UNL     1      -2.064 -18.073  23.526  1.00  0.00     0.034 C 
ENDBRANCH   6   8
ENDBRANCH   3   5
BRANCH   1  16
HETATM   16  N   UNL     1      -1.131 -16.117  17.220  1.00  0.00    -0.273 N 
ATOM     17  HN  UNL     1      -0.673 -15.206  17.261  1.00  0.00     0.190 HD
BRANCH  16  18
HETATM   18  N   UNL     1      -0.829 -17.288  16.610  1.00  0.00    -0.227 N 
ATOM     19  HN  UNL     1      -1.497 -18.056  16.560  1.00  0.00     0.210 HD
BRANCH  18  20
HETATM   20  N   UNL     1       0.321 -17.376  16.111  1.00  0.00    -0.233 N 
HETATM   21  N   UNL     1       0.446 -16.781  15.035  1.00  0.00    -0.325 N 
HETATM   22  C   UNL     1       1.142 -16.863  13.839  1.00  0.00     0.169 C 
ATOM     23  HN  UNL     1      -0.161 -15.962  15.024  1.00  0.00     0.181 HD
ATOM     24  HN  UNL     1       1.081 -17.891  16.553  1.00  0.00     0.209 HD
ENDBRANCH  18  20
ENDBRANCH  16  18
ENDBRANCH   1  16
TORSDOF 5
ENDMDL
MODEL 5
REMARK VINA RESULT:    -6.043     37.419     38.263
REMARK INTER + INTRA:          -7.928
REMARK INTER:                  -7.452
REMARK INTRA:                  -0.476
REMARK UNBOUND:                -0.118
REMARK  5 active torsions:
REMARK  status: ('A' for Active; 'I' for Inactive)
REMARK    1  A    between atoms: N_4  and  N_6 
REMARK    2  A    between atoms: N_6  and  N_9 
REMARK    3  A    between atoms: C_8  and  N_9 
REMARK    4  A    between atoms: N_12  and  N_15 
REMARK    5  A    between atoms: C_14  and  C_17 
ROOT
HETATM    1  C   UNL     1       9.206  18.661   0.397  1.00  0.00     0.107 C 
HETATM    2  C   UNL     1       7.853  19.075  -0.255  1.00  0.00     0.092 C 
HETATM    3  N   UNL     1       9.899  19.404   1.187  1.00  0.00    -0.288 N 
ATOM      4  HN  UNL     1       9.435  20.309   1.271  1.00  0.00     0.188 HD
ENDROOT
BRANCH   3   5
HETATM    5  N   UNL     1      11.019  19.422   1.948  1.00  0.00    -0.308 N 
HETATM    6  C   UNL     1      10.891  20.025   3.006  1.00  0.00     0.138 C 
ATOM      7  HN  UNL     1      11.890  18.973   1.666  1.00  0.00     0.186 HD
BRANCH   6   8
HETATM    8  C   UNL     1      11.901  19.890   4.060  1.00  0.00     0.065 C 
HETATM    9  N   UNL     1      12.713  18.896   3.938  1.00  0.00    -0.300 N 
HETATM   10  N   UNL     1      13.319  18.292   4.804  1.00  0.00    -0.311 N 
ATOM     11  HN  UNL     1      12.869  18.571   2.983  1.00  0.00     0.187 HD
HETATM   12  C   UNL     1      13.226  18.944   5.764  1.00  0.00     0.107 C 
ATOM     13  HN  UNL     1      13.806  17.401   4.709  1.00  0.00     0.186 HD
HETATM   14  C   UNL     1      12.737  19.995   6.021  1.00  0.00     0.021 C 
HETATM   15  C   UNL     1      12.063  20.673   5.228  1.00  0.00     0.034 C 
ENDBRANCH   6   8
ENDBRANCH   3   5
BRANCH   1  16
HETATM   16  N   UNL     1       9.703  17.596  -0.063  1.00  0.00    -0.273 N 
ATOM     17  HN  UNL     1      10.423  17.399  -0.758  1.00  0.00     0.190 HD
BRANCH  16  18
HETATM   18  N   UNL     1       8.915  16.815   0.715  1.00  0.00    -0.227 N 
ATOM     19  HN  UNL     1       8.008  17.134   1.053  1.00  0.00     0.210 HD
BRANCH  18  20
HETATM   20  N   UNL     1       9.365  15.676   0.996  1.00  0.00    -0.233 N 
HETATM   21  N   UNL     1       9.502  15.477   2.207  1.00  0.00    -0.325 N 
HETATM   22  C   UNL     1      10.307  14.781   3.096  1.00  0.00     0.169 C 
ATOM     23  HN  UNL     1       8.789  15.994   2.723  1.00  0.00     0.181 HD
ATOM     24  HN  UNL     1       9.596  14.979   0.288  1.00  0.00     0.209 HD
ENDBRANCH  18  20
ENDBRANCH  16  18
ENDBRANCH   1  16
TORSDOF 5
ENDMDL
MODEL 6
REMARK VINA RESULT:    -5.978     19.114     20.898
REMARK INTER + INTRA:          -7.844
REMARK INTER:                  -7.393
REMARK INTRA:                  -0.451
REMARK UNBOUND:                -0.118
REMARK  5 active torsions:
REMARK  status: ('A' for Active; 'I' for Inactive)
REMARK    1  A    between atoms: N_4  and  N_6 
REMARK    2  A    between atoms: N_6  and  N_9 
REMARK    3  A    between atoms: C_8  and  N_9 
REMARK    4  A    between atoms: N_12  and  N_15 
REMARK    5  A    between atoms: C_14  and  C_17 
ROOT
HETATM    1  C   UNL     1      10.409  -1.128  22.277  1.00  0.00     0.107 C 
HETATM    2  C   UNL     1      11.497  -0.728  23.317  1.00  0.00     0.092 C 
HETATM    3  N   UNL     1       9.875  -0.326  21.424  1.00  0.00    -0.288 N 
ATOM      4  HN  UNL     1      10.252   0.610  21.580  1.00  0.00     0.188 HD
ENDROOT
BRANCH   3   5
HETATM    5  N   UNL     1       8.997  -0.269  20.395  1.00  0.00    -0.308 N 
HETATM    6  C   UNL     1       7.833  -0.117  20.744  1.00  0.00     0.138 C 
ATOM      7  HN  UNL     1       9.279  -0.347  19.418  1.00  0.00     0.186 HD
BRANCH   6   8
HETATM    8  C   UNL     1       6.809   0.253  19.761  1.00  0.00     0.065 C 
HETATM    9  N   UNL     1       7.198   0.293  18.533  1.00  0.00    -0.300 N 
HETATM   10  N   UNL     1       6.750   0.951  17.611  1.00  0.00    -0.311 N 
ATOM     11  HN  UNL     1       7.988  -0.308  18.302  1.00  0.00     0.187 HD
HETATM   12  C   UNL     1       5.728   1.362  17.985  1.00  0.00     0.107 C 
ATOM     13  HN  UNL     1       7.182   1.108  16.700  1.00  0.00     0.186 HD
HETATM   14  C   UNL     1       5.088   1.241  18.979  1.00  0.00     0.021 C 
HETATM   15  C   UNL     1       5.465   0.631  19.992  1.00  0.00     0.034 C 
ENDBRANCH   6   8
ENDBRANCH   3   5
BRANCH   1  16
HETATM   16  N   UNL     1       9.919  -2.279  22.451  1.00  0.00    -0.273 N 
ATOM     17  HN  UNL     1       9.927  -3.138  21.901  1.00  0.00     0.190 HD
BRANCH  16  18
HETATM   18  N   UNL     1       9.377  -1.939  23.645  1.00  0.00    -0.227 N 
ATOM     19  HN  UNL     1       9.714  -1.139  24.180  1.00  0.00     0.210 HD
BRANCH  18  20
HETATM   20  N   UNL     1       8.437  -2.663  24.057  1.00  0.00    -0.233 N 
HETATM   21  N   UNL     1       8.451  -3.810  23.600  1.00  0.00    -0.325 N 
HETATM   22  C   UNL     1       7.587  -4.832  23.239  1.00  0.00     0.169 C 
ATOM     23  HN  UNL     1       9.415  -4.101  23.432  1.00  0.00     0.181 HD
ATOM     24  HN  UNL     1       7.726  -2.334  24.710  1.00  0.00     0.209 HD
ENDBRANCH  18  20
ENDBRANCH  16  18
ENDBRANCH   1  16
TORSDOF 5
ENDMDL
MODEL 7
REMARK VINA RESULT:    -5.947     28.377     29.531
REMARK INTER + INTRA:          -7.804
REMARK INTER:                  -7.626
REMARK INTRA:                  -0.177
REMARK UNBOUND:                -0.118
REMARK  5 active torsions:
REMARK  status: ('A' for Active; 'I' for Inactive)
REMARK    1  A    between atoms: N_4  and  N_6 
REMARK    2  A    between atoms: N_6  and  N_9 
REMARK    3  A    between atoms: C_8  and  N_9 
REMARK    4  A    between atoms: N_12  and  N_15 
REMARK    5  A    between atoms: C_14  and  C_17 
ROOT
HETATM    1  C   UNL     1       5.742   8.632   5.514  1.00  0.00     0.107 C 
HETATM    2  C   UNL     1       4.488   8.330   6.388  1.00  0.00     0.092 C 
HETATM    3  N   UNL     1       5.985   9.758   4.940  1.00  0.00    -0.288 N 
ATOM      4  HN  UNL     1       5.202  10.388   5.118  1.00  0.00     0.188 HD
ENDROOT
BRANCH   3   5
HETATM    5  N   UNL     1       6.900  10.411   4.185  1.00  0.00    -0.308 N 
HETATM    6  C   UNL     1       6.477  11.438   3.671  1.00  0.00     0.138 C 
ATOM      7  HN  UNL     1       7.855  10.078   4.057  1.00  0.00     0.186 HD
BRANCH   6   8
HETATM    8  C   UNL     1       7.407  12.403   3.073  1.00  0.00     0.065 C 
HETATM    9  N   UNL     1       8.643  12.277   3.414  1.00  0.00    -0.300 N 
HETATM   10  N   UNL     1       9.516  13.125   3.451  1.00  0.00    -0.311 N 
ATOM     11  HN  UNL     1       8.929  11.338   3.692  1.00  0.00     0.187 HD
HETATM   12  C   UNL     1       9.089  14.041   2.873  1.00  0.00     0.107 C 
ATOM     13  HN  UNL     1      10.431  13.049   3.895  1.00  0.00     0.186 HD
HETATM   14  C   UNL     1       8.083  14.266   2.283  1.00  0.00     0.021 C 
HETATM   15  C   UNL     1       7.114  13.493   2.218  1.00  0.00     0.034 C 
ENDBRANCH   6   8
ENDBRANCH   3   5
BRANCH   1  16
HETATM   16  N   UNL     1       6.435   7.617   5.227  1.00  0.00    -0.273 N 
ATOM     17  HN  UNL     1       7.435   7.458   5.111  1.00  0.00     0.190 HD
BRANCH  16  18
HETATM   18  N   UNL     1       5.344   6.818   5.132  1.00  0.00    -0.227 N 
ATOM     19  HN  UNL     1       4.610   6.824   5.839  1.00  0.00     0.210 HD
BRANCH  18  20
HETATM   20  N   UNL     1       5.288   6.070   4.124  1.00  0.00    -0.233 N 
HETATM   21  N   UNL     1       4.473   6.438   3.272  1.00  0.00    -0.325 N 
HETATM   22  C   UNL     1       3.620   5.921   2.310  1.00  0.00     0.169 C 
ATOM     23  HN  UNL     1       4.406   7.456   3.278  1.00  0.00     0.181 HD
ATOM     24  HN  UNL     1       5.863   5.235   4.019  1.00  0.00     0.209 HD
ENDBRANCH  18  20
ENDBRANCH  16  18
ENDBRANCH   1  16
TORSDOF 5
ENDMDL
MODEL 8
REMARK VINA RESULT:    -5.927     35.082     36.051
REMARK INTER + INTRA:          -7.778
REMARK INTER:                  -7.364
REMARK INTRA:                  -0.414
REMARK UNBOUND:                -0.118
REMARK  5 active torsions:
REMARK  status: ('A' for Active; 'I' for Inactive)
REMARK    1  A    between atoms: N_4  and  N_6 
REMARK    2  A    between atoms: N_6  and  N_9 
REMARK    3  A    between atoms: C_8  and  N_9 
REMARK    4  A    between atoms: N_12  and  N_15 
REMARK    5  A    between atoms: C_14  and  C_17 
ROOT
HETATM    1  C   UNL     1       8.744  18.097   0.300  1.00  0.00     0.107 C 
HETATM    2  C   UNL     1       8.095  19.405  -0.241  1.00  0.00     0.092 C 
HETATM    3  N   UNL     1       8.092  17.094   0.774  1.00  0.00    -0.288 N 
ATOM      4  HN  UNL     1       7.098  17.324   0.774  1.00  0.00     0.188 HD
ENDROOT
BRANCH   3   5
HETATM    5  N   UNL     1       8.244  15.844   1.274  1.00  0.00    -0.308 N 
HETATM    6  C   UNL     1       7.987  15.751   2.466  1.00  0.00     0.138 C 
ATOM      7  HN  UNL     1       8.545  15.052   0.706  1.00  0.00     0.186 HD
BRANCH   6   8
HETATM    8  C   UNL     1       7.818  14.433   3.087  1.00  0.00     0.065 C 
HETATM    9  N   UNL     1       8.905  13.780   3.321  1.00  0.00    -0.300 N 
HETATM   10  N   UNL     1       9.072  12.576   3.400  1.00  0.00    -0.311 N 
ATOM     11  HN  UNL     1       9.739  14.350   3.461  1.00  0.00     0.187 HD
HETATM   12  C   UNL     1       8.005  12.115   3.472  1.00  0.00     0.107 C 
ATOM     13  HN  UNL     1       9.961  12.076   3.402  1.00  0.00     0.186 HD
HETATM   14  C   UNL     1       6.903  12.555   3.518  1.00  0.00     0.021 C 
HETATM   15  C   UNL     1       6.616  13.757   3.405  1.00  0.00     0.034 C 
ENDBRANCH   6   8
ENDBRANCH   3   5
BRANCH   1  16
HETATM   16  N   UNL     1       9.997  18.154   0.437  1.00  0.00    -0.273 N 
ATOM     17  HN  UNL     1      10.782  17.845  -0.137  1.00  0.00     0.190 HD
BRANCH  16  18
HETATM   18  N   UNL     1       9.905  18.781   1.634  1.00  0.00    -0.227 N 
ATOM     19  HN  UNL     1       9.073  18.703   2.218  1.00  0.00     0.210 HD
BRANCH  18  20
HETATM   20  N   UNL     1      10.900  19.463   1.985  1.00  0.00    -0.233 N 
HETATM   21  N   UNL     1      11.370  19.137   3.079  1.00  0.00    -0.325 N 
HETATM   22  C   UNL     1      12.021  19.685   4.174  1.00  0.00     0.169 C 
ATOM     23  HN  UNL     1      11.237  18.136   3.225  1.00  0.00     0.181 HD
ATOM     24  HN  UNL     1      11.285  20.217   1.417  1.00  0.00     0.209 HD
ENDBRANCH  18  20
ENDBRANCH  16  18
ENDBRANCH   1  16
TORSDOF 5
ENDMDL
MODEL 9
REMARK VINA RESULT:    -5.876     24.070     26.014
REMARK INTER + INTRA:          -7.711
REMARK INTER:                  -7.183
REMARK INTRA:                  -0.529
REMARK UNBOUND:                -0.118
REMARK  5 active torsions:
REMARK  status: ('A' for Active; 'I' for Inactive)
REMARK    1  A    between atoms: N_4  and  N_6 
REMARK    2  A    between atoms: N_6  and  N_9 
REMARK    3  A    between atoms: C_8  and  N_9 
REMARK    4  A    between atoms: N_12  and  N_15 
REMARK    5  A    between atoms: C_14  and  C_17 
ROOT
HETATM    1  C   UNL     1      22.102 -17.688  25.943  1.00  0.00     0.107 C 
HETATM    2  C   UNL     1      22.919 -16.510  26.553  1.00  0.00     0.092 C 
HETATM    3  N   UNL     1      22.493 -18.424  24.962  1.00  0.00    -0.288 N 
ATOM      4  HN  UNL     1      23.394 -18.075  24.635  1.00  0.00     0.188 HD
ENDROOT
BRANCH   3   5
HETATM    5  N   UNL     1      22.145 -19.492  24.206  1.00  0.00    -0.308 N 
HETATM    6  C   UNL     1      22.510 -20.566  24.666  1.00  0.00     0.138 C 
ATOM      7  HN  UNL     1      21.625 -19.410  23.333  1.00  0.00     0.186 HD
BRANCH   6   8
HETATM    8  C   UNL     1      21.970 -21.821  24.134  1.00  0.00     0.065 C 
HETATM    9  N   UNL     1      21.764 -21.850  22.862  1.00  0.00    -0.300 N 
HETATM   10  N   UNL     1      20.966 -22.519  22.231  1.00  0.00    -0.311 N 
ATOM     11  HN  UNL     1      22.350 -21.225  22.307  1.00  0.00     0.187 HD
HETATM   12  C   UNL     1      20.582 -23.330  22.973  1.00  0.00     0.107 C 
ATOM     13  HN  UNL     1      20.691 -22.395  21.256  1.00  0.00     0.186 HD
HETATM   14  C   UNL     1      20.825 -23.621  24.098  1.00  0.00     0.021 C 
HETATM   15  C   UNL     1      21.587 -22.985  24.843  1.00  0.00     0.034 C 
ENDBRANCH   6   8
ENDBRANCH   3   5
BRANCH   1  16
HETATM   16  N   UNL     1      20.908 -17.759  26.346  1.00  0.00    -0.273 N 
ATOM     17  HN  UNL     1      20.018 -17.433  25.970  1.00  0.00     0.190 HD
BRANCH  16  18
HETATM   18  N   UNL     1      21.259 -18.433  27.468  1.00  0.00    -0.227 N 
ATOM     19  HN  UNL     1      21.944 -18.063  28.125  1.00  0.00     0.210 HD
BRANCH  18  20
HETATM   20  N   UNL     1      20.692 -19.539  27.653  1.00  0.00    -0.233 N 
HETATM   21  N   UNL     1      20.777 -19.957  28.812  1.00  0.00    -0.325 N 
HETATM   22  C   UNL     1      20.850 -21.147  29.521  1.00  0.00     0.169 C 
ATOM     23  HN  UNL     1      20.800 -19.170  29.460  1.00  0.00     0.181 HD
ATOM     24  HN  UNL     1      20.206 -20.046  26.914  1.00  0.00     0.209 HD
ENDBRANCH  18  20
ENDBRANCH  16  18
ENDBRANCH   1  16
TORSDOF 5
ENDMDL
