stable:False satoms:18 tatoms:24 sratio:0.75
  -OEChem-08052413543D

 27 27  0     1  0  0  0  0  0999 V2000
  -13.4165   -0.5228  -24.6075 O   0  0  0  0  0  0  0  0  0  0  0  0
   -8.8287   -3.0542  -26.8002 H   0  0  0  0  0  0  0  0  0  0  0  0
  -12.2345   -0.6094  -23.7949 S   0  0  0  0  0  0  0  0  0  0  0  0
  -11.6019    1.8607  -24.0218 C   0  0  1  0  0  0  0  0  0  0  0  0
  -11.8431    0.8963  -22.8372 C   0  0  2  0  0  0  0  0  0  0  0  0
  -10.5127    1.8428  -21.5748 H   0  0  0  0  0  0  0  0  0  0  0  0
  -11.6895    3.8873  -22.7437 N   0  0  0  0  0  0  0  0  0  0  0  0
   -9.9272   -0.8726  -25.5036 C   0  0  0  0  0  0  0  0  0  0  0  0
   -9.7143    3.2801  -23.5970 O   0  0  0  0  0  0  0  0  0  0  0  0
  -12.4584    3.4328  -22.3025 H   0  0  0  0  0  0  0  0  0  0  0  0
   -8.9204   -1.2826  -25.8300 O   0  0  0  0  0  0  0  0  0  0  0  0
  -10.8773    3.0735  -23.4541 C   0  0  0  0  0  0  0  0  0  0  0  0
  -12.5373    2.1166  -24.5104 H   0  0  0  0  0  0  0  0  0  0  0  0
  -10.6510    0.0633  -21.3734 H   0  0  0  0  0  0  0  0  0  0  0  0
   -8.9879   -2.7185  -25.7915 C   0  0  0  0  0  0  0  0  0  0  0  0
  -12.6935    1.1063  -22.1906 H   0  0  0  0  0  0  0  0  0  0  0  0
   -9.9164   -3.1161  -25.4115 H   0  0  0  0  0  0  0  0  0  0  0  0
   -8.1857   -3.0554  -25.1518 H   0  0  0  0  0  0  0  0  0  0  0  0
  -11.4151    4.8356  -22.6546 H   0  0  0  0  0  0  0  0  0  0  0  0
  -10.8299   -0.1857  -24.9173 C   0  0  0  0  0  0  0  0  0  0  0  0
  -10.6304    0.8856  -22.1038 C   0  0  0  0  0  0  0  0  0  0  0  0
  -10.8914    1.4715  -25.9605 H   0  0  0  0  0  0  0  0  0  0  0  0
  -10.6974    1.1236  -24.9351 C   0  0  3  0  0  0  0  0  0  0  0  0
  -12.0862   -1.7595  -22.9703 O   0  0  0  0  0  0  0  0  0  0  0  0
  -10.5646   -1.4980  -26.1110 H   0  0  0  0  0  0  0  0  0  0  0  0
   -9.7859    0.7420  -22.7939 H   0  0  0  0  0  0  0  0  0  0  0  0
   -9.6611    1.3648  -24.6560 H   0  0  0  0  0  0  0  0  0  0  0  0
  3 24  2  0  0  0  0
  5 16  1  0  0  0  0
  1  3  2  0  0  0  0
  3  5  1  0  0  0  0
  3 20  1  0  0  0  0
  5 21  1  0  0  0  0
  4  5  1  0  0  0  0
  6 21  1  0  0  0  0
  7 10  1  0  0  0  0
 14 21  1  0  0  0  0
  4 13  1  0  0  0  0
 15 17  1  0  0  0  0
  7 19  1  0  0  0  0
  7 12  1  0  0  0  0
  4 12  1  0  0  0  0
  4 23  1  0  0  0  0
 20 23  1  0  0  0  0
  8 20  2  3  0  0  0
  9 12  2  0  0  0  0
 22 23  1  0  0  0  0
  8 11  1  0  0  0  0
 15 18  1  0  0  0  0
  2 15  1  0  0  0  0
 11 15  1  0  0  0  0
  8 25  1  0  0  0  0
 21 26  1  0  0  0  0
 23 27  1  0  0  0  0
M  END
> <Chemgauss4>
-5.088729

$$$$
