stable:False satoms:18 tatoms:24 sratio:0.75
  -OEChem-08052413543D

 27 27  0     1  0  0  0  0  0999 V2000
   13.0908   -0.4664   24.3575 O   0  0  0  0  0  0  0  0  0  0  0  0
    8.5030   -2.9978   26.5502 H   0  0  0  0  0  0  0  0  0  0  0  0
   11.9088   -0.5530   23.5449 S   0  0  0  0  0  0  0  0  0  0  0  0
   11.2762    1.9171   23.7718 C   0  0  1  0  0  0  0  0  0  0  0  0
   11.5174    0.9527   22.5872 C   0  0  2  0  0  0  0  0  0  0  0  0
   10.1870    1.8992   21.3248 H   0  0  0  0  0  0  0  0  0  0  0  0
   11.3638    3.9437   22.4937 N   0  0  0  0  0  0  0  0  0  0  0  0
    9.6015   -0.8161   25.2536 C   0  0  0  0  0  0  0  0  0  0  0  0
    9.3887    3.3365   23.3470 O   0  0  0  0  0  0  0  0  0  0  0  0
   12.1327    3.4892   22.0525 H   0  0  0  0  0  0  0  0  0  0  0  0
    8.5947   -1.2262   25.5800 O   0  0  0  0  0  0  0  0  0  0  0  0
   10.5516    3.1299   23.2041 C   0  0  0  0  0  0  0  0  0  0  0  0
   12.2116    2.1730   24.2604 H   0  0  0  0  0  0  0  0  0  0  0  0
   10.3253    0.1197   21.1234 H   0  0  0  0  0  0  0  0  0  0  0  0
    8.6622   -2.6621   25.5415 C   0  0  0  0  0  0  0  0  0  0  0  0
   12.3678    1.1627   21.9406 H   0  0  0  0  0  0  0  0  0  0  0  0
    9.5907   -3.0597   25.1615 H   0  0  0  0  0  0  0  0  0  0  0  0
    7.8600   -2.9990   24.9018 H   0  0  0  0  0  0  0  0  0  0  0  0
   11.0894    4.8921   22.4046 H   0  0  0  0  0  0  0  0  0  0  0  0
   10.5042   -0.1293   24.6673 C   0  0  0  0  0  0  0  0  0  0  0  0
   10.3047    0.9420   21.8538 C   0  0  0  0  0  0  0  0  0  0  0  0
   10.5657    1.5279   25.7105 H   0  0  0  0  0  0  0  0  0  0  0  0
   10.3717    1.1800   24.6851 C   0  0  3  0  0  0  0  0  0  0  0  0
   11.7605   -1.7031   22.7203 O   0  0  0  0  0  0  0  0  0  0  0  0
   10.2389   -1.4416   25.8610 H   0  0  0  0  0  0  0  0  0  0  0  0
    9.4603    0.7984   22.5439 H   0  0  0  0  0  0  0  0  0  0  0  0
    9.3354    1.4212   24.4060 H   0  0  0  0  0  0  0  0  0  0  0  0
  3 24  2  0  0  0  0
  5 16  1  0  0  0  0
  1  3  2  0  0  0  0
  3  5  1  0  0  0  0
  3 20  1  0  0  0  0
  5 21  1  0  0  0  0
  4  5  1  0  0  0  0
  6 21  1  0  0  0  0
  7 10  1  0  0  0  0
 14 21  1  0  0  0  0
  4 13  1  0  0  0  0
 15 17  1  0  0  0  0
  7 19  1  0  0  0  0
  7 12  1  0  0  0  0
  4 12  1  0  0  0  0
  4 23  1  0  0  0  0
 20 23  1  0  0  0  0
  8 20  2  3  0  0  0
  9 12  2  0  0  0  0
 22 23  1  0  0  0  0
  8 11  1  0  0  0  0
 15 18  1  0  0  0  0
  2 15  1  0  0  0  0
 11 15  1  0  0  0  0
  8 25  1  0  0  0  0
 21 26  1  0  0  0  0
 23 27  1  0  0  0  0
M  END
> <Chemgauss4>
-5.080472

$$$$
