REMARK  4 active torsions:
REMARK  status: ('A' for Active; 'I' for Inactive)
REMARK    1  A    between atoms: C_2  and  C_5 
REMARK    2  A    between atoms: C_6  and  N_7 
REMARK    3  A    between atoms: C_12  and  O_14 
REMARK    4  A    between atoms: O_14  and  C_16 
ROOT
HETATM    1  N   UNL     1       8.730  -1.417  22.895  1.00  0.00    -0.330 N 
HETATM    2  C   UNL     1       9.727  -1.732  23.731  1.00  0.00     0.115 C 
HETATM    3  C   UNL     1      10.803  -0.990  23.203  1.00  0.00     0.159 C 
HETATM    4  C   UNL     1      10.350  -0.414  21.993  1.00  0.00     0.120 C 
HETATM    5  H   UNL     1       7.787  -1.510  23.213  1.00  0.00     0.168 HD
HETATM    6  C   UNL     1       9.013  -0.795  21.744  1.00  0.00     0.167 C 
HETATM    7 CL   UNL     1      10.991   0.821  21.012  1.00  0.00    -0.077 Cl
ENDROOT
BRANCH   2   8
HETATM    8  C   UNL     1       9.459  -2.656  24.890  1.00  0.00     0.174 C 
HETATM    9  O   UNL     1      10.287  -2.949  25.723  1.00  0.00    -0.291 OA
HETATM   10  C   UNL     1       8.120  -3.243  25.159  1.00  0.00     0.098 C 
ENDBRANCH   2   8
BRANCH   3  11
HETATM   11  N   UNL     1      12.123  -0.834  23.681  1.00  0.00    -0.111 N 
HETATM   12  O   UNL     1      12.971  -0.526  22.869  1.00  0.00    -0.532 OA
HETATM   13  O   UNL     1      12.414  -1.265  24.731  1.00  0.00    -0.532 OA
ENDBRANCH   3  11
BRANCH   6  14
HETATM   14  O   UNL     1       8.229  -0.684  20.660  1.00  0.00    -0.335 OA
BRANCH  14  15
HETATM   15  C   UNL     1       7.029   0.097  20.726  1.00  0.00     0.173 C 
HETATM   16  C   UNL     1       6.274   0.028  19.419  1.00  0.00     0.034 C 
ENDBRANCH  14  15
ENDBRANCH   6  14
TORSDOF 4
