stable:False satoms:20 tatoms:24 sratio:0.8333333333333334
  -OEChem-07092417353D

 24 24  0     0  0  0  0  0  0999 V2000
    7.5814   -3.7851   24.4092 H   0  0  0  0  0  0  0  0  0  0  0  0
    7.4804   -2.4583   25.5165 H   0  0  0  0  0  0  0  0  0  0  0  0
    8.2585   -3.9699   25.9715 H   0  0  0  0  0  0  0  0  0  0  0  0
   10.2865   -2.9494   25.7227 O   0  0  0  0  0  0  0  0  0  0  0  0
    9.4586   -2.6564   24.8899 C   0  0  0  0  0  0  0  0  0  0  0  0
    8.1205   -3.2428   25.1591 C   0  0  0  0  0  0  0  0  0  0  0  0
    8.7299   -1.4166   22.8947 N   0  0  0  0  0  0  0  0  0  0  0  0
    9.7271   -1.7322   23.7311 C   0  0  0  0  0  0  0  0  0  0  0  0
   10.8030   -0.9897   23.2030 C   0  0  0  0  0  0  0  0  0  0  0  0
   12.1234   -0.8339   23.6806 N   0  0  0  0  0  0  0  0  0  0  0  0
   12.4142   -1.2648   24.7313 O   0  0  0  0  0  0  0  0  0  0  0  0
   12.9707   -0.5263   22.8693 O   0  0  0  0  0  0  0  0  0  0  0  0
   10.3502   -0.4142   21.9932 C   0  0  0  0  0  0  0  0  0  0  0  0
    7.7875   -1.5100   23.2126 H   0  0  0  0  0  0  0  0  0  0  0  0
    9.0126   -0.7949   21.7442 C   0  0  0  0  0  0  0  0  0  0  0  0
   10.9913    0.8210   21.0124 Cl  0  0  0  0  0  0  0  0  0  0  0  0
    6.4901   -0.2684   21.5942 H   0  0  0  0  0  0  0  0  0  0  0  0
    8.2287   -0.6840   20.6599 O   0  0  0  0  0  0  0  0  0  0  0  0
    6.2738    0.0275   19.4191 C   0  0  0  0  0  0  0  0  0  0  0  0
    6.9381   -0.0057   18.5671 H   0  0  0  0  0  0  0  0  0  0  0  0
    5.6018   -0.8078   19.3547 H   0  0  0  0  0  0  0  0  0  0  0  0
    7.2334    1.1526   20.8371 H   0  0  0  0  0  0  0  0  0  0  0  0
    5.6939    0.9219   19.3973 H   0  0  0  0  0  0  0  0  0  0  0  0
    7.0285    0.0971   20.7261 C   0  0  0  0  0  0  0  0  0  0  0  0
 19 20  1  0  0  0  0
 19 21  1  0  0  0  0
 19 23  1  0  0  0  0
 19 24  1  0  0  0  0
 18 24  1  0  0  0  0
 15 18  1  0  0  0  0
 22 24  1  0  0  0  0
 17 24  1  0  0  0  0
 13 16  1  0  0  0  0
 13 15  2  0  0  0  0
  7 15  1  0  0  0  0
  9 13  1  0  0  0  0
 10 12  2  0  0  0  0
  7 14  1  0  0  0  0
  7  8  1  0  0  0  0
  9 10  1  0  0  0  0
  8  9  2  0  0  0  0
 10 11  2  0  0  0  0
  5  8  1  0  0  0  0
  1  6  1  0  0  0  0
  5  6  1  0  0  0  0
  4  5  2  0  0  0  0
  2  6  1  0  0  0  0
  3  6  1  0  0  0  0
M  END
> <Shapegauss>
-146.886475

$$$$
