MODEL 1
REMARK VINA RESULT:    -5.480      0.000      0.000
REMARK INTER + INTRA:          -6.884
REMARK INTER:                  -6.761
REMARK INTRA:                  -0.123
REMARK UNBOUND:                -0.123
REMARK  4 active torsions:
REMARK  status: ('A' for Active; 'I' for Inactive)
REMARK    1  A    between atoms: C_2  and  C_5 
REMARK    2  A    between atoms: C_6  and  N_7 
REMARK    3  A    between atoms: C_12  and  O_14 
REMARK    4  A    between atoms: O_14  and  C_16 
ROOT
HETATM    1  N   UNL     1       9.372  -2.619  23.248  1.00  0.00    -0.330 N 
HETATM    2  C   UNL     1      10.035  -1.597  22.692  1.00  0.00     0.115 C 
HETATM    3  C   UNL     1       9.044  -1.004  21.884  1.00  0.00     0.159 C 
HETATM    4  C   UNL     1       7.910  -1.848  21.939  1.00  0.00     0.120 C 
HETATM    5  H   UNL     1       9.705  -2.997  24.111  1.00  0.00     0.168 HD
HETATM    6  C   UNL     1       8.178  -2.969  22.754  1.00  0.00     0.167 C 
HETATM    7 CL   UNL     1       6.290  -1.606  21.475  1.00  0.00    -0.077 Cl
ENDROOT
BRANCH   2   8
HETATM    8  C   UNL     1      11.478  -1.363  23.058  1.00  0.00     0.174 C 
HETATM    9  O   UNL     1      12.408  -1.924  22.523  1.00  0.00    -0.291 OA
HETATM   10  C   UNL     1      11.899  -0.360  24.070  1.00  0.00     0.098 C 
ENDBRANCH   2   8
BRANCH   3  11
HETATM   11  N   UNL     1       9.093   0.167  21.096  1.00  0.00    -0.111 N 
HETATM   12  O   UNL     1       8.607   0.105  19.985  1.00  0.00    -0.532 OA
HETATM   13  O   UNL     1       9.817   1.038  21.395  1.00  0.00    -0.532 OA
ENDBRANCH   3  11
BRANCH   6  14
HETATM   14  O   UNL     1       7.520  -4.123  22.948  1.00  0.00    -0.335 OA
BRANCH  14  15
HETATM   15  C   UNL     1       7.024  -4.858  21.821  1.00  0.00     0.173 C 
HETATM   16  C   UNL     1       6.985  -6.338  22.124  1.00  0.00     0.034 C 
ENDBRANCH  14  15
ENDBRANCH   6  14
TORSDOF 4
ENDMDL
MODEL 2
REMARK VINA RESULT:    -5.457      1.907      3.790
REMARK INTER + INTRA:          -6.856
REMARK INTER:                  -6.581
REMARK INTRA:                  -0.275
REMARK UNBOUND:                -0.123
REMARK  4 active torsions:
REMARK  status: ('A' for Active; 'I' for Inactive)
REMARK    1  A    between atoms: C_2  and  C_5 
REMARK    2  A    between atoms: C_6  and  N_7 
REMARK    3  A    between atoms: C_12  and  O_14 
REMARK    4  A    between atoms: O_14  and  C_16 
ROOT
HETATM    1  N   UNL     1      10.228  -0.588  21.551  1.00  0.00    -0.330 N 
HETATM    2  C   UNL     1      10.538  -1.268  22.662  1.00  0.00     0.115 C 
HETATM    3  C   UNL     1       9.296  -1.828  23.024  1.00  0.00     0.159 C 
HETATM    4  C   UNL     1       8.329  -1.285  22.145  1.00  0.00     0.120 C 
HETATM    5  H   UNL     1      10.952  -0.385  20.893  1.00  0.00     0.168 HD
HETATM    6  C   UNL     1       8.941  -0.382  21.248  1.00  0.00     0.167 C 
HETATM    7 CL   UNL     1       6.723  -1.734  21.805  1.00  0.00    -0.077 Cl
ENDROOT
BRANCH   2   8
HETATM    8  C   UNL     1      11.962  -1.279  23.152  1.00  0.00     0.174 C 
HETATM    9  O   UNL     1      12.822  -2.005  22.706  1.00  0.00    -0.291 OA
HETATM   10  C   UNL     1      12.464  -0.341  24.189  1.00  0.00     0.098 C 
ENDBRANCH   2   8
BRANCH   3  11
HETATM   11  N   UNL     1       8.968  -2.717  24.071  1.00  0.00    -0.111 N 
HETATM   12  O   UNL     1       8.519  -3.799  23.755  1.00  0.00    -0.532 OA
HETATM   13  O   UNL     1       8.865  -2.311  25.165  1.00  0.00    -0.532 OA
ENDBRANCH   3  11
BRANCH   6  14
HETATM   14  O   UNL     1       8.437   0.517  20.387  1.00  0.00    -0.335 OA
BRANCH  14  15
HETATM   15  C   UNL     1       7.842   0.073  19.161  1.00  0.00     0.173 C 
HETATM   16  C   UNL     1       6.493   0.722  18.956  1.00  0.00     0.034 C 
ENDBRANCH  14  15
ENDBRANCH   6  14
TORSDOF 4
ENDMDL
MODEL 3
REMARK VINA RESULT:    -5.382      3.246      3.964
REMARK INTER + INTRA:          -6.764
REMARK INTER:                  -6.441
REMARK INTRA:                  -0.323
REMARK UNBOUND:                -0.123
REMARK  4 active torsions:
REMARK  status: ('A' for Active; 'I' for Inactive)
REMARK    1  A    between atoms: C_2  and  C_5 
REMARK    2  A    between atoms: C_6  and  N_7 
REMARK    3  A    between atoms: C_12  and  O_14 
REMARK    4  A    between atoms: O_14  and  C_16 
ROOT
HETATM    1  N   UNL     1       9.992  -0.484  21.700  1.00  0.00    -0.330 N 
HETATM    2  C   UNL     1      10.757  -0.009  22.689  1.00  0.00     0.115 C 
HETATM    3  C   UNL     1      10.149   1.233  22.965  1.00  0.00     0.159 C 
HETATM    4  C   UNL     1       9.149   1.427  21.983  1.00  0.00     0.120 C 
HETATM    5  H   UNL     1       9.964  -1.471  21.543  1.00  0.00     0.168 HD
HETATM    6  C   UNL     1       9.131   0.337  21.086  1.00  0.00     0.167 C 
HETATM    7 CL   UNL     1       7.851   2.524  21.885  1.00  0.00    -0.077 Cl
ENDROOT
BRANCH   2   8
HETATM    8  C   UNL     1      11.904  -0.839  23.204  1.00  0.00     0.174 C 
HETATM    9  O   UNL     1      12.203  -1.924  22.759  1.00  0.00    -0.291 OA
HETATM   10  C   UNL     1      12.825  -0.366  24.270  1.00  0.00     0.098 C 
ENDBRANCH   2   8
BRANCH   3  11
HETATM   11  N   UNL     1      10.442   2.188  23.963  1.00  0.00    -0.111 N 
HETATM   12  O   UNL     1       9.605   2.359  24.826  1.00  0.00    -0.532 OA
HETATM   13  O   UNL     1      11.302   2.964  23.788  1.00  0.00    -0.532 OA
ENDBRANCH   3  11
BRANCH   6  14
HETATM   14  O   UNL     1       8.527   0.151  19.901  1.00  0.00    -0.335 OA
BRANCH  14  15
HETATM   15  C   UNL     1       7.128  -0.156  19.856  1.00  0.00     0.173 C 
HETATM   16  C   UNL     1       6.446   0.617  18.751  1.00  0.00     0.034 C 
ENDBRANCH  14  15
ENDBRANCH   6  14
TORSDOF 4
ENDMDL
MODEL 4
REMARK VINA RESULT:    -5.342      1.725      1.915
REMARK INTER + INTRA:          -6.715
REMARK INTER:                  -6.339
REMARK INTRA:                  -0.376
REMARK UNBOUND:                -0.123
REMARK  4 active torsions:
REMARK  status: ('A' for Active; 'I' for Inactive)
REMARK    1  A    between atoms: C_2  and  C_5 
REMARK    2  A    between atoms: C_6  and  N_7 
REMARK    3  A    between atoms: C_12  and  O_14 
REMARK    4  A    between atoms: O_14  and  C_16 
ROOT
HETATM    1  N   UNL     1      10.206  -2.163  22.999  1.00  0.00    -0.330 N 
HETATM    2  C   UNL     1      11.050  -1.125  22.942  1.00  0.00     0.115 C 
HETATM    3  C   UNL     1      10.184  -0.054  22.645  1.00  0.00     0.159 C 
HETATM    4  C   UNL     1       8.906  -0.612  22.408  1.00  0.00     0.120 C 
HETATM    5  H   UNL     1      10.470  -2.971  23.524  1.00  0.00     0.168 HD
HETATM    6  C   UNL     1       8.958  -2.017  22.535  1.00  0.00     0.167 C 
HETATM    7 CL   UNL     1       7.359   0.092  22.306  1.00  0.00    -0.077 Cl
ENDROOT
BRANCH   2   8
HETATM    8  C   UNL     1      12.515  -1.346  23.210  1.00  0.00     0.174 C 
HETATM    9  O   UNL     1      13.200  -2.137  22.601  1.00  0.00    -0.291 OA
HETATM   10  C   UNL     1      13.279  -0.555  24.211  1.00  0.00     0.098 C 
ENDBRANCH   2   8
BRANCH   3  11
HETATM   11  N   UNL     1      10.452   1.328  22.528  1.00  0.00    -0.111 N 
HETATM   12  O   UNL     1      10.482   1.792  21.407  1.00  0.00    -0.532 OA
HETATM   13  O   UNL     1      10.904   1.910  23.439  1.00  0.00    -0.532 OA
ENDBRANCH   3  11
BRANCH   6  14
HETATM   14  O   UNL     1       8.087  -2.987  22.214  1.00  0.00    -0.335 OA
BRANCH  14  15
HETATM   15  C   UNL     1       6.979  -3.265  23.080  1.00  0.00     0.173 C 
HETATM   16  C   UNL     1       5.683  -3.269  22.304  1.00  0.00     0.034 C 
ENDBRANCH  14  15
ENDBRANCH   6  14
TORSDOF 4
ENDMDL
MODEL 5
REMARK VINA RESULT:    -5.283      2.346      4.599
REMARK INTER + INTRA:          -6.641
REMARK INTER:                  -6.278
REMARK INTRA:                  -0.363
REMARK UNBOUND:                -0.123
REMARK  4 active torsions:
REMARK  status: ('A' for Active; 'I' for Inactive)
REMARK    1  A    between atoms: C_2  and  C_5 
REMARK    2  A    between atoms: C_6  and  N_7 
REMARK    3  A    between atoms: C_12  and  O_14 
REMARK    4  A    between atoms: O_14  and  C_16 
ROOT
HETATM    1  N   UNL     1       7.705  -1.061  21.518  1.00  0.00    -0.330 N 
HETATM    2  C   UNL     1       8.424  -1.922  22.249  1.00  0.00     0.115 C 
HETATM    3  C   UNL     1       9.627  -1.214  22.444  1.00  0.00     0.159 C 
HETATM    4  C   UNL     1       9.542  -0.037  21.663  1.00  0.00     0.120 C 
HETATM    5  H   UNL     1       6.709  -1.137  21.526  1.00  0.00     0.168 HD
HETATM    6  C   UNL     1       8.313  -0.002  20.969  1.00  0.00     0.167 C 
HETATM    7 CL   UNL     1      10.467   1.392  21.657  1.00  0.00    -0.077 Cl
ENDROOT
BRANCH   2   8
HETATM    8  C   UNL     1       7.819  -3.243  22.647  1.00  0.00     0.174 C 
HETATM    9  O   UNL     1       8.273  -3.958  23.512  1.00  0.00    -0.291 OA
HETATM   10  C   UNL     1       6.557  -3.761  22.056  1.00  0.00     0.098 C 
ENDBRANCH   2   8
BRANCH   3  11
HETATM   11  N   UNL     1      10.770  -1.551  23.202  1.00  0.00    -0.111 N 
HETATM   12  O   UNL     1      10.788  -1.194  24.362  1.00  0.00    -0.532 OA
HETATM   13  O   UNL     1      11.749  -1.892  22.655  1.00  0.00    -0.532 OA
ENDBRANCH   3  11
BRANCH   6  14
HETATM   14  O   UNL     1       7.860   0.775  19.973  1.00  0.00    -0.335 OA
BRANCH  14  15
HETATM   15  C   UNL     1       7.123   0.190  18.892  1.00  0.00     0.173 C 
HETATM   16  C   UNL     1       5.684   0.649  18.916  1.00  0.00     0.034 C 
ENDBRANCH  14  15
ENDBRANCH   6  14
TORSDOF 4
ENDMDL
MODEL 6
REMARK VINA RESULT:    -5.282      2.710      4.280
REMARK INTER + INTRA:          -6.641
REMARK INTER:                  -6.196
REMARK INTRA:                  -0.445
REMARK UNBOUND:                -0.123
REMARK  4 active torsions:
REMARK  status: ('A' for Active; 'I' for Inactive)
REMARK    1  A    between atoms: C_2  and  C_5 
REMARK    2  A    between atoms: C_6  and  N_7 
REMARK    3  A    between atoms: C_12  and  O_14 
REMARK    4  A    between atoms: O_14  and  C_16 
ROOT
HETATM    1  N   UNL     1       5.775  -1.836  20.602  1.00  0.00    -0.330 N 
HETATM    2  C   UNL     1       6.224  -0.641  20.198  1.00  0.00     0.115 C 
HETATM    3  C   UNL     1       7.333  -0.439  21.045  1.00  0.00     0.159 C 
HETATM    4  C   UNL     1       7.332  -1.498  21.983  1.00  0.00     0.120 C 
HETATM    5  H   UNL     1       5.230  -2.385  19.970  1.00  0.00     0.168 HD
HETATM    6  C   UNL     1       6.233  -2.353  21.749  1.00  0.00     0.167 C 
HETATM    7 CL   UNL     1       8.516  -2.051  23.073  1.00  0.00    -0.077 Cl
ENDROOT
BRANCH   2   8
HETATM    8  C   UNL     1       5.532   0.066  19.063  1.00  0.00     0.174 C 
HETATM    9  O   UNL     1       5.537  -0.330  17.919  1.00  0.00    -0.291 OA
HETATM   10  C   UNL     1       4.711   1.290  19.258  1.00  0.00     0.098 C 
ENDBRANCH   2   8
BRANCH   3  11
HETATM   11  N   UNL     1       8.281   0.608  21.069  1.00  0.00    -0.111 N 
HETATM   12  O   UNL     1       7.850   1.742  21.121  1.00  0.00    -0.532 OA
HETATM   13  O   UNL     1       9.390   0.393  20.761  1.00  0.00    -0.532 OA
ENDBRANCH   3  11
BRANCH   6  14
HETATM   14  O   UNL     1       5.692  -3.348  22.471  1.00  0.00    -0.335 OA
BRANCH  14  15
HETATM   15  C   UNL     1       5.699  -4.686  21.956  1.00  0.00     0.173 C 
HETATM   16  C   UNL     1       7.078  -5.293  22.065  1.00  0.00     0.034 C 
ENDBRANCH  14  15
ENDBRANCH   6  14
TORSDOF 4
ENDMDL
MODEL 7
REMARK VINA RESULT:    -5.005     24.501     26.031
REMARK INTER + INTRA:          -6.299
REMARK INTER:                  -5.910
REMARK INTRA:                  -0.389
REMARK UNBOUND:                -0.123
REMARK  4 active torsions:
REMARK  status: ('A' for Active; 'I' for Inactive)
REMARK    1  A    between atoms: C_2  and  C_5 
REMARK    2  A    between atoms: C_6  and  N_7 
REMARK    3  A    between atoms: C_12  and  O_14 
REMARK    4  A    between atoms: O_14  and  C_16 
ROOT
HETATM    1  N   UNL     1       7.762  14.761   1.279  1.00  0.00    -0.330 N 
HETATM    2  C   UNL     1       8.631  15.610   1.842  1.00  0.00     0.115 C 
HETATM    3  C   UNL     1       9.136  14.848   2.916  1.00  0.00     0.159 C 
HETATM    4  C   UNL     1       8.384  13.651   2.959  1.00  0.00     0.120 C 
HETATM    5  H   UNL     1       7.519  14.889   0.318  1.00  0.00     0.168 HD
HETATM    6  C   UNL     1       7.405  13.655   1.941  1.00  0.00     0.167 C 
HETATM    7 CL   UNL     1       8.639  12.177   3.773  1.00  0.00    -0.077 Cl
ENDROOT
BRANCH   2   8
HETATM    8  C   UNL     1       8.837  16.973   1.235  1.00  0.00     0.174 C 
HETATM    9  O   UNL     1       9.917  17.402   0.894  1.00  0.00    -0.291 OA
HETATM   10  C   UNL     1       7.714  17.897   0.929  1.00  0.00     0.098 C 
ENDBRANCH   2   8
BRANCH   3  11
HETATM   11  N   UNL     1      10.148  15.154   3.852  1.00  0.00    -0.111 N 
HETATM   12  O   UNL     1       9.861  15.926   4.743  1.00  0.00    -0.532 OA
HETATM   13  O   UNL     1      11.265  14.902   3.601  1.00  0.00    -0.532 OA
ENDBRANCH   3  11
BRANCH   6  14
HETATM   14  O   UNL     1       6.343  12.867   1.706  1.00  0.00    -0.335 OA
BRANCH  14  15
HETATM   15  C   UNL     1       6.516  11.629   1.006  1.00  0.00     0.173 C 
HETATM   16  C   UNL     1       6.025  10.470   1.841  1.00  0.00     0.034 C 
ENDBRANCH  14  15
ENDBRANCH   6  14
TORSDOF 4
ENDMDL
MODEL 8
REMARK VINA RESULT:    -4.919      2.285      2.742
REMARK INTER + INTRA:          -6.192
REMARK INTER:                  -5.861
REMARK INTRA:                  -0.331
REMARK UNBOUND:                -0.123
REMARK  4 active torsions:
REMARK  status: ('A' for Active; 'I' for Inactive)
REMARK    1  A    between atoms: C_2  and  C_5 
REMARK    2  A    between atoms: C_6  and  N_7 
REMARK    3  A    between atoms: C_12  and  O_14 
REMARK    4  A    between atoms: O_14  and  C_16 
ROOT
HETATM    1  N   UNL     1       9.570  -2.662  22.955  1.00  0.00    -0.330 N 
HETATM    2  C   UNL     1      10.122  -1.673  23.669  1.00  0.00     0.115 C 
HETATM    3  C   UNL     1       9.075  -1.316  24.543  1.00  0.00     0.159 C 
HETATM    4  C   UNL     1       7.937  -2.054  24.143  1.00  0.00     0.120 C 
HETATM    5  H   UNL     1      10.168  -3.328  22.512  1.00  0.00     0.168 HD
HETATM    6  C   UNL     1       8.247  -2.857  23.023  1.00  0.00     0.167 C 
HETATM    7 CL   UNL     1       6.449  -2.355  24.913  1.00  0.00    -0.077 Cl
ENDROOT
BRANCH   2   8
HETATM    8  C   UNL     1      11.551  -1.275  23.403  1.00  0.00     0.174 C 
HETATM    9  O   UNL     1      12.245  -1.787  22.553  1.00  0.00    -0.291 OA
HETATM   10  C   UNL     1      12.223  -0.160  24.119  1.00  0.00     0.098 C 
ENDBRANCH   2   8
BRANCH   3  11
HETATM   11  N   UNL     1       9.051  -0.380  25.601  1.00  0.00    -0.111 N 
HETATM   12  O   UNL     1       8.943  -0.823  26.726  1.00  0.00    -0.532 OA
HETATM   13  O   UNL     1       8.852   0.751  25.370  1.00  0.00    -0.532 OA
ENDBRANCH   3  11
BRANCH   6  14
HETATM   14  O   UNL     1       7.479  -3.556  22.172  1.00  0.00    -0.335 OA
BRANCH  14  15
HETATM   15  C   UNL     1       7.222  -4.944  22.422  1.00  0.00     0.173 C 
HETATM   16  C   UNL     1       6.343  -5.528  21.341  1.00  0.00     0.034 C 
ENDBRANCH  14  15
ENDBRANCH   6  14
TORSDOF 4
ENDMDL
MODEL 9
REMARK VINA RESULT:    -4.866      2.608      5.807
REMARK INTER + INTRA:          -6.127
REMARK INTER:                  -5.747
REMARK INTRA:                  -0.380
REMARK UNBOUND:                -0.123
REMARK  4 active torsions:
REMARK  status: ('A' for Active; 'I' for Inactive)
REMARK    1  A    between atoms: C_2  and  C_5 
REMARK    2  A    between atoms: C_6  and  N_7 
REMARK    3  A    between atoms: C_12  and  O_14 
REMARK    4  A    between atoms: O_14  and  C_16 
ROOT
HETATM    1  N   UNL     1       8.250  -3.126  22.527  1.00  0.00    -0.330 N 
HETATM    2  C   UNL     1       7.252  -3.943  22.885  1.00  0.00     0.115 C 
HETATM    3  C   UNL     1       7.259  -3.822  24.290  1.00  0.00     0.159 C 
HETATM    4  C   UNL     1       8.386  -3.037  24.629  1.00  0.00     0.120 C 
HETATM    5  H   UNL     1       8.253  -2.744  21.603  1.00  0.00     0.168 HD
HETATM    6  C   UNL     1       9.096  -2.676  23.463  1.00  0.00     0.167 C 
HETATM    7 CL   UNL     1       8.830  -2.250  26.072  1.00  0.00    -0.077 Cl
ENDROOT
BRANCH   2   8
HETATM    8  C   UNL     1       6.463  -4.660  21.821  1.00  0.00     0.174 C 
HETATM    9  O   UNL     1       5.644  -4.121  21.112  1.00  0.00    -0.291 OA
HETATM   10  C   UNL     1       6.671  -6.096  21.495  1.00  0.00     0.098 C 
ENDBRANCH   2   8
BRANCH   3  11
HETATM   11  N   UNL     1       6.392  -4.380  25.256  1.00  0.00    -0.111 N 
HETATM   12  O   UNL     1       6.697  -5.463  25.710  1.00  0.00    -0.532 OA
HETATM   13  O   UNL     1       5.309  -3.951  25.379  1.00  0.00    -0.532 OA
ENDBRANCH   3  11
BRANCH   6  14
HETATM   14  O   UNL     1      10.308  -2.130  23.276  1.00  0.00    -0.335 OA
BRANCH  14  15
HETATM   15  C   UNL     1      10.455  -0.705  23.284  1.00  0.00     0.173 C 
HETATM   16  C   UNL     1      11.421  -0.274  24.363  1.00  0.00     0.034 C 
ENDBRANCH  14  15
ENDBRANCH   6  14
TORSDOF 4
ENDMDL
