REMARK  6 active torsions:
REMARK  status: ('A' for Active; 'I' for Inactive)
REMARK    1  A    between atoms: S_2  and  N_5 
REMARK    2  A    between atoms: C_7  and  C_8 
REMARK    3  A    between atoms: C_8  and  C_9 
REMARK    4  A    between atoms: C_9  and  C_15 
REMARK    5  A    between atoms: C_15  and  C_16 
REMARK       I    between atoms: C_16  and  N_18 
REMARK    6  A    between atoms: N_18  and  C_20 
ROOT
HETATM    1  C   UNL     1      10.355  -1.113  23.263  1.00  0.00     0.076 C 
HETATM    2  C   UNL     1      11.058   0.017  24.270  1.00  0.00     0.003 C 
HETATM    3  C   UNL     1      12.055   0.319  24.270  1.00  0.00    -0.002 C 
HETATM    4  C   UNL     1      13.200  -0.205  23.430  1.00  0.00    -0.001 C 
HETATM    5  C   UNL     1      12.736  -1.262  22.655  1.00  0.00    -0.002 C 
HETATM    6  C   UNL     1      11.777  -1.732  22.543  1.00  0.00     0.003 C 
ENDROOT
BRANCH   1   7
HETATM    7  C   UNL     1       9.421  -1.997  23.462  1.00  0.00     0.021 C 
BRANCH   7   8
HETATM    8  C   UNL     1       8.992  -2.930  24.121  1.00  0.00     0.098 C 
HETATM    9  N   UNL     1       8.094  -3.566  24.710  1.00  0.00    -0.296 N 
ATOM     10  HN  UNL     1       7.191  -3.614  24.239  1.00  0.00     0.177 HD
BRANCH   9  11
HETATM   11  S   UNL     1       8.199  -4.312  26.116  1.00  0.00     0.226 S 
HETATM   12  C   UNL     1       6.593  -4.869  26.475  1.00  0.00     0.186 C 
HETATM   13  O   UNL     1       9.054  -5.491  26.084  1.00  0.00    -0.206 OA
HETATM   14  O   UNL     1       8.607  -3.417  27.159  1.00  0.00    -0.206 OA
ENDBRANCH   9  11
ENDBRANCH   7   8
ENDBRANCH   1   7
BRANCH   1  15
HETATM   15  C   UNL     1       9.729  -0.561  22.353  1.00  0.00    -0.061 C 
BRANCH  15  16
HETATM   16  C   UNL     1       9.077   0.055  21.386  1.00  0.00     0.290 C 
HETATM   17  O   UNL     1       9.533   1.020  20.977  1.00  0.00    -0.259 OA
HETATM   18  N   UNL     1       7.933  -0.564  21.082  1.00  0.00    -0.315 N 
ATOM     19  HN  UNL     1       7.635  -1.388  21.604  1.00  0.00     0.170 HD
BRANCH  18  20
HETATM   20  C   UNL     1       7.232  -0.115  20.145  1.00  0.00     0.057 A 
HETATM   21  C   UNL     1       7.235  -0.007  18.851  1.00  0.00     0.117 A 
HETATM   22  N   UNL     1       6.718   0.312  17.774  1.00  0.00    -0.373 N 
HETATM   23  C   UNL     1       5.619   0.874  18.259  1.00  0.00     0.088 A 
ATOM     24  HN  UNL     1       7.037   0.183  16.814  1.00  0.00     0.164 HD
HETATM   25  C   UNL     1       5.224   0.989  19.430  1.00  0.00     0.026 A 
HETATM   26  C   UNL     1       5.804   0.576  20.566  1.00  0.00    -0.033 A 
HETATM   27  C   UNL     1       5.340   0.687  21.917  1.00  0.00     0.050 C 
ENDBRANCH  18  20
ENDBRANCH  15  16
ENDBRANCH   1  15
TORSDOF 6
