stable:False satoms:10 tatoms:24 sratio:0.4166666666666667
  -OEChem-07092417493D

 24 25  0     1  0  0  0  0  0999 V2000
    6.5932   -4.8689   26.4751 C   0  0  0  0  0  0  0  0  0  0  0  0
    8.1986   -4.3122   26.1164 S   0  0  0  0  0  0  0  0  0  0  0  0
    9.0542   -5.4914   26.0836 O   0  0  0  0  0  0  0  0  0  0  0  0
    8.6066   -3.4166   27.1585 O   0  0  0  0  0  0  0  0  0  0  0  0
    8.0939   -3.5660   24.7100 N   0  0  0  0  0  0  0  0  0  0  0  0
    8.9921   -2.9296   24.1206 C   0  0  0  0  0  0  0  0  0  0  0  0
    9.4212   -1.9968   23.4617 C   0  0  0  0  0  0  0  0  0  0  0  0
   10.3548   -1.1129   23.2627 C   0  0  1  0  0  0  0  0  0  0  0  0
   11.0576    0.0174   24.2696 C   0  0  0  0  0  0  0  0  0  0  0  0
   12.0549    0.3188   24.2696 C   0  0  0  0  0  0  0  0  0  0  0  0
   13.1999   -0.2048   23.4298 C   0  0  0  0  0  0  0  0  0  0  0  0
   12.7360   -1.2615   22.6546 C   0  0  0  0  0  0  0  0  0  0  0  0
   11.7771   -1.7318   22.5431 C   0  0  0  0  0  0  0  0  0  0  0  0
    9.7291   -0.5607   22.3533 C   0  0  0  0  0  0  0  0  0  0  0  0
    9.0770    0.0550   21.3863 C   0  0  0  0  0  0  0  0  0  0  0  0
    9.5333    1.0196   20.9772 O   0  0  0  0  0  0  0  0  0  0  0  0
    7.9330   -0.5636   21.0825 N   0  0  0  0  0  0  0  0  0  0  0  0
    7.2316   -0.1148   20.1448 C   0  0  0  0  0  0  0  0  0  0  0  0
    7.2350   -0.0067   18.8508 C   0  0  0  0  0  0  0  0  0  0  0  0
    6.7180    0.3120   17.7745 N   0  0  0  0  0  0  0  0  0  0  0  0
    5.6189    0.8742   18.2589 C   0  0  0  0  0  0  0  0  0  0  0  0
    5.2237    0.9888   19.4301 C   0  0  0  0  0  0  0  0  0  0  0  0
    5.8045    0.5756   20.5660 C   0  0  0  0  0  0  0  0  0  0  0  0
    5.3401    0.6868   21.9169 C   0  0  0  0  0  0  0  0  0  0  0  0
 20 21  2  0  0  0  0
 19 20  1  0  0  0  0
 21 22  1  0  0  0  0
 18 19  2  0  0  0  0
 22 23  2  0  0  0  0
 18 23  1  0  0  0  0
 17 18  1  0  0  0  0
 23 24  1  0  0  0  0
 15 16  2  0  0  0  0
 15 17  1  0  0  0  0
 14 15  1  0  0  0  0
  8 14  1  0  0  0  0
 12 13  1  0  0  0  0
  8 13  1  0  0  0  0
 11 12  2  0  0  0  0
  7  8  1  0  0  0  0
  8  9  1  0  0  0  0
 10 11  1  0  0  0  0
  6  7  2  3  0  0  0
  5  6  1  0  0  0  0
  9 10  2  0  0  0  0
  2  5  1  0  0  0  0
  2  3  2  0  0  0  0
  1  2  1  0  0  0  0
  2  4  2  0  0  0  0
M  END
> <Shapegauss>
-286.022766

$$$$
