stable:False satoms:19 tatoms:24 sratio:0.7916666666666666
  -OEChem-07092417343D

 24 22  0     1  0  0  0  0  0999 V2000
    7.2907   -2.0003   25.2018 O   0  0  0  0  0  0  0  0  0  0  0  0
    7.5499   -4.2218   24.9603 H   0  0  0  0  0  0  0  0  0  0  0  0
    9.2576   -4.2193   24.6438 H   0  0  0  0  0  0  0  0  0  0  0  0
    8.6145   -3.6985   26.1943 H   0  0  0  0  0  0  0  0  0  0  0  0
    8.4591   -3.6851   25.1093 C   0  0  0  0  0  0  0  0  0  0  0  0
    8.2905   -2.3318   24.6823 C   0  0  0  0  0  0  0  0  0  0  0  0
    9.2805   -1.4997   23.9219 C   0  0  0  0  0  0  0  0  0  0  0  0
   10.7945   -0.3844   24.5182 H   0  0  0  0  0  0  0  0  0  0  0  0
   11.7388   -0.5332   22.5000 C   0  0  0  0  0  0  0  0  0  0  0  0
   10.2554   -1.0902   24.4595 N   0  5  0  0  0  0  0  0  0  0  0  0
   12.4984   -0.3036   21.7751 H   0  0  0  0  0  0  0  0  0  0  0  0
   12.2137   -1.1907   23.2165 H   0  0  0  0  0  0  0  0  0  0  0  0
   10.6591   -1.2464   21.8903 O   0  0  0  0  0  0  0  0  0  0  0  0
   11.3576    0.4078   22.8724 H   0  0  0  0  0  0  0  0  0  0  0  0
    8.4702   -0.4324   21.5599 N   0  3  0  0  0  0  0  0  0  0  0  0
    9.4620   -0.8518   22.1396 C   0  0  0  0  0  0  0  0  0  0  0  0
    8.2183   -0.3909   20.2520 C   0  3  0  0  0  0  0  0  0  0  0  0
    5.8742    0.2338   20.2358 C   0  0  0  0  0  0  0  0  0  0  0  0
    9.0182   -0.6749   19.6088 H   0  0  0  0  0  0  0  0  0  0  0  0
    7.0717    0.0626   18.4985 H   0  0  0  0  0  0  0  0  0  0  0  0
    5.0404    0.5923   19.6400 H   0  0  0  0  0  0  0  0  0  0  0  0
    7.0592   -0.0169   19.5617 C   0  5  3  0  0  0  0  0  0  0  0  0
    5.6845    0.1145   21.4553 C   0  5  0  0  0  0  0  0  0  0  0  0
    5.4249    0.0705   22.3997 H   0  0  0  0  0  0  0  0  0  0  0  0
 20 22  1  0  0  0  0
 18 22  1  0  0  0  0
 17 22  1  0  0  0  0
 17 19  1  0  0  0  0
 18 21  1  0  0  0  0
 18 23  2  0  0  0  0
 15 17  1  0  0  0  0
 23 24  1  0  0  0  0
 15 16  1  0  0  0  0
  9 11  1  0  0  0  0
 13 16  1  0  0  0  0
  9 13  1  0  0  0  0
  9 14  1  0  0  0  0
  9 12  1  0  0  0  0
  7 10  1  0  0  0  0
  6  7  1  0  0  0  0
  8 10  1  0  0  0  0
  3  5  1  0  0  0  0
  5  6  1  0  0  0  0
  1  6  2  0  0  0  0
  2  5  1  0  0  0  0
  4  5  1  0  0  0  0
M  CHG  5  10  -1  15   1  17   1  22  -1  23  -1
M  END
> <Shapegauss>
-128.669144

$$$$
