REMARK  6 active torsions:
REMARK  status: ('A' for Active; 'I' for Inactive)
REMARK    1  A    between atoms: S_2  and  N_5 
REMARK    2  A    between atoms: C_7  and  C_8 
REMARK    3  A    between atoms: C_8  and  C_9 
REMARK    4  A    between atoms: C_9  and  C_15 
REMARK    5  A    between atoms: C_15  and  C_16 
REMARK       I    between atoms: C_16  and  N_18 
REMARK    6  A    between atoms: N_18  and  C_20 
ROOT
HETATM    1  C   UNL     1      10.314  -1.104  23.265  1.00  0.00     0.076 C 
HETATM    2  C   UNL     1      11.028  -0.005  24.258  1.00  0.00     0.003 C 
HETATM    3  C   UNL     1      12.068   0.347  24.284  1.00  0.00    -0.002 C 
HETATM    4  C   UNL     1      13.179  -0.222  23.461  1.00  0.00    -0.001 C 
HETATM    5  C   UNL     1      12.736  -1.221  22.686  1.00  0.00    -0.002 C 
HETATM    6  C   UNL     1      11.789  -1.698  22.508  1.00  0.00     0.003 C 
ENDROOT
BRANCH   1   7
HETATM    7  C   UNL     1       9.409  -1.991  23.504  1.00  0.00     0.021 C 
BRANCH   7   8
HETATM    8  C   UNL     1       8.966  -2.950  24.124  1.00  0.00     0.098 C 
HETATM    9  N   UNL     1       8.135  -3.606  24.649  1.00  0.00    -0.296 N 
ATOM     10  HN  UNL     1       7.272  -3.746  24.124  1.00  0.00     0.177 HD
BRANCH   9  11
HETATM   11  S   UNL     1       8.211  -4.315  26.121  1.00  0.00     0.226 S 
HETATM   12  C   UNL     1       6.586  -4.831  26.478  1.00  0.00     0.186 C 
HETATM   13  O   UNL     1       9.046  -5.486  26.067  1.00  0.00    -0.206 OA
HETATM   14  O   UNL     1       8.648  -3.399  27.144  1.00  0.00    -0.206 OA
ENDBRANCH   9  11
ENDBRANCH   7   8
ENDBRANCH   1   7
BRANCH   1  15
HETATM   15  C   UNL     1       9.754  -0.575  22.328  1.00  0.00    -0.061 C 
BRANCH  15  16
HETATM   16  C   UNL     1       9.064   0.040  21.358  1.00  0.00     0.290 C 
HETATM   17  O   UNL     1       9.521   1.005  20.947  1.00  0.00    -0.259 OA
HETATM   18  N   UNL     1       7.924  -0.560  21.071  1.00  0.00    -0.315 N 
ATOM     19  HN  UNL     1       7.634  -1.388  21.592  1.00  0.00     0.170 HD
BRANCH  18  20
HETATM   20  C   UNL     1       7.199  -0.106  20.154  1.00  0.00     0.057 A 
HETATM   21  C   UNL     1       7.267  -0.044  18.862  1.00  0.00     0.117 A 
HETATM   22  N   UNL     1       6.724   0.338  17.773  1.00  0.00    -0.373 N 
HETATM   23  C   UNL     1       5.644   0.880  18.289  1.00  0.00     0.088 A 
ATOM     24  HN  UNL     1       7.032   0.250  16.805  1.00  0.00     0.164 HD
HETATM   25  C   UNL     1       5.255   0.965  19.408  1.00  0.00     0.026 A 
HETATM   26  C   UNL     1       5.812   0.561  20.528  1.00  0.00    -0.033 A 
HETATM   27  C   UNL     1       5.305   0.687  22.030  1.00  0.00     0.050 C 
ENDBRANCH  18  20
ENDBRANCH  15  16
ENDBRANCH   1  15
TORSDOF 6
