stable:False satoms:4 tatoms:24 sratio:0.16666666666666666
  -OEChem-07092417503D

 24 25  0     1  0  0  0  0  0999 V2000
    6.5857   -4.8312   26.4780 C   0  0  0  0  0  0  0  0  0  0  0  0
    8.2113   -4.3146   26.1206 S   0  0  0  0  0  0  0  0  0  0  0  0
    9.0455   -5.4857   26.0667 O   0  0  0  0  0  0  0  0  0  0  0  0
    8.6478   -3.3991   27.1441 O   0  0  0  0  0  0  0  0  0  0  0  0
    8.1353   -3.6058   24.6492 N   0  0  0  0  0  0  0  0  0  0  0  0
    8.9657   -2.9499   24.1243 C   0  0  0  0  0  0  0  0  0  0  0  0
    9.4086   -1.9912   23.5042 C   0  0  0  0  0  0  0  0  0  0  0  0
   10.3143   -1.1042   23.2652 C   0  0  1  0  0  0  0  0  0  0  0  0
   11.0284   -0.0048   24.2576 C   0  0  0  0  0  0  0  0  0  0  0  0
   12.0684    0.3469   24.2842 C   0  0  0  0  0  0  0  0  0  0  0  0
   13.1790   -0.2217   23.4610 C   0  0  0  0  0  0  0  0  0  0  0  0
   12.7361   -1.2213   22.6856 C   0  0  0  0  0  0  0  0  0  0  0  0
   11.7891   -1.6982   22.5078 C   0  0  0  0  0  0  0  0  0  0  0  0
    9.7539   -0.5751   22.3285 C   0  0  0  0  0  0  0  0  0  0  0  0
    9.0637    0.0399   21.3578 C   0  0  0  0  0  0  0  0  0  0  0  0
    9.5205    1.0047   20.9467 O   0  0  0  0  0  0  0  0  0  0  0  0
    7.9240   -0.5604   21.0713 N   0  0  0  0  0  0  0  0  0  0  0  0
    7.1991   -0.1056   20.1536 C   0  0  0  0  0  0  0  0  0  0  0  0
    7.2669   -0.0438   18.8622 C   0  0  0  0  0  0  0  0  0  0  0  0
    6.7245    0.3375   17.7733 N   0  0  0  0  0  0  0  0  0  0  0  0
    5.6438    0.8801   18.2888 C   0  0  0  0  0  0  0  0  0  0  0  0
    5.2555    0.9653   19.4080 C   0  0  0  0  0  0  0  0  0  0  0  0
    5.8120    0.5614   20.5284 C   0  0  0  0  0  0  0  0  0  0  0  0
    5.3051    0.6867   22.0297 C   0  0  0  0  0  0  0  0  0  0  0  0
 20 21  2  0  0  0  0
 19 20  1  0  0  0  0
 21 22  1  0  0  0  0
 18 19  2  0  0  0  0
 22 23  2  0  0  0  0
 18 23  1  0  0  0  0
 17 18  1  0  0  0  0
 23 24  1  0  0  0  0
 15 16  2  0  0  0  0
 15 17  1  0  0  0  0
 14 15  1  0  0  0  0
  8 14  1  0  0  0  0
 12 13  1  0  0  0  0
  8 13  1  0  0  0  0
 11 12  2  0  0  0  0
  7  8  1  0  0  0  0
  8  9  1  0  0  0  0
 10 11  1  0  0  0  0
  6  7  2  3  0  0  0
  5  6  1  0  0  0  0
  9 10  2  0  0  0  0
  2  5  1  0  0  0  0
  2  3  2  0  0  0  0
  1  2  1  0  0  0  0
  2  4  2  0  0  0  0
M  END
> <Shapegauss>
-286.357239

$$$$
