stable:False satoms:10 tatoms:24 sratio:0.4166666666666667
  -OEChem-07092417433D

 24 27  0     1  0  0  0  0  0999 V2000
    6.7026   -4.8474   26.3039 O   0  0  0  0  0  0  0  0  0  0  0  0
    8.1781   -4.3484   26.1167 S   0  0  0  0  0  0  0  0  0  0  0  0
    9.0904   -5.4821   26.1087 O   0  0  0  0  0  0  0  0  0  0  0  0
    8.5638   -3.4008   27.1439 O   0  5  0  0  0  0  0  0  0  0  0  0
    8.2229   -3.6115   24.6821 N   0  0  0  0  0  0  0  0  0  0  0  0
    8.8838   -2.8571   24.1140 C   0  0  0  0  0  0  0  0  0  0  0  0
    9.3646   -1.9790   23.5262 C   0  0  0  0  0  0  0  0  0  0  0  0
   10.4485   -1.0992   23.2347 C   0  0  1  0  0  0  0  0  0  0  0  0
   10.8480   -0.0144   24.6385 S   0  0  0  0  0  0  0  0  0  0  0  0
   12.2239    0.2859   24.2621 C   0  0  0  0  0  0  0  0  0  0  0  0
   12.9800   -0.1935   23.5495 C   0  0  0  0  0  0  0  0  0  0  0  0
   12.8229   -1.2704   22.6787 C   0  0  0  0  0  0  0  0  0  0  0  0
   11.7830   -1.5509   22.7567 C   0  0  0  0  0  0  0  0  0  0  0  0
    9.6088   -0.7497   22.4722 C   0  0  3  0  0  0  0  0  0  0  0  0
    9.0224    0.0330   21.3792 C   0  0  0  0  0  0  0  0  0  0  0  0
    9.5679    1.0004   20.9513 O   0  0  0  0  0  0  0  0  0  0  0  0
    7.8992   -0.5564   21.0674 N   0  0  0  0  0  0  0  0  0  0  0  0
    7.1690   -0.0797   20.1426 C   0  0  0  0  0  0  0  0  0  0  0  0
    7.1309    0.0062   18.7896 C   0  0  0  0  0  0  0  0  0  0  0  0
    6.6402    0.3062   17.7181 N   0  0  0  0  0  0  0  0  0  0  0  0
    5.6931    0.9054   18.2410 C   0  0  0  0  0  0  0  0  0  0  0  0
    5.3385    1.0223   19.4145 C   0  0  0  0  0  0  0  0  0  0  0  0
    5.8745    0.5719   20.5064 C   0  0  0  0  0  0  0  0  0  0  0  0
    5.5271    0.6190   21.4986 H   0  0  0  0  0  0  0  0  0  0  0  0
 20 21  2  0  0  0  0
 19 20  1  0  0  0  0
 19 21  1  0  0  0  0
 21 22  1  0  0  0  0
 18 19  2  0  0  0  0
 22 23  2  0  0  0  0
 18 23  1  0  0  0  0
 17 18  1  0  0  0  0
 23 24  1  0  0  0  0
 15 16  2  0  0  0  0
 15 17  1  0  0  0  0
 14 15  1  0  0  0  0
  8 14  1  0  0  0  0
  7 14  1  0  0  0  0
 12 13  1  0  0  0  0
 11 12  1  0  0  0  0
  8 13  1  0  0  0  0
  7  8  1  0  0  0  0
  8  9  1  0  0  0  0
  6  7  2  3  0  0  0
 10 11  2  0  0  0  0
  5  6  1  0  0  0  0
  9 10  1  0  0  0  0
  2  5  1  0  0  0  0
  2  3  2  0  0  0  0
  1  2  2  0  0  0  0
  2  4  1  0  0  0  0
M  CHG  1   4  -1
M  END
> <Shapegauss>
-290.660309

$$$$
