stable:False satoms:10 tatoms:24 sratio:0.4166666666666667
  -OEChem-08062412253D

 35 38  0     1  0  0  0  0  0999 V2000
   -6.1333   -4.8600  -25.9610 O   0  0  0  0  0  0  0  0  0  0  0  0
   -7.6500   -4.4733  -25.8556 S   0  0  0  0  0  0  0  0  0  0  0  0
   -8.4692   -5.6754  -25.8159 O   0  0  0  0  0  0  0  0  0  0  0  0
   -8.0677   -3.6169  -26.9483 O   0  5  0  0  0  0  0  0  0  0  0  0
   -7.8109   -3.6664  -24.4678 N   0  0  0  0  0  0  0  0  0  0  0  0
   -8.5519   -2.9387  -23.9677 C   0  0  0  0  0  0  0  0  0  0  0  0
   -9.1241   -2.0723  -23.4484 C   0  0  0  0  0  0  0  0  0  0  0  0
  -10.2852   -1.2691  -23.2466 C   0  0  1  0  0  0  0  0  0  0  0  0
  -10.7123   -0.2975  -24.7233 S   0  0  0  0  0  0  0  0  0  0  0  0
  -12.1217   -0.0903  -24.4143 C   0  0  0  0  0  0  0  0  0  0  0  0
  -12.8657   -0.5905  -23.7032 C   0  0  0  0  0  0  0  0  0  0  0  0
  -12.6591   -1.6027  -22.7675 C   0  0  0  0  0  0  0  0  0  0  0  0
  -11.5979   -1.8015  -22.7920 C   0  0  0  0  0  0  0  0  0  0  0  0
   -9.5073   -0.8119  -22.4756 C   0  0  3  0  0  0  0  0  0  0  0  0
   -9.0293    0.0735  -21.4085 C   0  0  0  0  0  0  0  0  0  0  0  0
   -9.6666    1.0150  -21.0562 O   0  0  0  0  0  0  0  0  0  0  0  0
   -7.8765   -0.4049  -21.0235 N   0  0  0  0  0  0  0  0  0  0  0  0
   -7.2243    0.1787  -20.1017 C   0  0  0  0  0  0  0  0  0  0  0  0
   -7.2478    0.3401  -18.7553 C   0  0  0  0  0  0  0  0  0  0  0  0
   -6.8261    0.7362  -17.6856 N   0  0  0  0  0  0  0  0  0  0  0  0
   -5.9091    1.3815  -18.2074 C   0  0  0  0  0  0  0  0  0  0  0  0
   -5.5177    1.4635  -19.3722 C   0  0  0  0  0  0  0  0  0  0  0  0
   -5.9718    0.9128  -20.4552 C   0  0  0  0  0  0  0  0  0  0  0  0
   -5.5895    0.9346  -21.4354 H   0  0  0  0  0  0  0  0  0  0  0  0
   -6.9602   -3.1416  -24.4385 H   0  0  0  0  0  0  0  0  0  0  0  0
   -9.4066   -3.5946  -24.0438 H   0  0  0  0  0  0  0  0  0  0  0  0
  -12.5620    0.7150  -24.9835 H   0  0  0  0  0  0  0  0  0  0  0  0
  -13.8794   -0.2236  -23.7666 H   0  0  0  0  0  0  0  0  0  0  0  0
  -13.2263   -2.5039  -23.0432 H   0  0  0  0  0  0  0  0  0  0  0  0
  -12.9654   -1.2690  -21.7651 H   0  0  0  0  0  0  0  0  0  0  0  0
  -11.3969   -1.9296  -21.7181 H   0  0  0  0  0  0  0  0  0  0  0  0
  -11.5933   -2.7844  -23.2857 H   0  0  0  0  0  0  0  0  0  0  0  0
   -9.1497   -0.1036  -23.2373 H   0  0  0  0  0  0  0  0  0  0  0  0
   -7.5076   -1.2290  -21.4533 H   0  0  0  0  0  0  0  0  0  0  0  0
   -4.6553    2.0976  -19.5153 H   0  0  0  0  0  0  0  0  0  0  0  0
 20 21  2  0  0  0  0
 19 20  1  0  0  0  0
 19 21  1  0  0  0  0
 21 22  1  0  0  0  0
 18 19  2  0  0  0  0
 22 23  2  0  0  0  0
 18 23  1  0  0  0  0
 17 18  1  0  0  0  0
 23 24  1  0  0  0  0
 15 16  2  0  0  0  0
 15 17  1  0  0  0  0
 14 15  1  0  0  0  0
  8 14  1  0  0  0  0
  7 14  1  0  0  0  0
 12 13  1  0  0  0  0
 11 12  1  0  0  0  0
  8 13  1  0  0  0  0
  7  8  1  0  0  0  0
  8  9  1  0  0  0  0
  6  7  2  3  0  0  0
 10 11  2  0  0  0  0
  5  6  1  0  0  0  0
  9 10  1  0  0  0  0
  2  5  1  0  0  0  0
  2  3  2  0  0  0  0
  1  2  2  0  0  0  0
  2  4  1  0  0  0  0
  5 25  1  0  0  0  0
  6 26  1  0  0  0  0
 10 27  1  0  0  0  0
 11 28  1  0  0  0  0
 12 29  1  0  0  0  0
 12 30  1  0  0  0  0
 13 31  1  0  0  0  0
 13 32  1  0  0  0  0
 14 33  1  0  0  0  0
 17 34  1  0  0  0  0
 22 35  1  0  0  0  0
M  CHG  1   4  -1
M  END
> <Chemgauss4>
-9.315418

$$$$
