stable:False satoms:10 tatoms:24 sratio:0.4166666666666667
  -OEChem-08062412253D

 35 38  0     1  0  0  0  0  0999 V2000
    6.5932   -5.0097   26.4889 O   0  0  0  0  0  0  0  0  0  0  0  0
    8.0823   -4.5589   26.2874 S   0  0  0  0  0  0  0  0  0  0  0  0
    8.9568   -5.7218   26.2678 O   0  0  0  0  0  0  0  0  0  0  0  0
    8.5094   -3.6267   27.3123 O   0  5  0  0  0  0  0  0  0  0  0  0
    8.1365   -3.8206   24.8538 N   0  0  0  0  0  0  0  0  0  0  0  0
    8.8159   -3.0870   24.2803 C   0  0  0  0  0  0  0  0  0  0  0  0
    9.3192   -2.2238   23.6893 C   0  0  0  0  0  0  0  0  0  0  0  0
   10.4283   -1.3794   23.3883 C   0  0  1  0  0  0  0  0  0  0  0  0
   10.8775   -0.3114   24.7899 S   0  0  0  0  0  0  0  0  0  0  0  0
   12.2586   -0.0555   24.3999 C   0  0  0  0  0  0  0  0  0  0  0  0
   12.9912   -0.5578   23.6786 C   0  0  0  0  0  0  0  0  0  0  0  0
   12.7900   -1.6270   22.8075 C   0  0  0  0  0  0  0  0  0  0  0  0
   11.7423   -1.8735   22.8957 C   0  0  0  0  0  0  0  0  0  0  0  0
    9.5927   -1.0008   22.6352 C   0  0  3  0  0  0  0  0  0  0  0  0
    9.0211   -0.1969   21.5498 C   0  0  0  0  0  0  0  0  0  0  0  0
    9.5936    0.7531   21.1181 O   0  0  0  0  0  0  0  0  0  0  0  0
    7.8760   -0.7485   21.2485 N   0  0  0  0  0  0  0  0  0  0  0  0
    7.1524   -0.2461   20.3322 C   0  0  0  0  0  0  0  0  0  0  0  0
    7.1033   -0.1559   18.9798 C   0  0  0  0  0  0  0  0  0  0  0  0
    6.6117    0.1624   17.9140 N   0  0  0  0  0  0  0  0  0  0  0  0
    5.6902    0.7911   18.4478 C   0  0  0  0  0  0  0  0  0  0  0  0
    5.3516    0.9169   19.6251 C   0  0  0  0  0  0  0  0  0  0  0  0
    5.8838    0.4468   20.7105 C   0  0  0  0  0  0  0  0  0  0  0  0
    5.5483    0.5030   21.7064 H   0  0  0  0  0  0  0  0  0  0  0  0
    7.2606   -3.3384   24.8407 H   0  0  0  0  0  0  0  0  0  0  0  0
    9.7045   -3.6973   24.3466 H   0  0  0  0  0  0  0  0  0  0  0  0
   12.6855    0.7988   24.9042 H   0  0  0  0  0  0  0  0  0  0  0  0
   13.9876   -0.1411   23.6719 H   0  0  0  0  0  0  0  0  0  0  0  0
   13.4135   -2.4848   23.0999 H   0  0  0  0  0  0  0  0  0  0  0  0
   13.0311   -1.3334   21.7751 H   0  0  0  0  0  0  0  0  0  0  0  0
   11.4965   -2.0681   21.8413 H   0  0  0  0  0  0  0  0  0  0  0  0
   11.8097   -2.8277   23.4386 H   0  0  0  0  0  0  0  0  0  0  0  0
    9.2377   -0.2702   23.3768 H   0  0  0  0  0  0  0  0  0  0  0  0
    7.5692   -1.5648   21.7379 H   0  0  0  0  0  0  0  0  0  0  0  0
    4.4669    1.5169   19.7790 H   0  0  0  0  0  0  0  0  0  0  0  0
 20 21  2  0  0  0  0
 19 20  1  0  0  0  0
 19 21  1  0  0  0  0
 21 22  1  0  0  0  0
 18 19  2  0  0  0  0
 22 23  2  0  0  0  0
 18 23  1  0  0  0  0
 17 18  1  0  0  0  0
 23 24  1  0  0  0  0
 15 16  2  0  0  0  0
 15 17  1  0  0  0  0
 14 15  1  0  0  0  0
  8 14  1  0  0  0  0
  7 14  1  0  0  0  0
 12 13  1  0  0  0  0
 11 12  1  0  0  0  0
  8 13  1  0  0  0  0
  7  8  1  0  0  0  0
  8  9  1  0  0  0  0
  6  7  2  3  0  0  0
 10 11  2  0  0  0  0
  5  6  1  0  0  0  0
  9 10  1  0  0  0  0
  2  5  1  0  0  0  0
  2  3  2  0  0  0  0
  1  2  2  0  0  0  0
  2  4  1  0  0  0  0
  5 25  1  0  0  0  0
  6 26  1  0  0  0  0
 10 27  1  0  0  0  0
 11 28  1  0  0  0  0
 12 29  1  0  0  0  0
 12 30  1  0  0  0  0
 13 31  1  0  0  0  0
 13 32  1  0  0  0  0
 14 33  1  0  0  0  0
 17 34  1  0  0  0  0
 22 35  1  0  0  0  0
M  CHG  1   4  -1
M  END
> <Chemgauss4>
-9.411732

$$$$
