MODEL 1
REMARK VINA RESULT:    -7.410      0.000      0.000
REMARK INTER + INTRA:         -10.578
REMARK INTER:                  -9.577
REMARK INTRA:                  -1.001
REMARK UNBOUND:                -1.001
REMARK  5 active torsions:
REMARK  status: ('A' for Active; 'I' for Inactive)
REMARK    1  A    between atoms: S_2  and  N_5 
REMARK    2  A    between atoms: N_5  and  C_7 
REMARK    3  A    between atoms: C_8  and  C_9 
REMARK    4  A    between atoms: C_9  and  C_15 
REMARK    5  A    between atoms: C_15  and  C_16 
REMARK       I    between atoms: C_16  and  N_18 
ROOT
HETATM    1  C   UNL     1       9.373  -1.422  23.258  1.00  0.00     0.076 C 
HETATM    2  C   UNL     1       8.860  -0.412  24.616  1.00  0.00     0.003 C 
HETATM    3  C   UNL     1       9.571   0.283  25.037  1.00  0.00    -0.002 C 
HETATM    4  C   UNL     1      10.868   0.512  24.912  1.00  0.00    -0.001 C 
HETATM    5  C   UNL     1      11.463  -0.429  23.996  1.00  0.00    -0.002 C 
HETATM    6  C   UNL     1      11.016  -1.177  23.410  1.00  0.00     0.003 C 
ENDROOT
BRANCH   1   7
HETATM    7  C   UNL     1       8.907  -2.596  23.080  1.00  0.00     0.021 C 
HETATM    8  C   UNL     1       8.002  -3.426  22.952  1.00  0.00     0.098 C 
BRANCH   8   9
HETATM    9  N   UNL     1       7.431  -4.367  22.567  1.00  0.00    -0.296 N 
ATOM     10  HN  UNL     1       7.883  -5.270  22.708  1.00  0.00     0.177 HD
BRANCH   9  11
HETATM   11  S   UNL     1       5.994  -4.380  21.832  1.00  0.00     0.226 S 
HETATM   12  C   UNL     1       4.806  -4.857  23.172  1.00  0.00     0.186 C 
HETATM   13  O   UNL     1       5.585  -3.069  21.421  1.00  0.00    -0.206 OA
HETATM   14  O   UNL     1       5.888  -5.378  20.830  1.00  0.00    -0.206 OA
ENDBRANCH   9  11
ENDBRANCH   8   9
ENDBRANCH   1   7
BRANCH   1  15
HETATM   15  C   UNL     1       8.955  -1.001  22.211  1.00  0.00    -0.061 C 
BRANCH  15  16
HETATM   16  C   UNL     1       8.452  -0.463  21.106  1.00  0.00     0.291 C 
HETATM   17  O   UNL     1       9.198  -0.084  20.351  1.00  0.00    -0.259 OA
HETATM   18  N   UNL     1       7.110  -0.470  21.155  1.00  0.00    -0.308 N 
HETATM   19  C   UNL     1       6.503  -0.024  20.167  1.00  0.00     0.121 A 
ATOM     20  HN  UNL     1       6.610  -0.826  21.969  1.00  0.00     0.170 HD
HETATM   21  C   UNL     1       6.240  -0.304  18.957  1.00  0.00    -0.010 A 
HETATM   22  C   UNL     1       5.694   1.358  20.336  1.00  0.00     0.071 A 
HETATM   23  N   UNL     1       5.756  -0.221  17.815  1.00  0.00    -0.331 N 
HETATM   24  C   UNL     1       5.170   0.954  18.130  1.00  0.00     0.099 A 
ATOM     25  HN  UNL     1       5.789  -0.803  16.978  1.00  0.00     0.175 HD
HETATM   26  C   UNL     1       5.149   1.590  19.142  1.00  0.00     0.044 A 
HETATM   27 CL   UNL     1       5.640   2.169  21.685  1.00  0.00    -0.081 Cl
ENDBRANCH  15  16
ENDBRANCH   1  15
TORSDOF 5
ENDMDL
MODEL 2
REMARK VINA RESULT:    -7.141      3.144      6.123
REMARK INTER + INTRA:         -10.230
REMARK INTER:                  -9.436
REMARK INTRA:                  -0.794
REMARK UNBOUND:                -1.001
REMARK  5 active torsions:
REMARK  status: ('A' for Active; 'I' for Inactive)
REMARK    1  A    between atoms: S_2  and  N_5 
REMARK    2  A    between atoms: N_5  and  C_7 
REMARK    3  A    between atoms: C_8  and  C_9 
REMARK    4  A    between atoms: C_9  and  C_15 
REMARK    5  A    between atoms: C_15  and  C_16 
REMARK       I    between atoms: C_16  and  N_18 
ROOT
HETATM    1  C   UNL     1       9.425  -1.024  23.274  1.00  0.00     0.076 C 
HETATM    2  C   UNL     1      11.040  -1.424  22.673  1.00  0.00     0.003 C 
HETATM    3  C   UNL     1      11.894  -1.144  23.270  1.00  0.00    -0.002 C 
HETATM    4  C   UNL     1      12.104  -0.398  24.341  1.00  0.00    -0.001 C 
HETATM    5  C   UNL     1      10.872   0.198  24.794  1.00  0.00    -0.002 C 
HETATM    6  C   UNL     1       9.891   0.071  24.442  1.00  0.00     0.003 C 
ENDROOT
BRANCH   1   7
HETATM    7  C   UNL     1       8.461  -0.758  22.483  1.00  0.00     0.021 C 
HETATM    8  C   UNL     1       7.375  -0.252  22.183  1.00  0.00     0.098 C 
BRANCH   8   9
HETATM    9  N   UNL     1       6.555   0.271  21.538  1.00  0.00    -0.296 N 
ATOM     10  HN  UNL     1       5.892   0.868  22.032  1.00  0.00     0.177 HD
BRANCH   9  11
HETATM   11  S   UNL     1       6.367   0.139  19.941  1.00  0.00     0.226 S 
HETATM   12  C   UNL     1       5.157   1.476  19.517  1.00  0.00     0.186 C 
HETATM   13  O   UNL     1       7.563   0.478  19.226  1.00  0.00    -0.206 OA
HETATM   14  O   UNL     1       5.766  -1.084  19.549  1.00  0.00    -0.206 OA
ENDBRANCH   9  11
ENDBRANCH   8   9
ENDBRANCH   1   7
BRANCH   1  15
HETATM   15  C   UNL     1       8.882  -1.985  23.755  1.00  0.00    -0.061 C 
BRANCH  15  16
HETATM   16  C   UNL     1       8.363  -3.057  24.341  1.00  0.00     0.291 C 
HETATM   17  O   UNL     1       8.126  -3.929  23.668  1.00  0.00    -0.259 OA
HETATM   18  N   UNL     1       8.209  -2.838  25.658  1.00  0.00    -0.308 N 
HETATM   19  C   UNL     1       7.762  -3.774  26.341  1.00  0.00     0.121 A 
ATOM     20  HN  UNL     1       8.450  -1.941  26.079  1.00  0.00     0.170 HD
HETATM   21  C   UNL     1       8.090  -4.915  26.793  1.00  0.00    -0.010 A 
HETATM   22  C   UNL     1       6.287  -3.617  26.966  1.00  0.00     0.071 A 
HETATM   23  N   UNL     1       8.026  -5.990  27.415  1.00  0.00    -0.331 N 
HETATM   24  C   UNL     1       6.773  -5.699  27.823  1.00  0.00     0.099 A 
ATOM     25  HN  UNL     1       8.663  -6.774  27.558  1.00  0.00     0.175 HD
HETATM   26  C   UNL     1       6.073  -4.748  27.639  1.00  0.00     0.044 A 
HETATM   27 CL   UNL     1       5.387  -2.343  26.750  1.00  0.00    -0.081 Cl
ENDBRANCH  15  16
ENDBRANCH   1  15
TORSDOF 5
ENDMDL
MODEL 3
REMARK VINA RESULT:    -7.031      4.001      6.319
REMARK INTER + INTRA:         -10.088
REMARK INTER:                  -9.397
REMARK INTRA:                  -0.691
REMARK UNBOUND:                -1.001
REMARK  5 active torsions:
REMARK  status: ('A' for Active; 'I' for Inactive)
REMARK    1  A    between atoms: S_2  and  N_5 
REMARK    2  A    between atoms: N_5  and  C_7 
REMARK    3  A    between atoms: C_8  and  C_9 
REMARK    4  A    between atoms: C_9  and  C_15 
REMARK    5  A    between atoms: C_15  and  C_16 
REMARK       I    between atoms: C_16  and  N_18 
ROOT
HETATM    1  C   UNL     1       7.138  -5.013  24.170  1.00  0.00     0.076 C 
HETATM    2  C   UNL     1       7.601  -5.850  22.682  1.00  0.00     0.003 C 
HETATM    3  C   UNL     1       6.907  -5.851  21.856  1.00  0.00    -0.002 C 
HETATM    4  C   UNL     1       5.645  -5.501  21.671  1.00  0.00    -0.001 C 
HETATM    5  C   UNL     1       5.067  -5.020  22.901  1.00  0.00    -0.002 C 
HETATM    6  C   UNL     1       5.510  -4.866  23.841  1.00  0.00     0.003 C 
ENDROOT
BRANCH   1   7
HETATM    7  C   UNL     1       7.535  -5.409  25.316  1.00  0.00     0.021 C 
HETATM    8  C   UNL     1       7.493  -5.469  26.548  1.00  0.00     0.098 C 
BRANCH   8   9
HETATM    9  N   UNL     1       7.573  -5.915  27.623  1.00  0.00    -0.296 N 
ATOM     10  HN  UNL     1       8.507  -6.162  27.951  1.00  0.00     0.177 HD
BRANCH   9  11
HETATM   11  S   UNL     1       6.350  -6.180  28.641  1.00  0.00     0.226 S 
HETATM   12  C   UNL     1       4.891  -5.397  27.810  1.00  0.00     0.186 C 
HETATM   13  O   UNL     1       6.021  -7.572  28.740  1.00  0.00    -0.206 OA
HETATM   14  O   UNL     1       6.506  -5.516  29.885  1.00  0.00    -0.206 OA
ENDBRANCH   9  11
ENDBRANCH   8   9
ENDBRANCH   1   7
BRANCH   1  15
HETATM   15  C   UNL     1       7.674  -3.939  24.258  1.00  0.00    -0.061 C 
BRANCH  15  16
HETATM   16  C   UNL     1       8.347  -2.801  24.384  1.00  0.00     0.291 C 
HETATM   17  O   UNL     1       8.054  -2.142  25.250  1.00  0.00    -0.259 OA
HETATM   18  N   UNL     1       9.244  -2.679  23.392  1.00  0.00    -0.308 N 
HETATM   19  C   UNL     1       9.970  -1.672  23.404  1.00  0.00     0.121 A 
ATOM     20  HN  UNL     1       9.325  -3.384  22.659  1.00  0.00     0.170 HD
HETATM   21  C   UNL     1      10.938  -1.156  24.045  1.00  0.00    -0.010 A 
HETATM   22  C   UNL     1       9.754  -0.569  22.251  1.00  0.00     0.071 A 
HETATM   23  N   UNL     1      11.841  -0.363  24.362  1.00  0.00    -0.331 N 
HETATM   24  C   UNL     1      11.496   0.462  23.351  1.00  0.00     0.099 A 
ATOM     25  HN  UNL     1      12.555  -0.343  25.091  1.00  0.00     0.175 HD
HETATM   26  C   UNL     1      10.654   0.381  22.505  1.00  0.00     0.044 A 
HETATM   27 CL   UNL     1       8.668  -0.703  21.119  1.00  0.00    -0.081 Cl
ENDBRANCH  15  16
ENDBRANCH   1  15
TORSDOF 5
ENDMDL
MODEL 4
REMARK VINA RESULT:    -6.857      1.930      2.014
REMARK INTER + INTRA:          -9.863
REMARK INTER:                  -9.330
REMARK INTRA:                  -0.533
REMARK UNBOUND:                -1.001
REMARK  5 active torsions:
REMARK  status: ('A' for Active; 'I' for Inactive)
REMARK    1  A    between atoms: S_2  and  N_5 
REMARK    2  A    between atoms: N_5  and  C_7 
REMARK    3  A    between atoms: C_8  and  C_9 
REMARK    4  A    between atoms: C_9  and  C_15 
REMARK    5  A    between atoms: C_15  and  C_16 
REMARK       I    between atoms: C_16  and  N_18 
ROOT
HETATM    1  C   UNL     1       9.675  -1.240  23.324  1.00  0.00     0.076 C 
HETATM    2  C   UNL     1       9.643  -0.084  24.662  1.00  0.00     0.003 C 
HETATM    3  C   UNL     1      10.559   0.422  24.926  1.00  0.00    -0.002 C 
HETATM    4  C   UNL     1      11.837   0.311  24.602  1.00  0.00    -0.001 C 
HETATM    5  C   UNL     1      12.034  -0.782  23.683  1.00  0.00    -0.002 C 
HETATM    6  C   UNL     1      11.331  -1.413  23.223  1.00  0.00     0.003 C 
ENDROOT
BRANCH   1   7
HETATM    7  C   UNL     1       8.914  -2.263  23.301  1.00  0.00     0.021 C 
HETATM    8  C   UNL     1       8.416  -3.290  23.772  1.00  0.00     0.098 C 
BRANCH   8   9
HETATM    9  N   UNL     1       7.619  -4.110  24.003  1.00  0.00    -0.296 N 
ATOM     10  HN  UNL     1       6.981  -4.359  23.247  1.00  0.00     0.177 HD
BRANCH   9  11
HETATM   11  S   UNL     1       7.426  -4.886  25.404  1.00  0.00     0.226 S 
HETATM   12  C   UNL     1       7.063  -3.538  26.623  1.00  0.00     0.186 C 
HETATM   13  O   UNL     1       6.256  -5.716  25.407  1.00  0.00    -0.206 OA
HETATM   14  O   UNL     1       8.609  -5.525  25.856  1.00  0.00    -0.206 OA
ENDBRANCH   9  11
ENDBRANCH   8   9
ENDBRANCH   1   7
BRANCH   1  15
HETATM   15  C   UNL     1       9.215  -0.765  22.319  1.00  0.00    -0.061 C 
BRANCH  15  16
HETATM   16  C   UNL     1       8.645  -0.317  21.206  1.00  0.00     0.291 C 
HETATM   17  O   UNL     1       9.343   0.032  20.393  1.00  0.00    -0.259 OA
HETATM   18  N   UNL     1       7.307  -0.361  21.319  1.00  0.00    -0.308 N 
HETATM   19  C   UNL     1       6.641  -0.001  20.334  1.00  0.00     0.121 A 
ATOM     20  HN  UNL     1       6.857  -0.677  22.178  1.00  0.00     0.170 HD
HETATM   21  C   UNL     1       6.334  -0.370  19.159  1.00  0.00    -0.010 A 
HETATM   22  C   UNL     1       5.796   1.364  20.450  1.00  0.00     0.071 A 
HETATM   23  N   UNL     1       5.796  -0.379  18.037  1.00  0.00    -0.331 N 
HETATM   24  C   UNL     1       5.186   0.796  18.302  1.00  0.00     0.099 A 
ATOM     25  HN  UNL     1       5.810  -1.015  17.240  1.00  0.00     0.175 HD
HETATM   26  C   UNL     1       5.190   1.498  19.271  1.00  0.00     0.044 A 
HETATM   27 CL   UNL     1       5.776   2.262  21.743  1.00  0.00    -0.081 Cl
ENDBRANCH  15  16
ENDBRANCH   1  15
TORSDOF 5
ENDMDL
MODEL 5
REMARK VINA RESULT:    -6.594      2.743      5.250
REMARK INTER + INTRA:          -9.523
REMARK INTER:                  -8.503
REMARK INTRA:                  -1.020
REMARK UNBOUND:                -1.001
REMARK  5 active torsions:
REMARK  status: ('A' for Active; 'I' for Inactive)
REMARK    1  A    between atoms: S_2  and  N_5 
REMARK    2  A    between atoms: N_5  and  C_7 
REMARK    3  A    between atoms: C_8  and  C_9 
REMARK    4  A    between atoms: C_9  and  C_15 
REMARK    5  A    between atoms: C_15  and  C_16 
REMARK       I    between atoms: C_16  and  N_18 
ROOT
HETATM    1  C   UNL     1       6.673  -2.991  22.134  1.00  0.00     0.076 C 
HETATM    2  C   UNL     1       5.691  -2.991  23.604  1.00  0.00     0.003 C 
HETATM    3  C   UNL     1       5.753  -3.843  24.264  1.00  0.00    -0.002 C 
HETATM    4  C   UNL     1       6.289  -5.051  24.212  1.00  0.00    -0.001 C 
HETATM    5  C   UNL     1       6.924  -5.270  22.936  1.00  0.00    -0.002 C 
HETATM    6  C   UNL     1       7.058  -4.614  22.127  1.00  0.00     0.003 C 
ENDROOT
BRANCH   1   7
HETATM    7  C   UNL     1       6.284  -2.413  21.065  1.00  0.00     0.021 C 
HETATM    8  C   UNL     1       5.612  -1.603  20.420  1.00  0.00     0.098 C 
BRANCH   8   9
HETATM    9  N   UNL     1       5.334  -0.830  19.592  1.00  0.00    -0.296 N 
ATOM     10  HN  UNL     1       4.474  -1.003  19.071  1.00  0.00     0.177 HD
BRANCH   9  11
HETATM   11  S   UNL     1       6.176   0.486  19.190  1.00  0.00     0.226 S 
HETATM   12  C   UNL     1       5.472   1.820  20.265  1.00  0.00     0.186 C 
HETATM   13  O   UNL     1       7.553   0.385  19.575  1.00  0.00    -0.206 OA
HETATM   14  O   UNL     1       5.962   0.898  17.849  1.00  0.00    -0.206 OA
ENDBRANCH   9  11
ENDBRANCH   8   9
ENDBRANCH   1   7
BRANCH   1  15
HETATM   15  C   UNL     1       7.652  -2.301  22.256  1.00  0.00    -0.061 C 
BRANCH  15  16
HETATM   16  C   UNL     1       8.673  -1.461  22.385  1.00  0.00     0.291 C 
HETATM   17  O   UNL     1       9.700  -1.898  22.236  1.00  0.00    -0.259 OA
HETATM   18  N   UNL     1       8.227  -0.235  22.704  1.00  0.00    -0.308 N 
HETATM   19  C   UNL     1       9.076   0.664  22.824  1.00  0.00     0.121 A 
ATOM     20  HN  UNL     1       7.234  -0.049  22.842  1.00  0.00     0.170 HD
HETATM   21  C   UNL     1       9.872   1.373  22.134  1.00  0.00    -0.010 A 
HETATM   22  C   UNL     1       9.342   1.262  24.295  1.00  0.00     0.071 A 
HETATM   23  N   UNL     1      10.716   2.238  21.843  1.00  0.00    -0.331 N 
HETATM   24  C   UNL     1      10.830   2.590  23.141  1.00  0.00     0.099 A 
ATOM     25  HN  UNL     1      11.149   2.555  20.975  1.00  0.00     0.175 HD
HETATM   26  C   UNL     1      10.280   2.194  24.127  1.00  0.00     0.044 A 
HETATM   27 CL   UNL     1       8.585   0.762  25.582  1.00  0.00    -0.081 Cl
ENDBRANCH  15  16
ENDBRANCH   1  15
TORSDOF 5
ENDMDL
MODEL 6
REMARK VINA RESULT:    -6.582     15.136     16.333
REMARK INTER + INTRA:          -9.507
REMARK INTER:                  -8.866
REMARK INTRA:                  -0.641
REMARK UNBOUND:                -1.001
REMARK  5 active torsions:
REMARK  status: ('A' for Active; 'I' for Inactive)
REMARK    1  A    between atoms: S_2  and  N_5 
REMARK    2  A    between atoms: N_5  and  C_7 
REMARK    3  A    between atoms: C_8  and  C_9 
REMARK    4  A    between atoms: C_9  and  C_15 
REMARK    5  A    between atoms: C_15  and  C_16 
REMARK       I    between atoms: C_16  and  N_18 
ROOT
HETATM    1  C   UNL     1      23.183  -1.573  23.644  1.00  0.00     0.076 C 
HETATM    2  C   UNL     1      21.698  -1.252  24.548  1.00  0.00     0.003 C 
HETATM    3  C   UNL     1      21.545  -0.262  24.950  1.00  0.00    -0.002 C 
HETATM    4  C   UNL     1      22.276   0.830  25.097  1.00  0.00    -0.001 C 
HETATM    5  C   UNL     1      23.616   0.613  24.610  1.00  0.00    -0.002 C 
HETATM    6  C   UNL     1      24.033  -0.223  24.131  1.00  0.00     0.003 C 
ENDROOT
BRANCH   1   7
HETATM    7  C   UNL     1      23.736  -2.722  23.645  1.00  0.00     0.021 C 
HETATM    8  C   UNL     1      23.910  -3.873  24.059  1.00  0.00     0.098 C 
BRANCH   8   9
HETATM    9  N   UNL     1      24.135  -5.017  24.040  1.00  0.00    -0.296 N 
ATOM     10  HN  UNL     1      24.390  -5.422  23.139  1.00  0.00     0.177 HD
BRANCH   9  11
HETATM   11  S   UNL     1      24.084  -6.022  25.301  1.00  0.00     0.226 S 
HETATM   12  C   UNL     1      25.825  -6.042  25.934  1.00  0.00     0.186 C 
HETATM   13  O   UNL     1      23.300  -5.497  26.380  1.00  0.00    -0.206 OA
HETATM   14  O   UNL     1      23.776  -7.358  24.937  1.00  0.00    -0.206 OA
ENDBRANCH   9  11
ENDBRANCH   8   9
ENDBRANCH   1   7
BRANCH   1  15
HETATM   15  C   UNL     1      22.987  -1.571  22.456  1.00  0.00    -0.061 C 
BRANCH  15  16
HETATM   16  C   UNL     1      22.686  -1.616  21.164  1.00  0.00     0.291 C 
HETATM   17  O   UNL     1      21.599  -1.768  20.909  1.00  0.00    -0.259 OA
HETATM   18  N   UNL     1      23.799  -1.491  20.423  1.00  0.00    -0.308 N 
HETATM   19  C   UNL     1      23.662  -1.482  19.188  1.00  0.00     0.121 A 
ATOM     20  HN  UNL     1      24.719  -1.406  20.855  1.00  0.00     0.170 HD
HETATM   21  C   UNL     1      23.218  -0.756  18.246  1.00  0.00    -0.010 A 
HETATM   22  C   UNL     1      24.223  -2.741  18.356  1.00  0.00     0.071 A 
HETATM   23  N   UNL     1      22.942  -0.368  17.097  1.00  0.00    -0.331 N 
HETATM   24  C   UNL     1      23.436  -1.510  16.574  1.00  0.00     0.099 A 
ATOM     25  HN  UNL     1      22.515   0.473  16.707  1.00  0.00     0.175 HD
HETATM   26  C   UNL     1      23.947  -2.465  17.081  1.00  0.00     0.044 A 
HETATM   27 CL   UNL     1      24.930  -3.977  19.028  1.00  0.00    -0.081 Cl
ENDBRANCH  15  16
ENDBRANCH   1  15
TORSDOF 5
ENDMDL
MODEL 7
REMARK VINA RESULT:    -6.483     23.570     26.875
REMARK INTER + INTRA:          -9.379
REMARK INTER:                  -8.564
REMARK INTRA:                  -0.815
REMARK UNBOUND:                -1.001
REMARK  5 active torsions:
REMARK  status: ('A' for Active; 'I' for Inactive)
REMARK    1  A    between atoms: S_2  and  N_5 
REMARK    2  A    between atoms: N_5  and  C_7 
REMARK    3  A    between atoms: C_8  and  C_9 
REMARK    4  A    between atoms: C_9  and  C_15 
REMARK    5  A    between atoms: C_15  and  C_16 
REMARK       I    between atoms: C_16  and  N_18 
ROOT
HETATM    1  C   UNL     1       8.380  17.403   1.563  1.00  0.00     0.076 C 
HETATM    2  C   UNL     1       9.162  18.001   0.094  1.00  0.00     0.003 C 
HETATM    3  C   UNL     1       8.859  18.962  -0.294  1.00  0.00    -0.002 C 
HETATM    4  C   UNL     1       7.889  19.826  -0.048  1.00  0.00    -0.001 C 
HETATM    5  C   UNL     1       7.018  19.329   0.988  1.00  0.00    -0.002 C 
HETATM    6  C   UNL     1       7.090  18.459   1.571  1.00  0.00     0.003 C 
ENDROOT
BRANCH   1   7
HETATM    7  C   UNL     1       8.200  16.157   1.768  1.00  0.00     0.021 C 
HETATM    8  C   UNL     1       8.561  14.979   1.851  1.00  0.00     0.098 C 
BRANCH   8   9
HETATM    9  N   UNL     1       8.615  13.878   2.233  1.00  0.00    -0.296 N 
ATOM     10  HN  UNL     1       8.469  13.143   1.542  1.00  0.00     0.177 HD
BRANCH   9  11
HETATM   11  S   UNL     1       8.898  13.406   3.750  1.00  0.00     0.226 S 
HETATM   12  C   UNL     1       7.541  14.199   4.731  1.00  0.00     0.186 C 
HETATM   13  O   UNL     1       8.707  11.996   3.922  1.00  0.00    -0.206 OA
HETATM   14  O   UNL     1      10.116  13.910   4.273  1.00  0.00    -0.206 OA
ENDBRANCH   9  11
ENDBRANCH   8   9
ENDBRANCH   1   7
BRANCH   1  15
HETATM   15  C   UNL     1       9.083  17.550   2.529  1.00  0.00    -0.061 C 
BRANCH  15  16
HETATM   16  C   UNL     1       9.791  17.775   3.630  1.00  0.00     0.291 C 
HETATM   17  O   UNL     1       9.560  17.117   4.515  1.00  0.00    -0.259 OA
HETATM   18  N   UNL     1      10.639  18.799   3.435  1.00  0.00    -0.308 N 
HETATM   19  C   UNL     1      11.391  19.100   4.377  1.00  0.00     0.121 A 
ATOM     20  HN  UNL     1      10.664  19.308   2.552  1.00  0.00     0.170 HD
HETATM   21  C   UNL     1      12.403  18.670   5.012  1.00  0.00    -0.010 A 
HETATM   22  C   UNL     1      11.145  20.505   5.123  1.00  0.00     0.071 A 
HETATM   23  N   UNL     1      13.342  18.625   5.826  1.00  0.00    -0.331 N 
HETATM   24  C   UNL     1      12.967  19.812   6.350  1.00  0.00     0.099 A 
ATOM     25  HN  UNL     1      14.092  17.961   6.020  1.00  0.00     0.175 HD
HETATM   26  C   UNL     1      12.081  20.564   6.069  1.00  0.00     0.044 A 
HETATM   27 CL   UNL     1       9.999  21.508   4.721  1.00  0.00    -0.081 Cl
ENDBRANCH  15  16
ENDBRANCH   1  15
TORSDOF 5
ENDMDL
MODEL 8
REMARK VINA RESULT:    -6.443      2.742      6.112
REMARK INTER + INTRA:          -9.328
REMARK INTER:                  -8.587
REMARK INTRA:                  -0.740
REMARK UNBOUND:                -1.001
REMARK  5 active torsions:
REMARK  status: ('A' for Active; 'I' for Inactive)
REMARK    1  A    between atoms: S_2  and  N_5 
REMARK    2  A    between atoms: N_5  and  C_7 
REMARK    3  A    between atoms: C_8  and  C_9 
REMARK    4  A    between atoms: C_9  and  C_15 
REMARK    5  A    between atoms: C_15  and  C_16 
REMARK       I    between atoms: C_16  and  N_18 
ROOT
HETATM    1  C   UNL     1       6.187  -3.353  21.962  1.00  0.00     0.076 C 
HETATM    2  C   UNL     1       4.793  -3.800  22.954  1.00  0.00     0.003 C 
HETATM    3  C   UNL     1       4.829  -4.730  23.501  1.00  0.00    -0.002 C 
HETATM    4  C   UNL     1       5.623  -5.787  23.532  1.00  0.00    -0.001 C 
HETATM    5  C   UNL     1       6.687  -5.651  22.569  1.00  0.00    -0.002 C 
HETATM    6  C   UNL     1       6.927  -4.847  21.938  1.00  0.00     0.003 C 
ENDROOT
BRANCH   1   7
HETATM    7  C   UNL     1       6.058  -2.675  20.889  1.00  0.00     0.021 C 
HETATM    8  C   UNL     1       5.581  -1.775  20.192  1.00  0.00     0.098 C 
BRANCH   8   9
HETATM    9  N   UNL     1       5.523  -0.929  19.391  1.00  0.00    -0.296 N 
ATOM     10  HN  UNL     1       4.823  -1.036  18.657  1.00  0.00     0.177 HD
BRANCH   9  11
HETATM   11  S   UNL     1       6.442   0.396  19.332  1.00  0.00     0.226 S 
HETATM   12  C   UNL     1       5.895   1.258  17.786  1.00  0.00     0.186 C 
HETATM   13  O   UNL     1       6.143   1.310  20.395  1.00  0.00    -0.206 OA
HETATM   14  O   UNL     1       7.821   0.111  19.163  1.00  0.00    -0.206 OA
ENDBRANCH   9  11
ENDBRANCH   8   9
ENDBRANCH   1   7
BRANCH   1  15
HETATM   15  C   UNL     1       6.870  -2.525  22.507  1.00  0.00    -0.061 C 
BRANCH  15  16
HETATM   16  C   UNL     1       7.585  -1.545  23.048  1.00  0.00     0.291 C 
HETATM   17  O   UNL     1       7.133  -0.514  23.002  1.00  0.00    -0.259 OA
HETATM   18  N   UNL     1       8.745  -2.025  23.525  1.00  0.00    -0.308 N 
HETATM   19  C   UNL     1       9.503  -1.220  24.091  1.00  0.00     0.121 A 
ATOM     20  HN  UNL     1       8.994  -3.009  23.426  1.00  0.00     0.170 HD
HETATM   21  C   UNL     1       9.603  -0.536  25.155  1.00  0.00    -0.010 A 
HETATM   22  C   UNL     1      10.890  -0.847  23.363  1.00  0.00     0.071 A 
HETATM   23  N   UNL     1      10.076   0.227  26.017  1.00  0.00    -0.331 N 
HETATM   24  C   UNL     1      11.166   0.446  25.250  1.00  0.00     0.099 A 
ATOM     25  HN  UNL     1       9.766   0.555  26.932  1.00  0.00     0.175 HD
HETATM   26  C   UNL     1      11.490   0.017  24.182  1.00  0.00     0.044 A 
HETATM   27 CL   UNL     1      11.327  -1.447  21.975  1.00  0.00    -0.081 Cl
ENDBRANCH  15  16
ENDBRANCH   1  15
TORSDOF 5
ENDMDL
MODEL 9
REMARK VINA RESULT:    -6.369     24.452     27.844
REMARK INTER + INTRA:          -9.232
REMARK INTER:                  -8.390
REMARK INTRA:                  -0.842
REMARK UNBOUND:                -1.001
REMARK  5 active torsions:
REMARK  status: ('A' for Active; 'I' for Inactive)
REMARK    1  A    between atoms: S_2  and  N_5 
REMARK    2  A    between atoms: N_5  and  C_7 
REMARK    3  A    between atoms: C_8  and  C_9 
REMARK    4  A    between atoms: C_9  and  C_15 
REMARK    5  A    between atoms: C_15  and  C_16 
REMARK       I    between atoms: C_16  and  N_18 
ROOT
HETATM    1  C   UNL     1       9.679  20.256   1.619  1.00  0.00     0.076 C 
HETATM    2  C   UNL     1       8.290  21.127   2.282  1.00  0.00     0.003 C 
HETATM    3  C   UNL     1       7.610  21.606   1.596  1.00  0.00    -0.002 C 
HETATM    4  C   UNL     1       7.593  21.874   0.301  1.00  0.00    -0.001 C 
HETATM    5  C   UNL     1       8.810  21.422  -0.326  1.00  0.00    -0.002 C 
HETATM    6  C   UNL     1       9.620  20.889   0.078  1.00  0.00     0.003 C 
ENDROOT
BRANCH   1   7
HETATM    7  C   UNL     1      10.787  20.180   2.247  1.00  0.00     0.021 C 
HETATM    8  C   UNL     1      11.552  20.418   3.186  1.00  0.00     0.098 C 
BRANCH   8   9
HETATM    9  N   UNL     1      12.392  20.252   3.979  1.00  0.00    -0.296 N 
ATOM     10  HN  UNL     1      13.078  20.999   4.085  1.00  0.00     0.177 HD
BRANCH   9  11
HETATM   11  S   UNL     1      12.572  18.957   4.923  1.00  0.00     0.226 S 
HETATM   12  C   UNL     1      10.910  18.738   5.713  1.00  0.00     0.186 C 
HETATM   13  O   UNL     1      12.785  17.759   4.165  1.00  0.00    -0.206 OA
HETATM   14  O   UNL     1      13.493  19.162   5.982  1.00  0.00    -0.206 OA
ENDBRANCH   9  11
ENDBRANCH   8   9
ENDBRANCH   1   7
BRANCH   1  15
HETATM   15  C   UNL     1       9.496  19.066   1.620  1.00  0.00    -0.061 C 
BRANCH  15  16
HETATM   16  C   UNL     1       9.391  17.742   1.631  1.00  0.00     0.291 C 
HETATM   17  O   UNL     1       9.396  17.232   0.627  1.00  0.00    -0.259 OA
HETATM   18  N   UNL     1       9.272  17.297   2.893  1.00  0.00    -0.308 N 
HETATM   19  C   UNL     1       9.198  16.068   3.057  1.00  0.00     0.121 A 
ATOM     20  HN  UNL     1       9.243  17.941   3.683  1.00  0.00     0.170 HD
HETATM   21  C   UNL     1       9.905  15.016   2.986  1.00  0.00    -0.010 A 
HETATM   22  C   UNL     1       7.800  15.455   3.568  1.00  0.00     0.071 A 
HETATM   23  N   UNL     1      10.234  13.819   3.064  1.00  0.00    -0.331 N 
HETATM   24  C   UNL     1       8.987  13.484   3.458  1.00  0.00     0.099 A 
ATOM     25  HN  UNL     1      11.096  13.300   2.898  1.00  0.00     0.175 HD
HETATM   26  C   UNL     1       8.008  14.141   3.656  1.00  0.00     0.044 A 
HETATM   27 CL   UNL     1       6.527  16.334   3.864  1.00  0.00    -0.081 Cl
ENDBRANCH  15  16
ENDBRANCH   1  15
TORSDOF 5
ENDMDL
