stable:False satoms:17 tatoms:24 sratio:0.7083333333333334
  -OEChem-07092417393D

 24 25  0     0  0  0  0  0  0999 V2000
    7.2309   -4.8366   26.1243 H   0  0  0  0  0  0  0  0  0  0  0  0
    8.2629   -4.4660   25.8978 C   0  0  0  0  0  0  0  0  0  0  0  0
    8.9387   -5.3558   25.7876 H   0  0  0  0  0  0  0  0  0  0  0  0
    8.6223   -3.8498   26.7452 H   0  0  0  0  0  0  0  0  0  0  0  0
    8.2466   -3.6861   24.6887 N   0  0  0  0  0  0  0  0  0  0  0  0
    9.3430   -3.2167   24.3370 N   0  0  0  0  0  0  0  0  0  0  0  0
    9.4911   -2.1073   23.7366 N   0  0  0  0  0  0  0  0  0  0  0  0
   10.5576   -1.3599   23.9082 C   0  0  0  0  0  0  0  0  0  0  0  0
   11.5247   -0.5507   24.4283 C   0  0  0  0  0  0  0  0  0  0  0  0
   11.9084   -0.0345   25.2266 H   0  0  0  0  0  0  0  0  0  0  0  0
   13.4211   -0.1840   22.9333 H   0  0  0  0  0  0  0  0  0  0  0  0
   12.4457   -0.4933   22.9899 C   0  0  0  0  0  0  0  0  0  0  0  0
   11.1161   -0.7902   22.6518 C   0  0  0  0  0  0  0  0  0  0  0  0
    9.9823   -0.6047   22.1084 N   0  0  0  0  0  0  0  0  0  0  0  0
    9.1178    0.0562   21.3184 C   0  0  0  0  0  0  0  0  0  0  0  0
    9.4888    0.9703   20.6205 O   0  0  0  0  0  0  0  0  0  0  0  0
    7.7702   -0.3441   21.3708 N   0  0  0  0  0  0  0  0  0  0  0  0
    7.0304    0.0786   20.4323 C   0  0  0  0  0  0  0  0  0  0  0  0
    7.4805   -0.0720   18.7299 S   0  0  0  0  0  0  0  0  0  0  0  0
    5.9471    0.5796   18.3563 C   0  0  0  0  0  0  0  0  0  0  0  0
    5.5262    0.7680   17.4180 H   0  0  0  0  0  0  0  0  0  0  0  0
    5.1555    0.8483   19.4059 N   0  0  0  0  0  0  0  0  0  0  0  0
    5.7257    0.5899   20.5607 C   0  0  0  0  0  0  0  0  0  0  0  0
    5.2505    0.7708   21.5200 H   0  0  0  0  0  0  0  0  0  0  0  0
 20 21  1  0  0  0  0
 19 20  1  0  0  0  0
 20 22  2  0  0  0  0
 18 19  1  0  0  0  0
 22 23  1  0  0  0  0
 18 23  2  0  0  0  0
 17 18  1  0  0  0  0
 23 24  1  0  0  0  0
 15 16  2  0  0  0  0
 15 17  1  0  0  0  0
 14 15  1  0  0  0  0
 13 14  1  0  0  0  0
 12 13  2  0  0  0  0
  8 13  1  0  0  0  0
 11 12  1  0  0  0  0
  9 12  1  0  0  0  0
  7  8  1  0  0  0  0
  6  7  1  0  0  0  0
  8  9  2  0  0  0  0
  5  6  2  3  0  0  0
  9 10  1  0  0  0  0
  2  5  1  0  0  0  0
  2  3  1  0  0  0  0
  1  2  1  0  0  0  0
  2  4  1  0  0  0  0
M  END
> <Shapegauss>
-205.943741

$$$$
