stable:False satoms:17 tatoms:24 sratio:0.7083333333333334
  -OEChem-08062407473D

 27 28  0     0  0  0  0  0  0999 V2000
  -13.5196    0.3359  -23.8580 H   0  0  0  0  0  0  0  0  0  0  0  0
  -12.7678   -0.2646  -24.4306 C   0  0  0  0  0  0  0  0  0  0  0  0
  -12.6790    0.1745  -25.4601 H   0  0  0  0  0  0  0  0  0  0  0  0
  -13.1274   -1.3085  -24.5194 H   0  0  0  0  0  0  0  0  0  0  0  0
  -11.4992   -0.2325  -23.7522 N   0  0  0  0  0  0  0  0  0  0  0  0
  -10.5820   -0.8711  -24.2971 N   0  0  0  0  0  0  0  0  0  0  0  0
   -9.6487   -1.4642  -23.6723 N   0  0  0  0  0  0  0  0  0  0  0  0
   -9.0944   -2.5639  -24.1292 C   0  0  0  0  0  0  0  0  0  0  0  0
   -8.8559   -3.8444  -24.5345 C   0  0  0  0  0  0  0  0  0  0  0  0
   -9.1966   -4.7985  -24.6911 H   0  0  0  0  0  0  0  0  0  0  0  0
   -6.6676   -4.1657  -25.5708 H   0  0  0  0  0  0  0  0  0  0  0  0
   -7.2320   -3.5494  -24.9776 C   0  0  0  0  0  0  0  0  0  0  0  0
   -7.6102   -2.5929  -24.0223 C   0  0  0  0  0  0  0  0  0  0  0  0
   -7.5737   -1.9782  -22.9106 N   0  0  0  0  0  0  0  0  0  0  0  0
   -7.0587   -1.7100  -21.6977 C   0  0  0  0  0  0  0  0  0  0  0  0
   -6.0124   -2.2012  -21.3452 O   0  0  0  0  0  0  0  0  0  0  0  0
   -7.8078   -0.8658  -20.8580 N   0  0  0  0  0  0  0  0  0  0  0  0
   -7.1925   -0.3961  -19.8542 C   0  0  0  0  0  0  0  0  0  0  0  0
   -5.6146    0.3879  -19.9916 S   0  0  0  0  0  0  0  0  0  0  0  0
   -5.7385    0.7353  -18.3244 C   0  0  0  0  0  0  0  0  0  0  0  0
   -5.0646    1.2462  -17.7098 H   0  0  0  0  0  0  0  0  0  0  0  0
   -6.8725    0.3371  -17.7279 N   0  0  0  0  0  0  0  0  0  0  0  0
   -7.6885   -0.2939  -18.5413 C   0  0  0  0  0  0  0  0  0  0  0  0
   -8.6405   -0.7142  -18.2317 H   0  0  0  0  0  0  0  0  0  0  0  0
   -9.3262   -1.0824  -22.8061 H   0  0  0  0  0  0  0  0  0  0  0  0
   -8.3522   -1.3534  -22.9704 H   0  0  0  0  0  0  0  0  0  0  0  0
   -8.7666   -0.6494  -21.0418 H   0  0  0  0  0  0  0  0  0  0  0  0
 20 21  1  0  0  0  0
 19 20  1  0  0  0  0
 20 22  2  0  0  0  0
 18 19  1  0  0  0  0
 22 23  1  0  0  0  0
 18 23  2  0  0  0  0
 17 18  1  0  0  0  0
 23 24  1  0  0  0  0
 15 16  2  0  0  0  0
 15 17  1  0  0  0  0
 14 15  1  0  0  0  0
 13 14  1  0  0  0  0
 12 13  2  0  0  0  0
  8 13  1  0  0  0  0
 11 12  1  0  0  0  0
  9 12  1  0  0  0  0
  7  8  1  0  0  0  0
  6  7  1  0  0  0  0
  8  9  2  0  0  0  0
  5  6  2  3  0  0  0
  9 10  1  0  0  0  0
  2  5  1  0  0  0  0
  2  3  1  0  0  0  0
  1  2  1  0  0  0  0
  2  4  1  0  0  0  0
  7 25  1  0  0  0  0
 14 26  1  0  0  0  0
 17 27  1  0  0  0  0
M  END
> <Chemgauss4>
-7.231946

$$$$
