stable:False satoms:17 tatoms:24 sratio:0.7083333333333334
  -OEChem-08062407473D

 27 28  0     0  0  0  0  0  0999 V2000
   13.4917    0.3908   23.8957 H   0  0  0  0  0  0  0  0  0  0  0  0
   12.7398   -0.2097   24.4683 C   0  0  0  0  0  0  0  0  0  0  0  0
   12.6511    0.2294   25.4979 H   0  0  0  0  0  0  0  0  0  0  0  0
   13.0994   -1.2536   24.5572 H   0  0  0  0  0  0  0  0  0  0  0  0
   11.4713   -0.1776   23.7900 N   0  0  0  0  0  0  0  0  0  0  0  0
   10.5540   -0.8162   24.3349 N   0  0  0  0  0  0  0  0  0  0  0  0
    9.6208   -1.4093   23.7100 N   0  0  0  0  0  0  0  0  0  0  0  0
    9.0664   -2.5090   24.1670 C   0  0  0  0  0  0  0  0  0  0  0  0
    8.8280   -3.7895   24.5722 C   0  0  0  0  0  0  0  0  0  0  0  0
    9.1686   -4.7436   24.7288 H   0  0  0  0  0  0  0  0  0  0  0  0
    6.6397   -4.1108   25.6085 H   0  0  0  0  0  0  0  0  0  0  0  0
    7.2040   -3.4945   25.0153 C   0  0  0  0  0  0  0  0  0  0  0  0
    7.5822   -2.5380   24.0601 C   0  0  0  0  0  0  0  0  0  0  0  0
    7.5457   -1.9233   22.9484 N   0  0  0  0  0  0  0  0  0  0  0  0
    7.0307   -1.6551   21.7355 C   0  0  0  0  0  0  0  0  0  0  0  0
    5.9844   -2.1463   21.3829 O   0  0  0  0  0  0  0  0  0  0  0  0
    7.7798   -0.8108   20.8958 N   0  0  0  0  0  0  0  0  0  0  0  0
    7.1646   -0.3412   19.8919 C   0  0  0  0  0  0  0  0  0  0  0  0
    5.5866    0.4429   20.0294 S   0  0  0  0  0  0  0  0  0  0  0  0
    5.7106    0.7902   18.3622 C   0  0  0  0  0  0  0  0  0  0  0  0
    5.0366    1.3011   17.7475 H   0  0  0  0  0  0  0  0  0  0  0  0
    6.8446    0.3920   17.7656 N   0  0  0  0  0  0  0  0  0  0  0  0
    7.6605   -0.2389   18.5790 C   0  0  0  0  0  0  0  0  0  0  0  0
    8.6125   -0.6593   18.2694 H   0  0  0  0  0  0  0  0  0  0  0  0
    9.2982   -1.0275   22.8439 H   0  0  0  0  0  0  0  0  0  0  0  0
    8.3243   -1.2985   23.0082 H   0  0  0  0  0  0  0  0  0  0  0  0
    8.7387   -0.5945   21.0795 H   0  0  0  0  0  0  0  0  0  0  0  0
 20 21  1  0  0  0  0
 19 20  1  0  0  0  0
 20 22  2  0  0  0  0
 18 19  1  0  0  0  0
 22 23  1  0  0  0  0
 18 23  2  0  0  0  0
 17 18  1  0  0  0  0
 23 24  1  0  0  0  0
 15 16  2  0  0  0  0
 15 17  1  0  0  0  0
 14 15  1  0  0  0  0
 13 14  1  0  0  0  0
 12 13  2  0  0  0  0
  8 13  1  0  0  0  0
 11 12  1  0  0  0  0
  9 12  1  0  0  0  0
  7  8  1  0  0  0  0
  6  7  1  0  0  0  0
  8  9  2  0  0  0  0
  5  6  2  3  0  0  0
  9 10  1  0  0  0  0
  2  5  1  0  0  0  0
  2  3  1  0  0  0  0
  1  2  1  0  0  0  0
  2  4  1  0  0  0  0
  7 25  1  0  0  0  0
 14 26  1  0  0  0  0
 17 27  1  0  0  0  0
M  END
> <Chemgauss4>
-7.169897

$$$$
