stable:False satoms:6 tatoms:24 sratio:0.25
  -OEChem-08062410313D

 27 29  0     0  0  0  0  0  0999 V2000
    6.3423   -4.5323   26.7893 Br  0  0  0  0  0  0  0  0  0  0  0  0
    8.2490   -4.3284   26.3270 S   0  0  0  0  0  0  0  0  0  0  0  0
    8.7709   -5.6691   26.2179 O   0  0  0  0  0  0  0  0  0  0  0  0
    8.8142   -3.5110   27.3410 O   0  0  0  0  0  0  0  0  0  0  0  0
    8.2218   -3.6072   24.9034 N   0  0  0  0  0  0  0  0  0  0  0  0
    8.9255   -2.9769   24.2824 C   0  0  0  0  0  0  0  0  0  0  0  0
    9.4353   -2.1340   23.7159 C   0  0  0  0  0  0  0  0  0  0  0  0
   10.2926   -1.1682   23.4791 C   0  0  0  0  0  0  0  0  0  0  0  0
   11.4307   -0.3625   24.5527 S   0  0  0  0  0  0  0  0  0  0  0  0
   12.7857   -0.6931   23.6803 C   0  0  0  0  0  2  0  0  0  0  0  0
   12.5435   -1.6306   22.8377 C   0  0  0  0  0  2  0  0  0  0  0  0
   12.0341   -2.3025   22.2835 H   0  0  0  0  0  0  0  0  0  0  0  0
    9.7706   -0.8538   22.5042 C   0  0  0  0  0  0  0  0  0  0  0  0
    9.1707   -0.1445   21.4752 C   0  0  0  0  0  0  0  0  0  0  0  0
    9.7623    0.7215   20.9974 O   0  0  0  0  0  0  0  0  0  0  0  0
    7.9436   -0.5840   21.2241 N   0  0  0  0  0  0  0  0  0  0  0  0
    7.1184    0.0553   20.4585 C   0  0  0  0  0  0  0  0  0  0  0  0
    7.0825    0.1968   19.1072 C   0  0  0  0  0  0  0  0  0  0  0  0
    6.8744    0.4014   17.6558 N   0  0  0  0  0  0  0  0  0  0  0  0
    6.1932    0.8177   18.4515 C   0  0  0  0  0  0  0  0  0  0  0  0
    5.0824    1.4854   19.6289 S   0  0  0  0  0  0  0  0  0  0  0  0
    6.0014    0.7568   20.8214 C   0  0  0  0  0  0  0  0  0  0  0  0
    5.7134    0.8854   21.8464 H   0  0  0  0  0  0  0  0  0  0  0  0
    7.4201   -3.0146   24.9817 H   0  0  0  0  0  0  0  0  0  0  0  0
    9.6524   -3.7470   24.0704 H   0  0  0  0  0  0  0  0  0  0  0  0
    7.6452   -1.4419   21.6424 H   0  0  0  0  0  0  0  0  0  0  0  0
    7.1373    0.2705   16.6999 H   0  0  0  0  0  0  0  0  0  0  0  0
 19 20  1  0  0  0  0
 18 19  1  0  0  0  0
 18 20  2  0  0  0  0
 20 21  1  0  0  0  0
 17 18  1  0  0  0  0
 21 22  1  0  0  0  0
 17 22  2  0  0  0  0
 16 17  1  0  0  0  0
 22 23  1  0  0  0  0
 14 15  2  0  0  0  0
 14 16  1  0  0  0  0
 13 14  1  0  0  0  0
 11 12  1  0  0  0  0
  8 13  2  0  0  0  0
  7 13  1  0  0  0  0
 10 11  1  0  0  0  0
  7  8  1  0  0  0  0
  8  9  1  0  0  0  0
  6  7  2  3  0  0  0
  9 10  1  0  0  0  0
  5  6  1  0  0  0  0
  2  5  1  0  0  0  0
  2  3  2  0  0  0  0
  1  2  1  0  0  0  0
  2  4  2  0  0  0  0
  5 24  1  0  0  0  0
  6 25  1  0  0  0  0
 16 26  1  0  0  0  0
 19 27  1  0  0  0  0
M  END
> <Chemgauss4>
-8.476393

$$$$
