stable:False satoms:6 tatoms:24 sratio:0.25
  -OEChem-08062410313D

 27 29  0     0  0  0  0  0  0999 V2000
   -6.5536   -5.3898  -26.0049 Br  0  0  0  0  0  0  0  0  0  0  0  0
   -8.4441   -4.9036  -25.7218 S   0  0  0  0  0  0  0  0  0  0  0  0
   -9.1426   -6.1497  -25.5188 O   0  0  0  0  0  0  0  0  0  0  0  0
   -8.8282   -4.1416  -26.8565 O   0  0  0  0  0  0  0  0  0  0  0  0
   -8.4190   -4.0367  -24.3819 N   0  0  0  0  0  0  0  0  0  0  0  0
   -9.0747   -3.2595  -23.8877 C   0  0  0  0  0  0  0  0  0  0  0  0
   -9.5072   -2.3027  -23.4535 C   0  0  0  0  0  0  0  0  0  0  0  0
  -10.2451   -1.2187  -23.3869 C   0  0  0  0  0  0  0  0  0  0  0  0
  -11.1935   -0.4048  -24.6260 S   0  0  0  0  0  0  0  0  0  0  0  0
  -12.6357   -0.4674  -23.8369 C   0  0  0  0  0  2  0  0  0  0  0  0
  -12.5752   -1.3274  -22.8860 C   0  0  0  0  0  2  0  0  0  0  0  0
  -12.1963   -1.9906  -22.2266 H   0  0  0  0  0  0  0  0  0  0  0  0
   -9.7534   -0.8637  -22.4101 C   0  0  0  0  0  0  0  0  0  0  0  0
   -9.1368   -0.1227  -21.4139 C   0  0  0  0  0  0  0  0  0  0  0  0
   -9.6412    0.8570  -21.0767 O   0  0  0  0  0  0  0  0  0  0  0  0
   -7.9973   -0.6784  -21.0206 N   0  0  0  0  0  0  0  0  0  0  0  0
   -7.1492   -0.0634  -20.2601 C   0  0  0  0  0  0  0  0  0  0  0  0
   -7.1863    0.2226  -18.9319 C   0  0  0  0  0  0  0  0  0  0  0  0
   -7.0514    0.5611  -17.4969 N   0  0  0  0  0  0  0  0  0  0  0  0
   -6.2698    0.7992  -18.2732 C   0  0  0  0  0  0  0  0  0  0  0  0
   -5.0045    1.1902  -19.4189 S   0  0  0  0  0  0  0  0  0  0  0  0
   -5.9284    0.4510  -20.6012 C   0  0  0  0  0  0  0  0  0  0  0  0
   -5.5576    0.4280  -21.6072 H   0  0  0  0  0  0  0  0  0  0  0  0
   -7.5434   -3.5592  -24.4551 H   0  0  0  0  0  0  0  0  0  0  0  0
   -9.9084   -3.9064  -23.6576 H   0  0  0  0  0  0  0  0  0  0  0  0
   -7.7858   -1.6077  -21.3234 H   0  0  0  0  0  0  0  0  0  0  0  0
   -7.3929    0.5709  -16.5571 H   0  0  0  0  0  0  0  0  0  0  0  0
 19 20  1  0  0  0  0
 18 19  1  0  0  0  0
 18 20  2  0  0  0  0
 20 21  1  0  0  0  0
 17 18  1  0  0  0  0
 21 22  1  0  0  0  0
 17 22  2  0  0  0  0
 16 17  1  0  0  0  0
 22 23  1  0  0  0  0
 14 15  2  0  0  0  0
 14 16  1  0  0  0  0
 13 14  1  0  0  0  0
 11 12  1  0  0  0  0
  8 13  2  0  0  0  0
  7 13  1  0  0  0  0
 10 11  1  0  0  0  0
  7  8  1  0  0  0  0
  8  9  1  0  0  0  0
  6  7  2  3  0  0  0
  9 10  1  0  0  0  0
  5  6  1  0  0  0  0
  2  5  1  0  0  0  0
  2  3  2  0  0  0  0
  1  2  1  0  0  0  0
  2  4  2  0  0  0  0
  5 24  1  0  0  0  0
  6 25  1  0  0  0  0
 16 26  1  0  0  0  0
 19 27  1  0  0  0  0
M  END
> <Chemgauss4>
-8.609713

$$$$
