stable:False satoms:9 tatoms:24 sratio:0.375
  -OEChem-08062414423D

 42 43  0     1  0  0  0  0  0999 V2000
    6.2643   -5.1503   26.2220 C   0  0  0  0  0  0  0  0  0  0  0  0
    8.0074   -4.5468   26.0796 S   0  0  0  0  0  0  0  0  0  0  0  0
    8.8523   -5.7142   26.0547 O   0  0  0  0  0  0  0  0  0  0  0  0
    8.2285   -3.6758   27.1988 O   0  0  0  0  0  0  0  0  0  0  0  0
    7.9883   -3.7481   24.6327 N   0  0  0  0  0  0  0  0  0  0  0  0
    8.7561   -3.0048   24.2187 C   0  0  0  0  0  0  0  0  0  0  0  0
    9.2924   -2.0675   23.6816 C   0  0  0  0  0  0  0  0  0  0  0  0
   10.2128   -1.1791   23.5053 C   0  0  2  0  0  0  0  0  0  0  0  0
   10.8885   -0.1950   24.5733 C   0  0  0  0  0  0  0  0  0  0  0  0
   11.8728    0.1440   24.6791 C   0  0  0  0  0  0  0  0  0  0  0  0
   12.9923   -0.3332   23.9730 C   0  0  0  0  0  0  0  0  0  0  0  0
   12.6748   -1.3426   23.0459 C   0  0  0  0  0  0  0  0  0  0  0  0
   11.7951   -1.7725   22.7946 C   0  0  0  0  0  0  0  0  0  0  0  0
    9.6292   -0.7025   22.6021 C   0  0  2  0  0  0  0  0  0  0  0  0
    9.0082    0.0032   21.5999 C   0  0  0  0  0  0  0  0  0  0  0  0
    9.4887    0.9987   21.2829 O   0  0  0  0  0  0  0  0  0  0  0  0
    7.9324   -0.6209   21.1956 N   0  0  0  0  0  0  0  0  0  0  0  0
    7.2291   -0.1079   20.2657 C   0  0  0  0  0  0  0  0  0  0  0  0
    7.3550    0.0821   18.9630 C   0  0  0  0  0  0  0  0  0  0  0  0
    6.9843    0.4541   17.8628 N   0  0  0  0  0  0  0  0  0  0  0  0
    5.8792    0.9561   18.2553 C   0  0  0  0  0  0  0  0  0  0  0  0
    5.3935    0.9724   19.3986 C   0  0  0  0  0  0  0  0  0  0  0  0
    5.8408    0.4897   20.5472 C   0  0  0  0  0  0  0  0  0  0  0  0
    5.1648    0.5168   21.9759 Cl  0  0  0  0  0  0  0  0  0  0  0  0
    6.1447   -5.7088   27.1620 H   0  0  0  0  0  0  0  0  0  0  0  0
    5.5774   -4.2912   26.2161 H   0  0  0  0  0  0  0  0  0  0  0  0
    6.0341   -5.8095   25.3720 H   0  0  0  0  0  0  0  0  0  0  0  0
    7.1259   -3.2420   24.6366 H   0  0  0  0  0  0  0  0  0  0  0  0
    9.6484   -3.5142   24.5515 H   0  0  0  0  0  0  0  0  0  0  0  0
   11.0773   -1.7192   23.0920 H   0  0  0  0  0  0  0  0  0  0  0  0
   10.2058    0.1873   25.3178 H   0  0  0  0  0  0  0  0  0  0  0  0
   12.0453    0.9328   25.3964 H   0  0  0  0  0  0  0  0  0  0  0  0
   13.7153   -0.7381   24.6964 H   0  0  0  0  0  0  0  0  0  0  0  0
   13.4483    0.5083   23.4308 H   0  0  0  0  0  0  0  0  0  0  0  0
   13.5257   -1.7285   22.5042 H   0  0  0  0  0  0  0  0  0  0  0  0
   11.7679   -2.5466   22.0420 H   0  0  0  0  0  0  0  0  0  0  0  0
   10.8824   -1.4577   23.2786 H   0  0  0  0  0  0  0  0  0  0  0  0
   10.1277   -1.3628   21.8773 H   0  0  0  0  0  0  0  0  0  0  0  0
    7.6652   -1.4902   21.6114 H   0  0  0  0  0  0  0  0  0  0  0  0
    8.3382   -0.3158   18.7595 H   0  0  0  0  0  0  0  0  0  0  0  0
    5.2847    1.4316   17.4893 H   0  0  0  0  0  0  0  0  0  0  0  0
    4.4367    1.4684   19.4678 H   0  0  0  0  0  0  0  0  0  0  0  0
 20 21  2  0  0  0  0
 19 20  1  0  0  0  0
 21 22  1  0  0  0  0
 18 19  2  0  0  0  0
 22 23  2  0  0  0  0
 18 23  1  0  0  0  0
 17 18  1  0  0  0  0
 23 24  1  0  0  0  0
 15 16  2  0  0  0  0
 15 17  1  0  0  0  0
 14 15  1  0  0  0  0
  8 14  1  0  0  0  0
  7 14  1  0  0  0  0
 12 13  2  0  0  0  0
 11 12  1  0  0  0  0
  7  8  1  0  0  0  0
  8  9  1  0  0  0  0
 10 11  1  0  0  0  0
  6  7  2  0  0  0  0
  5  6  1  0  0  0  0
  9 10  2  0  0  0  0
  2  5  1  0  0  0  0
  2  3  2  0  0  0  0
  1  2  1  0  0  0  0
  2  4  2  0  0  0  0
  1 25  1  0  0  0  0
  1 26  1  0  0  0  0
  1 27  1  0  0  0  0
  5 28  1  0  0  0  0
  6 29  1  0  0  0  0
  8 30  1  0  0  0  0
  9 31  1  0  0  0  0
 10 32  1  0  0  0  0
 11 33  1  0  0  0  0
 11 34  1  0  0  0  0
 12 35  1  0  0  0  0
 13 36  1  0  0  0  0
 13 37  1  0  0  0  0
 14 38  1  0  0  0  0
 17 39  1  0  0  0  0
 19 40  1  0  0  0  0
 21 41  1  0  0  0  0
 22 42  1  0  0  0  0
M  END
> <Chemgauss4>
-13.308772

$$$$
