stable:False satoms:9 tatoms:24 sratio:0.375
  -OEChem-08062414423D

 42 43  0     1  0  0  0  0  0999 V2000
   -6.6056   -5.3241  -26.2100 C   0  0  0  0  0  0  0  0  0  0  0  0
   -8.3486   -4.7207  -26.0677 S   0  0  0  0  0  0  0  0  0  0  0  0
   -9.1936   -5.8881  -26.0428 O   0  0  0  0  0  0  0  0  0  0  0  0
   -8.5698   -3.8497  -27.1869 O   0  0  0  0  0  0  0  0  0  0  0  0
   -8.3296   -3.9220  -24.6208 N   0  0  0  0  0  0  0  0  0  0  0  0
   -9.0974   -3.1787  -24.2067 C   0  0  0  0  0  0  0  0  0  0  0  0
   -9.6336   -2.2414  -23.6697 C   0  0  0  0  0  0  0  0  0  0  0  0
  -10.5541   -1.3529  -23.4933 C   0  0  2  0  0  0  0  0  0  0  0  0
  -11.2298   -0.3688  -24.5614 C   0  0  0  0  0  0  0  0  0  0  0  0
  -12.2141   -0.0299  -24.6672 C   0  0  0  0  0  0  0  0  0  0  0  0
  -13.3336   -0.5071  -23.9610 C   0  0  0  0  0  0  0  0  0  0  0  0
  -13.0161   -1.5165  -23.0340 C   0  0  0  0  0  0  0  0  0  0  0  0
  -12.1364   -1.9464  -22.7826 C   0  0  0  0  0  0  0  0  0  0  0  0
   -9.9705   -0.8764  -22.5902 C   0  0  2  0  0  0  0  0  0  0  0  0
   -9.3495   -0.1707  -21.5879 C   0  0  0  0  0  0  0  0  0  0  0  0
   -9.8300    0.8248  -21.2709 O   0  0  0  0  0  0  0  0  0  0  0  0
   -8.2736   -0.7948  -21.1836 N   0  0  0  0  0  0  0  0  0  0  0  0
   -7.5704   -0.2818  -20.2537 C   0  0  0  0  0  0  0  0  0  0  0  0
   -7.6962   -0.0918  -18.9510 C   0  0  0  0  0  0  0  0  0  0  0  0
   -7.3256    0.2802  -17.8509 N   0  0  0  0  0  0  0  0  0  0  0  0
   -6.2204    0.7822  -18.2434 C   0  0  0  0  0  0  0  0  0  0  0  0
   -5.7348    0.7985  -19.3867 C   0  0  0  0  0  0  0  0  0  0  0  0
   -6.1820    0.3158  -20.5353 C   0  0  0  0  0  0  0  0  0  0  0  0
   -5.5061    0.3429  -21.9640 Cl  0  0  0  0  0  0  0  0  0  0  0  0
   -6.4860   -5.8827  -27.1501 H   0  0  0  0  0  0  0  0  0  0  0  0
   -5.9186   -4.4650  -26.2042 H   0  0  0  0  0  0  0  0  0  0  0  0
   -6.3754   -5.9834  -25.3601 H   0  0  0  0  0  0  0  0  0  0  0  0
   -7.4671   -3.4159  -24.6247 H   0  0  0  0  0  0  0  0  0  0  0  0
   -9.9897   -3.6880  -24.5395 H   0  0  0  0  0  0  0  0  0  0  0  0
  -11.4186   -1.8931  -23.0801 H   0  0  0  0  0  0  0  0  0  0  0  0
  -10.5471    0.0134  -25.3058 H   0  0  0  0  0  0  0  0  0  0  0  0
  -12.3866    0.7589  -25.3845 H   0  0  0  0  0  0  0  0  0  0  0  0
  -14.0566   -0.9119  -24.6845 H   0  0  0  0  0  0  0  0  0  0  0  0
  -13.7895    0.3344  -23.4188 H   0  0  0  0  0  0  0  0  0  0  0  0
  -13.8670   -1.9023  -22.4923 H   0  0  0  0  0  0  0  0  0  0  0  0
  -12.1092   -2.7205  -22.0300 H   0  0  0  0  0  0  0  0  0  0  0  0
  -11.2237   -1.6316  -23.2667 H   0  0  0  0  0  0  0  0  0  0  0  0
  -10.4690   -1.5367  -21.8653 H   0  0  0  0  0  0  0  0  0  0  0  0
   -8.0064   -1.6641  -21.5994 H   0  0  0  0  0  0  0  0  0  0  0  0
   -8.6795   -0.4896  -18.7476 H   0  0  0  0  0  0  0  0  0  0  0  0
   -5.6260    1.2577  -17.4773 H   0  0  0  0  0  0  0  0  0  0  0  0
   -4.7779    1.2946  -19.4558 H   0  0  0  0  0  0  0  0  0  0  0  0
 20 21  2  0  0  0  0
 19 20  1  0  0  0  0
 21 22  1  0  0  0  0
 18 19  2  0  0  0  0
 22 23  2  0  0  0  0
 18 23  1  0  0  0  0
 17 18  1  0  0  0  0
 23 24  1  0  0  0  0
 15 16  2  0  0  0  0
 15 17  1  0  0  0  0
 14 15  1  0  0  0  0
  8 14  1  0  0  0  0
  7 14  1  0  0  0  0
 12 13  2  0  0  0  0
 11 12  1  0  0  0  0
  7  8  1  0  0  0  0
  8  9  1  0  0  0  0
 10 11  1  0  0  0  0
  6  7  2  0  0  0  0
  5  6  1  0  0  0  0
  9 10  2  0  0  0  0
  2  5  1  0  0  0  0
  2  3  2  0  0  0  0
  1  2  1  0  0  0  0
  2  4  2  0  0  0  0
  1 25  1  0  0  0  0
  1 26  1  0  0  0  0
  1 27  1  0  0  0  0
  5 28  1  0  0  0  0
  6 29  1  0  0  0  0
  8 30  1  0  0  0  0
  9 31  1  0  0  0  0
 10 32  1  0  0  0  0
 11 33  1  0  0  0  0
 11 34  1  0  0  0  0
 12 35  1  0  0  0  0
 13 36  1  0  0  0  0
 13 37  1  0  0  0  0
 14 38  1  0  0  0  0
 17 39  1  0  0  0  0
 19 40  1  0  0  0  0
 21 41  1  0  0  0  0
 22 42  1  0  0  0  0
M  END
> <Chemgauss4>
-13.034718

$$$$
