stable:False satoms:14 tatoms:24 sratio:0.5833333333333334
  -OEChem-07092417413D

 24 24  0     0  0  0  0  0  0999 V2000
    6.5323   -4.9486   26.5756 Cl  0  0  0  0  0  0  0  0  0  0  0  0
    8.2794   -4.3447   26.1602 S   0  0  0  0  0  0  0  0  0  0  0  0
    9.0725   -5.5234   25.9779 O   0  0  0  0  0  0  0  0  0  0  0  0
    8.6700   -3.5043   27.2465 O   0  0  0  0  0  0  0  0  0  0  0  0
    8.0169   -3.5186   24.8089 N   0  0  0  0  0  0  0  0  0  0  0  0
    8.9133   -2.8774   24.2731 C   0  0  0  0  0  0  0  0  0  0  0  0
    9.4750   -2.0914   23.7367 C   0  0  0  0  0  0  0  0  0  0  0  0
   10.0711   -1.0128   23.4234 C   0  0  0  0  0  0  0  0  0  0  0  0
   10.9603   -0.2660   24.2531 C   0  0  0  0  0  0  0  0  0  0  0  0
   11.9827   -0.2073   23.9915 C   0  0  0  0  0  0  0  0  0  0  0  0
   13.6808   -0.4871   23.1002 H   0  0  0  0  0  0  0  0  0  0  0  0
   12.7923   -0.8723   23.0440 C   0  5  0  0  0  0  0  0  0  0  0  0
   12.2921   -1.6197   22.4715 H   0  0  0  0  0  0  0  0  0  0  0  0
    9.7296   -0.4671   22.3107 C   0  0  0  0  0  0  0  0  0  0  0  0
    9.0137    0.1513   21.3654 C   0  0  0  0  0  0  0  0  0  0  0  0
    9.4737    1.1728   20.9306 O   0  0  0  0  0  0  0  0  0  0  0  0
    7.8586   -0.4825   21.0998 N   0  0  0  0  0  0  0  0  0  0  0  0
    7.1479    0.0417   20.1654 C   0  0  0  0  0  0  0  0  0  0  0  0
    6.9496    0.1116   18.8059 C   0  0  0  0  0  0  0  0  0  0  0  0
    7.1847    0.0266   17.7888 H   0  0  0  0  0  0  0  0  0  0  0  0
    4.8396    1.1278   18.4509 H   0  0  0  0  0  0  0  0  0  0  0  0
    5.4352    0.8500   19.2630 C   0  0  0  0  0  0  0  0  0  0  0  0
    5.8055    0.6694   20.4738 C   0  0  0  0  0  0  0  0  0  0  0  0
    5.4069    0.7815   21.5796 H   0  0  0  0  0  0  0  0  0  0  0  0
 19 20  1  0  0  0  0
 21 22  1  0  0  0  0
 19 22  2  0  0  0  0
 18 19  1  0  0  0  0
 22 23  1  0  0  0  0
 18 23  2  0  0  0  0
 17 18  1  0  0  0  0
 23 24  1  0  0  0  0
 15 16  2  0  0  0  0
 15 17  1  0  0  0  0
 14 15  1  0  0  0  0
  8 14  2  3  0  0  0
 12 13  1  0  0  0  0
 11 12  1  0  0  0  0
 10 12  1  0  0  0  0
  7  8  1  0  0  0  0
  8  9  1  0  0  0  0
  6  7  3  0  0  0  0
  9 10  2  0  0  0  0
  5  6  1  0  0  0  0
  2  5  1  0  0  0  0
  2  3  2  0  0  0  0
  1  2  1  0  0  0  0
  2  4  2  0  0  0  0
M  CHG  1  12  -1
M  END
> <Shapegauss>
-228.632172

$$$$
