stable:False satoms:14 tatoms:24 sratio:0.5833333333333334
  -OEChem-08062408513D

 30 30  0     0  0  0  0  0  0999 V2000
   -6.6035   -5.5801  -26.1412 Cl  0  0  0  0  0  0  0  0  0  0  0  0
   -8.3563   -4.9128  -25.8727 S   0  0  0  0  0  0  0  0  0  0  0  0
   -9.1933   -6.0609  -25.6914 O   0  0  0  0  0  0  0  0  0  0  0  0
   -8.6496   -4.1147  -27.0198 O   0  0  0  0  0  0  0  0  0  0  0  0
   -8.1605   -4.0310  -24.5455 N   0  0  0  0  0  0  0  0  0  0  0  0
   -9.0717   -3.3426  -24.1011 C   0  0  0  0  0  0  0  0  0  0  0  0
   -9.6450   -2.5181  -23.6400 C   0  0  0  0  0  0  0  0  0  0  0  0
  -10.2294   -1.4111  -23.4169 C   0  0  0  0  0  0  0  0  0  0  0  0
  -11.0397   -0.6816  -24.3377 C   0  0  0  0  0  0  0  0  0  0  0  0
  -12.0751   -0.5845  -24.1488 C   0  0  0  0  0  0  0  0  0  0  0  0
  -12.6354   -0.9614  -22.2033 H   0  0  0  0  0  0  0  0  0  0  0  0
  -12.9646   -1.1832  -23.2292 C   0  0  0  0  0  0  0  0  0  0  0  0
  -13.9773   -0.7826  -23.3838 H   0  0  0  0  0  0  0  0  0  0  0  0
   -9.9470   -0.8226  -22.3094 C   0  0  0  0  0  0  0  0  0  0  0  0
   -9.2780   -0.1789  -21.3468 C   0  0  0  0  0  0  0  0  0  0  0  0
   -9.7363    0.8733  -20.9907 O   0  0  0  0  0  0  0  0  0  0  0  0
   -8.1618   -0.8289  -20.9753 N   0  0  0  0  0  0  0  0  0  0  0  0
   -7.4999   -0.2797  -20.0196 C   0  0  0  0  0  0  0  0  0  0  0  0
   -7.3904   -0.1510  -18.6543 C   0  0  0  0  0  0  0  0  0  0  0  0
   -7.6949   -0.1820  -17.6527 H   0  0  0  0  0  0  0  0  0  0  0  0
   -5.2803    0.8264  -18.2037 H   0  0  0  0  0  0  0  0  0  0  0  0
   -5.8284    0.5260  -19.0409 C   0  0  0  0  0  0  0  0  0  0  0  0
   -6.1225    0.2982  -20.2645 C   0  0  0  0  0  0  0  0  0  0  0  0
   -5.6483    0.3479  -21.3448 H   0  0  0  0  0  0  0  0  0  0  0  0
   -7.3986   -3.4096  -24.7278 H   0  0  0  0  0  0  0  0  0  0  0  0
  -10.6003   -0.2342  -25.2170 H   0  0  0  0  0  0  0  0  0  0  0  0
  -12.5584    0.1278  -24.8012 H   0  0  0  0  0  0  0  0  0  0  0  0
  -12.9737   -2.2723  -23.3840 H   0  0  0  0  0  0  0  0  0  0  0  0
  -10.9084   -0.9030  -21.8240 H   0  0  0  0  0  0  0  0  0  0  0  0
   -7.8670   -1.6792  -21.4112 H   0  0  0  0  0  0  0  0  0  0  0  0
 19 20  1  0  0  0  0
 21 22  1  0  0  0  0
 19 22  2  0  0  0  0
 18 19  1  0  0  0  0
 22 23  1  0  0  0  0
 18 23  2  0  0  0  0
 17 18  1  0  0  0  0
 23 24  1  0  0  0  0
 15 16  2  0  0  0  0
 15 17  1  0  0  0  0
 14 15  1  0  0  0  0
  8 14  2  3  0  0  0
 12 13  1  0  0  0  0
 11 12  1  0  0  0  0
 10 12  1  0  0  0  0
  7  8  1  0  0  0  0
  8  9  1  0  0  0  0
  6  7  3  0  0  0  0
  9 10  2  0  0  0  0
  5  6  1  0  0  0  0
  2  5  1  0  0  0  0
  2  3  2  0  0  0  0
  1  2  1  0  0  0  0
  2  4  2  0  0  0  0
  5 25  1  0  0  0  0
  9 26  1  0  0  0  0
 10 27  1  0  0  0  0
 12 28  1  0  0  0  0
 14 29  1  0  0  0  0
 17 30  1  0  0  0  0
M  END
> <Chemgauss4>
-7.707773

$$$$
