stable:False satoms:14 tatoms:24 sratio:0.5833333333333334
  -OEChem-08062408513D

 30 30  0     0  0  0  0  0  0999 V2000
    6.6425   -5.2603   26.2029 Cl  0  0  0  0  0  0  0  0  0  0  0  0
    8.3953   -4.5930   25.9344 S   0  0  0  0  0  0  0  0  0  0  0  0
    9.2323   -5.7411   25.7530 O   0  0  0  0  0  0  0  0  0  0  0  0
    8.6886   -3.7949   27.0815 O   0  0  0  0  0  0  0  0  0  0  0  0
    8.1995   -3.7113   24.6071 N   0  0  0  0  0  0  0  0  0  0  0  0
    9.1108   -3.0228   24.1627 C   0  0  0  0  0  0  0  0  0  0  0  0
    9.6840   -2.1983   23.7017 C   0  0  0  0  0  0  0  0  0  0  0  0
   10.2684   -1.0913   23.4785 C   0  0  0  0  0  0  0  0  0  0  0  0
   11.0788   -0.3618   24.3994 C   0  0  0  0  0  0  0  0  0  0  0  0
   12.1142   -0.2647   24.2105 C   0  0  0  0  0  0  0  0  0  0  0  0
   12.6744   -0.6416   22.2650 H   0  0  0  0  0  0  0  0  0  0  0  0
   13.0036   -0.8635   23.2908 C   0  0  0  0  0  0  0  0  0  0  0  0
   14.0163   -0.4628   23.4454 H   0  0  0  0  0  0  0  0  0  0  0  0
    9.9860   -0.5028   22.3711 C   0  0  0  0  0  0  0  0  0  0  0  0
    9.3170    0.1409   21.4084 C   0  0  0  0  0  0  0  0  0  0  0  0
    9.7754    1.1931   21.0524 O   0  0  0  0  0  0  0  0  0  0  0  0
    8.2008   -0.5091   21.0369 N   0  0  0  0  0  0  0  0  0  0  0  0
    7.5389    0.0401   20.0812 C   0  0  0  0  0  0  0  0  0  0  0  0
    7.4294    0.1688   18.7160 C   0  0  0  0  0  0  0  0  0  0  0  0
    7.7339    0.1378   17.7143 H   0  0  0  0  0  0  0  0  0  0  0  0
    5.3194    1.1462   18.2653 H   0  0  0  0  0  0  0  0  0  0  0  0
    5.8675    0.8458   19.1025 C   0  0  0  0  0  0  0  0  0  0  0  0
    6.1616    0.6180   20.3261 C   0  0  0  0  0  0  0  0  0  0  0  0
    5.6874    0.6677   21.4064 H   0  0  0  0  0  0  0  0  0  0  0  0
    7.4376   -3.0898   24.7895 H   0  0  0  0  0  0  0  0  0  0  0  0
   10.6393    0.0856   25.2786 H   0  0  0  0  0  0  0  0  0  0  0  0
   12.5974    0.4476   24.8628 H   0  0  0  0  0  0  0  0  0  0  0  0
   13.0127   -1.9525   23.4456 H   0  0  0  0  0  0  0  0  0  0  0  0
   10.9474   -0.5832   21.8856 H   0  0  0  0  0  0  0  0  0  0  0  0
    7.9060   -1.3594   21.4728 H   0  0  0  0  0  0  0  0  0  0  0  0
 19 20  1  0  0  0  0
 21 22  1  0  0  0  0
 19 22  2  0  0  0  0
 18 19  1  0  0  0  0
 22 23  1  0  0  0  0
 18 23  2  0  0  0  0
 17 18  1  0  0  0  0
 23 24  1  0  0  0  0
 15 16  2  0  0  0  0
 15 17  1  0  0  0  0
 14 15  1  0  0  0  0
  8 14  2  3  0  0  0
 12 13  1  0  0  0  0
 11 12  1  0  0  0  0
 10 12  1  0  0  0  0
  7  8  1  0  0  0  0
  8  9  1  0  0  0  0
  6  7  3  0  0  0  0
  9 10  2  0  0  0  0
  5  6  1  0  0  0  0
  2  5  1  0  0  0  0
  2  3  2  0  0  0  0
  1  2  1  0  0  0  0
  2  4  2  0  0  0  0
  5 25  1  0  0  0  0
  9 26  1  0  0  0  0
 10 27  1  0  0  0  0
 12 28  1  0  0  0  0
 14 29  1  0  0  0  0
 17 30  1  0  0  0  0
M  END
> <Chemgauss4>
-7.848746

$$$$
