stable:False satoms:19 tatoms:24 sratio:0.7916666666666666
  -OEChem-07092417323D

 24 26  0     1  0  0  0  0  0999 V2000
    7.6725   -0.3651   24.6226 H   0  0  0  0  0  0  0  0  0  0  0  0
    8.9889   -1.7461   23.2691 N   0  3  1  0  0  0  0  0  0  0  0  0
   10.1773   -3.9404   23.3299 H   0  0  0  0  0  0  0  0  0  0  0  0
    8.8848    0.0963   25.8105 H   0  0  0  0  0  0  0  0  0  0  0  0
    9.6396   -1.2490   24.4149 C   0  0  0  0  0  0  0  0  0  0  0  0
    8.9743   -4.2323   20.7448 H   0  0  0  0  0  0  0  0  0  0  0  0
    8.5973   -1.3661   22.1567 C   0  0  3  0  0  0  0  0  0  0  0  0
    8.7118   -3.2019   20.8103 C   0  0  0  0  0  0  0  0  0  0  0  0
   10.4083   -3.0076   22.7895 C   0  5  0  0  0  0  0  0  0  0  0  0
    9.0483    0.8192   23.4536 C   0  3  0  0  0  0  0  0  0  0  0  0
   11.3792   -2.5295   22.7872 H   0  0  0  0  0  0  0  0  0  0  0  0
   10.0199    1.2850   23.5194 H   0  0  0  0  0  0  0  0  0  0  0  0
    9.3282   -2.4382   22.0596 C   0  0  2  0  0  0  0  0  0  0  0  0
   10.6857   -0.8792   24.3235 H   0  0  0  0  0  0  0  0  0  0  0  0
    8.7363   -0.1218   24.7050 C   0  0  0  0  0  0  0  0  0  0  0  0
    8.3521    1.1741   22.3804 O   0  0  0  0  0  0  0  0  0  0  0  0
    9.6514   -2.0900   25.1291 H   0  0  0  0  0  0  0  0  0  0  0  0
    7.3008    0.5853   21.4626 C   0  0  0  0  0  0  0  0  0  0  0  0
    7.3938   -1.4260   20.1090 N   0  0  0  0  0  0  0  0  0  0  0  0
    7.7902   -0.6696   21.1581 N   0  0  3  0  0  0  0  0  0  0  0  0
    7.1335    1.1810   20.5403 H   0  0  0  0  0  0  0  0  0  0  0  0
    6.5233   -1.1128   19.6512 H   0  0  0  0  0  0  0  0  0  0  0  0
    7.8158   -2.6556   20.0299 N   0  0  0  0  0  0  0  0  0  0  0  0
    6.3707    0.6002   22.0393 H   0  0  0  0  0  0  0  0  0  0  0  0
 19 22  1  0  0  0  0
 19 23  1  0  0  0  0
  8 23  2  0  0  0  0
 19 20  1  0  0  0  0
 18 21  1  0  0  0  0
  6  8  1  0  0  0  0
  8 13  1  0  0  0  0
 18 20  1  0  0  0  0
  7 20  1  0  0  0  0
 18 24  1  0  0  0  0
 16 18  1  0  0  0  0
  7 13  1  0  0  0  0
  9 13  1  0  0  0  0
  2 13  1  0  0  0  0
  2  7  1  0  0  0  0
 10 16  1  0  0  0  0
  9 11  1  0  0  0  0
  3  9  1  0  0  0  0
  2  5  1  0  0  0  0
 10 12  1  0  0  0  0
 10 15  1  0  0  0  0
  5 14  1  0  0  0  0
  5 15  1  0  0  0  0
  5 17  1  0  0  0  0
  1 15  1  0  0  0  0
  4 15  1  0  0  0  0
M  CHG  3   2   1   9  -1  10   1
M  END
> <Shapegauss>
-93.551544

$$$$
