stable:False satoms:19 tatoms:24 sratio:0.7916666666666666
  -OEChem-08052422003D

 26 28  0     1  0  0  0  0  0999 V2000
   -9.3805   -2.8965  -24.3193 H   0  0  0  0  0  0  0  0  0  0  0  0
   -9.5480   -0.5674  -24.4583 N   0  3  1  0  0  0  0  0  0  0  0  0
   -8.8129    1.3954  -25.8121 H   0  0  0  0  0  0  0  0  0  0  0  0
   -7.7137   -3.0226  -23.7722 H   0  0  0  0  0  0  0  0  0  0  0  0
   -8.2688   -1.0479  -24.1178 C   0  0  0  0  0  0  0  0  0  0  0  0
  -11.4186    2.1543  -25.7416 H   0  0  0  0  0  0  0  0  0  0  0  0
  -10.6727   -0.4187  -23.9601 C   0  0  3  0  0  0  0  0  0  0  0  0
  -11.5734    1.3891  -25.0168 C   0  0  0  0  0  0  0  0  0  0  0  0
   -8.9772    1.2864  -24.7299 C   0  0  0  0  0  0  0  0  0  0  0  0
   -9.4681   -2.0301  -22.3435 C   0  0  0  0  0  2  0  0  0  0  0  0
   -8.1875    0.6520  -24.3013 H   0  0  0  0  0  0  0  0  0  0  0  0
  -10.2459    0.6849  -24.5014 C   0  0  2  0  0  0  0  0  0  0  0  0
   -7.6957   -0.5335  -23.3137 H   0  0  0  0  0  0  0  0  0  0  0  0
   -8.6565   -2.3964  -23.6686 C   0  0  0  0  0  0  0  0  0  0  0  0
  -10.7531   -2.0831  -22.0143 O   0  0  0  0  0  0  0  0  0  0  0  0
   -7.6741   -0.9701  -25.0440 H   0  0  0  0  0  0  0  0  0  0  0  0
  -12.1040   -1.9319  -22.6825 C   0  0  0  0  0  0  0  0  0  0  0  0
  -13.0170   -0.0381  -23.8934 N   0  0  0  0  0  0  0  0  0  0  0  0
  -11.9830   -0.7694  -23.4181 N   0  0  3  0  0  0  0  0  0  0  0  0
  -12.9485   -1.8615  -21.9645 H   0  0  0  0  0  0  0  0  0  0  0  0
  -13.4910    0.3500  -23.1030 H   0  0  0  0  0  0  0  0  0  0  0  0
  -12.7645    0.9449  -24.7096 N   0  0  0  0  0  0  0  0  0  0  0  0
  -12.2426   -2.8464  -23.2676 H   0  0  0  0  0  0  0  0  0  0  0  0
  -10.2708   -0.1607  -22.9692 H   0  0  0  0  0  0  0  0  0  0  0  0
   -8.9503    2.2774  -24.2533 H   0  0  0  0  0  0  0  0  0  0  0  0
   -9.7082   -0.9514  -25.3677 H   0  0  0  0  0  0  0  0  0  0  0  0
 18 21  1  0  0  0  0
 18 22  1  0  0  0  0
  8 22  2  0  0  0  0
 18 19  1  0  0  0  0
 17 20  1  0  0  0  0
  6  8  1  0  0  0  0
  8 12  1  0  0  0  0
 17 19  1  0  0  0  0
  7 19  1  0  0  0  0
 17 23  1  0  0  0  0
 15 17  1  0  0  0  0
  7 12  1  0  0  0  0
  9 12  1  0  0  0  0
  2 12  1  0  0  0  0
  2  7  1  0  0  0  0
 10 15  1  0  0  0  0
  9 11  1  0  0  0  0
  3  9  1  0  0  0  0
  2  5  1  0  0  0  0
 10 14  1  0  0  0  0
  5 13  1  0  0  0  0
  5 14  1  0  0  0  0
  5 16  1  0  0  0  0
  1 14  1  0  0  0  0
  4 14  1  0  0  0  0
  7 24  1  0  0  0  0
  9 25  1  0  0  0  0
  2 26  1  0  0  0  0
M  CHG  1   2   1
M  END
> <Chemgauss4>
-5.575664

$$$$
