stable:False satoms:19 tatoms:24 sratio:0.7916666666666666
  -OEChem-08052422003D

 26 28  0     1  0  0  0  0  0999 V2000
    9.3109   -3.2731   24.4784 H   0  0  0  0  0  0  0  0  0  0  0  0
    9.4785   -0.9440   24.6174 N   0  3  1  0  0  0  0  0  0  0  0  0
    8.7433    1.0188   25.9712 H   0  0  0  0  0  0  0  0  0  0  0  0
    7.6441   -3.3992   23.9312 H   0  0  0  0  0  0  0  0  0  0  0  0
    8.1992   -1.4245   24.2768 C   0  0  0  0  0  0  0  0  0  0  0  0
   11.3490    1.7777   25.9007 H   0  0  0  0  0  0  0  0  0  0  0  0
   10.6031   -0.7953   24.1192 C   0  0  3  0  0  0  0  0  0  0  0  0
   11.5039    1.0124   25.1759 C   0  0  0  0  0  0  0  0  0  0  0  0
    8.9077    0.9098   24.8890 C   0  0  0  0  0  0  0  0  0  0  0  0
    9.3986   -2.4067   22.5026 C   0  0  0  0  0  2  0  0  0  0  0  0
    8.1179    0.2753   24.4604 H   0  0  0  0  0  0  0  0  0  0  0  0
   10.1763    0.3083   24.6604 C   0  0  2  0  0  0  0  0  0  0  0  0
    7.6261   -0.9102   23.4728 H   0  0  0  0  0  0  0  0  0  0  0  0
    8.5869   -2.7730   23.8277 C   0  0  0  0  0  0  0  0  0  0  0  0
   10.6836   -2.4597   22.1734 O   0  0  0  0  0  0  0  0  0  0  0  0
    7.6045   -1.3467   25.2030 H   0  0  0  0  0  0  0  0  0  0  0  0
   12.0345   -2.3085   22.8416 C   0  0  0  0  0  0  0  0  0  0  0  0
   12.9474   -0.4147   24.0525 N   0  0  0  0  0  0  0  0  0  0  0  0
   11.9135   -1.1461   23.5772 N   0  0  3  0  0  0  0  0  0  0  0  0
   12.8789   -2.2382   22.1236 H   0  0  0  0  0  0  0  0  0  0  0  0
   13.4214   -0.0266   23.2620 H   0  0  0  0  0  0  0  0  0  0  0  0
   12.6949    0.5683   24.8687 N   0  0  0  0  0  0  0  0  0  0  0  0
   12.1730   -3.2231   23.4267 H   0  0  0  0  0  0  0  0  0  0  0  0
   10.2012   -0.5373   23.1283 H   0  0  0  0  0  0  0  0  0  0  0  0
    8.8807    1.9008   24.4124 H   0  0  0  0  0  0  0  0  0  0  0  0
    9.6386   -1.3280   25.5267 H   0  0  0  0  0  0  0  0  0  0  0  0
 18 21  1  0  0  0  0
 18 22  1  0  0  0  0
  8 22  2  0  0  0  0
 18 19  1  0  0  0  0
 17 20  1  0  0  0  0
  6  8  1  0  0  0  0
  8 12  1  0  0  0  0
 17 19  1  0  0  0  0
  7 19  1  0  0  0  0
 17 23  1  0  0  0  0
 15 17  1  0  0  0  0
  7 12  1  0  0  0  0
  9 12  1  0  0  0  0
  2 12  1  0  0  0  0
  2  7  1  0  0  0  0
 10 15  1  0  0  0  0
  9 11  1  0  0  0  0
  3  9  1  0  0  0  0
  2  5  1  0  0  0  0
 10 14  1  0  0  0  0
  5 13  1  0  0  0  0
  5 14  1  0  0  0  0
  5 16  1  0  0  0  0
  1 14  1  0  0  0  0
  4 14  1  0  0  0  0
  7 24  1  0  0  0  0
  9 25  1  0  0  0  0
  2 26  1  0  0  0  0
M  CHG  1   2   1
M  END
> <Chemgauss4>
-5.694030

$$$$
