
 OpenBabel07202414153D

 39 40  0  0  0  0  0  0  0  0999 V2000
    3.3645    0.2847    1.3756 C   0  0  0  0  0  0  0  0  0  0  0  0
    2.6004   -0.1909   -0.2160 S   0  0  0  0  0  0  0  0  0  0  0  0
    3.3960   -1.7414   -0.4616 C   0  0  0  0  0  0  0  0  0  0  0  0
    4.2786   -1.9335   -1.4777 C   0  0  0  0  0  0  0  0  0  0  0  0
    5.4909   -2.9978   -1.1774 C   0  0  0  0  0  0  0  0  0  0  0  0
    6.6681   -2.1860   -0.4470 C   0  0  0  0  0  0  0  0  0  0  0  0
    7.7639   -1.5190   -1.3373 C   0  0  0  0  0  0  0  0  0  0  0  0
    8.2691   -2.3761   -2.4879 C   0  0  0  0  0  0  0  0  0  0  0  0
    7.0913   -2.9207   -3.2930 C   0  0  0  0  0  0  0  0  0  0  0  0
    6.1796   -3.7242   -2.3837 C   0  0  0  0  0  0  0  0  0  0  0  0
    4.8980   -4.1737   -0.2865 C   0  0  0  0  0  0  0  0  0  0  0  0
    3.7637   -3.9824    0.4375 C   0  0  0  0  0  0  0  0  0  0  0  0
    3.2342   -2.7225    0.4903 N   0  0  0  0  0  0  0  0  0  0  0  0
    3.1008   -5.0401    1.0435 N   0  0  0  0  0  0  0  0  0  0  0  0
    1.8813   -4.9655    1.6841 C   0  0  0  0  0  0  0  0  0  0  0  0
    1.3266   -3.9031    1.9550 O   0  0  0  0  0  0  0  0  0  0  0  0
    1.2008   -6.2960    1.9280 C   0  0  0  0  0  0  0  0  0  0  0  0
    2.3648   -7.6352    2.0374 Cl  0  0  0  0  0  0  0  0  0  0  0  0
    5.4054   -5.5098   -0.4028 C   0  0  0  0  0  0  0  0  0  0  0  0
    5.7075   -6.6240   -0.5138 N   0  0  0  0  0  0  0  0  0  0  0  0
    4.6991   -0.7616   -2.3496 C   0  0  0  0  0  0  0  0  0  0  0  0
    5.0480    0.2106   -3.0730 N   0  0  0  0  0  0  0  0  0  0  0  0
    3.1127    1.3228    1.6139 H   0  0  0  0  0  0  0  0  0  0  0  0
    4.4562    0.2028    1.3357 H   0  0  0  0  0  0  0  0  0  0  0  0
    2.9930   -0.3499    2.1862 H   0  0  0  0  0  0  0  0  0  0  0  0
    7.1883   -2.8445    0.2592 H   0  0  0  0  0  0  0  0  0  0  0  0
    6.2480   -1.3761    0.1665 H   0  0  0  0  0  0  0  0  0  0  0  0
    8.6258   -1.2435   -0.7122 H   0  0  0  0  0  0  0  0  0  0  0  0
    7.4036   -0.5704   -1.7515 H   0  0  0  0  0  0  0  0  0  0  0  0
    8.8832   -3.1974   -2.0946 H   0  0  0  0  0  0  0  0  0  0  0  0
    8.9295   -1.7958   -3.1464 H   0  0  0  0  0  0  0  0  0  0  0  0
    7.4957   -3.5911   -4.0665 H   0  0  0  0  0  0  0  0  0  0  0  0
    6.5616   -2.1271   -3.8011 H   0  0  0  0  0  0  0  0  0  0  0  0
    6.8710   -4.4743   -1.9613 H   0  0  0  0  0  0  0  0  0  0  0  0
    5.4508   -4.2807   -2.9766 H   0  0  0  0  0  0  0  0  0  0  0  0
    2.3873   -2.6317    1.0684 H   0  0  0  0  0  0  0  0  0  0  0  0
    3.4634   -5.9832    0.9040 H   0  0  0  0  0  0  0  0  0  0  0  0
    0.5215   -6.4969    1.0949 H   0  0  0  0  0  0  0  0  0  0  0  0
    0.6450   -6.2536    2.8666 H   0  0  0  0  0  0  0  0  0  0  0  0
  1  2  1  0  0  0  0
  1 23  1  0  0  0  0
  1 24  1  0  0  0  0
  1 25  1  0  0  0  0
  2  3  1  0  0  0  0
  3  4  2  0  0  0  0
  3 13  1  0  0  0  0
  4  5  1  0  0  0  0
  4 21  1  0  0  0  0
  5  6  1  0  0  0  0
  5 10  1  0  0  0  0
  5 11  1  0  0  0  0
  6  7  1  0  0  0  0
  6 26  1  0  0  0  0
  6 27  1  0  0  0  0
  7  8  1  0  0  0  0
  7 28  1  0  0  0  0
  7 29  1  0  0  0  0
  8  9  1  0  0  0  0
  8 30  1  0  0  0  0
  8 31  1  0  0  0  0
  9 10  1  0  0  0  0
  9 32  1  0  0  0  0
  9 33  1  0  0  0  0
 10 34  1  0  0  0  0
 10 35  1  0  0  0  0
 11 12  2  0  0  0  0
 11 19  1  0  0  0  0
 12 13  1  0  0  0  0
 12 14  1  0  0  0  0
 13 36  1  0  0  0  0
 14 15  1  0  0  0  0
 14 37  1  0  0  0  0
 15 16  2  0  0  0  0
 15 17  1  0  0  0  0
 17 18  1  0  0  0  0
 17 38  1  0  0  0  0
 17 39  1  0  0  0  0
 19 20  3  0  0  0  0
 21 22  3  0  0  0  0
M  END
$$$$
