stable:False satoms:6 tatoms:24 sratio:0.25
  -OEChem-07092417463D

 24 26  0     1  0  0  0  0  0999 V2000
    6.5031   -4.8811   26.4396 C   0  0  0  0  0  0  0  0  0  0  0  0
    8.2195   -4.2915   26.1076 S   0  0  0  0  0  0  0  0  0  0  0  0
    9.0347   -5.4706   26.0731 O   0  0  0  0  0  0  0  0  0  0  0  0
    8.5919   -3.3900   27.1800 O   0  0  0  0  0  0  0  0  0  0  0  0
    8.1099   -3.5678   24.6491 N   0  0  0  0  0  0  0  0  0  0  0  0
    8.9070   -2.9231   24.1272 C   0  0  0  0  0  0  0  0  0  0  0  0
    9.4160   -1.9633   23.5043 C   0  0  0  0  0  0  0  0  0  0  0  0
   10.3870   -1.0659   23.3060 C   0  0  1  0  0  0  0  0  0  0  0  0
   11.0889   -0.0334   24.2680 C   0  0  0  0  0  0  0  0  0  0  0  0
   12.1674    0.2814   24.2652 C   0  0  0  0  0  0  0  0  0  0  0  0
   13.1573   -0.1362   23.5232 C   0  0  0  0  0  0  0  0  0  0  0  0
   12.7361   -1.2263   22.6748 C   0  0  0  0  0  0  0  0  0  0  0  0
   11.8238   -1.6873   22.5349 C   0  0  0  0  0  0  0  0  0  0  0  0
    9.6250   -0.7075   22.4831 C   0  0  3  0  0  0  0  0  0  0  0  0
    9.0371    0.0314   21.4189 C   0  0  0  0  0  0  0  0  0  0  0  0
    9.5654    1.0068   21.0424 O   0  0  0  0  0  0  0  0  0  0  0  0
    7.9343   -0.5653   21.0697 N   0  0  0  0  0  0  0  0  0  0  0  0
    7.1885   -0.1038   20.1907 C   0  0  0  0  0  0  0  0  0  0  0  0
    7.1741   -0.0120   18.8735 C   0  0  0  0  0  0  0  0  0  0  0  0
    6.7432    0.2901   17.8181 N   0  0  0  0  0  0  0  0  0  0  0  0
    5.6489    0.8579   18.2287 C   0  0  0  0  0  0  0  0  0  0  0  0
    5.2674    0.9810   19.4091 C   0  0  0  0  0  0  0  0  0  0  0  0
    5.8067    0.5912   20.5654 C   0  0  0  0  0  0  0  0  0  0  0  0
    5.4508    0.6951   21.5439 C   0  0  0  0  0  0  0  0  0  0  0  0
 20 21  2  0  0  0  0
 19 20  1  0  0  0  0
 21 22  1  0  0  0  0
 18 19  2  0  0  0  0
 22 23  2  0  0  0  0
 18 23  1  0  0  0  0
 17 18  1  0  0  0  0
 23 24  1  0  0  0  0
 15 16  2  0  0  0  0
 15 17  1  0  0  0  0
 14 15  1  0  0  0  0
  8 14  1  0  0  0  0
  7 14  1  0  0  0  0
 12 13  1  0  0  0  0
  8 13  1  0  0  0  0
 11 12  2  0  0  0  0
  7  8  1  0  0  0  0
  8  9  1  0  0  0  0
  6  7  2  3  0  0  0
 10 11  1  0  0  0  0
  5  6  1  0  0  0  0
  9 10  2  0  0  0  0
  2  5  1  0  0  0  0
  2  3  2  0  0  0  0
  1  2  1  0  0  0  0
  2  4  2  0  0  0  0
M  END
> <Shapegauss>
-288.413483

$$$$
