MODEL 1
REMARK VINA RESULT:    -8.059      0.000      0.000
REMARK INTER + INTRA:         -10.617
REMARK INTER:                  -9.943
REMARK INTRA:                  -0.674
REMARK UNBOUND:                -0.674
REMARK  4 active torsions:
REMARK  status: ('A' for Active; 'I' for Inactive)
REMARK    1  A    between atoms: S_2  and  N_5 
REMARK    2  A    between atoms: N_5  and  C_7 
REMARK    3  A    between atoms: C_15  and  C_16 
REMARK       I    between atoms: C_16  and  N_18 
REMARK    4  A    between atoms: N_18  and  C_20 
ROOT
HETATM    1  C   UNL     1       8.559  -3.537  23.796  1.00  0.00     0.109 C 
HETATM    2  C   UNL     1       8.945  -2.425  23.367  1.00  0.00    -0.008 A 
HETATM    3  C   UNL     1       9.659  -1.301  23.475  1.00  0.00     0.058 A 
HETATM    4  C   UNL     1       9.773  -0.223  24.620  1.00  0.00    -0.003 C 
HETATM    5  C   UNL     1      10.687   0.348  24.934  1.00  0.00    -0.002 C 
HETATM    6  C   UNL     1      11.916   0.262  24.500  1.00  0.00    -0.001 C 
HETATM    7  C   UNL     1      12.046  -0.811  23.544  1.00  0.00    -0.002 C 
HETATM    8  C   UNL     1      11.363  -1.469  23.137  1.00  0.00    -0.003 C 
HETATM    9  C   UNL     1       9.083  -1.066  22.476  1.00  0.00     0.040 A 
ENDROOT
BRANCH   9  10
HETATM   10  C   UNL     1       8.633  -0.397  21.303  1.00  0.00     0.254 C 
HETATM   11  O   UNL     1       9.368   0.318  20.736  1.00  0.00    -0.268 OA
HETATM   12  N   UNL     1       7.391  -0.728  21.098  1.00  0.00    -0.321 N 
ATOM     13  HN  UNL     1       6.948  -1.401  21.722  1.00  0.00     0.169 HD
BRANCH  12  14
HETATM   14  C   UNL     1       6.730  -0.248  20.163  1.00  0.00     0.060 A 
HETATM   15  C   UNL     1       6.375  -0.595  18.939  1.00  0.00     0.117 A 
HETATM   16  N   UNL     1       5.850  -0.467  17.891  1.00  0.00    -0.373 N 
HETATM   17  C   UNL     1       5.327   0.705  18.097  1.00  0.00     0.088 A 
ATOM     18  HN  UNL     1       5.817  -1.082  17.078  1.00  0.00     0.164 HD
HETATM   19  C   UNL     1       5.412   1.391  19.134  1.00  0.00     0.030 A 
HETATM   20  C   UNL     1       6.016   1.168  20.302  1.00  0.00    -0.016 A 
HETATM   21  C   UNL     1       6.056   1.760  21.165  1.00  0.00     0.026 C 
ENDBRANCH  12  14
ENDBRANCH   9  10
BRANCH   1  22
HETATM   22  N   UNL     1       7.851  -4.407  24.053  1.00  0.00    -0.295 N 
ATOM     23  HN  UNL     1       8.094  -4.960  24.875  1.00  0.00     0.177 HD
BRANCH  22  24
HETATM   24  S   UNL     1       6.501  -4.856  23.252  1.00  0.00     0.226 S 
HETATM   25  C   UNL     1       7.137  -5.880  21.855  1.00  0.00     0.186 C 
HETATM   26  O   UNL     1       5.671  -5.730  24.028  1.00  0.00    -0.206 OA
HETATM   27  O   UNL     1       5.763  -3.745  22.685  1.00  0.00    -0.206 OA
ENDBRANCH  22  24
ENDBRANCH   1  22
TORSDOF 4
ENDMDL
MODEL 2
REMARK VINA RESULT:    -8.030      4.059      6.272
REMARK INTER + INTRA:         -10.582
REMARK INTER:                  -9.883
REMARK INTRA:                  -0.700
REMARK UNBOUND:                -0.674
REMARK  4 active torsions:
REMARK  status: ('A' for Active; 'I' for Inactive)
REMARK    1  A    between atoms: S_2  and  N_5 
REMARK    2  A    between atoms: N_5  and  C_7 
REMARK    3  A    between atoms: C_15  and  C_16 
REMARK       I    between atoms: C_16  and  N_18 
REMARK    4  A    between atoms: N_18  and  C_20 
ROOT
HETATM    1  C   UNL     1       7.111  -5.636  26.491  1.00  0.00     0.109 C 
HETATM    2  C   UNL     1       7.140  -4.983  25.422  1.00  0.00    -0.008 A 
HETATM    3  C   UNL     1       7.012  -4.882  24.096  1.00  0.00     0.058 A 
HETATM    4  C   UNL     1       7.630  -5.710  22.905  1.00  0.00    -0.003 C 
HETATM    5  C   UNL     1       7.140  -5.977  21.930  1.00  0.00    -0.002 C 
HETATM    6  C   UNL     1       5.926  -5.738  21.513  1.00  0.00    -0.001 C 
HETATM    7  C   UNL     1       5.139  -5.121  22.554  1.00  0.00    -0.002 C 
HETATM    8  C   UNL     1       5.368  -4.818  23.513  1.00  0.00    -0.003 C 
HETATM    9  C   UNL     1       7.385  -3.792  24.335  1.00  0.00     0.040 A 
ENDROOT
BRANCH   9  10
HETATM   10  C   UNL     1       7.791  -2.438  24.170  1.00  0.00     0.254 C 
HETATM   11  O   UNL     1       7.045  -1.674  23.686  1.00  0.00    -0.268 OA
HETATM   12  N   UNL     1       9.012  -2.323  24.605  1.00  0.00    -0.321 N 
ATOM     13  HN  UNL     1       9.470  -3.136  25.015  1.00  0.00     0.169 HD
BRANCH  12  14
HETATM   14  C   UNL     1       9.635  -1.252  24.535  1.00  0.00     0.060 A 
HETATM   15  C   UNL     1       9.632  -0.079  25.143  1.00  0.00     0.117 A 
HETATM   16  N   UNL     1       9.986   1.025  25.358  1.00  0.00    -0.373 N 
HETATM   17  C   UNL     1      10.921   1.091  24.458  1.00  0.00     0.088 A 
ATOM     18  HN  UNL     1       9.660   1.713  26.037  1.00  0.00     0.164 HD
HETATM   19  C   UNL     1      11.262   0.191  23.665  1.00  0.00     0.030 A 
HETATM   20  C   UNL     1      10.821  -1.057  23.492  1.00  0.00    -0.016 A 
HETATM   21  C   UNL     1      11.141  -1.798  22.825  1.00  0.00     0.026 C 
ENDBRANCH  12  14
ENDBRANCH   9  10
BRANCH   1  22
HETATM   22  N   UNL     1       7.426  -6.020  27.528  1.00  0.00    -0.295 N 
ATOM     23  HN  UNL     1       8.426  -6.159  27.674  1.00  0.00     0.177 HD
BRANCH  22  24
HETATM   24  S   UNL     1       6.455  -6.368  28.794  1.00  0.00     0.226 S 
HETATM   25  C   UNL     1       4.793  -6.599  28.025  1.00  0.00     0.186 C 
HETATM   26  O   UNL     1       6.779  -7.624  29.403  1.00  0.00    -0.206 OA
HETATM   27  O   UNL     1       6.348  -5.292  29.760  1.00  0.00    -0.206 OA
ENDBRANCH  22  24
ENDBRANCH   1  22
TORSDOF 4
ENDMDL
MODEL 3
REMARK VINA RESULT:    -7.986      2.670      6.023
REMARK INTER + INTRA:         -10.528
REMARK INTER:                  -9.753
REMARK INTRA:                  -0.775
REMARK UNBOUND:                -0.674
REMARK  4 active torsions:
REMARK  status: ('A' for Active; 'I' for Inactive)
REMARK    1  A    between atoms: S_2  and  N_5 
REMARK    2  A    between atoms: N_5  and  C_7 
REMARK    3  A    between atoms: C_15  and  C_16 
REMARK       I    between atoms: C_16  and  N_18 
REMARK    4  A    between atoms: N_18  and  C_20 
ROOT
HETATM    1  C   UNL     1       9.192  -0.354  21.133  1.00  0.00     0.109 C 
HETATM    2  C   UNL     1       9.633  -0.733  22.242  1.00  0.00    -0.008 A 
HETATM    3  C   UNL     1      10.629  -0.938  23.109  1.00  0.00     0.058 A 
HETATM    4  C   UNL     1      12.011  -1.687  22.980  1.00  0.00    -0.003 C 
HETATM    5  C   UNL     1      12.988  -1.406  23.456  1.00  0.00    -0.002 C 
HETATM    6  C   UNL     1      13.290  -0.376  24.199  1.00  0.00    -0.001 C 
HETATM    7  C   UNL     1      12.171   0.532  24.293  1.00  0.00    -0.002 C 
HETATM    8  C   UNL     1      11.209   0.492  23.923  1.00  0.00    -0.003 C 
HETATM    9  C   UNL     1       9.741  -1.406  23.725  1.00  0.00     0.040 A 
ENDROOT
BRANCH   9  10
HETATM   10  C   UNL     1       9.008  -2.039  24.766  1.00  0.00     0.254 C 
HETATM   11  O   UNL     1       8.766  -1.437  25.742  1.00  0.00    -0.268 OA
HETATM   12  N   UNL     1       8.756  -3.262  24.401  1.00  0.00    -0.321 N 
ATOM     13  HN  UNL     1       9.050  -3.574  23.476  1.00  0.00     0.169 HD
BRANCH  12  14
HETATM   14  C   UNL     1       8.167  -4.061  25.146  1.00  0.00     0.060 A 
HETATM   15  C   UNL     1       8.469  -4.864  26.151  1.00  0.00     0.117 A 
HETATM   16  N   UNL     1       8.261  -5.657  26.998  1.00  0.00    -0.373 N 
HETATM   17  C   UNL     1       6.985  -5.801  26.797  1.00  0.00     0.088 A 
ATOM     18  HN  UNL     1       8.885  -6.094  27.676  1.00  0.00     0.164 HD
HETATM   19  C   UNL     1       6.292  -5.216  25.942  1.00  0.00     0.030 A 
HETATM   20  C   UNL     1       6.599  -4.304  25.018  1.00  0.00    -0.016 A 
HETATM   21  C   UNL     1       5.987  -3.818  24.321  1.00  0.00     0.026 C 
ENDBRANCH  12  14
ENDBRANCH   9  10
BRANCH   1  22
HETATM   22  N   UNL     1       8.578  -0.353  20.160  1.00  0.00    -0.295 N 
ATOM     23  HN  UNL     1       9.017  -0.786  19.348  1.00  0.00     0.177 HD
BRANCH  22  24
HETATM   24  S   UNL     1       7.082   0.261  19.932  1.00  0.00     0.226 S 
HETATM   25  C   UNL     1       6.939   1.567  21.228  1.00  0.00     0.186 C 
HETATM   26  O   UNL     1       6.957   0.944  18.678  1.00  0.00    -0.206 OA
HETATM   27  O   UNL     1       6.018  -0.698  20.152  1.00  0.00    -0.206 OA
ENDBRANCH  22  24
ENDBRANCH   1  22
TORSDOF 4
ENDMDL
MODEL 4
REMARK VINA RESULT:    -7.495      2.980      6.436
REMARK INTER + INTRA:          -9.922
REMARK INTER:                  -9.236
REMARK INTRA:                  -0.687
REMARK UNBOUND:                -0.674
REMARK  4 active torsions:
REMARK  status: ('A' for Active; 'I' for Inactive)
REMARK    1  A    between atoms: S_2  and  N_5 
REMARK    2  A    between atoms: N_5  and  C_7 
REMARK    3  A    between atoms: C_15  and  C_16 
REMARK       I    between atoms: C_16  and  N_18 
REMARK    4  A    between atoms: N_18  and  C_20 
ROOT
HETATM    1  C   UNL     1       7.281   0.031  22.433  1.00  0.00     0.109 C 
HETATM    2  C   UNL     1       8.032  -0.787  23.012  1.00  0.00    -0.008 A 
HETATM    3  C   UNL     1       9.241  -1.227  23.375  1.00  0.00     0.058 A 
HETATM    4  C   UNL     1      10.554  -1.519  22.554  1.00  0.00    -0.003 C 
HETATM    5  C   UNL     1      11.616  -1.354  22.881  1.00  0.00    -0.002 C 
HETATM    6  C   UNL     1      12.080  -0.836  23.986  1.00  0.00    -0.001 C 
HETATM    7  C   UNL     1      11.002  -0.346  24.812  1.00  0.00    -0.002 C 
HETATM    8  C   UNL     1       9.977  -0.364  24.702  1.00  0.00    -0.003 C 
HETATM    9  C   UNL     1       8.582  -2.106  23.798  1.00  0.00     0.040 A 
ENDROOT
BRANCH   9  10
HETATM   10  C   UNL     1       8.199  -3.319  24.436  1.00  0.00     0.254 C 
HETATM   11  O   UNL     1       8.186  -4.312  23.813  1.00  0.00    -0.268 OA
HETATM   12  N   UNL     1       7.895  -3.051  25.672  1.00  0.00    -0.321 N 
ATOM     13  HN  UNL     1       8.003  -2.096  26.013  1.00  0.00     0.169 HD
BRANCH  12  14
HETATM   14  C   UNL     1       7.478  -3.924  26.450  1.00  0.00     0.060 A 
HETATM   15  C   UNL     1       7.904  -5.071  26.950  1.00  0.00     0.117 A 
HETATM   16  N   UNL     1       7.845  -6.051  27.603  1.00  0.00    -0.373 N 
HETATM   17  C   UNL     1       6.664  -5.855  28.110  1.00  0.00     0.088 A 
ATOM     18  HN  UNL     1       8.510  -6.813  27.729  1.00  0.00     0.164 HD
HETATM   19  C   UNL     1       5.913  -4.882  27.904  1.00  0.00     0.030 A 
HETATM   20  C   UNL     1       6.059  -3.786  27.157  1.00  0.00    -0.016 A 
HETATM   21  C   UNL     1       5.413  -2.975  27.018  1.00  0.00     0.026 C 
ENDBRANCH  12  14
ENDBRANCH   9  10
BRANCH   1  22
HETATM   22  N   UNL     1       6.415   0.430  21.788  1.00  0.00    -0.295 N 
ATOM     23  HN  UNL     1       5.563   0.688  22.286  1.00  0.00     0.177 HD
BRANCH  22  24
HETATM   24  S   UNL     1       6.396   0.631  20.168  1.00  0.00     0.226 S 
HETATM   25  C   UNL     1       5.635  -0.927  19.538  1.00  0.00     0.186 C 
HETATM   26  O   UNL     1       5.516   1.687  19.759  1.00  0.00    -0.206 OA
HETATM   27  O   UNL     1       7.716   0.747  19.580  1.00  0.00    -0.206 OA
ENDBRANCH  22  24
ENDBRANCH   1  22
TORSDOF 4
ENDMDL
MODEL 5
REMARK VINA RESULT:    -7.150     14.588     15.980
REMARK INTER + INTRA:          -9.496
REMARK INTER:                  -8.751
REMARK INTRA:                  -0.745
REMARK UNBOUND:                -0.674
REMARK  4 active torsions:
REMARK  status: ('A' for Active; 'I' for Inactive)
REMARK    1  A    between atoms: S_2  and  N_5 
REMARK    2  A    between atoms: N_5  and  C_7 
REMARK    3  A    between atoms: C_15  and  C_16 
REMARK       I    between atoms: C_16  and  N_18 
REMARK    4  A    between atoms: N_18  and  C_20 
ROOT
HETATM    1  C   UNL     1      23.947  -4.182  24.243  1.00  0.00     0.109 C 
HETATM    2  C   UNL     1      23.683  -3.084  23.700  1.00  0.00    -0.008 A 
HETATM    3  C   UNL     1      23.072  -1.896  23.677  1.00  0.00     0.058 A 
HETATM    4  C   UNL     1      21.567  -1.472  23.883  1.00  0.00    -0.003 C 
HETATM    5  C   UNL     1      21.180  -0.543  24.380  1.00  0.00    -0.002 C 
HETATM    6  C   UNL     1      21.831   0.421  24.972  1.00  0.00    -0.001 C 
HETATM    7  C   UNL     1      23.242   0.123  25.033  1.00  0.00    -0.002 C 
HETATM    8  C   UNL     1      23.803  -0.665  24.675  1.00  0.00    -0.003 C 
HETATM    9  C   UNL     1      23.567  -1.878  22.608  1.00  0.00     0.040 A 
ENDROOT
BRANCH   9  10
HETATM   10  C   UNL     1      23.957  -1.448  21.309  1.00  0.00     0.254 C 
HETATM   11  O   UNL     1      24.843  -0.690  21.201  1.00  0.00    -0.268 OA
HETATM   12  N   UNL     1      23.172  -2.015  20.440  1.00  0.00    -0.321 N 
ATOM     13  HN  UNL     1      22.465  -2.674  20.766  1.00  0.00     0.169 HD
BRANCH  12  14
HETATM   14  C   UNL     1      23.258  -1.778  19.225  1.00  0.00     0.060 A 
HETATM   15  C   UNL     1      22.910  -0.813  18.391  1.00  0.00     0.117 A 
HETATM   16  N   UNL     1      22.813  -0.273  17.348  1.00  0.00    -0.373 N 
HETATM   17  C   UNL     1      23.397  -1.179  16.623  1.00  0.00     0.088 A 
ATOM     18  HN  UNL     1      22.399   0.624  17.094  1.00  0.00     0.164 HD
HETATM   19  C   UNL     1      23.886  -2.255  17.020  1.00  0.00     0.030 A 
HETATM   20  C   UNL     1      23.976  -2.797  18.236  1.00  0.00    -0.016 A 
HETATM   21  C   UNL     1      24.410  -3.700  18.541  1.00  0.00     0.026 C 
ENDBRANCH  12  14
ENDBRANCH   9  10
BRANCH   1  22
HETATM   22  N   UNL     1      24.126  -5.313  24.356  1.00  0.00    -0.295 N 
ATOM     23  HN  UNL     1      24.106  -5.862  23.497  1.00  0.00     0.177 HD
BRANCH  22  24
HETATM   24  S   UNL     1      24.407  -6.138  25.736  1.00  0.00     0.226 S 
HETATM   25  C   UNL     1      26.240  -6.053  25.936  1.00  0.00     0.186 C 
HETATM   26  O   UNL     1      23.860  -5.482  26.887  1.00  0.00    -0.206 OA
HETATM   27  O   UNL     1      24.036  -7.538  25.664  1.00  0.00    -0.206 OA
ENDBRANCH  22  24
ENDBRANCH   1  22
TORSDOF 4
ENDMDL
MODEL 6
REMARK VINA RESULT:    -7.006      2.644      5.238
REMARK INTER + INTRA:          -9.318
REMARK INTER:                  -8.623
REMARK INTRA:                  -0.696
REMARK UNBOUND:                -0.674
REMARK  4 active torsions:
REMARK  status: ('A' for Active; 'I' for Inactive)
REMARK    1  A    between atoms: S_2  and  N_5 
REMARK    2  A    between atoms: N_5  and  C_7 
REMARK    3  A    between atoms: C_15  and  C_16 
REMARK       I    between atoms: C_16  and  N_18 
REMARK    4  A    between atoms: N_18  and  C_20 
ROOT
HETATM    1  C   UNL     1       8.389   0.003  20.706  1.00  0.00     0.109 C 
HETATM    2  C   UNL     1       8.771  -0.689  21.678  1.00  0.00    -0.008 A 
HETATM    3  C   UNL     1       9.667  -1.017  22.614  1.00  0.00     0.058 A 
HETATM    4  C   UNL     1      11.204  -1.357  22.539  1.00  0.00    -0.003 C 
HETATM    5  C   UNL     1      12.000  -1.098  23.288  1.00  0.00    -0.002 C 
HETATM    6  C   UNL     1      11.914  -0.410  24.394  1.00  0.00    -0.001 C 
HETATM    7  C   UNL     1      10.588   0.139  24.552  1.00  0.00    -0.002 C 
HETATM    8  C   UNL     1       9.729   0.057  23.988  1.00  0.00    -0.003 C 
HETATM    9  C   UNL     1       8.868  -1.858  22.811  1.00  0.00     0.040 A 
ENDROOT
BRANCH   9  10
HETATM   10  C   UNL     1       8.207  -2.987  23.371  1.00  0.00     0.254 C 
HETATM   11  O   UNL     1       8.746  -3.607  24.207  1.00  0.00    -0.268 OA
HETATM   12  N   UNL     1       7.057  -3.123  22.777  1.00  0.00    -0.321 N 
ATOM     13  HN  UNL     1       6.778  -2.436  22.076  1.00  0.00     0.169 HD
BRANCH  12  14
HETATM   14  C   UNL     1       6.291  -4.063  23.038  1.00  0.00     0.060 A 
HETATM   15  C   UNL     1       6.156  -5.335  22.706  1.00  0.00     0.117 A 
HETATM   16  N   UNL     1       5.662  -6.405  22.715  1.00  0.00    -0.373 N 
HETATM   17  C   UNL     1       4.693  -6.146  23.540  1.00  0.00     0.088 A 
ATOM     18  HN  UNL     1       5.916  -7.264  22.227  1.00  0.00     0.164 HD
HETATM   19  C   UNL     1       4.457  -5.059  24.101  1.00  0.00     0.030 A 
HETATM   20  C   UNL     1       5.081  -3.880  24.056  1.00  0.00    -0.016 A 
HETATM   21  C   UNL     1       4.867  -2.985  24.555  1.00  0.00     0.026 C 
ENDBRANCH  12  14
ENDBRANCH   9  10
BRANCH   1  22
HETATM   22  N   UNL     1       7.927   0.267  19.686  1.00  0.00    -0.295 N 
ATOM     23  HN  UNL     1       8.583   0.444  18.925  1.00  0.00     0.177 HD
BRANCH  22  24
HETATM   24  S   UNL     1       6.341   0.389  19.318  1.00  0.00     0.226 S 
HETATM   25  C   UNL     1       5.655  -1.265  19.764  1.00  0.00     0.186 C 
HETATM   26  O   UNL     1       5.657   1.331  20.154  1.00  0.00    -0.206 OA
HETATM   27  O   UNL     1       6.085   0.607  17.908  1.00  0.00    -0.206 OA
ENDBRANCH  22  24
ENDBRANCH   1  22
TORSDOF 4
ENDMDL
MODEL 7
REMARK VINA RESULT:    -6.937      4.191      8.118
REMARK INTER + INTRA:          -9.234
REMARK INTER:                  -8.575
REMARK INTRA:                  -0.659
REMARK UNBOUND:                -0.674
REMARK  4 active torsions:
REMARK  status: ('A' for Active; 'I' for Inactive)
REMARK    1  A    between atoms: S_2  and  N_5 
REMARK    2  A    between atoms: N_5  and  C_7 
REMARK    3  A    between atoms: C_15  and  C_16 
REMARK       I    between atoms: C_16  and  N_18 
REMARK    4  A    between atoms: N_18  and  C_20 
ROOT
HETATM    1  C   UNL     1       9.201  -2.642  23.895  1.00  0.00     0.109 C 
HETATM    2  C   UNL     1       8.340  -3.518  24.138  1.00  0.00    -0.008 A 
HETATM    3  C   UNL     1       7.297  -4.277  23.787  1.00  0.00     0.058 A 
HETATM    4  C   UNL     1       5.894  -3.928  23.158  1.00  0.00    -0.003 C 
HETATM    5  C   UNL     1       5.309  -4.531  22.414  1.00  0.00    -0.002 C 
HETATM    6  C   UNL     1       5.620  -5.649  21.814  1.00  0.00    -0.001 C 
HETATM    7  C   UNL     1       6.968  -6.047  22.144  1.00  0.00    -0.002 C 
HETATM    8  C   UNL     1       7.681  -5.640  22.768  1.00  0.00    -0.003 C 
HETATM    9  C   UNL     1       7.393  -4.594  24.917  1.00  0.00     0.040 A 
ENDROOT
BRANCH   9  10
HETATM   10  C   UNL     1       7.154  -5.239  26.163  1.00  0.00     0.254 C 
HETATM   11  O   UNL     1       8.033  -5.810  26.687  1.00  0.00    -0.268 OA
HETATM   12  N   UNL     1       5.903  -5.065  26.477  1.00  0.00    -0.321 N 
ATOM     13  HN  UNL     1       5.313  -4.500  25.868  1.00  0.00     0.169 HD
BRANCH  12  14
HETATM   14  C   UNL     1       5.408  -5.567  27.499  1.00  0.00     0.060 A 
HETATM   15  C   UNL     1       5.235  -6.774  28.008  1.00  0.00     0.117 A 
HETATM   16  N   UNL     1       4.880  -7.567  28.805  1.00  0.00    -0.373 N 
HETATM   17  C   UNL     1       4.367  -6.739  29.664  1.00  0.00     0.088 A 
ATOM     18  HN  UNL     1       4.952  -8.585  28.816  1.00  0.00     0.164 HD
HETATM   19  C   UNL     1       4.326  -5.496  29.574  1.00  0.00     0.030 A 
HETATM   20  C   UNL     1       4.773  -4.656  28.639  1.00  0.00    -0.016 A 
HETATM   21  C   UNL     1       4.739  -3.611  28.600  1.00  0.00     0.026 C 
ENDBRANCH  12  14
ENDBRANCH   9  10
BRANCH   1  22
HETATM   22  N   UNL     1       9.877  -1.723  24.048  1.00  0.00    -0.295 N 
ATOM     23  HN  UNL     1       9.847  -1.288  24.970  1.00  0.00     0.177 HD
BRANCH  22  24
HETATM   24  S   UNL     1      10.879  -1.037  22.957  1.00  0.00     0.226 S 
HETATM   25  C   UNL     1      11.660   0.352  23.886  1.00  0.00     0.186 C 
HETATM   26  O   UNL     1      11.956  -1.907  22.581  1.00  0.00    -0.206 OA
HETATM   27  O   UNL     1      10.195  -0.472  21.810  1.00  0.00    -0.206 OA
ENDBRANCH  22  24
ENDBRANCH   1  22
TORSDOF 4
ENDMDL
MODEL 8
REMARK VINA RESULT:    -6.827      1.767      2.250
REMARK INTER + INTRA:          -9.098
REMARK INTER:                  -8.484
REMARK INTRA:                  -0.614
REMARK UNBOUND:                -0.674
REMARK  4 active torsions:
REMARK  status: ('A' for Active; 'I' for Inactive)
REMARK    1  A    between atoms: S_2  and  N_5 
REMARK    2  A    between atoms: N_5  and  C_7 
REMARK    3  A    between atoms: C_15  and  C_16 
REMARK       I    between atoms: C_16  and  N_18 
REMARK    4  A    between atoms: N_18  and  C_20 
ROOT
HETATM    1  C   UNL     1       8.557  -3.239  24.154  1.00  0.00     0.109 C 
HETATM    2  C   UNL     1       8.985  -2.127  23.767  1.00  0.00    -0.008 A 
HETATM    3  C   UNL     1       9.896  -1.149  23.761  1.00  0.00     0.058 A 
HETATM    4  C   UNL     1      10.586  -0.336  24.922  1.00  0.00    -0.003 C 
HETATM    5  C   UNL     1      11.645   0.037  24.960  1.00  0.00    -0.002 C 
HETATM    6  C   UNL     1      12.620  -0.126  24.107  1.00  0.00    -0.001 C 
HETATM    7  C   UNL     1      12.218  -1.004  23.034  1.00  0.00    -0.002 C 
HETATM    8  C   UNL     1      11.326  -1.474  22.816  1.00  0.00    -0.003 C 
HETATM    9  C   UNL     1       9.078  -0.652  23.075  1.00  0.00     0.040 A 
ENDROOT
BRANCH   9  10
HETATM   10  C   UNL     1       8.402   0.283  22.243  1.00  0.00     0.254 C 
HETATM   11  O   UNL     1       8.649   1.424  22.349  1.00  0.00    -0.268 OA
HETATM   12  N   UNL     1       7.567  -0.372  21.490  1.00  0.00    -0.321 N 
ATOM     13  HN  UNL     1       7.535  -1.389  21.553  1.00  0.00     0.169 HD
BRANCH  12  14
HETATM   14  C   UNL     1       6.807   0.206  20.697  1.00  0.00     0.060 A 
HETATM   15  C   UNL     1       5.703   0.929  20.753  1.00  0.00     0.117 A 
HETATM   16  N   UNL     1       4.805   1.562  20.325  1.00  0.00    -0.373 N 
HETATM   17  C   UNL     1       5.115   1.480  19.066  1.00  0.00     0.088 A 
ATOM     18  HN  UNL     1       4.029   2.028  20.795  1.00  0.00     0.164 HD
HETATM   19  C   UNL     1       6.096   0.890  18.573  1.00  0.00     0.030 A 
HETATM   20  C   UNL     1       7.094   0.202  19.131  1.00  0.00    -0.016 A 
HETATM   21  C   UNL     1       7.917  -0.270  18.689  1.00  0.00     0.026 C 
ENDBRANCH  12  14
ENDBRANCH   9  10
BRANCH   1  22
HETATM   22  N   UNL     1       7.821  -4.039  24.529  1.00  0.00    -0.295 N 
ATOM     23  HN  UNL     1       7.247  -4.494  23.818  1.00  0.00     0.177 HD
BRANCH  22  24
HETATM   24  S   UNL     1       7.591  -4.531  26.069  1.00  0.00     0.226 S 
HETATM   25  C   UNL     1       6.320  -3.363  26.721  1.00  0.00     0.186 C 
HETATM   26  O   UNL     1       6.996  -5.833  26.143  1.00  0.00    -0.206 OA
HETATM   27  O   UNL     1       8.771  -4.410  26.902  1.00  0.00    -0.206 OA
ENDBRANCH  22  24
ENDBRANCH   1  22
TORSDOF 4
ENDMDL
MODEL 9
REMARK VINA RESULT:    -6.639      5.815      8.565
REMARK INTER + INTRA:          -8.865
REMARK INTER:                  -8.168
REMARK INTRA:                  -0.698
REMARK UNBOUND:                -0.674
REMARK  4 active torsions:
REMARK  status: ('A' for Active; 'I' for Inactive)
REMARK    1  A    between atoms: S_2  and  N_5 
REMARK    2  A    between atoms: N_5  and  C_7 
REMARK    3  A    between atoms: C_15  and  C_16 
REMARK       I    between atoms: C_16  and  N_18 
REMARK    4  A    between atoms: N_18  and  C_20 
ROOT
HETATM    1  C   UNL     1       7.903   6.586  22.515  1.00  0.00     0.109 C 
HETATM    2  C   UNL     1       8.618   5.901  23.283  1.00  0.00    -0.008 A 
HETATM    3  C   UNL     1       9.734   5.700  23.991  1.00  0.00     0.058 A 
HETATM    4  C   UNL     1      11.261   5.769  23.606  1.00  0.00    -0.003 C 
HETATM    5  C   UNL     1      12.112   6.128  24.245  1.00  0.00    -0.002 C 
HETATM    6  C   UNL     1      12.098   6.636  25.448  1.00  0.00    -0.001 C 
HETATM    7  C   UNL     1      10.742   6.811  25.912  1.00  0.00    -0.002 C 
HETATM    8  C   UNL     1       9.828   6.583  25.493  1.00  0.00    -0.003 C 
HETATM    9  C   UNL     1       9.201   4.667  24.177  1.00  0.00     0.040 A 
ENDROOT
BRANCH   9  10
HETATM   10  C   UNL     1       8.937   3.350  24.645  1.00  0.00     0.254 C 
HETATM   11  O   UNL     1       8.247   3.205  25.582  1.00  0.00    -0.268 OA
HETATM   12  N   UNL     1       9.586   2.512  23.891  1.00  0.00    -0.321 N 
ATOM     13  HN  UNL     1      10.120   2.869  23.099  1.00  0.00     0.169 HD
BRANCH  12  14
HETATM   14  C   UNL     1       9.574   1.290  24.107  1.00  0.00     0.060 A 
HETATM   15  C   UNL     1       8.677   0.326  24.215  1.00  0.00     0.117 A 
HETATM   16  N   UNL     1       8.293  -0.776  24.384  1.00  0.00    -0.373 N 
HETATM   17  C   UNL     1       9.449  -1.341  24.564  1.00  0.00     0.088 A 
ATOM     18  HN  UNL     1       7.349  -1.164  24.388  1.00  0.00     0.164 HD
HETATM   19  C   UNL     1      10.565  -0.788  24.535  1.00  0.00     0.030 A 
HETATM   20  C   UNL     1      10.926   0.477  24.316  1.00  0.00    -0.016 A 
HETATM   21  C   UNL     1      11.879   0.910  24.281  1.00  0.00     0.026 C 
ENDBRANCH  12  14
ENDBRANCH   9  10
BRANCH   1  22
HETATM   22  N   UNL     1       7.199   6.844  21.643  1.00  0.00    -0.295 N 
ATOM     23  HN  UNL     1       7.328   6.310  20.784  1.00  0.00     0.177 HD
BRANCH  22  24
HETATM   24  S   UNL     1       6.015   7.969  21.625  1.00  0.00     0.226 S 
HETATM   25  C   UNL     1       4.501   7.025  22.098  1.00  0.00     0.186 C 
HETATM   26  O   UNL     1       6.189   8.961  22.645  1.00  0.00    -0.206 OA
HETATM   27  O   UNL     1       5.783   8.549  20.317  1.00  0.00    -0.206 OA
ENDBRANCH  22  24
ENDBRANCH   1  22
TORSDOF 4
ENDMDL
