stable:False satoms:15 tatoms:24 sratio:0.625
  -OEChem-08052420483D

 29 30  0     1  0  0  0  0  0999 V2000
   -9.1384    5.5217  -23.7330 H   0  0  0  0  0  0  0  0  0  0  0  0
  -10.7266    2.9831  -23.0836 C   0  0  0  0  0  0  0  0  0  0  0  0
  -11.0419    5.8547  -23.3805 C   0  0  1  0  0  0  0  0  0  0  0  0
  -11.3158    4.2884  -23.3732 C   0  0  1  0  0  0  0  0  0  0  0  0
   -9.6985    5.9947  -23.0528 N   0  3  0  0  0  0  0  0  0  0  0  0
  -11.6076    6.3851  -22.6376 H   0  0  0  0  0  0  0  0  0  0  0  0
  -10.0916    3.6387  -23.6565 C   0  0  0  0  0  0  0  0  0  0  0  0
  -11.1751    6.9968  -25.1115 H   0  0  0  0  0  0  0  0  0  0  0  0
  -12.0063    0.9578  -24.3587 C   0  0  0  0  0  0  0  0  0  0  0  0
  -11.8392    5.4182  -25.4495 H   0  0  0  0  0  0  0  0  0  0  0  0
  -12.7890    6.5773  -24.5824 H   0  0  0  0  0  0  0  0  0  0  0  0
  -11.7919    6.2176  -24.7346 C   0  0  0  0  0  0  0  0  0  0  0  0
  -13.6847    0.1168  -25.3595 H   0  0  0  0  0  0  0  0  0  0  0  0
  -12.7252    3.9534  -23.6517 C   0  0  0  0  0  0  0  0  0  0  0  0
  -13.5809    3.4127  -23.9167 O   0  0  0  0  0  0  0  0  0  0  0  0
  -12.9794    0.0187  -24.5702 C   0  0  0  0  0  0  0  0  0  0  0  0
   -9.1067    3.6644  -24.1494 H   0  0  0  0  0  0  0  0  0  0  0  0
  -11.6313   -0.8246  -22.5455 S   0  0  0  0  0  0  0  0  0  0  0  0
  -10.7278    1.5776  -22.4610 C   0  0  0  0  0  0  0  0  0  0  0  0
  -11.6319    1.6108  -25.0969 H   0  0  0  0  0  0  0  0  0  0  0  0
  -11.3576    0.6762  -23.2195 N   0  3  0  0  0  0  0  0  0  0  0  0
  -12.8384   -1.0433  -23.6793 C   0  0  0  0  0  0  0  0  0  0  0  0
  -10.2521    1.4028  -21.4307 O   0  0  0  0  0  0  0  0  0  0  0  0
  -13.3791   -1.9336  -23.6243 H   0  0  0  0  0  0  0  0  0  0  0  0
   -9.4580    6.9653  -23.0397 H   0  0  0  0  0  0  0  0  0  0  0  0
  -12.8809    4.7595  -24.3839 H   0  0  0  0  0  0  0  0  0  0  0  0
  -13.1039    4.2721  -22.6694 H   0  0  0  0  0  0  0  0  0  0  0  0
  -14.3434    3.9760  -23.8558 H   0  0  0  0  0  0  0  0  0  0  0  0
   -9.5325    5.5979  -22.1501 H   0  0  0  0  0  0  0  0  0  0  0  0
 22 24  1  0  0  0  0
 13 16  1  0  0  0  0
 16 22  2  0  0  0  0
 18 22  1  0  0  0  0
  9 16  1  0  0  0  0
  9 20  1  0  0  0  0
  9 21  2  0  0  0  0
 18 21  1  0  0  0  0
 19 21  1  0  0  0  0
  2 19  1  0  0  0  0
 19 23  2  0  0  0  0
 14 15  1  0  0  0  0
  7 17  1  0  0  0  0
 10 12  1  0  0  0  0
  2  7  2  0  0  0  0
  2  4  1  0  0  0  0
  4  7  1  0  0  0  0
  4 14  1  0  0  0  0
  3  4  1  0  0  0  0
 11 12  1  0  0  0  0
  8 12  1  0  0  0  0
  3 12  1  0  0  0  0
  3  5  1  0  0  0  0
  3  6  1  0  0  0  0
  1  5  1  0  0  0  0
  5 25  1  0  0  0  0
 14 26  1  0  0  0  0
 14 27  1  0  0  0  0
 15 28  1  0  0  0  0
  5 29  1  0  0  0  0
M  CHG  2   5   1  21   1
M  END
> <Chemgauss4>
-6.913665

$$$$
