stable:False satoms:15 tatoms:24 sratio:0.625
  -OEChem-08052420483D

 29 30  0     1  0  0  0  0  0999 V2000
    9.1519    5.5154   23.7243 H   0  0  0  0  0  0  0  0  0  0  0  0
   10.7401    2.9768   23.0749 C   0  0  0  0  0  0  0  0  0  0  0  0
   11.0554    5.8484   23.3718 C   0  0  1  0  0  0  0  0  0  0  0  0
   11.3293    4.2821   23.3645 C   0  0  1  0  0  0  0  0  0  0  0  0
    9.7120    5.9884   23.0442 N   0  3  0  0  0  0  0  0  0  0  0  0
   11.6211    6.3788   22.6289 H   0  0  0  0  0  0  0  0  0  0  0  0
   10.1051    3.6324   23.6478 C   0  0  0  0  0  0  0  0  0  0  0  0
   11.1886    6.9904   25.1028 H   0  0  0  0  0  0  0  0  0  0  0  0
   12.0198    0.9514   24.3501 C   0  0  0  0  0  0  0  0  0  0  0  0
   11.8527    5.4119   25.4408 H   0  0  0  0  0  0  0  0  0  0  0  0
   12.8025    6.5710   24.5737 H   0  0  0  0  0  0  0  0  0  0  0  0
   11.8054    6.2113   24.7259 C   0  0  0  0  0  0  0  0  0  0  0  0
   13.6982    0.1105   25.3509 H   0  0  0  0  0  0  0  0  0  0  0  0
   12.7388    3.9470   23.6431 C   0  0  0  0  0  0  0  0  0  0  0  0
   13.5944    3.4064   23.9080 O   0  0  0  0  0  0  0  0  0  0  0  0
   12.9929    0.0123   24.5615 C   0  0  0  0  0  0  0  0  0  0  0  0
    9.1202    3.6581   24.1407 H   0  0  0  0  0  0  0  0  0  0  0  0
   11.6448   -0.8309   22.5368 S   0  0  0  0  0  0  0  0  0  0  0  0
   10.7413    1.5712   22.4524 C   0  0  0  0  0  0  0  0  0  0  0  0
   11.6454    1.6045   25.0882 H   0  0  0  0  0  0  0  0  0  0  0  0
   11.3711    0.6699   23.2108 N   0  3  0  0  0  0  0  0  0  0  0  0
   12.8520   -1.0497   23.6706 C   0  0  0  0  0  0  0  0  0  0  0  0
   10.2656    1.3965   21.4220 O   0  0  0  0  0  0  0  0  0  0  0  0
   13.3926   -1.9400   23.6156 H   0  0  0  0  0  0  0  0  0  0  0  0
    9.4715    6.9590   23.0310 H   0  0  0  0  0  0  0  0  0  0  0  0
   12.8944    4.7531   24.3752 H   0  0  0  0  0  0  0  0  0  0  0  0
   13.1174    4.2658   22.6607 H   0  0  0  0  0  0  0  0  0  0  0  0
   14.3570    3.9697   23.8471 H   0  0  0  0  0  0  0  0  0  0  0  0
    9.5460    5.5916   22.1414 H   0  0  0  0  0  0  0  0  0  0  0  0
 22 24  1  0  0  0  0
 13 16  1  0  0  0  0
 16 22  2  0  0  0  0
 18 22  1  0  0  0  0
  9 16  1  0  0  0  0
  9 20  1  0  0  0  0
  9 21  2  0  0  0  0
 18 21  1  0  0  0  0
 19 21  1  0  0  0  0
  2 19  1  0  0  0  0
 19 23  2  0  0  0  0
 14 15  1  0  0  0  0
  7 17  1  0  0  0  0
 10 12  1  0  0  0  0
  2  7  2  0  0  0  0
  2  4  1  0  0  0  0
  4  7  1  0  0  0  0
  4 14  1  0  0  0  0
  3  4  1  0  0  0  0
 11 12  1  0  0  0  0
  8 12  1  0  0  0  0
  3 12  1  0  0  0  0
  3  5  1  0  0  0  0
  3  6  1  0  0  0  0
  1  5  1  0  0  0  0
  5 25  1  0  0  0  0
 14 26  1  0  0  0  0
 14 27  1  0  0  0  0
 15 28  1  0  0  0  0
  5 29  1  0  0  0  0
M  CHG  2   5   1  21   1
M  END
> <Chemgauss4>
-6.918387

$$$$
