stable:False satoms:12 tatoms:24 sratio:0.5
  -OEChem-07092417483D

 24 25  0     1  0  0  0  0  0999 V2000
    6.6397   -4.8282   26.4731 C   0  0  0  0  0  0  0  0  0  0  0  0
    8.2106   -4.3196   26.1077 S   0  0  0  0  0  0  0  0  0  0  0  0
    9.0602   -5.4889   26.0617 O   0  0  0  0  0  0  0  0  0  0  0  0
    8.6485   -3.4185   27.1416 O   0  0  0  0  0  0  0  0  0  0  0  0
    8.0926   -3.5674   24.6712 N   0  0  0  0  0  0  0  0  0  0  0  0
    8.9734   -2.9137   24.1207 C   0  0  0  0  0  0  0  0  0  0  0  0
    9.4225   -1.9424   23.4915 C   0  0  0  0  0  0  0  0  0  0  0  0
   10.3325   -1.0901   23.2979 C   0  0  1  0  0  0  0  0  0  0  0  0
   10.9865   -0.0365   24.3361 C   0  0  0  0  0  0  0  0  0  0  0  0
   12.0632    0.2862   24.2883 C   0  0  0  0  0  0  0  0  0  0  0  0
   13.1495   -0.1780   23.4607 C   0  0  0  0  0  0  0  0  0  0  0  0
   12.6971   -1.2443   22.6585 C   0  0  0  0  0  0  0  0  0  0  0  0
   11.7744   -1.7362   22.5038 C   0  0  0  0  0  0  0  0  0  0  0  0
    9.7266   -0.5761   22.3422 C   0  0  0  0  0  0  0  0  0  0  0  0
    9.0666    0.0456   21.3755 C   0  0  0  0  0  0  0  0  0  0  0  0
    9.5032    1.0277   20.9871 O   0  0  0  0  0  0  0  0  0  0  0  0
    7.9357   -0.5908   21.0572 N   0  0  0  0  0  0  0  0  0  0  0  0
    7.1921   -0.1334   20.1501 C   0  0  0  0  0  0  0  0  0  0  0  0
    7.2515   -0.0316   18.8395 C   0  0  0  0  0  0  0  0  0  0  0  0
    6.7940    0.3360   17.7763 N   0  0  0  0  0  0  0  0  0  0  0  0
    5.6438    0.8986   18.2149 C   0  0  0  0  0  0  0  0  0  0  0  0
    5.2643    0.9651   19.4351 C   0  0  0  0  0  0  0  0  0  0  0  0
    5.8183    0.5641   20.5263 C   0  0  0  0  0  0  0  0  0  0  0  0
    5.3373    0.6823   21.9799 C   0  0  0  0  0  0  0  0  0  0  0  0
 20 21  2  0  0  0  0
 19 20  1  0  0  0  0
 21 22  1  0  0  0  0
 18 19  2  0  0  0  0
 22 23  2  0  0  0  0
 18 23  1  0  0  0  0
 17 18  1  0  0  0  0
 23 24  1  0  0  0  0
 15 16  2  0  0  0  0
 15 17  1  0  0  0  0
 14 15  1  0  0  0  0
  8 14  1  0  0  0  0
 12 13  1  0  0  0  0
  8 13  1  0  0  0  0
 11 12  2  0  0  0  0
  7  8  1  0  0  0  0
  8  9  1  0  0  0  0
 10 11  1  0  0  0  0
  6  7  2  3  0  0  0
  5  6  1  0  0  0  0
  9 10  2  0  0  0  0
  2  5  1  0  0  0  0
  2  3  2  0  0  0  0
  1  2  1  0  0  0  0
  2  4  2  0  0  0  0
M  END
> <Shapegauss>
-285.837402

$$$$
