stable:False satoms:12 tatoms:24 sratio:0.5
  -OEChem-08062417173D

 45 46  0     1  0  0  0  0  0999 V2000
   -6.3665   -5.1294  -26.2735 C   0  0  0  0  0  0  0  0  0  0  0  0
   -7.9476   -4.5785  -26.0351 S   0  0  0  0  0  0  0  0  0  0  0  0
   -8.8215   -5.7299  -25.9961 O   0  0  0  0  0  0  0  0  0  0  0  0
   -8.2986   -3.7160  -27.1331 O   0  0  0  0  0  0  0  0  0  0  0  0
   -7.9090   -3.7665  -24.6272 N   0  0  0  0  0  0  0  0  0  0  0  0
   -8.8108   -3.0744  -24.1646 C   0  0  0  0  0  0  0  0  0  0  0  0
   -9.2807   -2.0690  -23.6084 C   0  0  0  0  0  0  0  0  0  0  0  0
  -10.1843   -1.1936  -23.5119 C   0  0  1  0  0  0  0  0  0  0  0  0
  -10.7476   -0.1752  -24.6350 C   0  0  0  0  0  0  0  0  0  0  0  0
  -11.8184    0.1676  -24.6725 C   0  0  0  0  0  0  0  0  0  0  0  0
  -12.9657   -0.2413  -23.9000 C   0  0  0  0  0  0  0  0  0  0  0  0
  -12.5883   -1.2792  -23.0250 C   0  0  0  0  0  0  0  0  0  0  0  0
  -11.6878   -1.7796  -22.7886 C   0  0  0  0  0  0  0  0  0  0  0  0
   -9.6322   -0.6488  -22.5408 C   0  0  0  0  0  0  0  0  0  0  0  0
   -9.0248    0.0030  -21.5596 C   0  0  0  0  0  0  0  0  0  0  0  0
   -9.4662    1.0085  -21.2430 O   0  0  0  0  0  0  0  0  0  0  0  0
   -7.9301   -0.6381  -21.1402 N   0  0  0  0  0  0  0  0  0  0  0  0
   -7.2387   -0.1544  -20.2059 C   0  0  0  0  0  0  0  0  0  0  0  0
   -7.3819    0.0055  -18.9077 C   0  0  0  0  0  0  0  0  0  0  0  0
   -6.9879    0.4112  -17.8330 N   0  0  0  0  0  0  0  0  0  0  0  0
   -5.8003    0.9344  -18.2177 C   0  0  0  0  0  0  0  0  0  0  0  0
   -5.3404    0.9410  -19.4117 C   0  0  0  0  0  0  0  0  0  0  0  0
   -5.8295    0.5024  -20.5193 C   0  0  0  0  0  0  0  0  0  0  0  0
   -5.2519    0.5488  -21.9415 C   0  0  0  0  0  0  0  0  0  0  0  0
   -6.3126   -5.6938  -27.2162 H   0  0  0  0  0  0  0  0  0  0  0  0
   -5.6821   -4.2696  -26.3214 H   0  0  0  0  0  0  0  0  0  0  0  0
   -6.0762   -5.7830  -25.4378 H   0  0  0  0  0  0  0  0  0  0  0  0
   -7.1214   -3.1547  -24.7000 H   0  0  0  0  0  0  0  0  0  0  0  0
   -9.6878   -3.6799  -24.3398 H   0  0  0  0  0  0  0  0  0  0  0  0
   -8.5733   -1.8257  -22.8294 H   0  0  0  0  0  0  0  0  0  0  0  0
  -10.0631    0.1932  -25.3847 H   0  0  0  0  0  0  0  0  0  0  0  0
  -12.0212    0.9302  -25.4100 H   0  0  0  0  0  0  0  0  0  0  0  0
  -13.9566    0.1809  -23.9795 H   0  0  0  0  0  0  0  0  0  0  0  0
  -13.4251   -1.6562  -22.4557 H   0  0  0  0  0  0  0  0  0  0  0  0
  -11.5646   -1.7289  -21.6967 H   0  0  0  0  0  0  0  0  0  0  0  0
  -11.8088   -2.8290  -23.0956 H   0  0  0  0  0  0  0  0  0  0  0  0
   -8.9825   -1.5238  -22.3913 H   0  0  0  0  0  0  0  0  0  0  0  0
  -10.5424   -0.7599  -21.9331 H   0  0  0  0  0  0  0  0  0  0  0  0
   -7.6605   -1.5010  -21.5678 H   0  0  0  0  0  0  0  0  0  0  0  0
   -8.3306   -0.4600  -18.6850 H   0  0  0  0  0  0  0  0  0  0  0  0
   -5.1881    1.3851  -17.4506 H   0  0  0  0  0  0  0  0  0  0  0  0
   -4.3660    1.3969  -19.5080 H   0  0  0  0  0  0  0  0  0  0  0  0
   -4.6519   -0.3550  -22.1238 H   0  0  0  0  0  0  0  0  0  0  0  0
   -6.0748    0.5955  -22.6700 H   0  0  0  0  0  0  0  0  0  0  0  0
   -4.6154    1.4394  -22.0497 H   0  0  0  0  0  0  0  0  0  0  0  0
 20 21  2  0  0  0  0
 19 20  1  0  0  0  0
 21 22  1  0  0  0  0
 18 19  2  0  0  0  0
 22 23  2  0  0  0  0
 18 23  1  0  0  0  0
 17 18  1  0  0  0  0
 23 24  1  0  0  0  0
 15 16  2  0  0  0  0
 15 17  1  0  0  0  0
 14 15  1  0  0  0  0
  8 14  1  0  0  0  0
 12 13  1  0  0  0  0
  8 13  1  0  0  0  0
 11 12  2  0  0  0  0
  7  8  1  0  0  0  0
  8  9  1  0  0  0  0
 10 11  1  0  0  0  0
  6  7  2  3  0  0  0
  5  6  1  0  0  0  0
  9 10  2  0  0  0  0
  2  5  1  0  0  0  0
  2  3  2  0  0  0  0
  1  2  1  0  0  0  0
  2  4  2  0  0  0  0
  1 25  1  0  0  0  0
  1 26  1  0  0  0  0
  1 27  1  0  0  0  0
  5 28  1  0  0  0  0
  6 29  1  0  0  0  0
  7 30  1  0  0  0  0
  9 31  1  0  0  0  0
 10 32  1  0  0  0  0
 11 33  1  0  0  0  0
 12 34  1  0  0  0  0
 13 35  1  0  0  0  0
 13 36  1  0  0  0  0
 14 37  1  0  0  0  0
 14 38  1  0  0  0  0
 17 39  1  0  0  0  0
 19 40  1  0  0  0  0
 21 41  1  0  0  0  0
 22 42  1  0  0  0  0
 24 43  1  0  0  0  0
 24 44  1  0  0  0  0
 24 45  1  0  0  0  0
M  END
> <Chemgauss4>
-13.203558

$$$$
