REMARK  8 active torsions:
REMARK  status: ('A' for Active; 'I' for Inactive)
REMARK    1  A    between atoms: S_2  and  N_5 
REMARK    2  A    between atoms: N_5  and  C_7 
REMARK    3  A    between atoms: C_7  and  N_8 
REMARK    4  A    between atoms: N_8  and  C_10 
REMARK    5  A    between atoms: C_10  and  C_13 
REMARK    6  A    between atoms: C_12  and  C_13 
REMARK    7  A    between atoms: C_14  and  C_15 
REMARK       I    between atoms: C_15  and  N_17 
REMARK    8  A    between atoms: N_17  and  C_19 
ROOT
HETATM    1  C   UNL     1      10.112  -1.345  22.954  1.00  0.00     0.045 C 
HETATM    2  C   UNL     1       9.765  -0.417  22.171  1.00  0.00     0.104 C 
ENDROOT
BRANCH   1   3
HETATM    3  N   UNL     1       9.214  -2.012  23.625  1.00  0.00    -0.307 N 
ATOM      4  HN  UNL     1       8.399  -1.400  23.588  1.00  0.00     0.177 HD
BRANCH   3   5
HETATM    5  C   UNL     1       8.841  -2.896  24.226  1.00  0.00     0.063 C 
BRANCH   5   6
HETATM    6  N   UNL     1       8.105  -3.665  24.741  1.00  0.00    -0.222 N 
ATOM      7  HN  UNL     1       7.237  -3.852  24.239  1.00  0.00     0.191 HD
BRANCH   6   8
HETATM    8  S   UNL     1       8.294  -4.457  26.134  1.00  0.00     0.328 S 
HETATM    9 CL   UNL     1       6.488  -4.890  26.521  1.00  0.00     0.042 Cl
HETATM   10  O   UNL     1       8.998  -5.661  25.926  1.00  0.00    -0.188 OA
HETATM   11  O   UNL     1       8.761  -3.630  27.190  1.00  0.00    -0.188 OA
ENDBRANCH   6   8
ENDBRANCH   5   6
ENDBRANCH   3   5
ENDBRANCH   1   3
BRANCH   1  12
HETATM   12  C   UNL     1      11.399  -1.667  22.847  1.00  0.00     0.029 C 
BRANCH  12  13
HETATM   13  C   UNL     1      12.271  -1.078  23.105  1.00  0.00    -0.008 C 
HETATM   14  C   UNL     1      12.430  -0.065  23.938  1.00  0.00     0.011 C 
ENDBRANCH  12  13
ENDBRANCH   1  12
BRANCH   2  15
HETATM   15  C   UNL     1       9.009   0.169  21.236  1.00  0.00     0.247 C 
HETATM   16  O   UNL     1       9.409   1.187  20.747  1.00  0.00    -0.268 OA
HETATM   17  N   UNL     1       7.907  -0.588  21.079  1.00  0.00    -0.322 N 
ATOM     18  HN  UNL     1       7.683  -1.432  21.606  1.00  0.00     0.169 HD
BRANCH  17  19
HETATM   19  C   UNL     1       7.196  -0.073  20.165  1.00  0.00     0.050 A 
HETATM   20  C   UNL     1       7.233   0.006  18.816  1.00  0.00     0.117 A 
HETATM   21  N   UNL     1       6.776   0.359  17.797  1.00  0.00    -0.373 N 
HETATM   22  C   UNL     1       5.695   0.853  18.245  1.00  0.00     0.088 A 
ATOM     23  HN  UNL     1       7.135   0.291  16.845  1.00  0.00     0.164 HD
HETATM   24  C   UNL     1       5.340   0.906  19.408  1.00  0.00     0.019 A 
HETATM   25  C   UNL     1       5.875   0.555  20.526  1.00  0.00     0.032 A 
ENDBRANCH  17  19
ENDBRANCH   2  15
TORSDOF 8
