REMARK  7 active torsions:
REMARK  status: ('A' for Active; 'I' for Inactive)
REMARK    1  A    between atoms: C_3  and  C_4 
REMARK    2  A    between atoms: C_4  and  O_7 
REMARK    3  A    between atoms: C_5  and  C_8 
REMARK    4  A    between atoms: C_5  and  O_7 
REMARK    5  A    between atoms: C_6  and  S_9 
REMARK    6  A    between atoms: C_6  and  C_8 
REMARK    7  A    between atoms: S_9  and  C_11 
ROOT
HETATM    1  C   UNL     1      10.230  -1.508  23.844  1.00  0.00     0.169 C 
ENDROOT
BRANCH   1   2
HETATM    2  C   UNL     1      10.566  -1.046  22.442  1.00  0.00     0.036 C 
BRANCH   2   3
HETATM    3  C   UNL     1       9.858   0.219  22.206  1.00  0.00     0.076 C 
BRANCH   3   4
HETATM    4  S   UNL     1       8.306  -0.427  21.268  1.00  0.00    -0.164 SA
BRANCH   4   5
HETATM    5  C   UNL     1       7.112   0.389  20.256  1.00  0.00     0.047 A 
HETATM    6  C   UNL     1       6.567   0.316  19.086  1.00  0.00     0.016 A 
HETATM    7  C   UNL     1       6.135   1.117  20.582  1.00  0.00     0.016 A 
ENDBRANCH   4   5
ENDBRANCH   3   4
ENDBRANCH   2   3
ENDBRANCH   1   2
BRANCH   1   8
HETATM    8  O   UNL     1      10.545  -2.876  23.897  1.00  0.00    -0.381 OA
BRANCH   8   9
HETATM    9  C   UNL     1       9.596  -3.801  24.529  1.00  0.00     0.280 C 
BRANCH   9  10
HETATM   10  C   UNL     1       8.787  -3.585  25.823  1.00  0.00     0.197 C 
HETATM   11  O   UNL     1       7.839  -4.354  26.092  1.00  0.00    -0.646 OA
HETATM   12  O   UNL     1       9.230  -2.719  26.567  1.00  0.00    -0.646 OA
ENDBRANCH   9  10
ENDBRANCH   8   9
ENDBRANCH   1   8
TORSDOF 7
