stable:False satoms:16 tatoms:24 sratio:0.6666666666666666
  -OEChem-08062406123D

 32 33  0     0  0  0  0  0  0999 V2000
   -6.6366   -3.4961  -27.0894 H   0  0  0  0  0  0  0  0  0  0  0  0
   -7.7217   -3.3921  -26.8477 C   0  0  0  0  0  0  0  0  0  0  0  0
   -8.2328   -4.3382  -27.0961 H   0  0  0  0  0  0  0  0  0  0  0  0
   -8.1602   -2.5787  -27.4666 H   0  0  0  0  0  0  0  0  0  0  0  0
   -7.8337   -3.1470  -25.4384 N   0  3  0  0  0  0  0  0  0  0  0  0
   -8.4782   -2.3039  -24.9117 C   0  0  0  0  0  0  0  0  0  0  0  0
   -8.8867   -1.3390  -24.3410 N   0  3  0  0  0  0  0  0  0  0  0  0
  -11.0302   -0.8783  -23.8128 C   0  0  0  0  0  0  0  0  0  0  0  0
  -11.3022    0.6770  -25.3607 H   0  0  0  0  0  0  0  0  0  0  0  0
  -11.8143    0.0437  -24.6803 C   0  0  0  0  0  0  0  0  0  0  0  0
  -13.0811   -0.1585  -24.4562 N   0  0  0  0  0  0  0  0  0  0  0  0
  -13.1530   -1.2692  -23.7569 N   0  0  0  0  0  0  0  0  0  0  0  0
  -11.9820   -1.7129  -23.4248 N   0  0  0  0  0  0  0  0  0  0  0  0
   -9.6591   -0.8881  -23.4031 C   0  0  0  0  0  0  0  0  0  0  0  0
   -9.1489    0.2543  -21.2788 C   0  0  0  0  0  0  0  0  0  0  0  0
  -10.0512    1.0262  -21.0862 O   0  0  0  0  0  0  0  0  0  0  0  0
   -8.9577   -0.6320  -22.2279 N   0  0  0  0  0  0  0  0  0  0  0  0
   -7.9868    0.2287  -20.2378 C   0  0  0  0  0  0  0  0  0  0  0  0
   -8.2792   -0.1302  -19.0369 N   0  0  0  0  0  0  0  0  0  0  0  0
   -7.3721    0.2038  -18.2045 N   0  0  0  0  0  0  0  0  0  0  0  0
   -5.5284    0.9931  -18.3089 H   0  0  0  0  0  0  0  0  0  0  0  0
   -6.3610    0.7079  -18.9204 C   0  0  0  0  0  0  0  0  0  0  0  0
   -6.6464    0.7065  -20.2659 C   0  0  0  0  0  0  0  0  0  0  0  0
   -6.0677    0.9685  -21.1469 H   0  0  0  0  0  0  0  0  0  0  0  0
   -9.4405   -2.7671  -25.0727 H   0  0  0  0  0  0  0  0  0  0  0  0
  -13.5749   -0.2592  -25.3198 H   0  0  0  0  0  0  0  0  0  0  0  0
  -13.6183   -1.9651  -24.3039 H   0  0  0  0  0  0  0  0  0  0  0  0
  -11.9412   -1.8161  -22.4310 H   0  0  0  0  0  0  0  0  0  0  0  0
   -8.1689   -1.2288  -22.0810 H   0  0  0  0  0  0  0  0  0  0  0  0
   -9.1179   -0.6137  -18.7862 H   0  0  0  0  0  0  0  0  0  0  0  0
   -7.3123   -3.7522  -24.8368 H   0  0  0  0  0  0  0  0  0  0  0  0
   -8.4495   -0.5451  -24.7637 H   0  0  0  0  0  0  0  0  0  0  0  0
 19 20  1  0  0  0  0
 20 22  2  0  0  0  0
 21 22  1  0  0  0  0
 18 19  1  0  0  0  0
 22 23  1  0  0  0  0
 18 23  2  0  0  0  0
 15 18  1  0  0  0  0
 23 24  1  0  0  0  0
 15 16  2  0  0  0  0
 15 17  1  0  0  0  0
 14 17  1  0  0  0  0
 12 13  1  0  0  0  0
  8 13  1  0  0  0  0
 11 12  1  0  0  0  0
  8 14  1  0  0  0  0
  7 14  2  3  0  0  0
  8 10  2  0  0  0  0
 10 11  1  0  0  0  0
  6  7  1  0  0  0  0
  9 10  1  0  0  0  0
  5  6  2  3  0  0  0
  2  5  1  0  0  0  0
  2  3  1  0  0  0  0
  1  2  1  0  0  0  0
  2  4  1  0  0  0  0
  6 25  1  0  0  0  0
 11 26  1  0  0  0  0
 12 27  1  0  0  0  0
 13 28  1  0  0  0  0
 17 29  1  0  0  0  0
 19 30  1  0  0  0  0
  5 31  1  0  0  0  0
  7 32  1  0  0  0  0
M  CHG  2   5   1   7   1
M  END
> <Chemgauss4>
-11.160748

$$$$
