stable:False satoms:16 tatoms:24 sratio:0.6666666666666666
  -OEChem-08062406123D

 32 33  0     0  0  0  0  0  0999 V2000
    7.0891   -4.7999   26.6155 H   0  0  0  0  0  0  0  0  0  0  0  0
    8.1449   -4.4804   26.4430 C   0  0  0  0  0  0  0  0  0  0  0  0
    8.8094   -5.3450   26.6126 H   0  0  0  0  0  0  0  0  0  0  0  0
    8.4106   -3.6808   27.1690 H   0  0  0  0  0  0  0  0  0  0  0  0
    8.2553   -4.0566   25.0767 N   0  3  0  0  0  0  0  0  0  0  0  0
    8.7542   -3.0581   24.6793 C   0  0  0  0  0  0  0  0  0  0  0  0
    9.0005   -1.9767   24.2394 N   0  3  0  0  0  0  0  0  0  0  0  0
   11.0420   -1.0900   23.8763 C   0  0  0  0  0  0  0  0  0  0  0  0
   10.9816    0.2973   25.5969 H   0  0  0  0  0  0  0  0  0  0  0  0
   11.6201   -0.1529   24.8788 C   0  0  0  0  0  0  0  0  0  0  0  0
   12.9091   -0.1030   24.6996 N   0  0  0  0  0  0  0  0  0  0  0  0
   13.2012   -1.0947   23.8877 N   0  0  0  0  0  0  0  0  0  0  0  0
   12.1399   -1.6944   23.4491 N   0  0  0  0  0  0  0  0  0  0  0  0
    9.7085   -1.2914   23.3977 C   0  0  0  0  0  0  0  0  0  0  0  0
    9.0685   -0.0156   21.3875 C   0  0  0  0  0  0  0  0  0  0  0  0
    9.8231    0.9192   21.3273 O   0  0  0  0  0  0  0  0  0  0  0  0
    9.0098   -1.0264   22.2229 N   0  0  0  0  0  0  0  0  0  0  0  0
    7.9632   -0.1222   20.2912 C   0  0  0  0  0  0  0  0  0  0  0  0
    8.3528   -0.2818   19.0751 N   0  0  0  0  0  0  0  0  0  0  0  0
    7.4271   -0.0165   18.2384 N   0  0  0  0  0  0  0  0  0  0  0  0
    5.4693    0.4207   18.3330 H   0  0  0  0  0  0  0  0  0  0  0  0
    6.3199    0.2159   18.9518 C   0  0  0  0  0  0  0  0  0  0  0  0
    6.5585    0.1074   20.3021 C   0  0  0  0  0  0  0  0  0  0  0  0
    5.9149    0.1595   21.1754 H   0  0  0  0  0  0  0  0  0  0  0  0
    9.7784   -3.3616   24.8382 H   0  0  0  0  0  0  0  0  0  0  0  0
   13.3856   -0.2160   25.5715 H   0  0  0  0  0  0  0  0  0  0  0  0
   13.7664   -1.7576   24.3788 H   0  0  0  0  0  0  0  0  0  0  0  0
   12.1495   -1.6863   22.4492 H   0  0  0  0  0  0  0  0  0  0  0  0
    8.3459   -1.7306   21.9710 H   0  0  0  0  0  0  0  0  0  0  0  0
    9.2721   -0.5785   18.8167 H   0  0  0  0  0  0  0  0  0  0  0  0
    7.8702   -4.6691   24.3864 H   0  0  0  0  0  0  0  0  0  0  0  0
    8.4148   -1.3263   24.7232 H   0  0  0  0  0  0  0  0  0  0  0  0
 19 20  1  0  0  0  0
 20 22  2  0  0  0  0
 21 22  1  0  0  0  0
 18 19  1  0  0  0  0
 22 23  1  0  0  0  0
 18 23  2  0  0  0  0
 15 18  1  0  0  0  0
 23 24  1  0  0  0  0
 15 16  2  0  0  0  0
 15 17  1  0  0  0  0
 14 17  1  0  0  0  0
 12 13  1  0  0  0  0
  8 13  1  0  0  0  0
 11 12  1  0  0  0  0
  8 14  1  0  0  0  0
  7 14  2  3  0  0  0
  8 10  2  0  0  0  0
 10 11  1  0  0  0  0
  6  7  1  0  0  0  0
  9 10  1  0  0  0  0
  5  6  2  3  0  0  0
  2  5  1  0  0  0  0
  2  3  1  0  0  0  0
  1  2  1  0  0  0  0
  2  4  1  0  0  0  0
  6 25  1  0  0  0  0
 11 26  1  0  0  0  0
 12 27  1  0  0  0  0
 13 28  1  0  0  0  0
 17 29  1  0  0  0  0
 19 30  1  0  0  0  0
  5 31  1  0  0  0  0
  7 32  1  0  0  0  0
M  CHG  2   5   1   7   1
M  END
> <Chemgauss4>
-10.927842

$$$$
