stable:False satoms:8 tatoms:24 sratio:0.3333333333333333
  -OEChem-07092417403D

 24 26  0     1  0  0  0  0  0999 V2000
    6.7915   -4.9206   26.4407 O   0  0  0  0  0  0  0  0  0  0  0  0
    8.1740   -4.4479   26.1145 S   0  0  0  0  0  0  0  0  0  0  0  0
    9.0529   -5.5733   25.9195 O   0  0  0  0  0  0  0  0  0  0  0  0
    8.6643   -3.5521   27.1150 O   0  5  0  0  0  0  0  0  0  0  0  0
    8.0577   -3.6878   24.6806 N   0  0  0  0  0  0  0  0  0  0  0  0
    8.9013   -2.9444   24.1922 C   0  0  0  0  0  0  0  0  0  0  0  0
    9.4629   -2.1786   23.6737 C   0  0  0  0  0  0  0  0  0  0  0  0
   10.2221   -1.4440   22.9702 C   0  0  0  0  0  0  0  0  0  0  0  0
   11.5360    0.4291   24.4929 H   0  0  0  0  0  0  0  0  0  0  0  0
   12.3023    0.0724   23.9761 C   0  5  3  0  0  0  0  0  0  0  0  0
   13.2843   -0.0845   23.5974 C   0  0  0  0  0  0  0  0  0  0  0  0
   12.4449   -1.0156   23.0009 C   0  0  1  0  0  0  0  0  0  0  0  0
   11.5300   -1.6532   22.7220 C   0  0  0  0  0  0  0  0  0  0  0  0
    9.7659   -0.4236   22.2791 C   0  0  0  0  0  0  0  0  0  0  0  0
    8.9999    0.1663   21.3541 C   0  0  0  0  0  0  0  0  0  0  0  0
    9.4509    1.1131   20.7786 O   0  0  0  0  0  0  0  0  0  0  0  0
    7.8325   -0.4642   21.2143 N   0  0  0  0  0  0  0  0  0  0  0  0
    7.1329   -0.0132   20.2411 C   0  0  0  0  0  0  0  0  0  0  0  0
    7.1219    0.0304   18.9381 C   0  0  0  0  0  0  0  0  0  0  0  0
    6.7452    0.2933   17.8294 N   0  0  0  0  0  0  0  0  0  0  0  0
    5.6897    0.7894   18.3023 C   0  0  0  0  0  0  0  0  0  0  0  0
    5.2230    0.9382   19.4213 C   0  0  0  0  0  0  0  0  0  0  0  0
    5.7781    0.5988   20.5366 C   0  0  0  0  0  0  0  0  0  0  0  0
    5.4197    0.6820   21.5059 H   0  0  0  0  0  0  0  0  0  0  0  0
 20 21  2  0  0  0  0
 19 20  1  0  0  0  0
 19 21  1  0  0  0  0
 21 22  1  0  0  0  0
 18 19  2  0  0  0  0
 22 23  2  0  0  0  0
 18 23  1  0  0  0  0
 17 18  1  0  0  0  0
 23 24  1  0  0  0  0
 15 16  2  0  0  0  0
 15 17  1  0  0  0  0
 14 15  1  0  0  0  0
  8 14  2  3  0  0  0
  8 13  1  0  0  0  0
 12 13  1  0  0  0  0
  7  8  1  0  0  0  0
 11 12  1  0  0  0  0
 10 12  1  0  0  0  0
 10 11  1  0  0  0  0
  6  7  3  0  0  0  0
  9 10  1  0  0  0  0
  5  6  1  0  0  0  0
  2  5  1  0  0  0  0
  2  3  2  0  0  0  0
  1  2  2  0  0  0  0
  2  4  1  0  0  0  0
M  CHG  2   4  -1  10  -1
M  END
> <Shapegauss>
-269.799927

$$$$
