REMARK  7 active torsions:
REMARK  status: ('A' for Active; 'I' for Inactive)
REMARK    1  A    between atoms: S_2  and  N_5 
REMARK    2  A    between atoms: N_5  and  C_7 
REMARK    3  A    between atoms: C_8  and  C_9 
REMARK    4  A    between atoms: C_9  and  C_13 
REMARK    5  A    between atoms: C_12  and  C_13 
REMARK    6  A    between atoms: C_14  and  C_15 
REMARK       I    between atoms: C_15  and  N_17 
REMARK    7  A    between atoms: N_17  and  C_19 
ROOT
HETATM    1  C   UNL     1      10.222  -1.444  22.970  1.00  0.00     0.021 C 
HETATM    2  C   UNL     1       9.766  -0.424  22.279  1.00  0.00     0.094 C 
ENDROOT
BRANCH   1   3
HETATM    3  C   UNL     1       9.463  -2.179  23.674  1.00  0.00    -0.043 C 
HETATM    4  C   UNL     1       8.901  -2.944  24.192  1.00  0.00     0.028 C 
BRANCH   4   5
HETATM    5  N   UNL     1       8.058  -3.688  24.681  1.00  0.00    -0.223 N 
ATOM      6  HN  UNL     1       7.207  -3.844  24.140  1.00  0.00     0.192 HD
BRANCH   5   7
HETATM    7  S   UNL     1       8.174  -4.448  26.114  1.00  0.00     0.216 S 
HETATM    8  O   UNL     1       6.792  -4.921  26.441  1.00  0.00    -0.577 OA
HETATM    9  O   UNL     1       9.053  -5.573  25.919  1.00  0.00    -0.577 OA
HETATM   10  O   UNL     1       8.664  -3.552  27.115  1.00  0.00    -0.577 OA
ENDBRANCH   5   7
ENDBRANCH   4   5
ENDBRANCH   1   3
BRANCH   1  11
HETATM   11  C   UNL     1      11.530  -1.653  22.722  1.00  0.00     0.006 C 
BRANCH  11  12
HETATM   12  C   UNL     1      12.445  -1.016  23.001  1.00  0.00     0.054 A 
HETATM   13  C   UNL     1      12.302   0.072  23.976  1.00  0.00    -0.017 A 
HETATM   14  C   UNL     1      13.284  -0.085  23.597  1.00  0.00    -0.017 A 
ENDBRANCH  11  12
ENDBRANCH   1  11
BRANCH   2  15
HETATM   15  C   UNL     1       9.000   0.166  21.354  1.00  0.00     0.246 C 
HETATM   16  O   UNL     1       9.451   1.113  20.779  1.00  0.00    -0.268 OA
HETATM   17  N   UNL     1       7.832  -0.464  21.214  1.00  0.00    -0.325 N 
ATOM     18  HN  UNL     1       7.528  -1.226  21.820  1.00  0.00     0.169 HD
BRANCH  17  19
HETATM   19  C   UNL     1       7.133  -0.013  20.241  1.00  0.00     0.036 A 
HETATM   20  C   UNL     1       7.122   0.030  18.938  1.00  0.00     0.153 A 
HETATM   21  N   UNL     1       6.745   0.293  17.829  1.00  0.00    -0.400 N 
HETATM   22  C   UNL     1       5.690   0.789  18.302  1.00  0.00     0.129 A 
ATOM     23  HN  UNL     1       7.124   0.167  16.890  1.00  0.00     0.154 HD
HETATM   24  C   UNL     1       5.223   0.938  19.421  1.00  0.00     0.002 A 
HETATM   25  C   UNL     1       5.778   0.599  20.537  1.00  0.00     0.025 A 
ENDBRANCH  17  19
ENDBRANCH   2  15
TORSDOF 7
