stable:False satoms:14 tatoms:24 sratio:0.5833333333333334
  -OEChem-07092417353D

 24 24  0     0  0  0  0  0  0999 V2000
    5.9612   -3.3884   24.8122 Cl  0  5  0  0  0  0  0  0  0  0  0  0
    8.7784   -3.4598   25.6762 N   0  0  0  0  0  0  0  0  0  0  0  0
    8.2938   -4.5416   25.7498 O   0  0  0  0  0  0  0  0  0  0  0  0
    9.5278   -3.1227   26.5364 O   0  0  0  0  0  0  0  0  0  0  0  0
    8.5362   -2.4744   24.6266 C   0  0  0  0  0  0  0  0  0  0  0  0
   10.7241   -1.7082   24.9082 O   0  0  0  0  0  0  0  0  0  0  0  0
    8.7472   -0.8917   22.3720 C   0  0  0  0  0  0  0  0  0  0  0  0
    9.9350   -0.6160   20.7572 H   0  0  0  0  0  0  0  0  0  0  0  0
    9.6642   -1.6570   24.2682 C   0  0  0  0  0  0  0  0  0  0  0  0
   11.7093   -0.9166   24.2245 C   0  0  0  0  0  0  0  0  0  0  0  0
   12.5982   -0.5829   24.7164 H   0  0  0  0  0  0  0  0  0  0  0  0
   11.8224   -0.5183   22.1256 H   0  0  0  0  0  0  0  0  0  0  0  0
   11.2543   -0.7331   23.0128 C   0  0  0  0  0  0  0  0  0  0  0  0
    7.6265   -1.4379   22.6505 N   0  0  0  0  0  0  0  0  0  0  0  0
    9.8367   -0.9430   23.1004 N   0  3  0  0  0  0  0  0  0  0  0  0
    9.2915    0.9375   21.2881 H   0  0  0  0  0  0  0  0  0  0  0  0
    9.0209   -0.1160   21.1054 C   0  0  0  0  0  0  0  0  0  0  0  0
    7.9187   -0.0687   20.3381 C   0  0  0  0  0  0  0  0  0  0  0  0
    6.0464   -0.8477   18.7891 H   0  0  0  0  0  0  0  0  0  0  0  0
    6.7254    0.6430   18.1784 H   0  0  0  0  0  0  0  0  0  0  0  0
    5.1909    0.7115   19.0422 H   0  0  0  0  0  0  0  0  0  0  0  0
    6.1431    0.2109   18.9969 C   0  0  0  0  0  0  0  0  0  0  0  0
    6.7690    0.3351   20.2628 O   0  0  0  0  0  0  0  0  0  0  0  0
    7.4629   -2.1041   23.7588 C   0  0  0  0  0  0  0  0  0  0  0  0
 20 22  1  0  0  0  0
 19 22  1  0  0  0  0
 21 22  1  0  0  0  0
 22 23  1  0  0  0  0
 18 23  1  0  0  0  0
 17 18  1  0  0  0  0
  8 17  1  0  0  0  0
 16 17  1  0  0  0  0
  7 17  1  0  0  0  0
 12 13  1  0  0  0  0
  7 14  2  0  0  0  0
  7 15  1  0  0  0  0
 14 24  1  0  0  0  0
 13 15  1  0  0  0  0
 10 13  2  0  0  0  0
  9 15  2  0  0  0  0
  5 24  2  0  0  0  0
 10 11  1  0  0  0  0
  6 10  1  0  0  0  0
  5  9  1  0  0  0  0
  6  9  1  0  0  0  0
  2  5  1  0  0  0  0
  2  3  2  0  0  0  0
  2  4  2  0  0  0  0
M  CHG  2   1  -1  15   1
M  END
> <Shapegauss>
-168.541458

$$$$
