stable:False satoms:22 tatoms:24 sratio:0.9166666666666666
  -OEChem-07092417323D

 24 24  0     1  0  0  0  0  0999 V2000
    7.6249   -3.0535   25.9748 H   0  0  0  0  0  0  0  0  0  0  0  0
    8.1656   -2.7779   25.1523 N   0  0  0  0  0  0  0  0  0  0  0  0
    8.7354   -3.2184   22.8487 H   0  0  0  0  0  0  0  0  0  0  0  0
    9.9767   -3.6569   25.8612 O   0  0  0  0  0  0  0  0  0  0  0  0
    8.8373   -2.1662   22.5925 C   0  0  0  0  0  0  0  0  0  0  0  0
    7.7223   -1.0310   23.2303 S   0  0  0  0  0  0  0  0  0  0  0  0
    9.7345   -1.7266   21.6924 C   0  0  0  0  0  0  0  0  0  0  0  0
    7.6110   -2.8798   24.3143 H   0  0  0  0  0  0  0  0  0  0  0  0
   10.7886   -2.0333   24.4065 C   0  0  0  0  0  0  0  0  0  0  0  0
   10.5577   -1.0362   24.0357 H   0  0  0  0  0  0  0  0  0  0  0  0
   11.5073   -1.9007   25.2138 H   0  0  0  0  0  0  0  0  0  0  0  0
   11.2860   -2.6180   23.6502 H   0  0  0  0  0  0  0  0  0  0  0  0
    9.6882   -1.3738   19.7301 H   0  0  0  0  0  0  0  0  0  0  0  0
   10.7846   -1.8981   21.7797 H   0  0  0  0  0  0  0  0  0  0  0  0
    8.3155   -0.1295   20.7061 C   0  0  0  0  0  0  0  0  0  0  0  0
    7.5647    0.0668   21.8492 C   0  0  0  0  0  0  0  0  0  0  0  0
    9.5656   -2.8594   25.0627 C   0  0  0  0  0  0  0  0  0  0  0  0
    7.8641    0.7759   19.7529 C   0  0  0  0  0  0  0  0  0  0  0  0
    6.7991    1.4585   20.2963 C   0  5  3  0  0  0  0  0  0  0  0  0
    9.3297   -1.0308   20.5989 N   0  0  0  0  0  0  0  0  0  0  0  0
    6.1466    2.1563   19.7652 H   0  0  0  0  0  0  0  0  0  0  0  0
    8.2788    0.9635   18.7878 H   0  0  0  0  0  0  0  0  0  0  0  0
    6.6845    1.1213   21.6359 C   0  0  0  0  0  0  0  0  0  0  0  0
    6.0154    1.5576   22.3591 H   0  0  0  0  0  0  0  0  0  0  0  0
 18 22  1  0  0  0  0
 13 20  1  0  0  0  0
 18 19  1  0  0  0  0
 15 18  2  0  0  0  0
 19 21  1  0  0  0  0
 19 23  1  0  0  0  0
 15 20  1  0  0  0  0
  7 20  1  0  0  0  0
 15 16  1  0  0  0  0
 16 23  2  0  0  0  0
 23 24  1  0  0  0  0
  7 14  1  0  0  0  0
  5  7  2  0  0  0  0
  6 16  1  0  0  0  0
  3  5  1  0  0  0  0
  5  6  1  0  0  0  0
  9 12  1  0  0  0  0
  9 10  1  0  0  0  0
  2  8  1  0  0  0  0
  9 17  1  0  0  0  0
  9 11  1  0  0  0  0
  2 17  1  0  0  0  0
  4 17  2  0  0  0  0
  1  2  1  0  0  0  0
M  CHG  1  19  -1
M  END
> <Shapegauss>
-115.583900

$$$$
