REMARK  0 active torsions:
REMARK  status: ('A' for Active; 'I' for Inactive)
REMARK       I    between atoms: N_2  and  C_6 
ROOT
HETATM    1  H   UNL     1       7.625  -3.054  25.975  1.00  0.00     0.159 HD
HETATM    2  N   UNL     1       8.166  -2.778  25.152  1.00  0.00    -0.370 N 
HETATM    3  O   UNL     1       9.977  -3.657  25.861  1.00  0.00    -0.274 OA
HETATM    4  H   UNL     1       7.611  -2.880  24.314  1.00  0.00     0.159 HD
HETATM    5  C   UNL     1      10.789  -2.033  24.407  1.00  0.00     0.117 C 
HETATM    6  C   UNL     1       9.566  -2.859  25.063  1.00  0.00     0.211 C 
ENDROOT
TORSDOF 0
