REMARK  4 active torsions:
REMARK  status: ('A' for Active; 'I' for Inactive)
REMARK    1  A    between atoms: S_2  and  N_5 
REMARK    2  A    between atoms: N_5  and  C_7 
REMARK    3  A    between atoms: C_7  and  C_8 
REMARK    4  A    between atoms: C_16  and  C_17 
REMARK       I    between atoms: C_17  and  N_19 
ROOT
HETATM    1  C   UNL     1       9.424  -1.841  23.464  1.00  0.00     0.041 A 
HETATM    2  C   UNL     1      10.574  -1.079  23.243  1.00  0.00     0.080 A 
HETATM    3  C   UNL     1      11.316  -0.248  24.185  1.00  0.00     0.085 C 
HETATM    4  N   UNL     1      12.293   0.211  24.328  1.00  0.00    -0.377 N 
ATOM      5  HN  UNL     1      12.530   0.937  25.004  1.00  0.00     0.164 HD
HETATM    6  C   UNL     1      13.056  -0.312  23.519  1.00  0.00     0.087 C 
HETATM    7  C   UNL     1      12.927  -1.224  22.741  1.00  0.00     0.015 C 
HETATM    8  C   UNL     1      11.898  -1.500  22.724  1.00  0.00     0.000 C 
HETATM    9  C   UNL     1       9.602  -0.819  22.576  1.00  0.00     0.050 A 
ENDROOT
BRANCH   9  10
HETATM   10  C   UNL     1       8.969  -0.003  21.377  1.00  0.00     0.255 C 
HETATM   11  O   UNL     1       9.572   0.928  20.954  1.00  0.00    -0.268 OA
HETATM   12  N   UNL     1       7.878  -0.570  21.072  1.00  0.00    -0.323 N 
HETATM   13  C   UNL     1       7.070  -0.010  20.155  1.00  0.00     0.053 A 
ATOM     14  HN  UNL     1       7.614  -1.447  21.520  1.00  0.00     0.169 HD
HETATM   15  C   UNL     1       6.968   0.119  18.865  1.00  0.00     0.172 A 
HETATM   16  C   UNL     1       5.757   0.607  20.412  1.00  0.00     0.112 A 
HETATM   17  N   UNL     1       6.534   0.337  17.752  1.00  0.00    -0.387 N 
HETATM   18  C   UNL     1       5.621   0.783  18.416  1.00  0.00     0.206 A 
ATOM     19  HN  UNL     1       6.798   0.212  16.775  1.00  0.00     0.156 HD
HETATM   20  N   UNL     1       5.011   1.068  19.472  1.00  0.00    -0.374 N 
ATOM     21  HN  UNL     1       4.121   1.557  19.565  1.00  0.00     0.161 HD
ENDBRANCH   9  10
BRANCH   1  22
HETATM   22  C   UNL     1       8.853  -2.813  24.132  1.00  0.00    -0.021 C 
BRANCH  22  23
HETATM   23  N   UNL     1       8.137  -3.564  24.655  1.00  0.00    -0.236 N 
ATOM     24  HN  UNL     1       7.290  -3.801  24.138  1.00  0.00     0.189 HD
BRANCH  23  25
HETATM   25  S   UNL     1       8.307  -4.296  26.119  1.00  0.00     0.327 S 
HETATM   26 CL   UNL     1       6.584  -4.814  26.602  1.00  0.00     0.042 Cl
HETATM   27  O   UNL     1       9.057  -5.498  25.966  1.00  0.00    -0.188 OA
HETATM   28  O   UNL     1       8.759  -3.392  27.126  1.00  0.00    -0.188 OA
ENDBRANCH  23  25
ENDBRANCH  22  23
ENDBRANCH   1  22
TORSDOF 4
