MODEL 1
REMARK VINA RESULT:    -7.848      0.000      0.000
REMARK INTER + INTRA:         -10.286
REMARK INTER:                  -9.683
REMARK INTRA:                  -0.603
REMARK UNBOUND:                -0.603
REMARK  4 active torsions:
REMARK  status: ('A' for Active; 'I' for Inactive)
REMARK    1  A    between atoms: S_2  and  N_5 
REMARK    2  A    between atoms: N_5  and  C_7 
REMARK    3  A    between atoms: C_7  and  C_8 
REMARK    4  A    between atoms: C_16  and  C_17 
REMARK       I    between atoms: C_17  and  N_19 
ROOT
HETATM    1  C   UNL     1       9.536  -0.980  22.639  1.00  0.00     0.041 A 
HETATM    2  C   UNL     1      10.698  -0.945  23.413  1.00  0.00     0.080 A 
HETATM    3  C   UNL     1      11.995  -1.557  23.145  1.00  0.00     0.085 C 
HETATM    4  N   UNL     1      13.044  -1.488  23.429  1.00  0.00    -0.377 N 
ATOM      5  HN  UNL     1      13.771  -2.177  23.241  1.00  0.00     0.164 HD
HETATM    6  C   UNL     1      13.184  -0.419  24.020  1.00  0.00     0.087 C 
HETATM    7  C   UNL     1      12.441   0.507  24.228  1.00  0.00     0.015 C 
HETATM    8  C   UNL     1      11.463   0.223  23.912  1.00  0.00     0.000 C 
HETATM    9  C   UNL     1       9.708  -1.414  23.922  1.00  0.00     0.050 A 
ENDROOT
BRANCH   9  10
HETATM   10  C   UNL     1       8.999  -1.981  25.217  1.00  0.00     0.255 C 
HETATM   11  O   UNL     1       8.967  -1.293  26.185  1.00  0.00    -0.268 OA
HETATM   12  N   UNL     1       8.551  -3.130  24.927  1.00  0.00    -0.323 N 
HETATM   13  C   UNL     1       8.001  -3.893  25.888  1.00  0.00     0.053 A 
ATOM     14  HN  UNL     1       8.608  -3.475  23.969  1.00  0.00     0.169 HD
HETATM   15  C   UNL     1       6.891  -4.005  26.556  1.00  0.00     0.172 A 
HETATM   16  C   UNL     1       8.570  -5.130  26.450  1.00  0.00     0.112 A 
HETATM   17  N   UNL     1       5.998  -4.434  27.258  1.00  0.00    -0.387 N 
HETATM   18  C   UNL     1       6.841  -5.284  27.460  1.00  0.00     0.206 A 
ATOM     19  HN  UNL     1       5.044  -4.202  27.533  1.00  0.00     0.156 HD
HETATM   20  N   UNL     1       7.954  -5.842  27.325  1.00  0.00    -0.374 N 
ATOM     21  HN  UNL     1       8.295  -6.675  27.804  1.00  0.00     0.161 HD
ENDBRANCH   9  10
BRANCH   1  22
HETATM   22  C   UNL     1       8.962  -0.708  21.492  1.00  0.00    -0.021 C 
BRANCH  22  23
HETATM   23  N   UNL     1       8.657  -0.331  20.436  1.00  0.00    -0.236 N 
ATOM     24  HN  UNL     1       9.406  -0.296  19.745  1.00  0.00     0.189 HD
BRANCH  23  25
HETATM   25  S   UNL     1       7.176   0.153  19.907  1.00  0.00     0.327 S 
HETATM   26 CL   UNL     1       6.723   1.596  20.995  1.00  0.00     0.042 Cl
HETATM   27  O   UNL     1       7.289   0.670  18.584  1.00  0.00    -0.188 OA
HETATM   28  O   UNL     1       6.176  -0.843  20.114  1.00  0.00    -0.188 OA
ENDBRANCH  23  25
ENDBRANCH  22  23
ENDBRANCH   1  22
TORSDOF 4
ENDMDL
MODEL 2
REMARK VINA RESULT:    -7.818      3.386      6.253
REMARK INTER + INTRA:         -10.249
REMARK INTER:                  -9.506
REMARK INTRA:                  -0.743
REMARK UNBOUND:                -0.603
REMARK  4 active torsions:
REMARK  status: ('A' for Active; 'I' for Inactive)
REMARK    1  A    between atoms: S_2  and  N_5 
REMARK    2  A    between atoms: N_5  and  C_7 
REMARK    3  A    between atoms: C_7  and  C_8 
REMARK    4  A    between atoms: C_16  and  C_17 
REMARK       I    between atoms: C_17  and  N_19 
ROOT
HETATM    1  C   UNL     1       8.987  -2.059  23.283  1.00  0.00     0.041 A 
HETATM    2  C   UNL     1       9.871  -1.014  23.563  1.00  0.00     0.080 A 
HETATM    3  C   UNL     1       9.999  -0.227  24.785  1.00  0.00     0.085 C 
HETATM    4  N   UNL     1      10.700   0.418  25.312  1.00  0.00    -0.377 N 
ATOM      5  HN  UNL     1      10.487   1.035  26.096  1.00  0.00     0.164 HD
HETATM    6  C   UNL     1      11.798   0.260  24.782  1.00  0.00     0.087 C 
HETATM    7  C   UNL     1      12.195  -0.488  23.924  1.00  0.00     0.015 C 
HETATM    8  C   UNL     1      11.353  -0.995  23.514  1.00  0.00     0.000 C 
HETATM    9  C   UNL     1       9.129  -0.873  22.622  1.00  0.00     0.050 A 
ENDROOT
BRANCH   9  10
HETATM   10  C   UNL     1       8.698  -0.018  21.362  1.00  0.00     0.255 C 
HETATM   11  O   UNL     1       9.484   0.749  20.911  1.00  0.00    -0.268 OA
HETATM   12  N   UNL     1       7.523  -0.374  21.051  1.00  0.00    -0.323 N 
HETATM   13  C   UNL     1       6.863   0.282  20.080  1.00  0.00     0.053 A 
ATOM     14  HN  UNL     1       7.079  -1.154  21.535  1.00  0.00     0.169 HD
HETATM   15  C   UNL     1       6.817   0.354  18.782  1.00  0.00     0.172 A 
HETATM   16  C   UNL     1       5.695   1.161  20.261  1.00  0.00     0.112 A 
HETATM   17  N   UNL     1       6.460   0.589  17.646  1.00  0.00    -0.387 N 
HETATM   18  C   UNL     1       5.640   1.245  18.255  1.00  0.00     0.206 A 
ATOM     19  HN  UNL     1       6.715   0.358  16.686  1.00  0.00     0.156 HD
HETATM   20  N   UNL     1       5.077   1.706  19.274  1.00  0.00    -0.374 N 
ATOM     21  HN  UNL     1       4.301   2.366  19.312  1.00  0.00     0.161 HD
ENDBRANCH   9  10
BRANCH   1  22
HETATM   22  C   UNL     1       8.545  -3.250  23.604  1.00  0.00    -0.021 C 
BRANCH  22  23
HETATM   23  N   UNL     1       8.224  -4.366  23.660  1.00  0.00    -0.236 N 
ATOM     24  HN  UNL     1       8.813  -4.968  24.234  1.00  0.00     0.189 HD
BRANCH  23  25
HETATM   25  S   UNL     1       6.944  -5.103  22.934  1.00  0.00     0.327 S 
HETATM   26 CL   UNL     1       6.081  -3.751  21.987  1.00  0.00     0.042 Cl
HETATM   27  O   UNL     1       7.418  -6.031  21.962  1.00  0.00    -0.188 OA
HETATM   28  O   UNL     1       6.002  -5.605  23.880  1.00  0.00    -0.188 OA
ENDBRANCH  23  25
ENDBRANCH  22  23
ENDBRANCH   1  22
TORSDOF 4
ENDMDL
MODEL 3
REMARK VINA RESULT:    -7.786      4.247      7.401
REMARK INTER + INTRA:         -10.210
REMARK INTER:                  -9.449
REMARK INTRA:                  -0.761
REMARK UNBOUND:                -0.603
REMARK  4 active torsions:
REMARK  status: ('A' for Active; 'I' for Inactive)
REMARK    1  A    between atoms: S_2  and  N_5 
REMARK    2  A    between atoms: N_5  and  C_7 
REMARK    3  A    between atoms: C_7  and  C_8 
REMARK    4  A    between atoms: C_16  and  C_17 
REMARK       I    between atoms: C_17  and  N_19 
ROOT
HETATM    1  C   UNL     1       8.098  -4.584  24.904  1.00  0.00     0.041 A 
HETATM    2  C   UNL     1       7.491  -4.617  23.646  1.00  0.00     0.080 A 
HETATM    3  C   UNL     1       7.534  -5.670  22.638  1.00  0.00     0.085 C 
HETATM    4  N   UNL     1       7.000  -6.028  21.758  1.00  0.00    -0.377 N 
ATOM      5  HN  UNL     1       7.341  -6.704  21.075  1.00  0.00     0.164 HD
HETATM    6  C   UNL     1       5.910  -5.462  21.746  1.00  0.00     0.087 C 
HETATM    7  C   UNL     1       5.360  -4.724  22.525  1.00  0.00     0.015 C 
HETATM    8  C   UNL     1       6.061  -4.465  23.285  1.00  0.00     0.000 C 
HETATM    9  C   UNL     1       8.266  -3.717  23.863  1.00  0.00     0.050 A 
ENDROOT
BRANCH   9  10
HETATM   10  C   UNL     1       8.922  -2.358  23.384  1.00  0.00     0.255 C 
HETATM   11  O   UNL     1       8.686  -1.981  22.284  1.00  0.00    -0.268 OA
HETATM   12  N   UNL     1       9.593  -1.903  24.357  1.00  0.00    -0.323 N 
HETATM   13  C   UNL     1      10.355  -0.809  24.186  1.00  0.00     0.053 A 
ATOM     14  HN  UNL     1       9.555  -2.364  25.266  1.00  0.00     0.169 HD
HETATM   15  C   UNL     1      10.237   0.484  24.106  1.00  0.00     0.172 A 
HETATM   16  C   UNL     1      11.828  -0.765  24.183  1.00  0.00     0.112 A 
HETATM   17  N   UNL     1      10.485   1.672  24.087  1.00  0.00    -0.387 N 
HETATM   18  C   UNL     1      11.615   1.229  24.071  1.00  0.00     0.206 A 
ATOM     19  HN  UNL     1      10.001   2.569  24.084  1.00  0.00     0.156 HD
HETATM   20  N   UNL     1      12.489   0.332  24.075  1.00  0.00    -0.374 N 
ATOM     21  HN  UNL     1      13.500   0.447  24.008  1.00  0.00     0.161 HD
ENDBRANCH   9  10
BRANCH   1  22
HETATM   22  C   UNL     1       8.226  -5.137  26.085  1.00  0.00    -0.021 C 
BRANCH  22  23
HETATM   23  N   UNL     1       8.112  -5.715  27.087  1.00  0.00    -0.236 N 
ATOM     24  HN  UNL     1       8.964  -6.145  27.448  1.00  0.00     0.189 HD
BRANCH  23  25
HETATM   25  S   UNL     1       6.761  -5.932  28.001  1.00  0.00     0.327 S 
HETATM   26 CL   UNL     1       5.444  -6.461  26.794  1.00  0.00     0.042 Cl
HETATM   27  O   UNL     1       6.956  -7.031  28.886  1.00  0.00    -0.188 OA
HETATM   28  O   UNL     1       6.308  -4.716  28.593  1.00  0.00    -0.188 OA
ENDBRANCH  23  25
ENDBRANCH  22  23
ENDBRANCH   1  22
TORSDOF 4
ENDMDL
MODEL 4
REMARK VINA RESULT:    -7.381      3.445      6.589
REMARK INTER + INTRA:          -9.710
REMARK INTER:                  -9.130
REMARK INTRA:                  -0.580
REMARK UNBOUND:                -0.603
REMARK  4 active torsions:
REMARK  status: ('A' for Active; 'I' for Inactive)
REMARK    1  A    between atoms: S_2  and  N_5 
REMARK    2  A    between atoms: N_5  and  C_7 
REMARK    3  A    between atoms: C_7  and  C_8 
REMARK    4  A    between atoms: C_16  and  C_17 
REMARK       I    between atoms: C_17  and  N_19 
ROOT
HETATM    1  C   UNL     1       8.700  -1.312  23.876  1.00  0.00     0.041 A 
HETATM    2  C   UNL     1       9.975  -0.785  23.653  1.00  0.00     0.080 A 
HETATM    3  C   UNL     1      10.796   0.031  24.541  1.00  0.00     0.085 C 
HETATM    4  N   UNL     1      11.828   0.338  24.702  1.00  0.00    -0.377 N 
ATOM      5  HN  UNL     1      12.149   1.099  25.300  1.00  0.00     0.164 HD
HETATM    6  C   UNL     1      12.533  -0.406  24.024  1.00  0.00     0.087 C 
HETATM    7  C   UNL     1      12.291  -1.380  23.355  1.00  0.00     0.015 C 
HETATM    8  C   UNL     1      11.233  -1.483  23.293  1.00  0.00     0.000 C 
HETATM    9  C   UNL     1       9.100  -0.461  22.886  1.00  0.00     0.050 A 
ENDROOT
BRANCH   9  10
HETATM   10  C   UNL     1       8.685   0.281  21.551  1.00  0.00     0.255 C 
HETATM   11  O   UNL     1       9.462   1.035  21.066  1.00  0.00    -0.268 OA
HETATM   12  N   UNL     1       7.531  -0.135  21.235  1.00  0.00    -0.323 N 
HETATM   13  C   UNL     1       6.884   0.423  20.197  1.00  0.00     0.053 A 
ATOM     14  HN  UNL     1       7.095  -0.889  21.765  1.00  0.00     0.169 HD
HETATM   15  C   UNL     1       6.877   0.394  18.897  1.00  0.00     0.172 A 
HETATM   16  C   UNL     1       5.685   1.276  20.275  1.00  0.00     0.112 A 
HETATM   17  N   UNL     1       6.549   0.530  17.736  1.00  0.00    -0.387 N 
HETATM   18  C   UNL     1       5.692   1.205  18.268  1.00  0.00     0.206 A 
ATOM     19  HN  UNL     1       6.841   0.234  16.804  1.00  0.00     0.156 HD
HETATM   20  N   UNL     1       5.083   1.724  19.231  1.00  0.00    -0.374 N 
ATOM     21  HN  UNL     1       4.287   2.361  19.195  1.00  0.00     0.161 HD
ENDBRANCH   9  10
BRANCH   1  22
HETATM   22  C   UNL     1       7.934  -2.080  24.611  1.00  0.00    -0.021 C 
BRANCH  22  23
HETATM   23  N   UNL     1       7.469  -2.848  25.348  1.00  0.00    -0.236 N 
ATOM     24  HN  UNL     1       6.640  -2.532  25.852  1.00  0.00     0.189 HD
BRANCH  23  25
HETATM   25  S   UNL     1       7.970  -4.378  25.689  1.00  0.00     0.327 S 
HETATM   26 CL   UNL     1       6.404  -5.359  25.919  1.00  0.00     0.042 Cl
HETATM   27  O   UNL     1       8.623  -4.930  24.549  1.00  0.00    -0.188 OA
HETATM   28  O   UNL     1       8.683  -4.451  26.923  1.00  0.00    -0.188 OA
ENDBRANCH  23  25
ENDBRANCH  22  23
ENDBRANCH   1  22
TORSDOF 4
ENDMDL
MODEL 5
REMARK VINA RESULT:    -7.293      1.965      2.529
REMARK INTER + INTRA:          -9.601
REMARK INTER:                  -9.028
REMARK INTRA:                  -0.573
REMARK UNBOUND:                -0.603
REMARK  4 active torsions:
REMARK  status: ('A' for Active; 'I' for Inactive)
REMARK    1  A    between atoms: S_2  and  N_5 
REMARK    2  A    between atoms: N_5  and  C_7 
REMARK    3  A    between atoms: C_7  and  C_8 
REMARK    4  A    between atoms: C_16  and  C_17 
REMARK       I    between atoms: C_17  and  N_19 
ROOT
HETATM    1  C   UNL     1       7.134  -1.753  21.834  1.00  0.00     0.041 A 
HETATM    2  C   UNL     1       8.389  -1.608  22.432  1.00  0.00     0.080 A 
HETATM    3  C   UNL     1       9.700  -1.520  21.799  1.00  0.00     0.085 C 
HETATM    4  N   UNL     1      10.718  -1.186  21.993  1.00  0.00    -0.377 N 
ATOM      5  HN  UNL     1      11.546  -1.409  21.441  1.00  0.00     0.164 HD
HETATM    6  C   UNL     1      10.679  -0.491  23.006  1.00  0.00     0.087 C 
HETATM    7  C   UNL     1       9.772  -0.085  23.688  1.00  0.00     0.015 C 
HETATM    8  C   UNL     1       8.875  -0.558  23.359  1.00  0.00     0.000 C 
HETATM    9  C   UNL     1       7.738  -2.578  22.740  1.00  0.00     0.050 A 
ENDROOT
BRANCH   9  10
HETATM   10  C   UNL     1       7.570  -3.849  23.666  1.00  0.00     0.255 C 
HETATM   11  O   UNL     1       7.644  -4.922  23.163  1.00  0.00    -0.268 OA
HETATM   12  N   UNL     1       7.405  -3.431  24.851  1.00  0.00    -0.323 N 
HETATM   13  C   UNL     1       7.117  -4.305  25.831  1.00  0.00     0.053 A 
ATOM     14  HN  UNL     1       7.490  -2.437  25.059  1.00  0.00     0.169 HD
HETATM   15  C   UNL     1       7.709  -5.182  26.588  1.00  0.00     0.172 A 
HETATM   16  C   UNL     1       5.832  -4.423  26.542  1.00  0.00     0.112 A 
HETATM   17  N   UNL     1       7.950  -5.968  27.481  1.00  0.00    -0.387 N 
HETATM   18  C   UNL     1       6.774  -5.765  27.702  1.00  0.00     0.206 A 
ATOM     19  HN  UNL     1       8.729  -6.512  27.850  1.00  0.00     0.156 HD
HETATM   20  N   UNL     1       5.651  -5.244  27.515  1.00  0.00    -0.374 N 
ATOM     21  HN  UNL     1       4.785  -5.429  28.022  1.00  0.00     0.161 HD
ENDBRANCH   9  10
BRANCH   1  22
HETATM   22  C   UNL     1       6.242  -1.269  21.006  1.00  0.00    -0.021 C 
BRANCH  22  23
HETATM   23  N   UNL     1       5.618  -0.897  20.099  1.00  0.00    -0.236 N 
ATOM     24  HN  UNL     1       4.662  -1.247  20.046  1.00  0.00     0.189 HD
BRANCH  23  25
HETATM   25  S   UNL     1       6.073   0.120  18.887  1.00  0.00     0.327 S 
HETATM   26 CL   UNL     1       5.108   1.685  19.184  1.00  0.00     0.042 Cl
HETATM   27  O   UNL     1       7.447   0.462  19.044  1.00  0.00    -0.188 OA
HETATM   28  O   UNL     1       5.683  -0.363  17.602  1.00  0.00    -0.188 OA
ENDBRANCH  23  25
ENDBRANCH  22  23
ENDBRANCH   1  22
TORSDOF 4
ENDMDL
MODEL 6
REMARK VINA RESULT:    -7.284      3.814      5.472
REMARK INTER + INTRA:          -9.590
REMARK INTER:                  -8.887
REMARK INTRA:                  -0.703
REMARK UNBOUND:                -0.603
REMARK  4 active torsions:
REMARK  status: ('A' for Active; 'I' for Inactive)
REMARK    1  A    between atoms: S_2  and  N_5 
REMARK    2  A    between atoms: N_5  and  C_7 
REMARK    3  A    between atoms: C_7  and  C_8 
REMARK    4  A    between atoms: C_16  and  C_17 
REMARK       I    between atoms: C_17  and  N_19 
ROOT
HETATM    1  C   UNL     1       8.674   0.615  21.481  1.00  0.00     0.041 A 
HETATM    2  C   UNL     1       7.521   0.236  20.788  1.00  0.00     0.080 A 
HETATM    3  C   UNL     1       6.208   0.871  20.780  1.00  0.00     0.085 C 
HETATM    4  N   UNL     1       5.292   0.924  20.193  1.00  0.00    -0.377 N 
ATOM      5  HN  UNL     1       4.397   1.306  20.498  1.00  0.00     0.164 HD
HETATM    6  C   UNL     1       5.543   0.436  19.094  1.00  0.00     0.087 C 
HETATM    7  C   UNL     1       6.562   0.038  18.586  1.00  0.00     0.015 C 
HETATM    8  C   UNL     1       7.321   0.030  19.333  1.00  0.00     0.000 C 
HETATM    9  C   UNL     1       7.992  -0.566  21.559  1.00  0.00     0.050 A 
ENDROOT
BRANCH   9  10
HETATM   10  C   UNL     1       7.980  -2.032  22.152  1.00  0.00     0.255 C 
HETATM   11  O   UNL     1       8.984  -2.453  22.625  1.00  0.00    -0.268 OA
HETATM   12  N   UNL     1       6.804  -2.483  22.016  1.00  0.00    -0.323 N 
HETATM   13  C   UNL     1       6.540  -3.762  22.331  1.00  0.00     0.053 A 
ATOM     14  HN  UNL     1       6.061  -1.877  21.668  1.00  0.00     0.169 HD
HETATM   15  C   UNL     1       6.337  -4.508  23.378  1.00  0.00     0.172 A 
HETATM   16  C   UNL     1       6.209  -4.842  21.385  1.00  0.00     0.112 A 
HETATM   17  N   UNL     1       6.020  -5.431  24.100  1.00  0.00    -0.387 N 
HETATM   18  C   UNL     1       5.891  -5.967  23.019  1.00  0.00     0.206 A 
ATOM     19  HN  UNL     1       5.918  -5.644  25.092  1.00  0.00     0.156 HD
HETATM   20  N   UNL     1       5.906  -6.032  21.768  1.00  0.00    -0.374 N 
ATOM     21  HN  UNL     1       5.720  -6.847  21.184  1.00  0.00     0.161 HD
ENDBRANCH   9  10
BRANCH   1  22
HETATM   22  C   UNL     1       9.577   1.538  21.703  1.00  0.00    -0.021 C 
BRANCH  22  23
HETATM   23  N   UNL     1      10.459   2.198  22.072  1.00  0.00    -0.236 N 
ATOM     24  HN  UNL     1      10.959   2.714  21.347  1.00  0.00     0.189 HD
BRANCH  23  25
HETATM   25  S   UNL     1      11.011   2.411  23.607  1.00  0.00     0.327 S 
HETATM   26 CL   UNL     1       9.488   2.356  24.679  1.00  0.00     0.042 Cl
HETATM   27  O   UNL     1      11.807   1.292  23.987  1.00  0.00    -0.188 OA
HETATM   28  O   UNL     1      11.598   3.698  23.797  1.00  0.00    -0.188 OA
ENDBRANCH  23  25
ENDBRANCH  22  23
ENDBRANCH   1  22
TORSDOF 4
ENDMDL
MODEL 7
REMARK VINA RESULT:    -6.689      6.883      9.076
REMARK INTER + INTRA:          -8.857
REMARK INTER:                  -8.177
REMARK INTRA:                  -0.680
REMARK UNBOUND:                -0.603
REMARK  4 active torsions:
REMARK  status: ('A' for Active; 'I' for Inactive)
REMARK    1  A    between atoms: S_2  and  N_5 
REMARK    2  A    between atoms: N_5  and  C_7 
REMARK    3  A    between atoms: C_7  and  C_8 
REMARK    4  A    between atoms: C_16  and  C_17 
REMARK       I    between atoms: C_17  and  N_19 
ROOT
HETATM    1  C   UNL     1       5.433  -6.032  25.221  1.00  0.00     0.041 A 
HETATM    2  C   UNL     1       5.350  -5.749  23.855  1.00  0.00     0.080 A 
HETATM    3  C   UNL     1       5.291  -4.451  23.192  1.00  0.00     0.085 C 
HETATM    4  N   UNL     1       5.458  -3.983  22.223  1.00  0.00    -0.377 N 
ATOM      5  HN  UNL     1       5.157  -3.051  21.939  1.00  0.00     0.164 HD
HETATM    6  C   UNL     1       6.077  -4.793  21.536  1.00  0.00     0.087 C 
HETATM    7  C   UNL     1       6.560  -5.871  21.775  1.00  0.00     0.015 C 
HETATM    8  C   UNL     1       6.249  -6.163  22.751  1.00  0.00     0.000 C 
HETATM    9  C   UNL     1       4.466  -6.416  24.337  1.00  0.00     0.050 A 
ENDROOT
BRANCH   9  10
HETATM   10  C   UNL     1       3.170  -7.296  24.118  1.00  0.00     0.255 C 
HETATM   11  O   UNL     1       3.051  -8.287  24.761  1.00  0.00    -0.268 OA
HETATM   12  N   UNL     1       2.456  -6.705  23.255  1.00  0.00    -0.323 N 
HETATM   13  C   UNL     1       1.343  -7.298  22.791  1.00  0.00     0.053 A 
ATOM     14  HN  UNL     1       2.725  -5.782  22.914  1.00  0.00     0.169 HD
HETATM   15  C   UNL     1       0.114  -7.528  23.149  1.00  0.00     0.172 A 
HETATM   16  C   UNL     1       1.141  -7.828  21.431  1.00  0.00     0.112 A 
HETATM   17  N   UNL     1      -1.066  -7.815  23.129  1.00  0.00    -0.387 N 
HETATM   18  C   UNL     1      -0.754  -8.161  22.008  1.00  0.00     0.206 A 
ATOM     19  HN  UNL     1      -1.885  -7.784  23.735  1.00  0.00     0.156 HD
HETATM   20  N   UNL     1       0.023  -8.328  21.040  1.00  0.00    -0.374 N 
ATOM     21  HN  UNL     1      -0.186  -8.765  20.142  1.00  0.00     0.161 HD
ENDBRANCH   9  10
BRANCH   1  22
HETATM   22  C   UNL     1       6.101  -5.893  26.340  1.00  0.00    -0.021 C 
BRANCH  22  23
HETATM   23  N   UNL     1       6.646  -6.012  27.360  1.00  0.00    -0.236 N 
ATOM     24  HN  UNL     1       7.656  -5.871  27.341  1.00  0.00     0.189 HD
BRANCH  23  25
HETATM   25  S   UNL     1       6.004  -6.376  28.831  1.00  0.00     0.327 S 
HETATM   26 CL   UNL     1       4.217  -5.865  28.717  1.00  0.00     0.042 Cl
HETATM   27  O   UNL     1       6.005  -7.789  29.014  1.00  0.00    -0.188 OA
HETATM   28  O   UNL     1       6.584  -5.602  29.880  1.00  0.00    -0.188 OA
ENDBRANCH  23  25
ENDBRANCH  22  23
ENDBRANCH   1  22
TORSDOF 4
ENDMDL
MODEL 8
REMARK VINA RESULT:    -6.635     24.256     26.928
REMARK INTER + INTRA:          -8.789
REMARK INTER:                  -8.122
REMARK INTRA:                  -0.667
REMARK UNBOUND:                -0.603
REMARK  4 active torsions:
REMARK  status: ('A' for Active; 'I' for Inactive)
REMARK    1  A    between atoms: S_2  and  N_5 
REMARK    2  A    between atoms: N_5  and  C_7 
REMARK    3  A    between atoms: C_7  and  C_8 
REMARK    4  A    between atoms: C_16  and  C_17 
REMARK       I    between atoms: C_17  and  N_19 
ROOT
HETATM    1  C   UNL     1       7.900  16.041   1.959  1.00  0.00     0.041 A 
HETATM    2  C   UNL     1       8.752  15.389   2.855  1.00  0.00     0.080 A 
HETATM    3  C   UNL     1      10.106  14.894   2.634  1.00  0.00     0.085 C 
HETATM    4  N   UNL     1      11.003  14.599   3.176  1.00  0.00    -0.377 N 
ATOM      5  HN  UNL     1      11.799  14.084   2.800  1.00  0.00     0.164 HD
HETATM    6  C   UNL     1      10.874  15.005   4.329  1.00  0.00     0.087 C 
HETATM    7  C   UNL     1      10.040  15.688   4.869  1.00  0.00     0.015 C 
HETATM    8  C   UNL     1       9.236  15.830   4.185  1.00  0.00     0.000 C 
HETATM    9  C   UNL     1       7.687  14.868   2.625  1.00  0.00     0.050 A 
ENDROOT
BRANCH   9  10
HETATM   10  C   UNL     1       6.645  13.727   2.962  1.00  0.00     0.255 C 
HETATM   11  O   UNL     1       5.514  14.038   3.145  1.00  0.00    -0.268 OA
HETATM   12  N   UNL     1       7.272  12.627   2.938  1.00  0.00    -0.323 N 
HETATM   13  C   UNL     1       6.648  11.495   3.308  1.00  0.00     0.053 A 
ATOM     14  HN  UNL     1       8.247  12.600   2.640  1.00  0.00     0.169 HD
HETATM   15  C   UNL     1       5.799  10.628   2.839  1.00  0.00     0.172 A 
HETATM   16  C   UNL     1       6.917  10.709   4.525  1.00  0.00     0.112 A 
HETATM   17  N   UNL     1       5.133   9.625   2.683  1.00  0.00    -0.387 N 
HETATM   18  C   UNL     1       5.611   9.383   3.772  1.00  0.00     0.206 A 
ATOM     19  HN  UNL     1       4.503   9.207   1.998  1.00  0.00     0.156 HD
HETATM   20  N   UNL     1       6.320   9.600   4.781  1.00  0.00    -0.374 N 
ATOM     21  HN  UNL     1       6.404   9.025   5.619  1.00  0.00     0.161 HD
ENDBRANCH   9  10
BRANCH   1  22
HETATM   22  C   UNL     1       7.703  17.068   1.170  1.00  0.00    -0.021 C 
BRANCH  22  23
HETATM   23  N   UNL     1       7.767  17.951   0.417  1.00  0.00    -0.236 N 
ATOM     24  HN  UNL     1       7.248  17.830  -0.453  1.00  0.00     0.189 HD
BRANCH  23  25
HETATM   25  S   UNL     1       8.585  19.371   0.567  1.00  0.00     0.327 S 
HETATM   26 CL   UNL     1       8.318  19.898   2.333  1.00  0.00     0.042 Cl
HETATM   27  O   UNL     1       9.983  19.132   0.429  1.00  0.00    -0.188 OA
HETATM   28  O   UNL     1       8.036  20.401  -0.254  1.00  0.00    -0.188 OA
ENDBRANCH  23  25
ENDBRANCH  22  23
ENDBRANCH   1  22
TORSDOF 4
ENDMDL
MODEL 9
REMARK VINA RESULT:    -6.563     22.492     25.292
REMARK INTER + INTRA:          -8.700
REMARK INTER:                  -8.050
REMARK INTRA:                  -0.650
REMARK UNBOUND:                -0.603
REMARK  4 active torsions:
REMARK  status: ('A' for Active; 'I' for Inactive)
REMARK    1  A    between atoms: S_2  and  N_5 
REMARK    2  A    between atoms: N_5  and  C_7 
REMARK    3  A    between atoms: C_7  and  C_8 
REMARK    4  A    between atoms: C_16  and  C_17 
REMARK       I    between atoms: C_17  and  N_19 
ROOT
HETATM    1  C   UNL     1       6.012  12.364   1.863  1.00  0.00     0.041 A 
HETATM    2  C   UNL     1       4.761  12.390   2.485  1.00  0.00     0.080 A 
HETATM    3  C   UNL     1       4.364  13.070   3.713  1.00  0.00     0.085 C 
HETATM    4  N   UNL     1       3.481  13.428   4.239  1.00  0.00    -0.377 N 
ATOM      5  HN  UNL     1       3.432  13.718   5.216  1.00  0.00     0.164 HD
HETATM    6  C   UNL     1       2.554  13.415   3.433  1.00  0.00     0.087 C 
HETATM    7  C   UNL     1       2.497  13.184   2.251  1.00  0.00     0.015 C 
HETATM    8  C   UNL     1       3.447  12.813   1.942  1.00  0.00     0.000 C 
HETATM    9  C   UNL     1       5.278  11.310   2.327  1.00  0.00     0.050 A 
ENDROOT
BRANCH   9  10
HETATM   10  C   UNL     1       5.161   9.734   2.413  1.00  0.00     0.255 C 
HETATM   11  O   UNL     1       5.484   9.097   1.465  1.00  0.00    -0.268 OA
HETATM   12  N   UNL     1       4.740   9.452   3.574  1.00  0.00    -0.323 N 
HETATM   13  C   UNL     1       4.435   8.179   3.880  1.00  0.00     0.053 A 
ATOM     14  HN  UNL     1       4.633  10.187   4.272  1.00  0.00     0.169 HD
HETATM   15  C   UNL     1       5.024   7.063   4.194  1.00  0.00     0.172 A 
HETATM   16  C   UNL     1       3.086   7.641   4.126  1.00  0.00     0.112 A 
HETATM   17  N   UNL     1       5.236   5.934   4.590  1.00  0.00    -0.387 N 
HETATM   18  C   UNL     1       4.022   5.933   4.616  1.00  0.00     0.206 A 
ATOM     19  HN  UNL     1       6.020   5.314   4.793  1.00  0.00     0.156 HD
HETATM   20  N   UNL     1       2.878   6.422   4.476  1.00  0.00    -0.374 N 
ATOM     21  HN  UNL     1       1.981   5.956   4.611  1.00  0.00     0.161 HD
ENDBRANCH   9  10
BRANCH   1  22
HETATM   22  C   UNL     1       6.987  13.043   1.310  1.00  0.00    -0.021 C 
BRANCH  22  23
HETATM   23  N   UNL     1       7.769  13.829   0.965  1.00  0.00    -0.236 N 
ATOM     24  HN  UNL     1       7.937  13.874  -0.040  1.00  0.00     0.189 HD
BRANCH  23  25
HETATM   25  S   UNL     1       8.644  14.880   1.882  1.00  0.00     0.327 S 
HETATM   26 CL   UNL     1       9.343  13.846   3.265  1.00  0.00     0.042 Cl
HETATM   27  O   UNL     1       9.760  15.351   1.132  1.00  0.00    -0.188 OA
HETATM   28  O   UNL     1       7.825  15.877   2.491  1.00  0.00    -0.188 OA
ENDBRANCH  23  25
ENDBRANCH  22  23
ENDBRANCH   1  22
TORSDOF 4
ENDMDL
