
 OpenBabel07202414173D

 40 43  0  0  1  0  0  0  0  0999 V2000
    1.0066    0.0969   -0.2100 Cl  0  0  0  0  0  0  0  0  0  0  0  0
    2.7228   -0.0442   -0.0656 C   0  0  0  0  0  0  0  0  0  0  0  0
    3.4756    1.1347   -0.0815 C   0  0  0  0  0  0  0  0  0  0  0  0
    4.8643    1.1062    0.0895 C   0  0  0  0  0  0  0  0  0  0  0  0
    5.5049   -0.1372    0.2409 C   0  0  0  0  0  0  0  0  0  0  0  0
    4.7506   -1.3226    0.2288 C   0  0  0  0  0  0  0  0  0  0  0  0
    3.3634   -1.2774    0.0741 C   0  0  0  0  0  0  0  0  0  0  0  0
    2.5067   -2.7761    0.0653 Cl  0  0  0  0  0  0  0  0  0  0  0  0
    7.0055   -0.2009    0.4951 C   0  0  2  0  0  0  0  0  0  0  0  0
    7.3809   -0.4504    1.9699 C   0  0  0  0  0  0  0  0  0  0  0  0
    8.4478   -1.0127    2.2444 O   0  0  0  0  0  0  0  0  0  0  0  0
    6.4914    0.0572    2.8979 N   0  0  0  0  0  0  0  0  0  0  0  0
    6.5092   -0.0952    4.3071 C   0  0  0  0  0  0  0  0  0  0  0  0
    7.5071   -0.7960    4.9794 C   0  0  0  0  0  0  0  0  0  0  0  0
    7.4136   -1.1997    6.2668 N   0  0  0  0  0  0  0  0  0  0  0  0
    6.3198   -0.7998    6.9450 C   0  0  0  0  0  0  0  0  0  0  0  0
    5.3696    0.0907    6.4504 C   0  0  0  0  0  0  0  0  0  0  0  0
    4.3855    0.6455    7.2907 C   0  0  0  0  0  0  0  0  0  0  0  0
    3.4392    1.5344    6.7880 C   0  0  0  0  0  0  0  0  0  0  0  0
    3.4376    1.8389    5.4342 C   0  0  0  0  0  0  0  0  0  0  0  0
    4.4169    1.2984    4.5928 C   0  0  0  0  0  0  0  0  0  0  0  0
    5.4332    0.4331    5.0817 C   0  0  0  0  0  0  0  0  0  0  0  0
    7.7028    1.0616   -0.0217 C   0  0  0  0  0  0  0  0  0  0  0  0
    6.9715    2.3085    0.4496 C   0  0  0  0  0  0  0  0  0  0  0  0
    5.5913    2.2877   -0.0100 N   0  0  0  0  0  0  0  0  0  0  0  0
    2.9698    2.0877   -0.2247 H   0  0  0  0  0  0  0  0  0  0  0  0
    5.2494   -2.2840    0.3418 H   0  0  0  0  0  0  0  0  0  0  0  0
    7.3973   -1.0567   -0.0711 H   0  0  0  0  0  0  0  0  0  0  0  0
    5.6248    0.4182    2.5247 H   0  0  0  0  0  0  0  0  0  0  0  0
    8.4373   -1.0890    4.5037 H   0  0  0  0  0  0  0  0  0  0  0  0
    6.2243   -1.2328    7.9374 H   0  0  0  0  0  0  0  0  0  0  0  0
    4.3806    0.4205    8.3556 H   0  0  0  0  0  0  0  0  0  0  0  0
    2.7092    1.9903    7.4528 H   0  0  0  0  0  0  0  0  0  0  0  0
    2.6859    2.5135    5.0306 H   0  0  0  0  0  0  0  0  0  0  0  0
    4.3885    1.6053    3.5516 H   0  0  0  0  0  0  0  0  0  0  0  0
    7.7071    1.0425   -1.1174 H   0  0  0  0  0  0  0  0  0  0  0  0
    8.7482    1.0951    0.3063 H   0  0  0  0  0  0  0  0  0  0  0  0
    7.4637    3.1991    0.0411 H   0  0  0  0  0  0  0  0  0  0  0  0
    6.9959    2.4055    1.5405 H   0  0  0  0  0  0  0  0  0  0  0  0
    5.0715    3.1500    0.1339 H   0  0  0  0  0  0  0  0  0  0  0  0
  1  2  1  0  0  0  0
  2  3  1  0  0  0  0
  2  7  2  0  0  0  0
  3  4  2  0  0  0  0
  3 26  1  0  0  0  0
  4  5  1  0  0  0  0
  4 25  1  0  0  0  0
  5  6  2  0  0  0  0
  5  9  1  0  0  0  0
  6  7  1  0  0  0  0
  6 27  1  0  0  0  0
  7  8  1  0  0  0  0
  9 10  1  0  0  0  0
  9 23  1  0  0  0  0
  9 28  1  6  0  0  0
 10 11  2  0  0  0  0
 10 12  1  0  0  0  0
 12 13  1  0  0  0  0
 12 29  1  0  0  0  0
 13 14  1  0  0  0  0
 13 22  2  0  0  0  0
 14 15  2  0  0  0  0
 14 30  1  0  0  0  0
 15 16  1  0  0  0  0
 16 17  2  0  0  0  0
 16 31  1  0  0  0  0
 17 18  1  0  0  0  0
 17 22  1  0  0  0  0
 18 19  2  0  0  0  0
 18 32  1  0  0  0  0
 19 20  1  0  0  0  0
 19 33  1  0  0  0  0
 20 21  2  0  0  0  0
 20 34  1  0  0  0  0
 21 22  1  0  0  0  0
 21 35  1  0  0  0  0
 23 24  1  0  0  0  0
 23 36  1  0  0  0  0
 23 37  1  0  0  0  0
 24 25  1  0  0  0  0
 24 38  1  0  0  0  0
 24 39  1  0  0  0  0
 25 40  1  0  0  0  0
M  END
$$$$
