MODEL 1
REMARK VINA RESULT:    -6.158      0.000      0.000
REMARK INTER + INTRA:         -11.293
REMARK INTER:                  -9.758
REMARK INTRA:                  -1.535
REMARK UNBOUND:                -1.535
REMARK  10 active torsions:
REMARK  status: ('A' for Active; 'I' for Inactive)
REMARK    1  A    between atoms: S_2  and  N_5 
REMARK    2  A    between atoms: N_5  and  C_7 
REMARK    3  A    between atoms: C_8  and  C_9 
REMARK    4  A    between atoms: C_9  and  C_15 
REMARK    5  A    between atoms: C_9  and  C_10 
REMARK    6  A    between atoms: C_10  and  C_11 
REMARK    7  A    between atoms: C_11  and  C_12 
REMARK    8  A    between atoms: C_12  and  C_13 
REMARK    9  A    between atoms: C_15  and  C_16 
REMARK       I    between atoms: C_16  and  N_18 
REMARK   10  A    between atoms: N_18  and  C_20 
ROOT
HETATM    1  C   UNL     1       9.014  -2.235  23.806  1.00  0.00     0.109 C 
ENDROOT
BRANCH   1   2
HETATM    2  C   UNL     1       8.246  -3.247  23.667  1.00  0.00     0.011 C 
HETATM    3  C   UNL     1       7.269  -3.896  24.053  1.00  0.00     0.097 C 
BRANCH   3   4
HETATM    4  N   UNL     1       6.278  -4.528  23.870  1.00  0.00    -0.296 N 
ATOM      5  HN  UNL     1       5.796  -4.918  24.679  1.00  0.00     0.177 HD
BRANCH   4   6
HETATM    6  S   UNL     1       5.656  -4.802  22.399  1.00  0.00     0.226 S 
HETATM    7  C   UNL     1       6.920  -5.803  21.538  1.00  0.00     0.186 C 
HETATM    8  O   UNL     1       4.478  -5.635  22.434  1.00  0.00    -0.206 OA
HETATM    9  O   UNL     1       5.463  -3.619  21.636  1.00  0.00    -0.206 OA
ENDBRANCH   4   6
ENDBRANCH   3   4
ENDBRANCH   1   2
BRANCH   1  10
HETATM   10  C   UNL     1       8.609  -1.726  22.753  1.00  0.00    -0.071 C 
BRANCH  10  11
HETATM   11  C   UNL     1       8.251  -1.095  21.630  1.00  0.00     0.289 C 
HETATM   12  O   UNL     1       9.093  -0.660  21.006  1.00  0.00    -0.259 OA
HETATM   13  N   UNL     1       6.961  -1.047  21.473  1.00  0.00    -0.315 N 
ATOM     14  HN  UNL     1       6.363  -1.463  22.186  1.00  0.00     0.170 HD
BRANCH  13  15
HETATM   15  C   UNL     1       6.423  -0.504  20.467  1.00  0.00     0.057 A 
HETATM   16  C   UNL     1       5.975  -0.841  19.306  1.00  0.00     0.117 A 
HETATM   17  N   UNL     1       5.467  -0.682  18.245  1.00  0.00    -0.373 N 
HETATM   18  C   UNL     1       5.278   0.653  18.282  1.00  0.00     0.088 A 
ATOM     19  HN  UNL     1       5.240  -1.358  17.517  1.00  0.00     0.164 HD
HETATM   20  C   UNL     1       5.589   1.411  19.318  1.00  0.00     0.026 A 
HETATM   21  C   UNL     1       6.099   1.075  20.488  1.00  0.00    -0.033 A 
HETATM   22  C   UNL     1       6.402   1.929  21.717  1.00  0.00     0.050 C 
ENDBRANCH  13  15
ENDBRANCH  10  11
ENDBRANCH   1  10
BRANCH   1  23
HETATM   23  C   UNL     1       9.262  -1.259  24.926  1.00  0.00    -0.006 C 
BRANCH  23  24
HETATM   24  C   UNL     1       9.400  -0.003  24.816  1.00  0.00    -0.002 C 
BRANCH  24  25
HETATM   25  C   UNL     1      10.523   0.642  24.608  1.00  0.00    -0.001 C 
BRANCH  25  26
HETATM   26  C   UNL     1      11.729  -0.245  24.437  1.00  0.00    -0.010 C 
HETATM   27  C   UNL     1      12.691  -0.017  24.434  1.00  0.00     0.011 C 
ENDBRANCH  25  26
ENDBRANCH  24  25
ENDBRANCH  23  24
ENDBRANCH   1  23
TORSDOF 10
ENDMDL
MODEL 2
REMARK VINA RESULT:    -6.095      2.617      5.853
REMARK INTER + INTRA:         -11.193
REMARK INTER:                  -9.954
REMARK INTRA:                  -1.239
REMARK UNBOUND:                -1.535
REMARK  10 active torsions:
REMARK  status: ('A' for Active; 'I' for Inactive)
REMARK    1  A    between atoms: S_2  and  N_5 
REMARK    2  A    between atoms: N_5  and  C_7 
REMARK    3  A    between atoms: C_8  and  C_9 
REMARK    4  A    between atoms: C_9  and  C_15 
REMARK    5  A    between atoms: C_9  and  C_10 
REMARK    6  A    between atoms: C_10  and  C_11 
REMARK    7  A    between atoms: C_11  and  C_12 
REMARK    8  A    between atoms: C_12  and  C_13 
REMARK    9  A    between atoms: C_15  and  C_16 
REMARK       I    between atoms: C_16  and  N_18 
REMARK   10  A    between atoms: N_18  and  C_20 
ROOT
HETATM    1  C   UNL     1       6.823  -3.309  22.131  1.00  0.00     0.109 C 
ENDROOT
BRANCH   1   2
HETATM    2  C   UNL     1       6.150  -2.350  21.619  1.00  0.00     0.011 C 
HETATM    3  C   UNL     1       5.974  -1.560  20.687  1.00  0.00     0.097 C 
BRANCH   3   4
HETATM    4  N   UNL     1       5.287  -0.962  19.920  1.00  0.00    -0.296 N 
ATOM      5  HN  UNL     1       4.288  -1.164  19.907  1.00  0.00     0.177 HD
BRANCH   4   6
HETATM    6  S   UNL     1       5.860   0.154  18.897  1.00  0.00     0.226 S 
HETATM    7  C   UNL     1       4.917   1.671  19.285  1.00  0.00     0.186 C 
HETATM    8  O   UNL     1       7.239   0.494  19.152  1.00  0.00    -0.206 OA
HETATM    9  O   UNL     1       5.621  -0.153  17.530  1.00  0.00    -0.206 OA
ENDBRANCH   4   6
ENDBRANCH   3   4
ENDBRANCH   1   2
BRANCH   1  10
HETATM   10  C   UNL     1       7.838  -2.606  22.226  1.00  0.00    -0.071 C 
BRANCH  10  11
HETATM   11  C   UNL     1       8.989  -1.927  22.269  1.00  0.00     0.289 C 
HETATM   12  O   UNL     1       9.236  -1.296  21.359  1.00  0.00    -0.259 OA
HETATM   13  N   UNL     1       9.663  -2.154  23.356  1.00  0.00    -0.315 N 
ATOM     14  HN  UNL     1       9.284  -2.805  24.043  1.00  0.00     0.170 HD
BRANCH  13  15
HETATM   15  C   UNL     1      10.772  -1.598  23.592  1.00  0.00     0.057 A 
HETATM   16  C   UNL     1      12.009  -1.714  23.248  1.00  0.00     0.117 A 
HETATM   17  N   UNL     1      13.165  -1.443  23.224  1.00  0.00    -0.373 N 
HETATM   18  C   UNL     1      13.177  -0.421  24.104  1.00  0.00     0.088 A 
ATOM     19  HN  UNL     1      13.927  -1.861  22.691  1.00  0.00     0.164 HD
HETATM   20  C   UNL     1      12.095   0.049  24.699  1.00  0.00     0.026 A 
HETATM   21  C   UNL     1      10.834  -0.319  24.573  1.00  0.00    -0.033 A 
HETATM   22  C   UNL     1       9.568   0.257  25.203  1.00  0.00     0.050 C 
ENDBRANCH  13  15
ENDBRANCH  10  11
ENDBRANCH   1  10
BRANCH   1  23
HETATM   23  C   UNL     1       6.592  -4.245  23.287  1.00  0.00    -0.006 C 
BRANCH  23  24
HETATM   24  C   UNL     1       7.475  -4.918  23.902  1.00  0.00    -0.002 C 
BRANCH  24  25
HETATM   25  C   UNL     1       7.649  -4.969  25.201  1.00  0.00    -0.001 C 
BRANCH  25  26
HETATM   26  C   UNL     1       8.264  -3.729  25.797  1.00  0.00    -0.010 C 
HETATM   27  C   UNL     1       7.887  -3.076  26.436  1.00  0.00     0.011 C 
ENDBRANCH  25  26
ENDBRANCH  24  25
ENDBRANCH  23  24
ENDBRANCH   1  23
TORSDOF 10
ENDMDL
MODEL 3
REMARK VINA RESULT:    -5.940      1.943      2.204
REMARK INTER + INTRA:         -10.948
REMARK INTER:                  -8.951
REMARK INTRA:                  -1.997
REMARK UNBOUND:                -1.535
REMARK  10 active torsions:
REMARK  status: ('A' for Active; 'I' for Inactive)
REMARK    1  A    between atoms: S_2  and  N_5 
REMARK    2  A    between atoms: N_5  and  C_7 
REMARK    3  A    between atoms: C_8  and  C_9 
REMARK    4  A    between atoms: C_9  and  C_15 
REMARK    5  A    between atoms: C_9  and  C_10 
REMARK    6  A    between atoms: C_10  and  C_11 
REMARK    7  A    between atoms: C_11  and  C_12 
REMARK    8  A    between atoms: C_12  and  C_13 
REMARK    9  A    between atoms: C_15  and  C_16 
REMARK       I    between atoms: C_16  and  N_18 
REMARK   10  A    between atoms: N_18  and  C_20 
ROOT
HETATM    1  C   UNL     1      10.262  -1.862  22.896  1.00  0.00     0.109 C 
ENDROOT
BRANCH   1   2
HETATM    2  C   UNL     1       9.263  -2.418  23.467  1.00  0.00     0.011 C 
HETATM    3  C   UNL     1       8.633  -2.657  24.501  1.00  0.00     0.097 C 
BRANCH   3   4
HETATM    4  N   UNL     1       7.627  -2.773  25.127  1.00  0.00    -0.296 N 
ATOM      5  HN  UNL     1       7.659  -3.297  26.001  1.00  0.00     0.177 HD
BRANCH   4   6
HETATM    6  S   UNL     1       6.211  -2.140  24.660  1.00  0.00     0.226 S 
HETATM    7  C   UNL     1       5.652  -3.211  23.287  1.00  0.00     0.186 C 
HETATM    8  O   UNL     1       5.185  -2.256  25.668  1.00  0.00    -0.206 OA
HETATM    9  O   UNL     1       6.321  -0.820  24.147  1.00  0.00    -0.206 OA
ENDBRANCH   4   6
ENDBRANCH   3   4
ENDBRANCH   1   2
BRANCH   1  10
HETATM   10  C   UNL     1       9.526  -1.175  22.176  1.00  0.00    -0.071 C 
BRANCH  10  11
HETATM   11  C   UNL     1       8.825  -0.405  21.338  1.00  0.00     0.289 C 
HETATM   12  O   UNL     1       9.413   0.371  20.754  1.00  0.00    -0.259 OA
HETATM   13  N   UNL     1       7.550  -0.656  21.376  1.00  0.00    -0.315 N 
ATOM     14  HN  UNL     1       7.209  -1.372  22.016  1.00  0.00     0.170 HD
BRANCH  13  15
HETATM   15  C   UNL     1       6.719  -0.043  20.649  1.00  0.00     0.057 A 
HETATM   16  C   UNL     1       6.051  -0.237  19.563  1.00  0.00     0.117 A 
HETATM   17  N   UNL     1       5.285   0.020  18.693  1.00  0.00    -0.373 N 
HETATM   18  C   UNL     1       4.938   1.271  19.058  1.00  0.00     0.088 A 
ATOM     19  HN  UNL     1       4.979  -0.542  17.899  1.00  0.00     0.164 HD
HETATM   20  C   UNL     1       5.389   1.871  20.145  1.00  0.00     0.026 A 
HETATM   21  C   UNL     1       6.206   1.423  21.081  1.00  0.00    -0.033 A 
HETATM   22  C   UNL     1       6.682   2.080  22.374  1.00  0.00     0.050 C 
ENDBRANCH  13  15
ENDBRANCH  10  11
ENDBRANCH   1  10
BRANCH   1  23
HETATM   23  C   UNL     1      11.492  -1.155  23.401  1.00  0.00    -0.006 C 
BRANCH  23  24
HETATM   24  C   UNL     1      11.533  -0.259  24.298  1.00  0.00    -0.002 C 
BRANCH  24  25
HETATM   25  C   UNL     1      11.842   1.004  24.125  1.00  0.00    -0.001 C 
BRANCH  25  26
HETATM   26  C   UNL     1      10.656   1.929  24.035  1.00  0.00    -0.010 C 
HETATM   27  C   UNL     1       9.784   1.893  24.500  1.00  0.00     0.011 C 
ENDBRANCH  25  26
ENDBRANCH  24  25
ENDBRANCH  23  24
ENDBRANCH   1  23
TORSDOF 10
ENDMDL
MODEL 4
REMARK VINA RESULT:    -5.849      2.833      6.341
REMARK INTER + INTRA:         -10.803
REMARK INTER:                 -10.037
REMARK INTRA:                  -0.766
REMARK UNBOUND:                -1.535
REMARK  10 active torsions:
REMARK  status: ('A' for Active; 'I' for Inactive)
REMARK    1  A    between atoms: S_2  and  N_5 
REMARK    2  A    between atoms: N_5  and  C_7 
REMARK    3  A    between atoms: C_8  and  C_9 
REMARK    4  A    between atoms: C_9  and  C_15 
REMARK    5  A    between atoms: C_9  and  C_10 
REMARK    6  A    between atoms: C_10  and  C_11 
REMARK    7  A    between atoms: C_11  and  C_12 
REMARK    8  A    between atoms: C_12  and  C_13 
REMARK    9  A    between atoms: C_15  and  C_16 
REMARK       I    between atoms: C_16  and  N_18 
REMARK   10  A    between atoms: N_18  and  C_20 
ROOT
HETATM    1  C   UNL     1       6.666  -2.532  22.230  1.00  0.00     0.109 C 
ENDROOT
BRANCH   1   2
HETATM    2  C   UNL     1       6.869  -1.400  21.672  1.00  0.00     0.011 C 
HETATM    3  C   UNL     1       7.033  -0.742  20.641  1.00  0.00     0.097 C 
BRANCH   3   4
HETATM    4  N   UNL     1       6.853   0.211  19.952  1.00  0.00    -0.296 N 
ATOM      5  HN  UNL     1       7.419   1.043  20.119  1.00  0.00     0.177 HD
BRANCH   4   6
HETATM    6  S   UNL     1       5.754   0.254  18.762  1.00  0.00     0.226 S 
HETATM    7  C   UNL     1       6.336   1.574  17.638  1.00  0.00     0.186 C 
HETATM    8  O   UNL     1       5.748  -0.945  17.960  1.00  0.00    -0.206 OA
HETATM    9  O   UNL     1       4.454   0.620  19.204  1.00  0.00    -0.206 OA
ENDBRANCH   4   6
ENDBRANCH   3   4
ENDBRANCH   1   2
BRANCH   1  10
HETATM   10  C   UNL     1       7.777  -2.513  22.776  1.00  0.00    -0.071 C 
BRANCH  10  11
HETATM   11  C   UNL     1       8.971  -2.377  23.361  1.00  0.00     0.289 C 
HETATM   12  O   UNL     1       9.181  -3.060  24.243  1.00  0.00    -0.259 OA
HETATM   13  N   UNL     1       9.683  -1.427  22.832  1.00  0.00    -0.315 N 
ATOM     14  HN  UNL     1       9.287  -0.886  22.064  1.00  0.00     0.170 HD
BRANCH  13  15
HETATM   15  C   UNL     1      10.847  -1.150  23.236  1.00  0.00     0.057 A 
HETATM   16  C   UNL     1      12.053  -1.580  23.089  1.00  0.00     0.117 A 
HETATM   17  N   UNL     1      13.230  -1.601  23.243  1.00  0.00    -0.373 N 
HETATM   18  C   UNL     1      13.364  -0.578  24.111  1.00  0.00     0.088 A 
ATOM     19  HN  UNL     1      13.936  -2.215  22.837  1.00  0.00     0.164 HD
HETATM   20  C   UNL     1      12.356   0.167  24.530  1.00  0.00     0.026 A 
HETATM   21  C   UNL     1      11.076   0.114  24.210  1.00  0.00    -0.033 A 
HETATM   22  C   UNL     1       9.914   1.009  24.634  1.00  0.00     0.050 C 
ENDBRANCH  13  15
ENDBRANCH  10  11
ENDBRANCH   1  10
BRANCH   1  23
HETATM   23  C   UNL     1       5.555  -3.095  23.076  1.00  0.00    -0.006 C 
BRANCH  23  24
HETATM   24  C   UNL     1       5.146  -4.295  23.086  1.00  0.00    -0.002 C 
BRANCH  24  25
HETATM   25  C   UNL     1       5.870  -5.363  23.327  1.00  0.00    -0.001 C 
BRANCH  25  26
HETATM   26  C   UNL     1       6.300  -6.116  22.094  1.00  0.00    -0.010 C 
HETATM   27  C   UNL     1       6.199  -5.882  21.138  1.00  0.00     0.011 C 
ENDBRANCH  25  26
ENDBRANCH  24  25
ENDBRANCH  23  24
ENDBRANCH   1  23
TORSDOF 10
ENDMDL
MODEL 5
REMARK VINA RESULT:    -5.837      3.867      6.286
REMARK INTER + INTRA:         -10.784
REMARK INTER:                  -9.689
REMARK INTRA:                  -1.095
REMARK UNBOUND:                -1.535
REMARK  10 active torsions:
REMARK  status: ('A' for Active; 'I' for Inactive)
REMARK    1  A    between atoms: S_2  and  N_5 
REMARK    2  A    between atoms: N_5  and  C_7 
REMARK    3  A    between atoms: C_8  and  C_9 
REMARK    4  A    between atoms: C_9  and  C_15 
REMARK    5  A    between atoms: C_9  and  C_10 
REMARK    6  A    between atoms: C_10  and  C_11 
REMARK    7  A    between atoms: C_11  and  C_12 
REMARK    8  A    between atoms: C_12  and  C_13 
REMARK    9  A    between atoms: C_15  and  C_16 
REMARK       I    between atoms: C_16  and  N_18 
REMARK   10  A    between atoms: N_18  and  C_20 
ROOT
HETATM    1  C   UNL     1       7.536  -4.401  24.468  1.00  0.00     0.109 C 
ENDROOT
BRANCH   1   2
HETATM    2  C   UNL     1       7.928  -5.033  25.508  1.00  0.00     0.011 C 
HETATM    3  C   UNL     1       7.808  -5.263  26.715  1.00  0.00     0.097 C 
BRANCH   3   4
HETATM    4  N   UNL     1       7.779  -5.989  27.657  1.00  0.00    -0.296 N 
ATOM      5  HN  UNL     1       8.622  -6.515  27.889  1.00  0.00     0.177 HD
BRANCH   4   6
HETATM    6  S   UNL     1       6.469  -6.184  28.590  1.00  0.00     0.226 S 
HETATM    7  C   UNL     1       5.060  -6.152  27.426  1.00  0.00     0.186 C 
HETATM    8  O   UNL     1       6.412  -7.486  29.212  1.00  0.00    -0.206 OA
HETATM    9  O   UNL     1       6.273  -5.129  29.521  1.00  0.00    -0.206 OA
ENDBRANCH   4   6
ENDBRANCH   3   4
ENDBRANCH   1   2
BRANCH   1  10
HETATM   10  C   UNL     1       8.184  -3.394  24.781  1.00  0.00    -0.071 C 
BRANCH  10  11
HETATM   11  C   UNL     1       8.907  -2.292  25.007  1.00  0.00     0.289 C 
HETATM   12  O   UNL     1       8.770  -1.799  26.020  1.00  0.00    -0.259 OA
HETATM   13  N   UNL     1       9.621  -1.943  23.979  1.00  0.00    -0.315 N 
ATOM     14  HN  UNL     1       9.565  -2.502  23.129  1.00  0.00     0.170 HD
BRANCH  13  15
HETATM   15  C   UNL     1      10.383  -0.935  23.997  1.00  0.00     0.057 A 
HETATM   16  C   UNL     1      11.609  -0.650  24.277  1.00  0.00     0.117 A 
HETATM   17  N   UNL     1      12.569   0.038  24.395  1.00  0.00    -0.373 N 
HETATM   18  C   UNL     1      12.036   1.231  24.058  1.00  0.00     0.088 A 
ATOM     19  HN  UNL     1      13.520  -0.203  24.671  1.00  0.00     0.164 HD
HETATM   20  C   UNL     1      10.781   1.394  23.679  1.00  0.00     0.026 A 
HETATM   21  C   UNL     1       9.822   0.500  23.525  1.00  0.00    -0.033 A 
HETATM   22  C   UNL     1       8.389   0.665  23.026  1.00  0.00     0.050 C 
ENDBRANCH  13  15
ENDBRANCH  10  11
ENDBRANCH   1  10
BRANCH   1  23
HETATM   23  C   UNL     1       7.529  -4.717  22.996  1.00  0.00    -0.006 C 
BRANCH  23  24
HETATM   24  C   UNL     1       6.935  -5.688  22.435  1.00  0.00    -0.002 C 
BRANCH  24  25
HETATM   25  C   UNL     1       5.754  -6.164  22.747  1.00  0.00    -0.001 C 
BRANCH  25  26
HETATM   26  C   UNL     1       4.677  -5.119  22.887  1.00  0.00    -0.010 C 
HETATM   27  C   UNL     1       3.785  -5.177  23.308  1.00  0.00     0.011 C 
ENDBRANCH  25  26
ENDBRANCH  24  25
ENDBRANCH  23  24
ENDBRANCH   1  23
TORSDOF 10
ENDMDL
MODEL 6
REMARK VINA RESULT:    -5.793      2.561      5.688
REMARK INTER + INTRA:         -10.715
REMARK INTER:                  -9.682
REMARK INTRA:                  -1.033
REMARK UNBOUND:                -1.535
REMARK  10 active torsions:
REMARK  status: ('A' for Active; 'I' for Inactive)
REMARK    1  A    between atoms: S_2  and  N_5 
REMARK    2  A    between atoms: N_5  and  C_7 
REMARK    3  A    between atoms: C_8  and  C_9 
REMARK    4  A    between atoms: C_9  and  C_15 
REMARK    5  A    between atoms: C_9  and  C_10 
REMARK    6  A    between atoms: C_10  and  C_11 
REMARK    7  A    between atoms: C_11  and  C_12 
REMARK    8  A    between atoms: C_12  and  C_13 
REMARK    9  A    between atoms: C_15  and  C_16 
REMARK       I    between atoms: C_16  and  N_18 
REMARK   10  A    between atoms: N_18  and  C_20 
ROOT
HETATM    1  C   UNL     1       8.392  -1.634  23.033  1.00  0.00     0.109 C 
ENDROOT
BRANCH   1   2
HETATM    2  C   UNL     1       7.466  -0.971  22.452  1.00  0.00     0.011 C 
HETATM    3  C   UNL     1       7.003  -0.482  21.418  1.00  0.00     0.097 C 
BRANCH   3   4
HETATM    4  N   UNL     1       6.111  -0.229  20.672  1.00  0.00    -0.296 N 
ATOM      5  HN  UNL     1       5.169  -0.147  21.055  1.00  0.00     0.177 HD
BRANCH   4   6
HETATM    6  S   UNL     1       6.316  -0.007  19.081  1.00  0.00     0.226 S 
HETATM    7  C   UNL     1       5.263   1.430  18.671  1.00  0.00     0.186 C 
HETATM    8  O   UNL     1       7.658   0.402  18.740  1.00  0.00    -0.206 OA
HETATM    9  O   UNL     1       5.865  -1.100  18.293  1.00  0.00    -0.206 OA
ENDBRANCH   4   6
ENDBRANCH   3   4
ENDBRANCH   1   2
BRANCH   1  10
HETATM   10  C   UNL     1       7.744  -2.687  22.962  1.00  0.00    -0.071 C 
BRANCH  10  11
HETATM   11  C   UNL     1       7.099  -3.857  22.981  1.00  0.00     0.289 C 
HETATM   12  O   UNL     1       7.463  -4.646  22.250  1.00  0.00    -0.259 OA
HETATM   13  N   UNL     1       6.108  -3.870  23.822  1.00  0.00    -0.315 N 
ATOM     14  HN  UNL     1       5.910  -3.028  24.360  1.00  0.00     0.170 HD
BRANCH  13  15
HETATM   15  C   UNL     1       5.382  -4.889  23.996  1.00  0.00     0.057 A 
HETATM   16  C   UNL     1       4.444  -5.529  23.386  1.00  0.00     0.117 A 
HETATM   17  N   UNL     1       3.640  -6.385  23.215  1.00  0.00    -0.373 N 
HETATM   18  C   UNL     1       3.795  -7.074  24.364  1.00  0.00     0.088 A 
ATOM     19  HN  UNL     1       3.013  -6.551  22.428  1.00  0.00     0.164 HD
HETATM   20  C   UNL     1       4.683  -6.765  25.292  1.00  0.00     0.026 A 
HETATM   21  C   UNL     1       5.582  -5.798  25.313  1.00  0.00    -0.033 A 
HETATM   22  C   UNL     1       6.656  -5.469  26.346  1.00  0.00     0.050 C 
ENDBRANCH  13  15
ENDBRANCH  10  11
ENDBRANCH   1  10
BRANCH   1  23
HETATM   23  C   UNL     1       9.871  -1.786  22.798  1.00  0.00    -0.006 C 
BRANCH  23  24
HETATM   24  C   UNL     1      10.760  -0.900  22.983  1.00  0.00    -0.002 C 
BRANCH  24  25
HETATM   25  C   UNL     1      11.104  -0.370  24.133  1.00  0.00    -0.001 C 
BRANCH  25  26
HETATM   26  C   UNL     1      12.571  -0.050  24.258  1.00  0.00    -0.010 C 
HETATM   27  C   UNL     1      13.362  -0.627  24.119  1.00  0.00     0.011 C 
ENDBRANCH  25  26
ENDBRANCH  24  25
ENDBRANCH  23  24
ENDBRANCH   1  23
TORSDOF 10
ENDMDL
MODEL 7
REMARK VINA RESULT:    -5.781     14.396     16.577
REMARK INTER + INTRA:         -10.696
REMARK INTER:                  -9.257
REMARK INTRA:                  -1.439
REMARK UNBOUND:                -1.535
REMARK  10 active torsions:
REMARK  status: ('A' for Active; 'I' for Inactive)
REMARK    1  A    between atoms: S_2  and  N_5 
REMARK    2  A    between atoms: N_5  and  C_7 
REMARK    3  A    between atoms: C_8  and  C_9 
REMARK    4  A    between atoms: C_9  and  C_15 
REMARK    5  A    between atoms: C_9  and  C_10 
REMARK    6  A    between atoms: C_10  and  C_11 
REMARK    7  A    between atoms: C_11  and  C_12 
REMARK    8  A    between atoms: C_12  and  C_13 
REMARK    9  A    between atoms: C_15  and  C_16 
REMARK       I    between atoms: C_16  and  N_18 
REMARK   10  A    between atoms: N_18  and  C_20 
ROOT
HETATM    1  C   UNL     1      24.416  -2.093  23.284  1.00  0.00     0.109 C 
ENDROOT
BRANCH   1   2
HETATM    2  C   UNL     1      24.029  -3.298  23.463  1.00  0.00     0.011 C 
HETATM    3  C   UNL     1      24.078  -4.338  24.126  1.00  0.00     0.097 C 
BRANCH   3   4
HETATM    4  N   UNL     1      23.583  -5.285  24.650  1.00  0.00    -0.296 N 
ATOM      5  HN  UNL     1      22.590  -5.248  24.879  1.00  0.00     0.177 HD
BRANCH   4   6
HETATM    6  S   UNL     1      24.408  -6.630  25.017  1.00  0.00     0.226 S 
HETATM    7  C   UNL     1      26.151  -6.091  25.134  1.00  0.00     0.186 C 
HETATM    8  O   UNL     1      24.086  -7.146  26.326  1.00  0.00    -0.206 OA
HETATM    9  O   UNL     1      24.342  -7.629  24.008  1.00  0.00    -0.206 OA
ENDBRANCH   4   6
ENDBRANCH   3   4
ENDBRANCH   1   2
BRANCH   1  10
HETATM   10  C   UNL     1      23.929  -2.059  22.146  1.00  0.00    -0.071 C 
BRANCH  10  11
HETATM   11  C   UNL     1      23.392  -1.908  20.931  1.00  0.00     0.289 C 
HETATM   12  O   UNL     1      22.261  -1.975  20.868  1.00  0.00    -0.259 OA
HETATM   13  N   UNL     1      24.289  -1.757  20.003  1.00  0.00    -0.315 N 
ATOM     14  HN  UNL     1      25.274  -1.776  20.264  1.00  0.00     0.170 HD
BRANCH  13  15
HETATM   15  C   UNL     1      23.983  -1.588  18.789  1.00  0.00     0.057 A 
HETATM   16  C   UNL     1      23.607  -0.634  18.007  1.00  0.00     0.117 A 
HETATM   17  N   UNL     1      23.285  -0.126  16.984  1.00  0.00    -0.373 N 
HETATM   18  C   UNL     1      23.303  -1.207  16.178  1.00  0.00     0.088 A 
ATOM     19  HN  UNL     1      23.059   0.847  16.775  1.00  0.00     0.164 HD
HETATM   20  C   UNL     1      23.655  -2.415  16.577  1.00  0.00     0.026 A 
HETATM   21  C   UNL     1      24.067  -2.827  17.762  1.00  0.00    -0.033 A 
HETATM   22  C   UNL     1      24.539  -4.205  18.220  1.00  0.00     0.050 C 
ENDBRANCH  13  15
ENDBRANCH  10  11
ENDBRANCH   1  10
BRANCH   1  23
HETATM   23  C   UNL     1      24.267  -0.820  24.074  1.00  0.00    -0.006 C 
BRANCH  23  24
HETATM   24  C   UNL     1      23.343  -0.547  24.899  1.00  0.00    -0.002 C 
BRANCH  24  25
HETATM   25  C   UNL     1      22.154  -0.075  24.608  1.00  0.00    -0.001 C 
BRANCH  25  26
HETATM   26  C   UNL     1      21.100  -1.131  24.392  1.00  0.00    -0.010 C 
HETATM   27  C   UNL     1      20.396  -1.461  25.002  1.00  0.00     0.011 C 
ENDBRANCH  25  26
ENDBRANCH  24  25
ENDBRANCH  23  24
ENDBRANCH   1  23
TORSDOF 10
ENDMDL
MODEL 8
REMARK VINA RESULT:    -5.657     24.470     27.863
REMARK INTER + INTRA:         -10.500
REMARK INTER:                  -9.067
REMARK INTRA:                  -1.433
REMARK UNBOUND:                -1.535
REMARK  10 active torsions:
REMARK  status: ('A' for Active; 'I' for Inactive)
REMARK    1  A    between atoms: S_2  and  N_5 
REMARK    2  A    between atoms: N_5  and  C_7 
REMARK    3  A    between atoms: C_8  and  C_9 
REMARK    4  A    between atoms: C_9  and  C_15 
REMARK    5  A    between atoms: C_9  and  C_10 
REMARK    6  A    between atoms: C_10  and  C_11 
REMARK    7  A    between atoms: C_11  and  C_12 
REMARK    8  A    between atoms: C_12  and  C_13 
REMARK    9  A    between atoms: C_15  and  C_16 
REMARK       I    between atoms: C_16  and  N_18 
REMARK   10  A    between atoms: N_18  and  C_20 
ROOT
HETATM    1  C   UNL     1       8.164  17.548   1.278  1.00  0.00     0.109 C 
ENDROOT
BRANCH   1   2
HETATM    2  C   UNL     1       8.275  16.316   1.597  1.00  0.00     0.011 C 
HETATM    3  C   UNL     1       8.960  15.290   1.635  1.00  0.00     0.097 C 
BRANCH   3   4
HETATM    4  N   UNL     1       9.368  14.307   2.167  1.00  0.00    -0.296 N 
ATOM      5  HN  UNL     1      10.138  13.803   1.729  1.00  0.00     0.177 HD
BRANCH   4   6
HETATM    6  S   UNL     1       8.760  13.728   3.553  1.00  0.00     0.226 S 
HETATM    7  C   UNL     1       6.993  13.424   3.196  1.00  0.00     0.186 C 
HETATM    8  O   UNL     1       9.299  12.437   3.906  1.00  0.00    -0.206 OA
HETATM    9  O   UNL     1       8.819  14.655   4.629  1.00  0.00    -0.206 OA
ENDBRANCH   4   6
ENDBRANCH   3   4
ENDBRANCH   1   2
BRANCH   1  10
HETATM   10  C   UNL     1       8.782  17.912   2.288  1.00  0.00    -0.071 C 
BRANCH  10  11
HETATM   11  C   UNL     1       9.401  18.216   3.433  1.00  0.00     0.289 C 
HETATM   12  O   UNL     1       8.824  18.009   4.388  1.00  0.00    -0.259 OA
HETATM   13  N   UNL     1      10.568  18.756   3.243  1.00  0.00    -0.315 N 
ATOM     14  HN  UNL     1      10.891  18.904   2.288  1.00  0.00     0.170 HD
BRANCH  13  15
HETATM   15  C   UNL     1      11.315  19.103   4.200  1.00  0.00     0.057 A 
HETATM   16  C   UNL     1      12.295  18.626   4.889  1.00  0.00     0.117 A 
HETATM   17  N   UNL     1      13.147  18.621   5.716  1.00  0.00    -0.373 N 
HETATM   18  C   UNL     1      12.926  19.828   6.276  1.00  0.00     0.088 A 
ATOM     19  HN  UNL     1      13.843  17.910   5.939  1.00  0.00     0.164 HD
HETATM   20  C   UNL     1      12.002  20.674   5.857  1.00  0.00     0.026 A 
HETATM   21  C   UNL     1      11.150  20.567   4.854  1.00  0.00    -0.033 A 
HETATM   22  C   UNL     1      10.124  21.562   4.319  1.00  0.00     0.050 C 
ENDBRANCH  13  15
ENDBRANCH  10  11
ENDBRANCH   1  10
BRANCH   1  23
HETATM   23  C   UNL     1       8.471  18.336   0.032  1.00  0.00    -0.006 C 
BRANCH  23  24
HETATM   24  C   UNL     1       9.181  19.384  -0.044  1.00  0.00    -0.002 C 
BRANCH  24  25
HETATM   25  C   UNL     1       8.748  20.605  -0.250  1.00  0.00    -0.001 C 
BRANCH  25  26
HETATM   26  C   UNL     1       9.757  21.683   0.052  1.00  0.00    -0.010 C 
HETATM   27  C   UNL     1      10.499  21.695   0.704  1.00  0.00     0.011 C 
ENDBRANCH  25  26
ENDBRANCH  24  25
ENDBRANCH  23  24
ENDBRANCH   1  23
TORSDOF 10
ENDMDL
MODEL 9
REMARK VINA RESULT:    -5.559      3.103      6.986
REMARK INTER + INTRA:         -10.345
REMARK INTER:                  -9.202
REMARK INTRA:                  -1.143
REMARK UNBOUND:                -1.535
REMARK  10 active torsions:
REMARK  status: ('A' for Active; 'I' for Inactive)
REMARK    1  A    between atoms: S_2  and  N_5 
REMARK    2  A    between atoms: N_5  and  C_7 
REMARK    3  A    between atoms: C_8  and  C_9 
REMARK    4  A    between atoms: C_9  and  C_15 
REMARK    5  A    between atoms: C_9  and  C_10 
REMARK    6  A    between atoms: C_10  and  C_11 
REMARK    7  A    between atoms: C_11  and  C_12 
REMARK    8  A    between atoms: C_12  and  C_13 
REMARK    9  A    between atoms: C_15  and  C_16 
REMARK       I    between atoms: C_16  and  N_18 
REMARK   10  A    between atoms: N_18  and  C_20 
ROOT
HETATM    1  C   UNL     1       8.294  -1.866  21.876  1.00  0.00     0.109 C 
ENDROOT
BRANCH   1   2
HETATM    2  C   UNL     1       9.427  -1.975  22.456  1.00  0.00     0.011 C 
HETATM    3  C   UNL     1      10.593  -1.587  22.584  1.00  0.00     0.097 C 
BRANCH   3   4
HETATM    4  N   UNL     1      11.548  -1.296  23.232  1.00  0.00    -0.296 N 
ATOM      5  HN  UNL     1      12.345  -1.931  23.229  1.00  0.00     0.177 HD
BRANCH   4   6
HETATM    6  S   UNL     1      11.643   0.057  24.117  1.00  0.00     0.226 S 
HETATM    7  C   UNL     1      11.046   1.382  23.009  1.00  0.00     0.186 C 
HETATM    8  O   UNL     1      10.729   0.062  25.234  1.00  0.00    -0.206 OA
HETATM    9  O   UNL     1      12.970   0.392  24.500  1.00  0.00    -0.206 OA
ENDBRANCH   4   6
ENDBRANCH   3   4
ENDBRANCH   1   2
BRANCH   1  10
HETATM   10  C   UNL     1       7.827  -2.821  22.511  1.00  0.00    -0.071 C 
BRANCH  10  11
HETATM   11  C   UNL     1       7.370  -3.921  23.118  1.00  0.00     0.289 C 
HETATM   12  O   UNL     1       7.463  -4.892  22.538  1.00  0.00    -0.259 OA
HETATM   13  N   UNL     1       6.840  -3.669  24.278  1.00  0.00    -0.315 N 
ATOM     14  HN  UNL     1       6.809  -2.704  24.605  1.00  0.00     0.170 HD
BRANCH  13  15
HETATM   15  C   UNL     1       6.362  -4.578  25.014  1.00  0.00     0.057 A 
HETATM   16  C   UNL     1       6.735  -5.331  25.991  1.00  0.00     0.117 A 
HETATM   17  N   UNL     1       6.623  -6.159  26.835  1.00  0.00    -0.373 N 
HETATM   18  C   UNL     1       5.354  -6.552  26.600  1.00  0.00     0.088 A 
ATOM     19  HN  UNL     1       7.292  -6.480  27.535  1.00  0.00     0.164 HD
HETATM   20  C   UNL     1       4.579  -6.017  25.673  1.00  0.00     0.026 A 
HETATM   21  C   UNL     1       4.826  -5.030  24.832  1.00  0.00    -0.033 A 
HETATM   22  C   UNL     1       3.920  -4.359  23.803  1.00  0.00     0.050 C 
ENDBRANCH  13  15
ENDBRANCH  10  11
ENDBRANCH   1  10
BRANCH   1  23
HETATM   23  C   UNL     1       7.338  -0.724  21.659  1.00  0.00    -0.006 C 
BRANCH  23  24
HETATM   24  C   UNL     1       7.388   0.137  20.728  1.00  0.00    -0.002 C 
BRANCH  24  25
HETATM   25  C   UNL     1       6.984  -0.029  19.491  1.00  0.00    -0.001 C 
BRANCH  25  26
HETATM   26  C   UNL     1       5.568   0.417  19.233  1.00  0.00    -0.010 C 
HETATM   27  C   UNL     1       5.223   1.286  18.912  1.00  0.00     0.011 C 
ENDBRANCH  25  26
ENDBRANCH  24  25
ENDBRANCH  23  24
ENDBRANCH   1  23
TORSDOF 10
ENDMDL
