stable:False satoms:9 tatoms:24 sratio:0.375
  -OEChem-07092417503D

 24 24  0     1  0  0  0  0  0999 V2000
    6.5453   -4.8530   26.4835 C   0  0  0  0  0  0  0  0  0  0  0  0
    8.2333   -4.2691   26.0931 S   0  0  0  0  0  0  0  0  0  0  0  0
    9.0484   -5.4601   26.0800 O   0  0  0  0  0  0  0  0  0  0  0  0
    8.6129   -3.3623   27.1188 O   0  0  0  0  0  0  0  0  0  0  0  0
    8.1041   -3.5781   24.6339 N   0  0  0  0  0  0  0  0  0  0  0  0
    8.9790   -2.9489   24.1289 C   0  0  0  0  0  0  0  0  0  0  0  0
    9.4155   -1.9793   23.5022 C   0  0  0  0  0  0  0  0  0  0  0  0
   10.3181   -1.0872   23.3519 C   0  0  2  0  0  0  0  0  0  0  0  0
   10.9645   -0.0899   24.2771 C   0  0  0  0  0  0  0  0  0  0  0  0
   12.1628    0.3211   24.2262 C   0  0  0  0  0  0  0  0  0  0  0  0
   13.1209   -0.1628   23.4720 C   0  0  0  0  0  0  0  0  0  0  0  0
   12.7076   -1.3297   22.6118 C   0  0  0  0  0  0  0  0  0  0  0  0
   11.8237   -1.7592   22.5038 C   0  0  0  0  0  0  0  0  0  0  0  0
    9.7302   -0.5910   22.3820 C   0  0  0  0  0  0  0  0  0  0  0  0
    9.0924    0.0434   21.3928 C   0  0  0  0  0  0  0  0  0  0  0  0
    9.5847    0.9860   20.9980 O   0  0  0  0  0  0  0  0  0  0  0  0
    7.9632   -0.5211   21.0834 N   0  0  0  0  0  0  0  0  0  0  0  0
    7.2167   -0.0799   20.1640 C   0  0  0  0  0  0  0  0  0  0  0  0
    7.2041   -0.0042   18.8765 C   0  0  0  0  0  0  0  0  0  0  0  0
    6.7725    0.2657   17.8046 N   0  0  0  0  0  0  0  0  0  0  0  0
    5.6292    0.8818   18.1685 C   0  0  0  0  0  0  0  0  0  0  0  0
    5.2327    1.0152   19.4222 C   0  0  0  0  0  0  0  0  0  0  0  0
    5.8001    0.5918   20.5374 C   0  0  0  0  0  0  0  0  0  0  0  0
    5.3221    0.6808   21.9842 C   0  0  0  0  0  0  0  0  0  0  0  0
 20 21  2  0  0  0  0
 19 20  1  0  0  0  0
 21 22  1  0  0  0  0
 18 19  2  0  0  0  0
 22 23  2  0  0  0  0
 18 23  1  0  0  0  0
 17 18  1  0  0  0  0
 23 24  1  0  0  0  0
 15 16  2  0  0  0  0
 15 17  1  0  0  0  0
 14 15  1  0  0  0  0
  8 14  1  0  0  0  0
 12 13  2  0  0  0  0
 11 12  1  0  0  0  0
  7  8  1  0  0  0  0
  8  9  1  0  0  0  0
 10 11  1  0  0  0  0
  6  7  2  3  0  0  0
  5  6  1  0  0  0  0
  9 10  2  0  0  0  0
  2  5  1  0  0  0  0
  2  3  2  0  0  0  0
  1  2  1  0  0  0  0
  2  4  2  0  0  0  0
M  END
> <Shapegauss>
-285.401337

$$$$
