REMARK  7 active torsions:
REMARK  status: ('A' for Active; 'I' for Inactive)
REMARK    1  A    between atoms: S_2  and  N_5 
REMARK    2  A    between atoms: N_5  and  C_7 
REMARK    3  A    between atoms: C_8  and  C_9 
REMARK    4  A    between atoms: C_9  and  C_12 
REMARK    5  A    between atoms: C_9  and  C_10 
REMARK    6  A    between atoms: C_12  and  C_13 
REMARK       I    between atoms: C_13  and  N_15 
REMARK    7  A    between atoms: N_19  and  C_22 
ROOT
HETATM    1  C   UNL     1       9.825  -0.557  22.216  1.00  0.00    -0.035 C 
ENDROOT
BRANCH   1   2
HETATM    2  C   UNL     1      10.299  -1.000  23.290  1.00  0.00     0.069 C 
BRANCH   2   3
HETATM    3  C   UNL     1       9.505  -1.997  23.826  1.00  0.00    -0.035 C 
HETATM    4  C   UNL     1       8.942  -2.860  24.300  1.00  0.00     0.027 C 
BRANCH   4   5
HETATM    5  N   UNL     1       8.085  -3.632  24.734  1.00  0.00    -0.229 N 
ATOM      6  HN  UNL     1       7.249  -3.823  24.182  1.00  0.00     0.190 HD
BRANCH   5   7
HETATM    7  S   UNL     1       8.274  -4.335  26.153  1.00  0.00     0.327 S 
HETATM    8 CL   UNL     1       6.532  -4.936  26.544  1.00  0.00     0.042 Cl
HETATM    9  O   UNL     1       9.126  -5.486  26.053  1.00  0.00    -0.188 OA
HETATM   10  O   UNL     1       8.591  -3.393  27.161  1.00  0.00    -0.188 OA
ENDBRANCH   5   7
ENDBRANCH   4   5
ENDBRANCH   2   3
BRANCH   2  11
HETATM   11  C   UNL     1      11.477  -0.383  23.820  1.00  0.00     0.019 C 
HETATM   12  C   UNL     1      12.610  -0.871  23.096  1.00  0.00     0.013 C 
ENDBRANCH   2  11
ENDBRANCH   1   2
BRANCH   1  13
HETATM   13  C   UNL     1       9.023   0.099  21.336  1.00  0.00     0.294 C 
HETATM   14  O   UNL     1       9.362   1.199  20.939  1.00  0.00    -0.258 OA
HETATM   15  N   UNL     1       7.901  -0.606  21.092  1.00  0.00    -0.320 N 
HETATM   16  C   UNL     1       7.095  -0.103  20.267  1.00  0.00     0.020 A 
ATOM     17  HN  UNL     1       7.715  -1.498  21.551  1.00  0.00     0.169 HD
HETATM   18  C   UNL     1       6.902   0.010  18.957  1.00  0.00     0.094 A 
HETATM   19  C   UNL     1       5.736   0.558  20.656  1.00  0.00     0.011 A 
HETATM   20  C   UNL     1       5.940   0.607  18.245  1.00  0.00    -0.000 A 
HETATM   21  C   UNL     1       5.388   0.843  19.462  1.00  0.00     0.071 A 
BRANCH  20  22
HETATM   22  N   UNL     1       6.057   0.594  17.281  1.00  0.00    -0.404 N 
ATOM     23  HN2 UNL     1       6.472   0.417  16.366  1.00  0.00     0.155 HD
ATOM     24  HN1 UNL     1       5.323   1.049  16.738  1.00  0.00     0.155 HD
ENDBRANCH  20  22
ENDBRANCH   1  13
TORSDOF 7
