MODEL 1
REMARK VINA RESULT:    -6.150      0.000      0.000
REMARK INTER + INTRA:          -9.073
REMARK INTER:                  -8.487
REMARK INTRA:                  -0.586
REMARK UNBOUND:                -0.586
REMARK  7 active torsions:
REMARK  status: ('A' for Active; 'I' for Inactive)
REMARK    1  A    between atoms: S_2  and  N_5 
REMARK    2  A    between atoms: N_5  and  C_7 
REMARK    3  A    between atoms: C_8  and  C_9 
REMARK    4  A    between atoms: C_9  and  C_12 
REMARK    5  A    between atoms: C_9  and  C_10 
REMARK    6  A    between atoms: C_12  and  C_13 
REMARK       I    between atoms: C_13  and  N_15 
REMARK    7  A    between atoms: N_19  and  C_22 
ROOT
HETATM    1  C   UNL     1       9.094  -0.374  22.636  1.00  0.00    -0.035 C 
ENDROOT
BRANCH   1   2
HETATM    2  C   UNL     1       9.746  -1.095  23.429  1.00  0.00     0.069 C 
BRANCH   2   3
HETATM    3  C   UNL     1       9.180  -2.350  23.562  1.00  0.00    -0.035 C 
HETATM    4  C   UNL     1       8.624  -3.330  23.685  1.00  0.00     0.027 C 
BRANCH   4   5
HETATM    5  N   UNL     1       8.292  -4.516  23.743  1.00  0.00    -0.229 N 
ATOM      6  HN  UNL     1       8.954  -5.211  24.088  1.00  0.00     0.190 HD
BRANCH   5   7
HETATM    7  S   UNL     1       6.834  -4.971  23.283  1.00  0.00     0.327 S 
HETATM    8 CL   UNL     1       7.208  -6.209  21.914  1.00  0.00     0.042 Cl
HETATM    9  O   UNL     1       6.152  -5.669  24.335  1.00  0.00    -0.188 OA
HETATM   10  O   UNL     1       6.132  -3.911  22.661  1.00  0.00    -0.188 OA
ENDBRANCH   5   7
ENDBRANCH   4   5
ENDBRANCH   2   3
BRANCH   2  11
HETATM   11  C   UNL     1      10.865  -0.518  24.111  1.00  0.00     0.019 C 
HETATM   12  C   UNL     1      10.394   0.561  24.924  1.00  0.00     0.013 C 
ENDBRANCH   2  11
ENDBRANCH   1   2
BRANCH   1  13
HETATM   13  C   UNL     1       8.520   0.093  21.495  1.00  0.00     0.294 C 
HETATM   14  O   UNL     1       9.216   0.674  20.682  1.00  0.00    -0.258 OA
HETATM   15  N   UNL     1       7.192  -0.135  21.499  1.00  0.00    -0.320 N 
HETATM   16  C   UNL     1       6.560   0.234  20.475  1.00  0.00     0.020 A 
ATOM     17  HN  UNL     1       6.724  -0.581  22.288  1.00  0.00     0.169 HD
HETATM   18  C   UNL     1       6.282  -0.167  19.239  1.00  0.00     0.094 A 
HETATM   19  C   UNL     1       5.621   1.479  20.422  1.00  0.00     0.011 A 
HETATM   20  C   UNL     1       5.558   0.390  18.262  1.00  0.00    -0.000 A 
HETATM   21  C   UNL     1       5.281   1.329  19.201  1.00  0.00     0.071 A 
BRANCH  20  22
HETATM   22  N   UNL     1       5.552  -0.086  17.416  1.00  0.00    -0.404 N 
ATOM     23  HN2 UNL     1       5.661  -0.275  16.419  1.00  0.00     0.155 HD
ATOM     24  HN1 UNL     1       5.219  -1.050  17.450  1.00  0.00     0.155 HD
ENDBRANCH  20  22
ENDBRANCH   1  13
TORSDOF 7
ENDMDL
MODEL 2
REMARK VINA RESULT:    -6.150      4.256      5.649
REMARK INTER + INTRA:          -9.073
REMARK INTER:                  -8.533
REMARK INTRA:                  -0.539
REMARK UNBOUND:                -0.586
REMARK  7 active torsions:
REMARK  status: ('A' for Active; 'I' for Inactive)
REMARK    1  A    between atoms: S_2  and  N_5 
REMARK    2  A    between atoms: N_5  and  C_7 
REMARK    3  A    between atoms: C_8  and  C_9 
REMARK    4  A    between atoms: C_9  and  C_12 
REMARK    5  A    between atoms: C_9  and  C_10 
REMARK    6  A    between atoms: C_12  and  C_13 
REMARK       I    between atoms: C_13  and  N_15 
REMARK    7  A    between atoms: N_19  and  C_22 
ROOT
HETATM    1  C   UNL     1       8.599  -3.163  23.915  1.00  0.00    -0.035 C 
ENDROOT
BRANCH   1   2
HETATM    2  C   UNL     1       7.979  -4.253  23.888  1.00  0.00     0.069 C 
BRANCH   2   3
HETATM    3  C   UNL     1       8.033  -4.902  25.108  1.00  0.00    -0.035 C 
HETATM    4  C   UNL     1       8.120  -5.347  26.147  1.00  0.00     0.027 C 
BRANCH   4   5
HETATM    5  N   UNL     1       8.057  -6.062  27.150  1.00  0.00    -0.229 N 
ATOM      6  HN  UNL     1       8.854  -6.643  27.408  1.00  0.00     0.190 HD
BRANCH   5   7
HETATM    7  S   UNL     1       6.739  -6.082  28.047  1.00  0.00     0.327 S 
HETATM    8 CL   UNL     1       5.408  -6.561  26.802  1.00  0.00     0.042 Cl
HETATM    9  O   UNL     1       6.804  -7.114  29.042  1.00  0.00    -0.188 OA
HETATM   10  O   UNL     1       6.396  -4.784  28.495  1.00  0.00    -0.188 OA
ENDBRANCH   5   7
ENDBRANCH   4   5
ENDBRANCH   2   3
BRANCH   2  11
HETATM   11  C   UNL     1       7.415  -4.685  22.645  1.00  0.00     0.019 C 
HETATM   12  C   UNL     1       6.293  -3.850  22.342  1.00  0.00     0.013 C 
ENDBRANCH   2  11
ENDBRANCH   1   2
BRANCH   1  13
HETATM   13  C   UNL     1       9.344  -2.095  23.525  1.00  0.00     0.294 C 
HETATM   14  O   UNL     1       9.406  -1.823  22.339  1.00  0.00    -0.258 OA
HETATM   15  N   UNL     1       9.963  -1.530  24.580  1.00  0.00    -0.320 N 
HETATM   16  C   UNL     1      10.661  -0.511  24.337  1.00  0.00     0.020 A 
ATOM     17  HN  UNL     1       9.871  -1.907  25.523  1.00  0.00     0.169 HD
HETATM   18  C   UNL     1      10.536   0.797  24.142  1.00  0.00     0.094 A 
HETATM   19  C   UNL     1      12.221  -0.497  24.327  1.00  0.00     0.011 A 
HETATM   20  C   UNL     1      11.439   1.752  23.890  1.00  0.00    -0.000 A 
HETATM   21  C   UNL     1      12.334   0.744  24.052  1.00  0.00     0.071 A 
BRANCH  20  22
HETATM   22  N   UNL     1      11.082   2.641  23.731  1.00  0.00    -0.404 N 
ATOM     23  HN2 UNL     1      10.446   3.438  23.751  1.00  0.00     0.155 HD
ATOM     24  HN1 UNL     1      11.662   3.257  23.162  1.00  0.00     0.155 HD
ENDBRANCH  20  22
ENDBRANCH   1  13
TORSDOF 7
ENDMDL
MODEL 3
REMARK VINA RESULT:    -5.943      3.470      6.279
REMARK INTER + INTRA:          -8.787
REMARK INTER:                  -8.239
REMARK INTRA:                  -0.548
REMARK UNBOUND:                -0.586
REMARK  7 active torsions:
REMARK  status: ('A' for Active; 'I' for Inactive)
REMARK    1  A    between atoms: S_2  and  N_5 
REMARK    2  A    between atoms: N_5  and  C_7 
REMARK    3  A    between atoms: C_8  and  C_9 
REMARK    4  A    between atoms: C_9  and  C_12 
REMARK    5  A    between atoms: C_9  and  C_10 
REMARK    6  A    between atoms: C_12  and  C_13 
REMARK       I    between atoms: C_13  and  N_15 
REMARK    7  A    between atoms: N_19  and  C_22 
ROOT
HETATM    1  C   UNL     1       7.785  -3.199  23.138  1.00  0.00    -0.035 C 
ENDROOT
BRANCH   1   2
HETATM    2  C   UNL     1       6.867  -3.532  22.350  1.00  0.00     0.069 C 
BRANCH   2   3
HETATM    3  C   UNL     1       6.406  -2.454  21.617  1.00  0.00    -0.035 C 
HETATM    4  C   UNL     1       6.127  -1.552  20.989  1.00  0.00     0.027 C 
BRANCH   4   5
HETATM    5  N   UNL     1       5.539  -0.662  20.372  1.00  0.00    -0.229 N 
ATOM      6  HN  UNL     1       4.646  -0.310  20.718  1.00  0.00     0.190 HD
BRANCH   5   7
HETATM    7  S   UNL     1       6.163  -0.058  19.035  1.00  0.00     0.327 S 
HETATM    8 CL   UNL     1       8.005  -0.023  19.425  1.00  0.00     0.042 Cl
HETATM    9  O   UNL     1       5.964  -0.943  17.922  1.00  0.00    -0.188 OA
HETATM   10  O   UNL     1       5.784   1.294  18.849  1.00  0.00    -0.188 OA
ENDBRANCH   5   7
ENDBRANCH   4   5
ENDBRANCH   2   3
BRANCH   2  11
HETATM   11  C   UNL     1       6.397  -4.884  22.386  1.00  0.00     0.019 C 
HETATM   12  C   UNL     1       7.410  -5.732  21.838  1.00  0.00     0.013 C 
ENDBRANCH   2  11
ENDBRANCH   1   2
BRANCH   1  13
HETATM   13  C   UNL     1       8.787  -2.489  23.721  1.00  0.00     0.294 C 
HETATM   14  O   UNL     1       8.941  -2.571  24.926  1.00  0.00    -0.258 OA
HETATM   15  N   UNL     1       9.431  -1.732  22.811  1.00  0.00    -0.320 N 
HETATM   16  C   UNL     1      10.399  -1.051  23.238  1.00  0.00     0.020 A 
ATOM     17  HN  UNL     1       9.149  -1.712  21.831  1.00  0.00     0.169 HD
HETATM   18  C   UNL     1      11.686  -1.174  23.545  1.00  0.00     0.094 A 
HETATM   19  C   UNL     1      10.364   0.496  23.441  1.00  0.00     0.011 A 
HETATM   20  C   UNL     1      12.583  -0.292  23.999  1.00  0.00    -0.000 A 
HETATM   21  C   UNL     1      11.568   0.597  23.849  1.00  0.00     0.071 A 
BRANCH  20  22
HETATM   22  N   UNL     1      13.463  -0.649  24.201  1.00  0.00    -0.404 N 
ATOM     23  HN2 UNL     1      14.338  -0.826  24.695  1.00  0.00     0.155 HD
ATOM     24  HN1 UNL     1      13.865  -1.265  23.494  1.00  0.00     0.155 HD
ENDBRANCH  20  22
ENDBRANCH   1  13
TORSDOF 7
ENDMDL
MODEL 4
REMARK VINA RESULT:    -5.882      2.147      2.591
REMARK INTER + INTRA:          -8.703
REMARK INTER:                  -8.183
REMARK INTRA:                  -0.520
REMARK UNBOUND:                -0.586
REMARK  7 active torsions:
REMARK  status: ('A' for Active; 'I' for Inactive)
REMARK    1  A    between atoms: S_2  and  N_5 
REMARK    2  A    between atoms: N_5  and  C_7 
REMARK    3  A    between atoms: C_8  and  C_9 
REMARK    4  A    between atoms: C_9  and  C_12 
REMARK    5  A    between atoms: C_9  and  C_10 
REMARK    6  A    between atoms: C_12  and  C_13 
REMARK       I    between atoms: C_13  and  N_15 
REMARK    7  A    between atoms: N_19  and  C_22 
ROOT
HETATM    1  C   UNL     1       8.303  -1.258  22.832  1.00  0.00    -0.035 C 
ENDROOT
BRANCH   1   2
HETATM    2  C   UNL     1       9.133  -1.847  23.566  1.00  0.00     0.069 C 
BRANCH   2   3
HETATM    3  C   UNL     1       8.595  -2.991  24.129  1.00  0.00    -0.035 C 
HETATM    4  C   UNL     1       8.177  -3.887  24.684  1.00  0.00     0.027 C 
BRANCH   4   5
HETATM    5  N   UNL     1       7.637  -4.947  25.005  1.00  0.00    -0.229 N 
ATOM      6  HN  UNL     1       7.490  -5.673  24.305  1.00  0.00     0.190 HD
BRANCH   5   7
HETATM    7  S   UNL     1       7.166  -5.191  26.510  1.00  0.00     0.327 S 
HETATM    8 CL   UNL     1       6.139  -3.654  26.869  1.00  0.00     0.042 Cl
HETATM    9  O   UNL     1       6.301  -6.332  26.604  1.00  0.00    -0.188 OA
HETATM   10  O   UNL     1       8.258  -5.143  27.409  1.00  0.00    -0.188 OA
ENDBRANCH   5   7
ENDBRANCH   4   5
ENDBRANCH   2   3
BRANCH   2  11
HETATM   11  C   UNL     1      10.411  -1.238  23.774  1.00  0.00     0.019 C 
HETATM   12  C   UNL     1      11.271  -1.607  22.692  1.00  0.00     0.013 C 
ENDBRANCH   2  11
ENDBRANCH   1   2
BRANCH   1  13
HETATM   13  C   UNL     1       7.401  -1.017  21.844  1.00  0.00     0.294 C 
HETATM   14  O   UNL     1       6.469  -1.786  21.698  1.00  0.00    -0.258 OA
HETATM   15  N   UNL     1       7.756   0.066  21.125  1.00  0.00    -0.320 N 
HETATM   16  C   UNL     1       6.975   0.399  20.196  1.00  0.00     0.020 A 
ATOM     17  HN  UNL     1       8.611   0.587  21.322  1.00  0.00     0.169 HD
HETATM   18  C   UNL     1       5.839   1.060  19.996  1.00  0.00     0.094 A 
HETATM   19  C   UNL     1       7.270   0.184  18.679  1.00  0.00     0.011 A 
HETATM   20  C   UNL     1       5.142   1.319  18.885  1.00  0.00    -0.000 A 
HETATM   21  C   UNL     1       6.183   0.709  18.264  1.00  0.00     0.071 A 
BRANCH  20  22
HETATM   22  N   UNL     1       4.299   1.784  19.013  1.00  0.00    -0.404 N 
ATOM     23  HN2 UNL     1       3.597   2.524  18.987  1.00  0.00     0.155 HD
ATOM     24  HN1 UNL     1       3.571   1.260  19.499  1.00  0.00     0.155 HD
ENDBRANCH  20  22
ENDBRANCH   1  13
TORSDOF 7
ENDMDL
MODEL 5
REMARK VINA RESULT:    -5.861      3.462      5.501
REMARK INTER + INTRA:          -8.673
REMARK INTER:                  -8.081
REMARK INTRA:                  -0.593
REMARK UNBOUND:                -0.586
REMARK  7 active torsions:
REMARK  status: ('A' for Active; 'I' for Inactive)
REMARK    1  A    between atoms: S_2  and  N_5 
REMARK    2  A    between atoms: N_5  and  C_7 
REMARK    3  A    between atoms: C_8  and  C_9 
REMARK    4  A    between atoms: C_9  and  C_12 
REMARK    5  A    between atoms: C_9  and  C_10 
REMARK    6  A    between atoms: C_12  and  C_13 
REMARK       I    between atoms: C_13  and  N_15 
REMARK    7  A    between atoms: N_19  and  C_22 
ROOT
HETATM    1  C   UNL     1       9.608  -2.180  23.543  1.00  0.00    -0.035 C 
ENDROOT
BRANCH   1   2
HETATM    2  C   UNL     1      10.122  -1.040  23.435  1.00  0.00     0.069 C 
BRANCH   2   3
HETATM    3  C   UNL     1       9.381  -0.222  22.602  1.00  0.00    -0.035 C 
HETATM    4  C   UNL     1       8.864   0.482  21.879  1.00  0.00     0.027 C 
BRANCH   4   5
HETATM    5  N   UNL     1       8.049   1.112  21.202  1.00  0.00    -0.229 N 
ATOM      6  HN  UNL     1       7.974   2.123  21.312  1.00  0.00     0.190 HD
BRANCH   5   7
HETATM    7  S   UNL     1       7.112   0.358  20.156  1.00  0.00     0.327 S 
HETATM    8 CL   UNL     1       5.622   1.505  20.044  1.00  0.00     0.042 Cl
HETATM    9  O   UNL     1       7.723   0.301  18.858  1.00  0.00    -0.188 OA
HETATM   10  O   UNL     1       6.620  -0.861  20.683  1.00  0.00    -0.188 OA
ENDBRANCH   5   7
ENDBRANCH   4   5
ENDBRANCH   2   3
BRANCH   2  11
HETATM   11  C   UNL     1      11.376  -0.795  24.080  1.00  0.00     0.019 C 
HETATM   12  C   UNL     1      11.589   0.618  24.136  1.00  0.00     0.013 C 
ENDBRANCH   2  11
ENDBRANCH   1   2
BRANCH   1  13
HETATM   13  C   UNL     1       8.684  -3.172  23.637  1.00  0.00     0.294 C 
HETATM   14  O   UNL     1       8.574  -3.775  24.689  1.00  0.00    -0.258 OA
HETATM   15  N   UNL     1       8.058  -3.359  22.459  1.00  0.00    -0.320 N 
HETATM   16  C   UNL     1       7.159  -4.239  22.438  1.00  0.00     0.020 A 
ATOM     17  HN  UNL     1       8.300  -2.817  21.629  1.00  0.00     0.169 HD
HETATM   18  C   UNL     1       5.880  -4.410  22.757  1.00  0.00     0.094 A 
HETATM   19  C   UNL     1       7.312  -5.636  21.760  1.00  0.00     0.011 A 
HETATM   20  C   UNL     1       5.067  -5.466  22.649  1.00  0.00    -0.000 A 
HETATM   21  C   UNL     1       6.135  -6.042  22.041  1.00  0.00     0.071 A 
BRANCH  20  22
HETATM   22  N   UNL     1       4.173  -5.350  23.010  1.00  0.00    -0.404 N 
ATOM     23  HN2 UNL     1       3.243  -4.961  23.165  1.00  0.00     0.155 HD
ATOM     24  HN1 UNL     1       3.895  -6.016  23.731  1.00  0.00     0.155 HD
ENDBRANCH  20  22
ENDBRANCH   1  13
TORSDOF 7
ENDMDL
MODEL 6
REMARK VINA RESULT:    -5.796      3.655      5.150
REMARK INTER + INTRA:          -8.584
REMARK INTER:                  -8.168
REMARK INTRA:                  -0.416
REMARK UNBOUND:                -0.586
REMARK  7 active torsions:
REMARK  status: ('A' for Active; 'I' for Inactive)
REMARK    1  A    between atoms: S_2  and  N_5 
REMARK    2  A    between atoms: N_5  and  C_7 
REMARK    3  A    between atoms: C_8  and  C_9 
REMARK    4  A    between atoms: C_9  and  C_12 
REMARK    5  A    between atoms: C_9  and  C_10 
REMARK    6  A    between atoms: C_12  and  C_13 
REMARK       I    between atoms: C_13  and  N_15 
REMARK    7  A    between atoms: N_19  and  C_22 
ROOT
HETATM    1  C   UNL     1      10.780   0.476  23.039  1.00  0.00    -0.035 C 
ENDROOT
BRANCH   1   2
HETATM    2  C   UNL     1      11.176  -0.669  23.363  1.00  0.00     0.069 C 
BRANCH   2   3
HETATM    3  C   UNL     1      10.227  -1.635  23.083  1.00  0.00    -0.035 C 
HETATM    4  C   UNL     1       9.509  -2.496  22.905  1.00  0.00     0.027 C 
BRANCH   4   5
HETATM    5  N   UNL     1       8.554  -3.209  22.594  1.00  0.00    -0.229 N 
ATOM      6  HN  UNL     1       8.260  -3.264  21.619  1.00  0.00     0.190 HD
BRANCH   5   7
HETATM    7  S   UNL     1       7.773  -4.046  23.704  1.00  0.00     0.327 S 
HETATM    8 CL   UNL     1       7.398  -5.659  22.807  1.00  0.00     0.042 Cl
HETATM    9  O   UNL     1       8.624  -4.349  24.820  1.00  0.00    -0.188 OA
HETATM   10  O   UNL     1       6.515  -3.469  24.000  1.00  0.00    -0.188 OA
ENDBRANCH   5   7
ENDBRANCH   4   5
ENDBRANCH   2   3
BRANCH   2  11
HETATM   11  C   UNL     1      12.442  -0.792  24.020  1.00  0.00     0.019 C 
HETATM   12  C   UNL     1      13.285  -1.632  23.227  1.00  0.00     0.013 C 
ENDBRANCH   2  11
ENDBRANCH   1   2
BRANCH   1  13
HETATM   13  C   UNL     1      10.769   1.814  22.795  1.00  0.00     0.294 C 
HETATM   14  O   UNL     1      10.514   2.203  21.670  1.00  0.00    -0.258 OA
HETATM   15  N   UNL     1      11.120   2.506  23.896  1.00  0.00    -0.320 N 
HETATM   16  C   UNL     1      11.118   3.760  23.791  1.00  0.00     0.020 A 
ATOM     17  HN  UNL     1      11.375   2.039  24.767  1.00  0.00     0.169 HD
HETATM   18  C   UNL     1      10.282   4.792  23.823  1.00  0.00     0.094 A 
HETATM   19  C   UNL     1      12.405   4.638  23.704  1.00  0.00     0.011 A 
HETATM   20  C   UNL     1      10.482   6.107  23.689  1.00  0.00    -0.000 A 
HETATM   21  C   UNL     1      11.791   5.754  23.635  1.00  0.00     0.071 A 
BRANCH  20  22
HETATM   22  N   UNL     1       9.684   6.660  23.698  1.00  0.00    -0.404 N 
ATOM     23  HN2 UNL     1       8.845   7.142  23.374  1.00  0.00     0.155 HD
ATOM     24  HN1 UNL     1       9.465   7.109  24.588  1.00  0.00     0.155 HD
ENDBRANCH  20  22
ENDBRANCH   1  13
TORSDOF 7
ENDMDL
MODEL 7
REMARK VINA RESULT:    -5.737      3.315      4.446
REMARK INTER + INTRA:          -8.504
REMARK INTER:                  -7.903
REMARK INTRA:                  -0.600
REMARK UNBOUND:                -0.586
REMARK  7 active torsions:
REMARK  status: ('A' for Active; 'I' for Inactive)
REMARK    1  A    between atoms: S_2  and  N_5 
REMARK    2  A    between atoms: N_5  and  C_7 
REMARK    3  A    between atoms: C_8  and  C_9 
REMARK    4  A    between atoms: C_9  and  C_12 
REMARK    5  A    between atoms: C_9  and  C_10 
REMARK    6  A    between atoms: C_12  and  C_13 
REMARK       I    between atoms: C_13  and  N_15 
REMARK    7  A    between atoms: N_19  and  C_22 
ROOT
HETATM    1  C   UNL     1       7.035  -2.230  22.279  1.00  0.00    -0.035 C 
ENDROOT
BRANCH   1   2
HETATM    2  C   UNL     1       7.723  -3.054  22.927  1.00  0.00     0.069 C 
BRANCH   2   3
HETATM    3  C   UNL     1       9.004  -2.585  23.154  1.00  0.00    -0.035 C 
HETATM    4  C   UNL     1      10.084  -2.253  23.254  1.00  0.00     0.027 C 
BRANCH   4   5
HETATM    5  N   UNL     1      11.143  -1.720  23.589  1.00  0.00    -0.229 N 
ATOM      6  HN  UNL     1      12.006  -2.263  23.589  1.00  0.00     0.190 HD
BRANCH   5   7
HETATM    7  S   UNL     1      11.174  -0.186  24.024  1.00  0.00     0.327 S 
HETATM    8 CL   UNL     1      13.013   0.124  24.291  1.00  0.00     0.042 Cl
HETATM    9  O   UNL     1      10.733   0.666  22.956  1.00  0.00    -0.188 OA
HETATM   10  O   UNL     1      10.564   0.008  25.287  1.00  0.00    -0.188 OA
ENDBRANCH   5   7
ENDBRANCH   4   5
ENDBRANCH   2   3
BRANCH   2  11
HETATM   11  C   UNL     1       7.144  -4.325  23.243  1.00  0.00     0.019 C 
HETATM   12  C   UNL     1       7.212  -5.156  22.080  1.00  0.00     0.013 C 
ENDBRANCH   2  11
ENDBRANCH   1   2
BRANCH   1  13
HETATM   13  C   UNL     1       6.372  -1.628  21.256  1.00  0.00     0.294 C 
HETATM   14  O   UNL     1       5.445  -2.216  20.729  1.00  0.00    -0.258 OA
HETATM   15  N   UNL     1       6.933  -0.440  20.954  1.00  0.00    -0.320 N 
HETATM   16  C   UNL     1       6.381   0.219  20.035  1.00  0.00     0.020 A 
ATOM     17  HN  UNL     1       7.759  -0.095  21.443  1.00  0.00     0.169 HD
HETATM   18  C   UNL     1       5.354   1.036  19.831  1.00  0.00     0.094 A 
HETATM   19  C   UNL     1       6.969   0.388  18.599  1.00  0.00     0.011 A 
HETATM   20  C   UNL     1       4.917   1.664  18.733  1.00  0.00    -0.000 A 
HETATM   21  C   UNL     1       6.025   1.127  18.163  1.00  0.00     0.071 A 
BRANCH  20  22
HETATM   22  N   UNL     1       4.096   2.173  18.835  1.00  0.00    -0.404 N 
ATOM     23  HN2 UNL     1       3.449   2.904  19.133  1.00  0.00     0.155 HD
ATOM     24  HN1 UNL     1       3.272   1.783  18.377  1.00  0.00     0.155 HD
ENDBRANCH  20  22
ENDBRANCH   1  13
TORSDOF 7
ENDMDL
MODEL 8
REMARK VINA RESULT:    -5.733      4.571      6.139
REMARK INTER + INTRA:          -8.497
REMARK INTER:                  -7.841
REMARK INTRA:                  -0.656
REMARK UNBOUND:                -0.586
REMARK  7 active torsions:
REMARK  status: ('A' for Active; 'I' for Inactive)
REMARK    1  A    between atoms: S_2  and  N_5 
REMARK    2  A    between atoms: N_5  and  C_7 
REMARK    3  A    between atoms: C_8  and  C_9 
REMARK    4  A    between atoms: C_9  and  C_12 
REMARK    5  A    between atoms: C_9  and  C_10 
REMARK    6  A    between atoms: C_12  and  C_13 
REMARK       I    between atoms: C_13  and  N_15 
REMARK    7  A    between atoms: N_19  and  C_22 
ROOT
HETATM    1  C   UNL     1      10.926  -0.682  24.294  1.00  0.00    -0.035 C 
ENDROOT
BRANCH   1   2
HETATM    2  C   UNL     1      11.915   0.076  24.147  1.00  0.00     0.069 C 
BRANCH   2   3
HETATM    3  C   UNL     1      11.527   1.378  23.890  1.00  0.00    -0.035 C 
HETATM    4  C   UNL     1      11.297   2.477  23.728  1.00  0.00     0.027 C 
BRANCH   4   5
HETATM    5  N   UNL     1      10.813   3.558  23.388  1.00  0.00    -0.229 N 
ATOM      6  HN  UNL     1      11.391   4.241  22.899  1.00  0.00     0.190 HD
BRANCH   5   7
HETATM    7  S   UNL     1       9.288   3.897  23.708  1.00  0.00     0.327 S 
HETATM    8 CL   UNL     1       8.367   2.901  22.402  1.00  0.00     0.042 Cl
HETATM    9  O   UNL     1       8.904   3.396  24.998  1.00  0.00    -0.188 OA
HETATM   10  O   UNL     1       8.990   5.254  23.438  1.00  0.00    -0.188 OA
ENDBRANCH   5   7
ENDBRANCH   4   5
ENDBRANCH   2   3
BRANCH   2  11
HETATM   11  C   UNL     1      13.225  -0.501  24.174  1.00  0.00     0.019 C 
HETATM   12  C   UNL     1      13.272  -1.566  23.221  1.00  0.00     0.013 C 
ENDBRANCH   2  11
ENDBRANCH   1   2
BRANCH   1  13
HETATM   13  C   UNL     1       9.667  -1.187  24.211  1.00  0.00     0.294 C 
HETATM   14  O   UNL     1       8.804  -0.737  24.942  1.00  0.00    -0.258 OA
HETATM   15  N   UNL     1       9.613  -2.195  23.319  1.00  0.00    -0.320 N 
HETATM   16  C   UNL     1       8.484  -2.721  23.140  1.00  0.00     0.020 A 
ATOM     17  HN  UNL     1      10.441  -2.515  22.816  1.00  0.00     0.169 HD
HETATM   18  C   UNL     1       7.351  -2.523  22.474  1.00  0.00     0.094 A 
HETATM   19  C   UNL     1       8.074  -4.129  23.676  1.00  0.00     0.011 A 
HETATM   20  C   UNL     1       6.218  -3.231  22.410  1.00  0.00    -0.000 A 
HETATM   21  C   UNL     1       6.895  -4.111  23.189  1.00  0.00     0.071 A 
BRANCH  20  22
HETATM   22  N   UNL     1       5.503  -2.838  21.882  1.00  0.00    -0.404 N 
ATOM     23  HN2 UNL     1       5.028  -2.313  21.148  1.00  0.00     0.155 HD
ATOM     24  HN1 UNL     1       4.556  -3.003  22.224  1.00  0.00     0.155 HD
ENDBRANCH  20  22
ENDBRANCH   1  13
TORSDOF 7
ENDMDL
MODEL 9
REMARK VINA RESULT:    -5.619     15.012     16.165
REMARK INTER + INTRA:          -8.340
REMARK INTER:                  -7.798
REMARK INTRA:                  -0.542
REMARK UNBOUND:                -0.586
REMARK  7 active torsions:
REMARK  status: ('A' for Active; 'I' for Inactive)
REMARK    1  A    between atoms: S_2  and  N_5 
REMARK    2  A    between atoms: N_5  and  C_7 
REMARK    3  A    between atoms: C_8  and  C_9 
REMARK    4  A    between atoms: C_9  and  C_12 
REMARK    5  A    between atoms: C_9  and  C_10 
REMARK    6  A    between atoms: C_12  and  C_13 
REMARK       I    between atoms: C_13  and  N_15 
REMARK    7  A    between atoms: N_19  and  C_22 
ROOT
HETATM    1  C   UNL     1      22.869  -1.422  23.156  1.00  0.00    -0.035 C 
ENDROOT
BRANCH   1   2
HETATM    2  C   UNL     1      22.117  -1.800  24.086  1.00  0.00     0.069 C 
BRANCH   2   3
HETATM    3  C   UNL     1      22.645  -2.886  24.760  1.00  0.00    -0.035 C 
HETATM    4  C   UNL     1      23.134  -3.797  25.226  1.00  0.00     0.027 C 
BRANCH   4   5
HETATM    5  N   UNL     1      23.516  -4.692  25.983  1.00  0.00    -0.229 N 
ATOM      6  HN  UNL     1      23.351  -4.611  26.986  1.00  0.00     0.190 HD
BRANCH   5   7
HETATM    7  S   UNL     1      24.266  -5.974  25.405  1.00  0.00     0.327 S 
HETATM    8 CL   UNL     1      26.081  -5.502  25.591  1.00  0.00     0.042 Cl
HETATM    9  O   UNL     1      24.025  -7.130  26.222  1.00  0.00    -0.188 OA
HETATM   10  O   UNL     1      24.048  -6.121  24.014  1.00  0.00    -0.188 OA
ENDBRANCH   5   7
ENDBRANCH   4   5
ENDBRANCH   2   3
BRANCH   2  11
HETATM   11  C   UNL     1      20.854  -1.147  24.249  1.00  0.00     0.019 C 
HETATM   12  C   UNL     1      20.488  -1.204  25.631  1.00  0.00     0.013 C 
ENDBRANCH   2  11
ENDBRANCH   1   2
BRANCH   1  13
HETATM   13  C   UNL     1      23.489  -1.354  21.948  1.00  0.00     0.294 C 
HETATM   14  O   UNL     1      24.589  -0.837  21.880  1.00  0.00    -0.258 OA
HETATM   15  N   UNL     1      22.701  -1.852  20.975  1.00  0.00    -0.320 N 
HETATM   16  C   UNL     1      23.187  -1.864  19.815  1.00  0.00     0.020 A 
ATOM     17  HN  UNL     1      21.761  -2.199  21.169  1.00  0.00     0.169 HD
HETATM   18  C   UNL     1      24.004  -2.581  19.050  1.00  0.00     0.094 A 
HETATM   19  C   UNL     1      22.761  -0.890  18.672  1.00  0.00     0.011 A 
HETATM   20  C   UNL     1      24.409  -2.424  17.785  1.00  0.00    -0.000 A 
HETATM   21  C   UNL     1      23.545  -1.378  17.792  1.00  0.00     0.071 A 
BRANCH  20  22
HETATM   22  N   UNL     1      25.064  -3.068  17.468  1.00  0.00    -0.404 N 
ATOM     23  HN2 UNL     1      25.891  -3.450  17.009  1.00  0.00     0.155 HD
ATOM     24  HN1 UNL     1      24.869  -4.044  17.687  1.00  0.00     0.155 HD
ENDBRANCH  20  22
ENDBRANCH   1  13
TORSDOF 7
ENDMDL
