stable:False satoms:3 tatoms:24 sratio:0.125
  -OEChem-08062414343D

 43 44  0     1  0  0  0  0  0999 V2000
    6.6450   -5.4072   26.0273 C   0  0  0  0  0  0  0  0  0  0  0  0
    8.2372   -4.7873   25.8589 S   0  0  0  0  0  0  0  0  0  0  0  0
    9.1800   -5.8922   25.7450 O   0  0  0  0  0  0  0  0  0  0  0  0
    8.5259   -3.9336   26.9666 O   0  0  0  0  0  0  0  0  0  0  0  0
    8.1932   -3.9594   24.4764 N   0  0  0  0  0  0  0  0  0  0  0  0
    8.9915   -3.2744   24.0089 C   0  0  0  0  0  0  0  0  0  0  0  0
    9.4208   -2.2781   23.4621 C   0  0  0  0  0  0  0  0  0  0  0  0
   10.2515   -1.3436   23.2160 C   0  0  1  0  0  0  0  0  0  0  0  0
   10.8195   -0.2240   24.4225 C   0  0  0  0  0  0  0  0  0  0  0  0
   11.8488    0.1002   24.4129 C   0  0  0  0  0  0  0  0  0  0  0  0
   12.9247   -0.1635   23.7933 C   0  0  0  0  0  0  0  0  0  0  0  0
   12.6691   -1.2634   22.8432 C   0  0  0  0  0  0  0  0  0  0  0  0
   11.7421   -1.7647   22.6185 C   0  0  0  0  0  0  0  0  0  0  0  0
    9.6156   -0.7618   22.3421 C   0  0  0  0  0  0  0  0  0  0  0  0
    8.9718   -0.1310   21.4042 C   0  0  0  0  0  0  0  0  0  0  0  0
    9.4500    0.8369   21.0564 O   0  0  0  0  0  0  0  0  0  0  0  0
    7.8549   -0.8012   21.0707 N   0  0  0  0  0  0  0  0  0  0  0  0
    7.2019   -0.3060   20.1500 C   0  0  0  0  0  0  0  0  0  0  0  0
    7.2878   -0.1246   18.9424 C   0  0  0  0  0  0  0  0  0  0  0  0
    6.8825    0.1985   17.7208 N   0  0  0  0  0  0  0  0  0  0  0  0
    5.7642    0.5897   18.2121 C   0  0  0  0  0  0  0  0  0  0  0  0
    5.2495    0.6569   19.2934 C   0  0  0  0  0  0  0  0  0  0  0  0
    5.7149    0.2699   20.5068 C   0  0  0  0  0  0  0  0  0  0  0  0
    5.1915    0.2762   21.7902 C   0  0  0  0  0  0  0  0  0  0  0  0
    6.5759   -5.9946   26.9547 H   0  0  0  0  0  0  0  0  0  0  0  0
    5.9292   -4.5730   26.0676 H   0  0  0  0  0  0  0  0  0  0  0  0
    6.4096   -6.0512   25.1671 H   0  0  0  0  0  0  0  0  0  0  0  0
    7.3872   -3.3742   24.5648 H   0  0  0  0  0  0  0  0  0  0  0  0
   10.1431    0.1454   25.1791 H   0  0  0  0  0  0  0  0  0  0  0  0
   12.0110    0.8770   25.1454 H   0  0  0  0  0  0  0  0  0  0  0  0
   13.8717    0.3353   23.9377 H   0  0  0  0  0  0  0  0  0  0  0  0
   13.5317   -1.6150   22.2968 H   0  0  0  0  0  0  0  0  0  0  0  0
   11.6419   -1.7150   21.5242 H   0  0  0  0  0  0  0  0  0  0  0  0
   11.8943   -2.8099   22.9256 H   0  0  0  0  0  0  0  0  0  0  0  0
    8.9602   -0.3151   23.1043 H   0  0  0  0  0  0  0  0  0  0  0  0
    9.1877   -1.7174   22.0051 H   0  0  0  0  0  0  0  0  0  0  0  0
    7.5743   -1.6407   21.5360 H   0  0  0  0  0  0  0  0  0  0  0  0
    8.3199   -0.3863   18.7613 H   0  0  0  0  0  0  0  0  0  0  0  0
    5.1053    0.9601   17.4406 H   0  0  0  0  0  0  0  0  0  0  0  0
    4.2617    1.0935   19.3019 H   0  0  0  0  0  0  0  0  0  0  0  0
    4.6557   -0.6669   21.9728 H   0  0  0  0  0  0  0  0  0  0  0  0
    6.0089    0.3804   22.5189 H   0  0  0  0  0  0  0  0  0  0  0  0
    4.4946    1.1205   21.8976 H   0  0  0  0  0  0  0  0  0  0  0  0
 20 21  2  0  0  0  0
 19 20  1  0  0  0  0
 21 22  1  0  0  0  0
 18 19  2  0  0  0  0
 22 23  2  0  0  0  0
 18 23  1  0  0  0  0
 17 18  1  0  0  0  0
 23 24  1  0  0  0  0
 15 16  2  0  0  0  0
 15 17  1  0  0  0  0
 14 15  1  0  0  0  0
  8 14  1  0  0  0  0
 12 13  1  0  0  0  0
  8 13  1  0  0  0  0
 11 12  2  0  0  0  0
  7  8  1  0  0  0  0
  8  9  1  0  0  0  0
  6  7  3  0  0  0  0
 10 11  1  0  0  0  0
  5  6  1  0  0  0  0
  9 10  2  0  0  0  0
  2  5  1  0  0  0  0
  2  3  2  0  0  0  0
  1  2  1  0  0  0  0
  2  4  2  0  0  0  0
  1 25  1  0  0  0  0
  1 26  1  0  0  0  0
  1 27  1  0  0  0  0
  5 28  1  0  0  0  0
  9 29  1  0  0  0  0
 10 30  1  0  0  0  0
 11 31  1  0  0  0  0
 12 32  1  0  0  0  0
 13 33  1  0  0  0  0
 13 34  1  0  0  0  0
 14 35  1  0  0  0  0
 14 36  1  0  0  0  0
 17 37  1  0  0  0  0
 19 38  1  0  0  0  0
 21 39  1  0  0  0  0
 22 40  1  0  0  0  0
 24 41  1  0  0  0  0
 24 42  1  0  0  0  0
 24 43  1  0  0  0  0
M  END
> <Chemgauss4>
-12.891340

$$$$
