stable:False satoms:3 tatoms:24 sratio:0.125
  -OEChem-08062414343D

 43 44  0     1  0  0  0  0  0999 V2000
   -6.5348   -4.5318  -26.7347 C   0  0  0  0  0  0  0  0  0  0  0  0
   -8.1901   -4.1701  -26.4581 S   0  0  0  0  0  0  0  0  0  0  0  0
   -8.9564   -5.4081  -26.4046 O   0  0  0  0  0  0  0  0  0  0  0  0
   -8.6519   -3.2845  -27.4786 O   0  0  0  0  0  0  0  0  0  0  0  0
   -8.2010   -3.4559  -25.0129 N   0  0  0  0  0  0  0  0  0  0  0  0
   -9.0669   -2.9357  -24.4612 C   0  0  0  0  0  0  0  0  0  0  0  0
   -9.6096   -2.0601  -23.8172 C   0  0  0  0  0  0  0  0  0  0  0  0
  -10.5543   -1.2813  -23.4636 C   0  0  1  0  0  0  0  0  0  0  0  0
  -11.3353   -0.1672  -24.5502 C   0  0  0  0  0  0  0  0  0  0  0  0
  -12.3991   -0.0011  -24.4766 C   0  0  0  0  0  0  0  0  0  0  0  0
  -13.3947   -0.4692  -23.8437 C   0  0  0  0  0  0  0  0  0  0  0  0
  -12.9375   -1.5901  -22.9998 C   0  0  0  0  0  0  0  0  0  0  0  0
  -11.9380   -1.9644  -22.8513 C   0  0  0  0  0  0  0  0  0  0  0  0
   -9.9686   -0.6819  -22.5668 C   0  0  0  0  0  0  0  0  0  0  0  0
   -9.3791   -0.0382  -21.6023 C   0  0  0  0  0  0  0  0  0  0  0  0
   -9.9755    0.8177  -21.1571 O   0  0  0  0  0  0  0  0  0  0  0  0
   -8.1624   -0.5594  -21.3666 N   0  0  0  0  0  0  0  0  0  0  0  0
   -7.5450   -0.0465  -20.4311 C   0  0  0  0  0  0  0  0  0  0  0  0
   -7.5988    0.0248  -19.2102 C   0  0  0  0  0  0  0  0  0  0  0  0
   -7.1869    0.3076  -17.9808 N   0  0  0  0  0  0  0  0  0  0  0  0
   -6.1617    0.8977  -18.4766 C   0  0  0  0  0  0  0  0  0  0  0  0
   -5.7142    1.1251  -19.5659 C   0  0  0  0  0  0  0  0  0  0  0  0
   -6.1758    0.7698  -20.7904 C   0  0  0  0  0  0  0  0  0  0  0  0
   -5.7205    0.9543  -22.0864 C   0  0  0  0  0  0  0  0  0  0  0  0
   -6.4254   -5.0279  -27.7104 H   0  0  0  0  0  0  0  0  0  0  0  0
   -5.9502   -3.6001  -26.7297 H   0  0  0  0  0  0  0  0  0  0  0  0
   -6.1678   -5.1992  -25.9410 H   0  0  0  0  0  0  0  0  0  0  0  0
   -7.4934   -2.7525  -25.0801 H   0  0  0  0  0  0  0  0  0  0  0  0
  -10.7563    0.3566  -25.2963 H   0  0  0  0  0  0  0  0  0  0  0  0
  -12.7068    0.7981  -25.1346 H   0  0  0  0  0  0  0  0  0  0  0  0
  -14.4097   -0.1067  -23.9117 H   0  0  0  0  0  0  0  0  0  0  0  0
  -13.7131   -2.1076  -22.4547 H   0  0  0  0  0  0  0  0  0  0  0  0
  -11.7941   -1.9864  -21.7609 H   0  0  0  0  0  0  0  0  0  0  0  0
  -11.9515   -2.9933  -23.2401 H   0  0  0  0  0  0  0  0  0  0  0  0
   -9.4218   -0.0846  -23.3112 H   0  0  0  0  0  0  0  0  0  0  0  0
   -9.3912   -1.5870  -22.3272 H   0  0  0  0  0  0  0  0  0  0  0  0
   -7.7855   -1.3089  -21.9109 H   0  0  0  0  0  0  0  0  0  0  0  0
   -8.5722   -0.4004  -19.0153 H   0  0  0  0  0  0  0  0  0  0  0  0
   -5.5276    1.3001  -17.7005 H   0  0  0  0  0  0  0  0  0  0  0  0
   -4.8017    1.7027  -19.5726 H   0  0  0  0  0  0  0  0  0  0  0  0
   -5.0629    0.1183  -22.3671 H   0  0  0  0  0  0  0  0  0  0  0  0
   -6.5781    0.9929  -22.7742 H   0  0  0  0  0  0  0  0  0  0  0  0
   -5.1592    1.8984  -22.1468 H   0  0  0  0  0  0  0  0  0  0  0  0
 20 21  2  0  0  0  0
 19 20  1  0  0  0  0
 21 22  1  0  0  0  0
 18 19  2  0  0  0  0
 22 23  2  0  0  0  0
 18 23  1  0  0  0  0
 17 18  1  0  0  0  0
 23 24  1  0  0  0  0
 15 16  2  0  0  0  0
 15 17  1  0  0  0  0
 14 15  1  0  0  0  0
  8 14  1  0  0  0  0
 12 13  1  0  0  0  0
  8 13  1  0  0  0  0
 11 12  2  0  0  0  0
  7  8  1  0  0  0  0
  8  9  1  0  0  0  0
  6  7  3  0  0  0  0
 10 11  1  0  0  0  0
  5  6  1  0  0  0  0
  9 10  2  0  0  0  0
  2  5  1  0  0  0  0
  2  3  2  0  0  0  0
  1  2  1  0  0  0  0
  2  4  2  0  0  0  0
  1 25  1  0  0  0  0
  1 26  1  0  0  0  0
  1 27  1  0  0  0  0
  5 28  1  0  0  0  0
  9 29  1  0  0  0  0
 10 30  1  0  0  0  0
 11 31  1  0  0  0  0
 12 32  1  0  0  0  0
 13 33  1  0  0  0  0
 13 34  1  0  0  0  0
 14 35  1  0  0  0  0
 14 36  1  0  0  0  0
 17 37  1  0  0  0  0
 19 38  1  0  0  0  0
 21 39  1  0  0  0  0
 22 40  1  0  0  0  0
 24 41  1  0  0  0  0
 24 42  1  0  0  0  0
 24 43  1  0  0  0  0
M  END
> <Chemgauss4>
-13.001207

$$$$
