MODEL 1
REMARK VINA RESULT:    -6.247      0.000      0.000
REMARK INTER + INTRA:         -11.297
REMARK INTER:                  -9.899
REMARK INTRA:                  -1.398
REMARK UNBOUND:                -1.398
REMARK  10 active torsions:
REMARK  status: ('A' for Active; 'I' for Inactive)
REMARK    1  A    between atoms: S_2  and  N_5 
REMARK    2  A    between atoms: C_7  and  C_8 
REMARK    3  A    between atoms: C_8  and  C_9 
REMARK    4  A    between atoms: C_9  and  C_15 
REMARK    5  A    between atoms: C_9  and  C_10 
REMARK    6  A    between atoms: C_10  and  C_11 
REMARK    7  A    between atoms: C_11  and  C_12 
REMARK    8  A    between atoms: C_12  and  C_13 
REMARK    9  A    between atoms: C_15  and  C_16 
REMARK       I    between atoms: C_16  and  N_18 
REMARK   10  A    between atoms: N_18  and  C_20 
ROOT
HETATM    1  C   UNL     1       9.944  -1.548  22.163  1.00  0.00     0.109 C 
ENDROOT
BRANCH   1   2
HETATM    2  C   UNL     1       8.997  -2.283  22.624  1.00  0.00     0.011 C 
BRANCH   2   3
HETATM    3  C   UNL     1       8.123  -3.049  22.578  1.00  0.00     0.097 C 
HETATM    4  N   UNL     1       7.510  -4.104  22.341  1.00  0.00    -0.296 N 
ATOM      5  HN  UNL     1       8.008  -4.979  22.505  1.00  0.00     0.177 HD
BRANCH   4   6
HETATM    6  S   UNL     1       6.001  -4.210  21.801  1.00  0.00     0.226 S 
HETATM    7  C   UNL     1       4.997  -4.188  23.258  1.00  0.00     0.186 C 
HETATM    8  O   UNL     1       5.614  -3.031  21.041  1.00  0.00    -0.206 OA
HETATM    9  O   UNL     1       5.703  -5.432  21.109  1.00  0.00    -0.206 OA
ENDBRANCH   4   6
ENDBRANCH   2   3
ENDBRANCH   1   2
BRANCH   1  10
HETATM   10  C   UNL     1       9.263  -0.677  21.714  1.00  0.00    -0.071 C 
BRANCH  10  11
HETATM   11  C   UNL     1       8.454   0.260  21.216  1.00  0.00     0.289 C 
HETATM   12  O   UNL     1       8.902   1.303  21.078  1.00  0.00    -0.259 OA
HETATM   13  N   UNL     1       7.221  -0.249  21.002  1.00  0.00    -0.315 N 
ATOM     14  HN  UNL     1       6.986  -1.212  21.244  1.00  0.00     0.170 HD
BRANCH  13  15
HETATM   15  C   UNL     1       6.391   0.519  20.495  1.00  0.00     0.060 A 
HETATM   16  C   UNL     1       5.754   1.567  20.750  1.00  0.00     0.117 A 
HETATM   17  N   UNL     1       4.963   2.541  20.528  1.00  0.00    -0.373 N 
HETATM   18  C   UNL     1       4.653   2.173  19.383  1.00  0.00     0.088 A 
ATOM     19  HN  UNL     1       4.682   3.342  21.094  1.00  0.00     0.164 HD
HETATM   20  C   UNL     1       5.013   1.169  18.695  1.00  0.00     0.030 A 
HETATM   21  C   UNL     1       5.872   0.193  18.975  1.00  0.00    -0.016 A 
HETATM   22  C   UNL     1       6.202  -0.670  18.430  1.00  0.00     0.026 C 
ENDBRANCH  13  15
ENDBRANCH  10  11
ENDBRANCH   1  10
BRANCH   1  23
HETATM   23  C   UNL     1      11.316  -1.029  22.930  1.00  0.00    -0.006 C 
BRANCH  23  24
HETATM   24  C   UNL     1      11.362  -0.657  23.959  1.00  0.00    -0.002 C 
BRANCH  24  25
HETATM   25  C   UNL     1      11.633   0.665  24.428  1.00  0.00    -0.001 C 
BRANCH  25  26
HETATM   26  C   UNL     1      10.616   1.475  24.296  1.00  0.00    -0.010 C 
HETATM   27  C   UNL     1       9.651   1.593  24.751  1.00  0.00     0.011 C 
ENDBRANCH  25  26
ENDBRANCH  24  25
ENDBRANCH  23  24
ENDBRANCH   1  23
TORSDOF 10
ENDMDL
MODEL 2
REMARK VINA RESULT:    -6.029      2.222      2.285
REMARK INTER + INTRA:         -10.951
REMARK INTER:                  -9.730
REMARK INTRA:                  -1.221
REMARK UNBOUND:                -1.398
REMARK  10 active torsions:
REMARK  status: ('A' for Active; 'I' for Inactive)
REMARK    1  A    between atoms: S_2  and  N_5 
REMARK    2  A    between atoms: C_7  and  C_8 
REMARK    3  A    between atoms: C_8  and  C_9 
REMARK    4  A    between atoms: C_9  and  C_15 
REMARK    5  A    between atoms: C_9  and  C_10 
REMARK    6  A    between atoms: C_10  and  C_11 
REMARK    7  A    between atoms: C_11  and  C_12 
REMARK    8  A    between atoms: C_12  and  C_13 
REMARK    9  A    between atoms: C_15  and  C_16 
REMARK       I    between atoms: C_16  and  N_18 
REMARK   10  A    between atoms: N_18  and  C_20 
ROOT
HETATM    1  C   UNL     1      10.016  -1.736  22.220  1.00  0.00     0.109 C 
ENDROOT
BRANCH   1   2
HETATM    2  C   UNL     1       9.172  -2.296  23.008  1.00  0.00     0.011 C 
BRANCH   2   3
HETATM    3  C   UNL     1       8.712  -2.609  24.030  1.00  0.00     0.097 C 
HETATM    4  N   UNL     1       8.603  -2.771  25.258  1.00  0.00    -0.296 N 
ATOM      5  HN  UNL     1       8.926  -2.013  25.858  1.00  0.00     0.177 HD
BRANCH   4   6
HETATM    6  S   UNL     1       7.996  -4.070  25.981  1.00  0.00     0.226 S 
HETATM    7  C   UNL     1       6.458  -3.528  26.668  1.00  0.00     0.186 C 
HETATM    8  O   UNL     1       7.652  -5.111  25.025  1.00  0.00    -0.206 OA
HETATM    9  O   UNL     1       8.786  -4.566  27.072  1.00  0.00    -0.206 OA
ENDBRANCH   4   6
ENDBRANCH   2   3
ENDBRANCH   1   2
BRANCH   1  10
HETATM   10  C   UNL     1       9.304  -0.866  21.819  1.00  0.00    -0.071 C 
BRANCH  10  11
HETATM   11  C   UNL     1       8.522   0.089  21.313  1.00  0.00     0.289 C 
HETATM   12  O   UNL     1       9.018   1.097  21.095  1.00  0.00    -0.259 OA
HETATM   13  N   UNL     1       7.253  -0.358  21.191  1.00  0.00    -0.315 N 
ATOM     14  HN  UNL     1       6.979  -1.292  21.496  1.00  0.00     0.170 HD
BRANCH  13  15
HETATM   15  C   UNL     1       6.440   0.430  20.686  1.00  0.00     0.060 A 
HETATM   16  C   UNL     1       5.896   1.537  20.904  1.00  0.00     0.117 A 
HETATM   17  N   UNL     1       5.158   2.548  20.664  1.00  0.00    -0.373 N 
HETATM   18  C   UNL     1       4.736   2.122  19.576  1.00  0.00     0.088 A 
ATOM     19  HN  UNL     1       4.977   3.407  21.184  1.00  0.00     0.164 HD
HETATM   20  C   UNL     1       4.974   1.046  18.945  1.00  0.00     0.030 A 
HETATM   21  C   UNL     1       5.784   0.033  19.238  1.00  0.00    -0.016 A 
HETATM   22  C   UNL     1       6.011  -0.889  18.739  1.00  0.00     0.026 C 
ENDBRANCH  13  15
ENDBRANCH  10  11
ENDBRANCH   1  10
BRANCH   1  23
HETATM   23  C   UNL     1      11.572  -1.266  22.537  1.00  0.00    -0.006 C 
BRANCH  23  24
HETATM   24  C   UNL     1      12.003  -1.144  23.535  1.00  0.00    -0.002 C 
BRANCH  24  25
HETATM   25  C   UNL     1      12.364   0.056  24.221  1.00  0.00    -0.001 C 
BRANCH  25  26
HETATM   26  C   UNL     1      11.348   0.846  24.445  1.00  0.00    -0.010 C 
HETATM   27  C   UNL     1      10.464   0.823  25.053  1.00  0.00     0.011 C 
ENDBRANCH  25  26
ENDBRANCH  24  25
ENDBRANCH  23  24
ENDBRANCH   1  23
TORSDOF 10
ENDMDL
MODEL 3
REMARK VINA RESULT:    -5.980     14.409     16.377
REMARK INTER + INTRA:         -10.874
REMARK INTER:                  -9.368
REMARK INTRA:                  -1.507
REMARK UNBOUND:                -1.398
REMARK  10 active torsions:
REMARK  status: ('A' for Active; 'I' for Inactive)
REMARK    1  A    between atoms: S_2  and  N_5 
REMARK    2  A    between atoms: C_7  and  C_8 
REMARK    3  A    between atoms: C_8  and  C_9 
REMARK    4  A    between atoms: C_9  and  C_15 
REMARK    5  A    between atoms: C_9  and  C_10 
REMARK    6  A    between atoms: C_10  and  C_11 
REMARK    7  A    between atoms: C_11  and  C_12 
REMARK    8  A    between atoms: C_12  and  C_13 
REMARK    9  A    between atoms: C_15  and  C_16 
REMARK       I    between atoms: C_16  and  N_18 
REMARK   10  A    between atoms: N_18  and  C_20 
ROOT
HETATM    1  C   UNL     1      24.288  -1.752  23.536  1.00  0.00     0.109 C 
ENDROOT
BRANCH   1   2
HETATM    2  C   UNL     1      24.015  -2.966  23.852  1.00  0.00     0.011 C 
BRANCH   2   3
HETATM    3  C   UNL     1      24.234  -4.091  24.050  1.00  0.00     0.097 C 
HETATM    4  N   UNL     1      24.151  -5.328  23.957  1.00  0.00    -0.296 N 
ATOM      5  HN  UNL     1      24.029  -5.718  23.023  1.00  0.00     0.177 HD
BRANCH   4   6
HETATM    6  S   UNL     1      24.221  -6.366  25.181  1.00  0.00     0.226 S 
HETATM    7  C   UNL     1      25.919  -6.364  25.680  1.00  0.00     0.186 C 
HETATM    8  O   UNL     1      23.473  -5.893  26.336  1.00  0.00    -0.206 OA
HETATM    9  O   UNL     1      23.893  -7.719  24.831  1.00  0.00    -0.206 OA
ENDBRANCH   4   6
ENDBRANCH   2   3
ENDBRANCH   1   2
BRANCH   1  10
HETATM   10  C   UNL     1      23.801  -1.760  22.446  1.00  0.00    -0.071 C 
BRANCH  10  11
HETATM   11  C   UNL     1      23.283  -1.716  21.217  1.00  0.00     0.289 C 
HETATM   12  O   UNL     1      22.147  -1.820  21.135  1.00  0.00    -0.259 OA
HETATM   13  N   UNL     1      24.264  -1.579  20.299  1.00  0.00    -0.315 N 
ATOM     14  HN  UNL     1      25.250  -1.558  20.562  1.00  0.00     0.170 HD
BRANCH  13  15
HETATM   15  C   UNL     1      23.900  -1.479  19.118  1.00  0.00     0.060 A 
HETATM   16  C   UNL     1      23.388  -0.656  18.325  1.00  0.00     0.117 A 
HETATM   17  N   UNL     1      22.956  -0.215  17.210  1.00  0.00    -0.373 N 
HETATM   18  C   UNL     1      23.169  -1.268  16.585  1.00  0.00     0.088 A 
ATOM     19  HN  UNL     1      22.570   0.686  16.929  1.00  0.00     0.164 HD
HETATM   20  C   UNL     1      23.650  -2.382  16.954  1.00  0.00     0.030 A 
HETATM   21  C   UNL     1      24.114  -2.775  18.137  1.00  0.00    -0.016 A 
HETATM   22  C   UNL     1      24.523  -3.701  18.492  1.00  0.00     0.026 C 
ENDBRANCH  13  15
ENDBRANCH  10  11
ENDBRANCH   1  10
BRANCH   1  23
HETATM   23  C   UNL     1      24.015  -0.370  24.406  1.00  0.00    -0.006 C 
BRANCH  23  24
HETATM   24  C   UNL     1      23.198  -0.226  25.121  1.00  0.00    -0.002 C 
BRANCH  24  25
HETATM   25  C   UNL     1      21.871   0.249  24.890  1.00  0.00    -0.001 C 
BRANCH  25  26
HETATM   26  C   UNL     1      20.959  -0.670  25.062  1.00  0.00    -0.010 C 
HETATM   27  C   UNL     1      20.595  -1.518  24.513  1.00  0.00     0.011 C 
ENDBRANCH  25  26
ENDBRANCH  24  25
ENDBRANCH  23  24
ENDBRANCH   1  23
TORSDOF 10
ENDMDL
MODEL 4
REMARK VINA RESULT:    -5.880      1.709      2.430
REMARK INTER + INTRA:         -10.716
REMARK INTER:                  -9.805
REMARK INTRA:                  -0.911
REMARK UNBOUND:                -1.398
REMARK  10 active torsions:
REMARK  status: ('A' for Active; 'I' for Inactive)
REMARK    1  A    between atoms: S_2  and  N_5 
REMARK    2  A    between atoms: C_7  and  C_8 
REMARK    3  A    between atoms: C_8  and  C_9 
REMARK    4  A    between atoms: C_9  and  C_15 
REMARK    5  A    between atoms: C_9  and  C_10 
REMARK    6  A    between atoms: C_10  and  C_11 
REMARK    7  A    between atoms: C_11  and  C_12 
REMARK    8  A    between atoms: C_12  and  C_13 
REMARK    9  A    between atoms: C_15  and  C_16 
REMARK       I    between atoms: C_16  and  N_18 
REMARK   10  A    between atoms: N_18  and  C_20 
ROOT
HETATM    1  C   UNL     1       9.408  -0.800  23.672  1.00  0.00     0.109 C 
ENDROOT
BRANCH   1   2
HETATM    2  C   UNL     1       8.559  -1.749  23.836  1.00  0.00     0.011 C 
BRANCH   2   3
HETATM    3  C   UNL     1       8.174  -2.847  23.836  1.00  0.00     0.097 C 
HETATM    4  N   UNL     1       7.618  -3.887  23.443  1.00  0.00    -0.296 N 
ATOM      5  HN  UNL     1       7.740  -4.137  22.462  1.00  0.00     0.177 HD
BRANCH   4   6
HETATM    6  S   UNL     1       6.726  -4.872  24.344  1.00  0.00     0.226 S 
HETATM    7  C   UNL     1       5.371  -3.875  24.896  1.00  0.00     0.186 C 
HETATM    8  O   UNL     1       6.130  -5.939  23.554  1.00  0.00    -0.206 OA
HETATM    9  O   UNL     1       7.386  -5.362  25.521  1.00  0.00    -0.206 OA
ENDBRANCH   4   6
ENDBRANCH   2   3
ENDBRANCH   1   2
BRANCH   1  10
HETATM   10  C   UNL     1       8.977  -0.380  22.641  1.00  0.00    -0.071 C 
BRANCH  10  11
HETATM   11  C   UNL     1       8.500   0.033  21.465  1.00  0.00     0.289 C 
HETATM   12  O   UNL     1       9.236   0.568  20.772  1.00  0.00    -0.259 OA
HETATM   13  N   UNL     1       7.185  -0.260  21.362  1.00  0.00    -0.315 N 
ATOM     14  HN  UNL     1       6.670  -0.701  22.124  1.00  0.00     0.170 HD
BRANCH  13  15
HETATM   15  C   UNL     1       6.640   0.036  20.289  1.00  0.00     0.060 A 
HETATM   16  C   UNL     1       6.490  -0.395  19.123  1.00  0.00     0.117 A 
HETATM   17  N   UNL     1       6.050  -0.414  17.927  1.00  0.00    -0.373 N 
HETATM   18  C   UNL     1       5.433   0.660  18.019  1.00  0.00     0.088 A 
ATOM     19  HN  UNL     1       6.165  -1.079  17.162  1.00  0.00     0.164 HD
HETATM   20  C   UNL     1       5.304   1.476  18.983  1.00  0.00     0.030 A 
HETATM   21  C   UNL     1       5.770   1.424  20.228  1.00  0.00    -0.016 A 
HETATM   22  C   UNL     1       5.689   2.087  21.068  1.00  0.00     0.026 C 
ENDBRANCH  13  15
ENDBRANCH  10  11
ENDBRANCH   1  10
BRANCH   1  23
HETATM   23  C   UNL     1       9.879   0.363  24.751  1.00  0.00    -0.006 C 
BRANCH  23  24
HETATM   24  C   UNL     1      10.606   1.156  24.547  1.00  0.00    -0.002 C 
BRANCH  24  25
HETATM   25  C   UNL     1      11.947   1.047  24.065  1.00  0.00    -0.001 C 
BRANCH  25  26
HETATM   26  C   UNL     1      12.558  -0.029  24.484  1.00  0.00    -0.010 C 
HETATM   27  C   UNL     1      13.336  -0.673  24.120  1.00  0.00     0.011 C 
ENDBRANCH  25  26
ENDBRANCH  24  25
ENDBRANCH  23  24
ENDBRANCH   1  23
TORSDOF 10
ENDMDL
MODEL 5
REMARK VINA RESULT:    -5.675      3.346      7.172
REMARK INTER + INTRA:         -10.390
REMARK INTER:                  -9.251
REMARK INTRA:                  -1.140
REMARK UNBOUND:                -1.398
REMARK  10 active torsions:
REMARK  status: ('A' for Active; 'I' for Inactive)
REMARK    1  A    between atoms: S_2  and  N_5 
REMARK    2  A    between atoms: C_7  and  C_8 
REMARK    3  A    between atoms: C_8  and  C_9 
REMARK    4  A    between atoms: C_9  and  C_15 
REMARK    5  A    between atoms: C_9  and  C_10 
REMARK    6  A    between atoms: C_10  and  C_11 
REMARK    7  A    between atoms: C_11  and  C_12 
REMARK    8  A    between atoms: C_12  and  C_13 
REMARK    9  A    between atoms: C_15  and  C_16 
REMARK       I    between atoms: C_16  and  N_18 
REMARK   10  A    between atoms: N_18  and  C_20 
ROOT
HETATM    1  C   UNL     1       8.287  -1.558  21.727  1.00  0.00     0.109 C 
ENDROOT
BRANCH   1   2
HETATM    2  C   UNL     1       9.525  -1.398  22.029  1.00  0.00     0.011 C 
BRANCH   2   3
HETATM    3  C   UNL     1      10.448  -0.869  22.500  1.00  0.00     0.097 C 
HETATM    4  N   UNL     1      11.561  -0.725  23.035  1.00  0.00    -0.296 N 
ATOM      5  HN  UNL     1      12.318  -1.320  22.701  1.00  0.00     0.177 HD
BRANCH   4   6
HETATM    6  S   UNL     1      11.910   0.317  24.206  1.00  0.00     0.226 S 
HETATM    7  C   UNL     1      10.585   0.152  25.367  1.00  0.00     0.186 C 
HETATM    8  O   UNL     1      13.114  -0.065  24.929  1.00  0.00    -0.206 OA
HETATM    9  O   UNL     1      11.930   1.691  23.792  1.00  0.00    -0.206 OA
ENDBRANCH   4   6
ENDBRANCH   2   3
ENDBRANCH   1   2
BRANCH   1  10
HETATM   10  C   UNL     1       8.064  -2.474  22.458  1.00  0.00    -0.071 C 
BRANCH  10  11
HETATM   11  C   UNL     1       7.792  -3.460  23.315  1.00  0.00     0.289 C 
HETATM   12  O   UNL     1       7.519  -4.474  22.861  1.00  0.00    -0.259 OA
HETATM   13  N   UNL     1       7.878  -3.014  24.587  1.00  0.00    -0.315 N 
ATOM     14  HN  UNL     1       8.086  -2.039  24.803  1.00  0.00     0.170 HD
BRANCH  13  15
HETATM   15  C   UNL     1       7.691  -3.856  25.477  1.00  0.00     0.060 A 
HETATM   16  C   UNL     1       8.293  -4.757  26.105  1.00  0.00     0.117 A 
HETATM   17  N   UNL     1       8.450  -5.675  26.975  1.00  0.00    -0.373 N 
HETATM   18  C   UNL     1       7.288  -5.617  27.409  1.00  0.00     0.088 A 
ATOM     19  HN  UNL     1       9.251  -6.255  27.226  1.00  0.00     0.164 HD
HETATM   20  C   UNL     1       6.303  -4.887  27.081  1.00  0.00     0.030 A 
HETATM   21  C   UNL     1       6.209  -3.917  26.175  1.00  0.00    -0.016 A 
HETATM   22  C   UNL     1       5.402  -3.282  25.865  1.00  0.00     0.026 C 
ENDBRANCH  13  15
ENDBRANCH  10  11
ENDBRANCH   1  10
BRANCH   1  23
HETATM   23  C   UNL     1       7.086  -0.421  21.655  1.00  0.00    -0.006 C 
BRANCH  23  24
HETATM   24  C   UNL     1       7.138   0.518  21.096  1.00  0.00    -0.002 C 
BRANCH  24  25
HETATM   25  C   UNL     1       6.355   0.949  19.981  1.00  0.00    -0.001 C 
BRANCH  25  26
HETATM   26  C   UNL     1       6.606   0.281  18.888  1.00  0.00    -0.010 C 
HETATM   27  C   UNL     1       6.046  -0.322  18.198  1.00  0.00     0.011 C 
ENDBRANCH  25  26
ENDBRANCH  24  25
ENDBRANCH  23  24
ENDBRANCH   1  23
TORSDOF 10
ENDMDL
MODEL 6
REMARK VINA RESULT:    -5.519     19.721     23.338
REMARK INTER + INTRA:         -10.143
REMARK INTER:                  -9.002
REMARK INTRA:                  -1.141
REMARK UNBOUND:                -1.398
REMARK  10 active torsions:
REMARK  status: ('A' for Active; 'I' for Inactive)
REMARK    1  A    between atoms: S_2  and  N_5 
REMARK    2  A    between atoms: C_7  and  C_8 
REMARK    3  A    between atoms: C_8  and  C_9 
REMARK    4  A    between atoms: C_9  and  C_15 
REMARK    5  A    between atoms: C_9  and  C_10 
REMARK    6  A    between atoms: C_10  and  C_11 
REMARK    7  A    between atoms: C_11  and  C_12 
REMARK    8  A    between atoms: C_12  and  C_13 
REMARK    9  A    between atoms: C_15  and  C_16 
REMARK       I    between atoms: C_16  and  N_18 
REMARK   10  A    between atoms: N_18  and  C_20 
ROOT
HETATM    1  C   UNL     1       4.903  12.496   1.906  1.00  0.00     0.109 C 
ENDROOT
BRANCH   1   2
HETATM    2  C   UNL     1       6.153  12.778   1.834  1.00  0.00     0.011 C 
BRANCH   2   3
HETATM    3  C   UNL     1       7.135  13.346   2.093  1.00  0.00     0.097 C 
HETATM    4  N   UNL     1       8.321  13.712   2.028  1.00  0.00    -0.296 N 
ATOM      5  HN  UNL     1       8.712  13.860   1.098  1.00  0.00     0.177 HD
BRANCH   4   6
HETATM    6  S   UNL     1       9.292  13.972   3.280  1.00  0.00     0.226 S 
HETATM    7  C   UNL     1       8.407  15.108   4.309  1.00  0.00     0.186 C 
HETATM    8  O   UNL     1       9.470  12.773   4.085  1.00  0.00    -0.206 OA
HETATM    9  O   UNL     1      10.538  14.600   2.946  1.00  0.00    -0.206 OA
ENDBRANCH   4   6
ENDBRANCH   2   3
ENDBRANCH   1   2
BRANCH   1  10
HETATM   10  C   UNL     1       5.016  11.325   2.103  1.00  0.00    -0.071 C 
BRANCH  10  11
HETATM   11  C   UNL     1       5.085  10.014   2.343  1.00  0.00     0.289 C 
HETATM   12  O   UNL     1       5.622   9.377   1.559  1.00  0.00    -0.259 OA
HETATM   13  N   UNL     1       4.452   9.713   3.498  1.00  0.00    -0.315 N 
ATOM     14  HN  UNL     1       3.970  10.424   4.049  1.00  0.00     0.170 HD
BRANCH  13  15
HETATM   15  C   UNL     1       4.489   8.526   3.851  1.00  0.00     0.060 A 
HETATM   16  C   UNL     1       5.202   7.727   4.500  1.00  0.00     0.117 A 
HETATM   17  N   UNL     1       5.529   6.620   5.041  1.00  0.00    -0.373 N 
HETATM   18  C   UNL     1       4.533   5.999   4.633  1.00  0.00     0.088 A 
ATOM     19  HN  UNL     1       6.329   6.341   5.609  1.00  0.00     0.164 HD
HETATM   20  C   UNL     1       3.546   6.366   3.923  1.00  0.00     0.030 A 
HETATM   21  C   UNL     1       3.246   7.554   3.408  1.00  0.00    -0.016 A 
HETATM   22  C   UNL     1       2.432   7.905   2.804  1.00  0.00     0.026 C 
ENDBRANCH  13  15
ENDBRANCH  10  11
ENDBRANCH   1  10
BRANCH   1  23
HETATM   23  C   UNL     1       3.725  13.239   2.802  1.00  0.00    -0.006 C 
BRANCH  23  24
HETATM   24  C   UNL     1       2.681  12.915   2.865  1.00  0.00    -0.002 C 
BRANCH  24  25
HETATM   25  C   UNL     1       1.671  12.927   1.855  1.00  0.00    -0.001 C 
BRANCH  25  26
HETATM   26  C   UNL     1       1.225  14.125   1.588  1.00  0.00    -0.010 C 
HETATM   27  C   UNL     1       0.765  14.616   0.751  1.00  0.00     0.011 C 
ENDBRANCH  25  26
ENDBRANCH  24  25
ENDBRANCH  23  24
ENDBRANCH   1  23
TORSDOF 10
ENDMDL
MODEL 7
REMARK VINA RESULT:    -5.402      3.257      6.986
REMARK INTER + INTRA:          -9.958
REMARK INTER:                  -8.784
REMARK INTRA:                  -1.174
REMARK UNBOUND:                -1.398
REMARK  10 active torsions:
REMARK  status: ('A' for Active; 'I' for Inactive)
REMARK    1  A    between atoms: S_2  and  N_5 
REMARK    2  A    between atoms: C_7  and  C_8 
REMARK    3  A    between atoms: C_8  and  C_9 
REMARK    4  A    between atoms: C_9  and  C_15 
REMARK    5  A    between atoms: C_9  and  C_10 
REMARK    6  A    between atoms: C_10  and  C_11 
REMARK    7  A    between atoms: C_11  and  C_12 
REMARK    8  A    between atoms: C_12  and  C_13 
REMARK    9  A    between atoms: C_15  and  C_16 
REMARK       I    between atoms: C_16  and  N_18 
REMARK   10  A    between atoms: N_18  and  C_20 
ROOT
HETATM    1  C   UNL     1       8.518   0.211  20.659  1.00  0.00     0.109 C 
ENDROOT
BRANCH   1   2
HETATM    2  C   UNL     1       8.448   1.156  21.526  1.00  0.00     0.011 C 
BRANCH   2   3
HETATM    3  C   UNL     1       8.763   2.143  22.056  1.00  0.00     0.097 C 
HETATM    4  N   UNL     1       9.437   2.937  22.735  1.00  0.00    -0.296 N 
ATOM      5  HN  UNL     1      10.449   2.905  22.620  1.00  0.00     0.177 HD
BRANCH   4   6
HETATM    6  S   UNL     1       8.851   4.009  23.777  1.00  0.00     0.226 S 
HETATM    7  C   UNL     1      10.092   5.267  23.876  1.00  0.00     0.186 C 
HETATM    8  O   UNL     1       7.662   4.672  23.261  1.00  0.00    -0.206 OA
HETATM    9  O   UNL     1       8.664   3.504  25.108  1.00  0.00    -0.206 OA
ENDBRANCH   4   6
ENDBRANCH   2   3
ENDBRANCH   1   2
BRANCH   1  10
HETATM   10  C   UNL     1       8.728  -0.684  21.419  1.00  0.00    -0.071 C 
BRANCH  10  11
HETATM   11  C   UNL     1       8.991  -1.647  22.306  1.00  0.00     0.289 C 
HETATM   12  O   UNL     1      10.094  -1.888  22.489  1.00  0.00    -0.259 OA
HETATM   13  N   UNL     1       7.842  -2.164  22.792  1.00  0.00    -0.315 N 
ATOM     14  HN  UNL     1       6.928  -1.853  22.461  1.00  0.00     0.170 HD
BRANCH  13  15
HETATM   15  C   UNL     1       7.959  -3.039  23.662  1.00  0.00     0.060 A 
HETATM   16  C   UNL     1       8.299  -3.179  24.859  1.00  0.00     0.117 A 
HETATM   17  N   UNL     1       8.497  -3.795  25.958  1.00  0.00    -0.373 N 
HETATM   18  C   UNL     1       8.163  -4.909  25.521  1.00  0.00     0.088 A 
ATOM     19  HN  UNL     1       8.817  -3.482  26.874  1.00  0.00     0.164 HD
HETATM   20  C   UNL     1       7.768  -5.279  24.373  1.00  0.00     0.030 A 
HETATM   21  C   UNL     1       7.553  -4.577  23.265  1.00  0.00    -0.016 A 
HETATM   22  C   UNL     1       7.225  -4.846  22.279  1.00  0.00     0.026 C 
ENDBRANCH  13  15
ENDBRANCH  10  11
ENDBRANCH   1  10
BRANCH   1  23
HETATM   23  C   UNL     1       7.461  -0.150  19.437  1.00  0.00    -0.006 C 
BRANCH  23  24
HETATM   24  C   UNL     1       6.983   0.582  18.779  1.00  0.00    -0.002 C 
BRANCH  24  25
HETATM   25  C   UNL     1       5.603   0.727  18.442  1.00  0.00    -0.001 C 
BRANCH  25  26
HETATM   26  C   UNL     1       4.876   1.171  19.432  1.00  0.00    -0.010 C 
HETATM   27  C   UNL     1       4.041   1.836  19.548  1.00  0.00     0.011 C 
ENDBRANCH  25  26
ENDBRANCH  24  25
ENDBRANCH  23  24
ENDBRANCH   1  23
TORSDOF 10
ENDMDL
MODEL 8
REMARK VINA RESULT:    -5.244      4.276      8.314
REMARK INTER + INTRA:          -9.708
REMARK INTER:                  -7.796
REMARK INTRA:                  -1.912
REMARK UNBOUND:                -1.398
REMARK  10 active torsions:
REMARK  status: ('A' for Active; 'I' for Inactive)
REMARK    1  A    between atoms: S_2  and  N_5 
REMARK    2  A    between atoms: C_7  and  C_8 
REMARK    3  A    between atoms: C_8  and  C_9 
REMARK    4  A    between atoms: C_9  and  C_15 
REMARK    5  A    between atoms: C_9  and  C_10 
REMARK    6  A    between atoms: C_10  and  C_11 
REMARK    7  A    between atoms: C_11  and  C_12 
REMARK    8  A    between atoms: C_12  and  C_13 
REMARK    9  A    between atoms: C_15  and  C_16 
REMARK       I    between atoms: C_16  and  N_18 
REMARK   10  A    between atoms: N_18  and  C_20 
ROOT
HETATM    1  C   UNL     1       8.316  -4.703  24.306  1.00  0.00     0.109 C 
ENDROOT
BRANCH   1   2
HETATM    2  C   UNL     1       8.604  -3.478  24.562  1.00  0.00     0.011 C 
BRANCH   2   3
HETATM    3  C   UNL     1       8.561  -2.323  24.432  1.00  0.00     0.097 C 
HETATM    4  N   UNL     1       8.229  -1.213  23.981  1.00  0.00    -0.296 N 
ATOM      5  HN  UNL     1       7.245  -1.079  23.751  1.00  0.00     0.177 HD
BRANCH   4   6
HETATM    6  S   UNL     1       9.215   0.030  23.730  1.00  0.00     0.226 S 
HETATM    7  C   UNL     1      10.829  -0.591  24.108  1.00  0.00     0.186 C 
HETATM    8  O   UNL     1       9.261   0.410  22.327  1.00  0.00    -0.206 OA
HETATM    9  O   UNL     1       8.989   1.152  24.597  1.00  0.00    -0.206 OA
ENDBRANCH   4   6
ENDBRANCH   2   3
ENDBRANCH   1   2
BRANCH   1  10
HETATM   10  C   UNL     1       7.904  -4.997  25.386  1.00  0.00    -0.071 C 
BRANCH  10  11
HETATM   11  C   UNL     1       7.398  -5.356  26.568  1.00  0.00     0.289 C 
HETATM   12  O   UNL     1       8.123  -5.377  27.451  1.00  0.00    -0.259 OA
HETATM   13  N   UNL     1       6.086  -5.655  26.446  1.00  0.00    -0.315 N 
ATOM     14  HN  UNL     1       5.610  -5.632  25.544  1.00  0.00     0.170 HD
BRANCH  13  15
HETATM   15  C   UNL     1       5.494  -5.959  27.491  1.00  0.00     0.060 A 
HETATM   16  C   UNL     1       5.237  -6.953  28.209  1.00  0.00     0.117 A 
HETATM   17  N   UNL     1       4.770  -7.586  29.212  1.00  0.00    -0.373 N 
HETATM   18  C   UNL     1       4.262  -6.586  29.747  1.00  0.00     0.088 A 
ATOM     19  HN  UNL     1       4.801  -8.569  29.481  1.00  0.00     0.164 HD
HETATM   20  C   UNL     1       4.233  -5.367  29.394  1.00  0.00     0.030 A 
HETATM   21  C   UNL     1       4.768  -4.759  28.339  1.00  0.00    -0.016 A 
HETATM   22  C   UNL     1       4.765  -3.740  28.002  1.00  0.00     0.026 C 
ENDBRANCH  13  15
ENDBRANCH  10  11
ENDBRANCH   1  10
BRANCH   1  23
HETATM   23  C   UNL     1       7.442  -5.316  23.041  1.00  0.00    -0.006 C 
BRANCH  23  24
HETATM   24  C   UNL     1       6.353  -5.261  22.940  1.00  0.00    -0.002 C 
BRANCH  24  25
HETATM   25  C   UNL     1       5.534  -4.139  22.606  1.00  0.00    -0.001 C 
BRANCH  25  26
HETATM   26  C   UNL     1       4.794  -3.728  23.602  1.00  0.00    -0.010 C 
HETATM   27  C   UNL     1       4.860  -2.970  24.358  1.00  0.00     0.011 C 
ENDBRANCH  25  26
ENDBRANCH  24  25
ENDBRANCH  23  24
ENDBRANCH   1  23
TORSDOF 10
ENDMDL
MODEL 9
REMARK VINA RESULT:    -5.224     20.763     23.069
REMARK INTER + INTRA:          -9.676
REMARK INTER:                  -7.767
REMARK INTRA:                  -1.909
REMARK UNBOUND:                -1.398
REMARK  10 active torsions:
REMARK  status: ('A' for Active; 'I' for Inactive)
REMARK    1  A    between atoms: S_2  and  N_5 
REMARK    2  A    between atoms: C_7  and  C_8 
REMARK    3  A    between atoms: C_8  and  C_9 
REMARK    4  A    between atoms: C_9  and  C_15 
REMARK    5  A    between atoms: C_9  and  C_10 
REMARK    6  A    between atoms: C_10  and  C_11 
REMARK    7  A    between atoms: C_11  and  C_12 
REMARK    8  A    between atoms: C_12  and  C_13 
REMARK    9  A    between atoms: C_15  and  C_16 
REMARK       I    between atoms: C_16  and  N_18 
REMARK   10  A    between atoms: N_18  and  C_20 
ROOT
HETATM    1  C   UNL     1       6.065  10.047   4.203  1.00  0.00     0.109 C 
ENDROOT
BRANCH   1   2
HETATM    2  C   UNL     1       5.505   9.863   3.063  1.00  0.00     0.011 C 
BRANCH   2   3
HETATM    3  C   UNL     1       4.641   9.881   2.284  1.00  0.00     0.097 C 
HETATM    4  N   UNL     1       3.820  10.330   1.464  1.00  0.00    -0.296 N 
ATOM      5  HN  UNL     1       4.147  11.056   0.828  1.00  0.00     0.177 HD
BRANCH   4   6
HETATM    6  S   UNL     1       2.290   9.864   1.320  1.00  0.00     0.226 S 
HETATM    7  C   UNL     1       1.568  10.190   2.903  1.00  0.00     0.186 C 
HETATM    8  O   UNL     1       1.557  10.694   0.377  1.00  0.00    -0.206 OA
HETATM    9  O   UNL     1       2.117   8.461   1.067  1.00  0.00    -0.206 OA
ENDBRANCH   4   6
ENDBRANCH   2   3
ENDBRANCH   1   2
BRANCH   1  10
HETATM   10  C   UNL     1       6.720  10.998   3.905  1.00  0.00    -0.071 C 
BRANCH  10  11
HETATM   11  C   UNL     1       7.503  12.029   3.579  1.00  0.00     0.289 C 
HETATM   12  O   UNL     1       8.593  11.972   3.922  1.00  0.00    -0.259 OA
HETATM   13  N   UNL     1       6.795  12.965   2.911  1.00  0.00    -0.315 N 
ATOM     14  HN  UNL     1       5.794  12.864   2.742  1.00  0.00     0.170 HD
BRANCH  13  15
HETATM   15  C   UNL     1       7.430  13.953   2.515  1.00  0.00     0.060 A 
HETATM   16  C   UNL     1       8.274  14.283   1.650  1.00  0.00     0.117 A 
HETATM   17  N   UNL     1       9.032  15.068   0.992  1.00  0.00    -0.373 N 
HETATM   18  C   UNL     1       8.744  16.080   1.651  1.00  0.00     0.088 A 
ATOM     19  HN  UNL     1       9.658  14.917   0.200  1.00  0.00     0.164 HD
HETATM   20  C   UNL     1       7.961  16.247   2.637  1.00  0.00     0.030 A 
HETATM   21  C   UNL     1       7.168  15.386   3.267  1.00  0.00    -0.016 A 
HETATM   22  C   UNL     1       6.498  15.481   4.100  1.00  0.00     0.026 C 
ENDBRANCH  13  15
ENDBRANCH  10  11
ENDBRANCH   1  10
BRANCH   1  23
HETATM   23  C   UNL     1       5.361  10.131   5.699  1.00  0.00    -0.006 C 
BRANCH  23  24
HETATM   24  C   UNL     1       4.861  11.014   6.112  1.00  0.00    -0.002 C 
BRANCH  24  25
HETATM   25  C   UNL     1       3.633  11.624   5.712  1.00  0.00    -0.001 C 
BRANCH  25  26
HETATM   26  C   UNL     1       3.803  12.758   5.085  1.00  0.00    -0.010 C 
HETATM   27  C   UNL     1       3.445  13.207   4.178  1.00  0.00     0.011 C 
ENDBRANCH  25  26
ENDBRANCH  24  25
ENDBRANCH  23  24
ENDBRANCH   1  23
TORSDOF 10
ENDMDL
