REMARK  10 active torsions:
REMARK  status: ('A' for Active; 'I' for Inactive)
REMARK    1  A    between atoms: S_2  and  N_5 
REMARK    2  A    between atoms: C_7  and  C_8 
REMARK    3  A    between atoms: C_8  and  C_9 
REMARK    4  A    between atoms: C_9  and  C_15 
REMARK    5  A    between atoms: C_9  and  C_10 
REMARK    6  A    between atoms: C_10  and  C_11 
REMARK    7  A    between atoms: C_11  and  C_12 
REMARK    8  A    between atoms: C_12  and  C_13 
REMARK    9  A    between atoms: C_15  and  C_16 
REMARK       I    between atoms: C_16  and  N_18 
REMARK   10  A    between atoms: N_18  and  C_20 
ROOT
HETATM    1  C   UNL     1      10.299  -1.079  23.268  1.00  0.00     0.109 C 
ENDROOT
BRANCH   1   2
HETATM    2  C   UNL     1       9.440  -1.995  23.534  1.00  0.00     0.011 C 
BRANCH   2   3
HETATM    3  C   UNL     1       8.962  -2.865  24.141  1.00  0.00     0.097 C 
HETATM    4  N   UNL     1       8.090  -3.566  24.683  1.00  0.00    -0.296 N 
ATOM      5  HN  UNL     1       7.221  -3.708  24.169  1.00  0.00     0.177 HD
BRANCH   4   6
HETATM    6  S   UNL     1       8.213  -4.268  26.122  1.00  0.00     0.226 S 
HETATM    7  C   UNL     1       6.585  -4.867  26.473  1.00  0.00     0.186 C 
HETATM    8  O   UNL     1       9.063  -5.448  26.078  1.00  0.00    -0.206 OA
HETATM    9  O   UNL     1       8.566  -3.376  27.190  1.00  0.00    -0.206 OA
ENDBRANCH   4   6
ENDBRANCH   2   3
ENDBRANCH   1   2
BRANCH   1  10
HETATM   10  C   UNL     1       9.707  -0.564  22.369  1.00  0.00    -0.071 C 
BRANCH  10  11
HETATM   11  C   UNL     1       9.039   0.062  21.398  1.00  0.00     0.289 C 
HETATM   12  O   UNL     1       9.507   1.023  20.991  1.00  0.00    -0.259 OA
HETATM   13  N   UNL     1       7.892  -0.594  21.118  1.00  0.00    -0.315 N 
ATOM     14  HN  UNL     1       7.606  -1.425  21.636  1.00  0.00     0.170 HD
BRANCH  13  15
HETATM   15  C   UNL     1       7.206  -0.130  20.196  1.00  0.00     0.060 A 
HETATM   16  C   UNL     1       7.211  -0.002  18.950  1.00  0.00     0.117 A 
HETATM   17  N   UNL     1       6.761   0.324  17.803  1.00  0.00    -0.373 N 
HETATM   18  C   UNL     1       5.710   0.826  18.235  1.00  0.00     0.088 A 
ATOM     19  HN  UNL     1       7.134   0.212  16.860  1.00  0.00     0.164 HD
HETATM   20  C   UNL     1       5.264   0.957  19.416  1.00  0.00     0.030 A 
HETATM   21  C   UNL     1       5.773   0.567  20.581  1.00  0.00    -0.016 A 
HETATM   22  C   UNL     1       5.435   0.659  21.595  1.00  0.00     0.026 C 
ENDBRANCH  13  15
ENDBRANCH  10  11
ENDBRANCH   1  10
BRANCH   1  23
HETATM   23  C   UNL     1      11.038  -0.022  24.306  1.00  0.00    -0.006 C 
BRANCH  23  24
HETATM   24  C   UNL     1      12.089   0.281  24.256  1.00  0.00    -0.002 C 
BRANCH  24  25
HETATM   25  C   UNL     1      13.140  -0.240  23.441  1.00  0.00    -0.001 C 
BRANCH  25  26
HETATM   26  C   UNL     1      12.756  -1.226  22.675  1.00  0.00    -0.010 C 
HETATM   27  C   UNL     1      11.838  -1.747  22.479  1.00  0.00     0.011 C 
ENDBRANCH  25  26
ENDBRANCH  24  25
ENDBRANCH  23  24
ENDBRANCH   1  23
TORSDOF 10
