stable:False satoms:7 tatoms:24 sratio:0.2916666666666667
  -OEChem-07092417443D

 24 24  0     1  0  0  0  0  0999 V2000
    6.5850   -4.8672   26.4732 C   0  0  0  0  0  0  0  0  0  0  0  0
    8.2126   -4.2677   26.1225 S   0  0  0  0  0  0  0  0  0  0  0  0
    9.0630   -5.4479   26.0781 O   0  0  0  0  0  0  0  0  0  0  0  0
    8.5658   -3.3755   27.1901 O   0  0  0  0  0  0  0  0  0  0  0  0
    8.0904   -3.5655   24.6831 N   0  0  0  0  0  0  0  0  0  0  0  0
    8.9616   -2.8649   24.1409 C   0  0  0  0  0  0  0  0  0  0  0  0
    9.4397   -1.9948   23.5336 C   0  0  0  0  0  0  0  0  0  0  0  0
   10.2987   -1.0790   23.2682 C   0  0  2  0  0  0  0  0  0  0  0  0
   11.0383   -0.0221   24.3056 C   0  0  0  0  0  0  0  0  0  0  0  0
   12.0891    0.2809   24.2557 C   0  0  0  0  0  0  0  0  0  0  0  0
   13.1401   -0.2400   23.4407 C   0  0  0  0  0  0  0  0  0  0  0  0
   12.7556   -1.2262   22.6750 C   0  0  0  0  0  0  0  0  0  0  0  0
   11.8383   -1.7466   22.4787 C   0  0  0  0  0  0  0  0  0  0  0  0
    9.7066   -0.5641   22.3685 C   0  0  0  0  0  0  0  0  0  0  0  0
    9.0389    0.0618   21.3984 C   0  0  0  0  0  0  0  0  0  0  0  0
    9.5067    1.0234   20.9905 O   0  0  0  0  0  0  0  0  0  0  0  0
    7.8923   -0.5943   21.1182 N   0  0  0  0  0  0  0  0  0  0  0  0
    7.2056   -0.1296   20.1961 C   0  0  0  0  0  0  0  0  0  0  0  0
    7.2113   -0.0022   18.9499 C   0  0  0  0  0  0  0  0  0  0  0  0
    6.7615    0.3240   17.8032 N   0  0  0  0  0  0  0  0  0  0  0  0
    5.7101    0.8255   18.2346 C   0  0  0  0  0  0  0  0  0  0  0  0
    5.2644    0.9567   19.4160 C   0  0  0  0  0  0  0  0  0  0  0  0
    5.7731    0.5667   20.5815 C   0  0  0  0  0  0  0  0  0  0  0  0
    5.4354    0.6586   21.5945 C   0  0  0  0  0  0  0  0  0  0  0  0
 20 21  2  0  0  0  0
 19 20  1  0  0  0  0
 21 22  1  0  0  0  0
 18 19  2  0  0  0  0
 22 23  2  0  0  0  0
 18 23  1  0  0  0  0
 17 18  1  0  0  0  0
 23 24  1  0  0  0  0
 15 16  2  0  0  0  0
 15 17  1  0  0  0  0
 14 15  1  0  0  0  0
  8 14  1  0  0  0  0
 12 13  2  0  0  0  0
 11 12  1  0  0  0  0
  7  8  1  0  0  0  0
  8  9  1  0  0  0  0
 10 11  1  0  0  0  0
  6  7  3  0  0  0  0
  5  6  1  0  0  0  0
  9 10  2  0  0  0  0
  2  5  1  0  0  0  0
  2  3  2  0  0  0  0
  1  2  1  0  0  0  0
  2  4  2  0  0  0  0
M  END
> <Shapegauss>
-287.681549

$$$$
