REMARK  5 active torsions:
REMARK  status: ('A' for Active; 'I' for Inactive)
REMARK    1  A    between atoms: N_2  and  C_5 
REMARK    2  A    between atoms: N_6  and  C_7 
REMARK    3  A    between atoms: C_7  and  C_11 
REMARK    4  A    between atoms: C_7  and  C_8 
REMARK    5  A    between atoms: C_11  and  O_13 
ROOT
HETATM    1  C   UNL     1       7.461  -1.236  23.721  1.00  0.00     0.121 A 
HETATM    2  N   UNL     1       8.372  -0.460  23.171  1.00  0.00    -0.214 NA
HETATM    3  C   UNL     1       7.014  -0.304  23.193  1.00  0.00     0.124 A 
HETATM    4  S   UNL     1       5.473   0.428  23.000  1.00  0.00    -0.063 SA
ENDROOT
BRANCH   2   5
HETATM    5  C   UNL     1       9.137   0.080  22.209  1.00  0.00     0.098 C 
BRANCH   5   6
HETATM    6  C   UNL     1       8.196   0.381  20.990  1.00  0.00     0.184 C 
BRANCH   6   7
HETATM    7  O   UNL     1       7.559  -0.762  20.490  1.00  0.00    -0.399 OA
HETATM    8  H   UNL     1       7.670  -0.920  19.570  1.00  0.00     0.209 HD
ENDBRANCH   6   7
ENDBRANCH   5   6
BRANCH   5   9
HETATM    9  C   UNL     1      10.184  -1.046  21.977  1.00  0.00    -0.002 C 
HETATM   10  C   UNL     1      10.824  -1.393  23.332  1.00  0.00     0.011 C 
HETATM   11  C   UNL     1       9.469  -2.164  21.429  1.00  0.00     0.011 C 
ENDBRANCH   5   9
ENDBRANCH   2   5
BRANCH   1  12
HETATM   12  N   UNL     1       6.796  -2.235  24.496  1.00  0.00    -0.364 N 
HETATM   13  C   UNL     1       7.518  -3.160  24.814  1.00  0.00     0.119 C 
ATOM     14  HN  UNL     1       5.812  -2.178  24.757  1.00  0.00     0.165 HD
ENDBRANCH   1  12
TORSDOF 5
