MODEL 1
REMARK VINA RESULT:    -4.187      0.000      0.000
REMARK INTER + INTRA:          -5.131
REMARK INTER:                  -5.289
REMARK INTRA:                   0.158
REMARK UNBOUND:                 0.158
REMARK  5 active torsions:
REMARK  status: ('A' for Active; 'I' for Inactive)
REMARK    1  A    between atoms: N_2  and  C_5 
REMARK    2  A    between atoms: N_6  and  C_7 
REMARK    3  A    between atoms: C_7  and  C_11 
REMARK    4  A    between atoms: C_7  and  C_8 
REMARK    5  A    between atoms: C_11  and  O_13 
ROOT
HETATM    1  C   UNL     1       8.705  15.210   1.543  1.00  0.00     0.121 A 
HETATM    2  N   UNL     1       7.809  14.338   1.959  1.00  0.00    -0.214 NA
HETATM    3  C   UNL     1       9.011  14.666   2.522  1.00  0.00     0.124 A 
HETATM    4  S   UNL     1      10.286  14.742   3.670  1.00  0.00    -0.063 SA
ENDROOT
BRANCH   2   5
HETATM    5  C   UNL     1       7.228  13.146   2.162  1.00  0.00     0.098 C 
BRANCH   5   6
HETATM    6  C   UNL     1       6.605  12.701   0.792  1.00  0.00     0.184 C 
BRANCH   6   7
HETATM    7  O   UNL     1       7.056  11.446   0.363  1.00  0.00    -0.399 OA
HETATM    8  H   UNL     1       7.986  11.365   0.250  1.00  0.00     0.209 HD
ENDBRANCH   6   7
ENDBRANCH   5   6
BRANCH   5   9
HETATM    9  C   UNL     1       6.201  13.487   3.278  1.00  0.00    -0.002 C 
HETATM   10  C   UNL     1       4.797  13.125   2.766  1.00  0.00     0.011 C 
HETATM   11  C   UNL     1       6.564  12.700   4.423  1.00  0.00     0.011 C 
ENDBRANCH   5   9
ENDBRANCH   2   5
BRANCH   1  12
HETATM   12  N   UNL     1       9.371  16.273   0.860  1.00  0.00    -0.364 N 
HETATM   13  C   UNL     1       8.929  17.373   1.129  1.00  0.00     0.119 C 
ATOM     14  HN  UNL     1      10.142  16.124   0.209  1.00  0.00     0.165 HD
ENDBRANCH   1  12
TORSDOF 5
ENDMDL
MODEL 2
REMARK VINA RESULT:    -4.088     23.979     24.823
REMARK INTER + INTRA:          -5.005
REMARK INTER:                  -5.122
REMARK INTRA:                   0.117
REMARK UNBOUND:                 0.158
REMARK  5 active torsions:
REMARK  status: ('A' for Active; 'I' for Inactive)
REMARK    1  A    between atoms: N_2  and  C_5 
REMARK    2  A    between atoms: N_6  and  C_7 
REMARK    3  A    between atoms: C_7  and  C_11 
REMARK    4  A    between atoms: C_7  and  C_8 
REMARK    5  A    between atoms: C_11  and  O_13 
ROOT
HETATM    1  C   UNL     1      10.053   3.991  23.962  1.00  0.00     0.121 A 
HETATM    2  N   UNL     1      10.656   2.821  23.920  1.00  0.00    -0.214 NA
HETATM    3  C   UNL     1      11.190   4.067  23.740  1.00  0.00     0.124 A 
HETATM    4  S   UNL     1      12.365   5.303  23.541  1.00  0.00    -0.063 SA
ENDROOT
BRANCH   2   5
HETATM    5  C   UNL     1      11.213   1.722  23.389  1.00  0.00     0.098 C 
BRANCH   5   6
HETATM    6  C   UNL     1      10.158   1.101  22.408  1.00  0.00     0.184 C 
BRANCH   6   7
HETATM    7  O   UNL     1       9.840   1.944  21.335  1.00  0.00    -0.399 OA
HETATM    8  H   UNL     1       9.080   1.701  20.839  1.00  0.00     0.209 HD
ENDBRANCH   6   7
ENDBRANCH   5   6
BRANCH   5   9
HETATM    9  C   UNL     1      11.512   0.880  24.662  1.00  0.00    -0.002 C 
HETATM   10  C   UNL     1      10.251   0.071  25.009  1.00  0.00     0.011 C 
HETATM   11  C   UNL     1      12.616   0.022  24.336  1.00  0.00     0.011 C 
ENDBRANCH   5   9
ENDBRANCH   2   5
BRANCH   1  12
HETATM   12  N   UNL     1       9.107   5.041  24.173  1.00  0.00    -0.364 N 
HETATM   13  C   UNL     1       8.889   5.266  25.348  1.00  0.00     0.119 C 
ATOM     14  HN  UNL     1       8.659   5.552  23.413  1.00  0.00     0.165 HD
ENDBRANCH   1  12
TORSDOF 5
ENDMDL
MODEL 3
REMARK VINA RESULT:    -4.077      2.174      2.815
REMARK INTER + INTRA:          -4.992
REMARK INTER:                  -5.450
REMARK INTRA:                   0.458
REMARK UNBOUND:                 0.158
REMARK  5 active torsions:
REMARK  status: ('A' for Active; 'I' for Inactive)
REMARK    1  A    between atoms: N_2  and  C_5 
REMARK    2  A    between atoms: N_6  and  C_7 
REMARK    3  A    between atoms: C_7  and  C_11 
REMARK    4  A    between atoms: C_7  and  C_8 
REMARK    5  A    between atoms: C_11  and  O_13 
ROOT
HETATM    1  C   UNL     1       9.257  14.091   2.941  1.00  0.00     0.121 A 
HETATM    2  N   UNL     1       8.155  13.370   2.916  1.00  0.00    -0.214 NA
HETATM    3  C   UNL     1       8.328  14.683   2.574  1.00  0.00     0.124 A 
HETATM    4  S   UNL     1       7.983  16.242   1.944  1.00  0.00    -0.063 SA
ENDROOT
BRANCH   2   5
HETATM    5  C   UNL     1       6.969  12.887   3.319  1.00  0.00     0.098 C 
BRANCH   5   6
HETATM    6  C   UNL     1       7.261  11.586   4.146  1.00  0.00     0.184 C 
BRANCH   6   7
HETATM    7  O   UNL     1       8.628  11.304   4.266  1.00  0.00    -0.399 OA
HETATM    8  H   UNL     1       8.925  11.090   5.132  1.00  0.00     0.209 HD
ENDBRANCH   6   7
ENDBRANCH   5   6
BRANCH   5   9
HETATM    9  C   UNL     1       6.248  12.663   1.960  1.00  0.00    -0.002 C 
HETATM   10  C   UNL     1       6.684  11.296   1.406  1.00  0.00     0.011 C 
HETATM   11  C   UNL     1       4.839  12.697   2.233  1.00  0.00     0.011 C 
ENDBRANCH   5   9
ENDBRANCH   2   5
BRANCH   1  12
HETATM   12  N   UNL     1      10.621  14.512   3.007  1.00  0.00    -0.364 N 
HETATM   13  C   UNL     1      10.921  15.011   4.075  1.00  0.00     0.119 C 
ATOM     14  HN  UNL     1      11.278  14.404   2.235  1.00  0.00     0.165 HD
ENDBRANCH   1  12
TORSDOF 5
ENDMDL
MODEL 4
REMARK VINA RESULT:    -4.068     28.092     29.596
REMARK INTER + INTRA:          -4.980
REMARK INTER:                  -5.053
REMARK INTRA:                   0.073
REMARK UNBOUND:                 0.158
REMARK  5 active torsions:
REMARK  status: ('A' for Active; 'I' for Inactive)
REMARK    1  A    between atoms: N_2  and  C_5 
REMARK    2  A    between atoms: N_6  and  C_7 
REMARK    3  A    between atoms: C_7  and  C_11 
REMARK    4  A    between atoms: C_7  and  C_8 
REMARK    5  A    between atoms: C_11  and  O_13 
ROOT
HETATM    1  C   UNL     1       7.394  -5.036  23.149  1.00  0.00     0.121 A 
HETATM    2  N   UNL     1       7.041  -4.728  24.380  1.00  0.00    -0.214 NA
HETATM    3  C   UNL     1       7.636  -3.937  23.437  1.00  0.00     0.124 A 
HETATM    4  S   UNL     1       8.250  -2.530  22.668  1.00  0.00    -0.063 SA
ENDROOT
BRANCH   2   5
HETATM    5  C   UNL     1       7.171  -4.491  25.695  1.00  0.00     0.098 C 
BRANCH   5   6
HETATM    6  C   UNL     1       8.218  -5.523  26.245  1.00  0.00     0.184 C 
BRANCH   6   7
HETATM    7  O   UNL     1       9.074  -4.978  27.211  1.00  0.00    -0.399 OA
HETATM    8  H   UNL     1       9.207  -4.049  27.159  1.00  0.00     0.209 HD
ENDBRANCH   6   7
ENDBRANCH   5   6
BRANCH   5   9
HETATM    9  C   UNL     1       5.713  -4.696  26.193  1.00  0.00    -0.002 C 
HETATM   10  C   UNL     1       5.485  -6.203  26.404  1.00  0.00     0.011 C 
HETATM   11  C   UNL     1       5.594  -3.967  27.425  1.00  0.00     0.011 C 
ENDBRANCH   5   9
ENDBRANCH   2   5
BRANCH   1  12
HETATM   12  N   UNL     1       7.545  -5.689  21.888  1.00  0.00    -0.364 N 
HETATM   13  C   UNL     1       6.498  -5.827  21.287  1.00  0.00     0.119 C 
ATOM     14  HN  UNL     1       8.444  -6.007  21.527  1.00  0.00     0.165 HD
ENDBRANCH   1  12
TORSDOF 5
ENDMDL
MODEL 5
REMARK VINA RESULT:    -4.068     33.586     34.961
REMARK INTER + INTRA:          -4.979
REMARK INTER:                  -5.233
REMARK INTRA:                   0.253
REMARK UNBOUND:                 0.158
REMARK  5 active torsions:
REMARK  status: ('A' for Active; 'I' for Inactive)
REMARK    1  A    between atoms: N_2  and  C_5 
REMARK    2  A    between atoms: N_6  and  C_7 
REMARK    3  A    between atoms: C_7  and  C_11 
REMARK    4  A    between atoms: C_7  and  C_8 
REMARK    5  A    between atoms: C_11  and  O_13 
ROOT
HETATM    1  C   UNL     1       0.977 -18.413   7.775  1.00  0.00     0.121 A 
HETATM    2  N   UNL     1       1.706 -19.437   8.166  1.00  0.00    -0.214 NA
HETATM    3  C   UNL     1       0.405 -19.147   8.470  1.00  0.00     0.124 A 
HETATM    4  S   UNL     1      -1.190 -19.341   9.073  1.00  0.00    -0.063 SA
ENDROOT
BRANCH   2   5
HETATM    5  C   UNL     1       2.476 -20.189   8.969  1.00  0.00     0.098 C 
BRANCH   5   6
HETATM    6  C   UNL     1       3.946 -19.658   8.823  1.00  0.00     0.184 C 
BRANCH   6   7
HETATM    7  O   UNL     1       4.056 -18.277   9.026  1.00  0.00    -0.399 OA
HETATM    8  H   UNL     1       4.691 -17.836   8.491  1.00  0.00     0.209 HD
ENDBRANCH   6   7
ENDBRANCH   5   6
BRANCH   5   9
HETATM    9  C   UNL     1       2.224 -21.612   8.397  1.00  0.00    -0.002 C 
HETATM   10  C   UNL     1       3.501 -22.071   7.672  1.00  0.00     0.011 C 
HETATM   11  C   UNL     1       1.921 -22.457   9.518  1.00  0.00     0.011 C 
ENDBRANCH   5   9
ENDBRANCH   2   5
BRANCH   1  12
HETATM   12  N   UNL     1       0.487 -17.258   7.091  1.00  0.00    -0.364 N 
HETATM   13  C   UNL     1       0.129 -17.487   5.953  1.00  0.00     0.119 C 
ATOM     14  HN  UNL     1       0.443 -16.332   7.516  1.00  0.00     0.165 HD
ENDBRANCH   1  12
TORSDOF 5
ENDMDL
MODEL 6
REMARK VINA RESULT:    -4.050     21.982     23.854
REMARK INTER + INTRA:          -4.957
REMARK INTER:                  -5.031
REMARK INTRA:                   0.074
REMARK UNBOUND:                 0.158
REMARK  5 active torsions:
REMARK  status: ('A' for Active; 'I' for Inactive)
REMARK    1  A    between atoms: N_2  and  C_5 
REMARK    2  A    between atoms: N_6  and  C_7 
REMARK    3  A    between atoms: C_7  and  C_11 
REMARK    4  A    between atoms: C_7  and  C_8 
REMARK    5  A    between atoms: C_11  and  O_13 
ROOT
HETATM    1  C   UNL     1       7.339   0.337  19.768  1.00  0.00     0.121 A 
HETATM    2  N   UNL     1       7.894  -0.027  20.906  1.00  0.00    -0.214 NA
HETATM    3  C   UNL     1       6.925   0.913  20.687  1.00  0.00     0.124 A 
HETATM    4  S   UNL     1       5.695   2.065  21.014  1.00  0.00    -0.063 SA
ENDROOT
BRANCH   2   5
HETATM    5  C   UNL     1       8.711   0.025  21.970  1.00  0.00     0.098 C 
BRANCH   5   6
HETATM    6  C   UNL     1      10.097   0.555  21.459  1.00  0.00     0.184 C 
BRANCH   6   7
HETATM    7  O   UNL     1      10.194   1.952  21.482  1.00  0.00    -0.399 OA
HETATM    8  H   UNL     1       9.490   2.416  21.067  1.00  0.00     0.209 HD
ENDBRANCH   6   7
ENDBRANCH   5   6
BRANCH   5   9
HETATM    9  C   UNL     1       8.701  -1.457  22.441  1.00  0.00    -0.002 C 
HETATM   10  C   UNL     1      10.130  -1.836  22.864  1.00  0.00     0.011 C 
HETATM   11  C   UNL     1       7.786  -1.530  23.545  1.00  0.00     0.011 C 
ENDBRANCH   5   9
ENDBRANCH   2   5
BRANCH   1  12
HETATM   12  N   UNL     1       6.915   0.396  18.405  1.00  0.00    -0.364 N 
HETATM   13  C   UNL     1       6.020  -0.385  18.143  1.00  0.00     0.119 C 
ATOM     14  HN  UNL     1       7.322   1.031  17.719  1.00  0.00     0.165 HD
ENDBRANCH   1  12
TORSDOF 5
ENDMDL
MODEL 7
REMARK VINA RESULT:    -3.966     26.110     27.495
REMARK INTER + INTRA:          -4.851
REMARK INTER:                  -4.904
REMARK INTRA:                   0.053
REMARK UNBOUND:                 0.158
REMARK  5 active torsions:
REMARK  status: ('A' for Active; 'I' for Inactive)
REMARK    1  A    between atoms: N_2  and  C_5 
REMARK    2  A    between atoms: N_6  and  C_7 
REMARK    3  A    between atoms: C_7  and  C_11 
REMARK    4  A    between atoms: C_7  and  C_8 
REMARK    5  A    between atoms: C_11  and  O_13 
ROOT
HETATM    1  C   UNL     1       8.911  -1.993  25.412  1.00  0.00     0.121 A 
HETATM    2  N   UNL     1       9.729  -1.149  24.819  1.00  0.00    -0.214 NA
HETATM    3  C   UNL     1       8.394  -1.009  25.078  1.00  0.00     0.124 A 
HETATM    4  S   UNL     1       6.849  -0.274  25.224  1.00  0.00    -0.063 SA
ENDROOT
BRANCH   2   5
HETATM    5  C   UNL     1      10.335  -0.491  23.817  1.00  0.00     0.098 C 
BRANCH   5   6
HETATM    6  C   UNL     1      10.895  -1.574  22.830  1.00  0.00     0.184 C 
BRANCH   6   7
HETATM    7  O   UNL     1      10.019  -1.865  21.776  1.00  0.00    -0.399 OA
HETATM    8  H   UNL     1       9.985  -2.767  21.513  1.00  0.00     0.209 HD
ENDBRANCH   6   7
ENDBRANCH   5   6
BRANCH   5   9
HETATM    9  C   UNL     1      11.411   0.325  24.588  1.00  0.00    -0.002 C 
HETATM   10  C   UNL     1      12.782  -0.321  24.325  1.00  0.00     0.011 C 
HETATM   11  C   UNL     1      11.352   1.666  24.078  1.00  0.00     0.011 C 
ENDBRANCH   5   9
ENDBRANCH   2   5
BRANCH   1  12
HETATM   12  N   UNL     1       8.370  -3.083  26.160  1.00  0.00    -0.364 N 
HETATM   13  C   UNL     1       8.215  -4.092  25.500  1.00  0.00     0.119 C 
ATOM     14  HN  UNL     1       8.136  -3.022  27.151  1.00  0.00     0.165 HD
ENDBRANCH   1  12
TORSDOF 5
ENDMDL
MODEL 8
REMARK VINA RESULT:    -3.907      3.453      4.343
REMARK INTER + INTRA:          -4.776
REMARK INTER:                  -4.825
REMARK INTRA:                   0.049
REMARK UNBOUND:                 0.158
REMARK  5 active torsions:
REMARK  status: ('A' for Active; 'I' for Inactive)
REMARK    1  A    between atoms: N_2  and  C_5 
REMARK    2  A    between atoms: N_6  and  C_7 
REMARK    3  A    between atoms: C_7  and  C_11 
REMARK    4  A    between atoms: C_7  and  C_8 
REMARK    5  A    between atoms: C_11  and  O_13 
ROOT
HETATM    1  C   UNL     1      11.283  17.232   4.483  1.00  0.00     0.121 A 
HETATM    2  N   UNL     1      10.197  16.660   4.008  1.00  0.00    -0.214 NA
HETATM    3  C   UNL     1      10.485  17.014   5.296  1.00  0.00     0.124 A 
HETATM    4  S   UNL     1      10.263  17.320   6.971  1.00  0.00    -0.063 SA
ENDROOT
BRANCH   2   5
HETATM    5  C   UNL     1       9.328  15.679   3.715  1.00  0.00     0.098 C 
BRANCH   5   6
HETATM    6  C   UNL     1      10.115  14.600   2.891  1.00  0.00     0.184 C 
BRANCH   6   7
HETATM    7  O   UNL     1       9.721  13.288   3.184  1.00  0.00    -0.399 OA
HETATM    8  H   UNL     1       9.311  12.820   2.479  1.00  0.00     0.209 HD
ENDBRANCH   6   7
ENDBRANCH   5   6
BRANCH   5   9
HETATM    9  C   UNL     1       8.240  16.456   2.921  1.00  0.00    -0.002 C 
HETATM   10  C   UNL     1       8.766  16.698   1.496  1.00  0.00     0.011 C 
HETATM   11  C   UNL     1       7.066  15.629   2.917  1.00  0.00     0.011 C 
ENDBRANCH   5   9
ENDBRANCH   2   5
BRANCH   1  12
HETATM   12  N   UNL     1      12.529  17.920   4.608  1.00  0.00    -0.364 N 
HETATM   13  C   UNL     1      12.460  19.101   4.325  1.00  0.00     0.119 C 
ATOM     14  HN  UNL     1      13.392  17.466   4.905  1.00  0.00     0.165 HD
ENDBRANCH   1  12
TORSDOF 5
ENDMDL
MODEL 9
REMARK VINA RESULT:    -3.900     26.251     27.294
REMARK INTER + INTRA:          -4.768
REMARK INTER:                  -4.809
REMARK INTRA:                   0.040
REMARK UNBOUND:                 0.158
REMARK  5 active torsions:
REMARK  status: ('A' for Active; 'I' for Inactive)
REMARK    1  A    between atoms: N_2  and  C_5 
REMARK    2  A    between atoms: N_6  and  C_7 
REMARK    3  A    between atoms: C_7  and  C_11 
REMARK    4  A    between atoms: C_7  and  C_8 
REMARK    5  A    between atoms: C_11  and  O_13 
ROOT
HETATM    1  C   UNL     1       8.790  -2.291  22.289  1.00  0.00     0.121 A 
HETATM    2  N   UNL     1       7.879  -3.195  22.585  1.00  0.00    -0.214 NA
HETATM    3  C   UNL     1       7.792  -1.833  22.665  1.00  0.00     0.124 A 
HETATM    4  S   UNL     1       7.107  -0.271  22.860  1.00  0.00    -0.063 SA
ENDROOT
BRANCH   2   5
HETATM    5  C   UNL     1       7.122  -4.005  23.344  1.00  0.00     0.098 C 
BRANCH   5   6
HETATM    6  C   UNL     1       8.103  -4.860  24.221  1.00  0.00     0.184 C 
BRANCH   6   7
HETATM    7  O   UNL     1       7.547  -5.254  25.444  1.00  0.00    -0.399 OA
HETATM    8  H   UNL     1       8.135  -5.255  26.177  1.00  0.00     0.209 HD
ENDBRANCH   6   7
ENDBRANCH   5   6
BRANCH   5   9
HETATM    9  C   UNL     1       6.336  -4.798  22.262  1.00  0.00    -0.002 C 
HETATM   10  C   UNL     1       7.153  -6.049  21.896  1.00  0.00     0.011 C 
HETATM   11  C   UNL     1       5.072  -5.145  22.847  1.00  0.00     0.011 C 
ENDBRANCH   5   9
ENDBRANCH   2   5
BRANCH   1  12
HETATM   12  N   UNL     1       9.953  -1.627  21.794  1.00  0.00    -0.364 N 
HETATM   13  C   UNL     1      10.847  -1.541  22.613  1.00  0.00     0.119 C 
ATOM     14  HN  UNL     1      10.027  -1.261  20.845  1.00  0.00     0.165 HD
ENDBRANCH   1  12
TORSDOF 5
ENDMDL
