stable:False satoms:18 tatoms:24 sratio:0.75
  -OEChem-07092417323D

 24 24  0     1  0  0  0  0  0999 V2000
    6.3979   -4.8264   24.1659 Cl  0  0  0  0  0  0  0  0  0  0  0  0
    8.0959   -3.9388   25.5256 H   0  0  0  0  0  0  0  0  0  0  0  0
    9.9239   -3.2406   25.6769 O   0  0  0  0  0  0  0  0  0  0  0  0
    6.6890   -2.8878   25.4046 H   0  0  0  0  0  0  0  0  0  0  0  0
    7.7277   -1.1813   22.1973 N   0  0  0  0  0  0  0  0  0  0  0  0
    7.9199   -2.7960   23.7509 N   0  0  3  0  0  0  0  0  0  0  0  0
   10.1279   -2.6820   24.6300 C   0  0  0  0  0  0  0  0  0  0  0  0
    7.3601   -3.4979   24.8259 C   0  0  0  0  0  0  0  0  0  0  0  0
   11.3204   -0.9756   22.5526 C   0  0  0  0  0  0  0  0  0  0  0  0
   10.2242    0.3680   21.2013 C   0  0  0  0  0  0  0  0  0  0  0  0
   11.2154    0.7834   21.0793 H   0  0  0  0  0  0  0  0  0  0  0  0
   11.1603   -2.5144   24.3420 H   0  0  0  0  0  0  0  0  0  0  0  0
   12.6499   -1.5208   22.4113 Cl  0  0  0  0  0  0  0  0  0  0  0  0
    9.1036   -2.2476   23.6972 C   0  0  0  0  0  0  0  0  0  0  0  0
    8.9790   -1.2967   22.6116 C   0  0  0  0  0  0  0  0  0  0  0  0
    7.8464    1.9779   18.8196 H   0  0  0  0  0  0  0  0  0  0  0  0
    6.1955   -2.4081   22.5863 H   0  0  0  0  0  0  0  0  0  0  0  0
    7.5752    1.9950   19.8717 C   0  0  0  0  0  0  0  0  0  0  0  0
    7.9601    0.7845   20.4480 O   0  0  0  0  0  0  0  0  0  0  0  0
    7.1566   -2.2039   22.5620 N   0  0  0  0  0  0  0  0  0  0  0  0
    9.2518    0.6823   20.4400 N   0  0  0  0  0  0  0  0  0  0  0  0
    6.5114    2.1020   19.9961 H   0  0  0  0  0  0  0  0  0  0  0  0
    8.0628    2.8465   20.3310 H   0  0  0  0  0  0  0  0  0  0  0  0
   10.1293   -0.6119   22.1696 C   0  0  0  0  0  0  0  0  0  0  0  0
 16 18  1  0  0  0  0
 18 22  1  0  0  0  0
 18 23  1  0  0  0  0
 18 19  1  0  0  0  0
 19 21  1  0  0  0  0
 10 21  2  0  0  0  0
 10 11  1  0  0  0  0
 10 24  1  0  0  0  0
  9 24  2  3  0  0  0
 15 24  1  0  0  0  0
  5 20  1  0  0  0  0
  5 15  1  0  0  0  0
  9 13  1  0  0  0  0
 17 20  1  0  0  0  0
  6 20  1  0  0  0  0
 14 15  2  0  0  0  0
  6 14  1  0  0  0  0
  7 14  1  0  0  0  0
  6  8  1  0  0  0  0
  1  8  1  0  0  0  0
  7 12  1  0  0  0  0
  3  7  2  0  0  0  0
  4  8  1  0  0  0  0
  2  8  1  0  0  0  0
M  END
> <Shapegauss>
-136.924652

$$$$
