stable:False satoms:18 tatoms:24 sratio:0.75
  -OEChem-08052418123D

 26 26  0     1  0  0  0  0  0999 V2000
  -13.7580   -2.1355  -23.2139 Cl  0  0  0  0  0  0  0  0  0  0  0  0
  -11.5052   -2.6229  -22.7588 H   0  0  0  0  0  0  0  0  0  0  0  0
   -9.6272   -2.5296  -23.3212 O   0  0  0  0  0  0  0  0  0  0  0  0
  -12.2084   -1.4824  -21.6171 H   0  0  0  0  0  0  0  0  0  0  0  0
  -11.5989    1.6104  -23.7005 N   0  0  0  0  0  0  0  0  0  0  0  0
  -11.6918   -0.6189  -23.4187 N   0  0  3  0  0  0  0  0  0  0  0  0
   -9.5384   -1.4934  -23.9279 C   0  0  0  0  0  0  0  0  0  0  0  0
  -12.1308   -1.7146  -22.6648 C   0  0  0  0  0  0  0  0  0  0  0  0
   -8.4352    0.8696  -25.2874 C   0  0  0  0  0  0  0  0  0  0  0  0
   -9.1461    2.9374  -25.0601 C   0  0  0  0  0  0  0  0  0  0  0  0
   -8.1769    3.1425  -25.4942 H   0  0  0  0  0  0  0  0  0  0  0  0
   -8.7053   -1.3818  -24.6137 H   0  0  0  0  0  0  0  0  0  0  0  0
   -7.6440    0.2915  -26.3479 Cl  0  0  0  0  0  0  0  0  0  0  0  0
  -10.4799   -0.3911  -23.8480 C   0  0  0  0  0  0  0  0  0  0  0  0
  -10.4901    1.0298  -24.1297 C   0  0  0  0  0  0  0  0  0  0  0  0
  -11.1205    6.0885  -24.7594 H   0  0  0  0  0  0  0  0  0  0  0  0
  -13.3056    0.7238  -23.1485 H   0  0  0  0  0  0  0  0  0  0  0  0
  -10.9932    5.5001  -23.8548 C   0  0  0  0  0  0  0  0  0  0  0  0
  -11.0563    4.1484  -24.1931 O   0  0  0  0  0  0  0  0  0  0  0  0
  -12.4283    0.7132  -23.5914 N   0  0  0  0  0  0  0  0  0  0  0  0
  -10.0455    3.8321  -24.9395 N   0  0  0  0  0  0  0  0  0  0  0  0
  -11.7767    5.7050  -23.1457 H   0  0  0  0  0  0  0  0  0  0  0  0
  -10.0446    5.7718  -23.4075 H   0  0  0  0  0  0  0  0  0  0  0  0
   -9.3681    1.6085  -24.7570 C   0  0  0  0  0  0  0  0  0  0  0  0
  -11.9110    2.2942  -24.3601 H   0  0  0  0  0  0  0  0  0  0  0  0
   -7.9860    0.4238  -24.4123 H   0  0  0  0  0  0  0  0  0  0  0  0
 16 18  1  0  0  0  0
 18 22  1  0  0  0  0
 18 23  1  0  0  0  0
 18 19  1  0  0  0  0
 19 21  1  0  0  0  0
 10 21  2  0  0  0  0
 10 11  1  0  0  0  0
 10 24  1  0  0  0  0
  9 24  2  3  0  0  0
 15 24  1  0  0  0  0
  5 20  1  0  0  0  0
  5 15  1  0  0  0  0
  9 13  1  0  0  0  0
 17 20  1  0  0  0  0
  6 20  1  0  0  0  0
 14 15  2  0  0  0  0
  6 14  1  0  0  0  0
  7 14  1  0  0  0  0
  6  8  1  0  0  0  0
  1  8  1  0  0  0  0
  7 12  1  0  0  0  0
  3  7  2  0  0  0  0
  4  8  1  0  0  0  0
  2  8  1  0  0  0  0
  5 25  1  0  0  0  0
  9 26  1  0  0  0  0
M  END
> <Chemgauss4>
-5.763883

$$$$
