stable:False satoms:18 tatoms:24 sratio:0.75
  -OEChem-08052418123D

 26 26  0     1  0  0  0  0  0999 V2000
   13.7422   -1.7049   23.2904 Cl  0  0  0  0  0  0  0  0  0  0  0  0
   11.5634   -2.4233   22.7839 H   0  0  0  0  0  0  0  0  0  0  0  0
    9.6717   -2.5182   23.2982 O   0  0  0  0  0  0  0  0  0  0  0  0
   12.1760   -1.2254   21.6489 H   0  0  0  0  0  0  0  0  0  0  0  0
   11.2006    1.8044   23.6854 N   0  0  0  0  0  0  0  0  0  0  0  0
   11.5276   -0.4058   23.4283 N   0  0  3  0  0  0  0  0  0  0  0  0
    9.4621   -1.4920   23.8921 C   0  0  0  0  0  0  0  0  0  0  0  0
   12.0954   -1.4565   22.6966 C   0  0  0  0  0  0  0  0  0  0  0  0
    8.0889    0.7559   25.1999 C   0  0  0  0  0  0  0  0  0  0  0  0
    8.5910    2.8838   24.9697 C   0  0  0  0  0  0  0  0  0  0  0  0
    7.5950    2.9921   25.3774 H   0  0  0  0  0  0  0  0  0  0  0  0
    8.6045   -1.4610   24.5557 H   0  0  0  0  0  0  0  0  0  0  0  0
    7.3336    0.1079   26.2460 Cl  0  0  0  0  0  0  0  0  0  0  0  0
   10.2881   -0.2998   23.8248 C   0  0  0  0  0  0  0  0  0  0  0  0
   10.1461    1.1167   24.0924 C   0  0  0  0  0  0  0  0  0  0  0  0
   10.2410    6.2179   24.6871 H   0  0  0  0  0  0  0  0  0  0  0  0
   13.0026    1.0927   23.1851 H   0  0  0  0  0  0  0  0  0  0  0  0
   10.1978    5.6129   23.7855 C   0  0  0  0  0  0  0  0  0  0  0  0
   10.3896    4.2772   24.1388 O   0  0  0  0  0  0  0  0  0  0  0  0
   12.1197    0.9958   23.6060 N   0  0  0  0  0  0  0  0  0  0  0  0
    9.3973    3.8648   24.8628 N   0  0  0  0  0  0  0  0  0  0  0  0
   10.9745    5.8914   23.0942 H   0  0  0  0  0  0  0  0  0  0  0  0
    9.2384    5.7829   23.3119 H   0  0  0  0  0  0  0  0  0  0  0  0
    8.9550    1.5824   24.6857 C   0  0  0  0  0  0  0  0  0  0  0  0
   11.4243    2.5213   24.3457 H   0  0  0  0  0  0  0  0  0  0  0  0
    7.7103    0.2601   24.3183 H   0  0  0  0  0  0  0  0  0  0  0  0
 16 18  1  0  0  0  0
 18 22  1  0  0  0  0
 18 23  1  0  0  0  0
 18 19  1  0  0  0  0
 19 21  1  0  0  0  0
 10 21  2  0  0  0  0
 10 11  1  0  0  0  0
 10 24  1  0  0  0  0
  9 24  2  3  0  0  0
 15 24  1  0  0  0  0
  5 20  1  0  0  0  0
  5 15  1  0  0  0  0
  9 13  1  0  0  0  0
 17 20  1  0  0  0  0
  6 20  1  0  0  0  0
 14 15  2  0  0  0  0
  6 14  1  0  0  0  0
  7 14  1  0  0  0  0
  6  8  1  0  0  0  0
  1  8  1  0  0  0  0
  7 12  1  0  0  0  0
  3  7  2  0  0  0  0
  4  8  1  0  0  0  0
  2  8  1  0  0  0  0
  5 25  1  0  0  0  0
  9 26  1  0  0  0  0
M  END
> <Chemgauss4>
-5.981223

$$$$
