REMARK  4 active torsions:
REMARK  status: ('A' for Active; 'I' for Inactive)
REMARK    1  A    between atoms: N_2  and  C_4 
REMARK    2  A    between atoms: C_4  and  C_7 
REMARK    3  A    between atoms: C_11  and  C_12 
REMARK       I    between atoms: C_12  and  N_14 
REMARK       I    between atoms: N_14  and  C_16 
REMARK    4  A    between atoms: C_16  and  C_19 
ROOT
HETATM    1  N   UNL     1       9.379  -1.417  23.010  1.00  0.00    -0.338 N 
ATOM      2  HN  UNL     1       8.446  -1.661  22.677  1.00  0.00     0.167 HD
HETATM    3  C   UNL     1       9.818  -1.814  24.107  1.00  0.00     0.138 C 
HETATM    4  S   UNL     1      10.832  -0.763  25.081  1.00  0.00    -0.074 SA
HETATM    5  C   UNL     1      12.010  -0.466  23.914  1.00  0.00     0.055 C 
HETATM    6  C   UNL     1      11.588  -0.754  22.636  1.00  0.00     0.042 C 
HETATM    7  C   UNL     1      10.175  -0.684  22.330  1.00  0.00     0.102 C 
ENDROOT
BRANCH   7   8
HETATM    8  C   UNL     1       9.349   0.113  21.299  1.00  0.00     0.275 C 
HETATM    9  O   UNL     1       9.829   1.058  20.713  1.00  0.00    -0.266 OA
HETATM   10  N   UNL     1       8.073  -0.261  21.217  1.00  0.00    -0.289 N 
HETATM   11  C   UNL     1       7.361  -0.081  20.061  1.00  0.00     0.247 C 
ATOM     12  HN  UNL     1       7.620  -0.687  22.026  1.00  0.00     0.172 HD
HETATM   13  O   UNL     1       7.857  -0.358  18.975  1.00  0.00    -0.268 OA
BRANCH  11  14
HETATM   14  C   UNL     1       5.991   0.428  20.130  1.00  0.00     0.064 C 
HETATM   15  C   UNL     1       5.553   0.900  18.923  1.00  0.00     0.017 C 
ENDBRANCH  11  14
ENDBRANCH   7   8
BRANCH   3  16
HETATM   16  C   UNL     1       9.160  -2.941  24.568  1.00  0.00    -0.009 C 
BRANCH  16  17
HETATM   17  N   UNL     1       8.345  -3.602  24.922  1.00  0.00    -0.359 N 
HETATM   18  C   UNL     1       8.211  -4.397  26.120  1.00  0.00     0.156 C 
ATOM     19  HN  UNL     1       7.547  -3.659  24.289  1.00  0.00     0.168 HD
ENDBRANCH  16  17
ENDBRANCH   3  16
TORSDOF 4
