MODEL 1
REMARK VINA RESULT:    -5.488      0.000      0.000
REMARK INTER + INTRA:          -7.143
REMARK INTER:                  -6.772
REMARK INTRA:                  -0.372
REMARK UNBOUND:                -0.372
REMARK  4 active torsions:
REMARK  status: ('A' for Active; 'I' for Inactive)
REMARK    1  A    between atoms: N_2  and  C_4 
REMARK    2  A    between atoms: C_4  and  C_7 
REMARK    3  A    between atoms: C_11  and  C_12 
REMARK       I    between atoms: C_12  and  N_14 
REMARK       I    between atoms: N_14  and  C_16 
REMARK    4  A    between atoms: C_16  and  C_19 
ROOT
HETATM    1  N   UNL     1       8.182  -1.876  22.166  1.00  0.00    -0.338 N 
ATOM      2  HN  UNL     1       7.311  -2.019  21.655  1.00  0.00     0.167 HD
HETATM    3  C   UNL     1       8.512  -2.591  23.132  1.00  0.00     0.138 C 
HETATM    4  S   UNL     1       9.341  -1.884  24.508  1.00  0.00    -0.074 SA
HETATM    5  C   UNL     1      10.628  -1.210  23.656  1.00  0.00     0.055 C 
HETATM    6  C   UNL     1      10.376  -1.086  22.308  1.00  0.00     0.042 C 
HETATM    7  C   UNL     1       9.007  -0.950  21.858  1.00  0.00     0.102 C 
ENDROOT
BRANCH   7   8
HETATM    8  C   UNL     1       8.262   0.117  21.029  1.00  0.00     0.275 C 
HETATM    9  O   UNL     1       8.616   1.275  21.043  1.00  0.00    -0.266 OA
HETATM   10  N   UNL     1       7.167  -0.334  20.420  1.00  0.00    -0.289 N 
HETATM   11  C   UNL     1       6.707   0.257  19.272  1.00  0.00     0.247 C 
ATOM     12  HN  UNL     1       6.663  -1.130  20.812  1.00  0.00     0.172 HD
HETATM   13  O   UNL     1       7.484   0.560  18.374  1.00  0.00    -0.268 OA
BRANCH  11  14
HETATM   14  C   UNL     1       5.275   0.508  19.115  1.00  0.00     0.064 C 
HETATM   15  C   UNL     1       4.914   1.747  19.570  1.00  0.00     0.017 C 
ENDBRANCH  11  14
ENDBRANCH   7   8
BRANCH   3  16
HETATM   16  C   UNL     1       7.872  -3.819  23.128  1.00  0.00    -0.009 C 
BRANCH  16  17
HETATM   17  N   UNL     1       7.673  -4.891  22.938  1.00  0.00    -0.359 N 
HETATM   18  C   UNL     1       7.133  -5.573  21.785  1.00  0.00     0.156 C 
ATOM     19  HN  UNL     1       7.915  -5.507  23.715  1.00  0.00     0.168 HD
ENDBRANCH  16  17
ENDBRANCH   3  16
TORSDOF 4
ENDMDL
MODEL 2
REMARK VINA RESULT:    -5.164      2.923      5.148
REMARK INTER + INTRA:          -6.743
REMARK INTER:                  -6.405
REMARK INTRA:                  -0.338
REMARK UNBOUND:                -0.372
REMARK  4 active torsions:
REMARK  status: ('A' for Active; 'I' for Inactive)
REMARK    1  A    between atoms: N_2  and  C_4 
REMARK    2  A    between atoms: C_4  and  C_7 
REMARK    3  A    between atoms: C_11  and  C_12 
REMARK       I    between atoms: C_12  and  N_14 
REMARK       I    between atoms: N_14  and  C_16 
REMARK    4  A    between atoms: C_16  and  C_19 
ROOT
HETATM    1  N   UNL     1       8.885  -1.859  22.565  1.00  0.00    -0.338 N 
ATOM      2  HN  UNL     1       8.194  -2.293  21.953  1.00  0.00     0.167 HD
HETATM    3  C   UNL     1       9.628  -0.935  22.180  1.00  0.00     0.138 C 
HETATM    4  S   UNL     1      11.290  -0.852  22.739  1.00  0.00    -0.074 SA
HETATM    5  C   UNL     1      10.957  -0.848  24.390  1.00  0.00     0.055 C 
HETATM    6  C   UNL     1       9.692  -1.302  24.686  1.00  0.00     0.042 C 
HETATM    7  C   UNL     1       9.046  -2.226  23.779  1.00  0.00     0.102 C 
ENDROOT
BRANCH   7   8
HETATM    8  C   UNL     1       8.457  -3.643  23.945  1.00  0.00     0.275 C 
HETATM    9  O   UNL     1       8.628  -4.272  24.966  1.00  0.00    -0.266 OA
HETATM   10  N   UNL     1       7.870  -4.121  22.849  1.00  0.00    -0.289 N 
HETATM   11  C   UNL     1       6.870  -5.053  22.938  1.00  0.00     0.247 C 
ATOM     12  HN  UNL     1       8.169  -3.788  21.932  1.00  0.00     0.172 HD
HETATM   13  O   UNL     1       5.975  -4.928  23.765  1.00  0.00    -0.268 OA
BRANCH  11  14
HETATM   14  C   UNL     1       6.866  -6.194  22.022  1.00  0.00     0.064 C 
HETATM   15  C   UNL     1       6.105  -5.961  20.909  1.00  0.00     0.017 C 
ENDBRANCH  11  14
ENDBRANCH   7   8
BRANCH   3  16
HETATM   16  C   UNL     1       9.121  -0.268  21.078  1.00  0.00    -0.009 C 
BRANCH  16  17
HETATM   17  N   UNL     1       8.572  -0.076  20.136  1.00  0.00    -0.359 N 
HETATM   18  C   UNL     1       7.176   0.193  19.880  1.00  0.00     0.156 C 
ATOM     19  HN  UNL     1       9.157  -0.092  19.300  1.00  0.00     0.168 HD
ENDBRANCH  16  17
ENDBRANCH   3  16
TORSDOF 4
ENDMDL
MODEL 3
REMARK VINA RESULT:    -5.138      1.910      3.142
REMARK INTER + INTRA:          -6.712
REMARK INTER:                  -6.397
REMARK INTRA:                  -0.315
REMARK UNBOUND:                -0.372
REMARK  4 active torsions:
REMARK  status: ('A' for Active; 'I' for Inactive)
REMARK    1  A    between atoms: N_2  and  C_4 
REMARK    2  A    between atoms: C_4  and  C_7 
REMARK    3  A    between atoms: C_11  and  C_12 
REMARK       I    between atoms: C_12  and  N_14 
REMARK       I    between atoms: N_14  and  C_16 
REMARK    4  A    between atoms: C_16  and  C_19 
ROOT
HETATM    1  N   UNL     1       9.324  -0.383  22.595  1.00  0.00    -0.338 N 
ATOM      2  HN  UNL     1      10.010   0.183  22.096  1.00  0.00     0.167 HD
HETATM    3  C   UNL     1       9.655  -1.331  23.334  1.00  0.00     0.138 C 
HETATM    4  S   UNL     1       8.672  -2.784  23.394  1.00  0.00    -0.074 SA
HETATM    5  C   UNL     1       7.220  -2.039  23.809  1.00  0.00     0.055 C 
HETATM    6  C   UNL     1       7.214  -0.687  23.553  1.00  0.00     0.042 C 
HETATM    7  C   UNL     1       8.068  -0.167  22.506  1.00  0.00     0.102 C 
ENDROOT
BRANCH   7   8
HETATM    8  C   UNL     1       7.800   0.652  21.226  1.00  0.00     0.275 C 
HETATM    9  O   UNL     1       8.370   1.703  21.028  1.00  0.00    -0.266 OA
HETATM   10  N   UNL     1       6.831   0.160  20.456  1.00  0.00    -0.289 N 
HETATM   11  C   UNL     1       6.817   0.395  19.107  1.00  0.00     0.247 C 
ATOM     12  HN  UNL     1       6.089  -0.401  20.877  1.00  0.00     0.172 HD
HETATM   13  O   UNL     1       7.845   0.297  18.447  1.00  0.00    -0.268 OA
BRANCH  11  14
HETATM   14  C   UNL     1       5.558   0.748  18.450  1.00  0.00     0.064 C 
HETATM   15  C   UNL     1       4.693   1.385  19.296  1.00  0.00     0.017 C 
ENDBRANCH  11  14
ENDBRANCH   7   8
BRANCH   3  16
HETATM   16  C   UNL     1      10.965  -1.233  23.771  1.00  0.00    -0.009 C 
BRANCH  16  17
HETATM   17  N   UNL     1      12.067  -1.128  23.750  1.00  0.00    -0.359 N 
HETATM   18  C   UNL     1      12.936  -0.081  24.233  1.00  0.00     0.156 C 
ATOM     19  HN  UNL     1      12.554  -1.910  23.313  1.00  0.00     0.168 HD
ENDBRANCH  16  17
ENDBRANCH   3  16
TORSDOF 4
ENDMDL
MODEL 4
REMARK VINA RESULT:    -4.989      4.026      6.699
REMARK INTER + INTRA:          -6.528
REMARK INTER:                  -6.226
REMARK INTRA:                  -0.302
REMARK UNBOUND:                -0.372
REMARK  4 active torsions:
REMARK  status: ('A' for Active; 'I' for Inactive)
REMARK    1  A    between atoms: N_2  and  C_4 
REMARK    2  A    between atoms: C_4  and  C_7 
REMARK    3  A    between atoms: C_11  and  C_12 
REMARK       I    between atoms: C_12  and  N_14 
REMARK       I    between atoms: N_14  and  C_16 
REMARK    4  A    between atoms: C_16  and  C_19 
ROOT
HETATM    1  N   UNL     1       8.718  -3.248  23.285  1.00  0.00    -0.338 N 
ATOM      2  HN  UNL     1       9.577  -3.354  23.825  1.00  0.00     0.167 HD
HETATM    3  C   UNL     1       8.516  -2.266  22.544  1.00  0.00     0.138 C 
HETATM    4  S   UNL     1       6.906  -1.579  22.413  1.00  0.00    -0.074 SA
HETATM    5  C   UNL     1       6.112  -2.990  21.949  1.00  0.00     0.055 C 
HETATM    6  C   UNL     1       6.829  -4.131  22.230  1.00  0.00     0.042 C 
HETATM    7  C   UNL     1       7.777  -4.112  23.324  1.00  0.00     0.102 C 
ENDROOT
BRANCH   7   8
HETATM    8  C   UNL     1       7.937  -4.955  24.606  1.00  0.00     0.275 C 
HETATM    9  O   UNL     1       8.945  -5.595  24.810  1.00  0.00    -0.266 OA
HETATM   10  N   UNL     1       6.847  -4.994  25.371  1.00  0.00    -0.289 N 
HETATM   11  C   UNL     1       6.943  -5.204  26.721  1.00  0.00     0.247 C 
ATOM     12  HN  UNL     1       5.928  -4.867  24.946  1.00  0.00     0.172 HD
HETATM   13  O   UNL     1       7.791  -4.616  27.384  1.00  0.00    -0.268 OA
BRANCH  11  14
HETATM   14  C   UNL     1       6.013  -6.123  27.377  1.00  0.00     0.064 C 
HETATM   15  C   UNL     1       5.050  -6.583  26.520  1.00  0.00     0.017 C 
ENDBRANCH  11  14
ENDBRANCH   7   8
BRANCH   3  16
HETATM   16  C   UNL     1       9.688  -1.634  22.166  1.00  0.00    -0.009 C 
BRANCH  16  17
HETATM   17  N   UNL     1      10.716  -1.225  22.216  1.00  0.00    -0.359 N 
HETATM   18  C   UNL     1      11.886  -1.664  22.939  1.00  0.00     0.156 C 
ATOM     19  HN  UNL     1      10.862  -0.389  21.650  1.00  0.00     0.168 HD
ENDBRANCH  16  17
ENDBRANCH   3  16
TORSDOF 4
ENDMDL
MODEL 5
REMARK VINA RESULT:    -4.866      1.980      2.182
REMARK INTER + INTRA:          -6.376
REMARK INTER:                  -6.007
REMARK INTRA:                  -0.369
REMARK UNBOUND:                -0.372
REMARK  4 active torsions:
REMARK  status: ('A' for Active; 'I' for Inactive)
REMARK    1  A    between atoms: N_2  and  C_4 
REMARK    2  A    between atoms: C_4  and  C_7 
REMARK    3  A    between atoms: C_11  and  C_12 
REMARK       I    between atoms: C_12  and  N_14 
REMARK       I    between atoms: N_14  and  C_16 
REMARK    4  A    between atoms: C_16  and  C_19 
ROOT
HETATM    1  N   UNL     1       6.331  -1.741  21.741  1.00  0.00    -0.338 N 
ATOM      2  HN  UNL     1       5.485  -1.678  21.174  1.00  0.00     0.167 HD
HETATM    3  C   UNL     1       6.385  -2.426  22.781  1.00  0.00     0.138 C 
HETATM    4  S   UNL     1       7.305  -1.857  24.163  1.00  0.00    -0.074 SA
HETATM    5  C   UNL     1       8.778  -1.661  23.369  1.00  0.00     0.055 C 
HETATM    6  C   UNL     1       8.649  -1.598  22.000  1.00  0.00     0.042 C 
HETATM    7  C   UNL     1       7.405  -1.121  21.433  1.00  0.00     0.102 C 
ENDROOT
BRANCH   7   8
HETATM    8  C   UNL     1       7.049   0.030  20.470  1.00  0.00     0.275 C 
HETATM    9  O   UNL     1       7.915   0.715  19.971  1.00  0.00    -0.266 OA
HETATM   10  N   UNL     1       5.741   0.254  20.348  1.00  0.00    -0.289 N 
HETATM   11  C   UNL     1       5.227   0.811  19.208  1.00  0.00     0.247 C 
ATOM     12  HN  UNL     1       5.115   0.007  21.114  1.00  0.00     0.172 HD
HETATM   13  O   UNL     1       5.601   0.429  18.105  1.00  0.00    -0.268 OA
BRANCH  11  14
HETATM   14  C   UNL     1       4.209   1.857  19.312  1.00  0.00     0.064 C 
HETATM   15  C   UNL     1       4.185   2.434  20.552  1.00  0.00     0.017 C 
ENDBRANCH  11  14
ENDBRANCH   7   8
BRANCH   3  16
HETATM   16  C   UNL     1       5.418  -3.416  22.817  1.00  0.00    -0.009 C 
BRANCH  16  17
HETATM   17  N   UNL     1       4.586  -4.049  23.183  1.00  0.00    -0.359 N 
HETATM   18  C   UNL     1       3.873  -4.061  24.439  1.00  0.00     0.156 C 
ATOM     19  HN  UNL     1       4.267  -4.749  22.513  1.00  0.00     0.168 HD
ENDBRANCH  16  17
ENDBRANCH   3  16
TORSDOF 4
ENDMDL
MODEL 6
REMARK VINA RESULT:    -4.823      3.941      5.477
REMARK INTER + INTRA:          -6.322
REMARK INTER:                  -6.052
REMARK INTRA:                  -0.270
REMARK UNBOUND:                -0.372
REMARK  4 active torsions:
REMARK  status: ('A' for Active; 'I' for Inactive)
REMARK    1  A    between atoms: N_2  and  C_4 
REMARK    2  A    between atoms: C_4  and  C_7 
REMARK    3  A    between atoms: C_11  and  C_12 
REMARK       I    between atoms: C_12  and  N_14 
REMARK       I    between atoms: N_14  and  C_16 
REMARK    4  A    between atoms: C_16  and  C_19 
ROOT
HETATM    1  N   UNL     1       9.001  -0.943  24.345  1.00  0.00    -0.338 N 
ATOM      2  HN  UNL     1       8.279  -1.041  25.060  1.00  0.00     0.167 HD
HETATM    3  C   UNL     1       9.398   0.171  23.952  1.00  0.00     0.138 C 
HETATM    4  S   UNL     1       9.808   0.412  22.262  1.00  0.00    -0.074 SA
HETATM    5  C   UNL     1      10.944  -0.826  22.142  1.00  0.00     0.055 C 
HETATM    6  C   UNL     1      10.840  -1.754  23.154  1.00  0.00     0.042 C 
HETATM    7  C   UNL     1       9.557  -1.953  23.795  1.00  0.00     0.102 C 
ENDROOT
BRANCH   7   8
HETATM    8  C   UNL     1       8.648  -3.183  23.993  1.00  0.00     0.275 C 
HETATM    9  O   UNL     1       8.428  -3.624  25.099  1.00  0.00    -0.266 OA
HETATM   10  N   UNL     1       8.247  -3.752  22.857  1.00  0.00    -0.289 N 
HETATM   11  C   UNL     1       7.074  -4.458  22.801  1.00  0.00     0.247 C 
ATOM     12  HN  UNL     1       8.820  -3.662  22.018  1.00  0.00     0.172 HD
HETATM   13  O   UNL     1       6.058  -4.020  23.327  1.00  0.00    -0.268 OA
BRANCH  11  14
HETATM   14  C   UNL     1       7.035  -5.735  22.088  1.00  0.00     0.064 C 
HETATM   15  C   UNL     1       6.143  -5.722  21.051  1.00  0.00     0.017 C 
ENDBRANCH  11  14
ENDBRANCH   7   8
BRANCH   3  16
HETATM   16  C   UNL     1       9.144   1.181  24.864  1.00  0.00    -0.009 C 
BRANCH  16  17
HETATM   17  N   UNL     1       8.589   1.904  25.493  1.00  0.00    -0.359 N 
HETATM   18  C   UNL     1       8.085   3.227  25.210  1.00  0.00     0.156 C 
ATOM     19  HN  UNL     1       8.399   1.576  26.440  1.00  0.00     0.168 HD
ENDBRANCH  16  17
ENDBRANCH   3  16
TORSDOF 4
ENDMDL
MODEL 7
REMARK VINA RESULT:    -4.800      3.207      4.864
REMARK INTER + INTRA:          -6.295
REMARK INTER:                  -6.046
REMARK INTRA:                  -0.249
REMARK UNBOUND:                -0.372
REMARK  4 active torsions:
REMARK  status: ('A' for Active; 'I' for Inactive)
REMARK    1  A    between atoms: N_2  and  C_4 
REMARK    2  A    between atoms: C_4  and  C_7 
REMARK    3  A    between atoms: C_11  and  C_12 
REMARK       I    between atoms: C_12  and  N_14 
REMARK       I    between atoms: N_14  and  C_16 
REMARK    4  A    between atoms: C_16  and  C_19 
ROOT
HETATM    1  N   UNL     1       9.495   1.908  22.153  1.00  0.00    -0.338 N 
ATOM      2  HN  UNL     1       9.563   2.490  21.317  1.00  0.00     0.167 HD
HETATM    3  C   UNL     1      10.323   1.982  23.082  1.00  0.00     0.138 C 
HETATM    4  S   UNL     1      10.815   0.531  23.939  1.00  0.00    -0.074 SA
HETATM    5  C   UNL     1       9.275   0.027  24.401  1.00  0.00     0.055 C 
HETATM    6  C   UNL     1       8.272   0.612  23.663  1.00  0.00     0.042 C 
HETATM    7  C   UNL     1       8.557   1.056  22.315  1.00  0.00     0.102 C 
ENDROOT
BRANCH   7   8
HETATM    8  C   UNL     1       7.947   0.727  20.937  1.00  0.00     0.275 C 
HETATM    9  O   UNL     1       8.624   0.245  20.055  1.00  0.00    -0.266 OA
HETATM   10  N   UNL     1       6.684   1.124  20.792  1.00  0.00    -0.289 N 
HETATM   11  C   UNL     1       5.842   0.484  19.921  1.00  0.00     0.247 C 
ATOM     12  HN  UNL     1       6.339   1.915  21.335  1.00  0.00     0.172 HD
HETATM   13  O   UNL     1       5.812  -0.740  19.872  1.00  0.00    -0.268 OA
BRANCH  11  14
HETATM   14  C   UNL     1       4.960   1.272  19.060  1.00  0.00     0.064 C 
HETATM   15  C   UNL     1       4.090   2.044  19.779  1.00  0.00     0.017 C 
ENDBRANCH  11  14
ENDBRANCH   7   8
BRANCH   3  16
HETATM   16  C   UNL     1      11.003   3.187  23.096  1.00  0.00    -0.009 C 
BRANCH  16  17
HETATM   17  N   UNL     1      11.196   4.276  23.159  1.00  0.00    -0.359 N 
HETATM   18  C   UNL     1      12.330   5.018  23.658  1.00  0.00     0.156 C 
ATOM     19  HN  UNL     1      10.438   4.857  22.801  1.00  0.00     0.168 HD
ENDBRANCH  16  17
ENDBRANCH   3  16
TORSDOF 4
ENDMDL
MODEL 8
REMARK VINA RESULT:    -4.783      3.093      4.362
REMARK INTER + INTRA:          -6.274
REMARK INTER:                  -5.986
REMARK INTRA:                  -0.288
REMARK UNBOUND:                -0.372
REMARK  4 active torsions:
REMARK  status: ('A' for Active; 'I' for Inactive)
REMARK    1  A    between atoms: N_2  and  C_4 
REMARK    2  A    between atoms: C_4  and  C_7 
REMARK    3  A    between atoms: C_11  and  C_12 
REMARK       I    between atoms: C_12  and  N_14 
REMARK       I    between atoms: N_14  and  C_16 
REMARK    4  A    between atoms: C_16  and  C_19 
ROOT
HETATM    1  N   UNL     1       8.767  -3.233  24.259  1.00  0.00    -0.338 N 
ATOM      2  HN  UNL     1       9.589  -3.026  24.826  1.00  0.00     0.167 HD
HETATM    3  C   UNL     1       8.100  -4.275  24.411  1.00  0.00     0.138 C 
HETATM    4  S   UNL     1       7.410  -5.088  23.016  1.00  0.00    -0.074 SA
HETATM    5  C   UNL     1       6.542  -3.775  22.416  1.00  0.00     0.055 C 
HETATM    6  C   UNL     1       6.976  -2.568  22.914  1.00  0.00     0.042 C 
HETATM    7  C   UNL     1       8.352  -2.440  23.347  1.00  0.00     0.102 C 
ENDROOT
BRANCH   7   8
HETATM    8  C   UNL     1       9.509  -1.502  22.947  1.00  0.00     0.275 C 
HETATM    9  O   UNL     1      10.563  -1.948  22.548  1.00  0.00    -0.266 OA
HETATM   10  N   UNL     1       9.275  -0.214  23.191  1.00  0.00    -0.289 N 
HETATM   11  C   UNL     1       9.890   0.764  22.455  1.00  0.00     0.247 C 
ATOM     12  HN  UNL     1       8.630   0.049  23.936  1.00  0.00     0.172 HD
HETATM   13  O   UNL     1       9.970   0.667  21.235  1.00  0.00    -0.268 OA
BRANCH  11  14
HETATM   14  C   UNL     1      10.438   1.940  23.132  1.00  0.00     0.064 C 
HETATM   15  C   UNL     1      11.385   1.607  24.061  1.00  0.00     0.017 C 
ENDBRANCH  11  14
ENDBRANCH   7   8
BRANCH   3  16
HETATM   16  C   UNL     1       8.275  -4.843  25.661  1.00  0.00    -0.009 C 
BRANCH  16  17
HETATM   17  N   UNL     1       8.219  -5.571  26.493  1.00  0.00    -0.359 N 
HETATM   18  C   UNL     1       7.309  -5.680  27.609  1.00  0.00     0.156 C 
ATOM     19  HN  UNL     1       8.939  -6.294  26.467  1.00  0.00     0.168 HD
ENDBRANCH  16  17
ENDBRANCH   3  16
TORSDOF 4
ENDMDL
MODEL 9
REMARK VINA RESULT:    -4.726      2.359      3.312
REMARK INTER + INTRA:          -6.203
REMARK INTER:                  -5.905
REMARK INTRA:                  -0.298
REMARK UNBOUND:                -0.372
REMARK  4 active torsions:
REMARK  status: ('A' for Active; 'I' for Inactive)
REMARK    1  A    between atoms: N_2  and  C_4 
REMARK    2  A    between atoms: C_4  and  C_7 
REMARK    3  A    between atoms: C_11  and  C_12 
REMARK       I    between atoms: C_12  and  N_14 
REMARK       I    between atoms: N_14  and  C_16 
REMARK    4  A    between atoms: C_16  and  C_19 
ROOT
HETATM    1  N   UNL     1       7.701  -3.295  23.203  1.00  0.00    -0.338 N 
ATOM      2  HN  UNL     1       8.430  -2.686  23.574  1.00  0.00     0.167 HD
HETATM    3  C   UNL     1       7.650  -4.511  23.472  1.00  0.00     0.138 C 
HETATM    4  S   UNL     1       7.140  -5.661  22.248  1.00  0.00    -0.074 SA
HETATM    5  C   UNL     1       5.653  -4.952  21.897  1.00  0.00     0.055 C 
HETATM    6  C   UNL     1       5.567  -3.644  22.318  1.00  0.00     0.042 C 
HETATM    7  C   UNL     1       6.779  -2.861  22.431  1.00  0.00     0.102 C 
ENDROOT
BRANCH   7   8
HETATM    8  C   UNL     1       7.247  -1.531  21.806  1.00  0.00     0.275 C 
HETATM    9  O   UNL     1       8.413  -1.204  21.838  1.00  0.00    -0.266 OA
HETATM   10  N   UNL     1       6.257  -0.762  21.355  1.00  0.00    -0.289 N 
HETATM   11  C   UNL     1       6.467   0.132  20.339  1.00  0.00     0.247 C 
ATOM     12  HN  UNL     1       5.329  -0.840  21.773  1.00  0.00     0.172 HD
HETATM   13  O   UNL     1       7.111  -0.193  19.348  1.00  0.00    -0.268 OA
BRANCH  11  14
HETATM   14  C   UNL     1       5.901   1.478  20.435  1.00  0.00     0.064 C 
HETATM   15  C   UNL     1       6.095   2.034  21.669  1.00  0.00     0.017 C 
ENDBRANCH  11  14
ENDBRANCH   7   8
BRANCH   3  16
HETATM   16  C   UNL     1       8.332  -4.829  24.633  1.00  0.00    -0.009 C 
BRANCH  16  17
HETATM   17  N   UNL     1       8.557  -5.270  25.624  1.00  0.00    -0.359 N 
HETATM   18  C   UNL     1       7.824  -5.251  26.868  1.00  0.00     0.156 C 
ATOM     19  HN  UNL     1       9.440  -5.780  25.664  1.00  0.00     0.168 HD
ENDBRANCH  16  17
ENDBRANCH   3  16
TORSDOF 4
ENDMDL
