REMARK  8 active torsions:
REMARK  status: ('A' for Active; 'I' for Inactive)
REMARK    1  A    between atoms: S_2  and  N_5 
REMARK    2  A    between atoms: N_5  and  C_7 
REMARK    3  A    between atoms: C_7  and  C_8 
REMARK    4  A    between atoms: C_8  and  C_14 
REMARK    5  A    between atoms: C_9  and  C_14 
REMARK    6  A    between atoms: C_9  and  C_13 
REMARK    7  A    between atoms: C_14  and  C_15 
REMARK       I    between atoms: C_15  and  N_17 
REMARK    8  A    between atoms: N_17  and  C_19 
ROOT
HETATM    1  C   UNL     1       9.622  -0.957  22.657  1.00  0.00     0.106 C 
ENDROOT
BRANCH   1   2
HETATM    2  C   UNL     1       9.223  -1.913  23.352  1.00  0.00    -0.036 C 
BRANCH   2   3
HETATM    3  C   UNL     1       8.744  -2.836  24.038  1.00  0.00     0.027 C 
BRANCH   3   4
HETATM    4  N   UNL     1       8.049  -3.624  24.598  1.00  0.00    -0.229 N 
ATOM      5  HN  UNL     1       7.211  -3.869  24.070  1.00  0.00     0.190 HD
BRANCH   4   6
HETATM    6  S   UNL     1       8.152  -4.373  25.992  1.00  0.00     0.327 S 
HETATM    7 CL   UNL     1       6.397  -4.942  26.276  1.00  0.00     0.042 Cl
HETATM    8  O   UNL     1       8.971  -5.516  25.837  1.00  0.00    -0.188 OA
HETATM    9  O   UNL     1       8.494  -3.522  27.083  1.00  0.00    -0.188 OA
ENDBRANCH   4   6
ENDBRANCH   3   4
ENDBRANCH   2   3
ENDBRANCH   1   2
BRANCH   1  10
HETATM   10  C   UNL     1      10.836  -0.890  23.163  1.00  0.00     0.040 C 
HETATM   11  C   UNL     1      11.421  -0.105  24.064  1.00  0.00     0.012 C 
HETATM   12  C   UNL     1      12.335   0.304  24.359  1.00  0.00     0.013 C 
BRANCH  10  13
HETATM   13  C   UNL     1      12.110  -1.404  22.687  1.00  0.00    -0.076 C 
HETATM   14  C   UNL     1      12.992  -1.550  22.465  1.00  0.00     0.018 C 
ENDBRANCH  10  13
ENDBRANCH   1  10
BRANCH   1  15
HETATM   15  C   UNL     1       8.987  -0.058  21.514  1.00  0.00     0.266 C 
HETATM   16  O   UNL     1       9.545   0.901  21.067  1.00  0.00    -0.267 OA
HETATM   17  N   UNL     1       7.832  -0.519  21.207  1.00  0.00    -0.324 N 
ATOM     18  HN  UNL     1       7.497  -1.339  21.712  1.00  0.00     0.169 HD
BRANCH  17  19
HETATM   19  C   UNL     1       7.046  -0.002  20.279  1.00  0.00     0.036 A 
HETATM   20  C   UNL     1       7.164   0.170  18.973  1.00  0.00     0.153 A 
HETATM   21  N   UNL     1       6.662   0.472  17.863  1.00  0.00    -0.400 N 
HETATM   22  C   UNL     1       5.632   0.872  18.314  1.00  0.00     0.129 A 
ATOM     23  HN  UNL     1       7.012   0.400  16.908  1.00  0.00     0.154 HD
HETATM   24  C   UNL     1       5.179   0.922  19.474  1.00  0.00     0.002 A 
HETATM   25  C   UNL     1       5.719   0.539  20.579  1.00  0.00     0.025 A 
ENDBRANCH  17  19
ENDBRANCH   1  15
TORSDOF 8
