MODEL 1
REMARK VINA RESULT:    -8.259      0.000      0.000
REMARK INTER + INTRA:         -10.935
REMARK INTER:                 -10.191
REMARK INTRA:                  -0.744
REMARK UNBOUND:                -0.744
REMARK  4 active torsions:
REMARK  status: ('A' for Active; 'I' for Inactive)
REMARK    1  A    between atoms: S_2  and  N_5 
REMARK    2  A    between atoms: C_7  and  C_8 
REMARK    3  A    between atoms: C_15  and  C_16 
REMARK       I    between atoms: C_16  and  N_18 
REMARK    4  A    between atoms: N_18  and  C_20 
ROOT
HETATM    1  C   UNL     1       6.879  -1.917  21.844  1.00  0.00    -0.008 A 
HETATM    2  C   UNL     1       6.865  -2.938  22.574  1.00  0.00     0.058 A 
HETATM    3  C   UNL     1       5.718  -3.352  23.833  1.00  0.00    -0.003 C 
HETATM    4  C   UNL     1       5.445  -4.300  24.072  1.00  0.00    -0.002 C 
HETATM    5  C   UNL     1       5.819  -5.619  23.453  1.00  0.00    -0.001 C 
HETATM    6  C   UNL     1       6.597  -5.385  22.339  1.00  0.00    -0.002 C 
HETATM    7  C   UNL     1       6.999  -4.485  21.865  1.00  0.00    -0.003 C 
HETATM    8  C   UNL     1       7.928  -2.694  23.091  1.00  0.00     0.040 A 
ENDROOT
BRANCH   8   9
HETATM    9  C   UNL     1       9.118  -2.450  23.668  1.00  0.00     0.254 C 
HETATM   10  O   UNL     1       9.272  -2.976  24.653  1.00  0.00    -0.268 OA
HETATM   11  N   UNL     1       9.887  -1.641  22.966  1.00  0.00    -0.321 N 
ATOM     12  HN  UNL     1       9.530  -1.270  22.085  1.00  0.00     0.169 HD
BRANCH  11  13
HETATM   13  C   UNL     1      11.028  -1.311  23.332  1.00  0.00     0.056 A 
HETATM   14  C   UNL     1      12.247  -1.737  23.109  1.00  0.00     0.117 A 
HETATM   15  N   UNL     1      13.464  -1.661  23.239  1.00  0.00    -0.373 N 
HETATM   16  C   UNL     1      13.465  -0.648  24.082  1.00  0.00     0.088 A 
ATOM     17  HN  UNL     1      14.225  -2.203  22.830  1.00  0.00     0.164 HD
HETATM   18  C   UNL     1      12.522   0.029  24.523  1.00  0.00     0.026 A 
HETATM   19  C   UNL     1      11.228  -0.070  24.307  1.00  0.00    -0.033 A 
HETATM   20  C   UNL     1      10.106   0.774  24.820  1.00  0.00     0.050 C 
ENDBRANCH  11  13
ENDBRANCH   8   9
BRANCH   1  21
HETATM   21  C   UNL     1       6.342  -1.197  21.016  1.00  0.00     0.109 C 
HETATM   22  N   UNL     1       5.646  -0.960  20.086  1.00  0.00    -0.295 N 
ATOM     23  HN  UNL     1       4.757  -1.459  20.042  1.00  0.00     0.177 HD
BRANCH  22  24
HETATM   24  S   UNL     1       5.957   0.068  18.881  1.00  0.00     0.226 S 
HETATM   25  C   UNL     1       4.926   1.480  19.180  1.00  0.00     0.186 C 
HETATM   26  O   UNL     1       7.309   0.566  18.895  1.00  0.00    -0.206 OA
HETATM   27  O   UNL     1       5.598  -0.452  17.609  1.00  0.00    -0.206 OA
ENDBRANCH  22  24
ENDBRANCH   1  21
TORSDOF 4
ENDMDL
MODEL 2
REMARK VINA RESULT:    -7.950      3.139      6.861
REMARK INTER + INTRA:         -10.553
REMARK INTER:                  -9.806
REMARK INTRA:                  -0.748
REMARK UNBOUND:                -0.744
REMARK  4 active torsions:
REMARK  status: ('A' for Active; 'I' for Inactive)
REMARK    1  A    between atoms: S_2  and  N_5 
REMARK    2  A    between atoms: C_7  and  C_8 
REMARK    3  A    between atoms: C_15  and  C_16 
REMARK       I    between atoms: C_16  and  N_18 
REMARK    4  A    between atoms: N_18  and  C_20 
ROOT
HETATM    1  C   UNL     1       8.991  -2.326  23.523  1.00  0.00    -0.008 A 
HETATM    2  C   UNL     1       9.754  -1.330  23.502  1.00  0.00     0.058 A 
HETATM    3  C   UNL     1       9.958  -0.098  24.730  1.00  0.00    -0.003 C 
HETATM    4  C   UNL     1      10.829   0.390  24.916  1.00  0.00    -0.002 C 
HETATM    5  C   UNL     1      12.200   0.219  24.320  1.00  0.00    -0.001 C 
HETATM    6  C   UNL     1      12.180  -0.851  23.451  1.00  0.00    -0.002 C 
HETATM    7  C   UNL     1      11.402  -1.538  23.105  1.00  0.00    -0.003 C 
HETATM    8  C   UNL     1       9.222  -0.829  22.541  1.00  0.00     0.040 A 
ENDROOT
BRANCH   8   9
HETATM    9  C   UNL     1       8.653  -0.260  21.463  1.00  0.00     0.254 C 
HETATM   10  O   UNL     1       9.359   0.359  20.841  1.00  0.00    -0.268 OA
HETATM   11  N   UNL     1       7.371  -0.542  21.335  1.00  0.00    -0.321 N 
ATOM     12  HN  UNL     1       6.928  -1.132  22.038  1.00  0.00     0.169 HD
BRANCH  11  13
HETATM   13  C   UNL     1       6.680  -0.117  20.392  1.00  0.00     0.056 A 
HETATM   14  C   UNL     1       6.313  -0.570  19.219  1.00  0.00     0.117 A 
HETATM   15  N   UNL     1       5.690  -0.476  18.166  1.00  0.00    -0.373 N 
HETATM   16  C   UNL     1       5.226   0.740  18.370  1.00  0.00     0.088 A 
ATOM     17  HN  UNL     1       5.572  -1.125  17.388  1.00  0.00     0.164 HD
HETATM   18  C   UNL     1       5.343   1.488  19.354  1.00  0.00     0.026 A 
HETATM   19  C   UNL     1       5.989   1.311  20.486  1.00  0.00    -0.033 A 
HETATM   20  C   UNL     1       6.095   2.210  21.677  1.00  0.00     0.050 C 
ENDBRANCH  11  13
ENDBRANCH   8   9
BRANCH   1  21
HETATM   21  C   UNL     1       8.621  -3.369  24.041  1.00  0.00     0.109 C 
HETATM   22  N   UNL     1       7.948  -4.340  24.145  1.00  0.00    -0.295 N 
ATOM     23  HN  UNL     1       7.730  -4.839  23.283  1.00  0.00     0.177 HD
BRANCH  22  24
HETATM   24  S   UNL     1       7.339  -4.952  25.509  1.00  0.00     0.226 S 
HETATM   25  C   UNL     1       6.869  -3.553  26.493  1.00  0.00     0.186 C 
HETATM   26  O   UNL     1       6.128  -5.705  25.303  1.00  0.00    -0.206 OA
HETATM   27  O   UNL     1       8.297  -5.687  26.256  1.00  0.00    -0.206 OA
ENDBRANCH  22  24
ENDBRANCH   1  21
TORSDOF 4
ENDMDL
MODEL 3
REMARK VINA RESULT:    -7.834      3.739      5.858
REMARK INTER + INTRA:         -10.410
REMARK INTER:                  -9.730
REMARK INTRA:                  -0.680
REMARK UNBOUND:                -0.744
REMARK  4 active torsions:
REMARK  status: ('A' for Active; 'I' for Inactive)
REMARK    1  A    between atoms: S_2  and  N_5 
REMARK    2  A    between atoms: C_7  and  C_8 
REMARK    3  A    between atoms: C_15  and  C_16 
REMARK       I    between atoms: C_16  and  N_18 
REMARK    4  A    between atoms: N_18  and  C_20 
ROOT
HETATM    1  C   UNL     1       7.606  -4.652  25.371  1.00  0.00    -0.008 A 
HETATM    2  C   UNL     1       7.307  -4.656  24.152  1.00  0.00     0.058 A 
HETATM    3  C   UNL     1       7.590  -5.920  22.973  1.00  0.00    -0.003 C 
HETATM    4  C   UNL     1       6.984  -6.115  22.182  1.00  0.00    -0.002 C 
HETATM    5  C   UNL     1       5.672  -5.502  21.772  1.00  0.00    -0.001 C 
HETATM    6  C   UNL     1       5.278  -4.601  22.738  1.00  0.00    -0.002 C 
HETATM    7  C   UNL     1       5.722  -4.240  23.670  1.00  0.00    -0.003 C 
HETATM    8  C   UNL     1       8.015  -3.716  23.882  1.00  0.00     0.040 A 
ENDROOT
BRANCH   8   9
HETATM    9  C   UNL     1       8.785  -2.661  23.563  1.00  0.00     0.254 C 
HETATM   10  O   UNL     1       8.786  -2.404  22.466  1.00  0.00    -0.268 OA
HETATM   11  N   UNL     1       9.394  -2.121  24.601  1.00  0.00    -0.321 N 
ATOM     12  HN  UNL     1       9.249  -2.534  25.522  1.00  0.00     0.169 HD
BRANCH  11  13
HETATM   13  C   UNL     1      10.137  -1.128  24.503  1.00  0.00     0.056 A 
HETATM   14  C   UNL     1      11.368  -0.911  24.111  1.00  0.00     0.117 A 
HETATM   15  N   UNL     1      12.314  -0.170  23.867  1.00  0.00    -0.373 N 
HETATM   16  C   UNL     1      11.746   0.945  24.280  1.00  0.00     0.088 A 
ATOM     17  HN  UNL     1      13.237  -0.355  23.473  1.00  0.00     0.164 HD
HETATM   18  C   UNL     1      10.598   1.149  24.706  1.00  0.00     0.026 A 
HETATM   19  C   UNL     1       9.601   0.314  24.902  1.00  0.00    -0.033 A 
HETATM   20  C   UNL     1       8.211   0.581  25.387  1.00  0.00     0.050 C 
ENDBRANCH  11  13
ENDBRANCH   8   9
BRANCH   1  21
HETATM   21  C   UNL     1       7.515  -5.140  26.487  1.00  0.00     0.109 C 
HETATM   22  N   UNL     1       7.547  -6.018  27.284  1.00  0.00    -0.295 N 
ATOM     23  HN  UNL     1       8.305  -6.694  27.189  1.00  0.00     0.177 HD
BRANCH  22  24
HETATM   24  S   UNL     1       6.517  -6.255  28.504  1.00  0.00     0.226 S 
HETATM   25  C   UNL     1       4.946  -6.580  27.745  1.00  0.00     0.186 C 
HETATM   26  O   UNL     1       6.820  -7.428  29.284  1.00  0.00    -0.206 OA
HETATM   27  O   UNL     1       6.358  -5.104  29.319  1.00  0.00    -0.206 OA
ENDBRANCH  22  24
ENDBRANCH   1  21
TORSDOF 4
ENDMDL
MODEL 4
REMARK VINA RESULT:    -7.801      2.349      5.470
REMARK INTER + INTRA:         -10.369
REMARK INTER:                  -9.491
REMARK INTRA:                  -0.878
REMARK UNBOUND:                -0.744
REMARK  4 active torsions:
REMARK  status: ('A' for Active; 'I' for Inactive)
REMARK    1  A    between atoms: S_2  and  N_5 
REMARK    2  A    between atoms: C_7  and  C_8 
REMARK    3  A    between atoms: C_15  and  C_16 
REMARK       I    between atoms: C_16  and  N_18 
REMARK    4  A    between atoms: N_18  and  C_20 
ROOT
HETATM    1  C   UNL     1       8.792  -0.475  22.874  1.00  0.00    -0.008 A 
HETATM    2  C   UNL     1       9.847  -0.720  23.507  1.00  0.00     0.058 A 
HETATM    3  C   UNL     1      11.274  -1.567  22.946  1.00  0.00    -0.003 C 
HETATM    4  C   UNL     1      12.220  -1.369  23.256  1.00  0.00    -0.002 C 
HETATM    5  C   UNL     1      12.750  -0.311  24.186  1.00  0.00    -0.001 C 
HETATM    6  C   UNL     1      11.714   0.520  24.555  1.00  0.00    -0.002 C 
HETATM    7  C   UNL     1      10.640   0.539  24.345  1.00  0.00    -0.003 C 
HETATM    8  C   UNL     1       9.298  -1.403  24.337  1.00  0.00     0.040 A 
ENDROOT
BRANCH   8   9
HETATM    9  C   UNL     1       8.704  -2.155  25.280  1.00  0.00     0.254 C 
HETATM   10  O   UNL     1       8.616  -1.653  26.285  1.00  0.00    -0.268 OA
HETATM   11  N   UNL     1       8.330  -3.344  24.847  1.00  0.00    -0.321 N 
ATOM     12  HN  UNL     1       8.523  -3.593  23.877  1.00  0.00     0.169 HD
BRANCH  11  13
HETATM   13  C   UNL     1       7.752  -4.173  25.572  1.00  0.00     0.056 A 
HETATM   14  C   UNL     1       8.120  -5.055  26.468  1.00  0.00     0.117 A 
HETATM   15  N   UNL     1       7.876  -5.914  27.310  1.00  0.00    -0.373 N 
HETATM   16  C   UNL     1       6.572  -5.942  27.127  1.00  0.00     0.088 A 
ATOM     17  HN  UNL     1       8.483  -6.434  27.943  1.00  0.00     0.164 HD
HETATM   18  C   UNL     1       5.852  -5.256  26.383  1.00  0.00     0.026 A 
HETATM   19  C   UNL     1       6.169  -4.307  25.529  1.00  0.00    -0.033 A 
HETATM   20  C   UNL     1       5.286  -3.466  24.663  1.00  0.00     0.050 C 
ENDBRANCH  11  13
ENDBRANCH   8   9
BRANCH   1  21
HETATM   21  C   UNL     1       8.218   0.042  21.926  1.00  0.00     0.109 C 
HETATM   22  N   UNL     1       7.357   0.663  21.398  1.00  0.00    -0.295 N 
ATOM     23  HN  UNL     1       7.026   1.494  21.888  1.00  0.00     0.177 HD
BRANCH  22  24
HETATM   24  S   UNL     1       6.653   0.329  19.985  1.00  0.00     0.226 S 
HETATM   25  C   UNL     1       5.384   1.554  19.782  1.00  0.00     0.186 C 
HETATM   26  O   UNL     1       7.534   0.496  18.857  1.00  0.00    -0.206 OA
HETATM   27  O   UNL     1       6.015  -0.939  19.975  1.00  0.00    -0.206 OA
ENDBRANCH  22  24
ENDBRANCH   1  21
TORSDOF 4
ENDMDL
MODEL 5
REMARK VINA RESULT:    -7.152     14.329     16.656
REMARK INTER + INTRA:          -9.568
REMARK INTER:                  -8.680
REMARK INTRA:                  -0.889
REMARK UNBOUND:                -0.744
REMARK  4 active torsions:
REMARK  status: ('A' for Active; 'I' for Inactive)
REMARK    1  A    between atoms: S_2  and  N_5 
REMARK    2  A    between atoms: C_7  and  C_8 
REMARK    3  A    between atoms: C_15  and  C_16 
REMARK       I    between atoms: C_16  and  N_18 
REMARK    4  A    between atoms: N_18  and  C_20 
ROOT
HETATM    1  C   UNL     1      23.923  -2.977  23.738  1.00  0.00    -0.008 A 
HETATM    2  C   UNL     1      23.262  -1.911  23.708  1.00  0.00     0.058 A 
HETATM    3  C   UNL     1      21.532  -1.705  23.896  1.00  0.00    -0.003 C 
HETATM    4  C   UNL     1      21.092  -0.891  24.314  1.00  0.00    -0.002 C 
HETATM    5  C   UNL     1      21.691   0.332  24.954  1.00  0.00    -0.001 C 
HETATM    6  C   UNL     1      23.060   0.187  25.003  1.00  0.00    -0.002 C 
HETATM    7  C   UNL     1      23.759  -0.582  24.658  1.00  0.00    -0.003 C 
HETATM    8  C   UNL     1      23.555  -1.655  22.565  1.00  0.00     0.040 A 
ENDROOT
BRANCH   8   9
HETATM    9  C   UNL     1      23.881  -1.343  21.299  1.00  0.00     0.254 C 
HETATM   10  O   UNL     1      24.817  -0.723  21.201  1.00  0.00    -0.268 OA
HETATM   11  N   UNL     1      23.043  -1.829  20.404  1.00  0.00    -0.321 N 
ATOM     12  HN  UNL     1      22.241  -2.370  20.729  1.00  0.00     0.169 HD
BRANCH  11  13
HETATM   13  C   UNL     1      23.189  -1.657  19.181  1.00  0.00     0.056 A 
HETATM   14  C   UNL     1      22.839  -0.740  18.314  1.00  0.00     0.117 A 
HETATM   15  N   UNL     1      22.831  -0.261  17.184  1.00  0.00    -0.373 N 
HETATM   16  C   UNL     1      23.473  -1.249  16.594  1.00  0.00     0.088 A 
ATOM     17  HN  UNL     1      22.453   0.614  16.821  1.00  0.00     0.164 HD
HETATM   18  C   UNL     1      23.971  -2.281  17.073  1.00  0.00     0.026 A 
HETATM   19  C   UNL     1      23.990  -2.721  18.313  1.00  0.00    -0.033 A 
HETATM   20  C   UNL     1      24.623  -3.951  18.881  1.00  0.00     0.050 C 
ENDBRANCH  11  13
ENDBRANCH   8   9
BRANCH   1  21
HETATM   21  C   UNL     1      24.286  -3.984  24.327  1.00  0.00     0.109 C 
HETATM   22  N   UNL     1      24.303  -5.146  24.564  1.00  0.00    -0.295 N 
ATOM     23  HN  UNL     1      24.285  -5.776  23.761  1.00  0.00     0.177 HD
BRANCH  22  24
HETATM   24  S   UNL     1      24.349  -5.836  26.022  1.00  0.00     0.226 S 
HETATM   25  C   UNL     1      26.040  -5.729  26.547  1.00  0.00     0.186 C 
HETATM   26  O   UNL     1      23.590  -5.119  27.014  1.00  0.00    -0.206 OA
HETATM   27  O   UNL     1      24.008  -7.214  25.988  1.00  0.00    -0.206 OA
ENDBRANCH  22  24
ENDBRANCH   1  21
TORSDOF 4
ENDMDL
MODEL 6
REMARK VINA RESULT:    -6.947     14.563     16.988
REMARK INTER + INTRA:          -9.315
REMARK INTER:                  -8.531
REMARK INTRA:                  -0.784
REMARK UNBOUND:                -0.744
REMARK  4 active torsions:
REMARK  status: ('A' for Active; 'I' for Inactive)
REMARK    1  A    between atoms: S_2  and  N_5 
REMARK    2  A    between atoms: C_7  and  C_8 
REMARK    3  A    between atoms: C_15  and  C_16 
REMARK       I    between atoms: C_16  and  N_18 
REMARK    4  A    between atoms: N_18  and  C_20 
ROOT
HETATM    1  C   UNL     1      23.494  -3.418  25.704  1.00  0.00    -0.008 A 
HETATM    2  C   UNL     1      23.008  -2.262  25.660  1.00  0.00     0.058 A 
HETATM    3  C   UNL     1      23.505  -0.917  24.654  1.00  0.00    -0.003 C 
HETATM    4  C   UNL     1      22.878  -0.203  24.297  1.00  0.00    -0.002 C 
HETATM    5  C   UNL     1      21.385  -0.058  24.412  1.00  0.00    -0.001 C 
HETATM    6  C   UNL     1      20.875  -1.166  25.052  1.00  0.00    -0.002 C 
HETATM    7  C   UNL     1      21.320  -2.062  25.497  1.00  0.00    -0.003 C 
HETATM    8  C   UNL     1      23.283  -2.004  26.807  1.00  0.00     0.040 A 
ENDROOT
BRANCH   8   9
HETATM    9  C   UNL     1      23.567  -1.703  28.086  1.00  0.00     0.254 C 
HETATM   10  O   UNL     1      23.708  -0.602  28.282  1.00  0.00    -0.268 OA
HETATM   11  N   UNL     1      23.624  -2.758  28.876  1.00  0.00    -0.321 N 
ATOM     12  HN  UNL     1      23.466  -3.680  28.470  1.00  0.00     0.169 HD
BRANCH  11  13
HETATM   13  C   UNL     1      23.860  -2.675  30.094  1.00  0.00     0.056 A 
HETATM   14  C   UNL     1      23.143  -2.579  31.186  1.00  0.00     0.117 A 
HETATM   15  N   UNL     1      23.025  -2.521  32.405  1.00  0.00    -0.373 N 
HETATM   16  C   UNL     1      24.313  -2.497  32.683  1.00  0.00     0.088 A 
ATOM     17  HN  UNL     1      22.202  -2.500  33.007  1.00  0.00     0.164 HD
HETATM   18  C   UNL     1      25.297  -2.579  31.929  1.00  0.00     0.026 A 
HETATM   19  C   UNL     1      25.360  -2.690  30.620  1.00  0.00    -0.033 A 
HETATM   20  C   UNL     1      26.554  -2.820  29.728  1.00  0.00     0.050 C 
ENDBRANCH  11  13
ENDBRANCH   8   9
BRANCH   1  21
HETATM   21  C   UNL     1      23.776  -4.473  25.155  1.00  0.00     0.109 C 
HETATM   22  N   UNL     1      23.551  -5.550  24.712  1.00  0.00    -0.295 N 
ATOM     23  HN  UNL     1      22.682  -5.656  24.189  1.00  0.00     0.177 HD
BRANCH  22  24
HETATM   24  S   UNL     1      24.476  -6.865  24.852  1.00  0.00     0.226 S 
HETATM   25  C   UNL     1      26.148  -6.272  24.889  1.00  0.00     0.186 C 
HETATM   26  O   UNL     1      24.286  -7.563  26.098  1.00  0.00    -0.206 OA
HETATM   27  O   UNL     1      24.365  -7.735  23.736  1.00  0.00    -0.206 OA
ENDBRANCH  22  24
ENDBRANCH   1  21
TORSDOF 4
ENDMDL
MODEL 7
REMARK VINA RESULT:    -6.775     24.407     26.883
REMARK INTER + INTRA:          -9.103
REMARK INTER:                  -8.346
REMARK INTRA:                  -0.757
REMARK UNBOUND:                -0.744
REMARK  4 active torsions:
REMARK  status: ('A' for Active; 'I' for Inactive)
REMARK    1  A    between atoms: S_2  and  N_5 
REMARK    2  A    between atoms: C_7  and  C_8 
REMARK    3  A    between atoms: C_15  and  C_16 
REMARK       I    between atoms: C_16  and  N_18 
REMARK    4  A    between atoms: N_18  and  C_20 
ROOT
HETATM    1  C   UNL     1       8.544  15.294   1.984  1.00  0.00    -0.008 A 
HETATM    2  C   UNL     1       8.638  16.543   1.917  1.00  0.00     0.058 A 
HETATM    3  C   UNL     1       9.281  17.510   0.605  1.00  0.00    -0.003 C 
HETATM    4  C   UNL     1       8.952  18.439   0.361  1.00  0.00    -0.002 C 
HETATM    5  C   UNL     1       7.829  19.266   0.925  1.00  0.00    -0.001 C 
HETATM    6  C   UNL     1       7.150  18.518   1.862  1.00  0.00    -0.002 C 
HETATM    7  C   UNL     1       7.280  17.513   2.276  1.00  0.00    -0.003 C 
HETATM    8  C   UNL     1       9.390  16.628   2.857  1.00  0.00     0.040 A 
ENDROOT
BRANCH   8   9
HETATM    9  C   UNL     1      10.215  16.747   3.913  1.00  0.00     0.254 C 
HETATM   10  O   UNL     1      10.932  15.887   4.038  1.00  0.00    -0.268 OA
HETATM   11  N   UNL     1      10.031  17.856   4.602  1.00  0.00    -0.321 N 
ATOM     12  HN  UNL     1       9.302  18.503   4.302  1.00  0.00     0.169 HD
BRANCH  11  13
HETATM   13  C   UNL     1      10.710  18.146   5.603  1.00  0.00     0.056 A 
HETATM   14  C   UNL     1      10.673  17.854   6.880  1.00  0.00     0.117 A 
HETATM   15  N   UNL     1      11.126  17.908   8.019  1.00  0.00    -0.373 N 
HETATM   16  C   UNL     1      12.117  18.733   7.751  1.00  0.00     0.088 A 
ATOM     17  HN  UNL     1      10.831  17.461   8.887  1.00  0.00     0.164 HD
HETATM   18  C   UNL     1      12.485  19.221   6.670  1.00  0.00     0.026 A 
HETATM   19  C   UNL     1      11.984  19.087   5.461  1.00  0.00    -0.033 A 
HETATM   20  C   UNL     1      12.457  19.655   4.161  1.00  0.00     0.050 C 
ENDBRANCH  11  13
ENDBRANCH   8   9
BRANCH   1  21
HETATM   21  C   UNL     1       8.114  14.237   1.547  1.00  0.00     0.109 C 
HETATM   22  N   UNL     1       7.446  13.555   0.843  1.00  0.00    -0.295 N 
ATOM     23  HN  UNL     1       7.369  13.844  -0.133  1.00  0.00     0.177 HD
BRANCH  22  24
HETATM   24  S   UNL     1       6.644  12.220   1.267  1.00  0.00     0.226 S 
HETATM   25  C   UNL     1       7.252  11.789   2.877  1.00  0.00     0.186 C 
HETATM   26  O   UNL     1       5.229  12.435   1.432  1.00  0.00    -0.206 OA
HETATM   27  O   UNL     1       6.916  11.122   0.409  1.00  0.00    -0.206 OA
ENDBRANCH  22  24
ENDBRANCH   1  21
TORSDOF 4
ENDMDL
MODEL 8
REMARK VINA RESULT:    -6.743     20.025     23.381
REMARK INTER + INTRA:          -9.063
REMARK INTER:                  -8.429
REMARK INTRA:                  -0.634
REMARK UNBOUND:                -0.744
REMARK  4 active torsions:
REMARK  status: ('A' for Active; 'I' for Inactive)
REMARK    1  A    between atoms: S_2  and  N_5 
REMARK    2  A    between atoms: C_7  and  C_8 
REMARK    3  A    between atoms: C_15  and  C_16 
REMARK       I    between atoms: C_16  and  N_18 
REMARK    4  A    between atoms: N_18  and  C_20 
ROOT
HETATM    1  C   UNL     1       7.227  12.191   3.447  1.00  0.00    -0.008 A 
HETATM    2  C   UNL     1       5.972  12.165   3.464  1.00  0.00     0.058 A 
HETATM    3  C   UNL     1       4.880  13.227   4.329  1.00  0.00    -0.003 C 
HETATM    4  C   UNL     1       3.956  13.493   4.002  1.00  0.00    -0.002 C 
HETATM    5  C   UNL     1       3.237  13.174   2.719  1.00  0.00    -0.001 C 
HETATM    6  C   UNL     1       4.087  12.473   1.892  1.00  0.00    -0.002 C 
HETATM    7  C   UNL     1       5.109  12.095   1.992  1.00  0.00    -0.003 C 
HETATM    8  C   UNL     1       5.911  11.067   3.960  1.00  0.00     0.040 A 
ENDROOT
BRANCH   8   9
HETATM    9  C   UNL     1       5.820   9.838   4.498  1.00  0.00     0.254 C 
HETATM   10  O   UNL     1       6.596   9.618   5.284  1.00  0.00    -0.268 OA
HETATM   11  N   UNL     1       4.830   9.119   4.004  1.00  0.00    -0.321 N 
ATOM     12  HN  UNL     1       4.244   9.529   3.277  1.00  0.00     0.169 HD
BRANCH  11  13
HETATM   13  C   UNL     1       4.581   7.963   4.388  1.00  0.00     0.056 A 
HETATM   14  C   UNL     1       5.201   6.810   4.360  1.00  0.00     0.117 A 
HETATM   15  N   UNL     1       5.287   5.616   4.632  1.00  0.00    -0.373 N 
HETATM   16  C   UNL     1       4.097   5.499   5.185  1.00  0.00     0.088 A 
ATOM     17  HN  UNL     1       6.033   4.938   4.480  1.00  0.00     0.164 HD
HETATM   18  C   UNL     1       3.227   6.358   5.405  1.00  0.00     0.026 A 
HETATM   19  C   UNL     1       3.212   7.645   5.131  1.00  0.00    -0.033 A 
HETATM   20  C   UNL     1       2.169   8.674   5.432  1.00  0.00     0.050 C 
ENDBRANCH  11  13
ENDBRANCH   8   9
BRANCH   1  21
HETATM   21  C   UNL     1       8.273  12.777   3.212  1.00  0.00     0.109 C 
HETATM   22  N   UNL     1       9.384  13.127   3.435  1.00  0.00    -0.295 N 
ATOM     23  HN  UNL     1      10.012  12.428   3.831  1.00  0.00     0.177 HD
BRANCH  22  24
HETATM   24  S   UNL     1      10.006  14.593   3.177  1.00  0.00     0.226 S 
HETATM   25  C   UNL     1       9.072  15.696   4.206  1.00  0.00     0.186 C 
HETATM   26  O   UNL     1      11.372  14.717   3.617  1.00  0.00    -0.206 OA
HETATM   27  O   UNL     1       9.841  15.031   1.836  1.00  0.00    -0.206 OA
ENDBRANCH  22  24
ENDBRANCH   1  21
TORSDOF 4
ENDMDL
MODEL 9
REMARK VINA RESULT:    -6.698     23.129     26.067
REMARK INTER + INTRA:          -9.008
REMARK INTER:                  -8.299
REMARK INTRA:                  -0.710
REMARK UNBOUND:                -0.744
REMARK  4 active torsions:
REMARK  status: ('A' for Active; 'I' for Inactive)
REMARK    1  A    between atoms: S_2  and  N_5 
REMARK    2  A    between atoms: C_7  and  C_8 
REMARK    3  A    between atoms: C_15  and  C_16 
REMARK       I    between atoms: C_16  and  N_18 
REMARK    4  A    between atoms: N_18  and  C_20 
ROOT
HETATM    1  C   UNL     1       8.925  15.883   2.509  1.00  0.00    -0.008 A 
HETATM    2  C   UNL     1       9.167  15.550   3.694  1.00  0.00     0.058 A 
HETATM    3  C   UNL     1      10.715  15.516   4.514  1.00  0.00    -0.003 C 
HETATM    4  C   UNL     1      10.845  15.695   5.505  1.00  0.00    -0.002 C 
HETATM    5  C   UNL     1       9.862  16.100   6.569  1.00  0.00    -0.001 C 
HETATM    6  C   UNL     1       8.632  16.315   5.985  1.00  0.00    -0.002 C 
HETATM    7  C   UNL     1       8.246  16.222   4.966  1.00  0.00    -0.003 C 
HETATM    8  C   UNL     1       8.788  14.413   3.548  1.00  0.00     0.040 A 
ENDROOT
BRANCH   8   9
HETATM    9  C   UNL     1       8.356  13.147   3.411  1.00  0.00     0.254 C 
HETATM   10  O   UNL     1       9.078  12.368   3.786  1.00  0.00    -0.268 OA
HETATM   11  N   UNL     1       7.159  13.056   2.863  1.00  0.00    -0.321 N 
ATOM     12  HN  UNL     1       6.681  13.914   2.588  1.00  0.00     0.169 HD
BRANCH  11  13
HETATM   13  C   UNL     1       6.589  11.968   2.668  1.00  0.00     0.056 A 
HETATM   14  C   UNL     1       6.407  11.173   1.644  1.00  0.00     0.117 A 
HETATM   15  N   UNL     1       5.991  10.138   1.133  1.00  0.00    -0.373 N 
HETATM   16  C   UNL     1       5.395   9.665   2.209  1.00  0.00     0.088 A 
ATOM     17  HN  UNL     1       6.077   9.766   0.187  1.00  0.00     0.164 HD
HETATM   18  C   UNL     1       5.351  10.117   3.365  1.00  0.00     0.026 A 
HETATM   19  C   UNL     1       5.864  11.219   3.869  1.00  0.00    -0.033 A 
HETATM   20  C   UNL     1       5.831  11.735   5.272  1.00  0.00     0.050 C 
ENDBRANCH  11  13
ENDBRANCH   8   9
BRANCH   1  21
HETATM   21  C   UNL     1       8.947  16.716   1.615  1.00  0.00     0.109 C 
HETATM   22  N   UNL     1       9.425  17.588   0.968  1.00  0.00    -0.295 N 
ATOM     23  HN  UNL     1      10.412  17.493   0.732  1.00  0.00     0.177 HD
BRANCH  22  24
HETATM   24  S   UNL     1       8.675  18.909   0.423  1.00  0.00     0.226 S 
HETATM   25  C   UNL     1       8.155  19.794   1.870  1.00  0.00     0.186 C 
HETATM   26  O   UNL     1       9.550  19.807  -0.287  1.00  0.00    -0.206 OA
HETATM   27  O   UNL     1       7.507  18.607  -0.326  1.00  0.00    -0.206 OA
ENDBRANCH  22  24
ENDBRANCH   1  21
TORSDOF 4
ENDMDL
