MODEL 1
REMARK VINA RESULT:    -5.990      0.000      0.000
REMARK INTER + INTRA:          -9.949
REMARK INTER:                  -8.966
REMARK INTRA:                  -0.983
REMARK UNBOUND:                -0.983
REMARK  9 active torsions:
REMARK  status: ('A' for Active; 'I' for Inactive)
REMARK    1  A    between atoms: S_2  and  N_5 
REMARK    2  A    between atoms: N_5  and  C_7 
REMARK    3  A    between atoms: C_8  and  C_9 
REMARK    4  A    between atoms: C_9  and  C_13 
REMARK    5  A    between atoms: C_9  and  C_12 
REMARK    6  A    between atoms: C_11  and  C_12 
REMARK    7  A    between atoms: C_13  and  C_14 
REMARK       I    between atoms: C_14  and  N_16 
REMARK    8  A    between atoms: N_16  and  C_18 
REMARK    9  A    between atoms: N_20  and  C_23 
ROOT
HETATM    1  C   UNL     1       9.567  -0.227  22.429  1.00  0.00    -0.062 C 
ENDROOT
BRANCH   1   2
HETATM    2  C   UNL     1      10.143  -0.957  23.414  1.00  0.00     0.165 C 
BRANCH   2   3
HETATM    3  C   UNL     1       9.567  -2.229  23.464  1.00  0.00    -0.062 C 
HETATM    4  C   UNL     1       8.947  -3.153  23.659  1.00  0.00     0.023 C 
BRANCH   4   5
HETATM    5  N   UNL     1       8.269  -4.142  23.665  1.00  0.00    -0.230 N 
ATOM      6  HN  UNL     1       8.481  -4.868  24.349  1.00  0.00     0.190 HD
BRANCH   5   7
HETATM    7  S   UNL     1       7.017  -4.392  22.628  1.00  0.00     0.327 S 
HETATM    8 CL   UNL     1       5.605  -4.798  23.884  1.00  0.00     0.042 Cl
HETATM    9  O   UNL     1       6.643  -3.187  21.931  1.00  0.00    -0.188 OA
HETATM   10  O   UNL     1       7.223  -5.529  21.817  1.00  0.00    -0.188 OA
ENDBRANCH   5   7
ENDBRANCH   4   5
ENDBRANCH   2   3
BRANCH   2  11
HETATM   11  C   UNL     1      11.514  -1.106  23.011  1.00  0.00     0.001 C 
BRANCH  11  12
HETATM   12  C   UNL     1      12.238  -0.830  23.810  1.00  0.00    -0.012 C 
HETATM   13  C   UNL     1      12.437  -0.000  24.471  1.00  0.00     0.011 C 
ENDBRANCH  11  12
ENDBRANCH   2  11
ENDBRANCH   1   2
BRANCH   1  14
HETATM   14  C   UNL     1       8.758   0.360  21.549  1.00  0.00     0.290 C 
HETATM   15  O   UNL     1       9.073   1.387  21.009  1.00  0.00    -0.259 OA
HETATM   16  N   UNL     1       7.592  -0.310  21.388  1.00  0.00    -0.316 N 
ATOM     17  HN  UNL     1       7.357  -1.117  21.967  1.00  0.00     0.170 HD
BRANCH  16  18
HETATM   18  C   UNL     1       6.766   0.132  20.440  1.00  0.00     0.044 A 
HETATM   19  C   UNL     1       6.574  -0.285  19.206  1.00  0.00     0.066 A 
HETATM   20  C   UNL     1       5.605   0.298  18.445  1.00  0.00     0.069 A 
HETATM   21  S   UNL     1       4.915   1.654  19.448  1.00  0.00    -0.082 SA
HETATM   22  C   UNL     1       5.833   1.178  20.699  1.00  0.00     0.081 A 
BRANCH  20  23
HETATM   23  N   UNL     1       5.463  -0.196  17.483  1.00  0.00    -0.393 N 
ATOM     24  HN2 UNL     1       5.782  -1.011  16.960  1.00  0.00     0.156 HD
ATOM     25  HN1 UNL     1       4.839   0.317  16.859  1.00  0.00     0.156 HD
ENDBRANCH  20  23
ENDBRANCH  16  18
ENDBRANCH   1  14
TORSDOF 9
ENDMDL
MODEL 2
REMARK VINA RESULT:    -5.914      4.082      5.919
REMARK INTER + INTRA:          -9.836
REMARK INTER:                  -9.094
REMARK INTRA:                  -0.741
REMARK UNBOUND:                -0.983
REMARK  9 active torsions:
REMARK  status: ('A' for Active; 'I' for Inactive)
REMARK    1  A    between atoms: S_2  and  N_5 
REMARK    2  A    between atoms: N_5  and  C_7 
REMARK    3  A    between atoms: C_8  and  C_9 
REMARK    4  A    between atoms: C_9  and  C_13 
REMARK    5  A    between atoms: C_9  and  C_12 
REMARK    6  A    between atoms: C_11  and  C_12 
REMARK    7  A    between atoms: C_13  and  C_14 
REMARK       I    between atoms: C_14  and  N_16 
REMARK    8  A    between atoms: N_16  and  C_18 
REMARK    9  A    between atoms: N_20  and  C_23 
ROOT
HETATM    1  C   UNL     1       8.571  -3.735  23.883  1.00  0.00    -0.062 C 
ENDROOT
BRANCH   1   2
HETATM    2  C   UNL     1       8.069  -4.970  24.124  1.00  0.00     0.165 C 
BRANCH   2   3
HETATM    3  C   UNL     1       7.979  -5.187  25.501  1.00  0.00    -0.062 C 
HETATM    4  C   UNL     1       7.803  -5.571  26.549  1.00  0.00     0.023 C 
BRANCH   4   5
HETATM    5  N   UNL     1       7.814  -5.946  27.688  1.00  0.00    -0.230 N 
ATOM      6  HN  UNL     1       8.716  -6.145  28.121  1.00  0.00     0.190 HD
BRANCH   5   7
HETATM    7  S   UNL     1       6.455  -6.157  28.589  1.00  0.00     0.327 S 
HETATM    8 CL   UNL     1       5.131  -6.298  27.188  1.00  0.00     0.042 Cl
HETATM    9  O   UNL     1       6.466  -7.410  29.301  1.00  0.00    -0.188 OA
HETATM   10  O   UNL     1       6.154  -5.016  29.363  1.00  0.00    -0.188 OA
ENDBRANCH   5   7
ENDBRANCH   4   5
ENDBRANCH   2   3
BRANCH   2  11
HETATM   11  C   UNL     1       6.737  -4.941  23.590  1.00  0.00     0.001 C 
BRANCH  11  12
HETATM   12  C   UNL     1       6.558  -5.716  22.812  1.00  0.00    -0.012 C 
HETATM   13  C   UNL     1       6.392  -5.770  21.747  1.00  0.00     0.011 C 
ENDBRANCH  11  12
ENDBRANCH   2  11
ENDBRANCH   1   2
BRANCH   1  14
HETATM   14  C   UNL     1       8.877  -2.439  23.851  1.00  0.00     0.290 C 
HETATM   15  O   UNL     1       8.215  -1.632  24.447  1.00  0.00    -0.259 OA
HETATM   16  N   UNL     1       9.955  -2.181  23.072  1.00  0.00    -0.316 N 
ATOM     17  HN  UNL     1      10.396  -2.911  22.512  1.00  0.00     0.170 HD
BRANCH  16  18
HETATM   18  C   UNL     1      10.414  -0.929  23.070  1.00  0.00     0.044 A 
HETATM   19  C   UNL     1      10.194   0.065  22.236  1.00  0.00     0.066 A 
HETATM   20  C   UNL     1      10.734   1.289  22.495  1.00  0.00     0.069 A 
HETATM   21  S   UNL     1      11.761   1.089  23.986  1.00  0.00    -0.082 SA
HETATM   22  C   UNL     1      11.231  -0.438  24.130  1.00  0.00     0.081 A 
BRANCH  20  23
HETATM   23  N   UNL     1      10.400   2.059  21.798  1.00  0.00    -0.393 N 
ATOM     24  HN2 UNL     1       9.773   2.186  21.003  1.00  0.00     0.156 HD
ATOM     25  HN1 UNL     1      10.877   2.952  21.930  1.00  0.00     0.156 HD
ENDBRANCH  20  23
ENDBRANCH  16  18
ENDBRANCH   1  14
TORSDOF 9
ENDMDL
MODEL 3
REMARK VINA RESULT:    -5.452      3.644      6.258
REMARK INTER + INTRA:          -9.144
REMARK INTER:                  -8.330
REMARK INTRA:                  -0.814
REMARK UNBOUND:                -0.983
REMARK  9 active torsions:
REMARK  status: ('A' for Active; 'I' for Inactive)
REMARK    1  A    between atoms: S_2  and  N_5 
REMARK    2  A    between atoms: N_5  and  C_7 
REMARK    3  A    between atoms: C_8  and  C_9 
REMARK    4  A    between atoms: C_9  and  C_13 
REMARK    5  A    between atoms: C_9  and  C_12 
REMARK    6  A    between atoms: C_11  and  C_12 
REMARK    7  A    between atoms: C_13  and  C_14 
REMARK       I    between atoms: C_14  and  N_16 
REMARK    8  A    between atoms: N_16  and  C_18 
REMARK    9  A    between atoms: N_20  and  C_23 
ROOT
HETATM    1  C   UNL     1       6.385  -1.385  21.041  1.00  0.00    -0.062 C 
ENDROOT
BRANCH   1   2
HETATM    2  C   UNL     1       6.906  -0.212  20.609  1.00  0.00     0.165 C 
BRANCH   2   3
HETATM    3  C   UNL     1       8.246  -0.115  20.991  1.00  0.00    -0.062 C 
HETATM    4  C   UNL     1       9.294  -0.261  21.387  1.00  0.00     0.023 C 
BRANCH   4   5
HETATM    5  N   UNL     1      10.466  -0.366  21.618  1.00  0.00    -0.230 N 
ATOM      6  HN  UNL     1      11.121   0.155  21.036  1.00  0.00     0.190 HD
BRANCH   5   7
HETATM    7  S   UNL     1      11.073  -1.307  22.823  1.00  0.00     0.327 S 
HETATM    8 CL   UNL     1      11.348   0.027  24.196  1.00  0.00     0.042 Cl
HETATM    9  O   UNL     1      10.099  -2.244  23.321  1.00  0.00    -0.188 OA
HETATM   10  O   UNL     1      12.329  -1.852  22.484  1.00  0.00    -0.188 OA
ENDBRANCH   5   7
ENDBRANCH   4   5
ENDBRANCH   2   3
BRANCH   2  11
HETATM   11  C   UNL     1       6.857  -0.289  19.176  1.00  0.00     0.001 C 
BRANCH  11  12
HETATM   12  C   UNL     1       6.511   0.653  18.696  1.00  0.00    -0.012 C 
HETATM   13  C   UNL     1       5.594   1.082  18.321  1.00  0.00     0.011 C 
ENDBRANCH  11  12
ENDBRANCH   2  11
ENDBRANCH   1   2
BRANCH   1  14
HETATM   14  C   UNL     1       5.994  -2.464  21.717  1.00  0.00     0.290 C 
HETATM   15  O   UNL     1       5.633  -3.457  21.143  1.00  0.00    -0.259 OA
HETATM   16  N   UNL     1       6.031  -2.277  23.058  1.00  0.00    -0.316 N 
ATOM     17  HN  UNL     1       6.247  -1.366  23.464  1.00  0.00     0.170 HD
BRANCH  16  18
HETATM   18  C   UNL     1       5.773  -3.337  23.825  1.00  0.00     0.044 A 
HETATM   19  C   UNL     1       6.582  -4.124  24.502  1.00  0.00     0.066 A 
HETATM   20  C   UNL     1       6.059  -5.115  25.278  1.00  0.00     0.069 A 
HETATM   21  S   UNL     1       4.258  -5.081  25.003  1.00  0.00    -0.082 SA
HETATM   22  C   UNL     1       4.436  -3.749  24.093  1.00  0.00     0.081 A 
BRANCH  20  23
HETATM   23  N   UNL     1       6.812  -5.633  25.874  1.00  0.00    -0.393 N 
ATOM     24  HN2 UNL     1       6.908  -6.144  26.752  1.00  0.00     0.156 HD
ATOM     25  HN1 UNL     1       7.747  -5.580  25.470  1.00  0.00     0.156 HD
ENDBRANCH  20  23
ENDBRANCH  16  18
ENDBRANCH   1  14
TORSDOF 9
ENDMDL
MODEL 4
REMARK VINA RESULT:    -5.440      2.068      2.226
REMARK INTER + INTRA:          -9.126
REMARK INTER:                  -8.427
REMARK INTRA:                  -0.698
REMARK UNBOUND:                -0.983
REMARK  9 active torsions:
REMARK  status: ('A' for Active; 'I' for Inactive)
REMARK    1  A    between atoms: S_2  and  N_5 
REMARK    2  A    between atoms: N_5  and  C_7 
REMARK    3  A    between atoms: C_8  and  C_9 
REMARK    4  A    between atoms: C_9  and  C_13 
REMARK    5  A    between atoms: C_9  and  C_12 
REMARK    6  A    between atoms: C_11  and  C_12 
REMARK    7  A    between atoms: C_13  and  C_14 
REMARK       I    between atoms: C_14  and  N_16 
REMARK    8  A    between atoms: N_16  and  C_18 
REMARK    9  A    between atoms: N_20  and  C_23 
ROOT
HETATM    1  C   UNL     1       9.368  -0.007  22.720  1.00  0.00    -0.062 C 
ENDROOT
BRANCH   1   2
HETATM    2  C   UNL     1       9.966  -0.347  23.887  1.00  0.00     0.165 C 
BRANCH   2   3
HETATM    3  C   UNL     1       9.257  -1.381  24.502  1.00  0.00    -0.062 C 
HETATM    4  C   UNL     1       8.538  -2.040  25.073  1.00  0.00     0.023 C 
BRANCH   4   5
HETATM    5  N   UNL     1       7.759  -2.842  25.505  1.00  0.00    -0.230 N 
ATOM      6  HN  UNL     1       6.800  -2.541  25.674  1.00  0.00     0.190 HD
BRANCH   5   7
HETATM    7  S   UNL     1       8.154  -4.404  25.839  1.00  0.00     0.327 S 
HETATM    8 CL   UNL     1       6.398  -5.139  26.177  1.00  0.00     0.042 Cl
HETATM    9  O   UNL     1       8.693  -5.083  24.689  1.00  0.00    -0.188 OA
HETATM   10  O   UNL     1       8.911  -4.513  27.025  1.00  0.00    -0.188 OA
ENDBRANCH   5   7
ENDBRANCH   4   5
ENDBRANCH   2   3
BRANCH   2  11
HETATM   11  C   UNL     1      11.255  -0.855  23.510  1.00  0.00     0.001 C 
BRANCH  11  12
HETATM   12  C   UNL     1      12.089  -0.430  24.112  1.00  0.00    -0.012 C 
HETATM   13  C   UNL     1      13.166  -0.487  24.157  1.00  0.00     0.011 C 
ENDBRANCH  11  12
ENDBRANCH   2  11
ENDBRANCH   1   2
BRANCH   1  14
HETATM   14  C   UNL     1       8.653   0.531  21.733  1.00  0.00     0.290 C 
HETATM   15  O   UNL     1       9.059   1.483  21.123  1.00  0.00    -0.259 OA
HETATM   16  N   UNL     1       7.465  -0.095  21.554  1.00  0.00    -0.316 N 
ATOM     17  HN  UNL     1       7.148  -0.829  22.187  1.00  0.00     0.170 HD
BRANCH  16  18
HETATM   18  C   UNL     1       6.729   0.292  20.512  1.00  0.00     0.044 A 
HETATM   19  C   UNL     1       5.739   1.156  20.434  1.00  0.00     0.066 A 
HETATM   20  C   UNL     1       5.185   1.433  19.220  1.00  0.00     0.069 A 
HETATM   21  S   UNL     1       6.004   0.331  18.022  1.00  0.00    -0.082 SA
HETATM   22  C   UNL     1       7.002  -0.180  19.195  1.00  0.00     0.081 A 
BRANCH  20  23
HETATM   23  N   UNL     1       4.450   2.238  19.259  1.00  0.00    -0.393 N 
ATOM     24  HN2 UNL     1       3.533   2.487  18.888  1.00  0.00     0.156 HD
ATOM     25  HN1 UNL     1       4.762   3.038  19.810  1.00  0.00     0.156 HD
ENDBRANCH  20  23
ENDBRANCH  16  18
ENDBRANCH   1  14
TORSDOF 9
ENDMDL
MODEL 5
REMARK VINA RESULT:    -5.406      3.384      5.228
REMARK INTER + INTRA:          -9.075
REMARK INTER:                  -8.259
REMARK INTRA:                  -0.816
REMARK UNBOUND:                -0.983
REMARK  9 active torsions:
REMARK  status: ('A' for Active; 'I' for Inactive)
REMARK    1  A    between atoms: S_2  and  N_5 
REMARK    2  A    between atoms: N_5  and  C_7 
REMARK    3  A    between atoms: C_8  and  C_9 
REMARK    4  A    between atoms: C_9  and  C_13 
REMARK    5  A    between atoms: C_9  and  C_12 
REMARK    6  A    between atoms: C_11  and  C_12 
REMARK    7  A    between atoms: C_13  and  C_14 
REMARK       I    between atoms: C_14  and  N_16 
REMARK    8  A    between atoms: N_16  and  C_18 
REMARK    9  A    between atoms: N_20  and  C_23 
ROOT
HETATM    1  C   UNL     1      10.083  -1.527  22.889  1.00  0.00    -0.062 C 
ENDROOT
BRANCH   1   2
HETATM    2  C   UNL     1      10.998  -0.528  22.887  1.00  0.00     0.165 C 
BRANCH   2   3
HETATM    3  C   UNL     1      10.385   0.680  22.547  1.00  0.00    -0.062 C 
HETATM    4  C   UNL     1       9.745   1.517  22.139  1.00  0.00     0.023 C 
BRANCH   4   5
HETATM    5  N   UNL     1       9.038   2.455  21.901  1.00  0.00    -0.230 N 
ATOM      6  HN  UNL     1       9.443   3.252  21.411  1.00  0.00     0.190 HD
BRANCH   5   7
HETATM    7  S   UNL     1       7.450   2.527  22.323  1.00  0.00     0.327 S 
HETATM    8 CL   UNL     1       6.719   1.178  21.146  1.00  0.00     0.042 Cl
HETATM    9  O   UNL     1       7.228   2.086  23.676  1.00  0.00    -0.188 OA
HETATM   10  O   UNL     1       6.869   3.767  21.981  1.00  0.00    -0.188 OA
ENDBRANCH   5   7
ENDBRANCH   4   5
ENDBRANCH   2   3
BRANCH   2  11
HETATM   11  C   UNL     1      11.445  -0.432  24.249  1.00  0.00     0.001 C 
BRANCH  11  12
HETATM   12  C   UNL     1      12.530  -0.200  24.340  1.00  0.00    -0.012 C 
HETATM   13  C   UNL     1      13.478  -0.658  24.102  1.00  0.00     0.011 C 
ENDBRANCH  11  12
ENDBRANCH   2  11
ENDBRANCH   1   2
BRANCH   1  14
HETATM   14  C   UNL     1       9.145  -2.431  23.166  1.00  0.00     0.290 C 
HETATM   15  O   UNL     1       9.082  -2.944  24.251  1.00  0.00    -0.259 OA
HETATM   16  N   UNL     1       8.347  -2.693  22.103  1.00  0.00    -0.316 N 
ATOM     17  HN  UNL     1       8.536  -2.294  21.184  1.00  0.00     0.170 HD
BRANCH  16  18
HETATM   18  C   UNL     1       7.303  -3.495  22.314  1.00  0.00     0.044 A 
HETATM   19  C   UNL     1       7.164  -4.790  22.122  1.00  0.00     0.066 A 
HETATM   20  C   UNL     1       6.001  -5.400  22.487  1.00  0.00     0.069 A 
HETATM   21  S   UNL     1       4.890  -4.076  23.066  1.00  0.00    -0.082 SA
HETATM   22  C   UNL     1       6.102  -3.008  22.906  1.00  0.00     0.081 A 
BRANCH  20  23
HETATM   23  N   UNL     1       6.036  -6.485  22.382  1.00  0.00    -0.393 N 
ATOM     24  HN2 UNL     1       5.549  -7.248  21.912  1.00  0.00     0.156 HD
ATOM     25  HN1 UNL     1       6.759  -6.919  22.956  1.00  0.00     0.156 HD
ENDBRANCH  20  23
ENDBRANCH  16  18
ENDBRANCH   1  14
TORSDOF 9
ENDMDL
MODEL 6
REMARK VINA RESULT:    -5.364      3.637      6.626
REMARK INTER + INTRA:          -9.013
REMARK INTER:                  -8.308
REMARK INTRA:                  -0.705
REMARK UNBOUND:                -0.983
REMARK  9 active torsions:
REMARK  status: ('A' for Active; 'I' for Inactive)
REMARK    1  A    between atoms: S_2  and  N_5 
REMARK    2  A    between atoms: N_5  and  C_7 
REMARK    3  A    between atoms: C_8  and  C_9 
REMARK    4  A    between atoms: C_9  and  C_13 
REMARK    5  A    between atoms: C_9  and  C_12 
REMARK    6  A    between atoms: C_11  and  C_12 
REMARK    7  A    between atoms: C_13  and  C_14 
REMARK       I    between atoms: C_14  and  N_16 
REMARK    8  A    between atoms: N_16  and  C_18 
REMARK    9  A    between atoms: N_20  and  C_23 
ROOT
HETATM    1  C   UNL     1       8.307  -3.352  23.246  1.00  0.00    -0.062 C 
ENDROOT
BRANCH   1   2
HETATM    2  C   UNL     1       8.663  -2.246  22.549  1.00  0.00     0.165 C 
BRANCH   2   3
HETATM    3  C   UNL     1       7.538  -1.682  21.944  1.00  0.00    -0.062 C 
HETATM    4  C   UNL     1       6.791  -1.111  21.316  1.00  0.00     0.023 C 
BRANCH   4   5
HETATM    5  N   UNL     1       5.916  -0.689  20.614  1.00  0.00    -0.230 N 
ATOM      6  HN  UNL     1       4.956  -0.742  20.954  1.00  0.00     0.190 HD
BRANCH   5   7
HETATM    7  S   UNL     1       6.180  -0.027  19.132  1.00  0.00     0.327 S 
HETATM    8 CL   UNL     1       4.857   1.383  19.143  1.00  0.00     0.042 Cl
HETATM    9  O   UNL     1       7.475   0.598  19.041  1.00  0.00    -0.188 OA
HETATM   10  O   UNL     1       5.858  -0.922  18.090  1.00  0.00    -0.188 OA
ENDBRANCH   5   7
ENDBRANCH   4   5
ENDBRANCH   2   3
BRANCH   2  11
HETATM   11  C   UNL     1       9.146  -1.323  23.538  1.00  0.00     0.001 C 
BRANCH  11  12
HETATM   12  C   UNL     1      10.256  -1.278  23.592  1.00  0.00    -0.012 C 
HETATM   13  C   UNL     1      11.019  -0.717  24.110  1.00  0.00     0.011 C 
ENDBRANCH  11  12
ENDBRANCH   2  11
ENDBRANCH   1   2
BRANCH   1  14
HETATM   14  C   UNL     1       7.900  -4.250  24.141  1.00  0.00     0.290 C 
HETATM   15  O   UNL     1       8.497  -5.281  24.299  1.00  0.00    -0.259 OA
HETATM   16  N   UNL     1       6.768  -3.868  24.780  1.00  0.00    -0.316 N 
ATOM     17  HN  UNL     1       6.261  -3.025  24.509  1.00  0.00     0.170 HD
BRANCH  16  18
HETATM   18  C   UNL     1       6.346  -4.643  25.780  1.00  0.00     0.044 A 
HETATM   19  C   UNL     1       5.490  -5.642  25.788  1.00  0.00     0.066 A 
HETATM   20  C   UNL     1       5.277  -6.332  26.944  1.00  0.00     0.069 A 
HETATM   21  S   UNL     1       6.256  -5.490  28.229  1.00  0.00    -0.082 SA
HETATM   22  C   UNL     1       6.887  -4.519  27.093  1.00  0.00     0.081 A 
BRANCH  20  23
HETATM   23  N   UNL     1       4.632  -7.202  26.810  1.00  0.00    -0.393 N 
ATOM     24  HN2 UNL     1       3.919  -7.565  26.176  1.00  0.00     0.156 HD
ATOM     25  HN1 UNL     1       4.713  -7.881  27.567  1.00  0.00     0.156 HD
ENDBRANCH  20  23
ENDBRANCH  16  18
ENDBRANCH   1  14
TORSDOF 9
ENDMDL
MODEL 7
REMARK VINA RESULT:    -5.336      3.676      6.511
REMARK INTER + INTRA:          -8.971
REMARK INTER:                  -8.153
REMARK INTRA:                  -0.818
REMARK UNBOUND:                -0.983
REMARK  9 active torsions:
REMARK  status: ('A' for Active; 'I' for Inactive)
REMARK    1  A    between atoms: S_2  and  N_5 
REMARK    2  A    between atoms: N_5  and  C_7 
REMARK    3  A    between atoms: C_8  and  C_9 
REMARK    4  A    between atoms: C_9  and  C_13 
REMARK    5  A    between atoms: C_9  and  C_12 
REMARK    6  A    between atoms: C_11  and  C_12 
REMARK    7  A    between atoms: C_13  and  C_14 
REMARK       I    between atoms: C_14  and  N_16 
REMARK    8  A    between atoms: N_16  and  C_18 
REMARK    9  A    between atoms: N_20  and  C_23 
ROOT
HETATM    1  C   UNL     1       6.689  -0.478  21.219  1.00  0.00    -0.062 C 
ENDROOT
BRANCH   1   2
HETATM    2  C   UNL     1       6.841   0.793  20.773  1.00  0.00     0.165 C 
BRANCH   2   3
HETATM    3  C   UNL     1       7.947   1.385  21.388  1.00  0.00    -0.062 C 
HETATM    4  C   UNL     1       8.966   1.700  21.761  1.00  0.00     0.023 C 
BRANCH   4   5
HETATM    5  N   UNL     1       9.994   2.219  22.093  1.00  0.00    -0.230 N 
ATOM      6  HN  UNL     1      10.694   2.405  21.375  1.00  0.00     0.190 HD
BRANCH   5   7
HETATM    7  S   UNL     1      10.337   2.649  23.643  1.00  0.00     0.327 S 
HETATM    8 CL   UNL     1      10.235   0.923  24.509  1.00  0.00     0.042 Cl
HETATM    9  O   UNL     1      11.689   3.125  23.786  1.00  0.00    -0.188 OA
HETATM   10  O   UNL     1       9.335   3.476  24.194  1.00  0.00    -0.188 OA
ENDBRANCH   5   7
ENDBRANCH   4   5
ENDBRANCH   2   3
BRANCH   2  11
HETATM   11  C   UNL     1       7.130   0.662  19.372  1.00  0.00     0.001 C 
BRANCH  11  12
HETATM   12  C   UNL     1       6.224   0.727  18.729  1.00  0.00    -0.012 C 
HETATM   13  C   UNL     1       5.916   1.206  17.813  1.00  0.00     0.011 C 
ENDBRANCH  11  12
ENDBRANCH   2  11
ENDBRANCH   1   2
BRANCH   1  14
HETATM   14  C   UNL     1       6.820  -1.703  21.723  1.00  0.00     0.290 C 
HETATM   15  O   UNL     1       7.870  -2.079  22.173  1.00  0.00    -0.259 OA
HETATM   16  N   UNL     1       5.678  -2.426  21.631  1.00  0.00    -0.316 N 
ATOM     17  HN  UNL     1       4.860  -2.070  21.137  1.00  0.00     0.170 HD
BRANCH  16  18
HETATM   18  C   UNL     1       5.671  -3.624  22.216  1.00  0.00     0.044 A 
HETATM   19  C   UNL     1       5.999  -4.810  21.748  1.00  0.00     0.066 A 
HETATM   20  C   UNL     1       5.972  -5.889  22.580  1.00  0.00     0.069 A 
HETATM   21  S   UNL     1       5.327  -5.289  24.175  1.00  0.00    -0.082 SA
HETATM   22  C   UNL     1       5.343  -3.773  23.595  1.00  0.00     0.081 A 
BRANCH  20  23
HETATM   23  N   UNL     1       6.363  -6.796  22.116  1.00  0.00    -0.393 N 
ATOM     24  HN2 UNL     1       6.109  -7.770  21.952  1.00  0.00     0.156 HD
ATOM     25  HN1 UNL     1       7.306  -6.680  21.744  1.00  0.00     0.156 HD
ENDBRANCH  20  23
ENDBRANCH  16  18
ENDBRANCH   1  14
TORSDOF 9
ENDMDL
MODEL 8
REMARK VINA RESULT:    -5.243     20.073     22.867
REMARK INTER + INTRA:          -8.831
REMARK INTER:                  -8.159
REMARK INTRA:                  -0.672
REMARK UNBOUND:                -0.983
REMARK  9 active torsions:
REMARK  status: ('A' for Active; 'I' for Inactive)
REMARK    1  A    between atoms: S_2  and  N_5 
REMARK    2  A    between atoms: N_5  and  C_7 
REMARK    3  A    between atoms: C_8  and  C_9 
REMARK    4  A    between atoms: C_9  and  C_13 
REMARK    5  A    between atoms: C_9  and  C_12 
REMARK    6  A    between atoms: C_11  and  C_12 
REMARK    7  A    between atoms: C_13  and  C_14 
REMARK       I    between atoms: C_14  and  N_16 
REMARK    8  A    between atoms: N_16  and  C_18 
REMARK    9  A    between atoms: N_20  and  C_23 
ROOT
HETATM    1  C   UNL     1       5.414  10.845   3.156  1.00  0.00    -0.062 C 
ENDROOT
BRANCH   1   2
HETATM    2  C   UNL     1       5.651  12.129   3.519  1.00  0.00     0.165 C 
BRANCH   2   3
HETATM    3  C   UNL     1       6.998  12.439   3.320  1.00  0.00    -0.062 C 
HETATM    4  C   UNL     1       8.074  12.780   3.382  1.00  0.00     0.023 C 
BRANCH   4   5
HETATM    5  N   UNL     1       9.261  12.950   3.399  1.00  0.00    -0.230 N 
ATOM      6  HN  UNL     1       9.864  12.164   3.157  1.00  0.00     0.190 HD
BRANCH   5   7
HETATM    7  S   UNL     1       9.968  14.382   3.789  1.00  0.00     0.327 S 
HETATM    8 CL   UNL     1       8.417  15.392   4.346  1.00  0.00     0.042 Cl
HETATM    9  O   UNL     1      10.839  14.262   4.931  1.00  0.00    -0.188 OA
HETATM   10  O   UNL     1      10.525  15.020   2.660  1.00  0.00    -0.188 OA
ENDBRANCH   5   7
ENDBRANCH   4   5
ENDBRANCH   2   3
BRANCH   2  11
HETATM   11  C   UNL     1       4.873  12.922   2.610  1.00  0.00     0.001 C 
BRANCH  11  12
HETATM   12  C   UNL     1       3.828  13.089   2.955  1.00  0.00    -0.012 C 
HETATM   13  C   UNL     1       2.883  13.412   2.547  1.00  0.00     0.011 C 
ENDBRANCH  11  12
ENDBRANCH   2  11
ENDBRANCH   1   2
BRANCH   1  14
HETATM   14  C   UNL     1       5.057   9.566   3.060  1.00  0.00     0.290 C 
HETATM   15  O   UNL     1       5.285   8.934   2.063  1.00  0.00    -0.259 OA
HETATM   16  N   UNL     1       4.413   9.122   4.166  1.00  0.00    -0.316 N 
ATOM     17  HN  UNL     1       4.163   9.754   4.926  1.00  0.00     0.170 HD
BRANCH  16  18
HETATM   18  C   UNL     1       4.121   7.822   4.216  1.00  0.00     0.044 A 
HETATM   19  C   UNL     1       4.787   6.813   4.735  1.00  0.00     0.066 A 
HETATM   20  C   UNL     1       4.235   5.567   4.719  1.00  0.00     0.069 A 
HETATM   21  S   UNL     1       2.668   5.715   3.801  1.00  0.00    -0.082 SA
HETATM   22  C   UNL     1       2.881   7.322   3.723  1.00  0.00     0.081 A 
BRANCH  20  23
HETATM   23  N   UNL     1       4.823   4.831   5.269  1.00  0.00    -0.393 N 
ATOM     24  HN2 UNL     1       5.395   4.748   6.110  1.00  0.00     0.156 HD
ATOM     25  HN1 UNL     1       4.870   3.926   4.801  1.00  0.00     0.156 HD
ENDBRANCH  20  23
ENDBRANCH  16  18
ENDBRANCH   1  14
TORSDOF 9
ENDMDL
MODEL 9
REMARK VINA RESULT:    -5.241      5.006      7.163
REMARK INTER + INTRA:          -8.829
REMARK INTER:                  -8.070
REMARK INTRA:                  -0.759
REMARK UNBOUND:                -0.983
REMARK  9 active torsions:
REMARK  status: ('A' for Active; 'I' for Inactive)
REMARK    1  A    between atoms: S_2  and  N_5 
REMARK    2  A    between atoms: N_5  and  C_7 
REMARK    3  A    between atoms: C_8  and  C_9 
REMARK    4  A    between atoms: C_9  and  C_13 
REMARK    5  A    between atoms: C_9  and  C_12 
REMARK    6  A    between atoms: C_11  and  C_12 
REMARK    7  A    between atoms: C_13  and  C_14 
REMARK       I    between atoms: C_14  and  N_16 
REMARK    8  A    between atoms: N_16  and  C_18 
REMARK    9  A    between atoms: N_20  and  C_23 
ROOT
HETATM    1  C   UNL     1       5.682  -5.941  23.681  1.00  0.00    -0.062 C 
ENDROOT
BRANCH   1   2
HETATM    2  C   UNL     1       4.634  -6.491  24.341  1.00  0.00     0.165 C 
BRANCH   2   3
HETATM    3  C   UNL     1       4.969  -6.695  25.681  1.00  0.00    -0.062 C 
HETATM    4  C   UNL     1       5.001  -6.837  26.802  1.00  0.00     0.023 C 
BRANCH   4   5
HETATM    5  N   UNL     1       5.136  -7.161  27.949  1.00  0.00    -0.230 N 
ATOM      6  HN  UNL     1       4.432  -7.772  28.363  1.00  0.00     0.190 HD
BRANCH   5   7
HETATM    7  S   UNL     1       6.393  -6.671  28.890  1.00  0.00     0.327 S 
HETATM    8 CL   UNL     1       5.508  -5.347  29.985  1.00  0.00     0.042 Cl
HETATM    9  O   UNL     1       6.853  -7.719  29.765  1.00  0.00    -0.188 OA
HETATM   10  O   UNL     1       7.392  -6.020  28.136  1.00  0.00    -0.188 OA
ENDBRANCH   5   7
ENDBRANCH   4   5
ENDBRANCH   2   3
BRANCH   2  11
HETATM   11  C   UNL     1       3.599  -5.496  24.287  1.00  0.00     0.001 C 
BRANCH  11  12
HETATM   12  C   UNL     1       2.936  -5.600  23.400  1.00  0.00    -0.012 C 
HETATM   13  C   UNL     1       1.986  -6.046  23.148  1.00  0.00     0.011 C 
ENDBRANCH  11  12
ENDBRANCH   2  11
ENDBRANCH   1   2
BRANCH   1  14
HETATM   14  C   UNL     1       6.619  -5.156  23.153  1.00  0.00     0.290 C 
HETATM   15  O   UNL     1       7.240  -5.500  22.183  1.00  0.00    -0.259 OA
HETATM   16  N   UNL     1       6.780  -4.003  23.846  1.00  0.00    -0.316 N 
ATOM     17  HN  UNL     1       6.287  -3.835  24.723  1.00  0.00     0.170 HD
BRANCH  16  18
HETATM   18  C   UNL     1       7.610  -3.097  23.328  1.00  0.00     0.044 A 
HETATM   19  C   UNL     1       8.907  -2.935  23.481  1.00  0.00     0.066 A 
HETATM   20  C   UNL     1       9.548  -1.960  22.778  1.00  0.00     0.069 A 
HETATM   21  S   UNL     1       8.256  -1.056  21.865  1.00  0.00    -0.082 SA
HETATM   22  C   UNL     1       7.157  -2.131  22.384  1.00  0.00     0.081 A 
BRANCH  20  23
HETATM   23  N   UNL     1      10.632  -1.986  22.901  1.00  0.00    -0.393 N 
ATOM     24  HN2 UNL     1      11.468  -1.463  22.641  1.00  0.00     0.156 HD
ATOM     25  HN1 UNL     1      10.957  -2.811  23.406  1.00  0.00     0.156 HD
ENDBRANCH  20  23
ENDBRANCH  16  18
ENDBRANCH   1  14
TORSDOF 9
ENDMDL
