stable:False satoms:22 tatoms:24 sratio:0.9166666666666666
  -OEChem-07092417363D

 24 23  0     1  0  0  0  0  0999 V2000
    6.3962   -4.7524   25.4065 Cl  0  0  0  0  0  0  0  0  0  0  0  0
    8.3505   -4.6607   26.8542 H   0  0  0  0  0  0  0  0  0  0  0  0
    8.8750   -4.3031   26.1400 O   0  0  0  0  0  0  0  0  0  0  0  0
    7.9684   -3.9505   25.2533 C   0  0  3  0  0  0  0  0  0  0  0  0
    8.1787   -3.2307   24.2063 N   0  0  0  0  0  0  0  0  0  0  0  0
   10.2276   -2.8958   22.8929 H   0  0  0  0  0  0  0  0  0  0  0  0
    8.9360   -2.1478   24.1247 N   0  0  0  0  0  0  0  0  0  0  0  0
   10.2756   -2.0790   23.6053 C   0  0  0  0  0  0  0  0  0  0  0  0
    9.8564   -0.0502   22.3678 C   0  0  0  0  0  0  0  0  0  0  0  0
   11.6022   -0.3692   23.6824 H   0  0  0  0  0  0  0  0  0  0  0  0
   10.9835   -2.2472   24.4174 H   0  0  0  0  0  0  0  0  0  0  0  0
   11.6841   -1.2085   22.1589 H   0  0  0  0  0  0  0  0  0  0  0  0
   11.0015   -0.8854   22.9276 C   0  0  0  0  0  0  0  0  0  0  0  0
    9.5142    0.5856   23.1638 H   0  0  0  0  0  0  0  0  0  0  0  0
   10.1854    0.5009   21.4967 H   0  0  0  0  0  0  0  0  0  0  0  0
    8.6561    0.8511   19.8880 H   0  0  0  0  0  0  0  0  0  0  0  0
    7.8852   -0.8028   20.9298 N   0  3  0  0  0  0  0  0  0  0  0  0
    8.6168   -0.5711   21.7038 C   0  0  0  0  0  0  0  0  0  0  0  0
    7.7390    0.2420   19.9073 C   0  0  0  0  0  0  0  0  0  0  0  0
    7.5816   -0.2535   18.9387 H   0  0  0  0  0  0  0  0  0  0  0  0
    5.8892    1.2189   19.3446 H   0  0  0  0  0  0  0  0  0  0  0  0
    6.7858    2.0537   20.6030 H   0  0  0  0  0  0  0  0  0  0  0  0
    6.4915    1.0767   20.2487 C   0  0  0  0  0  0  0  0  0  0  0  0
    5.9036    0.5890   21.0351 H   0  0  0  0  0  0  0  0  0  0  0  0
 19 20  1  0  0  0  0
 21 23  1  0  0  0  0
 16 19  1  0  0  0  0
 19 23  1  0  0  0  0
 17 19  1  0  0  0  0
 22 23  1  0  0  0  0
 23 24  1  0  0  0  0
 17 18  1  0  0  0  0
  9 15  1  0  0  0  0
  9 18  1  0  0  0  0
 12 13  1  0  0  0  0
  9 13  1  0  0  0  0
  9 14  1  0  0  0  0
  6  8  1  0  0  0  0
  8 13  1  0  0  0  0
 10 13  1  0  0  0  0
  7  8  1  0  0  0  0
  8 11  1  0  0  0  0
  5  7  1  0  0  0  0
  4  5  1  0  0  0  0
  1  4  1  0  0  0  0
  3  4  1  0  0  0  0
  2  3  1  0  0  0  0
M  CHG  1  17   1
M  END
> <Shapegauss>
-125.450043

$$$$
