MODEL 1
REMARK VINA RESULT:    -4.306      0.000      0.000
REMARK INTER + INTRA:          -6.491
REMARK INTER:                  -6.195
REMARK INTRA:                  -0.297
REMARK UNBOUND:                -0.297
REMARK  8 active torsions:
REMARK  status: ('A' for Active; 'I' for Inactive)
REMARK    1  A    between atoms: O_3  and  C_4 
REMARK    2  A    between atoms: N_5  and  N_7 
REMARK    3  A    between atoms: N_7  and  C_9 
REMARK    4  A    between atoms: C_9  and  C_11 
REMARK    5  A    between atoms: C_10  and  C_14 
REMARK    6  A    between atoms: C_10  and  C_11 
REMARK    7  A    between atoms: N_12  and  C_15 
REMARK    8  A    between atoms: N_12  and  C_14 
ROOT
HETATM    1  N   UNL     1       7.748  13.555   0.821  1.00  0.00    -0.334 N 
ATOM      2  HN  UNL     1       8.086  13.417  -0.133  1.00  0.00     0.180 HD
ENDROOT
BRANCH   1   3
HETATM    3  N   UNL     1       6.833  12.704   1.258  1.00  0.00    -0.274 N 
HETATM    4  C   UNL     1       6.795  11.434   1.049  1.00  0.00     0.230 C 
HETATM    5 CL   UNL     1       6.089  10.406   2.307  1.00  0.00    -0.036 Cl
ATOM      6  HN  UNL     1       6.077  13.097   1.819  1.00  0.00     0.189 HD
BRANCH   4   7
HETATM    7  O   UNL     1       7.063  10.833  -0.091  1.00  0.00    -0.336 OA
HETATM    8  H   UNL     1       7.871  11.257  -0.374  1.00  0.00     0.220 HD
ENDBRANCH   4   7
ENDBRANCH   1   3
BRANCH   1   9
HETATM    9  C   UNL     1       8.315  14.654   1.557  1.00  0.00     0.140 C 
BRANCH   9  10
HETATM   10  C   UNL     1       8.487  14.817   3.092  1.00  0.00     0.034 C 
BRANCH  10  11
HETATM   11  C   UNL     1       9.962  14.501   3.314  1.00  0.00     0.106 C 
BRANCH  11  12
HETATM   12  C   UNL     1      10.929  15.302   4.133  1.00  0.00    -0.075 C 
BRANCH  12  13
HETATM   13  N   UNL     1      11.539  16.136   4.480  1.00  0.00    -0.361 N 
ATOM     14  HN  UNL     1      12.551  16.171   4.359  1.00  0.00     0.168 HD
BRANCH  13  15
HETATM   15  C   UNL     1      10.776  17.207   5.136  1.00  0.00     0.124 C 
HETATM   16  C   UNL     1      10.294  18.187   4.051  1.00  0.00     0.027 C 
ENDBRANCH  13  15
ENDBRANCH  12  13
ENDBRANCH  11  12
ENDBRANCH  10  11
ENDBRANCH   9  10
ENDBRANCH   1   9
TORSDOF 8
ENDMDL
MODEL 2
REMARK VINA RESULT:    -4.104      3.104      3.794
REMARK INTER + INTRA:          -6.201
REMARK INTER:                  -6.007
REMARK INTRA:                  -0.193
REMARK UNBOUND:                -0.297
REMARK  8 active torsions:
REMARK  status: ('A' for Active; 'I' for Inactive)
REMARK    1  A    between atoms: O_3  and  C_4 
REMARK    2  A    between atoms: N_5  and  N_7 
REMARK    3  A    between atoms: N_7  and  C_9 
REMARK    4  A    between atoms: C_9  and  C_11 
REMARK    5  A    between atoms: C_10  and  C_14 
REMARK    6  A    between atoms: C_10  and  C_11 
REMARK    7  A    between atoms: N_12  and  C_15 
REMARK    8  A    between atoms: N_12  and  C_14 
ROOT
HETATM    1  N   UNL     1       9.433  12.989   3.446  1.00  0.00    -0.334 N 
ATOM      2  HN  UNL     1      10.330  12.857   3.915  1.00  0.00     0.180 HD
ENDROOT
BRANCH   1   3
HETATM    3  N   UNL     1       8.688  11.909   3.270  1.00  0.00    -0.274 N 
HETATM    4  C   UNL     1       7.497  11.710   3.717  1.00  0.00     0.230 C 
HETATM    5 CL   UNL     1       6.406  10.703   2.751  1.00  0.00    -0.036 Cl
ATOM      6  HN  UNL     1       9.103  11.154   2.724  1.00  0.00     0.189 HD
BRANCH   4   7
HETATM    7  O   UNL     1       7.062  12.030   4.917  1.00  0.00    -0.336 OA
HETATM    8  H   UNL     1       7.867  12.123   5.422  1.00  0.00     0.220 HD
ENDBRANCH   4   7
ENDBRANCH   1   3
BRANCH   1   9
HETATM    9  C   UNL     1       9.103  14.330   3.042  1.00  0.00     0.140 C 
BRANCH   9  10
HETATM   10  C   UNL     1       8.744  14.865   1.629  1.00  0.00     0.034 C 
BRANCH  10  11
HETATM   11  C   UNL     1       7.973  16.146   1.925  1.00  0.00     0.106 C 
BRANCH  11  12
HETATM   12  C   UNL     1       7.894  17.360   1.049  1.00  0.00    -0.075 C 
BRANCH  12  13
HETATM   13  N   UNL     1       7.585  18.032   0.248  1.00  0.00    -0.361 N 
ATOM     14  HN  UNL     1       6.713  17.915  -0.268  1.00  0.00     0.168 HD
BRANCH  13  15
HETATM   15  C   UNL     1       8.534  19.120  -0.025  1.00  0.00     0.124 C 
HETATM   16  C   UNL     1       9.751  18.939   0.900  1.00  0.00     0.027 C 
ENDBRANCH  13  15
ENDBRANCH  12  13
ENDBRANCH  11  12
ENDBRANCH  10  11
ENDBRANCH   9  10
ENDBRANCH   1   9
TORSDOF 8
ENDMDL
MODEL 3
REMARK VINA RESULT:    -4.047     32.666     35.415
REMARK INTER + INTRA:          -6.118
REMARK INTER:                  -5.879
REMARK INTRA:                  -0.239
REMARK UNBOUND:                -0.297
REMARK  8 active torsions:
REMARK  status: ('A' for Active; 'I' for Inactive)
REMARK    1  A    between atoms: O_3  and  C_4 
REMARK    2  A    between atoms: N_5  and  N_7 
REMARK    3  A    between atoms: N_7  and  C_9 
REMARK    4  A    between atoms: C_9  and  C_11 
REMARK    5  A    between atoms: C_10  and  C_14 
REMARK    6  A    between atoms: C_10  and  C_11 
REMARK    7  A    between atoms: N_12  and  C_15 
REMARK    8  A    between atoms: N_12  and  C_14 
ROOT
HETATM    1  N   UNL     1       1.851 -17.647   8.590  1.00  0.00    -0.334 N 
ATOM      2  HN  UNL     1       1.735 -17.291   7.640  1.00  0.00     0.180 HD
ENDROOT
BRANCH   1   3
HETATM    3  N   UNL     1       1.063 -17.132   9.520  1.00  0.00    -0.274 N 
HETATM    4  C   UNL     1       0.535 -15.957   9.523  1.00  0.00     0.230 C 
HETATM    5 CL   UNL     1      -1.044 -15.758  10.301  1.00  0.00    -0.036 Cl
ATOM      6  HN  UNL     1       0.852 -17.728  10.320  1.00  0.00     0.189 HD
BRANCH   4   7
HETATM    7  O   UNL     1       1.138 -14.842   9.166  1.00  0.00    -0.336 OA
HETATM    8  H   UNL     1       1.177 -14.347   9.982  1.00  0.00     0.220 HD
ENDBRANCH   4   7
ENDBRANCH   1   3
BRANCH   1   9
HETATM    9  C   UNL     1       2.855 -18.659   8.785  1.00  0.00     0.140 C 
BRANCH   9  10
HETATM   10  C   UNL     1       2.674 -20.173   9.075  1.00  0.00     0.034 C 
BRANCH  10  11
HETATM   11  C   UNL     1       3.491 -20.842   7.975  1.00  0.00     0.106 C 
BRANCH  11  12
HETATM   12  C   UNL     1       3.511 -22.304   7.646  1.00  0.00    -0.075 C 
BRANCH  12  13
HETATM   13  N   UNL     1       3.240 -23.360   7.635  1.00  0.00    -0.361 N 
ATOM     14  HN  UNL     1       3.694 -24.043   7.030  1.00  0.00     0.168 HD
BRANCH  13  15
HETATM   15  C   UNL     1       2.162 -23.713   8.569  1.00  0.00     0.124 C 
HETATM   16  C   UNL     1       2.792 -23.992   9.946  1.00  0.00     0.027 C 
ENDBRANCH  13  15
ENDBRANCH  12  13
ENDBRANCH  11  12
ENDBRANCH  10  11
ENDBRANCH   9  10
ENDBRANCH   1   9
TORSDOF 8
ENDMDL
MODEL 4
REMARK VINA RESULT:    -4.033     30.792     31.413
REMARK INTER + INTRA:          -6.097
REMARK INTER:                  -5.825
REMARK INTRA:                  -0.273
REMARK UNBOUND:                -0.297
REMARK  8 active torsions:
REMARK  status: ('A' for Active; 'I' for Inactive)
REMARK    1  A    between atoms: O_3  and  C_4 
REMARK    2  A    between atoms: N_5  and  N_7 
REMARK    3  A    between atoms: N_7  and  C_9 
REMARK    4  A    between atoms: C_9  and  C_11 
REMARK    5  A    between atoms: C_10  and  C_14 
REMARK    6  A    between atoms: C_10  and  C_11 
REMARK    7  A    between atoms: N_12  and  C_15 
REMARK    8  A    between atoms: N_12  and  C_14 
ROOT
HETATM    1  N   UNL     1       7.315  -6.394  28.201  1.00  0.00    -0.334 N 
ATOM      2  HN  UNL     1       8.192  -6.893  28.046  1.00  0.00     0.180 HD
ENDROOT
BRANCH   1   3
HETATM    3  N   UNL     1       6.507  -6.880  29.130  1.00  0.00    -0.274 N 
HETATM    4  C   UNL     1       5.950  -6.227  30.089  1.00  0.00     0.230 C 
HETATM    5 CL   UNL     1       4.361  -6.771  30.652  1.00  0.00    -0.036 Cl
ATOM      6  HN  UNL     1       6.306  -7.879  29.082  1.00  0.00     0.189 HD
BRANCH   4   7
HETATM    7  O   UNL     1       6.525  -5.298  30.824  1.00  0.00    -0.336 OA
HETATM    8  H   UNL     1       6.853  -5.790  31.575  1.00  0.00     0.220 HD
ENDBRANCH   4   7
ENDBRANCH   1   3
BRANCH   1   9
HETATM    9  C   UNL     1       7.078  -5.231  27.386  1.00  0.00     0.140 C 
BRANCH   9  10
HETATM   10  C   UNL     1       6.689  -5.152  25.885  1.00  0.00     0.034 C 
BRANCH  10  11
HETATM   11  C   UNL     1       7.978  -4.693  25.213  1.00  0.00     0.106 C 
BRANCH  11  12
HETATM   12  C   UNL     1       8.109  -4.124  23.833  1.00  0.00    -0.075 C 
BRANCH  12  13
HETATM   13  N   UNL     1       7.995  -4.004  22.755  1.00  0.00    -0.361 N 
ATOM     14  HN  UNL     1       8.689  -3.534  22.174  1.00  0.00     0.168 HD
BRANCH  13  15
HETATM   15  C   UNL     1       6.756  -4.577  22.212  1.00  0.00     0.124 C 
HETATM   16  C   UNL     1       7.033  -6.042  21.828  1.00  0.00     0.027 C 
ENDBRANCH  13  15
ENDBRANCH  12  13
ENDBRANCH  11  12
ENDBRANCH  10  11
ENDBRANCH   9  10
ENDBRANCH   1   9
TORSDOF 8
ENDMDL
MODEL 5
REMARK VINA RESULT:    -4.030     24.631     25.386
REMARK INTER + INTRA:          -6.094
REMARK INTER:                  -5.720
REMARK INTRA:                  -0.374
REMARK UNBOUND:                -0.297
REMARK  8 active torsions:
REMARK  status: ('A' for Active; 'I' for Inactive)
REMARK    1  A    between atoms: O_3  and  C_4 
REMARK    2  A    between atoms: N_5  and  N_7 
REMARK    3  A    between atoms: N_7  and  C_9 
REMARK    4  A    between atoms: C_9  and  C_11 
REMARK    5  A    between atoms: C_10  and  C_14 
REMARK    6  A    between atoms: C_10  and  C_11 
REMARK    7  A    between atoms: N_12  and  C_15 
REMARK    8  A    between atoms: N_12  and  C_14 
ROOT
HETATM    1  N   UNL     1       5.816  -1.439  20.621  1.00  0.00    -0.334 N 
ATOM      2  HN  UNL     1       4.958  -1.915  20.339  1.00  0.00     0.180 HD
ENDROOT
BRANCH   1   3
HETATM    3  N   UNL     1       6.206  -0.419  19.872  1.00  0.00    -0.274 N 
HETATM    4  C   UNL     1       5.887  -0.195  18.645  1.00  0.00     0.230 C 
HETATM    5 CL   UNL     1       5.768   1.491  18.112  1.00  0.00    -0.036 Cl
ATOM      6  HN  UNL     1       6.824   0.261  20.315  1.00  0.00     0.189 HD
BRANCH   4   7
HETATM    7  O   UNL     1       5.820  -1.098  17.690  1.00  0.00    -0.336 OA
HETATM    8  H   UNL     1       4.881  -1.235  17.587  1.00  0.00     0.220 HD
ENDBRANCH   4   7
ENDBRANCH   1   3
BRANCH   1   9
HETATM    9  C   UNL     1       6.481  -1.942  21.793  1.00  0.00     0.140 C 
BRANCH   9  10
HETATM   10  C   UNL     1       8.002  -2.012  22.100  1.00  0.00     0.034 C 
BRANCH  10  11
HETATM   11  C   UNL     1       8.064  -2.840  23.378  1.00  0.00     0.106 C 
BRANCH  11  12
HETATM   12  C   UNL     1       7.816  -4.314  23.496  1.00  0.00    -0.075 C 
BRANCH  12  13
HETATM   13  N   UNL     1       7.343  -5.290  23.382  1.00  0.00    -0.361 N 
ATOM     14  HN  UNL     1       6.894  -5.782  24.155  1.00  0.00     0.168 HD
BRANCH  13  15
HETATM   15  C   UNL     1       7.409  -5.835  22.019  1.00  0.00     0.124 C 
HETATM   16  C   UNL     1       6.020  -5.680  21.373  1.00  0.00     0.027 C 
ENDBRANCH  13  15
ENDBRANCH  12  13
ENDBRANCH  11  12
ENDBRANCH  10  11
ENDBRANCH   9  10
ENDBRANCH   1   9
TORSDOF 8
ENDMDL
MODEL 6
REMARK VINA RESULT:    -4.015      3.010      3.479
REMARK INTER + INTRA:          -6.072
REMARK INTER:                  -5.338
REMARK INTRA:                  -0.734
REMARK UNBOUND:                -0.297
REMARK  8 active torsions:
REMARK  status: ('A' for Active; 'I' for Inactive)
REMARK    1  A    between atoms: O_3  and  C_4 
REMARK    2  A    between atoms: N_5  and  N_7 
REMARK    3  A    between atoms: N_7  and  C_9 
REMARK    4  A    between atoms: C_9  and  C_11 
REMARK    5  A    between atoms: C_10  and  C_14 
REMARK    6  A    between atoms: C_10  and  C_11 
REMARK    7  A    between atoms: N_12  and  C_15 
REMARK    8  A    between atoms: N_12  and  C_14 
ROOT
HETATM    1  N   UNL     1       9.372  15.838   0.821  1.00  0.00    -0.334 N 
ATOM      2  HN  UNL     1       9.861  15.725  -0.068  1.00  0.00     0.180 HD
ENDROOT
BRANCH   1   3
HETATM    3  N   UNL     1       9.174  14.741   1.536  1.00  0.00    -0.274 N 
HETATM    4  C   UNL     1       9.713  14.449   2.668  1.00  0.00     0.230 C 
HETATM    5 CL   UNL     1       8.773  13.474   3.809  1.00  0.00    -0.036 Cl
ATOM      6  HN  UNL     1       8.526  14.056   1.149  1.00  0.00     0.189 HD
BRANCH   4   7
HETATM    7  O   UNL     1      10.974  14.646   2.993  1.00  0.00    -0.336 OA
HETATM    8  H   UNL     1      10.935  15.422   3.550  1.00  0.00     0.220 HD
ENDBRANCH   4   7
ENDBRANCH   1   3
BRANCH   1   9
HETATM    9  C   UNL     1       8.965  17.172   1.173  1.00  0.00     0.140 C 
BRANCH   9  10
HETATM   10  C   UNL     1       7.747  17.632   2.019  1.00  0.00     0.034 C 
BRANCH  10  11
HETATM   11  C   UNL     1       8.319  17.740   3.428  1.00  0.00     0.106 C 
BRANCH  11  12
HETATM   12  C   UNL     1       9.766  17.889   3.791  1.00  0.00    -0.075 C 
BRANCH  12  13
HETATM   13  N   UNL     1      10.776  17.638   4.116  1.00  0.00    -0.361 N 
ATOM     14  HN  UNL     1      11.115  16.679   4.179  1.00  0.00     0.168 HD
BRANCH  13  15
HETATM   15  C   UNL     1      11.607  18.803   4.453  1.00  0.00     0.124 C 
HETATM   16  C   UNL     1      11.477  19.831   3.315  1.00  0.00     0.027 C 
ENDBRANCH  13  15
ENDBRANCH  12  13
ENDBRANCH  11  12
ENDBRANCH  10  11
ENDBRANCH   9  10
ENDBRANCH   1   9
TORSDOF 8
ENDMDL
MODEL 7
REMARK VINA RESULT:    -3.970      2.544      3.160
REMARK INTER + INTRA:          -6.008
REMARK INTER:                  -5.739
REMARK INTRA:                  -0.268
REMARK UNBOUND:                -0.297
REMARK  8 active torsions:
REMARK  status: ('A' for Active; 'I' for Inactive)
REMARK    1  A    between atoms: O_3  and  C_4 
REMARK    2  A    between atoms: N_5  and  N_7 
REMARK    3  A    between atoms: N_7  and  C_9 
REMARK    4  A    between atoms: C_9  and  C_11 
REMARK    5  A    between atoms: C_10  and  C_14 
REMARK    6  A    between atoms: C_10  and  C_11 
REMARK    7  A    between atoms: N_12  and  C_15 
REMARK    8  A    between atoms: N_12  and  C_14 
ROOT
HETATM    1  N   UNL     1       7.840  13.494   1.031  1.00  0.00    -0.334 N 
ATOM      2  HN  UNL     1       8.249  13.383   0.103  1.00  0.00     0.180 HD
ENDROOT
BRANCH   1   3
HETATM    3  N   UNL     1       6.841  12.683   1.344  1.00  0.00    -0.274 N 
HETATM    4  C   UNL     1       6.757  11.425   1.085  1.00  0.00     0.230 C 
HETATM    5 CL   UNL     1       5.873  10.399   2.228  1.00  0.00    -0.036 Cl
ATOM      6  HN  UNL     1       6.055  13.100   1.842  1.00  0.00     0.189 HD
BRANCH   4   7
HETATM    7  O   UNL     1       7.106  10.846  -0.045  1.00  0.00    -0.336 OA
HETATM    8  H   UNL     1       6.724  11.418  -0.707  1.00  0.00     0.220 HD
ENDBRANCH   4   7
ENDBRANCH   1   3
BRANCH   1   9
HETATM    9  C   UNL     1       8.407  14.515   1.872  1.00  0.00     0.140 C 
BRANCH   9  10
HETATM   10  C   UNL     1       9.014  15.887   1.470  1.00  0.00     0.034 C 
BRANCH  10  11
HETATM   11  C   UNL     1       7.823  16.835   1.552  1.00  0.00     0.106 C 
BRANCH  11  12
HETATM   12  C   UNL     1       7.754  18.226   0.998  1.00  0.00    -0.075 C 
BRANCH  12  13
HETATM   13  N   UNL     1       7.945  19.292   0.867  1.00  0.00    -0.361 N 
ATOM     14  HN  UNL     1       7.234  20.006   1.026  1.00  0.00     0.168 HD
BRANCH  13  15
HETATM   15  C   UNL     1       9.315  19.609   0.441  1.00  0.00     0.124 C 
HETATM   16  C   UNL     1      10.184  19.768   1.701  1.00  0.00     0.027 C 
ENDBRANCH  13  15
ENDBRANCH  12  13
ENDBRANCH  11  12
ENDBRANCH  10  11
ENDBRANCH   9  10
ENDBRANCH   1   9
TORSDOF 8
ENDMDL
MODEL 8
REMARK VINA RESULT:    -3.967     23.914     24.359
REMARK INTER + INTRA:          -6.003
REMARK INTER:                  -5.670
REMARK INTRA:                  -0.334
REMARK UNBOUND:                -0.297
REMARK  8 active torsions:
REMARK  status: ('A' for Active; 'I' for Inactive)
REMARK    1  A    between atoms: O_3  and  C_4 
REMARK    2  A    between atoms: N_5  and  N_7 
REMARK    3  A    between atoms: N_7  and  C_9 
REMARK    4  A    between atoms: C_9  and  C_11 
REMARK    5  A    between atoms: C_10  and  C_14 
REMARK    6  A    between atoms: C_10  and  C_11 
REMARK    7  A    between atoms: N_12  and  C_15 
REMARK    8  A    between atoms: N_12  and  C_14 
ROOT
HETATM    1  N   UNL     1       6.232  -1.437  21.232  1.00  0.00    -0.334 N 
ATOM      2  HN  UNL     1       5.953  -2.391  21.001  1.00  0.00     0.180 HD
ENDROOT
BRANCH   1   3
HETATM    3  N   UNL     1       5.880  -0.490  20.378  1.00  0.00    -0.274 N 
HETATM    4  C   UNL     1       6.576  -0.039  19.393  1.00  0.00     0.230 C 
HETATM    5 CL   UNL     1       5.711   0.528  17.954  1.00  0.00    -0.036 Cl
ATOM      6  HN  UNL     1       4.959  -0.072  20.514  1.00  0.00     0.189 HD
BRANCH   4   7
HETATM    7  O   UNL     1       7.868   0.217  19.416  1.00  0.00    -0.336 OA
HETATM    8  H   UNL     1       7.971   0.730  20.215  1.00  0.00     0.220 HD
ENDBRANCH   4   7
ENDBRANCH   1   3
BRANCH   1   9
HETATM    9  C   UNL     1       6.969  -1.255  22.455  1.00  0.00     0.140 C 
BRANCH   9  10
HETATM   10  C   UNL     1       8.138  -2.101  23.027  1.00  0.00     0.034 C 
BRANCH  10  11
HETATM   11  C   UNL     1       9.297  -1.775  22.091  1.00  0.00     0.106 C 
BRANCH  11  12
HETATM   12  C   UNL     1      10.688  -1.391  22.497  1.00  0.00    -0.075 C 
BRANCH  12  13
HETATM   13  N   UNL     1      11.739  -1.476  22.776  1.00  0.00    -0.361 N 
ATOM     14  HN  UNL     1      12.411  -2.025  22.241  1.00  0.00     0.168 HD
BRANCH  13  15
HETATM   15  C   UNL     1      12.102  -0.731  23.990  1.00  0.00     0.124 C 
HETATM   16  C   UNL     1      11.607   0.718  23.829  1.00  0.00     0.027 C 
ENDBRANCH  13  15
ENDBRANCH  12  13
ENDBRANCH  11  12
ENDBRANCH  10  11
ENDBRANCH   9  10
ENDBRANCH   1   9
TORSDOF 8
ENDMDL
MODEL 9
REMARK VINA RESULT:    -3.846      4.376      5.841
REMARK INTER + INTRA:          -5.828
REMARK INTER:                  -5.472
REMARK INTRA:                  -0.357
REMARK UNBOUND:                -0.297
REMARK  8 active torsions:
REMARK  status: ('A' for Active; 'I' for Inactive)
REMARK    1  A    between atoms: O_3  and  C_4 
REMARK    2  A    between atoms: N_5  and  N_7 
REMARK    3  A    between atoms: N_7  and  C_9 
REMARK    4  A    between atoms: C_9  and  C_11 
REMARK    5  A    between atoms: C_10  and  C_14 
REMARK    6  A    between atoms: C_10  and  C_11 
REMARK    7  A    between atoms: N_12  and  C_15 
REMARK    8  A    between atoms: N_12  and  C_14 
ROOT
HETATM    1  N   UNL     1      11.633  17.162   5.145  1.00  0.00    -0.334 N 
ATOM      2  HN  UNL     1      11.874  16.811   6.072  1.00  0.00     0.180 HD
ENDROOT
BRANCH   1   3
HETATM    3  N   UNL     1      11.410  16.256   4.205  1.00  0.00    -0.274 N 
HETATM    4  C   UNL     1      10.982  15.054   4.375  1.00  0.00     0.230 C 
HETATM    5 CL   UNL     1       9.986  14.338   3.097  1.00  0.00    -0.036 Cl
ATOM      6  HN  UNL     1      11.598  16.542   3.244  1.00  0.00     0.189 HD
BRANCH   4   7
HETATM    7  O   UNL     1      11.365  14.229   5.327  1.00  0.00    -0.336 OA
HETATM    8  H   UNL     1      11.631  13.449   4.842  1.00  0.00     0.220 HD
ENDBRANCH   4   7
ENDBRANCH   1   3
BRANCH   1   9
HETATM    9  C   UNL     1      11.568  18.591   4.987  1.00  0.00     0.140 C 
BRANCH   9  10
HETATM   10  C   UNL     1      12.504  19.529   4.178  1.00  0.00     0.034 C 
BRANCH  10  11
HETATM   11  C   UNL     1      11.593  20.073   3.083  1.00  0.00     0.106 C 
BRANCH  11  12
HETATM   12  C   UNL     1      10.226  19.568   2.731  1.00  0.00    -0.075 C 
BRANCH  12  13
HETATM   13  N   UNL     1       9.332  19.339   2.149  1.00  0.00    -0.361 N 
ATOM     14  HN  UNL     1       8.387  19.488   2.504  1.00  0.00     0.168 HD
BRANCH  13  15
HETATM   15  C   UNL     1       9.607  18.799   0.811  1.00  0.00     0.124 C 
HETATM   16  C   UNL     1       9.064  17.360   0.754  1.00  0.00     0.027 C 
ENDBRANCH  13  15
ENDBRANCH  12  13
ENDBRANCH  11  12
ENDBRANCH  10  11
ENDBRANCH   9  10
ENDBRANCH   1   9
TORSDOF 8
ENDMDL
