stable:False satoms:4 tatoms:24 sratio:0.16666666666666666
  -OEChem-08062414213D

 38 40  0     1  0  0  0  0  0999 V2000
   -5.9460   -5.1313  -25.8860 C   0  0  0  0  0  0  0  0  0  0  0  0
   -7.3984   -4.6733  -25.8236 S   0  0  0  0  0  0  0  0  0  0  0  0
   -8.2881   -5.8121  -25.7664 O   0  0  0  0  0  0  0  0  0  0  0  0
   -7.7166   -3.8657  -26.9915 O   0  0  0  0  0  0  0  0  0  0  0  0
   -7.5473   -3.7735  -24.4742 N   0  0  0  0  0  0  0  0  0  0  0  0
   -8.4365   -3.1110  -24.0668 C   0  0  0  0  0  0  0  0  0  0  0  0
   -8.9862   -2.1822  -23.5677 C   0  0  0  0  0  0  0  0  0  0  0  0
   -9.9277   -1.2865  -23.4531 C   0  0  1  0  0  0  0  0  0  0  0  0
  -10.5754   -0.3174  -24.6273 C   0  0  0  0  0  0  0  0  0  0  0  0
  -11.5580   -0.0051  -24.7812 C   0  0  0  0  0  0  0  0  0  0  0  0
  -12.7698   -0.4780  -23.9291 C   0  0  0  0  0  0  0  0  0  0  0  0
  -12.4002   -1.3721  -23.1488 C   0  0  0  0  0  0  0  0  0  0  0  0
  -11.4994   -1.8786  -22.8104 C   0  0  0  0  0  0  0  0  0  0  0  0
   -9.4478   -0.6923  -22.5266 C   0  0  0  0  0  0  0  0  0  0  0  0
   -8.8835    0.0099  -21.5097 C   0  0  0  0  0  0  0  0  0  0  0  0
   -9.4219    0.9845  -21.1915 O   0  0  0  0  0  0  0  0  0  0  0  0
   -7.7693   -0.5750  -21.0695 N   0  0  0  0  0  0  0  0  0  0  0  0
   -7.2129   -0.0318  -20.0869 C   0  0  0  0  0  0  0  0  0  0  0  0
   -7.3414    0.1643  -18.8136 C   0  0  0  0  0  0  0  0  0  0  0  0
   -7.0507    0.5005  -17.6858 N   0  0  0  0  0  0  0  0  0  0  0  0
   -5.9115    0.9886  -18.0747 C   0  0  0  0  0  0  0  0  0  0  0  0
   -5.3850    1.0437  -19.1732 C   0  0  0  0  0  0  0  0  0  0  0  0
   -5.7405    0.6545  -20.3441 C   0  0  0  0  0  0  0  0  0  0  0  0
   -5.0884    0.7337  -21.7624 Cl  0  0  0  0  0  0  0  0  0  0  0  0
   -5.7932   -5.7462  -26.7852 H   0  0  0  0  0  0  0  0  0  0  0  0
   -5.2859   -4.2522  -25.9267 H   0  0  0  0  0  0  0  0  0  0  0  0
   -5.7103   -5.7257  -24.9910 H   0  0  0  0  0  0  0  0  0  0  0  0
   -6.7819   -3.1326  -24.5316 H   0  0  0  0  0  0  0  0  0  0  0  0
   -9.8647    0.0517  -25.3520 H   0  0  0  0  0  0  0  0  0  0  0  0
  -11.7466    0.6919  -25.5843 H   0  0  0  0  0  0  0  0  0  0  0  0
  -13.7751   -0.0904  -24.0037 H   0  0  0  0  0  0  0  0  0  0  0  0
  -13.2585   -1.7819  -22.6370 H   0  0  0  0  0  0  0  0  0  0  0  0
  -11.4625   -1.7898  -21.7146 H   0  0  0  0  0  0  0  0  0  0  0  0
  -11.5920   -2.9386  -23.0895 H   0  0  0  0  0  0  0  0  0  0  0  0
   -9.0137   -1.6254  -22.1383 H   0  0  0  0  0  0  0  0  0  0  0  0
  -10.4466   -0.5431  -22.0904 H   0  0  0  0  0  0  0  0  0  0  0  0
   -7.3992   -1.3990  -21.4984 H   0  0  0  0  0  0  0  0  0  0  0  0
   -4.4159    1.5202  -19.1582 H   0  0  0  0  0  0  0  0  0  0  0  0
 20 21  2  0  0  0  0
 19 20  1  0  0  0  0
 19 21  1  0  0  0  0
 21 22  1  0  0  0  0
 18 19  2  0  0  0  0
 22 23  2  0  0  0  0
 18 23  1  0  0  0  0
 17 18  1  0  0  0  0
 23 24  1  0  0  0  0
 15 16  2  0  0  0  0
 15 17  1  0  0  0  0
 14 15  1  0  0  0  0
  8 14  1  0  0  0  0
 12 13  1  0  0  0  0
  8 13  1  0  0  0  0
 11 12  2  0  0  0  0
  7  8  1  0  0  0  0
  8  9  1  0  0  0  0
 10 11  1  0  0  0  0
  6  7  3  0  0  0  0
  5  6  1  0  0  0  0
  9 10  2  0  0  0  0
  2  5  1  0  0  0  0
  2  3  2  0  0  0  0
  1  2  1  0  0  0  0
  2  4  2  0  0  0  0
  1 25  1  0  0  0  0
  1 26  1  0  0  0  0
  1 27  1  0  0  0  0
  5 28  1  0  0  0  0
  9 29  1  0  0  0  0
 10 30  1  0  0  0  0
 11 31  1  0  0  0  0
 12 32  1  0  0  0  0
 13 33  1  0  0  0  0
 13 34  1  0  0  0  0
 14 35  1  0  0  0  0
 14 36  1  0  0  0  0
 17 37  1  0  0  0  0
 22 38  1  0  0  0  0
M  END
> <Chemgauss4>
-8.894825

$$$$
