stable:False satoms:4 tatoms:24 sratio:0.16666666666666666
  -OEChem-08062414213D

 38 40  0     1  0  0  0  0  0999 V2000
    6.5443   -5.3700   26.3153 C   0  0  0  0  0  0  0  0  0  0  0  0
    7.9685   -4.8640   26.1190 S   0  0  0  0  0  0  0  0  0  0  0  0
    8.8823   -5.9720   25.9481 O   0  0  0  0  0  0  0  0  0  0  0  0
    8.3774   -4.0691   27.2672 O   0  0  0  0  0  0  0  0  0  0  0  0
    7.9542   -3.9341   24.7819 N   0  0  0  0  0  0  0  0  0  0  0  0
    8.7776   -3.2353   24.3030 C   0  0  0  0  0  0  0  0  0  0  0  0
    9.2460   -2.2797   23.7727 C   0  0  0  0  0  0  0  0  0  0  0  0
   10.1437   -1.3519   23.5851 C   0  0  1  0  0  0  0  0  0  0  0  0
   10.8758   -0.3849   24.7104 C   0  0  0  0  0  0  0  0  0  0  0  0
   11.8590   -0.0439   24.7727 C   0  0  0  0  0  0  0  0  0  0  0  0
   12.9933   -0.4608   23.7940 C   0  0  0  0  0  0  0  0  0  0  0  0
   12.5748   -1.3512   23.0345 C   0  0  0  0  0  0  0  0  0  0  0  0
   11.6604   -1.8801   22.7761 C   0  0  0  0  0  0  0  0  0  0  0  0
    9.5556   -0.7559   22.7244 C   0  0  0  0  0  0  0  0  0  0  0  0
    8.8712   -0.0530   21.7846 C   0  0  0  0  0  0  0  0  0  0  0  0
    9.3452    0.9446   21.4363 O   0  0  0  0  0  0  0  0  0  0  0  0
    7.7368   -0.6652   21.4444 N   0  0  0  0  0  0  0  0  0  0  0  0
    7.0687   -0.1216   20.5344 C   0  0  0  0  0  0  0  0  0  0  0  0
    7.0630    0.1030   19.2593 C   0  0  0  0  0  0  0  0  0  0  0  0
    6.6508    0.4512   18.1739 N   0  0  0  0  0  0  0  0  0  0  0  0
    5.5419    0.8944   18.6849 C   0  0  0  0  0  0  0  0  0  0  0  0
    5.1266    0.9113   19.8314 C   0  0  0  0  0  0  0  0  0  0  0  0
    5.6092    0.5114   20.9520 C   0  0  0  0  0  0  0  0  0  0  0  0
    5.1002    0.5422   22.4296 Cl  0  0  0  0  0  0  0  0  0  0  0  0
    6.5010   -6.0068   27.2112 H   0  0  0  0  0  0  0  0  0  0  0  0
    5.8652   -4.5138   26.4411 H   0  0  0  0  0  0  0  0  0  0  0  0
    6.2384   -5.9545   25.4351 H   0  0  0  0  0  0  0  0  0  0  0  0
    7.1792   -3.3196   24.9295 H   0  0  0  0  0  0  0  0  0  0  0  0
   10.2304   -0.0531   25.5102 H   0  0  0  0  0  0  0  0  0  0  0  0
   12.1057    0.6433   25.5685 H   0  0  0  0  0  0  0  0  0  0  0  0
   13.9887   -0.0421   23.7769 H   0  0  0  0  0  0  0  0  0  0  0  0
   13.3895   -1.7230   22.4309 H   0  0  0  0  0  0  0  0  0  0  0  0
   11.5113   -1.7715   21.6917 H   0  0  0  0  0  0  0  0  0  0  0  0
   11.8126   -2.9417   23.0208 H   0  0  0  0  0  0  0  0  0  0  0  0
    9.1134   -1.6950   22.3604 H   0  0  0  0  0  0  0  0  0  0  0  0
   10.5007   -0.5660   22.1944 H   0  0  0  0  0  0  0  0  0  0  0  0
    7.4368   -1.5089   21.8894 H   0  0  0  0  0  0  0  0  0  0  0  0
    4.1468    1.3562   19.9235 H   0  0  0  0  0  0  0  0  0  0  0  0
 20 21  2  0  0  0  0
 19 20  1  0  0  0  0
 19 21  1  0  0  0  0
 21 22  1  0  0  0  0
 18 19  2  0  0  0  0
 22 23  2  0  0  0  0
 18 23  1  0  0  0  0
 17 18  1  0  0  0  0
 23 24  1  0  0  0  0
 15 16  2  0  0  0  0
 15 17  1  0  0  0  0
 14 15  1  0  0  0  0
  8 14  1  0  0  0  0
 12 13  1  0  0  0  0
  8 13  1  0  0  0  0
 11 12  2  0  0  0  0
  7  8  1  0  0  0  0
  8  9  1  0  0  0  0
 10 11  1  0  0  0  0
  6  7  3  0  0  0  0
  5  6  1  0  0  0  0
  9 10  2  0  0  0  0
  2  5  1  0  0  0  0
  2  3  2  0  0  0  0
  1  2  1  0  0  0  0
  2  4  2  0  0  0  0
  1 25  1  0  0  0  0
  1 26  1  0  0  0  0
  1 27  1  0  0  0  0
  5 28  1  0  0  0  0
  9 29  1  0  0  0  0
 10 30  1  0  0  0  0
 11 31  1  0  0  0  0
 12 32  1  0  0  0  0
 13 33  1  0  0  0  0
 13 34  1  0  0  0  0
 14 35  1  0  0  0  0
 14 36  1  0  0  0  0
 17 37  1  0  0  0  0
 22 38  1  0  0  0  0
M  END
> <Chemgauss4>
-8.613874

$$$$
