MODEL 1
REMARK VINA RESULT:    -7.478      0.000      0.000
REMARK INTER + INTRA:         -11.159
REMARK INTER:                 -10.101
REMARK INTRA:                  -1.058
REMARK UNBOUND:                -1.058
REMARK  6 active torsions:
REMARK  status: ('A' for Active; 'I' for Inactive)
REMARK    1  A    between atoms: S_2  and  N_5 
REMARK    2  A    between atoms: N_5  and  C_7 
REMARK    3  A    between atoms: C_8  and  C_9 
REMARK    4  A    between atoms: C_9  and  C_15 
REMARK    5  A    between atoms: C_15  and  C_16 
REMARK       I    between atoms: C_16  and  N_18 
REMARK    6  A    between atoms: N_18  and  C_20 
ROOT
HETATM    1  C   UNL     1       9.472  -1.487  23.009  1.00  0.00     0.112 C 
HETATM    2  C   UNL     1       9.672  -0.813  24.130  1.00  0.00     0.118 C 
HETATM    3  S   UNL     1      10.821   0.152  24.842  1.00  0.00    -0.139 SA
HETATM    4  C   UNL     1      11.749  -0.550  23.926  1.00  0.00     0.044 C 
HETATM    5  C   UNL     1      11.849  -1.332  23.099  1.00  0.00     0.005 C 
HETATM    6  C   UNL     1      10.842  -1.758  22.763  1.00  0.00     0.010 C 
ENDROOT
BRANCH   1   7
HETATM    7  C   UNL     1       8.559  -2.578  23.094  1.00  0.00    -0.055 C 
HETATM    8  C   UNL     1       7.734  -3.300  23.282  1.00  0.00     0.023 C 
BRANCH   8   9
HETATM    9  N   UNL     1       6.851  -4.164  23.239  1.00  0.00    -0.230 N 
ATOM     10  HN  UNL     1       6.838  -4.851  23.993  1.00  0.00     0.190 HD
BRANCH   9  11
HETATM   11  S   UNL     1       5.705  -4.306  22.091  1.00  0.00     0.327 S 
HETATM   12 CL   UNL     1       6.291  -5.815  21.104  1.00  0.00     0.042 Cl
HETATM   13  O   UNL     1       4.463  -4.674  22.690  1.00  0.00    -0.188 OA
HETATM   14  O   UNL     1       5.681  -3.167  21.249  1.00  0.00    -0.188 OA
ENDBRANCH   9  11
ENDBRANCH   8   9
ENDBRANCH   1   7
BRANCH   1  15
HETATM   15  C   UNL     1       9.087  -0.648  22.008  1.00  0.00    -0.055 C 
BRANCH  15  16
HETATM   16  C   UNL     1       8.466   0.167  21.182  1.00  0.00     0.290 C 
HETATM   17  O   UNL     1       8.967   1.233  20.986  1.00  0.00    -0.259 OA
HETATM   18  N   UNL     1       7.301  -0.386  20.699  1.00  0.00    -0.316 N 
ATOM     19  HN  UNL     1       6.943  -1.297  20.986  1.00  0.00     0.170 HD
BRANCH  18  20
HETATM   20  C   UNL     1       6.705   0.391  19.829  1.00  0.00     0.053 A 
HETATM   21  C   UNL     1       6.770   0.546  18.489  1.00  0.00     0.136 A 
HETATM   22  N   UNL     1       6.382   1.033  17.497  1.00  0.00    -0.310 N 
HETATM   23  N   UNL     1       5.418   1.698  17.802  1.00  0.00    -0.312 N 
ATOM     24  HN  UNL     1       6.777   0.919  16.564  1.00  0.00     0.186 HD
HETATM   25  C   UNL     1       5.238   1.731  19.030  1.00  0.00     0.109 A 
ATOM     26  HN  UNL     1       4.822   2.178  17.127  1.00  0.00     0.186 HD
HETATM   27  C   UNL     1       5.615   1.264  20.158  1.00  0.00     0.049 A 
ENDBRANCH  18  20
ENDBRANCH  15  16
ENDBRANCH   1  15
TORSDOF 6
ENDMDL
MODEL 2
REMARK VINA RESULT:    -7.083      1.622      1.697
REMARK INTER + INTRA:         -10.626
REMARK INTER:                  -9.730
REMARK INTRA:                  -0.896
REMARK UNBOUND:                -1.058
REMARK  6 active torsions:
REMARK  status: ('A' for Active; 'I' for Inactive)
REMARK    1  A    between atoms: S_2  and  N_5 
REMARK    2  A    between atoms: N_5  and  C_7 
REMARK    3  A    between atoms: C_8  and  C_9 
REMARK    4  A    between atoms: C_9  and  C_15 
REMARK    5  A    between atoms: C_15  and  C_16 
REMARK       I    between atoms: C_16  and  N_18 
REMARK    6  A    between atoms: N_18  and  C_20 
ROOT
HETATM    1  C   UNL     1       9.547  -1.570  23.409  1.00  0.00     0.112 C 
HETATM    2  C   UNL     1       9.813  -0.811  24.461  1.00  0.00     0.118 C 
HETATM    3  S   UNL     1      10.909   0.335  24.953  1.00  0.00    -0.139 SA
HETATM    4  C   UNL     1      11.782  -0.290  23.933  1.00  0.00     0.044 C 
HETATM    5  C   UNL     1      11.867  -1.098  23.130  1.00  0.00     0.005 C 
HETATM    6  C   UNL     1      10.891  -1.672  22.968  1.00  0.00     0.010 C 
ENDROOT
BRANCH   1   7
HETATM    7  C   UNL     1       8.816  -2.764  23.674  1.00  0.00    -0.055 C 
HETATM    8  C   UNL     1       8.211  -3.697  23.675  1.00  0.00     0.023 C 
BRANCH   8   9
HETATM    9  N   UNL     1       7.715  -4.815  23.850  1.00  0.00    -0.230 N 
ATOM     10  HN  UNL     1       8.307  -5.621  23.647  1.00  0.00     0.190 HD
BRANCH   9  11
HETATM   11  S   UNL     1       6.204  -5.123  24.373  1.00  0.00     0.327 S 
HETATM   12 CL   UNL     1       6.492  -5.703  26.155  1.00  0.00     0.042 Cl
HETATM   13  O   UNL     1       5.465  -3.905  24.460  1.00  0.00    -0.188 OA
HETATM   14  O   UNL     1       5.606  -6.166  23.624  1.00  0.00    -0.188 OA
ENDBRANCH   9  11
ENDBRANCH   8   9
ENDBRANCH   1   7
BRANCH   1  15
HETATM   15  C   UNL     1       8.907  -0.848  22.448  1.00  0.00    -0.055 C 
BRANCH  15  16
HETATM   16  C   UNL     1       8.356  -0.372  21.352  1.00  0.00     0.290 C 
HETATM   17  O   UNL     1       9.048   0.279  20.629  1.00  0.00    -0.259 OA
HETATM   18  N   UNL     1       7.026  -0.717  21.259  1.00  0.00    -0.316 N 
ATOM     19  HN  UNL     1       6.522  -1.238  21.978  1.00  0.00     0.170 HD
BRANCH  18  20
HETATM   20  C   UNL     1       6.481  -0.301  20.143  1.00  0.00     0.053 A 
HETATM   21  C   UNL     1       6.246  -0.855  18.934  1.00  0.00     0.136 A 
HETATM   22  N   UNL     1       5.777  -0.805  17.862  1.00  0.00    -0.310 N 
HETATM   23  N   UNL     1       5.159   0.235  17.811  1.00  0.00    -0.312 N 
ATOM     24  HN  UNL     1       5.871  -1.498  17.120  1.00  0.00     0.186 HD
HETATM   25  C   UNL     1       5.313   0.925  18.831  1.00  0.00     0.109 A 
ATOM     26  HN  UNL     1       4.577   0.511  17.021  1.00  0.00     0.186 HD
HETATM   27  C   UNL     1       5.812   0.961  20.007  1.00  0.00     0.049 A 
ENDBRANCH  18  20
ENDBRANCH  15  16
ENDBRANCH   1  15
TORSDOF 6
ENDMDL
MODEL 3
REMARK VINA RESULT:    -7.031      3.593      6.266
REMARK INTER + INTRA:         -10.556
REMARK INTER:                  -9.825
REMARK INTRA:                  -0.731
REMARK UNBOUND:                -1.058
REMARK  6 active torsions:
REMARK  status: ('A' for Active; 'I' for Inactive)
REMARK    1  A    between atoms: S_2  and  N_5 
REMARK    2  A    between atoms: N_5  and  C_7 
REMARK    3  A    between atoms: C_8  and  C_9 
REMARK    4  A    between atoms: C_9  and  C_15 
REMARK    5  A    between atoms: C_15  and  C_16 
REMARK       I    between atoms: C_16  and  N_18 
REMARK    6  A    between atoms: N_18  and  C_20 
ROOT
HETATM    1  C   UNL     1       6.832  -3.335  22.403  1.00  0.00     0.112 C 
HETATM    2  C   UNL     1       5.968  -3.607  23.368  1.00  0.00     0.118 C 
HETATM    3  S   UNL     1       5.520  -4.868  24.351  1.00  0.00    -0.139 SA
HETATM    4  C   UNL     1       6.109  -5.704  23.280  1.00  0.00     0.044 C 
HETATM    5  C   UNL     1       6.642  -5.707  22.269  1.00  0.00     0.005 C 
HETATM    6  C   UNL     1       6.892  -4.657  21.892  1.00  0.00     0.010 C 
ENDROOT
BRANCH   1   7
HETATM    7  C   UNL     1       6.469  -2.273  21.525  1.00  0.00    -0.055 C 
HETATM    8  C   UNL     1       5.990  -1.489  20.898  1.00  0.00     0.023 C 
BRANCH   8   9
HETATM    9  N   UNL     1       5.661  -0.473  20.276  1.00  0.00    -0.230 N 
ATOM     10  HN  UNL     1       4.964   0.132  20.713  1.00  0.00     0.190 HD
BRANCH   9  11
HETATM   11  S   UNL     1       6.236  -0.008  18.826  1.00  0.00     0.327 S 
HETATM   12 CL   UNL     1       5.318   1.621  18.517  1.00  0.00     0.042 Cl
HETATM   13  O   UNL     1       7.619   0.325  18.938  1.00  0.00    -0.188 OA
HETATM   14  O   UNL     1       5.897  -0.944  17.818  1.00  0.00    -0.188 OA
ENDBRANCH   9  11
ENDBRANCH   8   9
ENDBRANCH   1   7
BRANCH   1  15
HETATM   15  C   UNL     1       8.068  -3.094  22.922  1.00  0.00    -0.055 C 
BRANCH  15  16
HETATM   16  C   UNL     1       9.142  -2.619  23.515  1.00  0.00     0.290 C 
HETATM   17  O   UNL     1       9.283  -2.869  24.675  1.00  0.00    -0.259 OA
HETATM   18  N   UNL     1       9.918  -1.879  22.651  1.00  0.00    -0.316 N 
ATOM     19  HN  UNL     1       9.663  -1.687  21.682  1.00  0.00     0.170 HD
BRANCH  18  20
HETATM   20  C   UNL     1      11.021  -1.452  23.214  1.00  0.00     0.053 A 
HETATM   21  C   UNL     1      12.330  -1.761  23.099  1.00  0.00     0.136 A 
HETATM   22  N   UNL     1      13.454  -1.560  23.361  1.00  0.00    -0.310 N 
HETATM   23  N   UNL     1      13.469  -0.556  24.037  1.00  0.00    -0.312 N 
ATOM     24  HN  UNL     1      14.258  -2.120  23.078  1.00  0.00     0.186 HD
HETATM   25  C   UNL     1      12.326  -0.154  24.308  1.00  0.00     0.109 A 
ATOM     26  HN  UNL     1      14.323  -0.093  24.347  1.00  0.00     0.186 HD
HETATM   27  C   UNL     1      11.077  -0.319  24.091  1.00  0.00     0.049 A 
ENDBRANCH  18  20
ENDBRANCH  15  16
ENDBRANCH   1  15
TORSDOF 6
ENDMDL
MODEL 4
REMARK VINA RESULT:    -6.913      3.547      6.382
REMARK INTER + INTRA:         -10.397
REMARK INTER:                  -9.468
REMARK INTRA:                  -0.929
REMARK UNBOUND:                -1.058
REMARK  6 active torsions:
REMARK  status: ('A' for Active; 'I' for Inactive)
REMARK    1  A    between atoms: S_2  and  N_5 
REMARK    2  A    between atoms: N_5  and  C_7 
REMARK    3  A    between atoms: C_8  and  C_9 
REMARK    4  A    between atoms: C_9  and  C_15 
REMARK    5  A    between atoms: C_15  and  C_16 
REMARK       I    between atoms: C_16  and  N_18 
REMARK    6  A    between atoms: N_18  and  C_20 
ROOT
HETATM    1  C   UNL     1       7.035   0.084  20.350  1.00  0.00     0.112 C 
HETATM    2  C   UNL     1       6.324   1.140  20.712  1.00  0.00     0.118 C 
HETATM    3  S   UNL     1       5.023   2.032  20.191  1.00  0.00    -0.139 SA
HETATM    4  C   UNL     1       5.378   1.481  18.863  1.00  0.00     0.044 C 
HETATM    5  C   UNL     1       6.087   0.799  18.283  1.00  0.00     0.005 C 
HETATM    6  C   UNL     1       6.831   0.249  18.957  1.00  0.00     0.010 C 
ENDROOT
BRANCH   1   7
HETATM    7  C   UNL     1       8.369   0.033  20.850  1.00  0.00    -0.055 C 
HETATM    8  C   UNL     1       9.357  -0.197  21.305  1.00  0.00     0.023 C 
BRANCH   8   9
HETATM    9  N   UNL     1      10.549  -0.334  21.600  1.00  0.00    -0.230 N 
ATOM     10  HN  UNL     1      11.223   0.222  21.073  1.00  0.00     0.190 HD
BRANCH   9  11
HETATM   11  S   UNL     1      11.145  -1.319  22.751  1.00  0.00     0.327 S 
HETATM   12 CL   UNL     1      11.274  -0.171  24.254  1.00  0.00     0.042 Cl
HETATM   13  O   UNL     1      10.178  -2.313  23.086  1.00  0.00    -0.188 OA
HETATM   14  O   UNL     1      12.434  -1.792  22.402  1.00  0.00    -0.188 OA
ENDBRANCH   9  11
ENDBRANCH   8   9
ENDBRANCH   1   7
BRANCH   1  15
HETATM   15  C   UNL     1       6.383  -1.066  20.675  1.00  0.00    -0.055 C 
BRANCH  15  16
HETATM   16  C   UNL     1       5.986  -2.303  20.882  1.00  0.00     0.290 C 
HETATM   17  O   UNL     1       5.283  -2.799  20.053  1.00  0.00    -0.259 OA
HETATM   18  N   UNL     1       6.463  -2.800  22.075  1.00  0.00    -0.316 N 
ATOM     19  HN  UNL     1       7.018  -2.255  22.736  1.00  0.00     0.170 HD
BRANCH  18  20
HETATM   20  C   UNL     1       6.125  -4.051  22.263  1.00  0.00     0.053 A 
HETATM   21  C   UNL     1       6.687  -5.244  21.970  1.00  0.00     0.136 A 
HETATM   22  N   UNL     1       6.697  -6.412  22.042  1.00  0.00    -0.310 N 
HETATM   23  N   UNL     1       5.780  -6.715  22.772  1.00  0.00    -0.312 N 
ATOM     24  HN  UNL     1       7.348  -7.048  21.581  1.00  0.00     0.186 HD
HETATM   25  C   UNL     1       5.094  -5.733  23.098  1.00  0.00     0.109 A 
ATOM     26  HN  UNL     1       5.592  -7.668  23.083  1.00  0.00     0.186 HD
HETATM   27  C   UNL     1       4.996  -4.459  23.048  1.00  0.00     0.049 A 
ENDBRANCH  18  20
ENDBRANCH  15  16
ENDBRANCH   1  15
TORSDOF 6
ENDMDL
MODEL 5
REMARK VINA RESULT:    -6.670      3.359      6.458
REMARK INTER + INTRA:         -10.068
REMARK INTER:                  -9.399
REMARK INTRA:                  -0.669
REMARK UNBOUND:                -1.058
REMARK  6 active torsions:
REMARK  status: ('A' for Active; 'I' for Inactive)
REMARK    1  A    between atoms: S_2  and  N_5 
REMARK    2  A    between atoms: N_5  and  C_7 
REMARK    3  A    between atoms: C_8  and  C_9 
REMARK    4  A    between atoms: C_9  and  C_15 
REMARK    5  A    between atoms: C_15  and  C_16 
REMARK       I    between atoms: C_16  and  N_18 
REMARK    6  A    between atoms: N_18  and  C_20 
ROOT
HETATM    1  C   UNL     1       9.139  -1.106  23.196  1.00  0.00     0.112 C 
HETATM    2  C   UNL     1      10.253  -1.568  22.650  1.00  0.00     0.118 C 
HETATM    3  S   UNL     1      11.896  -1.510  22.880  1.00  0.00    -0.139 SA
HETATM    4  C   UNL     1      11.591  -0.255  23.605  1.00  0.00     0.044 C 
HETATM    5  C   UNL     1      10.770   0.458  23.955  1.00  0.00     0.005 C 
HETATM    6  C   UNL     1       9.717   0.082  23.710  1.00  0.00     0.010 C 
ENDROOT
BRANCH   1   7
HETATM    7  C   UNL     1       8.016  -1.005  22.325  1.00  0.00    -0.055 C 
HETATM    8  C   UNL     1       7.259  -0.791  21.539  1.00  0.00     0.023 C 
BRANCH   8   9
HETATM    9  N   UNL     1       6.369  -0.809  20.680  1.00  0.00    -0.230 N 
ATOM     10  HN  UNL     1       5.518  -1.324  20.907  1.00  0.00     0.190 HD
BRANCH   9  11
HETATM   11  S   UNL     1       6.430  -0.087  19.222  1.00  0.00     0.327 S 
HETATM   12 CL   UNL     1       5.380   1.469  19.486  1.00  0.00     0.042 Cl
HETATM   13  O   UNL     1       7.758   0.363  18.960  1.00  0.00    -0.188 OA
HETATM   14  O   UNL     1       5.835  -0.899  18.225  1.00  0.00    -0.188 OA
ENDBRANCH   9  11
ENDBRANCH   8   9
ENDBRANCH   1   7
BRANCH   1  15
HETATM   15  C   UNL     1       8.801  -1.844  24.290  1.00  0.00    -0.055 C 
BRANCH  15  16
HETATM   16  C   UNL     1       8.308  -2.697  25.162  1.00  0.00     0.290 C 
HETATM   17  O   UNL     1       8.089  -2.289  26.263  1.00  0.00    -0.259 OA
HETATM   18  N   UNL     1       8.151  -3.952  24.616  1.00  0.00    -0.316 N 
ATOM     19  HN  UNL     1       8.429  -4.197  23.666  1.00  0.00     0.170 HD
BRANCH  18  20
HETATM   20  C   UNL     1       7.604  -4.795  25.457  1.00  0.00     0.053 A 
HETATM   21  C   UNL     1       7.996  -5.380  26.609  1.00  0.00     0.136 A 
HETATM   22  N   UNL     1       7.768  -6.047  27.544  1.00  0.00    -0.310 N 
HETATM   23  N   UNL     1       6.591  -6.321  27.485  1.00  0.00    -0.312 N 
ATOM     24  HN  UNL     1       8.430  -6.338  28.264  1.00  0.00     0.186 HD
HETATM   25  C   UNL     1       6.064  -5.914  26.437  1.00  0.00     0.109 A 
ATOM     26  HN  UNL     1       6.089  -6.829  28.214  1.00  0.00     0.186 HD
HETATM   27  C   UNL     1       6.236  -5.219  25.379  1.00  0.00     0.049 A 
ENDBRANCH  18  20
ENDBRANCH  15  16
ENDBRANCH   1  15
TORSDOF 6
ENDMDL
MODEL 6
REMARK VINA RESULT:    -6.668      4.715      6.398
REMARK INTER + INTRA:         -10.066
REMARK INTER:                  -9.192
REMARK INTRA:                  -0.874
REMARK UNBOUND:                -1.058
REMARK  6 active torsions:
REMARK  status: ('A' for Active; 'I' for Inactive)
REMARK    1  A    between atoms: S_2  and  N_5 
REMARK    2  A    between atoms: N_5  and  C_7 
REMARK    3  A    between atoms: C_8  and  C_9 
REMARK    4  A    between atoms: C_9  and  C_15 
REMARK    5  A    between atoms: C_15  and  C_16 
REMARK       I    between atoms: C_16  and  N_18 
REMARK    6  A    between atoms: N_18  and  C_20 
ROOT
HETATM    1  C   UNL     1       7.135  -4.435  24.343  1.00  0.00     0.112 C 
HETATM    2  C   UNL     1       7.280  -5.283  23.337  1.00  0.00     0.118 C 
HETATM    3  S   UNL     1       6.860  -5.438  21.738  1.00  0.00    -0.139 SA
HETATM    4  C   UNL     1       5.772  -4.500  22.096  1.00  0.00     0.044 C 
HETATM    5  C   UNL     1       5.300  -3.874  22.928  1.00  0.00     0.005 C 
HETATM    6  C   UNL     1       5.889  -3.914  23.907  1.00  0.00     0.010 C 
ENDROOT
BRANCH   1   7
HETATM    7  C   UNL     1       7.227  -4.998  25.649  1.00  0.00    -0.055 C 
HETATM    8  C   UNL     1       7.412  -5.586  26.574  1.00  0.00     0.023 C 
BRANCH   8   9
HETATM    9  N   UNL     1       7.647  -6.005  27.713  1.00  0.00    -0.230 N 
ATOM     10  HN  UNL     1       8.627  -6.142  27.962  1.00  0.00     0.190 HD
BRANCH   9  11
HETATM   11  S   UNL     1       6.539  -6.359  28.853  1.00  0.00     0.327 S 
HETATM   12 CL   UNL     1       4.950  -6.557  27.839  1.00  0.00     0.042 Cl
HETATM   13  O   UNL     1       6.819  -7.639  29.418  1.00  0.00    -0.188 OA
HETATM   14  O   UNL     1       6.390  -5.289  29.769  1.00  0.00    -0.188 OA
ENDBRANCH   9  11
ENDBRANCH   8   9
ENDBRANCH   1   7
BRANCH   1  15
HETATM   15  C   UNL     1       8.015  -3.403  24.228  1.00  0.00    -0.055 C 
BRANCH  15  16
HETATM   16  C   UNL     1       8.794  -2.415  23.841  1.00  0.00     0.290 C 
HETATM   17  O   UNL     1       8.856  -2.193  22.669  1.00  0.00    -0.259 OA
HETATM   18  N   UNL     1       9.426  -1.815  24.908  1.00  0.00    -0.316 N 
ATOM     19  HN  UNL     1       9.335  -2.132  25.873  1.00  0.00     0.170 HD
BRANCH  18  20
HETATM   20  C   UNL     1      10.156  -0.791  24.541  1.00  0.00     0.053 A 
HETATM   21  C   UNL     1      10.014   0.550  24.603  1.00  0.00     0.136 A 
HETATM   22  N   UNL     1      10.442   1.630  24.454  1.00  0.00    -0.310 N 
HETATM   23  N   UNL     1      11.597   1.493  24.119  1.00  0.00    -0.312 N 
ATOM     24  HN  UNL     1       9.941   2.509  24.581  1.00  0.00     0.186 HD
HETATM   25  C   UNL     1      11.898   0.301  23.943  1.00  0.00     0.109 A 
ATOM     26  HN  UNL     1      12.248   2.268  23.995  1.00  0.00     0.186 HD
HETATM   27  C   UNL     1      11.501  -0.908  24.054  1.00  0.00     0.049 A 
ENDBRANCH  18  20
ENDBRANCH  15  16
ENDBRANCH   1  15
TORSDOF 6
ENDMDL
MODEL 7
REMARK VINA RESULT:    -6.491      2.798      5.307
REMARK INTER + INTRA:          -9.827
REMARK INTER:                  -8.792
REMARK INTRA:                  -1.035
REMARK UNBOUND:                -1.058
REMARK  6 active torsions:
REMARK  status: ('A' for Active; 'I' for Inactive)
REMARK    1  A    between atoms: S_2  and  N_5 
REMARK    2  A    between atoms: N_5  and  C_7 
REMARK    3  A    between atoms: C_8  and  C_9 
REMARK    4  A    between atoms: C_9  and  C_15 
REMARK    5  A    between atoms: C_15  and  C_16 
REMARK       I    between atoms: C_16  and  N_18 
REMARK    6  A    between atoms: N_18  and  C_20 
ROOT
HETATM    1  C   UNL     1       9.238  -0.394  22.674  1.00  0.00     0.112 C 
HETATM    2  C   UNL     1      10.556  -0.268  22.692  1.00  0.00     0.118 C 
HETATM    3  S   UNL     1      11.791  -0.011  23.772  1.00  0.00    -0.139 SA
HETATM    4  C   UNL     1      10.724   0.588  24.607  1.00  0.00     0.044 C 
HETATM    5  C   UNL     1       9.610   0.831  24.685  1.00  0.00     0.005 C 
HETATM    6  C   UNL     1       9.003   0.437  23.799  1.00  0.00     0.010 C 
ENDROOT
BRANCH   1   7
HETATM    7  C   UNL     1       8.600  -0.079  21.440  1.00  0.00    -0.055 C 
HETATM    8  C   UNL     1       8.104  -0.039  20.446  1.00  0.00     0.023 C 
BRANCH   8   9
HETATM    9  N   UNL     1       7.405   0.191  19.452  1.00  0.00    -0.230 N 
ATOM     10  HN  UNL     1       7.779   0.847  18.765  1.00  0.00     0.190 HD
BRANCH   9  11
HETATM   11  S   UNL     1       5.944  -0.455  19.137  1.00  0.00     0.327 S 
HETATM   12 CL   UNL     1       4.775   1.011  19.409  1.00  0.00     0.042 Cl
HETATM   13  O   UNL     1       5.853  -0.792  17.753  1.00  0.00    -0.188 OA
HETATM   14  O   UNL     1       5.634  -1.488  20.055  1.00  0.00    -0.188 OA
ENDBRANCH   9  11
ENDBRANCH   8   9
ENDBRANCH   1   7
BRANCH   1  15
HETATM   15  C   UNL     1       8.873  -1.645  23.069  1.00  0.00    -0.055 C 
BRANCH  15  16
HETATM   16  C   UNL     1       8.345  -2.841  23.225  1.00  0.00     0.290 C 
HETATM   17  O   UNL     1       8.784  -3.523  24.100  1.00  0.00    -0.259 OA
HETATM   18  N   UNL     1       7.359  -3.088  22.295  1.00  0.00    -0.316 N 
ATOM     19  HN  UNL     1       7.105  -2.439  21.550  1.00  0.00     0.170 HD
BRANCH  18  20
HETATM   20  C   UNL     1       6.784  -4.251  22.478  1.00  0.00     0.053 A 
HETATM   21  C   UNL     1       5.695  -4.679  23.152  1.00  0.00     0.136 A 
HETATM   22  N   UNL     1       4.941  -5.527  23.440  1.00  0.00    -0.310 N 
HETATM   23  N   UNL     1       5.256  -6.496  22.787  1.00  0.00    -0.312 N 
ATOM     24  HN  UNL     1       4.173  -5.462  24.108  1.00  0.00     0.186 HD
HETATM   25  C   UNL     1       6.298  -6.309  22.139  1.00  0.00     0.109 A 
ATOM     26  HN  UNL     1       4.725  -7.367  22.770  1.00  0.00     0.186 HD
HETATM   27  C   UNL     1       7.177  -5.448  21.793  1.00  0.00     0.049 A 
ENDBRANCH  18  20
ENDBRANCH  15  16
ENDBRANCH   1  15
TORSDOF 6
ENDMDL
MODEL 8
REMARK VINA RESULT:    -6.315      6.476      8.600
REMARK INTER + INTRA:          -9.588
REMARK INTER:                  -8.760
REMARK INTRA:                  -0.828
REMARK UNBOUND:                -1.058
REMARK  6 active torsions:
REMARK  status: ('A' for Active; 'I' for Inactive)
REMARK    1  A    between atoms: S_2  and  N_5 
REMARK    2  A    between atoms: N_5  and  C_7 
REMARK    3  A    between atoms: C_8  and  C_9 
REMARK    4  A    between atoms: C_9  and  C_15 
REMARK    5  A    between atoms: C_15  and  C_16 
REMARK       I    between atoms: C_16  and  N_18 
REMARK    6  A    between atoms: N_18  and  C_20 
ROOT
HETATM    1  C   UNL     1       4.973  -5.656  23.985  1.00  0.00     0.112 C 
HETATM    2  C   UNL     1       5.238  -4.365  23.862  1.00  0.00     0.118 C 
HETATM    3  S   UNL     1       5.825  -3.293  22.738  1.00  0.00    -0.139 SA
HETATM    4  C   UNL     1       6.460  -4.496  22.154  1.00  0.00     0.044 C 
HETATM    5  C   UNL     1       6.595  -5.628  22.238  1.00  0.00     0.005 C 
HETATM    6  C   UNL     1       5.976  -6.091  23.082  1.00  0.00     0.010 C 
ENDROOT
BRANCH   1   7
HETATM    7  C   UNL     1       4.977  -6.166  25.316  1.00  0.00    -0.055 C 
HETATM    8  C   UNL     1       5.082  -6.726  26.271  1.00  0.00     0.023 C 
BRANCH   8   9
HETATM    9  N   UNL     1       5.245  -7.113  27.433  1.00  0.00    -0.230 N 
ATOM     10  HN  UNL     1       4.779  -7.980  27.702  1.00  0.00     0.190 HD
BRANCH   9  11
HETATM   11  S   UNL     1       6.134  -6.368  28.575  1.00  0.00     0.327 S 
HETATM   12 CL   UNL     1       5.112  -4.817  28.951  1.00  0.00     0.042 Cl
HETATM   13  O   UNL     1       6.138  -7.147  29.771  1.00  0.00    -0.188 OA
HETATM   14  O   UNL     1       7.403  -5.991  28.070  1.00  0.00    -0.188 OA
ENDBRANCH   9  11
ENDBRANCH   8   9
ENDBRANCH   1   7
BRANCH   1  15
HETATM   15  C   UNL     1       3.791  -5.962  23.383  1.00  0.00    -0.055 C 
BRANCH  15  16
HETATM   16  C   UNL     1       2.540  -6.216  23.063  1.00  0.00     0.290 C 
HETATM   17  O   UNL     1       1.801  -5.284  22.956  1.00  0.00    -0.259 OA
HETATM   18  N   UNL     1       2.314  -7.568  22.926  1.00  0.00    -0.316 N 
ATOM     19  HN  UNL     1       3.021  -8.283  23.099  1.00  0.00     0.170 HD
BRANCH  18  20
HETATM   20  C   UNL     1       1.087  -7.831  22.548  1.00  0.00     0.053 A 
HETATM   21  C   UNL     1       0.435  -7.830  21.365  1.00  0.00     0.136 A 
HETATM   22  N   UNL     1      -0.522  -8.051  20.727  1.00  0.00    -0.310 N 
HETATM   23  N   UNL     1      -1.313  -8.580  21.475  1.00  0.00    -0.312 N 
ATOM     24  HN  UNL     1      -0.661  -7.839  19.739  1.00  0.00     0.186 HD
HETATM   25  C   UNL     1      -0.905  -8.609  22.648  1.00  0.00     0.109 A 
ATOM     26  HN  UNL     1      -2.212  -8.958  21.176  1.00  0.00     0.186 HD
HETATM   27  C   UNL     1       0.087  -8.377  23.419  1.00  0.00     0.049 A 
ENDBRANCH  18  20
ENDBRANCH  15  16
ENDBRANCH   1  15
TORSDOF 6
ENDMDL
MODEL 9
REMARK VINA RESULT:    -6.257      4.446      6.188
REMARK INTER + INTRA:          -9.509
REMARK INTER:                  -8.689
REMARK INTRA:                  -0.820
REMARK UNBOUND:                -1.058
REMARK  6 active torsions:
REMARK  status: ('A' for Active; 'I' for Inactive)
REMARK    1  A    between atoms: S_2  and  N_5 
REMARK    2  A    between atoms: N_5  and  C_7 
REMARK    3  A    between atoms: C_8  and  C_9 
REMARK    4  A    between atoms: C_9  and  C_15 
REMARK    5  A    between atoms: C_15  and  C_16 
REMARK       I    between atoms: C_16  and  N_18 
REMARK    6  A    between atoms: N_18  and  C_20 
ROOT
HETATM    1  C   UNL     1       9.820   1.867  23.462  1.00  0.00     0.112 C 
HETATM    2  C   UNL     1      11.096   1.612  23.704  1.00  0.00     0.118 C 
HETATM    3  S   UNL     1      12.059   0.383  24.270  1.00  0.00    -0.139 SA
HETATM    4  C   UNL     1      10.813  -0.078  24.925  1.00  0.00     0.044 C 
HETATM    5  C   UNL     1       9.698   0.121  25.081  1.00  0.00     0.005 C 
HETATM    6  C   UNL     1       9.313   1.009  24.472  1.00  0.00     0.010 C 
ENDROOT
BRANCH   1   7
HETATM    7  C   UNL     1       9.448   3.243  23.477  1.00  0.00    -0.055 C 
HETATM    8  C   UNL     1       9.003   4.252  23.613  1.00  0.00     0.023 C 
BRANCH   8   9
HETATM    9  N   UNL     1       8.757   5.453  23.777  1.00  0.00    -0.230 N 
ATOM     10  HN  UNL     1       8.113   5.888  23.116  1.00  0.00     0.190 HD
BRANCH   9  11
HETATM   11  S   UNL     1       9.363   6.403  24.952  1.00  0.00     0.327 S 
HETATM   12 CL   UNL     1      11.228   6.333  24.621  1.00  0.00     0.042 Cl
HETATM   13  O   UNL     1       8.965   7.756  24.733  1.00  0.00    -0.188 OA
HETATM   14  O   UNL     1       9.086   5.870  26.235  1.00  0.00    -0.188 OA
ENDBRANCH   9  11
ENDBRANCH   8   9
ENDBRANCH   1   7
BRANCH   1  15
HETATM   15  C   UNL     1       9.434   1.303  22.284  1.00  0.00    -0.055 C 
BRANCH  15  16
HETATM   16  C   UNL     1       8.804   0.748  21.271  1.00  0.00     0.290 C 
HETATM   17  O   UNL     1       9.403  -0.062  20.631  1.00  0.00    -0.259 OA
HETATM   18  N   UNL     1       7.528   1.247  21.129  1.00  0.00    -0.316 N 
ATOM     19  HN  UNL     1       7.139   1.988  21.712  1.00  0.00     0.170 HD
BRANCH  18  20
HETATM   20  C   UNL     1       6.869   0.658  20.161  1.00  0.00     0.053 A 
HETATM   21  C   UNL     1       6.782   0.834  18.825  1.00  0.00     0.136 A 
HETATM   22  N   UNL     1       6.396   0.493  17.774  1.00  0.00    -0.310 N 
HETATM   23  N   UNL     1       5.824  -0.560  17.949  1.00  0.00    -0.312 N 
ATOM     24  HN  UNL     1       6.516   0.984  16.888  1.00  0.00     0.186 HD
HETATM   25  C   UNL     1       5.745  -0.859  19.151  1.00  0.00     0.109 A 
ATOM     26  HN  UNL     1       5.451  -1.136  17.194  1.00  0.00     0.186 HD
HETATM   27  C   UNL     1       6.105  -0.544  20.336  1.00  0.00     0.049 A 
ENDBRANCH  18  20
ENDBRANCH  15  16
ENDBRANCH   1  15
TORSDOF 6
ENDMDL
