REMARK  4 active torsions:
REMARK  status: ('A' for Active; 'I' for Inactive)
REMARK       I    between atoms: N_2  and  C_5 
REMARK    1  A    between atoms: C_5  and  C_6 
REMARK    2  A    between atoms: C_6  and  C_7 
REMARK    3  A    between atoms: C_7  and  C_9 
REMARK    4  A    between atoms: C_14  and  C_15 
ROOT
HETATM    1  H   UNL     2       8.727   1.589  20.657  1.00  0.00     0.149 HD
HETATM    2  N   UNL     2       8.114   1.679  19.820  1.00  0.00    -0.430 N 
ATOM      3  HN  UNL     2       8.124   2.466  19.172  1.00  0.00     0.149 HD
HETATM    4  C   UNL     2       7.298   0.597  19.715  1.00  0.00     0.110 C 
ENDROOT
BRANCH   4   5
HETATM    5  C   UNL     2       6.790  -0.042  21.061  1.00  0.00     0.014 C 
HETATM    6  C   UNL     2       7.993  -0.494  21.940  1.00  0.00     0.006 C 
ENDBRANCH   4   5
TORSDOF 4
