MODEL 1
REMARK VINA RESULT:    -6.363      0.000      0.000
REMARK INTER + INTRA:          -9.154
REMARK INTER:                  -8.223
REMARK INTRA:                  -0.931
REMARK UNBOUND:                -0.931
REMARK  5 active torsions:
REMARK  status: ('A' for Active; 'I' for Inactive)
REMARK    1  A    between atoms: S_2  and  N_5 
REMARK    2  A    between atoms: N_5  and  C_7 
REMARK    3  A    between atoms: C_8  and  C_9 
REMARK    4  A    between atoms: C_9  and  C_11 
REMARK    5  A    between atoms: C_12  and  C_13 
REMARK       I    between atoms: C_13  and  N_15 
ROOT
HETATM    1  C   UNL     1       7.316   0.039  20.030  1.00  0.00     0.024 C 
HETATM    2  C   UNL     1       6.337  -0.484  20.705  1.00  0.00     0.095 C 
ENDROOT
BRANCH   2   3
HETATM    3  C   UNL     1       6.091  -1.950  21.039  1.00  0.00     0.247 C 
HETATM    4  O   UNL     1       5.427  -2.588  20.284  1.00  0.00    -0.268 OA
HETATM    5  N   UNL     1       6.590  -2.464  22.216  1.00  0.00    -0.317 N 
HETATM    6  C   UNL     1       6.209  -3.613  22.604  1.00  0.00     0.087 A 
ATOM      7  HN  UNL     1       7.257  -1.928  22.770  1.00  0.00     0.169 HD
HETATM    8  S   UNL     1       6.560  -5.089  21.753  1.00  0.00    -0.022 SA
HETATM    9  C   UNL     1       5.438  -3.857  23.763  1.00  0.00     0.041 A 
HETATM   10  N   UNL     1       6.133  -6.703  22.201  1.00  0.00    -0.323 N 
HETATM   11  C   UNL     1       5.814  -5.911  22.737  1.00  0.00     0.091 A 
ATOM     12  HN  UNL     1       6.174  -7.709  22.041  1.00  0.00     0.174 HD
HETATM   13  C   UNL     1       5.263  -5.057  23.684  1.00  0.00     0.041 A 
ENDBRANCH   2   3
BRANCH   1  14
HETATM   14  C   UNL     1       8.565   0.076  20.574  1.00  0.00    -0.043 C 
HETATM   15  C   UNL     1       9.425   0.036  21.170  1.00  0.00     0.027 C 
BRANCH  15  16
HETATM   16  N   UNL     1      10.495  -0.212  21.762  1.00  0.00    -0.229 N 
ATOM     17  HN  UNL     1      11.285   0.397  21.547  1.00  0.00     0.190 HD
BRANCH  16  18
HETATM   18  S   UNL     1      10.765  -1.381  22.821  1.00  0.00     0.327 S 
HETATM   19 CL   UNL     1      10.736  -0.345  24.467  1.00  0.00     0.042 Cl
HETATM   20  O   UNL     1       9.673  -2.304  22.915  1.00  0.00    -0.188 OA
HETATM   21  O   UNL     1      12.056  -1.982  22.695  1.00  0.00    -0.188 OA
ENDBRANCH  16  18
ENDBRANCH  15  16
ENDBRANCH   1  14
BRANCH   1  22
HETATM   22  C   UNL     1       6.814   0.504  18.856  1.00  0.00     0.010 C 
HETATM   23  C   UNL     1       5.855   0.406  18.045  1.00  0.00     0.013 C 
ENDBRANCH   1  22
TORSDOF 5
ENDMDL
MODEL 2
REMARK VINA RESULT:    -6.213      3.233      5.869
REMARK INTER + INTRA:          -8.960
REMARK INTER:                  -8.265
REMARK INTRA:                  -0.695
REMARK UNBOUND:                -0.931
REMARK  5 active torsions:
REMARK  status: ('A' for Active; 'I' for Inactive)
REMARK    1  A    between atoms: S_2  and  N_5 
REMARK    2  A    between atoms: N_5  and  C_7 
REMARK    3  A    between atoms: C_8  and  C_9 
REMARK    4  A    between atoms: C_9  and  C_11 
REMARK    5  A    between atoms: C_12  and  C_13 
REMARK       I    between atoms: C_13  and  N_15 
ROOT
HETATM    1  C   UNL     1       9.465  -1.836  22.962  1.00  0.00     0.024 C 
HETATM    2  C   UNL     1       9.010  -0.679  22.583  1.00  0.00     0.095 C 
ENDROOT
BRANCH   2   3
HETATM    3  C   UNL     1       8.265  -0.324  21.303  1.00  0.00     0.247 C 
HETATM    4  O   UNL     1       8.911  -0.039  20.345  1.00  0.00    -0.268 OA
HETATM    5  N   UNL     1       6.888  -0.289  21.316  1.00  0.00    -0.317 N 
HETATM    6  C   UNL     1       6.269   0.213  20.325  1.00  0.00     0.087 A 
ATOM      7  HN  UNL     1       6.370  -0.661  22.112  1.00  0.00     0.169 HD
HETATM    8  S   UNL     1       6.287  -0.470  18.725  1.00  0.00    -0.022 SA
HETATM    9  C   UNL     1       5.497   1.395  20.372  1.00  0.00     0.041 A 
HETATM   10  N   UNL     1       5.458   0.096  17.318  1.00  0.00    -0.323 N 
HETATM   11  C   UNL     1       5.432   0.614  18.182  1.00  0.00     0.091 A 
ATOM     12  HN  UNL     1       5.193  -0.014  16.339  1.00  0.00     0.174 HD
HETATM   13  C   UNL     1       5.173   1.514  19.208  1.00  0.00     0.041 A 
ENDBRANCH   2   3
BRANCH   1  14
HETATM   14  C   UNL     1       8.593  -2.811  23.340  1.00  0.00    -0.043 C 
HETATM   15  C   UNL     1       7.794  -3.395  23.683  1.00  0.00     0.027 C 
BRANCH  15  16
HETATM   16  N   UNL     1       6.798  -4.127  23.859  1.00  0.00    -0.229 N 
ATOM     17  HN  UNL     1       6.566  -4.353  24.827  1.00  0.00     0.190 HD
BRANCH  16  18
HETATM   18  S   UNL     1       5.844  -4.748  22.735  1.00  0.00     0.327 S 
HETATM   19 CL   UNL     1       7.150  -5.788  21.735  1.00  0.00     0.042 Cl
HETATM   20  O   UNL     1       4.907  -5.694  23.265  1.00  0.00    -0.188 OA
HETATM   21  O   UNL     1       5.284  -3.771  21.854  1.00  0.00    -0.188 OA
ENDBRANCH  16  18
ENDBRANCH  15  16
ENDBRANCH   1  14
BRANCH   1  22
HETATM   22  C   UNL     1      10.823  -1.784  22.927  1.00  0.00     0.010 C 
HETATM   23  C   UNL     1      11.830  -1.114  23.282  1.00  0.00     0.013 C 
ENDBRANCH   1  22
TORSDOF 5
ENDMDL
MODEL 3
REMARK VINA RESULT:    -5.918      4.721      7.325
REMARK INTER + INTRA:          -8.579
REMARK INTER:                  -8.042
REMARK INTRA:                  -0.538
REMARK UNBOUND:                -0.931
REMARK  5 active torsions:
REMARK  status: ('A' for Active; 'I' for Inactive)
REMARK    1  A    between atoms: S_2  and  N_5 
REMARK    2  A    between atoms: N_5  and  C_7 
REMARK    3  A    between atoms: C_8  and  C_9 
REMARK    4  A    between atoms: C_9  and  C_11 
REMARK    5  A    between atoms: C_12  and  C_13 
REMARK       I    between atoms: C_13  and  N_15 
ROOT
HETATM    1  C   UNL     1       7.358  -4.738  24.229  1.00  0.00     0.024 C 
HETATM    2  C   UNL     1       8.244  -3.996  23.634  1.00  0.00     0.095 C 
ENDROOT
BRANCH   2   3
HETATM    3  C   UNL     1       8.490  -2.501  23.789  1.00  0.00     0.247 C 
HETATM    4  O   UNL     1       7.922  -1.764  23.047  1.00  0.00    -0.268 OA
HETATM    5  N   UNL     1       9.394  -2.064  24.733  1.00  0.00    -0.317 N 
HETATM    6  C   UNL     1       9.766  -0.848  24.723  1.00  0.00     0.087 A 
ATOM      7  HN  UNL     1       9.761  -2.710  25.432  1.00  0.00     0.169 HD
HETATM    8  S   UNL     1       8.705   0.492  25.046  1.00  0.00    -0.022 SA
HETATM    9  C   UNL     1      11.077  -0.410  24.434  1.00  0.00     0.041 A 
HETATM   10  N   UNL     1       9.102   2.173  25.099  1.00  0.00    -0.323 N 
HETATM   11  C   UNL     1       9.787   1.484  24.831  1.00  0.00     0.091 A 
ATOM     12  HN  UNL     1       8.837   3.143  25.273  1.00  0.00     0.174 HD
HETATM   13  C   UNL     1      10.939   0.796  24.471  1.00  0.00     0.041 A 
ENDBRANCH   2   3
BRANCH   1  14
HETATM   14  C   UNL     1       7.496  -5.019  25.555  1.00  0.00    -0.043 C 
HETATM   15  C   UNL     1       7.425  -5.354  26.544  1.00  0.00     0.027 C 
BRANCH  15  16
HETATM   16  N   UNL     1       7.517  -5.901  27.663  1.00  0.00    -0.229 N 
ATOM     17  HN  UNL     1       8.448  -6.215  27.939  1.00  0.00     0.190 HD
BRANCH  16  18
HETATM   18  S   UNL     1       6.336  -6.163  28.711  1.00  0.00     0.327 S 
HETATM   19 CL   UNL     1       4.822  -5.537  27.661  1.00  0.00     0.042 Cl
HETATM   20  O   UNL     1       6.106  -7.558  28.945  1.00  0.00    -0.188 OA
HETATM   21  O   UNL     1       6.426  -5.358  29.888  1.00  0.00    -0.188 OA
ENDBRANCH  16  18
ENDBRANCH  15  16
ENDBRANCH   1  14
BRANCH   1  22
HETATM   22  C   UNL     1       6.443  -5.125  23.301  1.00  0.00     0.010 C 
HETATM   23  C   UNL     1       6.271  -5.372  22.077  1.00  0.00     0.013 C 
ENDBRANCH   1  22
TORSDOF 5
ENDMDL
MODEL 4
REMARK VINA RESULT:    -5.873      2.985      4.350
REMARK INTER + INTRA:          -8.521
REMARK INTER:                  -7.756
REMARK INTRA:                  -0.765
REMARK UNBOUND:                -0.931
REMARK  5 active torsions:
REMARK  status: ('A' for Active; 'I' for Inactive)
REMARK    1  A    between atoms: S_2  and  N_5 
REMARK    2  A    between atoms: N_5  and  C_7 
REMARK    3  A    between atoms: C_8  and  C_9 
REMARK    4  A    between atoms: C_9  and  C_11 
REMARK    5  A    between atoms: C_12  and  C_13 
REMARK       I    between atoms: C_13  and  N_15 
ROOT
HETATM    1  C   UNL     1       9.415  -0.403  22.193  1.00  0.00     0.024 C 
HETATM    2  C   UNL     1       9.575  -1.654  22.506  1.00  0.00     0.095 C 
ENDROOT
BRANCH   2   3
HETATM    3  C   UNL     1       8.519  -2.671  22.924  1.00  0.00     0.247 C 
HETATM    4  O   UNL     1       8.446  -2.953  24.078  1.00  0.00    -0.268 OA
HETATM    5  N   UNL     1       7.737  -3.262  21.956  1.00  0.00    -0.317 N 
HETATM    6  C   UNL     1       7.013  -4.260  22.265  1.00  0.00     0.087 A 
ATOM      7  HN  UNL     1       7.740  -2.903  21.001  1.00  0.00     0.169 HD
HETATM    8  S   UNL     1       5.672  -4.178  23.370  1.00  0.00    -0.022 SA
HETATM    9  C   UNL     1       7.198  -5.572  21.776  1.00  0.00     0.041 A 
HETATM   10  N   UNL     1       4.597  -5.449  23.835  1.00  0.00    -0.323 N 
HETATM   11  C   UNL     1       5.389  -5.628  23.236  1.00  0.00     0.091 A 
ATOM     12  HN  UNL     1       3.773  -5.775  24.340  1.00  0.00     0.174 HD
HETATM   13  C   UNL     1       6.341  -6.178  22.388  1.00  0.00     0.041 A 
ENDBRANCH   2   3
BRANCH   1  14
HETATM   14  C   UNL     1       8.806  -0.074  21.020  1.00  0.00    -0.043 C 
HETATM   15  C   UNL     1       8.240  -0.014  20.141  1.00  0.00     0.027 C 
BRANCH  15  16
HETATM   16  N   UNL     1       7.428   0.208  19.219  1.00  0.00    -0.229 N 
ATOM     17  HN  UNL     1       7.725   0.870  18.502  1.00  0.00     0.190 HD
BRANCH  16  18
HETATM   18  S   UNL     1       5.973  -0.433  19.038  1.00  0.00     0.327 S 
HETATM   19 CL   UNL     1       4.877   1.115  19.471  1.00  0.00     0.042 Cl
HETATM   20  O   UNL     1       5.678  -0.758  17.674  1.00  0.00    -0.188 OA
HETATM   21  O   UNL     1       5.680  -1.465  19.983  1.00  0.00    -0.188 OA
ENDBRANCH  16  18
ENDBRANCH  15  16
ENDBRANCH   1  14
BRANCH   1  22
HETATM   22  C   UNL     1       9.978   0.349  23.175  1.00  0.00     0.010 C 
HETATM   23  C   UNL     1       9.874   1.423  23.828  1.00  0.00     0.013 C 
ENDBRANCH   1  22
TORSDOF 5
ENDMDL
MODEL 5
REMARK VINA RESULT:    -5.812      4.391      7.282
REMARK INTER + INTRA:          -8.442
REMARK INTER:                  -8.064
REMARK INTRA:                  -0.378
REMARK UNBOUND:                -0.931
REMARK  5 active torsions:
REMARK  status: ('A' for Active; 'I' for Inactive)
REMARK    1  A    between atoms: S_2  and  N_5 
REMARK    2  A    between atoms: N_5  and  C_7 
REMARK    3  A    between atoms: C_8  and  C_9 
REMARK    4  A    between atoms: C_9  and  C_11 
REMARK    5  A    between atoms: C_12  and  C_13 
REMARK       I    between atoms: C_13  and  N_15 
ROOT
HETATM    1  C   UNL     1       6.935  -4.891  24.137  1.00  0.00     0.024 C 
HETATM    2  C   UNL     1       7.996  -4.402  23.567  1.00  0.00     0.095 C 
ENDROOT
BRANCH   2   3
HETATM    3  C   UNL     1       8.617  -3.022  23.741  1.00  0.00     0.247 C 
HETATM    4  O   UNL     1       8.149  -2.302  24.565  1.00  0.00    -0.268 OA
HETATM    5  N   UNL     1       9.648  -2.640  22.911  1.00  0.00    -0.317 N 
HETATM    6  C   UNL     1      10.022  -1.425  22.902  1.00  0.00     0.087 A 
ATOM      7  HN  UNL     1      10.105  -3.325  22.309  1.00  0.00     0.169 HD
HETATM    8  S   UNL     1      10.757  -0.629  24.263  1.00  0.00    -0.022 SA
HETATM    9  C   UNL     1       9.884  -0.547  21.804  1.00  0.00     0.041 A 
HETATM   10  N   UNL     1      11.340   0.995  24.357  1.00  0.00    -0.323 N 
HETATM   11  C   UNL     1      10.865   0.659  23.534  1.00  0.00     0.091 A 
ATOM     12  HN  UNL     1      11.813   1.741  24.868  1.00  0.00     0.174 HD
HETATM   13  C   UNL     1      10.302   0.491  22.276  1.00  0.00     0.041 A 
ENDBRANCH   2   3
BRANCH   1  14
HETATM   14  C   UNL     1       6.967  -5.204  25.463  1.00  0.00    -0.043 C 
HETATM   15  C   UNL     1       7.098  -5.619  26.415  1.00  0.00     0.027 C 
BRANCH  15  16
HETATM   16  N   UNL     1       7.425  -5.949  27.574  1.00  0.00    -0.229 N 
ATOM     17  HN  UNL     1       8.425  -6.022  27.760  1.00  0.00     0.190 HD
BRANCH  16  18
HETATM   18  S   UNL     1       6.447  -6.268  28.800  1.00  0.00     0.327 S 
HETATM   19 CL   UNL     1       4.756  -6.391  27.846  1.00  0.00     0.042 Cl
HETATM   20  O   UNL     1       6.677  -7.564  29.366  1.00  0.00    -0.188 OA
HETATM   21  O   UNL     1       6.348  -5.202  29.747  1.00  0.00    -0.188 OA
ENDBRANCH  16  18
ENDBRANCH  15  16
ENDBRANCH   1  14
BRANCH   1  22
HETATM   22  C   UNL     1       5.973  -5.025  23.187  1.00  0.00     0.010 C 
HETATM   23  C   UNL     1       5.766  -5.286  21.971  1.00  0.00     0.013 C 
ENDBRANCH   1  22
TORSDOF 5
ENDMDL
MODEL 6
REMARK VINA RESULT:    -5.735      4.014      5.148
REMARK INTER + INTRA:          -8.343
REMARK INTER:                  -7.814
REMARK INTRA:                  -0.529
REMARK UNBOUND:                -0.931
REMARK  5 active torsions:
REMARK  status: ('A' for Active; 'I' for Inactive)
REMARK    1  A    between atoms: S_2  and  N_5 
REMARK    2  A    between atoms: N_5  and  C_7 
REMARK    3  A    between atoms: C_8  and  C_9 
REMARK    4  A    between atoms: C_9  and  C_11 
REMARK    5  A    between atoms: C_12  and  C_13 
REMARK       I    between atoms: C_13  and  N_15 
ROOT
HETATM    1  C   UNL     1       8.966   0.110  23.614  1.00  0.00     0.024 C 
HETATM    2  C   UNL     1       9.511  -1.066  23.722  1.00  0.00     0.095 C 
ENDROOT
BRANCH   2   3
HETATM    3  C   UNL     1       8.979  -2.296  24.446  1.00  0.00     0.247 C 
HETATM    4  O   UNL     1       8.924  -3.318  23.839  1.00  0.00    -0.268 OA
HETATM    5  N   UNL     1       8.532  -2.170  25.744  1.00  0.00    -0.317 N 
HETATM    6  C   UNL     1       7.891  -3.130  26.277  1.00  0.00     0.087 A 
ATOM      7  HN  UNL     1       8.713  -1.315  26.270  1.00  0.00     0.169 HD
HETATM    8  S   UNL     1       8.585  -4.689  26.614  1.00  0.00    -0.022 SA
HETATM    9  C   UNL     1       6.531  -3.079  26.655  1.00  0.00     0.041 A 
HETATM   10  N   UNL     1       7.830  -6.049  27.367  1.00  0.00    -0.323 N 
HETATM   11  C   UNL     1       7.307  -5.213  27.156  1.00  0.00     0.091 A 
ATOM     12  HN  UNL     1       7.878  -6.995  27.745  1.00  0.00     0.174 HD
HETATM   13  C   UNL     1       6.347  -4.216  27.038  1.00  0.00     0.041 A 
ENDBRANCH   2   3
BRANCH   1  14
HETATM   14  C   UNL     1       7.863   0.272  22.832  1.00  0.00    -0.043 C 
HETATM   15  C   UNL     1       7.068   0.606  22.239  1.00  0.00     0.027 C 
BRANCH  15  16
HETATM   16  N   UNL     1       6.249   0.921  21.351  1.00  0.00    -0.229 N 
ATOM     17  HN  UNL     1       5.541   1.610  21.608  1.00  0.00     0.190 HD
BRANCH  16  18
HETATM   18  S   UNL     1       6.187   0.364  19.851  1.00  0.00     0.327 S 
HETATM   19 CL   UNL     1       4.843   1.560  19.112  1.00  0.00     0.042 Cl
HETATM   20  O   UNL     1       7.391   0.619  19.118  1.00  0.00    -0.188 OA
HETATM   21  O   UNL     1       5.693  -0.974  19.758  1.00  0.00    -0.188 OA
ENDBRANCH  16  18
ENDBRANCH  15  16
ENDBRANCH   1  14
BRANCH   1  22
HETATM   22  C   UNL     1       9.713   0.985  24.338  1.00  0.00     0.010 C 
HETATM   23  C   UNL     1      10.677   1.795  24.284  1.00  0.00     0.013 C 
ENDBRANCH   1  22
TORSDOF 5
ENDMDL
MODEL 7
REMARK VINA RESULT:    -5.547     14.947     16.663
REMARK INTER + INTRA:          -8.100
REMARK INTER:                  -7.536
REMARK INTRA:                  -0.563
REMARK UNBOUND:                -0.931
REMARK  5 active torsions:
REMARK  status: ('A' for Active; 'I' for Inactive)
REMARK    1  A    between atoms: S_2  and  N_5 
REMARK    2  A    between atoms: N_5  and  C_7 
REMARK    3  A    between atoms: C_8  and  C_9 
REMARK    4  A    between atoms: C_9  and  C_11 
REMARK    5  A    between atoms: C_12  and  C_13 
REMARK       I    between atoms: C_13  and  N_15 
ROOT
HETATM    1  C   UNL     1      24.076  -2.623  19.506  1.00  0.00     0.024 C 
HETATM    2  C   UNL     1      24.220  -1.879  20.562  1.00  0.00     0.095 C 
ENDROOT
BRANCH   2   3
HETATM    3  C   UNL     1      23.265  -1.699  21.735  1.00  0.00     0.247 C 
HETATM    4  O   UNL     1      22.103  -1.867  21.535  1.00  0.00    -0.268 OA
HETATM    5  N   UNL     1      23.766  -1.297  22.954  1.00  0.00    -0.317 N 
HETATM    6  C   UNL     1      22.960  -0.937  23.869  1.00  0.00     0.087 A 
ATOM      7  HN  UNL     1      24.772  -1.289  23.120  1.00  0.00     0.169 HD
HETATM    8  S   UNL     1      21.821  -2.006  24.634  1.00  0.00    -0.022 SA
HETATM    9  C   UNL     1      22.861   0.375  24.384  1.00  0.00     0.041 A 
HETATM   10  N   UNL     1      20.711  -1.643  25.908  1.00  0.00    -0.323 N 
HETATM   11  C   UNL     1      21.280  -0.922  25.490  1.00  0.00     0.091 A 
ATOM     12  HN  UNL     1      20.005  -1.939  26.582  1.00  0.00     0.174 HD
HETATM   13  C   UNL     1      21.935   0.257  25.161  1.00  0.00     0.041 A 
ENDBRANCH   2   3
BRANCH   1  14
HETATM   14  C   UNL     1      24.152  -3.978  19.622  1.00  0.00    -0.043 C 
HETATM   15  C   UNL     1      24.315  -4.976  19.895  1.00  0.00     0.027 C 
BRANCH  15  16
HETATM   16  N   UNL     1      24.280  -6.162  20.283  1.00  0.00    -0.229 N 
ATOM     17  HN  UNL     1      23.487  -6.720  19.966  1.00  0.00     0.190 HD
BRANCH  16  18
HETATM   18  S   UNL     1      25.342  -6.902  21.225  1.00  0.00     0.327 S 
HETATM   19 CL   UNL     1      25.004  -8.748  20.712  1.00  0.00     0.042 Cl
HETATM   20  O   UNL     1      26.697  -6.628  20.850  1.00  0.00    -0.188 OA
HETATM   21  O   UNL     1      25.061  -6.768  22.620  1.00  0.00    -0.188 OA
ENDBRANCH  16  18
ENDBRANCH  15  16
ENDBRANCH   1  14
BRANCH   1  22
HETATM   22  C   UNL     1      23.910  -1.803  18.436  1.00  0.00     0.010 C 
HETATM   23  C   UNL     1      23.253  -0.823  17.991  1.00  0.00     0.013 C 
ENDBRANCH   1  22
TORSDOF 5
ENDMDL
MODEL 8
REMARK VINA RESULT:    -5.424     24.254     26.518
REMARK INTER + INTRA:          -7.940
REMARK INTER:                  -7.377
REMARK INTRA:                  -0.563
REMARK UNBOUND:                -0.931
REMARK  5 active torsions:
REMARK  status: ('A' for Active; 'I' for Inactive)
REMARK    1  A    between atoms: S_2  and  N_5 
REMARK    2  A    between atoms: N_5  and  C_7 
REMARK    3  A    between atoms: C_8  and  C_9 
REMARK    4  A    between atoms: C_9  and  C_11 
REMARK    5  A    between atoms: C_12  and  C_13 
REMARK       I    between atoms: C_13  and  N_15 
ROOT
HETATM    1  C   UNL     1       8.456  18.117   1.677  1.00  0.00     0.024 C 
HETATM    2  C   UNL     1       7.544  17.215   1.885  1.00  0.00     0.095 C 
ENDROOT
BRANCH   2   3
HETATM    3  C   UNL     1       7.721  15.717   2.096  1.00  0.00     0.247 C 
HETATM    4  O   UNL     1       8.598  15.172   1.503  1.00  0.00    -0.268 OA
HETATM    5  N   UNL     1       6.837  15.044   2.911  1.00  0.00    -0.317 N 
HETATM    6  C   UNL     1       6.843  13.773   2.921  1.00  0.00     0.087 A 
ATOM      7  HN  UNL     1       6.184  15.561   3.500  1.00  0.00     0.169 HD
HETATM    8  S   UNL     1       8.177  12.816   3.495  1.00  0.00    -0.022 SA
HETATM    9  C   UNL     1       5.786  12.959   2.458  1.00  0.00     0.041 A 
HETATM   10  N   UNL     1       8.285  11.094   3.594  1.00  0.00    -0.323 N 
HETATM   11  C   UNL     1       7.485  11.543   3.177  1.00  0.00     0.091 A 
ATOM     12  HN  UNL     1       8.787  10.249   3.871  1.00  0.00     0.174 HD
HETATM   13  C   UNL     1       6.262  11.850   2.595  1.00  0.00     0.041 A 
ENDBRANCH   2   3
BRANCH   1  14
HETATM   14  C   UNL     1       9.288  18.480   2.693  1.00  0.00    -0.043 C 
HETATM   15  C   UNL     1       9.782  18.659   3.598  1.00  0.00     0.027 C 
BRANCH  15  16
HETATM   16  N   UNL     1      10.516  18.696   4.608  1.00  0.00    -0.229 N 
ATOM     17  HN  UNL     1      10.125  18.310   5.468  1.00  0.00     0.190 HD
BRANCH  16  18
HETATM   18  S   UNL     1      12.001  19.284   4.702  1.00  0.00     0.327 S 
HETATM   19 CL   UNL     1      11.674  21.102   4.094  1.00  0.00     0.042 Cl
HETATM   20  O   UNL     1      12.467  19.396   6.052  1.00  0.00    -0.188 OA
HETATM   21  O   UNL     1      12.919  18.669   3.794  1.00  0.00    -0.188 OA
ENDBRANCH  16  18
ENDBRANCH  15  16
ENDBRANCH   1  14
BRANCH   1  22
HETATM   22  C   UNL     1       8.329  18.554   0.397  1.00  0.00     0.010 C 
HETATM   23  C   UNL     1       8.212  19.580  -0.327  1.00  0.00     0.013 C 
ENDBRANCH   1  22
TORSDOF 5
ENDMDL
MODEL 9
REMARK VINA RESULT:    -5.293     26.124     27.926
REMARK INTER + INTRA:          -7.771
REMARK INTER:                  -7.222
REMARK INTRA:                  -0.549
REMARK UNBOUND:                -0.931
REMARK  5 active torsions:
REMARK  status: ('A' for Active; 'I' for Inactive)
REMARK    1  A    between atoms: S_2  and  N_5 
REMARK    2  A    between atoms: N_5  and  C_7 
REMARK    3  A    between atoms: C_8  and  C_9 
REMARK    4  A    between atoms: C_9  and  C_11 
REMARK    5  A    between atoms: C_12  and  C_13 
REMARK       I    between atoms: C_13  and  N_15 
ROOT
HETATM    1  C   UNL     1       8.784  17.996   0.857  1.00  0.00     0.024 C 
HETATM    2  C   UNL     1       9.801  18.774   1.079  1.00  0.00     0.095 C 
ENDROOT
BRANCH   2   3
HETATM    3  C   UNL     1      10.201  19.467   2.376  1.00  0.00     0.247 C 
HETATM    4  O   UNL     1      10.076  20.650   2.434  1.00  0.00    -0.268 OA
HETATM    5  N   UNL     1      10.740  18.719   3.399  1.00  0.00    -0.317 N 
HETATM    6  C   UNL     1      11.273  19.311   4.389  1.00  0.00     0.087 A 
ATOM      7  HN  UNL     1      10.711  17.700   3.362  1.00  0.00     0.169 HD
HETATM    8  S   UNL     1      10.392  20.305   5.513  1.00  0.00    -0.022 SA
HETATM    9  C   UNL     1      12.648  19.265   4.711  1.00  0.00     0.041 A 
HETATM   10  N   UNL     1      10.996  21.123   6.910  1.00  0.00    -0.323 N 
HETATM   11  C   UNL     1      11.615  20.629   6.287  1.00  0.00     0.091 A 
ATOM     12  HN  UNL     1      10.840  21.687   7.746  1.00  0.00     0.174 HD
HETATM   13  C   UNL     1      12.695  20.018   5.663  1.00  0.00     0.041 A 
ENDBRANCH   2   3
BRANCH   1  14
HETATM   14  C   UNL     1       8.763  16.744   1.394  1.00  0.00    -0.043 C 
HETATM   15  C   UNL     1       8.770  15.718   1.602  1.00  0.00     0.027 C 
BRANCH  15  16
HETATM   16  N   UNL     1       9.002  14.534   1.922  1.00  0.00    -0.229 N 
ATOM     17  HN  UNL     1       9.598  14.000   1.288  1.00  0.00     0.190 HD
BRANCH  16  18
HETATM   18  S   UNL     1       8.467  13.760   3.217  1.00  0.00     0.327 S 
HETATM   19 CL   UNL     1       7.157  12.589   2.381  1.00  0.00     0.042 Cl
HETATM   20  O   UNL     1       9.456  12.899   3.794  1.00  0.00    -0.188 OA
HETATM   21  O   UNL     1       7.782  14.603   4.146  1.00  0.00    -0.188 OA
ENDBRANCH  16  18
ENDBRANCH  15  16
ENDBRANCH   1  14
BRANCH   1  22
HETATM   22  C   UNL     1       7.923  18.655   0.038  1.00  0.00     0.010 C 
HETATM   23  C   UNL     1       7.478  19.792  -0.275  1.00  0.00     0.013 C 
ENDBRANCH   1  22
TORSDOF 5
ENDMDL
