REMARK  4 active torsions:
REMARK  status: ('A' for Active; 'I' for Inactive)
REMARK    1  A    between atoms: S_2  and  N_5 
REMARK    2  A    between atoms: N_5  and  C_7 
REMARK    3  A    between atoms: C_15  and  C_16 
REMARK       I    between atoms: C_16  and  N_18 
REMARK    4  A    between atoms: N_18  and  C_20 
ROOT
HETATM    1  C   UNL     1       8.975  -2.921  24.148  1.00  0.00     0.109 C 
HETATM    2  C   UNL     1       9.418  -1.937  23.489  1.00  0.00    -0.008 A 
HETATM    3  C   UNL     1      10.316  -1.092  23.284  1.00  0.00     0.058 A 
HETATM    4  C   UNL     1      11.033   0.001  24.284  1.00  0.00    -0.003 C 
HETATM    5  C   UNL     1      12.075   0.291  24.251  1.00  0.00    -0.002 C 
HETATM    6  C   UNL     1      13.155  -0.223  23.417  1.00  0.00    -0.001 C 
HETATM    7  C   UNL     1      12.742  -1.249  22.661  1.00  0.00    -0.002 C 
HETATM    8  C   UNL     1      11.798  -1.754  22.515  1.00  0.00    -0.003 C 
HETATM    9  C   UNL     1       9.723  -0.587  22.359  1.00  0.00     0.040 A 
ENDROOT
BRANCH   9  10
HETATM   10  C   UNL     1       9.057   0.059  21.375  1.00  0.00     0.254 C 
HETATM   11  O   UNL     1       9.549   1.010  20.965  1.00  0.00    -0.268 OA
HETATM   12  N   UNL     1       7.939  -0.570  21.067  1.00  0.00    -0.321 N 
ATOM     13  HN  UNL     1       7.688  -1.432  21.552  1.00  0.00     0.169 HD
BRANCH  12  14
HETATM   14  C   UNL     1       7.169  -0.099  20.160  1.00  0.00     0.056 A 
HETATM   15  C   UNL     1       7.235  -0.032  18.816  1.00  0.00     0.117 A 
HETATM   16  N   UNL     1       6.777   0.317  17.778  1.00  0.00    -0.373 N 
HETATM   17  C   UNL     1       5.631   0.885  18.242  1.00  0.00     0.088 A 
ATOM     18  HN  UNL     1       7.134   0.220  16.827  1.00  0.00     0.164 HD
HETATM   19  C   UNL     1       5.242   0.963  19.432  1.00  0.00     0.026 A 
HETATM   20  C   UNL     1       5.824   0.550  20.547  1.00  0.00    -0.033 A 
HETATM   21  C   UNL     1       5.343   0.693  22.030  1.00  0.00     0.050 C 
ENDBRANCH  12  14
ENDBRANCH   9  10
BRANCH   1  22
HETATM   22  N   UNL     1       8.121  -3.587  24.670  1.00  0.00    -0.295 N 
ATOM     23  HN  UNL     1       7.252  -3.713  24.151  1.00  0.00     0.177 HD
BRANCH  22  24
HETATM   24  S   UNL     1       8.220  -4.296  26.107  1.00  0.00     0.226 S 
HETATM   25  C   UNL     1       6.601  -4.839  26.437  1.00  0.00     0.186 C 
HETATM   26  O   UNL     1       9.044  -5.481  26.099  1.00  0.00    -0.206 OA
HETATM   27  O   UNL     1       8.598  -3.393  27.163  1.00  0.00    -0.206 OA
ENDBRANCH  22  24
ENDBRANCH   1  22
TORSDOF 4
