stable:False satoms:7 tatoms:24 sratio:0.2916666666666667
  -OEChem-07092417503D

 24 26  0     1  0  0  0  0  0999 V2000
    6.6008   -4.8392   26.4370 C   0  0  0  0  0  0  0  0  0  0  0  0
    8.2204   -4.2961   26.1067 S   0  0  0  0  0  0  0  0  0  0  0  0
    9.0440   -5.4812   26.0995 O   0  0  0  0  0  0  0  0  0  0  0  0
    8.5978   -3.3931   27.1631 O   0  0  0  0  0  0  0  0  0  0  0  0
    8.1209   -3.5872   24.6704 N   0  0  0  0  0  0  0  0  0  0  0  0
    8.9754   -2.9212   24.1485 C   0  0  0  0  0  0  0  0  0  0  0  0
    9.4175   -1.9368   23.4891 C   0  0  0  0  0  0  0  0  0  0  0  0
   10.3156   -1.0921   23.2842 C   0  0  1  0  0  0  0  0  0  0  0  0
   11.0331    0.0009   24.2835 C   0  0  0  0  0  0  0  0  0  0  0  0
   12.0755    0.2915   24.2514 C   0  0  0  0  0  0  0  0  0  0  0  0
   13.1546   -0.2234   23.4167 C   0  0  0  0  0  0  0  0  0  0  0  0
   12.7425   -1.2493   22.6606 C   0  0  0  0  0  0  0  0  0  0  0  0
   11.7977   -1.7539   22.5149 C   0  0  0  0  0  0  0  0  0  0  0  0
    9.7225   -0.5868   22.3591 C   0  0  2  0  0  0  0  0  0  0  0  0
    9.0568    0.0592   21.3747 C   0  0  0  0  0  0  0  0  0  0  0  0
    9.5490    1.0103   20.9651 O   0  0  0  0  0  0  0  0  0  0  0  0
    7.9385   -0.5698   21.0671 N   0  0  0  0  0  0  0  0  0  0  0  0
    7.1689   -0.0989   20.1604 C   0  0  0  0  0  0  0  0  0  0  0  0
    7.2350   -0.0320   18.8161 C   0  0  0  0  0  0  0  0  0  0  0  0
    6.7771    0.3171   17.7778 N   0  0  0  0  0  0  0  0  0  0  0  0
    5.6312    0.8855   18.2417 C   0  0  0  0  0  0  0  0  0  0  0  0
    5.2423    0.9634   19.4318 C   0  0  0  0  0  0  0  0  0  0  0  0
    5.8244    0.5499   20.5474 C   0  0  0  0  0  0  0  0  0  0  0  0
    5.3428    0.6930   22.0300 C   0  0  0  0  0  0  0  0  0  0  0  0
 20 21  2  0  0  0  0
 19 20  1  0  0  0  0
 21 22  1  0  0  0  0
 18 19  2  0  0  0  0
 22 23  2  0  0  0  0
 18 23  1  0  0  0  0
 17 18  1  0  0  0  0
 23 24  1  0  0  0  0
 15 16  2  0  0  0  0
 15 17  1  0  0  0  0
 14 15  1  0  0  0  0
  8 14  1  0  0  0  0
  7 14  1  0  0  0  0
 12 13  1  0  0  0  0
  8 13  1  0  0  0  0
 11 12  2  0  0  0  0
  7  8  1  0  0  0  0
  8  9  1  0  0  0  0
 10 11  1  0  0  0  0
  6  7  2  3  0  0  0
  5  6  1  0  0  0  0
  9 10  2  0  0  0  0
  2  5  1  0  0  0  0
  2  3  2  0  0  0  0
  1  2  1  0  0  0  0
  2  4  2  0  0  0  0
M  END
> <Shapegauss>
-285.480011

$$$$
