MODEL 1
REMARK VINA RESULT:    -7.965      0.000      0.000
REMARK INTER + INTRA:         -10.728
REMARK INTER:                  -9.827
REMARK INTRA:                  -0.900
REMARK UNBOUND:                -0.900
REMARK  4 active torsions:
REMARK  status: ('A' for Active; 'I' for Inactive)
REMARK    1  A    between atoms: S_2  and  N_5 
REMARK    2  A    between atoms: N_5  and  C_7 
REMARK    3  A    between atoms: C_15  and  C_16 
REMARK       I    between atoms: C_16  and  N_18 
REMARK    4  A    between atoms: N_18  and  C_20 
ROOT
HETATM    1  C   UNL     1       8.858   0.797  22.085  1.00  0.00     0.109 C 
HETATM    2  C   UNL     1       9.333  -0.022  22.922  1.00  0.00    -0.008 A 
HETATM    3  C   UNL     1      10.318  -0.617  23.411  1.00  0.00     0.058 A 
HETATM    4  C   UNL     1      11.484  -1.547  22.716  1.00  0.00    -0.003 C 
HETATM    5  C   UNL     1      12.523  -1.577  23.015  1.00  0.00    -0.002 C 
HETATM    6  C   UNL     1      13.222  -0.783  24.019  1.00  0.00    -0.001 C 
HETATM    7  C   UNL     1      12.418   0.146  24.554  1.00  0.00    -0.002 C 
HETATM    8  C   UNL     1      11.379   0.415  24.429  1.00  0.00    -0.003 C 
HETATM    9  C   UNL     1       9.643  -1.209  24.221  1.00  0.00     0.040 A 
ENDROOT
BRANCH   9  10
HETATM   10  C   UNL     1       8.917  -1.954  25.086  1.00  0.00     0.254 C 
HETATM   11  O   UNL     1       8.618  -1.446  26.069  1.00  0.00    -0.268 OA
HETATM   12  N   UNL     1       8.681  -3.155  24.595  1.00  0.00    -0.321 N 
ATOM     13  HN  UNL     1       9.031  -3.407  23.670  1.00  0.00     0.169 HD
BRANCH  12  14
HETATM   14  C   UNL     1       8.014  -4.006  25.279  1.00  0.00     0.056 A 
HETATM   15  C   UNL     1       8.332  -4.887  26.247  1.00  0.00     0.117 A 
HETATM   16  N   UNL     1       8.017  -5.752  26.997  1.00  0.00    -0.373 N 
HETATM   17  C   UNL     1       6.690  -5.804  26.703  1.00  0.00     0.088 A 
ATOM     18  HN  UNL     1       8.574  -6.292  27.660  1.00  0.00     0.164 HD
HETATM   19  C   UNL     1       6.060  -5.100  25.878  1.00  0.00     0.026 A 
HETATM   20  C   UNL     1       6.493  -4.149  25.064  1.00  0.00    -0.033 A 
HETATM   21  C   UNL     1       5.699  -3.308  24.009  1.00  0.00     0.050 C 
ENDBRANCH  12  14
ENDBRANCH   9  10
BRANCH   1  22
HETATM   22  N   UNL     1       8.032   1.215  21.317  1.00  0.00    -0.295 N 
ATOM     23  HN  UNL     1       7.850   2.218  21.336  1.00  0.00     0.177 HD
BRANCH  22  24
HETATM   24  S   UNL     1       7.190   0.342  20.265  1.00  0.00     0.226 S 
HETATM   25  C   UNL     1       5.753   1.278  19.974  1.00  0.00     0.186 C 
HETATM   26  O   UNL     1       7.845   0.209  18.986  1.00  0.00    -0.206 OA
HETATM   27  O   UNL     1       6.777  -0.935  20.786  1.00  0.00    -0.206 OA
ENDBRANCH  22  24
ENDBRANCH   1  22
TORSDOF 4
ENDMDL
MODEL 2
REMARK VINA RESULT:    -7.888      2.225      5.489
REMARK INTER + INTRA:         -10.633
REMARK INTER:                 -10.042
REMARK INTRA:                  -0.591
REMARK UNBOUND:                -0.900
REMARK  4 active torsions:
REMARK  status: ('A' for Active; 'I' for Inactive)
REMARK    1  A    between atoms: S_2  and  N_5 
REMARK    2  A    between atoms: N_5  and  C_7 
REMARK    3  A    between atoms: C_15  and  C_16 
REMARK       I    between atoms: C_16  and  N_18 
REMARK    4  A    between atoms: N_18  and  C_20 
ROOT
HETATM    1  C   UNL     1       6.004  -1.589  20.903  1.00  0.00     0.109 C 
HETATM    2  C   UNL     1       6.599  -2.255  21.798  1.00  0.00    -0.008 A 
HETATM    3  C   UNL     1       6.637  -3.246  22.559  1.00  0.00     0.058 A 
HETATM    4  C   UNL     1       5.565  -3.806  23.675  1.00  0.00    -0.003 C 
HETATM    5  C   UNL     1       5.369  -4.848  23.888  1.00  0.00    -0.002 C 
HETATM    6  C   UNL     1       5.893  -6.042  23.235  1.00  0.00    -0.001 C 
HETATM    7  C   UNL     1       6.661  -5.727  22.184  1.00  0.00    -0.002 C 
HETATM    8  C   UNL     1       6.995  -4.802  21.736  1.00  0.00    -0.003 C 
HETATM    9  C   UNL     1       7.705  -2.927  23.030  1.00  0.00     0.040 A 
ENDROOT
BRANCH   9  10
HETATM   10  C   UNL     1       8.855  -2.563  23.641  1.00  0.00     0.254 C 
HETATM   11  O   UNL     1       9.014  -2.958  24.706  1.00  0.00    -0.268 OA
HETATM   12  N   UNL     1       9.595  -1.810  22.850  1.00  0.00    -0.321 N 
ATOM     13  HN  UNL     1       9.270  -1.585  21.909  1.00  0.00     0.169 HD
BRANCH  12  14
HETATM   14  C   UNL     1      10.720  -1.361  23.263  1.00  0.00     0.056 A 
HETATM   15  C   UNL     1      12.002  -1.731  23.077  1.00  0.00     0.117 A 
HETATM   16  N   UNL     1      13.159  -1.586  23.301  1.00  0.00    -0.373 N 
HETATM   17  C   UNL     1      13.075  -0.496  24.110  1.00  0.00     0.088 A 
ATOM     18  HN  UNL     1      13.969  -2.117  22.982  1.00  0.00     0.164 HD
HETATM   19  C   UNL     1      12.040   0.122  24.458  1.00  0.00     0.026 A 
HETATM   20  C   UNL     1      10.770  -0.112  24.168  1.00  0.00    -0.033 A 
HETATM   21  C   UNL     1       9.486   0.645  24.645  1.00  0.00     0.050 C 
ENDBRANCH  12  14
ENDBRANCH   9  10
BRANCH   1  22
HETATM   22  N   UNL     1       5.658  -0.583  20.342  1.00  0.00    -0.295 N 
ATOM     23  HN  UNL     1       4.937  -0.025  20.797  1.00  0.00     0.177 HD
BRANCH  22  24
HETATM   24  S   UNL     1       6.226  -0.037  18.942  1.00  0.00     0.226 S 
HETATM   25  C   UNL     1       5.371   1.454  18.678  1.00  0.00     0.186 C 
HETATM   26  O   UNL     1       7.626   0.310  18.995  1.00  0.00    -0.206 OA
HETATM   27  O   UNL     1       5.935  -0.907  17.832  1.00  0.00    -0.206 OA
ENDBRANCH  22  24
ENDBRANCH   1  22
TORSDOF 4
ENDMDL
MODEL 3
REMARK VINA RESULT:    -7.800      2.562      5.917
REMARK INTER + INTRA:         -10.524
REMARK INTER:                  -9.835
REMARK INTRA:                  -0.689
REMARK UNBOUND:                -0.900
REMARK  4 active torsions:
REMARK  status: ('A' for Active; 'I' for Inactive)
REMARK    1  A    between atoms: S_2  and  N_5 
REMARK    2  A    between atoms: N_5  and  C_7 
REMARK    3  A    between atoms: C_15  and  C_16 
REMARK       I    between atoms: C_16  and  N_18 
REMARK    4  A    between atoms: N_18  and  C_20 
ROOT
HETATM    1  C   UNL     1       8.599  -3.521  23.825  1.00  0.00     0.109 C 
HETATM    2  C   UNL     1       8.918  -2.392  23.354  1.00  0.00    -0.008 A 
HETATM    3  C   UNL     1       9.580  -1.335  23.441  1.00  0.00     0.058 A 
HETATM    4  C   UNL     1       9.698  -0.218  24.643  1.00  0.00    -0.003 C 
HETATM    5  C   UNL     1      10.597   0.321  24.912  1.00  0.00    -0.002 C 
HETATM    6  C   UNL     1      11.952   0.183  24.391  1.00  0.00    -0.001 C 
HETATM    7  C   UNL     1      12.036  -0.822  23.510  1.00  0.00    -0.002 C 
HETATM    8  C   UNL     1      11.331  -1.524  23.087  1.00  0.00    -0.003 C 
HETATM    9  C   UNL     1       9.133  -0.892  22.408  1.00  0.00     0.040 A 
ENDROOT
BRANCH   9  10
HETATM   10  C   UNL     1       8.596  -0.324  21.305  1.00  0.00     0.254 C 
HETATM   11  O   UNL     1       9.304   0.308  20.660  1.00  0.00    -0.268 OA
HETATM   12  N   UNL     1       7.320  -0.636  21.184  1.00  0.00    -0.321 N 
ATOM     13  HN  UNL     1       6.875  -1.241  21.874  1.00  0.00     0.169 HD
BRANCH  12  14
HETATM   14  C   UNL     1       6.640  -0.180  20.200  1.00  0.00     0.056 A 
HETATM   15  C   UNL     1       6.309  -0.661  18.986  1.00  0.00     0.117 A 
HETATM   16  N   UNL     1       5.784  -0.521  17.931  1.00  0.00    -0.373 N 
HETATM   17  C   UNL     1       5.270   0.724  18.122  1.00  0.00     0.088 A 
ATOM     18  HN  UNL     1       5.732  -1.146  17.126  1.00  0.00     0.164 HD
HETATM   19  C   UNL     1       5.360   1.441  19.148  1.00  0.00     0.026 A 
HETATM   20  C   UNL     1       5.980   1.211  20.295  1.00  0.00    -0.033 A 
HETATM   21  C   UNL     1       6.118   2.135  21.551  1.00  0.00     0.050 C 
ENDBRANCH  12  14
ENDBRANCH   9  10
BRANCH   1  22
HETATM   22  N   UNL     1       7.849  -4.430  24.062  1.00  0.00    -0.295 N 
ATOM     23  HN  UNL     1       7.965  -4.903  24.958  1.00  0.00     0.177 HD
BRANCH  22  24
HETATM   24  S   UNL     1       6.682  -4.970  23.101  1.00  0.00     0.226 S 
HETATM   25  C   UNL     1       5.663  -3.586  22.834  1.00  0.00     0.186 C 
HETATM   26  O   UNL     1       7.159  -5.370  21.799  1.00  0.00    -0.206 OA
HETATM   27  O   UNL     1       5.871  -5.994  23.707  1.00  0.00    -0.206 OA
ENDBRANCH  22  24
ENDBRANCH   1  22
TORSDOF 4
ENDMDL
MODEL 4
REMARK VINA RESULT:    -7.373      3.495      7.547
REMARK INTER + INTRA:          -9.997
REMARK INTER:                  -9.183
REMARK INTRA:                  -0.814
REMARK UNBOUND:                -0.900
REMARK  4 active torsions:
REMARK  status: ('A' for Active; 'I' for Inactive)
REMARK    1  A    between atoms: S_2  and  N_5 
REMARK    2  A    between atoms: N_5  and  C_7 
REMARK    3  A    between atoms: C_15  and  C_16 
REMARK       I    between atoms: C_16  and  N_18 
REMARK    4  A    between atoms: N_18  and  C_20 
ROOT
HETATM    1  C   UNL     1       7.053  -5.646  26.684  1.00  0.00     0.109 C 
HETATM    2  C   UNL     1       7.104  -4.894  25.668  1.00  0.00    -0.008 A 
HETATM    3  C   UNL     1       6.968  -4.735  24.436  1.00  0.00     0.058 A 
HETATM    4  C   UNL     1       7.623  -5.534  23.154  1.00  0.00    -0.003 C 
HETATM    5  C   UNL     1       7.117  -5.740  22.220  1.00  0.00    -0.002 C 
HETATM    6  C   UNL     1       5.737  -5.474  21.834  1.00  0.00    -0.001 C 
HETATM    7  C   UNL     1       5.032  -4.970  22.855  1.00  0.00    -0.002 C 
HETATM    8  C   UNL     1       5.262  -4.696  23.875  1.00  0.00    -0.003 C 
HETATM    9  C   UNL     1       7.272  -3.566  24.485  1.00  0.00     0.040 A 
ENDROOT
BRANCH   9  10
HETATM   10  C   UNL     1       7.687  -2.279  24.484  1.00  0.00     0.254 C 
HETATM   11  O   UNL     1       6.904  -1.489  24.762  1.00  0.00    -0.268 OA
HETATM   12  N   UNL     1       8.964  -2.192  24.163  1.00  0.00    -0.321 N 
ATOM     13  HN  UNL     1       9.499  -3.039  23.964  1.00  0.00     0.169 HD
BRANCH  12  14
HETATM   14  C   UNL     1       9.532  -1.048  24.101  1.00  0.00     0.056 A 
HETATM   15  C   UNL     1      10.206  -0.286  24.985  1.00  0.00     0.117 A 
HETATM   16  N   UNL     1      10.776   0.719  25.254  1.00  0.00    -0.373 N 
HETATM   17  C   UNL     1      10.697   1.330  24.041  1.00  0.00     0.088 A 
ATOM     18  HN  UNL     1      11.198   1.031  26.130  1.00  0.00     0.164 HD
HETATM   19  C   UNL     1      10.171   0.885  22.993  1.00  0.00     0.026 A 
HETATM   20  C   UNL     1       9.539  -0.258  22.776  1.00  0.00    -0.033 A 
HETATM   21  C   UNL     1       8.850  -0.779  21.470  1.00  0.00     0.050 C 
ENDBRANCH  12  14
ENDBRANCH   9  10
BRANCH   1  22
HETATM   22  N   UNL     1       7.410  -6.051  27.758  1.00  0.00    -0.295 N 
ATOM     23  HN  UNL     1       8.412  -6.182  27.892  1.00  0.00     0.177 HD
BRANCH  22  24
HETATM   24  S   UNL     1       6.456  -6.406  29.000  1.00  0.00     0.226 S 
HETATM   25  C   UNL     1       4.877  -6.594  28.296  1.00  0.00     0.186 C 
HETATM   26  O   UNL     1       6.772  -7.674  29.613  1.00  0.00    -0.206 OA
HETATM   27  O   UNL     1       6.374  -5.350  29.975  1.00  0.00    -0.206 OA
ENDBRANCH  22  24
ENDBRANCH   1  22
TORSDOF 4
ENDMDL
MODEL 5
REMARK VINA RESULT:    -6.967      2.154      2.413
REMARK INTER + INTRA:          -9.497
REMARK INTER:                  -8.808
REMARK INTRA:                  -0.689
REMARK UNBOUND:                -0.900
REMARK  4 active torsions:
REMARK  status: ('A' for Active; 'I' for Inactive)
REMARK    1  A    between atoms: S_2  and  N_5 
REMARK    2  A    between atoms: N_5  and  C_7 
REMARK    3  A    between atoms: C_15  and  C_16 
REMARK       I    between atoms: C_16  and  N_18 
REMARK    4  A    between atoms: N_18  and  C_20 
ROOT
HETATM    1  C   UNL     1       8.148  -0.133  20.606  1.00  0.00     0.109 C 
HETATM    2  C   UNL     1       8.510  -0.856  21.579  1.00  0.00    -0.008 A 
HETATM    3  C   UNL     1       9.351  -1.139  22.459  1.00  0.00     0.058 A 
HETATM    4  C   UNL     1      10.957  -1.483  22.361  1.00  0.00    -0.003 C 
HETATM    5  C   UNL     1      11.705  -1.195  23.088  1.00  0.00    -0.002 C 
HETATM    6  C   UNL     1      11.567  -0.375  24.286  1.00  0.00    -0.001 C 
HETATM    7  C   UNL     1      10.327   0.118  24.400  1.00  0.00    -0.002 C 
HETATM    8  C   UNL     1       9.416   0.024  23.826  1.00  0.00    -0.003 C 
HETATM    9  C   UNL     1       8.686  -2.049  22.897  1.00  0.00     0.040 A 
ENDROOT
BRANCH   9  10
HETATM   10  C   UNL     1       8.013  -3.126  23.364  1.00  0.00     0.254 C 
HETATM   11  O   UNL     1       8.567  -3.784  24.122  1.00  0.00    -0.268 OA
HETATM   12  N   UNL     1       6.805  -3.193  22.840  1.00  0.00    -0.321 N 
ATOM     13  HN  UNL     1       6.493  -2.479  22.181  1.00  0.00     0.169 HD
BRANCH  12  14
HETATM   14  C   UNL     1       6.023  -4.155  23.158  1.00  0.00     0.056 A 
HETATM   15  C   UNL     1       5.874  -5.423  22.728  1.00  0.00     0.117 A 
HETATM   16  N   UNL     1       5.304  -6.464  22.766  1.00  0.00    -0.373 N 
HETATM   17  C   UNL     1       4.412  -6.171  23.751  1.00  0.00     0.088 A 
ATOM     18  HN  UNL     1       5.441  -7.318  22.225  1.00  0.00     0.164 HD
HETATM   19  C   UNL     1       4.300  -5.097  24.389  1.00  0.00     0.026 A 
HETATM   20  C   UNL     1       4.979  -3.966  24.278  1.00  0.00    -0.033 A 
HETATM   21  C   UNL     1       4.799  -2.619  25.055  1.00  0.00     0.050 C 
ENDBRANCH  12  14
ENDBRANCH   9  10
BRANCH   1  22
HETATM   22  N   UNL     1       7.621   0.086  19.548  1.00  0.00    -0.295 N 
ATOM     23  HN  UNL     1       8.198   0.516  18.825  1.00  0.00     0.177 HD
BRANCH  22  24
HETATM   24  S   UNL     1       6.095  -0.235  19.167  1.00  0.00     0.226 S 
HETATM   25  C   UNL     1       5.234   1.227  19.552  1.00  0.00     0.186 C 
HETATM   26  O   UNL     1       5.898  -0.453  17.754  1.00  0.00    -0.206 OA
HETATM   27  O   UNL     1       5.522  -1.296  19.953  1.00  0.00    -0.206 OA
ENDBRANCH  22  24
ENDBRANCH   1  22
TORSDOF 4
ENDMDL
MODEL 6
REMARK VINA RESULT:    -6.884     13.909     16.318
REMARK INTER + INTRA:          -9.394
REMARK INTER:                  -8.575
REMARK INTRA:                  -0.819
REMARK UNBOUND:                -0.900
REMARK  4 active torsions:
REMARK  status: ('A' for Active; 'I' for Inactive)
REMARK    1  A    between atoms: S_2  and  N_5 
REMARK    2  A    between atoms: N_5  and  C_7 
REMARK    3  A    between atoms: C_15  and  C_16 
REMARK       I    between atoms: C_16  and  N_18 
REMARK    4  A    between atoms: N_18  and  C_20 
ROOT
HETATM    1  C   UNL     1      23.430  -4.128  24.637  1.00  0.00     0.109 C 
HETATM    2  C   UNL     1      23.297  -3.049  23.992  1.00  0.00    -0.008 A 
HETATM    3  C   UNL     1      22.840  -1.889  23.912  1.00  0.00     0.058 A 
HETATM    4  C   UNL     1      21.307  -1.309  24.060  1.00  0.00    -0.003 C 
HETATM    5  C   UNL     1      21.035  -0.362  24.508  1.00  0.00    -0.002 C 
HETATM    6  C   UNL     1      21.878   0.624  25.174  1.00  0.00    -0.001 C 
HETATM    7  C   UNL     1      23.144   0.197  25.275  1.00  0.00    -0.002 C 
HETATM    8  C   UNL     1      23.675  -0.688  24.955  1.00  0.00    -0.003 C 
HETATM    9  C   UNL     1      23.328  -1.699  22.822  1.00  0.00     0.040 A 
ENDROOT
BRANCH   9  10
HETATM   10  C   UNL     1      23.784  -1.476  21.569  1.00  0.00     0.254 C 
HETATM   11  O   UNL     1      24.826  -1.004  21.481  1.00  0.00    -0.268 OA
HETATM   12  N   UNL     1      22.908  -1.875  20.667  1.00  0.00    -0.321 N 
ATOM     13  HN  UNL     1      22.026  -2.295  20.963  1.00  0.00     0.169 HD
BRANCH  12  14
HETATM   14  C   UNL     1      23.163  -1.734  19.421  1.00  0.00     0.056 A 
HETATM   15  C   UNL     1      22.872  -0.791  18.504  1.00  0.00     0.117 A 
HETATM   16  N   UNL     1      22.912  -0.392  17.387  1.00  0.00    -0.373 N 
HETATM   17  C   UNL     1      23.634  -1.405  16.836  1.00  0.00     0.088 A 
ATOM     18  HN  UNL     1      22.524   0.454  16.968  1.00  0.00     0.164 HD
HETATM   19  C   UNL     1      24.095  -2.419  17.412  1.00  0.00     0.026 A 
HETATM   20  C   UNL     1      23.996  -2.798  18.677  1.00  0.00    -0.033 A 
HETATM   21  C   UNL     1      24.543  -4.090  19.372  1.00  0.00     0.050 C 
ENDBRANCH  12  14
ENDBRANCH   9  10
BRANCH   1  22
HETATM   22  N   UNL     1      23.525  -5.321  24.759  1.00  0.00    -0.295 N 
ATOM     23  HN  UNL     1      22.885  -5.893  24.208  1.00  0.00     0.177 HD
BRANCH  22  24
HETATM   24  S   UNL     1      24.563  -6.096  25.707  1.00  0.00     0.226 S 
HETATM   25  C   UNL     1      24.685  -5.099  27.126  1.00  0.00     0.186 C 
HETATM   26  O   UNL     1      24.071  -7.375  26.159  1.00  0.00    -0.206 OA
HETATM   27  O   UNL     1      25.881  -6.205  25.139  1.00  0.00    -0.206 OA
ENDBRANCH  22  24
ENDBRANCH   1  22
TORSDOF 4
ENDMDL
MODEL 7
REMARK VINA RESULT:    -6.738      4.325      6.376
REMARK INTER + INTRA:          -9.214
REMARK INTER:                  -8.404
REMARK INTRA:                  -0.810
REMARK UNBOUND:                -0.900
REMARK  4 active torsions:
REMARK  status: ('A' for Active; 'I' for Inactive)
REMARK    1  A    between atoms: S_2  and  N_5 
REMARK    2  A    between atoms: N_5  and  C_7 
REMARK    3  A    between atoms: C_15  and  C_16 
REMARK       I    between atoms: C_16  and  N_18 
REMARK    4  A    between atoms: N_18  and  C_20 
ROOT
HETATM    1  C   UNL     1       8.641   3.967  24.891  1.00  0.00     0.109 C 
HETATM    2  C   UNL     1       8.775   2.871  24.274  1.00  0.00    -0.008 A 
HETATM    3  C   UNL     1       9.468   1.870  23.991  1.00  0.00     0.058 A 
HETATM    4  C   UNL     1      10.987   1.735  23.373  1.00  0.00    -0.003 C 
HETATM    5  C   UNL     1      11.706   0.971  23.639  1.00  0.00    -0.002 C 
HETATM    6  C   UNL     1      11.612  -0.083  24.642  1.00  0.00    -0.001 C 
HETATM    7  C   UNL     1      10.476   0.014  25.347  1.00  0.00    -0.002 C 
HETATM    8  C   UNL     1       9.619   0.672  25.321  1.00  0.00    -0.003 C 
HETATM    9  C   UNL     1       8.612   1.394  23.282  1.00  0.00     0.040 A 
ENDROOT
BRANCH   9  10
HETATM   10  C   UNL     1       7.715   0.869  22.416  1.00  0.00     0.254 C 
HETATM   11  O   UNL     1       7.060   0.017  22.814  1.00  0.00    -0.268 OA
HETATM   12  N   UNL     1       7.772   1.479  21.248  1.00  0.00    -0.321 N 
ATOM     13  HN  UNL     1       8.430   2.245  21.103  1.00  0.00     0.169 HD
BRANCH  12  14
HETATM   14  C   UNL     1       7.000   1.110  20.296  1.00  0.00     0.056 A 
HETATM   15  C   UNL     1       7.141   0.281  19.243  1.00  0.00     0.117 A 
HETATM   16  N   UNL     1       6.704  -0.217  18.258  1.00  0.00    -0.373 N 
HETATM   17  C   UNL     1       5.460   0.335  18.286  1.00  0.00     0.088 A 
ATOM     18  HN  UNL     1       7.131  -0.863  17.593  1.00  0.00     0.164 HD
HETATM   19  C   UNL     1       4.989   1.119  19.144  1.00  0.00     0.026 A 
HETATM   20  C   UNL     1       5.553   1.640  20.222  1.00  0.00    -0.033 A 
HETATM   21  C   UNL     1       4.964   2.653  21.261  1.00  0.00     0.050 C 
ENDBRANCH  12  14
ENDBRANCH   9  10
BRANCH   1  22
HETATM   22  N   UNL     1       8.260   5.098  25.033  1.00  0.00    -0.295 N 
ATOM     23  HN  UNL     1       7.485   5.248  25.679  1.00  0.00     0.177 HD
BRANCH  22  24
HETATM   24  S   UNL     1       8.857   6.396  24.299  1.00  0.00     0.226 S 
HETATM   25  C   UNL     1      10.573   6.296  24.566  1.00  0.00     0.186 C 
HETATM   26  O   UNL     1       8.674   6.373  22.868  1.00  0.00    -0.206 OA
HETATM   27  O   UNL     1       8.401   7.635  24.873  1.00  0.00    -0.206 OA
ENDBRANCH  22  24
ENDBRANCH   1  22
TORSDOF 4
ENDMDL
MODEL 8
REMARK VINA RESULT:    -6.721      3.309      6.880
REMARK INTER + INTRA:          -9.193
REMARK INTER:                  -8.416
REMARK INTRA:                  -0.778
REMARK UNBOUND:                -0.900
REMARK  4 active torsions:
REMARK  status: ('A' for Active; 'I' for Inactive)
REMARK    1  A    between atoms: S_2  and  N_5 
REMARK    2  A    between atoms: N_5  and  C_7 
REMARK    3  A    between atoms: C_15  and  C_16 
REMARK       I    between atoms: C_16  and  N_18 
REMARK    4  A    between atoms: N_18  and  C_20 
ROOT
HETATM    1  C   UNL     1       7.182  -1.659  23.094  1.00  0.00     0.109 C 
HETATM    2  C   UNL     1       7.976  -0.675  23.115  1.00  0.00    -0.008 A 
HETATM    3  C   UNL     1       9.054  -0.167  23.492  1.00  0.00     0.058 A 
HETATM    4  C   UNL     1       9.705   0.021  24.992  1.00  0.00    -0.003 C 
HETATM    5  C   UNL     1      10.758  -0.053  25.232  1.00  0.00    -0.002 C 
HETATM    6  C   UNL     1      11.882  -0.410  24.375  1.00  0.00    -0.001 C 
HETATM    7  C   UNL     1      11.469  -0.756  23.148  1.00  0.00    -0.002 C 
HETATM    8  C   UNL     1      10.509  -0.803  22.654  1.00  0.00    -0.003 C 
HETATM    9  C   UNL     1       8.838   0.878  22.923  1.00  0.00     0.040 A 
ENDROOT
BRANCH   9  10
HETATM   10  C   UNL     1       8.598   2.090  22.373  1.00  0.00     0.254 C 
HETATM   11  O   UNL     1       8.779   2.182  21.244  1.00  0.00    -0.268 OA
HETATM   12  N   UNL     1       8.175   2.948  23.281  1.00  0.00    -0.321 N 
ATOM     13  HN  UNL     1       8.063   2.652  24.251  1.00  0.00     0.169 HD
BRANCH  12  14
HETATM   14  C   UNL     1       7.905   4.153  22.945  1.00  0.00     0.056 A 
HETATM   15  C   UNL     1       6.903   4.732  22.256  1.00  0.00     0.117 A 
HETATM   16  N   UNL     1       6.402   5.699  21.782  1.00  0.00    -0.373 N 
HETATM   17  C   UNL     1       7.311   6.623  22.197  1.00  0.00     0.088 A 
ATOM     18  HN  UNL     1       5.549   5.804  21.232  1.00  0.00     0.164 HD
HETATM   19  C   UNL     1       8.341   6.429  22.885  1.00  0.00     0.026 A 
HETATM   20  C   UNL     1       8.839   5.304  23.373  1.00  0.00    -0.033 A 
HETATM   21  C   UNL     1      10.151   5.073  24.197  1.00  0.00     0.050 C 
ENDBRANCH  12  14
ENDBRANCH   9  10
BRANCH   1  22
HETATM   22  N   UNL     1       6.102  -2.187  23.083  1.00  0.00    -0.295 N 
ATOM     23  HN  UNL     1       5.393  -1.802  23.706  1.00  0.00     0.177 HD
BRANCH  22  24
HETATM   24  S   UNL     1       5.672  -3.443  22.180  1.00  0.00     0.226 S 
HETATM   25  C   UNL     1       6.985  -4.571  22.349  1.00  0.00     0.186 C 
HETATM   26  O   UNL     1       4.498  -4.122  22.674  1.00  0.00    -0.206 OA
HETATM   27  O   UNL     1       5.552  -3.124  20.781  1.00  0.00    -0.206 OA
ENDBRANCH  22  24
ENDBRANCH   1  22
TORSDOF 4
ENDMDL
MODEL 9
REMARK VINA RESULT:    -6.676      2.392      2.536
REMARK INTER + INTRA:          -9.138
REMARK INTER:                  -8.308
REMARK INTRA:                  -0.830
REMARK UNBOUND:                -0.900
REMARK  4 active torsions:
REMARK  status: ('A' for Active; 'I' for Inactive)
REMARK    1  A    between atoms: S_2  and  N_5 
REMARK    2  A    between atoms: N_5  and  C_7 
REMARK    3  A    between atoms: C_15  and  C_16 
REMARK       I    between atoms: C_16  and  N_18 
REMARK    4  A    between atoms: N_18  and  C_20 
ROOT
HETATM    1  C   UNL     1       9.137   1.758  23.361  1.00  0.00     0.109 C 
HETATM    2  C   UNL     1       9.531   0.648  23.819  1.00  0.00    -0.008 A 
HETATM    3  C   UNL     1      10.389  -0.261  23.855  1.00  0.00     0.058 A 
HETATM    4  C   UNL     1      11.060  -1.175  22.662  1.00  0.00    -0.003 C 
HETATM    5  C   UNL     1      12.087  -1.513  22.635  1.00  0.00    -0.002 C 
HETATM    6  C   UNL     1      13.186  -1.217  23.547  1.00  0.00    -0.001 C 
HETATM    7  C   UNL     1      12.817  -0.336  24.486  1.00  0.00    -0.002 C 
HETATM    8  C   UNL     1      11.896   0.174  24.730  1.00  0.00    -0.003 C 
HETATM    9  C   UNL     1       9.770  -0.905  24.670  1.00  0.00     0.040 A 
ENDROOT
BRANCH   9  10
HETATM   10  C   UNL     1       9.070  -1.695  25.516  1.00  0.00     0.254 C 
HETATM   11  O   UNL     1       8.823  -1.250  26.543  1.00  0.00    -0.268 OA
HETATM   12  N   UNL     1       8.793  -2.859  24.958  1.00  0.00    -0.321 N 
ATOM     13  HN  UNL     1       9.098  -3.053  24.004  1.00  0.00     0.169 HD
BRANCH  12  14
HETATM   14  C   UNL     1       8.143  -3.744  25.615  1.00  0.00     0.056 A 
HETATM   15  C   UNL     1       8.495  -4.719  26.475  1.00  0.00     0.117 A 
HETATM   16  N   UNL     1       8.201  -5.637  27.168  1.00  0.00    -0.373 N 
HETATM   17  C   UNL     1       6.854  -5.616  26.973  1.00  0.00     0.088 A 
ATOM     18  HN  UNL     1       8.781  -6.254  27.737  1.00  0.00     0.164 HD
HETATM   19  C   UNL     1       6.195  -4.819  26.264  1.00  0.00     0.026 A 
HETATM   20  C   UNL     1       6.606  -3.814  25.505  1.00  0.00    -0.033 A 
HETATM   21  C   UNL     1       5.772  -2.854  24.592  1.00  0.00     0.050 C 
ENDBRANCH  12  14
ENDBRANCH   9  10
BRANCH   1  22
HETATM   22  N   UNL     1       8.316   2.550  22.979  1.00  0.00    -0.295 N 
ATOM     23  HN  UNL     1       7.892   2.371  22.069  1.00  0.00     0.177 HD
BRANCH  22  24
HETATM   24  S   UNL     1       7.827   3.860  23.766  1.00  0.00     0.226 S 
HETATM   25  C   UNL     1       6.094   3.719  23.812  1.00  0.00     0.186 C 
HETATM   26  O   UNL     1       8.261   3.890  25.142  1.00  0.00    -0.206 OA
HETATM   27  O   UNL     1       8.144   5.087  23.082  1.00  0.00    -0.206 OA
ENDBRANCH  22  24
ENDBRANCH   1  22
TORSDOF 4
ENDMDL
