stable:False satoms:16 tatoms:24 sratio:0.6666666666666666
  -OEChem-08052418363D

 24 25  0     1  0  0  0  0  0999 V2000
    7.8355   -2.3413   23.5638 H   0  0  0  0  0  0  0  0  0  0  0  0
    8.1491   -3.7689   22.5820 H   0  0  0  0  0  0  0  0  0  0  0  0
    9.6787   -2.3669   22.5015 N   0  0  1  0  0  0  0  0  0  0  0  0
    7.7883   -1.3328   21.6276 O   0  0  0  0  0  0  0  0  0  0  0  0
    8.6066   -0.3815   21.2332 O   0  0  0  0  0  0  0  0  0  0  0  0
    8.4025   -4.1859   24.9971 H   0  0  0  0  0  0  0  0  0  0  0  0
    9.6229   -0.8082   25.0371 N   0  0  0  0  0  0  0  0  0  0  0  0
    8.6297   -3.0314   23.2596 C   0  0  0  0  0  0  0  0  0  0  0  0
    9.2011   -3.6860   24.4293 C   0  0  0  0  0  0  0  0  0  0  0  0
    9.2084   -1.4081   26.2044 O   0  0  0  0  0  0  0  0  0  0  0  0
    9.6896   -2.9350   25.0675 H   0  0  0  0  0  0  0  0  0  0  0  0
   11.2523   -2.1062   23.9307 H   0  0  0  0  0  0  0  0  0  0  0  0
    9.9387   -1.9773   26.5670 H   0  0  0  0  0  0  0  0  0  0  0  0
   10.7454    0.2946   26.3431 H   0  0  0  0  0  0  0  0  0  0  0  0
   10.4625    0.2490   25.2966 C   0  0  0  0  0  0  0  0  0  0  0  0
   11.0137    1.3464   24.5624 C   0  0  0  0  0  2  0  0  0  0  0  0
    9.3040   -1.1223   21.9473 C   0  0  0  0  0  0  0  0  0  0  0  0
   11.0180   -1.9475   22.8674 C   0  0  0  0  0  0  0  0  0  0  0  0
   11.0053   -0.2441   22.2271 S   0  3  2  0  0  0  0  0  0  0  0  0
   11.7790   -2.3994   22.2238 H   0  0  0  0  0  0  0  0  0  0  0  0
   10.7029    1.9643   23.4001 N   0  0  0  0  0  0  0  0  0  0  0  0
   10.3486    1.3187   22.3436 C   0  0  0  0  0  2  0  0  0  0  0  0
    9.9429   -4.4313   24.1064 H   0  0  0  0  0  0  0  0  0  0  0  0
    9.9492    2.5870   23.6102 H   0  0  0  0  0  0  0  0  0  0  0  0
 16 21  1  0  0  0  0
 15 16  1  0  0  0  0
 21 22  1  0  0  0  0
 14 15  1  0  0  0  0
  7 15  2  0  0  0  0
 19 22  1  0  0  0  0
 18 19  1  0  0  0  0
 17 19  1  0  0  0  0
 18 20  1  0  0  0  0
 12 18  1  0  0  0  0
  3 18  1  0  0  0  0
  7 10  1  0  0  0  0
 10 13  1  0  0  0  0
  3 17  1  0  0  0  0
  5 17  1  0  0  0  0
  4 17  1  0  0  0  0
  3  8  1  0  0  0  0
  6  9  1  0  0  0  0
  4  5  1  0  0  0  0
  9 11  1  0  0  0  0
  8  9  1  0  0  0  0
  1  8  1  0  0  0  0
  2  8  1  0  0  0  0
  9 23  1  0  0  0  0
 21 24  1  0  0  0  0
M  CHG  1  19   1
M  END
> <Chemgauss4>
-5.316883

$$$$
