stable:False satoms:16 tatoms:24 sratio:0.6666666666666666
  -OEChem-08052418363D

 24 25  0     1  0  0  0  0  0999 V2000
   -7.9930   -2.2068  -23.7518 H   0  0  0  0  0  0  0  0  0  0  0  0
   -8.3837   -3.7726  -23.0474 H   0  0  0  0  0  0  0  0  0  0  0  0
   -9.8387   -2.3322  -22.7010 N   0  0  1  0  0  0  0  0  0  0  0  0
   -7.9002   -1.5756  -21.6635 O   0  0  0  0  0  0  0  0  0  0  0  0
   -8.6693   -0.6721  -21.0957 O   0  0  0  0  0  0  0  0  0  0  0  0
   -8.6501   -3.7244  -25.4963 H   0  0  0  0  0  0  0  0  0  0  0  0
   -9.6932   -0.3386  -24.9069 N   0  0  0  0  0  0  0  0  0  0  0  0
   -8.8230   -2.8992  -23.5748 C   0  0  0  0  0  0  0  0  0  0  0  0
   -9.4236   -3.2970  -24.8414 C   0  0  0  0  0  0  0  0  0  0  0  0
   -9.3065   -0.7340  -26.1672 O   0  0  0  0  0  0  0  0  0  0  0  0
   -9.8703   -2.4171  -25.3276 H   0  0  0  0  0  0  0  0  0  0  0  0
  -11.3917   -1.7320  -24.0481 H   0  0  0  0  0  0  0  0  0  0  0  0
  -10.0641   -1.1883  -26.6237 H   0  0  0  0  0  0  0  0  0  0  0  0
  -10.7525    1.0422  -25.9809 H   0  0  0  0  0  0  0  0  0  0  0  0
  -10.4759    0.7903  -24.9624 C   0  0  0  0  0  0  0  0  0  0  0  0
  -10.9719    1.7609  -24.0354 C   0  0  0  0  0  2  0  0  0  0  0  0
   -9.4017   -1.2318  -21.9297 C   0  0  0  0  0  0  0  0  0  0  0  0
  -11.1532   -1.7840  -22.9752 C   0  0  0  0  0  0  0  0  0  0  0  0
  -11.0541   -0.2305  -22.0326 S   0  3  2  0  0  0  0  0  0  0  0  0
  -11.9388   -2.3067  -22.4210 H   0  0  0  0  0  0  0  0  0  0  0  0
  -10.6335    2.1375  -22.7813 N   0  0  0  0  0  0  0  0  0  0  0  0
  -10.3168    1.2910  -21.8637 C   0  0  0  0  0  2  0  0  0  0  0  0
  -10.2043   -4.0495  -24.6566 H   0  0  0  0  0  0  0  0  0  0  0  0
   -9.8477    2.7484  -22.8779 H   0  0  0  0  0  0  0  0  0  0  0  0
 16 21  1  0  0  0  0
 15 16  1  0  0  0  0
 21 22  1  0  0  0  0
 14 15  1  0  0  0  0
  7 15  2  0  0  0  0
 19 22  1  0  0  0  0
 18 19  1  0  0  0  0
 17 19  1  0  0  0  0
 18 20  1  0  0  0  0
 12 18  1  0  0  0  0
  3 18  1  0  0  0  0
  7 10  1  0  0  0  0
 10 13  1  0  0  0  0
  3 17  1  0  0  0  0
  5 17  1  0  0  0  0
  4 17  1  0  0  0  0
  3  8  1  0  0  0  0
  6  9  1  0  0  0  0
  4  5  1  0  0  0  0
  9 11  1  0  0  0  0
  8  9  1  0  0  0  0
  1  8  1  0  0  0  0
  2  8  1  0  0  0  0
  9 23  1  0  0  0  0
 21 24  1  0  0  0  0
M  CHG  1  19   1
M  END
> <Chemgauss4>
-5.388532

$$$$
