stable:False satoms:13 tatoms:24 sratio:0.5416666666666666
  -OEChem-08062406573D

 30 29  0     1  0  0  0  0  0999 V2000
   -6.3280   -5.5592  -25.7145 Cl  0  0  0  0  0  0  0  0  0  0  0  0
   -8.0850   -4.8375  -25.6529 S   0  0  0  0  0  0  0  0  0  0  0  0
   -9.0051   -5.9401  -25.6142 O   0  0  0  0  0  0  0  0  0  0  0  0
   -8.2157   -3.9092  -26.6958 O   0  0  0  0  0  0  0  0  0  0  0  0
   -8.0691   -4.0773  -24.2357 N   0  0  0  0  0  0  0  0  0  0  0  0
   -9.0948   -3.4510  -23.9446 C   0  0  0  0  0  0  0  0  0  0  0  0
   -9.6475   -2.5232  -23.6822 N   0  0  0  0  0  0  0  0  0  0  0  0
  -10.5000   -1.0237  -22.3588 N   0  3  0  0  0  0  0  0  0  0  0  0
  -11.1776   -0.8085  -24.4017 C   0  0  0  0  0  0  0  0  0  0  0  0
  -12.6977    0.2379  -25.0945 H   0  0  0  0  0  0  0  0  0  0  0  0
  -12.3501   -0.3742  -24.3141 C   0  0  0  0  0  0  0  0  0  0  0  0
  -12.9212   -0.6614  -23.4479 H   0  0  0  0  0  0  0  0  0  0  0  0
  -10.5148   -1.5081  -23.4757 C   0  0  0  0  0  0  0  0  0  0  0  0
   -9.4310   -0.9093  -21.8891 N   0  0  0  0  0  0  0  0  0  0  0  0
   -8.9912   -0.1220  -20.8992 C   0  0  0  0  0  0  0  0  0  0  0  0
   -9.5619    0.8738  -20.6332 O   0  0  0  0  0  0  0  0  0  0  0  0
   -7.2858   -1.2364  -21.0400 H   0  0  0  0  0  0  0  0  0  0  0  0
   -6.6271   -0.0060  -19.6703 C   0  0  0  0  0  0  0  0  0  0  0  0
   -7.7357   -0.6126  -20.2536 C   0  0  2  0  0  0  0  0  0  0  0  0
   -5.1660    0.8495  -18.3421 H   0  0  0  0  0  0  0  0  0  0  0  0
   -6.1529    0.3680  -18.2771 C   0  0  0  0  0  0  0  0  0  0  0  0
   -6.0781   -0.5393  -17.6596 H   0  0  0  0  0  0  0  0  0  0  0  0
   -5.7419    0.1632  -20.5304 C   0  0  0  0  0  0  0  0  0  0  0  0
   -5.9121   -0.1509  -21.5496 H   0  0  0  0  0  0  0  0  0  0  0  0
   -7.2769   -4.1092  -23.6263 H   0  0  0  0  0  0  0  0  0  0  0  0
   -9.8629   -4.2102  -23.9462 H   0  0  0  0  0  0  0  0  0  0  0  0
  -10.6489   -0.5955  -25.3191 H   0  0  0  0  0  0  0  0  0  0  0  0
   -8.1134   -1.2568  -19.4459 H   0  0  0  0  0  0  0  0  0  0  0  0
   -6.8712    1.0645  -17.8201 H   0  0  0  0  0  0  0  0  0  0  0  0
   -4.8042    0.6240  -20.2569 H   0  0  0  0  0  0  0  0  0  0  0  0
 20 21  1  0  0  0  0
 21 22  1  0  0  0  0
 18 21  1  0  0  0  0
 18 19  1  0  0  0  0
 18 23  2  0  0  0  0
 17 19  1  0  0  0  0
 15 19  1  0  0  0  0
 15 16  2  0  0  0  0
 23 24  1  0  0  0  0
 14 15  1  0  0  0  0
  8 14  2  0  0  0  0
  8 13  2  0  0  0  0
 11 12  1  0  0  0  0
  7 13  1  0  0  0  0
  9 13  1  0  0  0  0
  6  7  2  0  0  0  0
  9 11  2  0  0  0  0
 10 11  1  0  0  0  0
  5  6  1  0  0  0  0
  2  5  1  0  0  0  0
  2  3  2  0  0  0  0
  1  2  1  0  0  0  0
  2  4  2  0  0  0  0
  5 25  1  0  0  0  0
  6 26  1  0  0  0  0
  9 27  1  0  0  0  0
 19 28  1  0  0  0  0
 21 29  1  0  0  0  0
 23 30  1  0  0  0  0
M  CHG  1   8   1
M  END
> <Chemgauss4>
-6.043168

$$$$
