stable:False satoms:13 tatoms:24 sratio:0.5416666666666666
  -OEChem-08062406573D

 30 29  0     1  0  0  0  0  0999 V2000
    6.1918   -5.5687   25.6528 Cl  0  0  0  0  0  0  0  0  0  0  0  0
    7.9487   -4.8470   25.5913 S   0  0  0  0  0  0  0  0  0  0  0  0
    8.8689   -5.9496   25.5526 O   0  0  0  0  0  0  0  0  0  0  0  0
    8.0795   -3.9188   26.6342 O   0  0  0  0  0  0  0  0  0  0  0  0
    7.9329   -4.0868   24.1741 N   0  0  0  0  0  0  0  0  0  0  0  0
    8.9586   -3.4605   23.8830 C   0  0  0  0  0  0  0  0  0  0  0  0
    9.5113   -2.5328   23.6205 N   0  0  0  0  0  0  0  0  0  0  0  0
   10.3638   -1.0332   22.2972 N   0  3  0  0  0  0  0  0  0  0  0  0
   11.0414   -0.8180   24.3401 C   0  0  0  0  0  0  0  0  0  0  0  0
   12.5614    0.2284   25.0329 H   0  0  0  0  0  0  0  0  0  0  0  0
   12.2139   -0.3838   24.2525 C   0  0  0  0  0  0  0  0  0  0  0  0
   12.7850   -0.6710   23.3863 H   0  0  0  0  0  0  0  0  0  0  0  0
   10.3786   -1.5176   23.4141 C   0  0  0  0  0  0  0  0  0  0  0  0
    9.2948   -0.9188   21.8275 N   0  0  0  0  0  0  0  0  0  0  0  0
    8.8550   -0.1316   20.8376 C   0  0  0  0  0  0  0  0  0  0  0  0
    9.4257    0.8642   20.5716 O   0  0  0  0  0  0  0  0  0  0  0  0
    7.1496   -1.2459   20.9784 H   0  0  0  0  0  0  0  0  0  0  0  0
    6.4909   -0.0155   19.6087 C   0  0  0  0  0  0  0  0  0  0  0  0
    7.5995   -0.6221   20.1920 C   0  0  2  0  0  0  0  0  0  0  0  0
    5.0298    0.8400   18.2805 H   0  0  0  0  0  0  0  0  0  0  0  0
    6.0166    0.3584   18.2155 C   0  0  0  0  0  0  0  0  0  0  0  0
    5.9418   -0.5488   17.5980 H   0  0  0  0  0  0  0  0  0  0  0  0
    5.6056    0.1537   20.4688 C   0  0  0  0  0  0  0  0  0  0  0  0
    5.7759   -0.1605   21.4880 H   0  0  0  0  0  0  0  0  0  0  0  0
    7.1407   -4.1187   23.5646 H   0  0  0  0  0  0  0  0  0  0  0  0
    9.7266   -4.2198   23.8846 H   0  0  0  0  0  0  0  0  0  0  0  0
   10.5127   -0.6050   25.2574 H   0  0  0  0  0  0  0  0  0  0  0  0
    7.9772   -1.2663   19.3843 H   0  0  0  0  0  0  0  0  0  0  0  0
    6.7349    1.0549   17.7584 H   0  0  0  0  0  0  0  0  0  0  0  0
    4.6680    0.6145   20.1952 H   0  0  0  0  0  0  0  0  0  0  0  0
 20 21  1  0  0  0  0
 21 22  1  0  0  0  0
 18 21  1  0  0  0  0
 18 19  1  0  0  0  0
 18 23  2  0  0  0  0
 17 19  1  0  0  0  0
 15 19  1  0  0  0  0
 15 16  2  0  0  0  0
 23 24  1  0  0  0  0
 14 15  1  0  0  0  0
  8 14  2  0  0  0  0
  8 13  2  0  0  0  0
 11 12  1  0  0  0  0
  7 13  1  0  0  0  0
  9 13  1  0  0  0  0
  6  7  2  0  0  0  0
  9 11  2  0  0  0  0
 10 11  1  0  0  0  0
  5  6  1  0  0  0  0
  2  5  1  0  0  0  0
  2  3  2  0  0  0  0
  1  2  1  0  0  0  0
  2  4  2  0  0  0  0
  5 25  1  0  0  0  0
  6 26  1  0  0  0  0
  9 27  1  0  0  0  0
 19 28  1  0  0  0  0
 21 29  1  0  0  0  0
 23 30  1  0  0  0  0
M  CHG  1   8   1
M  END
> <Chemgauss4>
-6.066481

$$$$
