stable:False satoms:9 tatoms:24 sratio:0.375
  -OEChem-07092417493D

 24 26  0     1  0  0  0  0  0999 V2000
    6.6237   -4.8720   26.4437 C   0  0  0  0  0  0  0  0  0  0  0  0
    8.2140   -4.3272   26.1150 S   0  0  0  0  0  0  0  0  0  0  0  0
    9.0771   -5.5021   26.0181 O   0  0  0  0  0  0  0  0  0  0  0  0
    8.6335   -3.4485   27.1667 O   0  0  0  0  0  0  0  0  0  0  0  0
    8.1039   -3.6030   24.6968 N   0  0  0  0  0  0  0  0  0  0  0  0
    9.0106   -2.9268   24.1805 C   0  0  0  0  0  0  0  0  0  0  0  0
    9.4232   -1.9495   23.5334 C   0  0  0  0  0  0  0  0  0  0  0  0
   10.3093   -1.1078   23.2871 C   0  0  1  0  0  0  0  0  0  0  0  0
   11.0378    0.0283   24.3649 C   0  0  0  0  0  0  0  0  0  0  0  0
   12.0706    0.3349   24.2626 C   0  0  0  0  0  0  0  0  0  0  0  0
   13.1229   -0.1301   23.4718 C   0  0  0  0  0  0  0  0  0  0  0  0
   12.7180   -1.2871   22.6149 C   0  0  0  0  0  0  0  0  0  0  0  0
   11.8155   -1.7297   22.5029 C   0  0  0  0  0  0  0  0  0  0  0  0
    9.7263   -0.5777   22.4030 C   0  0  2  0  0  0  0  0  0  0  0  0
    9.0454    0.0482   21.3839 C   0  0  0  0  0  0  0  0  0  0  0  0
    9.5129    1.0265   20.9589 O   0  0  0  0  0  0  0  0  0  0  0  0
    7.9551   -0.5837   21.0731 N   0  0  0  0  0  0  0  0  0  0  0  0
    7.2093   -0.1193   20.1381 C   0  0  0  0  0  0  0  0  0  0  0  0
    7.2530   -0.0258   18.8700 C   0  0  0  0  0  0  0  0  0  0  0  0
    6.7296    0.3527   17.7552 N   0  0  0  0  0  0  0  0  0  0  0  0
    5.6852    0.8803   18.2465 C   0  0  0  0  0  0  0  0  0  0  0  0
    5.2287    1.0079   19.3604 C   0  0  0  0  0  0  0  0  0  0  0  0
    5.7965    0.5568   20.5306 C   0  0  0  0  0  0  0  0  0  0  0  0
    5.2820    0.6647   21.9186 C   0  0  0  0  0  0  0  0  0  0  0  0
 20 21  2  0  0  0  0
 19 20  1  0  0  0  0
 21 22  1  0  0  0  0
 18 19  2  0  0  0  0
 22 23  2  0  0  0  0
 18 23  1  0  0  0  0
 17 18  1  0  0  0  0
 23 24  1  0  0  0  0
 15 16  2  0  0  0  0
 15 17  1  0  0  0  0
 14 15  1  0  0  0  0
  8 14  1  0  0  0  0
  7 14  1  0  0  0  0
 12 13  1  0  0  0  0
  8 13  1  0  0  0  0
 11 12  2  0  0  0  0
  7  8  1  0  0  0  0
  8  9  1  0  0  0  0
 10 11  1  0  0  0  0
  6  7  2  3  0  0  0
  5  6  1  0  0  0  0
  9 10  2  0  0  0  0
  2  5  1  0  0  0  0
  2  3  2  0  0  0  0
  1  2  1  0  0  0  0
  2  4  2  0  0  0  0
M  END
> <Shapegauss>
-286.548981

$$$$
