stable:False satoms:12 tatoms:24 sratio:0.5
  -OEChem-07092417423D

 24 25  0     1  0  0  0  0  0999 V2000
    6.4043   -4.9317   26.3356 Cl  0  0  0  0  0  0  0  0  0  0  0  0
    8.2097   -4.3232   26.0566 S   0  0  0  0  0  0  0  0  0  0  0  0
    9.0135   -5.5073   25.9960 O   0  0  0  0  0  0  0  0  0  0  0  0
    8.5337   -3.4139   27.1012 O   0  0  0  0  0  0  0  0  0  0  0  0
    8.0973   -3.5977   24.5998 N   0  0  0  0  0  0  0  0  0  0  0  0
    8.8831   -2.8643   24.1329 C   0  0  0  0  0  0  0  0  0  0  0  0
    9.4195   -1.8780   23.5467 C   0  0  0  0  0  0  0  0  0  0  0  0
   10.6548   -0.9642   23.4923 C   0  0  1  0  0  0  0  0  0  0  0  0
   10.7526   -0.3883   24.4382 H   0  0  0  0  0  0  0  0  0  0  0  0
   12.7803    0.3200   23.9589 H   0  0  0  0  0  0  0  0  0  0  0  0
   12.8112   -0.5258   23.2759 C   0  0  0  0  0  0  0  0  0  0  0  0
   13.5733   -0.9118   22.7774 C   0  0  0  0  0  0  0  0  0  0  0  0
   11.7669   -1.3103   22.9245 C   0  0  0  0  0  0  0  0  0  0  0  0
    9.6167   -0.8521   22.6924 C   0  0  3  0  0  0  0  0  0  0  0  0
    9.0291   -0.0754   21.4404 C   0  0  0  0  0  0  0  0  0  0  0  0
    9.5506    0.9194   21.0030 O   0  0  0  0  0  0  0  0  0  0  0  0
    7.9917   -0.6953   21.0493 N   0  0  0  0  0  0  0  0  0  0  0  0
    7.1842   -0.1132   20.1263 C   0  0  0  0  0  0  0  0  0  0  0  0
    7.3643   -0.0570   18.7973 C   0  0  0  0  0  0  0  0  0  0  0  0
    6.5510    0.5055   18.0367 N   0  0  0  0  0  0  0  0  0  0  0  0
    5.6037    0.8633   18.8223 C   0  0  0  0  0  0  0  0  0  0  0  0
    4.7017    1.3149   18.7009 H   0  0  0  0  0  0  0  0  0  0  0  0
    5.9470    0.4966   20.2843 C   0  0  0  0  0  0  0  0  0  0  0  0
    5.1440    0.6998   21.7077 Cl  0  0  0  0  0  0  0  0  0  0  0  0
 19 20  1  0  0  0  0
 20 21  1  0  0  0  0
 21 22  1  0  0  0  0
 18 19  2  0  0  0  0
 21 23  2  0  0  0  0
 18 23  1  0  0  0  0
 17 18  1  0  0  0  0
 23 24  1  0  0  0  0
 15 16  2  0  0  0  0
 15 17  1  0  0  0  0
 14 15  1  0  0  0  0
  8 14  1  0  0  0  0
  7 14  1  0  0  0  0
 11 12  2  0  0  0  0
 11 13  1  0  0  0  0
  8 13  1  0  0  0  0
 10 11  1  0  0  0  0
  7  8  1  0  0  0  0
  8  9  1  0  0  0  0
  6  7  2  3  0  0  0
  5  6  1  0  0  0  0
  2  5  1  0  0  0  0
  2  3  2  0  0  0  0
  1  2  1  0  0  0  0
  2  4  2  0  0  0  0
M  END
> <Shapegauss>
-247.234894

$$$$
