stable:False satoms:12 tatoms:24 sratio:0.5
  -OEChem-08062412103D

 34 35  0     1  0  0  0  0  0999 V2000
   -6.9030    3.7882  -26.0098 Cl  0  0  0  0  0  0  0  0  0  0  0  0
   -8.5908    3.1757  -25.3142 S   0  0  0  0  0  0  0  0  0  0  0  0
   -9.5928    3.7698  -26.1478 O   0  0  0  0  0  0  0  0  0  0  0  0
   -8.6516    3.5252  -23.9368 O   0  0  0  0  0  0  0  0  0  0  0  0
   -8.4871    1.5653  -25.5533 N   0  0  0  0  0  0  0  0  0  0  0  0
   -9.1710    0.7504  -25.0618 C   0  0  0  0  0  0  0  0  0  0  0  0
   -9.5769   -0.2992  -24.4807 C   0  0  0  0  0  0  0  0  0  0  0  0
  -10.6314   -0.8834  -23.5265 C   0  0  1  0  0  0  0  0  0  0  0  0
  -10.5385   -0.4241  -22.5183 H   0  0  0  0  0  0  0  0  0  0  0  0
  -12.4450   -1.2634  -21.8085 H   0  0  0  0  0  0  0  0  0  0  0  0
  -12.6874   -1.3568  -22.8646 C   0  0  0  0  0  0  0  0  0  0  0  0
  -13.5483   -1.5711  -23.3019 C   0  0  0  0  0  0  0  0  0  0  0  0
  -11.8347   -1.1854  -23.9005 C   0  0  0  0  0  0  0  0  0  0  0  0
   -9.6681   -1.5854  -24.0826 C   0  0  3  0  0  0  0  0  0  0  0  0
   -9.0709   -3.0440  -24.2611 C   0  0  0  0  0  0  0  0  0  0  0  0
   -9.4469   -3.9748  -23.5939 O   0  0  0  0  0  0  0  0  0  0  0  0
   -8.1996   -2.9978  -25.1842 N   0  0  0  0  0  0  0  0  0  0  0  0
   -7.3907   -4.0699  -25.3821 C   0  0  0  0  0  0  0  0  0  0  0  0
   -7.6799   -5.2066  -26.0349 C   0  0  0  0  0  0  0  0  0  0  0  0
   -6.8539   -6.1331  -26.1601 N   0  0  0  0  0  0  0  0  0  0  0  0
   -5.7900   -5.6609  -25.6238 C   0  0  0  0  0  0  0  0  0  0  0  0
   -4.8376   -5.9937  -25.5034 H   0  0  0  0  0  0  0  0  0  0  0  0
   -6.0562   -4.2522  -25.0455 C   0  0  0  0  0  0  0  0  0  0  0  0
   -5.1021   -3.1683  -24.2536 Cl  0  0  0  0  0  0  0  0  0  0  0  0
   -7.5548    1.3203  -25.2872 H   0  0  0  0  0  0  0  0  0  0  0  0
  -10.1259    1.2343  -25.2050 H   0  0  0  0  0  0  0  0  0  0  0  0
  -14.4280   -1.7530  -22.7023 H   0  0  0  0  0  0  0  0  0  0  0  0
  -13.6087   -1.6233  -24.3790 H   0  0  0  0  0  0  0  0  0  0  0  0
  -11.7965   -2.1196  -24.4801 H   0  0  0  0  0  0  0  0  0  0  0  0
  -12.2168   -0.3741  -24.5374 H   0  0  0  0  0  0  0  0  0  0  0  0
   -9.0015   -1.3942  -23.2288 H   0  0  0  0  0  0  0  0  0  0  0  0
   -8.1107   -2.1830  -25.7572 H   0  0  0  0  0  0  0  0  0  0  0  0
   -8.6628   -5.3233  -26.4672 H   0  0  0  0  0  0  0  0  0  0  0  0
   -6.9897   -7.0308  -26.5794 H   0  0  0  0  0  0  0  0  0  0  0  0
 19 20  1  0  0  0  0
 20 21  1  0  0  0  0
 21 22  1  0  0  0  0
 18 19  2  0  0  0  0
 21 23  2  0  0  0  0
 18 23  1  0  0  0  0
 17 18  1  0  0  0  0
 23 24  1  0  0  0  0
 15 16  2  0  0  0  0
 15 17  1  0  0  0  0
 14 15  1  0  0  0  0
  8 14  1  0  0  0  0
  7 14  1  0  0  0  0
 11 12  2  0  0  0  0
 11 13  1  0  0  0  0
  8 13  1  0  0  0  0
 10 11  1  0  0  0  0
  7  8  1  0  0  0  0
  8  9  1  0  0  0  0
  6  7  2  3  0  0  0
  5  6  1  0  0  0  0
  2  5  1  0  0  0  0
  2  3  2  0  0  0  0
  1  2  1  0  0  0  0
  2  4  2  0  0  0  0
  5 25  1  0  0  0  0
  6 26  1  0  0  0  0
 12 27  1  0  0  0  0
 12 28  1  0  0  0  0
 13 29  1  0  0  0  0
 13 30  1  0  0  0  0
 14 31  1  0  0  0  0
 17 32  1  0  0  0  0
 19 33  1  0  0  0  0
 20 34  1  0  0  0  0
M  END
> <Chemgauss4>
-6.796091

$$$$
