stable:False satoms:12 tatoms:24 sratio:0.5
  -OEChem-08062412103D

 34 35  0     1  0  0  0  0  0999 V2000
    6.1243   -5.2335   26.1306 Cl  0  0  0  0  0  0  0  0  0  0  0  0
    7.9906   -4.8393   25.8679 S   0  0  0  0  0  0  0  0  0  0  0  0
    8.6376   -6.1081   25.7147 O   0  0  0  0  0  0  0  0  0  0  0  0
    8.4331   -4.0533   26.9676 O   0  0  0  0  0  0  0  0  0  0  0  0
    7.9628   -4.0055   24.4661 N   0  0  0  0  0  0  0  0  0  0  0  0
    8.8325   -3.3461   24.0393 C   0  0  0  0  0  0  0  0  0  0  0  0
    9.4862   -2.3967   23.5144 C   0  0  0  0  0  0  0  0  0  0  0  0
   10.8270   -1.6443   23.5050 C   0  0  1  0  0  0  0  0  0  0  0  0
   11.0023   -1.1528   24.4866 H   0  0  0  0  0  0  0  0  0  0  0  0
   13.1007   -0.6739   24.0278 H   0  0  0  0  0  0  0  0  0  0  0  0
   13.0203   -1.4670   23.2880 C   0  0  0  0  0  0  0  0  0  0  0  0
   13.7245   -1.9102   22.7532 C   0  0  0  0  0  0  0  0  0  0  0  0
   11.8831   -2.0872   22.8987 C   0  0  0  0  0  0  0  0  0  0  0  0
    9.8069   -1.3467   22.7297 C   0  0  3  0  0  0  0  0  0  0  0  0
    9.3154   -0.4166   21.5426 C   0  0  0  0  0  0  0  0  0  0  0  0
    9.9562    0.5327   21.1669 O   0  0  0  0  0  0  0  0  0  0  0  0
    8.2056   -0.8720   21.1249 N   0  0  0  0  0  0  0  0  0  0  0  0
    7.4732   -0.1298   20.2558 C   0  0  0  0  0  0  0  0  0  0  0  0
    7.6514   -0.0040   18.9313 C   0  0  0  0  0  0  0  0  0  0  0  0
    6.9116    0.7082   18.2229 N   0  0  0  0  0  0  0  0  0  0  0  0
    6.0217    1.1267   19.0448 C   0  0  0  0  0  0  0  0  0  0  0  0
    5.1835    1.6958   18.9677 H   0  0  0  0  0  0  0  0  0  0  0  0
    6.3241    0.6185   20.4731 C   0  0  0  0  0  0  0  0  0  0  0  0
    5.5614    0.8213   21.9185 Cl  0  0  0  0  0  0  0  0  0  0  0  0
    7.1799   -3.3882   24.5438 H   0  0  0  0  0  0  0  0  0  0  0  0
    9.6528   -4.0246   24.2215 H   0  0  0  0  0  0  0  0  0  0  0  0
   14.7566   -1.6134   22.8676 H   0  0  0  0  0  0  0  0  0  0  0  0
   13.4614   -2.6909   22.0549 H   0  0  0  0  0  0  0  0  0  0  0  0
   11.7547   -1.9353   21.8169 H   0  0  0  0  0  0  0  0  0  0  0  0
   11.9817   -3.1625   23.1089 H   0  0  0  0  0  0  0  0  0  0  0  0
    9.4149   -0.6387   23.4747 H   0  0  0  0  0  0  0  0  0  0  0  0
    7.8761   -1.7648   21.4320 H   0  0  0  0  0  0  0  0  0  0  0  0
    8.4642   -0.5385   18.4622 H   0  0  0  0  0  0  0  0  0  0  0  0
    6.9935    0.9056   17.2460 H   0  0  0  0  0  0  0  0  0  0  0  0
 19 20  1  0  0  0  0
 20 21  1  0  0  0  0
 21 22  1  0  0  0  0
 18 19  2  0  0  0  0
 21 23  2  0  0  0  0
 18 23  1  0  0  0  0
 17 18  1  0  0  0  0
 23 24  1  0  0  0  0
 15 16  2  0  0  0  0
 15 17  1  0  0  0  0
 14 15  1  0  0  0  0
  8 14  1  0  0  0  0
  7 14  1  0  0  0  0
 11 12  2  0  0  0  0
 11 13  1  0  0  0  0
  8 13  1  0  0  0  0
 10 11  1  0  0  0  0
  7  8  1  0  0  0  0
  8  9  1  0  0  0  0
  6  7  2  3  0  0  0
  5  6  1  0  0  0  0
  2  5  1  0  0  0  0
  2  3  2  0  0  0  0
  1  2  1  0  0  0  0
  2  4  2  0  0  0  0
  5 25  1  0  0  0  0
  6 26  1  0  0  0  0
 12 27  1  0  0  0  0
 12 28  1  0  0  0  0
 13 29  1  0  0  0  0
 13 30  1  0  0  0  0
 14 31  1  0  0  0  0
 17 32  1  0  0  0  0
 19 33  1  0  0  0  0
 20 34  1  0  0  0  0
M  END
> <Chemgauss4>
-6.934493

$$$$
