REMARK  1 active torsions:
REMARK  status: ('A' for Active; 'I' for Inactive)
REMARK       I    between atoms: N_3  and  C_15 
REMARK    1  A    between atoms: N_3  and  C_10 
ROOT
HETATM    1  N   UNL     1       6.830  -1.463  23.047  1.00  0.00    -0.258 N 
ATOM      2  HN  UNL     1       6.512  -2.414  22.858  1.00  0.00     0.195 HD
HETATM    3  C   UNL     1       9.502   0.907  23.800  1.00  0.00     0.016 C 
HETATM    4  C   UNL     1       6.354   1.943  22.788  1.00  0.00     0.079 C 
HETATM    5  C   UNL     1      10.617   0.285  23.309  1.00  0.00     0.003 C 
HETATM    6  C   UNL     1      10.518  -0.934  22.657  1.00  0.00     0.032 C 
HETATM    7  C   UNL     1       9.331  -1.634  22.697  1.00  0.00     0.064 C 
HETATM    8  C   UNL     1       8.231   0.325  23.480  1.00  0.00     0.026 C 
HETATM    9  C   UNL     1       6.906   0.692  23.268  1.00  0.00     0.085 C 
HETATM   10  C   UNL     1       8.117  -0.994  23.129  1.00  0.00     0.094 C 
HETATM   11  O   UNL     1       6.119  -0.407  23.268  1.00  0.00    -0.241 OA
ENDROOT
BRANCH   7  12
HETATM   12  N   UNL     1       9.115  -2.926  22.336  1.00  0.00    -0.325 N 
HETATM   13  C   UNL     1      10.030  -3.678  21.666  1.00  0.00     0.218 C 
HETATM   14  C   UNL     1       9.431  -4.929  21.070  1.00  0.00     0.117 C 
HETATM   15  O   UNL     1      11.201  -3.429  21.605  1.00  0.00    -0.274 OA
HETATM   16  H   UNL     1       8.174  -3.243  22.488  1.00  0.00     0.169 HD
ENDBRANCH   7  12
TORSDOF 1
