MODEL 1
REMARK VINA RESULT:    -5.502      0.000      0.000
REMARK INTER + INTRA:          -6.049
REMARK INTER:                  -5.824
REMARK INTRA:                  -0.224
REMARK UNBOUND:                -0.224
REMARK  1 active torsions:
REMARK  status: ('A' for Active; 'I' for Inactive)
REMARK       I    between atoms: N_3  and  C_15 
REMARK    1  A    between atoms: N_3  and  C_10 
ROOT
HETATM    1  N   UNL     1      10.483  -1.937  22.442  1.00  0.00    -0.258 N 
ATOM      2  HN  UNL     1      10.299  -2.575  21.668  1.00  0.00     0.195 HD
HETATM    3  C   UNL     1       9.515  -0.435  25.625  1.00  0.00     0.016 C 
HETATM    4  C   UNL     1      12.722  -0.133  24.347  1.00  0.00     0.079 C 
HETATM    5  C   UNL     1       8.679  -1.371  26.169  1.00  0.00     0.003 C 
HETATM    6  C   UNL     1       8.442  -2.571  25.519  1.00  0.00     0.032 C 
HETATM    7  C   UNL     1       8.865  -2.737  24.217  1.00  0.00     0.064 C 
HETATM    8  C   UNL     1      10.241  -0.809  24.446  1.00  0.00     0.026 C 
HETATM    9  C   UNL     1      11.445  -0.549  23.801  1.00  0.00     0.085 C 
HETATM   10  C   UNL     1       9.808  -1.821  23.631  1.00  0.00     0.094 C 
HETATM   11  O   UNL     1      11.408  -1.040  22.542  1.00  0.00    -0.241 OA
ENDROOT
BRANCH   7  12
HETATM   12  N   UNL     1       8.521  -3.724  23.350  1.00  0.00    -0.325 N 
HETATM   13  C   UNL     1       7.332  -3.759  22.690  1.00  0.00     0.218 C 
HETATM   14  C   UNL     1       7.041  -5.111  22.084  1.00  0.00     0.117 C 
HETATM   15  O   UNL     1       6.613  -2.812  22.534  1.00  0.00    -0.274 OA
HETATM   16  H   UNL     1       9.162  -4.498  23.333  1.00  0.00     0.169 HD
ENDBRANCH   7  12
TORSDOF 1
ENDMDL
MODEL 2
REMARK VINA RESULT:    -5.234      2.730      3.218
REMARK INTER + INTRA:          -5.764
REMARK INTER:                  -5.542
REMARK INTRA:                  -0.222
REMARK UNBOUND:                -0.224
REMARK  1 active torsions:
REMARK  status: ('A' for Active; 'I' for Inactive)
REMARK       I    between atoms: N_3  and  C_15 
REMARK    1  A    between atoms: N_3  and  C_10 
ROOT
HETATM    1  N   UNL     1      10.412   1.148  22.138  1.00  0.00    -0.258 N 
ATOM      2  HN  UNL     1      10.200   1.719  21.320  1.00  0.00     0.195 HD
HETATM    3  C   UNL     1       9.642  -1.653  24.349  1.00  0.00     0.016 C 
HETATM    4  C   UNL     1      12.696  -0.019  24.444  1.00  0.00     0.079 C 
HETATM    5  C   UNL     1       8.918  -2.492  23.547  1.00  0.00     0.003 C 
HETATM    6  C   UNL     1       8.699  -2.183  22.214  1.00  0.00     0.032 C 
HETATM    7  C   UNL     1       9.013  -0.925  21.746  1.00  0.00     0.064 C 
HETATM    8  C   UNL     1      10.281  -0.534  23.720  1.00  0.00     0.026 C 
HETATM    9  C   UNL     1      11.405   0.276  23.857  1.00  0.00     0.085 C 
HETATM   10  C   UNL     1       9.841  -0.040  22.521  1.00  0.00     0.094 C 
HETATM   11  O   UNL     1      11.285   1.365  23.066  1.00  0.00    -0.241 OA
ENDROOT
BRANCH   7  12
HETATM   12  N   UNL     1       8.655  -0.365  20.560  1.00  0.00    -0.325 N 
HETATM   13  C   UNL     1       7.400   0.089  20.297  1.00  0.00     0.218 C 
HETATM   14  C   UNL     1       7.162   0.322  18.825  1.00  0.00     0.117 C 
HETATM   15  O   UNL     1       6.582   0.350  21.134  1.00  0.00    -0.274 OA
HETATM   16  H   UNL     1       9.358  -0.432  19.846  1.00  0.00     0.169 HD
ENDBRANCH   7  12
TORSDOF 1
ENDMDL
MODEL 3
REMARK VINA RESULT:    -5.175      2.233      3.134
REMARK INTER + INTRA:          -5.702
REMARK INTER:                  -5.478
REMARK INTRA:                  -0.224
REMARK UNBOUND:                -0.224
REMARK  1 active torsions:
REMARK  status: ('A' for Active; 'I' for Inactive)
REMARK       I    between atoms: N_3  and  C_15 
REMARK    1  A    between atoms: N_3  and  C_10 
ROOT
HETATM    1  N   UNL     1       8.999   0.872  23.676  1.00  0.00    -0.258 N 
ATOM      2  HN  UNL     1       8.055   0.542  23.473  1.00  0.00     0.195 HD
HETATM    3  C   UNL     1      12.536   0.211  24.291  1.00  0.00     0.016 C 
HETATM    4  C   UNL     1      11.348   3.396  23.620  1.00  0.00     0.079 C 
HETATM    5  C   UNL     1      12.740  -0.992  23.672  1.00  0.00     0.003 C 
HETATM    6  C   UNL     1      11.714  -1.612  22.976  1.00  0.00     0.032 C 
HETATM    7  C   UNL     1      10.426  -1.136  23.092  1.00  0.00     0.064 C 
HETATM    8  C   UNL     1      11.279   0.862  24.062  1.00  0.00     0.026 C 
HETATM    9  C   UNL     1      10.730   2.139  23.989  1.00  0.00     0.085 C 
HETATM   10  C   UNL     1      10.173   0.161  23.662  1.00  0.00     0.094 C 
HETATM   11  O   UNL     1       9.380   2.060  24.010  1.00  0.00    -0.241 OA
ENDROOT
BRANCH   7  12
HETATM   12  N   UNL     1       9.277  -1.740  22.693  1.00  0.00    -0.325 N 
HETATM   13  C   UNL     1       8.673  -2.737  23.396  1.00  0.00     0.218 C 
HETATM   14  C   UNL     1       7.640  -3.480  22.583  1.00  0.00     0.117 C 
HETATM   15  O   UNL     1       8.874  -2.970  24.554  1.00  0.00    -0.274 OA
HETATM   16  H   UNL     1       8.976  -1.483  21.769  1.00  0.00     0.169 HD
ENDBRANCH   7  12
TORSDOF 1
ENDMDL
MODEL 4
REMARK VINA RESULT:    -5.132     21.972     23.211
REMARK INTER + INTRA:          -5.657
REMARK INTER:                  -5.585
REMARK INTRA:                  -0.072
REMARK UNBOUND:                -0.224
REMARK  1 active torsions:
REMARK  status: ('A' for Active; 'I' for Inactive)
REMARK       I    between atoms: N_3  and  C_15 
REMARK    1  A    between atoms: N_3  and  C_10 
ROOT
HETATM    1  N   UNL     1       0.745 -16.955  11.111  1.00  0.00    -0.258 N 
ATOM      2  HN  UNL     1       1.691 -17.243  11.358  1.00  0.00     0.195 HD
HETATM    3  C   UNL     1      -1.694 -15.826   8.640  1.00  0.00     0.016 C 
HETATM    4  C   UNL     1      -2.640 -16.961  11.775  1.00  0.00     0.079 C 
HETATM    5  C   UNL     1      -1.179 -16.290   7.461  1.00  0.00     0.003 C 
HETATM    6  C   UNL     1      -0.018 -17.047   7.445  1.00  0.00     0.032 C 
HETATM    7  C   UNL     1       0.747 -17.146   8.587  1.00  0.00     0.064 C 
HETATM    8  C   UNL     1      -1.073 -16.279   9.851  1.00  0.00     0.026 C 
HETATM    9  C   UNL     1      -1.384 -16.550  11.180  1.00  0.00     0.085 C 
HETATM   10  C   UNL     1       0.214 -16.746   9.863  1.00  0.00     0.094 C 
HETATM   11  O   UNL     1      -0.247 -16.695  11.897  1.00  0.00    -0.241 OA
ENDROOT
BRANCH   7  12
HETATM   12  N   UNL     1       2.012 -17.627   8.701  1.00  0.00    -0.325 N 
HETATM   13  C   UNL     1       2.332 -18.939   8.528  1.00  0.00     0.218 C 
HETATM   14  C   UNL     1       3.704 -19.278   9.057  1.00  0.00     0.117 C 
HETATM   15  O   UNL     1       1.643 -19.737   7.958  1.00  0.00    -0.274 OA
HETATM   16  H   UNL     1       2.675 -16.960   9.052  1.00  0.00     0.169 HD
ENDBRANCH   7  12
TORSDOF 1
ENDMDL
MODEL 5
REMARK VINA RESULT:    -5.118      2.629      3.950
REMARK INTER + INTRA:          -5.642
REMARK INTER:                  -5.556
REMARK INTRA:                  -0.086
REMARK UNBOUND:                -0.224
REMARK  1 active torsions:
REMARK  status: ('A' for Active; 'I' for Inactive)
REMARK       I    between atoms: N_3  and  C_15 
REMARK    1  A    between atoms: N_3  and  C_10 
ROOT
HETATM    1  N   UNL     1       8.484  -2.567  22.178  1.00  0.00    -0.258 N 
ATOM      2  HN  UNL     1       7.991  -2.726  21.298  1.00  0.00     0.195 HD
HETATM    3  C   UNL     1      11.095  -0.897  24.105  1.00  0.00     0.016 C 
HETATM    4  C   UNL     1       8.527  -2.659  25.625  1.00  0.00     0.079 C 
HETATM    5  C   UNL     1      11.311   0.256  23.402  1.00  0.00     0.003 C 
HETATM    6  C   UNL     1      10.557   0.551  22.277  1.00  0.00     0.032 C 
HETATM    7  C   UNL     1       9.740  -0.416  21.731  1.00  0.00     0.064 C 
HETATM    8  C   UNL     1       9.968  -1.697  23.723  1.00  0.00     0.026 C 
HETATM    9  C   UNL     1       9.041  -2.577  24.273  1.00  0.00     0.085 C 
HETATM   10  C   UNL     1       9.420  -1.608  22.471  1.00  0.00     0.094 C 
HETATM   11  O   UNL     1       8.379  -3.222  23.287  1.00  0.00    -0.241 OA
ENDROOT
BRANCH   7  12
HETATM   12  N   UNL     1       9.125  -0.398  20.520  1.00  0.00    -0.325 N 
HETATM   13  C   UNL     1       8.078   0.420  20.225  1.00  0.00     0.218 C 
HETATM   14  C   UNL     1       7.350   0.003  18.970  1.00  0.00     0.117 C 
HETATM   15  O   UNL     1       7.793   1.408  20.841  1.00  0.00    -0.274 OA
HETATM   16  H   UNL     1       9.421  -1.130  19.898  1.00  0.00     0.169 HD
ENDBRANCH   7  12
TORSDOF 1
ENDMDL
MODEL 6
REMARK VINA RESULT:    -5.073      2.972      4.177
REMARK INTER + INTRA:          -5.594
REMARK INTER:                  -5.375
REMARK INTRA:                  -0.219
REMARK UNBOUND:                -0.224
REMARK  1 active torsions:
REMARK  status: ('A' for Active; 'I' for Inactive)
REMARK       I    between atoms: N_3  and  C_15 
REMARK    1  A    between atoms: N_3  and  C_10 
ROOT
HETATM    1  N   UNL     1       6.597  -1.795  21.466  1.00  0.00    -0.258 N 
ATOM      2  HN  UNL     1       6.128  -2.618  21.844  1.00  0.00     0.195 HD
HETATM    3  C   UNL     1       9.399   0.545  21.455  1.00  0.00     0.016 C 
HETATM    4  C   UNL     1       7.096   0.418  18.868  1.00  0.00     0.079 C 
HETATM    5  C   UNL     1      10.418  -0.188  21.997  1.00  0.00     0.003 C 
HETATM    6  C   UNL     1      10.228  -1.516  22.344  1.00  0.00     0.032 C 
HETATM    7  C   UNL     1       8.954  -2.042  22.355  1.00  0.00     0.064 C 
HETATM    8  C   UNL     1       8.191  -0.154  21.125  1.00  0.00     0.026 C 
HETATM    9  C   UNL     1       7.136  -0.106  20.219  1.00  0.00     0.085 C 
HETATM   10  C   UNL     1       7.867  -1.343  21.724  1.00  0.00     0.094 C 
HETATM   11  O   UNL     1       6.141  -0.924  20.627  1.00  0.00    -0.241 OA
ENDROOT
BRANCH   7  12
HETATM   12  N   UNL     1       8.547  -3.224  22.889  1.00  0.00    -0.325 N 
HETATM   13  C   UNL     1       8.429  -3.438  24.227  1.00  0.00     0.218 C 
HETATM   14  C   UNL     1       8.319  -4.903  24.575  1.00  0.00     0.117 C 
HETATM   15  O   UNL     1       8.347  -2.570  25.050  1.00  0.00    -0.274 OA
HETATM   16  H   UNL     1       8.465  -3.969  22.221  1.00  0.00     0.169 HD
ENDBRANCH   7  12
TORSDOF 1
ENDMDL
MODEL 7
REMARK VINA RESULT:    -5.057     29.037     30.113
REMARK INTER + INTRA:          -5.577
REMARK INTER:                  -5.352
REMARK INTRA:                  -0.226
REMARK UNBOUND:                -0.224
REMARK  1 active torsions:
REMARK  status: ('A' for Active; 'I' for Inactive)
REMARK       I    between atoms: N_3  and  C_15 
REMARK    1  A    between atoms: N_3  and  C_10 
ROOT
HETATM    1  N   UNL     1      10.873  19.069   2.891  1.00  0.00    -0.258 N 
ATOM      2  HN  UNL     1      11.180  18.483   3.667  1.00  0.00     0.195 HD
HETATM    3  C   UNL     1       8.856  19.575  -0.109  1.00  0.00     0.016 C 
HETATM    4  C   UNL     1      10.415  22.203   1.525  1.00  0.00     0.079 C 
HETATM    5  C   UNL     1       7.825  18.692   0.056  1.00  0.00     0.003 C 
HETATM    6  C   UNL     1       7.730  17.922   1.205  1.00  0.00     0.032 C 
HETATM    7  C   UNL     1       8.791  17.877   2.085  1.00  0.00     0.064 C 
HETATM    8  C   UNL     1       9.734  19.777   1.007  1.00  0.00     0.026 C 
HETATM    9  C   UNL     1      10.536  20.760   1.577  1.00  0.00     0.085 C 
HETATM   10  C   UNL     1       9.857  18.839   1.998  1.00  0.00     0.094 C 
HETATM   11  O   UNL     1      11.346  20.209   2.509  1.00  0.00    -0.241 OA
ENDROOT
BRANCH   7  12
HETATM   12  N   UNL     1       8.980  17.012   3.115  1.00  0.00    -0.325 N 
HETATM   13  C   UNL     1       9.402  15.729   2.947  1.00  0.00     0.218 C 
HETATM   14  C   UNL     1       9.186  14.880   4.176  1.00  0.00     0.117 C 
HETATM   15  O   UNL     1       9.953  15.318   1.965  1.00  0.00    -0.274 OA
HETATM   16  H   UNL     1       8.657  17.354   4.003  1.00  0.00     0.169 HD
ENDBRANCH   7  12
TORSDOF 1
ENDMDL
MODEL 8
REMARK VINA RESULT:    -4.972      4.008      6.349
REMARK INTER + INTRA:          -5.488
REMARK INTER:                  -5.264
REMARK INTRA:                  -0.223
REMARK UNBOUND:                -0.224
REMARK  1 active torsions:
REMARK  status: ('A' for Active; 'I' for Inactive)
REMARK       I    between atoms: N_3  and  C_15 
REMARK    1  A    between atoms: N_3  and  C_10 
ROOT
HETATM    1  N   UNL     1       8.866   2.565  21.814  1.00  0.00    -0.258 N 
ATOM      2  HN  UNL     1       8.614   3.553  21.869  1.00  0.00     0.195 HD
HETATM    3  C   UNL     1      11.102  -0.199  22.641  1.00  0.00     0.016 C 
HETATM    4  C   UNL     1       7.940  -0.720  21.324  1.00  0.00     0.079 C 
HETATM    5  C   UNL     1      11.710   0.226  23.791  1.00  0.00     0.003 C 
HETATM    6  C   UNL     1      11.361   1.436  24.370  1.00  0.00     0.032 C 
HETATM    7  C   UNL     1      10.565   2.321  23.674  1.00  0.00     0.064 C 
HETATM    8  C   UNL     1       9.999   0.579  22.156  1.00  0.00     0.026 C 
HETATM    9  C   UNL     1       8.812   0.430  21.445  1.00  0.00     0.085 C 
HETATM   10  C   UNL     1       9.842   1.894  22.506  1.00  0.00     0.094 C 
HETATM   11  O   UNL     1       8.342   1.643  21.077  1.00  0.00    -0.241 OA
ENDROOT
BRANCH   7  12
HETATM   12  N   UNL     1      10.322   3.626  23.965  1.00  0.00    -0.325 N 
HETATM   13  C   UNL     1      11.226   4.620  23.753  1.00  0.00     0.218 C 
HETATM   14  C   UNL     1      10.870   5.895  24.479  1.00  0.00     0.117 C 
HETATM   15  O   UNL     1      12.169   4.536  23.017  1.00  0.00    -0.274 OA
HETATM   16  H   UNL     1       9.468   3.781  24.471  1.00  0.00     0.169 HD
ENDBRANCH   7  12
TORSDOF 1
ENDMDL
MODEL 9
REMARK VINA RESULT:    -4.924      3.678      5.161
REMARK INTER + INTRA:          -5.436
REMARK INTER:                  -5.212
REMARK INTRA:                  -0.224
REMARK UNBOUND:                -0.224
REMARK  1 active torsions:
REMARK  status: ('A' for Active; 'I' for Inactive)
REMARK       I    between atoms: N_3  and  C_15 
REMARK    1  A    between atoms: N_3  and  C_10 
ROOT
HETATM    1  N   UNL     1       5.692  -2.373  21.601  1.00  0.00    -0.258 N 
ATOM      2  HN  UNL     1       4.796  -2.111  21.189  1.00  0.00     0.195 HD
HETATM    3  C   UNL     1       9.255  -1.769  22.113  1.00  0.00     0.016 C 
HETATM    4  C   UNL     1       7.476  -4.030  24.043  1.00  0.00     0.079 C 
HETATM    5  C   UNL     1       9.375  -0.422  21.907  1.00  0.00     0.003 C 
HETATM    6  C   UNL     1       8.259   0.355  21.638  1.00  0.00     0.032 C 
HETATM    7  C   UNL     1       7.056  -0.255  21.353  1.00  0.00     0.064 C 
HETATM    8  C   UNL     1       7.928  -2.306  22.188  1.00  0.00     0.026 C 
HETATM    9  C   UNL     1       7.221  -3.339  22.795  1.00  0.00     0.085 C 
HETATM   10  C   UNL     1       6.860  -1.653  21.631  1.00  0.00     0.094 C 
HETATM   11  O   UNL     1       6.003  -3.462  22.222  1.00  0.00    -0.241 OA
ENDROOT
BRANCH   7  12
HETATM   12  N   UNL     1       5.936   0.315  20.837  1.00  0.00    -0.325 N 
HETATM   13  C   UNL     1       5.807   0.656  19.526  1.00  0.00     0.218 C 
HETATM   14  C   UNL     1       4.644   1.586  19.278  1.00  0.00     0.117 C 
HETATM   15  O   UNL     1       6.487   0.220  18.640  1.00  0.00    -0.274 OA
HETATM   16  H   UNL     1       5.258   0.586  21.527  1.00  0.00     0.169 HD
ENDBRANCH   7  12
TORSDOF 1
ENDMDL
