stable:False satoms:9 tatoms:24 sratio:0.375
  -OEChem-07092417433D

 24 26  0     1  0  0  0  0  0999 V2000
    6.4349   -4.9112   26.4728 Cl  0  0  0  0  0  0  0  0  0  0  0  0
    8.2104   -4.3067   26.1013 S   0  0  0  0  0  0  0  0  0  0  0  0
    9.0200   -5.4663   25.9378 O   0  0  0  0  0  0  0  0  0  0  0  0
    8.5872   -3.4569   27.1846 O   0  0  0  0  0  0  0  0  0  0  0  0
    8.1732   -3.4744   24.7288 N   0  0  0  0  0  0  0  0  0  0  0  0
    8.8977   -2.8009   24.1428 C   0  0  0  0  0  0  0  0  0  0  0  0
    9.4502   -1.8357   23.4332 C   0  0  0  0  0  0  0  0  0  0  0  0
   10.6360   -1.0879   23.2824 C   0  0  1  0  0  0  0  0  0  0  0  0
   11.1214   -0.2914   24.1008 C   0  0  0  0  0  0  0  0  0  0  0  0
   12.8852    0.6817   24.0920 H   0  0  0  0  0  0  0  0  0  0  0  0
   12.6086   -0.1188   23.6423 C   0  0  0  0  0  0  0  0  0  0  0  0
   12.7105   -1.0898   22.8073 C   0  0  0  0  0  0  0  0  0  0  0  0
   11.7299   -1.7010   22.6344 O   0  0  0  0  0  0  0  0  0  0  0  0
    9.5840   -0.8467   22.5057 C   0  0  3  0  0  0  0  0  0  0  0  0
    9.0151   -0.0574   21.3619 C   0  0  0  0  0  0  0  0  0  0  0  0
    9.6559    0.8112   20.8640 O   0  0  0  0  0  0  0  0  0  0  0  0
    7.8406   -0.5056   21.1239 N   0  0  0  0  0  0  0  0  0  0  0  0
    7.1486   -0.0430   20.2029 C   0  0  0  0  0  0  0  0  0  0  0  0
    7.2073   -0.0175   18.8669 C   0  0  0  0  0  0  0  0  0  0  0  0
    6.7928    0.2008   17.7611 N   0  0  0  0  0  0  0  0  0  0  0  0
    5.6854    0.7363   18.2131 C   0  0  0  0  0  0  0  0  0  0  0  0
    5.2928    0.9274   19.3443 C   0  0  0  0  0  0  0  0  0  0  0  0
    5.7717    0.6184   20.5126 C   0  0  0  0  0  0  0  0  0  0  0  0
    5.1245    0.7453   21.9799 Cl  0  0  0  0  0  0  0  0  0  0  0  0
 20 21  2  0  0  0  0
 19 20  1  0  0  0  0
 21 22  1  0  0  0  0
 18 19  2  0  0  0  0
 22 23  2  0  0  0  0
 18 23  1  0  0  0  0
 17 18  1  0  0  0  0
 23 24  1  0  0  0  0
 15 16  2  0  0  0  0
 15 17  1  0  0  0  0
 14 15  1  0  0  0  0
  8 14  1  0  0  0  0
  7 14  1  0  0  0  0
 12 13  1  0  0  0  0
  8 13  1  0  0  0  0
 11 12  2  0  0  0  0
  7  8  1  0  0  0  0
  8  9  1  0  0  0  0
  6  7  2  3  0  0  0
 10 11  1  0  0  0  0
  9 11  1  0  0  0  0
  5  6  1  0  0  0  0
  2  5  1  0  0  0  0
  2  3  2  0  0  0  0
  1  2  1  0  0  0  0
  2  4  2  0  0  0  0
M  END
> <Shapegauss>
-273.004028

$$$$
