stable:False satoms:9 tatoms:24 sratio:0.375
  -OEChem-08062409473D

 34 36  0     1  0  0  0  0  0999 V2000
   -6.5881   -5.5115  -26.2783 Cl  0  0  0  0  0  0  0  0  0  0  0  0
   -8.3606   -4.8587  -25.9822 S   0  0  0  0  0  0  0  0  0  0  0  0
   -9.1858   -5.9916  -25.7322 O   0  0  0  0  0  0  0  0  0  0  0  0
   -8.7142   -4.0993  -27.1380 O   0  0  0  0  0  0  0  0  0  0  0  0
   -8.3301   -3.9141  -24.6843 N   0  0  0  0  0  0  0  0  0  0  0  0
   -9.0536   -3.1858  -24.1665 C   0  0  0  0  0  0  0  0  0  0  0  0
   -9.6031   -2.1582  -23.5480 C   0  0  0  0  0  0  0  0  0  0  0  0
  -10.7817   -1.3876  -23.4761 C   0  0  1  0  0  0  0  0  0  0  0  0
  -11.2477   -0.6578  -24.3649 C   0  0  0  0  0  0  0  0  0  0  0  0
  -12.9998    0.3315  -24.4610 H   0  0  0  0  0  0  0  0  0  0  0  0
  -12.7382   -0.4311  -23.9420 C   0  0  0  0  0  0  0  0  0  0  0  0
  -12.8617   -1.3271  -23.0296 C   0  0  0  0  0  0  0  0  0  0  0  0
  -11.8905   -1.9321  -22.7931 O   0  0  0  0  0  0  0  0  0  0  0  0
   -9.7364   -1.0932  -22.7089 C   0  0  3  0  0  0  0  0  0  0  0  0
   -9.1720   -0.2164  -21.6283 C   0  0  0  0  0  0  0  0  0  0  0  0
   -9.8084    0.6980  -21.2137 O   0  0  0  0  0  0  0  0  0  0  0  0
   -8.0058   -0.6556  -21.3381 N   0  0  0  0  0  0  0  0  0  0  0  0
   -7.3195   -0.1244  -20.4504 C   0  0  0  0  0  0  0  0  0  0  0  0
   -7.3940    0.0143  -19.1222 C   0  0  0  0  0  0  0  0  0  0  0  0
   -6.9903    0.3206  -18.0334 N   0  0  0  0  0  0  0  0  0  0  0  0
   -5.8713    0.8041  -18.5144 C   0  0  0  0  0  0  0  0  0  0  0  0
   -5.4628    0.8948  -19.6525 C   0  0  0  0  0  0  0  0  0  0  0  0
   -5.9313    0.4936  -20.7968 C   0  0  0  0  0  0  0  0  0  0  0  0
   -5.2650    0.4893  -22.2610 Cl  0  0  0  0  0  0  0  0  0  0  0  0
   -7.5328   -3.3362  -24.8586 H   0  0  0  0  0  0  0  0  0  0  0  0
   -9.9428   -3.7937  -24.2442 H   0  0  0  0  0  0  0  0  0  0  0  0
  -10.7055    0.2983  -24.4073 H   0  0  0  0  0  0  0  0  0  0  0  0
  -11.1926   -1.1544  -25.3449 H   0  0  0  0  0  0  0  0  0  0  0  0
  -13.7955   -1.5079  -22.5182 H   0  0  0  0  0  0  0  0  0  0  0  0
   -9.3414   -0.4171  -23.4815 H   0  0  0  0  0  0  0  0  0  0  0  0
   -7.6401   -1.4419  -21.8361 H   0  0  0  0  0  0  0  0  0  0  0  0
   -8.3808   -0.3668  -18.9045 H   0  0  0  0  0  0  0  0  0  0  0  0
   -5.1943    1.1891  -17.7662 H   0  0  0  0  0  0  0  0  0  0  0  0
   -4.5191    1.4140  -19.7314 H   0  0  0  0  0  0  0  0  0  0  0  0
 20 21  2  0  0  0  0
 19 20  1  0  0  0  0
 21 22  1  0  0  0  0
 18 19  2  0  0  0  0
 22 23  2  0  0  0  0
 18 23  1  0  0  0  0
 17 18  1  0  0  0  0
 23 24  1  0  0  0  0
 15 16  2  0  0  0  0
 15 17  1  0  0  0  0
 14 15  1  0  0  0  0
  8 14  1  0  0  0  0
  7 14  1  0  0  0  0
 12 13  1  0  0  0  0
  8 13  1  0  0  0  0
 11 12  2  0  0  0  0
  7  8  1  0  0  0  0
  8  9  1  0  0  0  0
  6  7  2  3  0  0  0
 10 11  1  0  0  0  0
  9 11  1  0  0  0  0
  5  6  1  0  0  0  0
  2  5  1  0  0  0  0
  2  3  2  0  0  0  0
  1  2  1  0  0  0  0
  2  4  2  0  0  0  0
  5 25  1  0  0  0  0
  6 26  1  0  0  0  0
  9 27  1  0  0  0  0
  9 28  1  0  0  0  0
 12 29  1  0  0  0  0
 14 30  1  0  0  0  0
 17 31  1  0  0  0  0
 19 32  1  0  0  0  0
 21 33  1  0  0  0  0
 22 34  1  0  0  0  0
M  END
> <Chemgauss4>
-11.755977

$$$$
