stable:False satoms:9 tatoms:24 sratio:0.375
  -OEChem-08062409473D

 34 36  0     1  0  0  0  0  0999 V2000
    6.4223   -5.4746   26.2286 Cl  0  0  0  0  0  0  0  0  0  0  0  0
    8.1949   -4.8218   25.9325 S   0  0  0  0  0  0  0  0  0  0  0  0
    9.0201   -5.9547   25.6825 O   0  0  0  0  0  0  0  0  0  0  0  0
    8.5485   -4.0624   27.0883 O   0  0  0  0  0  0  0  0  0  0  0  0
    8.1644   -3.8772   24.6346 N   0  0  0  0  0  0  0  0  0  0  0  0
    8.8879   -3.1488   24.1168 C   0  0  0  0  0  0  0  0  0  0  0  0
    9.4374   -2.1213   23.4983 C   0  0  0  0  0  0  0  0  0  0  0  0
   10.6160   -1.3507   23.4264 C   0  0  1  0  0  0  0  0  0  0  0  0
   11.0820   -0.6209   24.3152 C   0  0  0  0  0  0  0  0  0  0  0  0
   12.8341    0.3685   24.4113 H   0  0  0  0  0  0  0  0  0  0  0  0
   12.5725   -0.3942   23.8923 C   0  0  0  0  0  0  0  0  0  0  0  0
   12.6959   -1.2902   22.9799 C   0  0  0  0  0  0  0  0  0  0  0  0
   11.7248   -1.8951   22.7434 O   0  0  0  0  0  0  0  0  0  0  0  0
    9.5706   -1.0562   22.6592 C   0  0  3  0  0  0  0  0  0  0  0  0
    9.0063   -0.1795   21.5786 C   0  0  0  0  0  0  0  0  0  0  0  0
    9.6427    0.7349   21.1640 O   0  0  0  0  0  0  0  0  0  0  0  0
    7.8401   -0.6186   21.2884 N   0  0  0  0  0  0  0  0  0  0  0  0
    7.1538   -0.0875   20.4007 C   0  0  0  0  0  0  0  0  0  0  0  0
    7.2283    0.0512   19.0725 C   0  0  0  0  0  0  0  0  0  0  0  0
    6.8246    0.3575   17.9837 N   0  0  0  0  0  0  0  0  0  0  0  0
    5.7056    0.8410   18.4648 C   0  0  0  0  0  0  0  0  0  0  0  0
    5.2971    0.9318   19.6028 C   0  0  0  0  0  0  0  0  0  0  0  0
    5.7656    0.5305   20.7471 C   0  0  0  0  0  0  0  0  0  0  0  0
    5.0993    0.5262   22.2113 Cl  0  0  0  0  0  0  0  0  0  0  0  0
    7.3671   -3.2993   24.8089 H   0  0  0  0  0  0  0  0  0  0  0  0
    9.7771   -3.7568   24.1945 H   0  0  0  0  0  0  0  0  0  0  0  0
   10.5398    0.3353   24.3577 H   0  0  0  0  0  0  0  0  0  0  0  0
   11.0268   -1.1175   25.2952 H   0  0  0  0  0  0  0  0  0  0  0  0
   13.6298   -1.4710   22.4685 H   0  0  0  0  0  0  0  0  0  0  0  0
    9.1757   -0.3801   23.4318 H   0  0  0  0  0  0  0  0  0  0  0  0
    7.4744   -1.4050   21.7864 H   0  0  0  0  0  0  0  0  0  0  0  0
    8.2151   -0.3299   18.8548 H   0  0  0  0  0  0  0  0  0  0  0  0
    5.0286    1.2260   17.7165 H   0  0  0  0  0  0  0  0  0  0  0  0
    4.3534    1.4509   19.6818 H   0  0  0  0  0  0  0  0  0  0  0  0
 20 21  2  0  0  0  0
 19 20  1  0  0  0  0
 21 22  1  0  0  0  0
 18 19  2  0  0  0  0
 22 23  2  0  0  0  0
 18 23  1  0  0  0  0
 17 18  1  0  0  0  0
 23 24  1  0  0  0  0
 15 16  2  0  0  0  0
 15 17  1  0  0  0  0
 14 15  1  0  0  0  0
  8 14  1  0  0  0  0
  7 14  1  0  0  0  0
 12 13  1  0  0  0  0
  8 13  1  0  0  0  0
 11 12  2  0  0  0  0
  7  8  1  0  0  0  0
  8  9  1  0  0  0  0
  6  7  2  3  0  0  0
 10 11  1  0  0  0  0
  9 11  1  0  0  0  0
  5  6  1  0  0  0  0
  2  5  1  0  0  0  0
  2  3  2  0  0  0  0
  1  2  1  0  0  0  0
  2  4  2  0  0  0  0
  5 25  1  0  0  0  0
  6 26  1  0  0  0  0
  9 27  1  0  0  0  0
  9 28  1  0  0  0  0
 12 29  1  0  0  0  0
 14 30  1  0  0  0  0
 17 31  1  0  0  0  0
 19 32  1  0  0  0  0
 21 33  1  0  0  0  0
 22 34  1  0  0  0  0
M  END
> <Chemgauss4>
-11.782349

$$$$
