MODEL 1
REMARK VINA RESULT:    -5.714      0.000      0.000
REMARK INTER + INTRA:          -9.461
REMARK INTER:                  -8.219
REMARK INTRA:                  -1.242
REMARK UNBOUND:                -1.242
REMARK  8 active torsions:
REMARK  status: ('A' for Active; 'I' for Inactive)
REMARK    1  A    between atoms: C_2  and  S_5 
REMARK    2  A    between atoms: S_5  and  C_6 
REMARK    3  A    between atoms: N_7  and  N_9 
REMARK    4  A    between atoms: O_11  and  C_15 
REMARK    5  A    between atoms: O_11  and  C_12 
REMARK    6  A    between atoms: C_12  and  O_13 
REMARK    7  A    between atoms: C_15  and  C_16 
REMARK       I    between atoms: C_16  and  N_18 
REMARK    8  A    between atoms: C_20  and  C_24 
ROOT
HETATM    1  N   UNL     1       6.390  -0.452  21.558  1.00  0.00    -0.275 N 
ATOM      2  HN  UNL     1       5.602  -0.760  20.987  1.00  0.00     0.189 HD
HETATM    3  C   UNL     1       7.078  -1.273  22.131  1.00  0.00     0.229 C 
ENDROOT
BRANCH   3   4
HETATM    4  O   UNL     1       8.251  -0.721  22.668  1.00  0.00    -0.305 OA
BRANCH   4   5
HETATM    5  C   UNL     1       9.556  -0.838  22.235  1.00  0.00     0.343 C 
BRANCH   5   6
HETATM    6  O   UNL     1       9.946  -1.887  21.652  1.00  0.00    -0.377 OA
HETATM    7  H   UNL     1      10.492  -1.527  20.867  1.00  0.00     0.212 HD
ENDBRANCH   5   6
ENDBRANCH   4   5
ENDBRANCH   3   4
BRANCH   3   8
HETATM    8  C   UNL     1       6.651  -2.780  21.955  1.00  0.00     0.297 C 
HETATM    9  O   UNL     1       5.603  -3.041  21.456  1.00  0.00    -0.263 OA
HETATM   10  N   UNL     1       7.566  -3.644  22.433  1.00  0.00    -0.329 N 
HETATM   11  C   UNL     1       7.335  -4.949  22.672  1.00  0.00     0.108 C 
ATOM     12  HN  UNL     1       8.501  -3.285  22.627  1.00  0.00     0.168 HD
BRANCH  11  13
HETATM   13  C   UNL     1       6.949  -5.768  21.651  1.00  0.00     0.097 C 
HETATM   14  N   UNL     1       5.722  -6.233  21.531  1.00  0.00    -0.407 N 
HETATM   15  H   UNL     1       5.242  -6.680  20.819  1.00  0.00     0.155 HD
HETATM   16  H   UNL     1       5.046  -5.882  22.226  1.00  0.00     0.155 HD
ENDBRANCH  11  13
ENDBRANCH   3   8
BRANCH   1  17
HETATM   17  N   UNL     1       6.642   0.774  21.662  1.00  0.00    -0.303 N 
HETATM   18  C   UNL     1       5.995   1.260  20.811  1.00  0.00     0.164 C 
ATOM     19  HN  UNL     1       7.261   1.237  22.327  1.00  0.00     0.186 HD
BRANCH  18  20
HETATM   20  S   UNL     1       5.040   1.292  19.588  1.00  0.00     0.014 SA
BRANCH  20  21
HETATM   21  C   UNL     1       6.204   0.724  18.219  1.00  0.00     0.426 C 
HETATM   22  F   UNL     1       6.092   1.667  17.266  1.00  0.00    -0.133 F 
HETATM   23  O   UNL     1       7.353   0.610  18.634  1.00  0.00    -0.221 OA
HETATM   24  F   UNL     1       5.814  -0.442  17.656  1.00  0.00    -0.133 F 
ENDBRANCH  20  21
ENDBRANCH  18  20
ENDBRANCH   1  17
TORSDOF 8
ENDMDL
MODEL 2
REMARK VINA RESULT:    -5.564      4.073      6.105
REMARK INTER + INTRA:          -9.245
REMARK INTER:                  -8.561
REMARK INTRA:                  -0.684
REMARK UNBOUND:                -1.242
REMARK  8 active torsions:
REMARK  status: ('A' for Active; 'I' for Inactive)
REMARK    1  A    between atoms: C_2  and  S_5 
REMARK    2  A    between atoms: S_5  and  C_6 
REMARK    3  A    between atoms: N_7  and  N_9 
REMARK    4  A    between atoms: O_11  and  C_15 
REMARK    5  A    between atoms: O_11  and  C_12 
REMARK    6  A    between atoms: C_12  and  O_13 
REMARK    7  A    between atoms: C_15  and  C_16 
REMARK       I    between atoms: C_16  and  N_18 
REMARK    8  A    between atoms: C_20  and  C_24 
ROOT
HETATM    1  N   UNL     1       8.992  -1.561  21.979  1.00  0.00    -0.275 N 
ATOM      2  HN  UNL     1       9.669  -1.241  21.286  1.00  0.00     0.189 HD
HETATM    3  C   UNL     1       7.817  -1.280  21.847  1.00  0.00     0.229 C 
ENDROOT
BRANCH   3   4
HETATM    4  O   UNL     1       6.986  -1.987  22.731  1.00  0.00    -0.305 OA
BRANCH   4   5
HETATM    5  C   UNL     1       6.099  -3.011  22.475  1.00  0.00     0.343 C 
BRANCH   5   6
HETATM    6  O   UNL     1       5.221  -2.889  21.578  1.00  0.00    -0.377 OA
HETATM    7  H   UNL     1       5.214  -1.883  21.395  1.00  0.00     0.212 HD
ENDBRANCH   5   6
ENDBRANCH   4   5
ENDBRANCH   3   4
BRANCH   3   8
HETATM    8  C   UNL     1       7.450  -0.395  20.595  1.00  0.00     0.297 C 
HETATM    9  O   UNL     1       8.315   0.000  19.880  1.00  0.00    -0.263 OA
HETATM   10  N   UNL     1       6.128  -0.163  20.486  1.00  0.00    -0.329 N 
HETATM   11  C   UNL     1       5.581   0.781  19.697  1.00  0.00     0.108 C 
ATOM     12  HN  UNL     1       5.498  -0.744  21.039  1.00  0.00     0.168 HD
BRANCH  11  13
HETATM   13  C   UNL     1       5.787   0.743  18.349  1.00  0.00     0.097 C 
HETATM   14  N   UNL     1       5.768  -0.376  17.653  1.00  0.00    -0.407 N 
HETATM   15  H   UNL     1       5.739  -0.575  16.706  1.00  0.00     0.155 HD
HETATM   16  H   UNL     1       5.517  -1.223  18.185  1.00  0.00     0.155 HD
ENDBRANCH  11  13
ENDBRANCH   3   8
BRANCH   1  17
HETATM   17  N   UNL     1       9.378  -2.241  22.961  1.00  0.00    -0.303 N 
HETATM   18  C   UNL     1      10.513  -1.958  23.061  1.00  0.00     0.164 C 
ATOM     19  HN  UNL     1       8.835  -2.887  23.535  1.00  0.00     0.186 HD
BRANCH  18  20
HETATM   20  S   UNL     1      11.851  -1.274  22.674  1.00  0.00     0.014 SA
BRANCH  20  21
HETATM   21  C   UNL     1      12.087  -0.111  24.138  1.00  0.00     0.426 C 
HETATM   22  F   UNL     1      11.132  -0.471  25.015  1.00  0.00    -0.133 F 
HETATM   23  O   UNL     1      13.217  -0.214  24.606  1.00  0.00    -0.221 OA
HETATM   24  F   UNL     1      11.851   1.180  23.819  1.00  0.00    -0.133 F 
ENDBRANCH  20  21
ENDBRANCH  18  20
ENDBRANCH   1  17
TORSDOF 8
ENDMDL
MODEL 3
REMARK VINA RESULT:    -5.544      3.526      6.038
REMARK INTER + INTRA:          -9.216
REMARK INTER:                  -8.487
REMARK INTRA:                  -0.729
REMARK UNBOUND:                -1.242
REMARK  8 active torsions:
REMARK  status: ('A' for Active; 'I' for Inactive)
REMARK    1  A    between atoms: C_2  and  S_5 
REMARK    2  A    between atoms: S_5  and  C_6 
REMARK    3  A    between atoms: N_7  and  N_9 
REMARK    4  A    between atoms: O_11  and  C_15 
REMARK    5  A    between atoms: O_11  and  C_12 
REMARK    6  A    between atoms: C_12  and  O_13 
REMARK    7  A    between atoms: C_15  and  C_16 
REMARK       I    between atoms: C_16  and  N_18 
REMARK    8  A    between atoms: C_20  and  C_24 
ROOT
HETATM    1  N   UNL     1       6.581  -1.232  21.198  1.00  0.00    -0.275 N 
ATOM      2  HN  UNL     1       7.317  -1.577  21.813  1.00  0.00     0.189 HD
HETATM    3  C   UNL     1       6.676  -0.127  20.702  1.00  0.00     0.229 C 
ENDROOT
BRANCH   3   4
HETATM    4  O   UNL     1       5.721   0.105  19.700  1.00  0.00    -0.305 OA
BRANCH   4   5
HETATM    5  C   UNL     1       5.893   0.260  18.340  1.00  0.00     0.343 C 
BRANCH   5   6
HETATM    6  O   UNL     1       5.704  -0.710  17.557  1.00  0.00    -0.377 OA
HETATM    7  H   UNL     1       5.885  -1.525  18.147  1.00  0.00     0.212 HD
ENDBRANCH   5   6
ENDBRANCH   4   5
ENDBRANCH   3   4
BRANCH   3   8
HETATM    8  C   UNL     1       7.957   0.703  21.099  1.00  0.00     0.297 C 
HETATM    9  O   UNL     1       7.956   1.885  20.968  1.00  0.00    -0.263 OA
HETATM   10  N   UNL     1       8.964  -0.070  21.549  1.00  0.00    -0.329 N 
HETATM   11  C   UNL     1      10.241   0.337  21.676  1.00  0.00     0.108 C 
ATOM     12  HN  UNL     1       8.743  -1.031  21.812  1.00  0.00     0.168 HD
BRANCH  11  13
HETATM   13  C   UNL     1      10.541   1.382  22.500  1.00  0.00     0.097 C 
HETATM   14  N   UNL     1      10.698   2.616  22.064  1.00  0.00    -0.407 N 
HETATM   15  H   UNL     1      10.756   3.478  22.501  1.00  0.00     0.155 HD
HETATM   16  H   UNL     1      10.511   2.757  21.060  1.00  0.00     0.155 HD
ENDBRANCH  11  13
ENDBRANCH   3   8
BRANCH   1  17
HETATM   17  N   UNL     1       5.581  -1.953  20.957  1.00  0.00    -0.303 N 
HETATM   18  C   UNL     1       5.831  -2.960  21.507  1.00  0.00     0.164 C 
ATOM     19  HN  UNL     1       4.750  -1.720  20.413  1.00  0.00     0.186 HD
BRANCH  18  20
HETATM   20  S   UNL     1       6.687  -3.963  22.324  1.00  0.00     0.014 SA
BRANCH  20  21
HETATM   21  C   UNL     1       5.963  -5.602  21.739  1.00  0.00     0.426 C 
HETATM   22  F   UNL     1       6.825  -6.533  22.187  1.00  0.00    -0.133 F 
HETATM   23  O   UNL     1       4.827  -5.764  22.176  1.00  0.00    -0.221 OA
HETATM   24  F   UNL     1       5.944  -5.709  20.392  1.00  0.00    -0.133 F 
ENDBRANCH  20  21
ENDBRANCH  18  20
ENDBRANCH   1  17
TORSDOF 8
ENDMDL
MODEL 4
REMARK VINA RESULT:    -5.405     21.478     24.280
REMARK INTER + INTRA:          -9.016
REMARK INTER:                  -8.298
REMARK INTRA:                  -0.718
REMARK UNBOUND:                -1.242
REMARK  8 active torsions:
REMARK  status: ('A' for Active; 'I' for Inactive)
REMARK    1  A    between atoms: C_2  and  S_5 
REMARK    2  A    between atoms: S_5  and  C_6 
REMARK    3  A    between atoms: N_7  and  N_9 
REMARK    4  A    between atoms: O_11  and  C_15 
REMARK    5  A    between atoms: O_11  and  C_12 
REMARK    6  A    between atoms: C_12  and  O_13 
REMARK    7  A    between atoms: C_15  and  C_16 
REMARK       I    between atoms: C_16  and  N_18 
REMARK    8  A    between atoms: C_20  and  C_24 
ROOT
HETATM    1  N   UNL     1       8.623  13.166   2.808  1.00  0.00    -0.275 N 
ATOM      2  HN  UNL     1       8.054  13.185   1.962  1.00  0.00     0.189 HD
HETATM    3  C   UNL     1       9.317  14.122   3.090  1.00  0.00     0.229 C 
ENDROOT
BRANCH   3   4
HETATM    4  O   UNL     1       9.844  14.048   4.389  1.00  0.00    -0.305 OA
BRANCH   4   5
HETATM    5  C   UNL     1      10.826  14.812   4.984  1.00  0.00     0.343 C 
BRANCH   5   6
HETATM    6  O   UNL     1      12.043  14.601   4.731  1.00  0.00    -0.377 OA
HETATM    7  H   UNL     1      12.162  15.012   3.803  1.00  0.00     0.212 HD
ENDBRANCH   5   6
ENDBRANCH   4   5
ENDBRANCH   3   4
BRANCH   3   8
HETATM    8  C   UNL     1       9.290  15.324   2.070  1.00  0.00     0.297 C 
HETATM    9  O   UNL     1       9.785  15.195   0.996  1.00  0.00    -0.263 OA
HETATM   10  N   UNL     1       8.692  16.422   2.569  1.00  0.00    -0.329 N 
HETATM   11  C   UNL     1       8.787  17.654   2.035  1.00  0.00     0.108 C 
ATOM     12  HN  UNL     1       8.126  16.313   3.411  1.00  0.00     0.168 HD
BRANCH  11  13
HETATM   13  C   UNL     1       8.355  17.875   0.759  1.00  0.00     0.097 C 
HETATM   14  N   UNL     1       9.171  17.932  -0.274  1.00  0.00    -0.407 N 
HETATM   15  H   UNL     1       9.039  17.924  -1.233  1.00  0.00     0.155 HD
HETATM   16  H   UNL     1      10.161  17.728  -0.067  1.00  0.00     0.155 HD
ENDBRANCH  11  13
ENDBRANCH   3   8
BRANCH   1  17
HETATM   17  N   UNL     1       8.601  12.153   3.551  1.00  0.00    -0.303 N 
HETATM   18  C   UNL     1       7.769  11.478   3.070  1.00  0.00     0.164 C 
ATOM     19  HN  UNL     1       9.171  11.962   4.376  1.00  0.00     0.186 HD
BRANCH  18  20
HETATM   20  S   UNL     1       6.633  11.103   2.083  1.00  0.00     0.014 SA
BRANCH  20  21
HETATM   21  C   UNL     1       5.486  10.131   3.220  1.00  0.00     0.426 C 
HETATM   22  F   UNL     1       4.952   9.181   2.431  1.00  0.00    -0.133 F 
HETATM   23  O   UNL     1       6.102   9.661   4.172  1.00  0.00    -0.221 OA
HETATM   24  F   UNL     1       4.456  10.876   3.677  1.00  0.00    -0.133 F 
ENDBRANCH  20  21
ENDBRANCH  18  20
ENDBRANCH   1  17
TORSDOF 8
ENDMDL
MODEL 5
REMARK VINA RESULT:    -5.264      3.990      4.924
REMARK INTER + INTRA:          -8.814
REMARK INTER:                  -7.969
REMARK INTRA:                  -0.845
REMARK UNBOUND:                -1.242
REMARK  8 active torsions:
REMARK  status: ('A' for Active; 'I' for Inactive)
REMARK    1  A    between atoms: C_2  and  S_5 
REMARK    2  A    between atoms: S_5  and  C_6 
REMARK    3  A    between atoms: N_7  and  N_9 
REMARK    4  A    between atoms: O_11  and  C_15 
REMARK    5  A    between atoms: O_11  and  C_12 
REMARK    6  A    between atoms: C_12  and  O_13 
REMARK    7  A    between atoms: C_15  and  C_16 
REMARK       I    between atoms: C_16  and  N_18 
REMARK    8  A    between atoms: C_20  and  C_24 
ROOT
HETATM    1  N   UNL     1       8.211  -1.185  22.753  1.00  0.00    -0.275 N 
ATOM      2  HN  UNL     1       8.507  -1.851  23.468  1.00  0.00     0.189 HD
HETATM    3  C   UNL     1       7.401  -1.522  21.913  1.00  0.00     0.229 C 
ENDROOT
BRANCH   3   4
HETATM    4  O   UNL     1       6.917  -0.441  21.159  1.00  0.00    -0.305 OA
BRANCH   4   5
HETATM    5  C   UNL     1       7.305   0.006  19.913  1.00  0.00     0.343 C 
BRANCH   5   6
HETATM    6  O   UNL     1       8.521  -0.004  19.579  1.00  0.00    -0.377 OA
HETATM    7  H   UNL     1       8.484   0.108  18.564  1.00  0.00     0.212 HD
ENDBRANCH   5   6
ENDBRANCH   4   5
ENDBRANCH   3   4
BRANCH   3   8
HETATM    8  C   UNL     1       6.895  -3.013  21.995  1.00  0.00     0.297 C 
HETATM    9  O   UNL     1       5.809  -3.288  21.596  1.00  0.00    -0.263 OA
HETATM   10  N   UNL     1       7.797  -3.842  22.553  1.00  0.00    -0.329 N 
HETATM   11  C   UNL     1       7.520  -5.081  23.003  1.00  0.00     0.108 C 
ATOM     12  HN  UNL     1       8.757  -3.509  22.642  1.00  0.00     0.168 HD
BRANCH  11  13
HETATM   13  C   UNL     1       7.037  -6.023  22.142  1.00  0.00     0.097 C 
HETATM   14  N   UNL     1       5.772  -6.394  22.121  1.00  0.00    -0.407 N 
HETATM   15  H   UNL     1       5.236  -6.911  21.503  1.00  0.00     0.155 HD
HETATM   16  H   UNL     1       5.149  -5.873  22.757  1.00  0.00     0.155 HD
ENDBRANCH  11  13
ENDBRANCH   3   8
BRANCH   1  17
HETATM   17  N   UNL     1       8.687  -0.023  22.749  1.00  0.00    -0.303 N 
HETATM   18  C   UNL     1       9.828  -0.193  22.972  1.00  0.00     0.164 C 
ATOM     19  HN  UNL     1       8.200   0.859  22.591  1.00  0.00     0.186 HD
BRANCH  18  20
HETATM   20  S   UNL     1      11.107  -0.999  23.319  1.00  0.00     0.014 SA
BRANCH  20  21
HETATM   21  C   UNL     1      12.010   0.233  24.423  1.00  0.00     0.426 C 
HETATM   22  F   UNL     1      11.252   0.314  25.532  1.00  0.00    -0.133 F 
HETATM   23  O   UNL     1      13.154  -0.142  24.661  1.00  0.00    -0.221 OA
HETATM   24  F   UNL     1      12.048   1.475  23.891  1.00  0.00    -0.133 F 
ENDBRANCH  20  21
ENDBRANCH  18  20
ENDBRANCH   1  17
TORSDOF 8
ENDMDL
MODEL 6
REMARK VINA RESULT:    -5.118      4.492      5.505
REMARK INTER + INTRA:          -8.603
REMARK INTER:                  -7.088
REMARK INTRA:                  -1.515
REMARK UNBOUND:                -1.242
REMARK  8 active torsions:
REMARK  status: ('A' for Active; 'I' for Inactive)
REMARK    1  A    between atoms: C_2  and  S_5 
REMARK    2  A    between atoms: S_5  and  C_6 
REMARK    3  A    between atoms: N_7  and  N_9 
REMARK    4  A    between atoms: O_11  and  C_15 
REMARK    5  A    between atoms: O_11  and  C_12 
REMARK    6  A    between atoms: C_12  and  O_13 
REMARK    7  A    between atoms: C_15  and  C_16 
REMARK       I    between atoms: C_16  and  N_18 
REMARK    8  A    between atoms: C_20  and  C_24 
ROOT
HETATM    1  N   UNL     1       9.596  -2.639  23.035  1.00  0.00    -0.275 N 
ATOM      2  HN  UNL     1      10.275  -2.861  23.764  1.00  0.00     0.189 HD
HETATM    3  C   UNL     1       8.459  -3.059  23.121  1.00  0.00     0.229 C 
ENDROOT
BRANCH   3   4
HETATM    4  O   UNL     1       7.592  -2.476  22.185  1.00  0.00    -0.305 OA
BRANCH   4   5
HETATM    5  C   UNL     1       6.733  -1.406  22.329  1.00  0.00     0.343 C 
BRANCH   5   6
HETATM    6  O   UNL     1       6.462  -0.953  23.475  1.00  0.00    -0.377 OA
HETATM    7  H   UNL     1       5.952  -0.091  23.269  1.00  0.00     0.212 HD
ENDBRANCH   5   6
ENDBRANCH   4   5
ENDBRANCH   3   4
BRANCH   3   8
HETATM    8  C   UNL     1       8.146  -3.961  24.375  1.00  0.00     0.297 C 
HETATM    9  O   UNL     1       8.632  -5.043  24.459  1.00  0.00    -0.263 OA
HETATM   10  N   UNL     1       7.303  -3.374  25.245  1.00  0.00    -0.329 N 
HETATM   11  C   UNL     1       6.652  -4.018  26.232  1.00  0.00     0.108 C 
ATOM     12  HN  UNL     1       7.146  -2.370  25.150  1.00  0.00     0.168 HD
BRANCH  11  13
HETATM   13  C   UNL     1       7.360  -4.667  27.202  1.00  0.00     0.097 C 
HETATM   14  N   UNL     1       7.576  -5.967  27.183  1.00  0.00    -0.407 N 
HETATM   15  H   UNL     1       8.163  -6.555  27.679  1.00  0.00     0.155 HD
HETATM   16  H   UNL     1       7.230  -6.460  26.346  1.00  0.00     0.155 HD
ENDBRANCH  11  13
ENDBRANCH   3   8
BRANCH   1  17
HETATM   17  N   UNL     1       9.942  -1.933  22.056  1.00  0.00    -0.303 N 
HETATM   18  C   UNL     1      10.793  -1.252  22.495  1.00  0.00     0.164 C 
ATOM     19  HN  UNL     1       9.572  -1.947  21.105  1.00  0.00     0.186 HD
BRANCH  18  20
HETATM   20  S   UNL     1      11.724  -0.662  23.586  1.00  0.00     0.014 SA
BRANCH  20  21
HETATM   21  C   UNL     1      10.506   0.406  24.548  1.00  0.00     0.426 C 
HETATM   22  F   UNL     1      10.874   1.671  24.275  1.00  0.00    -0.133 F 
HETATM   23  O   UNL     1       9.349   0.170  24.212  1.00  0.00    -0.221 OA
HETATM   24  F   UNL     1      10.623   0.250  25.886  1.00  0.00    -0.133 F 
ENDBRANCH  20  21
ENDBRANCH  18  20
ENDBRANCH   1  17
TORSDOF 8
ENDMDL
MODEL 7
REMARK VINA RESULT:    -5.108     15.814     17.412
REMARK INTER + INTRA:          -8.589
REMARK INTER:                  -7.571
REMARK INTRA:                  -1.018
REMARK UNBOUND:                -1.242
REMARK  8 active torsions:
REMARK  status: ('A' for Active; 'I' for Inactive)
REMARK    1  A    between atoms: C_2  and  S_5 
REMARK    2  A    between atoms: S_5  and  C_6 
REMARK    3  A    between atoms: N_7  and  N_9 
REMARK    4  A    between atoms: O_11  and  C_15 
REMARK    5  A    between atoms: O_11  and  C_12 
REMARK    6  A    between atoms: C_12  and  O_13 
REMARK    7  A    between atoms: C_15  and  C_16 
REMARK       I    between atoms: C_16  and  N_18 
REMARK    8  A    between atoms: C_20  and  C_24 
ROOT
HETATM    1  N   UNL     1      23.201  -2.153  27.479  1.00  0.00    -0.275 N 
ATOM      2  HN  UNL     1      22.953  -2.348  26.508  1.00  0.00     0.189 HD
HETATM    3  C   UNL     1      23.915  -2.927  28.086  1.00  0.00     0.229 C 
ENDROOT
BRANCH   3   4
HETATM    4  O   UNL     1      24.360  -2.408  29.312  1.00  0.00    -0.305 OA
BRANCH   4   5
HETATM    5  C   UNL     1      23.776  -2.476  30.559  1.00  0.00     0.343 C 
BRANCH   5   6
HETATM    6  O   UNL     1      22.522  -2.554  30.676  1.00  0.00    -0.377 OA
HETATM    7  H   UNL     1      22.182  -2.194  29.782  1.00  0.00     0.212 HD
ENDBRANCH   5   6
ENDBRANCH   4   5
ENDBRANCH   3   4
BRANCH   3   8
HETATM    8  C   UNL     1      24.377  -4.210  27.296  1.00  0.00     0.297 C 
HETATM    9  O   UNL     1      25.309  -4.837  27.687  1.00  0.00    -0.263 OA
HETATM   10  N   UNL     1      23.631  -4.450  26.202  1.00  0.00    -0.329 N 
HETATM   11  C   UNL     1      23.978  -5.290  25.208  1.00  0.00     0.108 C 
ATOM     12  HN  UNL     1      22.739  -3.960  26.119  1.00  0.00     0.168 HD
BRANCH  11  13
HETATM   13  C   UNL     1      24.185  -6.611  25.479  1.00  0.00     0.097 C 
HETATM   14  N   UNL     1      24.047  -7.559  24.573  1.00  0.00    -0.407 N 
HETATM   15  H   UNL     1      24.292  -8.494  24.540  1.00  0.00     0.155 HD
HETATM   16  H   UNL     1      23.836  -7.229  23.619  1.00  0.00     0.155 HD
ENDBRANCH  11  13
ENDBRANCH   3   8
BRANCH   1  17
HETATM   17  N   UNL     1      22.765  -1.116  28.037  1.00  0.00    -0.303 N 
HETATM   18  C   UNL     1      22.446  -0.433  27.137  1.00  0.00     0.164 C 
ATOM     19  HN  UNL     1      22.702  -0.915  29.036  1.00  0.00     0.186 HD
BRANCH  18  20
HETATM   20  S   UNL     1      22.282  -0.019  25.651  1.00  0.00     0.014 SA
BRANCH  20  21
HETATM   21  C   UNL     1      21.030  -1.300  25.065  1.00  0.00     0.426 C 
HETATM   22  F   UNL     1      20.486  -0.761  23.959  1.00  0.00    -0.133 F 
HETATM   23  O   UNL     1      21.572  -2.379  24.844  1.00  0.00    -0.221 OA
HETATM   24  F   UNL     1      20.020  -1.479  25.945  1.00  0.00    -0.133 F 
ENDBRANCH  20  21
ENDBRANCH  18  20
ENDBRANCH   1  17
TORSDOF 8
ENDMDL
MODEL 8
REMARK VINA RESULT:    -4.999      3.209      4.230
REMARK INTER + INTRA:          -8.432
REMARK INTER:                  -7.199
REMARK INTRA:                  -1.233
REMARK UNBOUND:                -1.242
REMARK  8 active torsions:
REMARK  status: ('A' for Active; 'I' for Inactive)
REMARK    1  A    between atoms: C_2  and  S_5 
REMARK    2  A    between atoms: S_5  and  C_6 
REMARK    3  A    between atoms: N_7  and  N_9 
REMARK    4  A    between atoms: O_11  and  C_15 
REMARK    5  A    between atoms: O_11  and  C_12 
REMARK    6  A    between atoms: C_12  and  O_13 
REMARK    7  A    between atoms: C_15  and  C_16 
REMARK       I    between atoms: C_16  and  N_18 
REMARK    8  A    between atoms: C_20  and  C_24 
ROOT
HETATM    1  N   UNL     1       6.487  -0.861  22.543  1.00  0.00    -0.275 N 
ATOM      2  HN  UNL     1       6.316  -1.298  23.449  1.00  0.00     0.189 HD
HETATM    3  C   UNL     1       6.530  -1.546  21.541  1.00  0.00     0.229 C 
ENDROOT
BRANCH   3   4
HETATM    4  O   UNL     1       6.529  -0.786  20.361  1.00  0.00    -0.305 OA
BRANCH   4   5
HETATM    5  C   UNL     1       5.530  -0.619  19.424  1.00  0.00     0.343 C 
BRANCH   5   6
HETATM    6  O   UNL     1       5.563  -1.254  18.334  1.00  0.00    -0.377 OA
HETATM    7  H   UNL     1       6.554  -1.477  18.225  1.00  0.00     0.212 HD
ENDBRANCH   5   6
ENDBRANCH   4   5
ENDBRANCH   3   4
BRANCH   3   8
HETATM    8  C   UNL     1       6.341  -3.097  21.752  1.00  0.00     0.297 C 
HETATM    9  O   UNL     1       5.291  -3.601  21.510  1.00  0.00    -0.263 OA
HETATM   10  N   UNL     1       7.448  -3.701  22.225  1.00  0.00    -0.329 N 
HETATM   11  C   UNL     1       7.476  -4.936  22.760  1.00  0.00     0.108 C 
ATOM     12  HN  UNL     1       8.328  -3.186  22.174  1.00  0.00     0.168 HD
BRANCH  11  13
HETATM   13  C   UNL     1       7.090  -6.009  22.010  1.00  0.00     0.097 C 
HETATM   14  N   UNL     1       5.896  -6.558  22.108  1.00  0.00    -0.407 N 
HETATM   15  H   UNL     1       5.408  -7.199  21.570  1.00  0.00     0.155 HD
HETATM   16  H   UNL     1       5.240  -6.080  22.744  1.00  0.00     0.155 HD
ENDBRANCH  11  13
ENDBRANCH   3   8
BRANCH   1  17
HETATM   17  N   UNL     1       6.652   0.382  22.473  1.00  0.00    -0.303 N 
HETATM   18  C   UNL     1       7.352   0.618  23.385  1.00  0.00     0.164 C 
ATOM     19  HN  UNL     1       6.269   1.032  21.785  1.00  0.00     0.186 HD
BRANCH  18  20
HETATM   20  S   UNL     1       8.168   0.318  24.670  1.00  0.00     0.014 SA
BRANCH  20  21
HETATM   21  C   UNL     1       9.499  -0.825  23.983  1.00  0.00     0.426 C 
HETATM   22  F   UNL     1      10.549  -0.659  24.808  1.00  0.00    -0.133 F 
HETATM   23  O   UNL     1       9.108  -1.988  23.949  1.00  0.00    -0.221 OA
HETATM   24  F   UNL     1       9.914  -0.457  22.751  1.00  0.00    -0.133 F 
ENDBRANCH  20  21
ENDBRANCH  18  20
ENDBRANCH   1  17
TORSDOF 8
ENDMDL
MODEL 9
REMARK VINA RESULT:    -4.986      3.747      5.350
REMARK INTER + INTRA:          -8.414
REMARK INTER:                  -7.456
REMARK INTRA:                  -0.958
REMARK UNBOUND:                -1.242
REMARK  8 active torsions:
REMARK  status: ('A' for Active; 'I' for Inactive)
REMARK    1  A    between atoms: C_2  and  S_5 
REMARK    2  A    between atoms: S_5  and  C_6 
REMARK    3  A    between atoms: N_7  and  N_9 
REMARK    4  A    between atoms: O_11  and  C_15 
REMARK    5  A    between atoms: O_11  and  C_12 
REMARK    6  A    between atoms: C_12  and  O_13 
REMARK    7  A    between atoms: C_15  and  C_16 
REMARK       I    between atoms: C_16  and  N_18 
REMARK    8  A    between atoms: C_20  and  C_24 
ROOT
HETATM    1  N   UNL     1       7.806   0.430  22.979  1.00  0.00    -0.275 N 
ATOM      2  HN  UNL     1       8.085   1.349  22.634  1.00  0.00     0.189 HD
HETATM    3  C   UNL     1       7.283  -0.365  22.224  1.00  0.00     0.229 C 
ENDROOT
BRANCH   3   4
HETATM    4  O   UNL     1       7.182  -1.652  22.774  1.00  0.00    -0.305 OA
BRANCH   4   5
HETATM    5  C   UNL     1       7.344  -2.882  22.170  1.00  0.00     0.343 C 
BRANCH   5   6
HETATM    6  O   UNL     1       8.258  -3.665  22.547  1.00  0.00    -0.377 OA
HETATM    7  H   UNL     1       7.960  -3.934  23.487  1.00  0.00     0.212 HD
ENDBRANCH   5   6
ENDBRANCH   4   5
ENDBRANCH   3   4
BRANCH   3   8
HETATM    8  C   UNL     1       7.051   0.131  20.746  1.00  0.00     0.297 C 
HETATM    9  O   UNL     1       7.984   0.441  20.076  1.00  0.00    -0.263 OA
HETATM   10  N   UNL     1       5.750   0.162  20.401  1.00  0.00    -0.329 N 
HETATM   11  C   UNL     1       5.259   0.806  19.325  1.00  0.00     0.108 C 
ATOM     12  HN  UNL     1       5.089  -0.338  20.996  1.00  0.00     0.168 HD
BRANCH  11  13
HETATM   13  C   UNL     1       5.686   0.462  18.076  1.00  0.00     0.097 C 
HETATM   14  N   UNL     1       5.720  -0.785  17.648  1.00  0.00    -0.407 N 
HETATM   15  H   UNL     1       5.839  -1.191  16.778  1.00  0.00     0.155 HD
HETATM   16  H   UNL     1       5.336  -1.485  18.300  1.00  0.00     0.155 HD
ENDBRANCH  11  13
ENDBRANCH   3   8
BRANCH   1  17
HETATM   17  N   UNL     1       8.007   0.129  24.182  1.00  0.00    -0.303 N 
HETATM   18  C   UNL     1       8.701   0.994  24.569  1.00  0.00     0.164 C 
ATOM     19  HN  UNL     1       7.651  -0.674  24.700  1.00  0.00     0.186 HD
BRANCH  18  20
HETATM   20  S   UNL     1       9.569   2.276  24.471  1.00  0.00     0.014 SA
BRANCH  20  21
HETATM   21  C   UNL     1      10.948   1.680  23.333  1.00  0.00     0.426 C 
HETATM   22  F   UNL     1      12.084   1.990  23.985  1.00  0.00    -0.133 F 
HETATM   23  O   UNL     1      10.849   0.477  23.110  1.00  0.00    -0.221 OA
HETATM   24  F   UNL     1      10.981   2.351  22.160  1.00  0.00    -0.133 F 
ENDBRANCH  20  21
ENDBRANCH  18  20
ENDBRANCH   1  17
TORSDOF 8
ENDMDL
