REMARK  8 active torsions:
REMARK  status: ('A' for Active; 'I' for Inactive)
REMARK    1  A    between atoms: C_2  and  S_5 
REMARK    2  A    between atoms: S_5  and  C_6 
REMARK    3  A    between atoms: N_7  and  N_9 
REMARK    4  A    between atoms: O_11  and  C_15 
REMARK    5  A    between atoms: O_11  and  C_12 
REMARK    6  A    between atoms: C_12  and  O_13 
REMARK    7  A    between atoms: C_15  and  C_16 
REMARK       I    between atoms: C_16  and  N_18 
REMARK    8  A    between atoms: C_20  and  C_24 
ROOT
HETATM    1  N   UNL     1       9.469  -1.617  23.098  1.00  0.00    -0.275 N 
ATOM      2  HN  UNL     1       8.626  -2.040  22.709  1.00  0.00     0.189 HD
HETATM    3  C   UNL     1       9.865  -0.553  22.665  1.00  0.00     0.229 C 
ENDROOT
BRANCH   3   4
HETATM    4  O   UNL     1      10.879   0.012  23.454  1.00  0.00    -0.305 OA
BRANCH   4   5
HETATM    5  C   UNL     1      12.229  -0.270  23.485  1.00  0.00     0.343 C 
BRANCH   5   6
HETATM    6  O   UNL     1      12.726  -1.111  22.687  1.00  0.00    -0.377 OA
HETATM    7  H   UNL     1      11.903  -1.540  22.259  1.00  0.00     0.212 HD
ENDBRANCH   5   6
ENDBRANCH   4   5
ENDBRANCH   3   4
BRANCH   3   8
HETATM    8  C   UNL     1       9.026   0.072  21.486  1.00  0.00     0.297 C 
HETATM    9  O   UNL     1       9.533   0.864  20.758  1.00  0.00    -0.263 OA
HETATM   10  N   UNL     1       7.757  -0.377  21.450  1.00  0.00    -0.329 N 
HETATM   11  C   UNL     1       6.763   0.196  20.745  1.00  0.00     0.108 C 
ATOM     12  HN  UNL     1       7.533  -1.210  21.995  1.00  0.00     0.168 HD
BRANCH  11  13
HETATM   13  C   UNL     1       6.869   0.305  19.389  1.00  0.00     0.097 C 
HETATM   14  N   UNL     1       5.852   0.626  18.614  1.00  0.00    -0.407 N 
HETATM   15  H   UNL     1       5.775   0.893  17.687  1.00  0.00     0.155 HD
HETATM   16  H   UNL     1       4.977   0.859  19.108  1.00  0.00     0.155 HD
ENDBRANCH  11  13
ENDBRANCH   3   8
BRANCH   1  17
HETATM   17  N   UNL     1      10.090  -2.200  24.021  1.00  0.00    -0.303 N 
HETATM   18  C   UNL     1       9.280  -2.908  24.492  1.00  0.00     0.164 C 
ATOM     19  HN  UNL     1      11.066  -2.086  24.296  1.00  0.00     0.186 HD
BRANCH  18  20
HETATM   20  S   UNL     1       7.872  -3.528  24.691  1.00  0.00     0.014 SA
BRANCH  20  21
HETATM   21  C   UNL     1       8.086  -4.353  26.372  1.00  0.00     0.426 C 
HETATM   22  F   UNL     1       6.842  -4.721  26.730  1.00  0.00    -0.133 F 
HETATM   23  O   UNL     1       8.856  -5.306  26.302  1.00  0.00    -0.221 OA
HETATM   24  F   UNL     1       8.522  -3.494  27.320  1.00  0.00    -0.133 F 
ENDBRANCH  20  21
ENDBRANCH  18  20
ENDBRANCH   1  17
TORSDOF 8
