stable:False satoms:18 tatoms:24 sratio:0.75
  -OEChem-07092417343D

 24 23  0     1  0  0  0  0  0999 V2000
    6.9858   -3.9705   25.2542 H   0  0  0  0  0  0  0  0  0  0  0  0
    8.9199   -3.8942   25.4607 C   0  0  0  0  0  0  0  0  0  0  0  0
    9.3442   -4.9043   25.5349 H   0  0  0  0  0  0  0  0  0  0  0  0
    8.7946   -3.4932   26.4735 H   0  0  0  0  0  0  0  0  0  0  0  0
    7.7693   -3.8338   24.6806 O   0  0  0  0  0  0  0  0  0  0  0  0
    9.7873   -3.0711   24.7041 O   0  0  0  0  0  0  0  0  0  0  0  0
    9.7907   -1.9758   24.1399 N   0  0  0  0  0  0  0  0  0  0  0  0
   12.1433   -1.3432   24.0568 C   0  0  0  0  0  0  0  0  0  0  0  0
   10.4591    0.0032   23.2990 N   0  3  0  0  0  0  0  0  0  0  0  0
   10.8076   -1.1267   23.9182 C   0  0  0  0  0  0  0  0  0  0  0  0
   13.2790   -1.3554   24.1543 N   0  0  0  0  0  0  0  0  0  0  0  0
   10.9250   -0.7939   21.4918 H   0  0  0  0  0  0  0  0  0  0  0  0
   10.1794   -0.2154   22.0249 C   0  3  0  0  0  0  0  0  0  0  0  0
   10.2448    0.8921   23.7039 H   0  0  0  0  0  0  0  0  0  0  0  0
    9.1189    1.5052   21.6258 H   0  0  0  0  0  0  0  0  0  0  0  0
    9.0319    0.4807   21.5091 C   0  5  3  0  0  0  0  0  0  0  0  0
    7.4872   -0.5580   19.8772 O   0  0  0  0  0  0  0  0  0  0  0  0
    7.6435    0.1535   20.9489 C   0  0  0  0  0  0  0  0  0  0  0  0
    6.4075   -0.1652   19.0069 C   0  0  0  0  0  0  0  0  0  0  0  0
    6.6299   -0.6619   18.0876 H   0  0  0  0  0  0  0  0  0  0  0  0
    6.2921    0.8905   18.8019 H   0  0  0  0  0  0  0  0  0  0  0  0
    5.4631   -0.4957   19.4435 H   0  0  0  0  0  0  0  0  0  0  0  0
    5.5602    0.2376   21.6341 H   0  0  0  0  0  0  0  0  0  0  0  0
    6.5197    0.4053   21.4648 C   0  5  0  0  0  0  0  0  0  0  0  0
 19 20  1  0  0  0  0
 19 21  1  0  0  0  0
 19 22  1  0  0  0  0
 17 19  1  0  0  0  0
 17 18  1  0  0  0  0
 18 24  2  0  0  0  0
 16 18  1  0  0  0  0
 23 24  1  0  0  0  0
 12 13  1  0  0  0  0
 15 16  1  0  0  0  0
 13 16  1  0  0  0  0
  9 13  1  0  0  0  0
  9 14  1  0  0  0  0
  9 10  2  3  0  0  0
  8 10  1  0  0  0  0
  7 10  1  0  0  0  0
  8 11  3  0  0  0  0
  6  7  1  0  0  0  0
  1  5  1  0  0  0  0
  2  5  1  0  0  0  0
  2  6  1  0  0  0  0
  2  3  1  0  0  0  0
  2  4  1  0  0  0  0
M  CHG  4   9   1  13   1  16  -1  24  -1
M  END
> <Shapegauss>
-150.113190

$$$$
