stable:False satoms:18 tatoms:24 sratio:0.75
  -OEChem-08062402503D

 26 25  0     1  0  0  0  0  0999 V2000
   10.1071    3.2815   24.3546 H   0  0  0  0  0  0  0  0  0  0  0  0
   11.7834    2.3014   24.2184 C   0  0  0  0  0  0  0  0  0  0  0  0
   12.4761    2.6010   25.0160 H   0  0  0  0  0  0  0  0  0  0  0  0
   12.0350    2.8608   23.3095 H   0  0  0  0  0  0  0  0  0  0  0  0
   10.4445    2.3905   24.5866 O   0  0  0  0  0  0  0  0  0  0  0  0
   11.8960    0.9091   23.9922 O   0  0  0  0  0  0  0  0  0  0  0  0
   11.3009   -0.0012   23.4131 N   0  0  0  0  0  0  0  0  0  0  0  0
   13.0188   -1.6790   22.9940 C   0  0  0  0  0  0  0  0  0  0  0  0
   10.8584   -1.8963   22.2804 N   0  3  0  0  0  0  0  0  0  0  0  0
   11.7814   -1.1292   22.8645 C   0  0  0  0  0  0  0  0  0  0  0  0
   14.0092   -2.2430   22.9743 N   0  0  0  0  0  0  0  0  0  0  0  0
   10.6349   -2.9907   23.9747 H   0  0  0  0  0  0  0  0  0  0  0  0
   10.0929   -2.4930   23.1788 C   0  0  0  0  0  0  0  0  0  0  0  0
    8.5047   -2.9981   21.9677 H   0  0  0  0  0  0  0  0  0  0  0  0
    8.6883   -2.5340   22.8742 C   0  0  3  0  0  0  0  0  0  0  0  0
    6.9551   -2.2685   24.6216 O   0  0  0  0  0  0  0  0  0  0  0  0
    7.3736   -1.9767   23.4304 C   0  0  0  0  0  0  0  0  0  0  0  0
    5.5317   -2.4401   24.7696 C   0  0  0  0  0  0  0  0  0  0  0  0
    5.4336   -2.9447   25.7061 H   0  0  0  0  0  0  0  0  0  0  0  0
    5.0194   -3.0227   24.0160 H   0  0  0  0  0  0  0  0  0  0  0  0
    5.0552   -1.4579   24.7713 H   0  0  0  0  0  0  0  0  0  0  0  0
    6.8580   -0.6926   21.9448 H   0  0  0  0  0  0  0  0  0  0  0  0
    6.6093   -1.1215   22.9043 C   0  0  0  0  0  0  0  0  0  0  0  0
   10.3107    0.1177   23.3406 H   0  0  0  0  0  0  0  0  0  0  0  0
    5.7064   -0.8183   23.4135 H   0  0  0  0  0  0  0  0  0  0  0  0
   10.7586   -2.0056   21.2914 H   0  0  0  0  0  0  0  0  0  0  0  0
 18 19  1  0  0  0  0
 18 20  1  0  0  0  0
 18 21  1  0  0  0  0
 16 18  1  0  0  0  0
 16 17  1  0  0  0  0
 17 23  2  0  0  0  0
 15 17  1  0  0  0  0
 22 23  1  0  0  0  0
 12 13  1  0  0  0  0
 14 15  1  0  0  0  0
 13 15  2  0  0  0  0
  9 13  1  0  0  0  0
  9 10  2  3  0  0  0
  8 10  1  0  0  0  0
  7 10  1  0  0  0  0
  8 11  3  0  0  0  0
  6  7  1  0  0  0  0
  1  5  1  0  0  0  0
  2  5  1  0  0  0  0
  2  6  1  0  0  0  0
  2  3  1  0  0  0  0
  2  4  1  0  0  0  0
  7 24  1  0  0  0  0
 23 25  1  0  0  0  0
  9 26  1  0  0  0  0
M  CHG  1   9   1
M  END
> <Chemgauss4>
-6.391695

$$$$
