stable:False satoms:18 tatoms:24 sratio:0.75
  -OEChem-08062402503D

 26 25  0     1  0  0  0  0  0999 V2000
  -10.0135    3.3159  -24.3401 H   0  0  0  0  0  0  0  0  0  0  0  0
  -11.6898    2.3358  -24.2038 C   0  0  0  0  0  0  0  0  0  0  0  0
  -12.3825    2.6354  -25.0014 H   0  0  0  0  0  0  0  0  0  0  0  0
  -11.9414    2.8952  -23.2949 H   0  0  0  0  0  0  0  0  0  0  0  0
  -10.3509    2.4249  -24.5720 O   0  0  0  0  0  0  0  0  0  0  0  0
  -11.8024    0.9435  -23.9776 O   0  0  0  0  0  0  0  0  0  0  0  0
  -11.2073    0.0332  -23.3986 N   0  0  0  0  0  0  0  0  0  0  0  0
  -12.9252   -1.6446  -22.9794 C   0  0  0  0  0  0  0  0  0  0  0  0
  -10.7648   -1.8619  -22.2658 N   0  3  0  0  0  0  0  0  0  0  0  0
  -11.6878   -1.0948  -22.8500 C   0  0  0  0  0  0  0  0  0  0  0  0
  -13.9156   -2.2086  -22.9597 N   0  0  0  0  0  0  0  0  0  0  0  0
  -10.5413   -2.9563  -23.9601 H   0  0  0  0  0  0  0  0  0  0  0  0
   -9.9993   -2.4586  -23.1643 C   0  0  0  0  0  0  0  0  0  0  0  0
   -8.4111   -2.9637  -21.9531 H   0  0  0  0  0  0  0  0  0  0  0  0
   -8.5948   -2.4996  -22.8596 C   0  0  3  0  0  0  0  0  0  0  0  0
   -6.8615   -2.2341  -24.6071 O   0  0  0  0  0  0  0  0  0  0  0  0
   -7.2800   -1.9423  -23.4159 C   0  0  0  0  0  0  0  0  0  0  0  0
   -5.4381   -2.4057  -24.7550 C   0  0  0  0  0  0  0  0  0  0  0  0
   -5.3400   -2.9103  -25.6915 H   0  0  0  0  0  0  0  0  0  0  0  0
   -4.9258   -2.9883  -24.0014 H   0  0  0  0  0  0  0  0  0  0  0  0
   -4.9616   -1.4235  -24.7567 H   0  0  0  0  0  0  0  0  0  0  0  0
   -6.7645   -0.6582  -21.9302 H   0  0  0  0  0  0  0  0  0  0  0  0
   -6.5157   -1.0871  -22.8897 C   0  0  0  0  0  0  0  0  0  0  0  0
  -10.2171    0.1521  -23.3261 H   0  0  0  0  0  0  0  0  0  0  0  0
   -5.6128   -0.7839  -23.3989 H   0  0  0  0  0  0  0  0  0  0  0  0
  -10.6650   -1.9712  -21.2768 H   0  0  0  0  0  0  0  0  0  0  0  0
 18 19  1  0  0  0  0
 18 20  1  0  0  0  0
 18 21  1  0  0  0  0
 16 18  1  0  0  0  0
 16 17  1  0  0  0  0
 17 23  2  0  0  0  0
 15 17  1  0  0  0  0
 22 23  1  0  0  0  0
 12 13  1  0  0  0  0
 14 15  1  0  0  0  0
 13 15  2  0  0  0  0
  9 13  1  0  0  0  0
  9 10  2  3  0  0  0
  8 10  1  0  0  0  0
  7 10  1  0  0  0  0
  8 11  3  0  0  0  0
  6  7  1  0  0  0  0
  1  5  1  0  0  0  0
  2  5  1  0  0  0  0
  2  6  1  0  0  0  0
  2  3  1  0  0  0  0
  2  4  1  0  0  0  0
  7 24  1  0  0  0  0
 23 25  1  0  0  0  0
  9 26  1  0  0  0  0
M  CHG  1   9   1
M  END
> <Chemgauss4>
-6.474816

$$$$
