REMARK  8 active torsions:
REMARK  status: ('A' for Active; 'I' for Inactive)
REMARK    1  A    between atoms: S_2  and  N_5 
REMARK    2  A    between atoms: N_5  and  C_7 
REMARK    3  A    between atoms: C_8  and  C_9 
REMARK    4  A    between atoms: C_9  and  C_10 
REMARK    5  A    between atoms: C_10  and  C_11 
REMARK    6  A    between atoms: C_11  and  C_12 
REMARK    7  A    between atoms: C_14  and  C_15 
REMARK       I    between atoms: C_15  and  N_17 
REMARK    8  A    between atoms: C_19  and  C_24 
ROOT
HETATM    1  C   UNL     1       9.107   0.191  21.391  1.00  0.00     0.247 C 
HETATM    2  O   UNL     1       9.472   1.278  20.960  1.00  0.00    -0.268 OA
HETATM    3  N   UNL     1       7.936  -0.454  21.125  1.00  0.00    -0.315 N 
ATOM      4  HN  UNL     1       7.703  -1.312  21.624  1.00  0.00     0.170 HD
HETATM    5  C   UNL     1       7.095   0.035  20.214  1.00  0.00     0.119 C 
HETATM    6  C   UNL     1       7.132   0.093  18.762  1.00  0.00     0.117 C 
HETATM    7  N   UNL     1       7.159   0.209  17.641  1.00  0.00    -0.190 NA
ENDROOT
BRANCH   5   8
HETATM    8  C   UNL     1       5.878   0.530  20.538  1.00  0.00     0.082 C 
HETATM    9  C   UNL     1       5.309   0.837  19.312  1.00  0.00     0.261 C 
HETATM   10  O   UNL     1       4.992   1.012  18.285  1.00  0.00    -0.302 OA
ENDBRANCH   5   8
BRANCH   1  11
HETATM   11  C   UNL     1       9.859  -0.438  22.271  1.00  0.00     0.095 C 
HETATM   12  C   UNL     1      10.107  -0.959  23.386  1.00  0.00     0.024 C 
BRANCH  12  13
HETATM   13  C   UNL     1       9.443  -2.045  23.837  1.00  0.00    -0.043 C 
HETATM   14  C   UNL     1       8.900  -2.911  24.314  1.00  0.00     0.028 C 
BRANCH  14  15
HETATM   15  N   UNL     1       8.108  -3.726  24.740  1.00  0.00    -0.223 N 
ATOM     16  HN  UNL     1       7.338  -4.008  24.133  1.00  0.00     0.192 HD
BRANCH  15  17
HETATM   17  S   UNL     1       8.198  -4.401  26.228  1.00  0.00     0.216 S 
HETATM   18  O   UNL     1       6.598  -4.972  26.630  1.00  0.00    -0.577 OA
HETATM   19  O   UNL     1       9.083  -5.534  26.159  1.00  0.00    -0.577 OA
HETATM   20  O   UNL     1       8.590  -3.451  27.200  1.00  0.00    -0.577 OA
ENDBRANCH  15  17
ENDBRANCH  14  15
ENDBRANCH  12  13
BRANCH  12  21
HETATM   21  C   UNL     1      10.980  -0.163  24.160  1.00  0.00     0.021 C 
BRANCH  21  22
HETATM   22  C   UNL     1      12.061   0.181  24.223  1.00  0.00     0.001 C 
BRANCH  22  23
HETATM   23  C   UNL     1      13.012  -0.274  23.404  1.00  0.00    -0.010 C 
HETATM   24  C   UNL     1      12.783  -1.127  22.688  1.00  0.00     0.011 C 
ENDBRANCH  22  23
ENDBRANCH  21  22
ENDBRANCH  12  21
ENDBRANCH   1  11
TORSDOF 8
