MODEL 1
REMARK VINA RESULT:    -6.346      0.000      0.000
REMARK INTER + INTRA:         -10.285
REMARK INTER:                  -9.314
REMARK INTRA:                  -0.971
REMARK UNBOUND:                -0.971
REMARK  8 active torsions:
REMARK  status: ('A' for Active; 'I' for Inactive)
REMARK    1  A    between atoms: S_2  and  N_5 
REMARK    2  A    between atoms: N_5  and  C_7 
REMARK    3  A    between atoms: C_8  and  C_9 
REMARK    4  A    between atoms: C_9  and  C_10 
REMARK    5  A    between atoms: C_10  and  C_11 
REMARK    6  A    between atoms: C_11  and  C_12 
REMARK    7  A    between atoms: C_14  and  C_15 
REMARK       I    between atoms: C_15  and  N_17 
REMARK    8  A    between atoms: C_19  and  C_24 
ROOT
HETATM    1  C   UNL     1       9.947  -1.171  22.525  1.00  0.00     0.247 C 
HETATM    2  O   UNL     1      10.902  -1.121  21.761  1.00  0.00    -0.268 OA
HETATM    3  N   UNL     1       9.777  -0.475  23.685  1.00  0.00    -0.315 N 
ATOM      4  HN  UNL     1       8.980  -0.677  24.288  1.00  0.00     0.170 HD
HETATM    5  C   UNL     1      10.651   0.470  24.031  1.00  0.00     0.119 C 
HETATM    6  C   UNL     1      10.913   1.808  23.529  1.00  0.00     0.117 C 
HETATM    7  N   UNL     1      11.183   2.825  23.123  1.00  0.00    -0.190 NA
ENDROOT
BRANCH   5   8
HETATM    8  C   UNL     1      11.467   0.348  25.104  1.00  0.00     0.082 C 
HETATM    9  C   UNL     1      12.671  -0.067  24.557  1.00  0.00     0.261 C 
HETATM   10  O   UNL     1      13.546  -0.373  23.986  1.00  0.00    -0.302 OA
ENDBRANCH   5   8
BRANCH   1  11
HETATM   11  C   UNL     1       8.977  -2.031  22.288  1.00  0.00     0.095 C 
HETATM   12  C   UNL     1       7.782  -2.413  22.255  1.00  0.00     0.024 C 
BRANCH  12  13
HETATM   13  C   UNL     1       6.862  -1.830  21.456  1.00  0.00    -0.043 C 
HETATM   14  C   UNL     1       6.071  -1.277  20.872  1.00  0.00     0.028 C 
BRANCH  14  15
HETATM   15  N   UNL     1       5.419  -0.571  20.131  1.00  0.00    -0.223 N 
ATOM     16  HN  UNL     1       4.433  -0.428  20.350  1.00  0.00     0.192 HD
BRANCH  15  17
HETATM   17  S   UNL     1       6.024   0.167  18.801  1.00  0.00     0.216 S 
HETATM   18  O   UNL     1       7.753   0.270  19.013  1.00  0.00    -0.577 OA
HETATM   19  O   UNL     1       5.753  -0.666  17.658  1.00  0.00    -0.577 OA
HETATM   20  O   UNL     1       5.512   1.478  18.663  1.00  0.00    -0.577 OA
ENDBRANCH  15  17
ENDBRANCH  14  15
ENDBRANCH  12  13
BRANCH  12  21
HETATM   21  C   UNL     1       7.495  -3.345  23.277  1.00  0.00     0.021 C 
BRANCH  21  22
HETATM   22  C   UNL     1       7.249  -4.441  23.448  1.00  0.00     0.001 C 
BRANCH  22  23
HETATM   23  C   UNL     1       7.383  -5.367  22.496  1.00  0.00    -0.010 C 
HETATM   24  C   UNL     1       6.469  -5.729  21.924  1.00  0.00     0.011 C 
ENDBRANCH  22  23
ENDBRANCH  21  22
ENDBRANCH  12  21
ENDBRANCH   1  11
TORSDOF 8
ENDMDL
MODEL 2
REMARK VINA RESULT:    -6.344      1.729      2.520
REMARK INTER + INTRA:         -10.282
REMARK INTER:                  -8.997
REMARK INTRA:                  -1.285
REMARK UNBOUND:                -0.971
REMARK  8 active torsions:
REMARK  status: ('A' for Active; 'I' for Inactive)
REMARK    1  A    between atoms: S_2  and  N_5 
REMARK    2  A    between atoms: N_5  and  C_7 
REMARK    3  A    between atoms: C_8  and  C_9 
REMARK    4  A    between atoms: C_9  and  C_10 
REMARK    5  A    between atoms: C_10  and  C_11 
REMARK    6  A    between atoms: C_11  and  C_12 
REMARK    7  A    between atoms: C_14  and  C_15 
REMARK       I    between atoms: C_15  and  N_17 
REMARK    8  A    between atoms: C_19  and  C_24 
ROOT
HETATM    1  C   UNL     1       9.662  -1.796  23.713  1.00  0.00     0.247 C 
HETATM    2  O   UNL     1       9.669  -1.897  24.934  1.00  0.00    -0.268 OA
HETATM    3  N   UNL     1      10.340  -0.889  22.953  1.00  0.00    -0.315 N 
ATOM      4  HN  UNL     1      10.175  -0.844  21.948  1.00  0.00     0.170 HD
HETATM    5  C   UNL     1      11.216  -0.062  23.523  1.00  0.00     0.119 C 
HETATM    6  C   UNL     1      12.546  -0.256  24.075  1.00  0.00     0.117 C 
HETATM    7  N   UNL     1      13.553  -0.384  24.567  1.00  0.00    -0.190 NA
ENDROOT
BRANCH   5   8
HETATM    8  C   UNL     1      11.014   1.274  23.596  1.00  0.00     0.082 C 
HETATM    9  C   UNL     1      10.528   1.604  22.341  1.00  0.00     0.261 C 
HETATM   10  O   UNL     1      10.147   1.707  21.326  1.00  0.00    -0.302 OA
ENDBRANCH   5   8
BRANCH   1  11
HETATM   11  C   UNL     1       8.875  -2.581  23.006  1.00  0.00     0.095 C 
HETATM   12  C   UNL     1       7.769  -2.980  22.566  1.00  0.00     0.024 C 
BRANCH  12  13
HETATM   13  C   UNL     1       6.998  -2.220  21.758  1.00  0.00    -0.043 C 
HETATM   14  C   UNL     1       6.314  -1.540  21.174  1.00  0.00     0.028 C 
BRANCH  14  15
HETATM   15  N   UNL     1       5.788  -0.674  20.506  1.00  0.00    -0.223 N 
ATOM     16  HN  UNL     1       4.800  -0.780  20.276  1.00  0.00     0.192 HD
BRANCH  15  17
HETATM   17  S   UNL     1       6.567   0.653  19.949  1.00  0.00     0.216 S 
HETATM   18  O   UNL     1       5.492   1.444  18.823  1.00  0.00    -0.577 OA
HETATM   19  O   UNL     1       6.799   1.541  21.058  1.00  0.00    -0.577 OA
HETATM   20  O   UNL     1       7.753   0.303  19.263  1.00  0.00    -0.577 OA
ENDBRANCH  15  17
ENDBRANCH  14  15
ENDBRANCH  12  13
BRANCH  12  21
HETATM   21  C   UNL     1       7.359  -4.186  23.177  1.00  0.00     0.021 C 
BRANCH  21  22
HETATM   22  C   UNL     1       7.440  -4.772  24.147  1.00  0.00     0.001 C 
BRANCH  22  23
HETATM   23  C   UNL     1       6.378  -5.087  24.891  1.00  0.00    -0.010 C 
HETATM   24  C   UNL     1       6.478  -5.159  26.021  1.00  0.00     0.011 C 
ENDBRANCH  22  23
ENDBRANCH  21  22
ENDBRANCH  12  21
ENDBRANCH   1  11
TORSDOF 8
ENDMDL
MODEL 3
REMARK VINA RESULT:    -6.325      5.329      6.921
REMARK INTER + INTRA:         -10.254
REMARK INTER:                  -9.167
REMARK INTRA:                  -1.088
REMARK UNBOUND:                -0.971
REMARK  8 active torsions:
REMARK  status: ('A' for Active; 'I' for Inactive)
REMARK    1  A    between atoms: S_2  and  N_5 
REMARK    2  A    between atoms: N_5  and  C_7 
REMARK    3  A    between atoms: C_8  and  C_9 
REMARK    4  A    between atoms: C_9  and  C_10 
REMARK    5  A    between atoms: C_10  and  C_11 
REMARK    6  A    between atoms: C_11  and  C_12 
REMARK    7  A    between atoms: C_14  and  C_15 
REMARK       I    between atoms: C_15  and  N_17 
REMARK    8  A    between atoms: C_19  and  C_24 
ROOT
HETATM    1  C   UNL     1       8.319  -2.264  24.326  1.00  0.00     0.247 C 
HETATM    2  O   UNL     1       8.841  -1.590  25.206  1.00  0.00    -0.268 OA
HETATM    3  N   UNL     1       8.599  -2.243  22.992  1.00  0.00    -0.315 N 
ATOM      4  HN  UNL     1       8.026  -2.781  22.343  1.00  0.00     0.170 HD
HETATM    5  C   UNL     1       9.622  -1.520  22.535  1.00  0.00     0.119 C 
HETATM    6  C   UNL     1      11.064  -1.688  22.606  1.00  0.00     0.117 C 
HETATM    7  N   UNL     1      12.185  -1.757  22.697  1.00  0.00    -0.190 NA
ENDROOT
BRANCH   5   8
HETATM    8  C   UNL     1       9.450  -0.431  21.751  1.00  0.00     0.082 C 
HETATM    9  C   UNL     1       8.172  -0.591  21.238  1.00  0.00     0.261 C 
HETATM   10  O   UNL     1       7.159  -0.844  20.930  1.00  0.00    -0.302 OA
ENDBRANCH   5   8
BRANCH   1  11
HETATM   11  C   UNL     1       7.319  -3.063  24.634  1.00  0.00     0.095 C 
HETATM   12  C   UNL     1       6.793  -4.169  24.912  1.00  0.00     0.024 C 
BRANCH  12  13
HETATM   13  C   UNL     1       7.106  -4.854  26.033  1.00  0.00    -0.043 C 
HETATM   14  C   UNL     1       7.261  -5.427  26.992  1.00  0.00     0.028 C 
BRANCH  14  15
HETATM   15  N   UNL     1       7.457  -6.243  27.869  1.00  0.00    -0.223 N 
ATOM     16  HN  UNL     1       8.352  -6.731  27.877  1.00  0.00     0.192 HD
BRANCH  15  17
HETATM   17  S   UNL     1       6.374  -6.608  29.040  1.00  0.00     0.216 S 
HETATM   18  O   UNL     1       6.469  -5.344  30.240  1.00  0.00    -0.577 OA
HETATM   19  O   UNL     1       5.056  -6.589  28.461  1.00  0.00    -0.577 OA
HETATM   20  O   UNL     1       6.687  -7.839  29.663  1.00  0.00    -0.577 OA
ENDBRANCH  15  17
ENDBRANCH  14  15
ENDBRANCH  12  13
BRANCH  12  21
HETATM   21  C   UNL     1       6.032  -4.679  23.837  1.00  0.00     0.021 C 
BRANCH  21  22
HETATM   22  C   UNL     1       5.751  -5.649  23.318  1.00  0.00     0.001 C 
BRANCH  22  23
HETATM   23  C   UNL     1       6.122  -5.932  22.067  1.00  0.00    -0.010 C 
HETATM   24  C   UNL     1       7.205  -5.787  21.750  1.00  0.00     0.011 C 
ENDBRANCH  22  23
ENDBRANCH  21  22
ENDBRANCH  12  21
ENDBRANCH   1  11
TORSDOF 8
ENDMDL
MODEL 4
REMARK VINA RESULT:    -6.320      4.658      5.874
REMARK INTER + INTRA:         -10.247
REMARK INTER:                  -9.231
REMARK INTRA:                  -1.015
REMARK UNBOUND:                -0.971
REMARK  8 active torsions:
REMARK  status: ('A' for Active; 'I' for Inactive)
REMARK    1  A    between atoms: S_2  and  N_5 
REMARK    2  A    between atoms: N_5  and  C_7 
REMARK    3  A    between atoms: C_8  and  C_9 
REMARK    4  A    between atoms: C_9  and  C_10 
REMARK    5  A    between atoms: C_10  and  C_11 
REMARK    6  A    between atoms: C_11  and  C_12 
REMARK    7  A    between atoms: C_14  and  C_15 
REMARK       I    between atoms: C_15  and  N_17 
REMARK    8  A    between atoms: C_19  and  C_24 
ROOT
HETATM    1  C   UNL     1       9.053  -2.091  23.451  1.00  0.00     0.247 C 
HETATM    2  O   UNL     1      10.170  -2.307  23.000  1.00  0.00    -0.268 OA
HETATM    3  N   UNL     1       8.552  -0.900  23.888  1.00  0.00    -0.315 N 
ATOM      4  HN  UNL     1       7.637  -0.866  24.336  1.00  0.00     0.170 HD
HETATM    5  C   UNL     1       9.258   0.220  23.730  1.00  0.00     0.119 C 
HETATM    6  C   UNL     1       9.575   1.035  22.569  1.00  0.00     0.117 C 
HETATM    7  N   UNL     1       9.890   1.654  21.681  1.00  0.00    -0.190 NA
ENDROOT
BRANCH   5   8
HETATM    8  C   UNL     1       9.772   0.909  24.774  1.00  0.00     0.082 C 
HETATM    9  C   UNL     1      11.074   0.444  24.868  1.00  0.00     0.261 C 
HETATM   10  O   UNL     1      12.065  -0.004  24.809  1.00  0.00    -0.302 OA
ENDBRANCH   5   8
BRANCH   1  11
HETATM   11  C   UNL     1       8.222  -3.099  23.625  1.00  0.00     0.095 C 
HETATM   12  C   UNL     1       7.920  -4.288  23.889  1.00  0.00     0.024 C 
BRANCH  12  13
HETATM   13  C   UNL     1       8.135  -4.832  25.106  1.00  0.00    -0.043 C 
HETATM   14  C   UNL     1       8.274  -5.195  26.165  1.00  0.00     0.028 C 
BRANCH  14  15
HETATM   15  N   UNL     1       8.217  -5.723  27.257  1.00  0.00    -0.223 N 
ATOM     16  HN  UNL     1       9.085  -6.065  27.669  1.00  0.00     0.192 HD
BRANCH  15  17
HETATM   17  S   UNL     1       6.833  -5.921  28.108  1.00  0.00     0.216 S 
HETATM   18  O   UNL     1       5.683  -6.692  27.044  1.00  0.00    -0.577 OA
HETATM   19  O   UNL     1       7.101  -6.807  29.209  1.00  0.00    -0.577 OA
HETATM   20  O   UNL     1       6.299  -4.676  28.516  1.00  0.00    -0.577 OA
ENDBRANCH  15  17
ENDBRANCH  14  15
ENDBRANCH  12  13
BRANCH  12  21
HETATM   21  C   UNL     1       7.546  -5.009  22.734  1.00  0.00     0.021 C 
BRANCH  21  22
HETATM   22  C   UNL     1       6.698  -5.627  22.298  1.00  0.00     0.001 C 
BRANCH  22  23
HETATM   23  C   UNL     1       5.413  -5.299  22.452  1.00  0.00    -0.010 C 
HETATM   24  C   UNL     1       4.772  -5.856  23.208  1.00  0.00     0.011 C 
ENDBRANCH  22  23
ENDBRANCH  21  22
ENDBRANCH  12  21
ENDBRANCH   1  11
TORSDOF 8
ENDMDL
MODEL 5
REMARK VINA RESULT:    -6.235      2.834      5.868
REMARK INTER + INTRA:         -10.123
REMARK INTER:                  -9.185
REMARK INTRA:                  -0.938
REMARK UNBOUND:                -0.971
REMARK  8 active torsions:
REMARK  status: ('A' for Active; 'I' for Inactive)
REMARK    1  A    between atoms: S_2  and  N_5 
REMARK    2  A    between atoms: N_5  and  C_7 
REMARK    3  A    between atoms: C_8  and  C_9 
REMARK    4  A    between atoms: C_9  and  C_10 
REMARK    5  A    between atoms: C_10  and  C_11 
REMARK    6  A    between atoms: C_11  and  C_12 
REMARK    7  A    between atoms: C_14  and  C_15 
REMARK       I    between atoms: C_15  and  N_17 
REMARK    8  A    between atoms: C_19  and  C_24 
ROOT
HETATM    1  C   UNL     1       7.778  -3.969  24.039  1.00  0.00     0.247 C 
HETATM    2  O   UNL     1       8.663  -4.796  24.223  1.00  0.00    -0.268 OA
HETATM    3  N   UNL     1       6.434  -4.149  24.182  1.00  0.00    -0.315 N 
ATOM      4  HN  UNL     1       5.790  -3.411  23.903  1.00  0.00     0.170 HD
HETATM    5  C   UNL     1       5.962  -5.289  24.686  1.00  0.00     0.119 C 
HETATM    6  C   UNL     1       5.953  -5.850  26.027  1.00  0.00     0.117 C 
HETATM    7  N   UNL     1       5.984  -6.339  27.042  1.00  0.00    -0.190 NA
ENDROOT
BRANCH   5   8
HETATM    8  C   UNL     1       5.243  -6.168  23.951  1.00  0.00     0.082 C 
HETATM    9  C   UNL     1       5.121  -5.545  22.718  1.00  0.00     0.261 C 
HETATM   10  O   UNL     1       5.121  -4.944  21.810  1.00  0.00    -0.302 OA
ENDBRANCH   5   8
BRANCH   1  11
HETATM   11  C   UNL     1       8.097  -2.776  23.581  1.00  0.00     0.095 C 
HETATM   12  C   UNL     1       8.337  -1.931  22.684  1.00  0.00     0.024 C 
BRANCH  12  13
HETATM   13  C   UNL     1       7.397  -1.532  21.800  1.00  0.00    -0.043 C 
HETATM   14  C   UNL     1       6.550  -1.171  21.148  1.00  0.00     0.028 C 
BRANCH  14  15
HETATM   15  N   UNL     1       5.787  -0.580  20.413  1.00  0.00    -0.223 N 
ATOM     16  HN  UNL     1       4.793  -0.600  20.638  1.00  0.00     0.192 HD
BRANCH  15  17
HETATM   17  S   UNL     1       6.255   0.250  19.082  1.00  0.00     0.216 S 
HETATM   18  O   UNL     1       5.787  -0.701  17.694  1.00  0.00    -0.577 OA
HETATM   19  O   UNL     1       5.533   1.494  19.046  1.00  0.00    -0.577 OA
HETATM   20  O   UNL     1       7.659   0.423  19.051  1.00  0.00    -0.577 OA
ENDBRANCH  15  17
ENDBRANCH  14  15
ENDBRANCH  12  13
BRANCH  12  21
HETATM   21  C   UNL     1       9.715  -1.634  22.591  1.00  0.00     0.021 C 
BRANCH  21  22
HETATM   22  C   UNL     1      10.710  -1.826  23.105  1.00  0.00     0.001 C 
BRANCH  22  23
HETATM   23  C   UNL     1      11.317  -0.912  23.867  1.00  0.00    -0.010 C 
HETATM   24  C   UNL     1      12.444  -0.779  23.802  1.00  0.00     0.011 C 
ENDBRANCH  22  23
ENDBRANCH  21  22
ENDBRANCH  12  21
ENDBRANCH   1  11
TORSDOF 8
ENDMDL
MODEL 6
REMARK VINA RESULT:    -6.039      3.478      6.354
REMARK INTER + INTRA:          -9.835
REMARK INTER:                  -8.638
REMARK INTRA:                  -1.197
REMARK UNBOUND:                -0.971
REMARK  8 active torsions:
REMARK  status: ('A' for Active; 'I' for Inactive)
REMARK    1  A    between atoms: S_2  and  N_5 
REMARK    2  A    between atoms: N_5  and  C_7 
REMARK    3  A    between atoms: C_8  and  C_9 
REMARK    4  A    between atoms: C_9  and  C_10 
REMARK    5  A    between atoms: C_10  and  C_11 
REMARK    6  A    between atoms: C_11  and  C_12 
REMARK    7  A    between atoms: C_14  and  C_15 
REMARK       I    between atoms: C_15  and  N_17 
REMARK    8  A    between atoms: C_19  and  C_24 
ROOT
HETATM    1  C   UNL     1       8.340  -2.433  22.413  1.00  0.00     0.247 C 
HETATM    2  O   UNL     1       9.307  -2.433  23.163  1.00  0.00    -0.268 OA
HETATM    3  N   UNL     1       7.334  -3.352  22.358  1.00  0.00    -0.315 N 
ATOM      4  HN  UNL     1       6.633  -3.296  21.620  1.00  0.00     0.170 HD
HETATM    5  C   UNL     1       7.266  -4.324  23.268  1.00  0.00     0.119 C 
HETATM    6  C   UNL     1       6.901  -4.339  24.675  1.00  0.00     0.117 C 
HETATM    7  N   UNL     1       6.683  -4.375  25.780  1.00  0.00    -0.190 NA
ENDROOT
BRANCH   5   8
HETATM    8  C   UNL     1       7.460  -5.626  22.958  1.00  0.00     0.082 C 
HETATM    9  C   UNL     1       6.735  -5.799  21.789  1.00  0.00     0.261 C 
HETATM   10  O   UNL     1       6.138  -5.778  20.878  1.00  0.00    -0.302 OA
ENDBRANCH   5   8
BRANCH   1  11
HETATM   11  C   UNL     1       8.245  -1.503  21.484  1.00  0.00     0.095 C 
HETATM   12  C   UNL     1       8.108  -0.328  21.064  1.00  0.00     0.024 C 
BRANCH  12  13
HETATM   13  C   UNL     1       9.022   0.636  21.311  1.00  0.00    -0.043 C 
HETATM   14  C   UNL     1       9.718   1.475  21.596  1.00  0.00     0.028 C 
BRANCH  14  15
HETATM   15  N   UNL     1      10.601   2.195  22.015  1.00  0.00    -0.223 N 
ATOM     16  HN  UNL     1      11.118   2.761  21.342  1.00  0.00     0.192 HD
BRANCH  15  17
HETATM   17  S   UNL     1      11.016   2.313  23.594  1.00  0.00     0.216 S 
HETATM   18  O   UNL     1       9.540   2.212  24.521  1.00  0.00    -0.577 OA
HETATM   19  O   UNL     1      11.844   1.185  23.931  1.00  0.00    -0.577 OA
HETATM   20  O   UNL     1      11.633   3.555  23.871  1.00  0.00    -0.577 OA
ENDBRANCH  15  17
ENDBRANCH  14  15
ENDBRANCH  12  13
BRANCH  12  21
HETATM   21  C   UNL     1       6.827  -0.109  20.513  1.00  0.00     0.021 C 
BRANCH  21  22
HETATM   22  C   UNL     1       6.037  -0.596  19.857  1.00  0.00     0.001 C 
BRANCH  22  23
HETATM   23  C   UNL     1       5.711  -0.127  18.651  1.00  0.00    -0.010 C 
HETATM   24  C   UNL     1       5.901   0.965  18.397  1.00  0.00     0.011 C 
ENDBRANCH  22  23
ENDBRANCH  21  22
ENDBRANCH  12  21
ENDBRANCH   1  11
TORSDOF 8
ENDMDL
MODEL 7
REMARK VINA RESULT:    -6.035      4.760      5.935
REMARK INTER + INTRA:          -9.829
REMARK INTER:                  -8.715
REMARK INTRA:                  -1.114
REMARK UNBOUND:                -0.971
REMARK  8 active torsions:
REMARK  status: ('A' for Active; 'I' for Inactive)
REMARK    1  A    between atoms: S_2  and  N_5 
REMARK    2  A    between atoms: N_5  and  C_7 
REMARK    3  A    between atoms: C_8  and  C_9 
REMARK    4  A    between atoms: C_9  and  C_10 
REMARK    5  A    between atoms: C_10  and  C_11 
REMARK    6  A    between atoms: C_11  and  C_12 
REMARK    7  A    between atoms: C_14  and  C_15 
REMARK       I    between atoms: C_15  and  N_17 
REMARK    8  A    between atoms: C_19  and  C_24 
ROOT
HETATM    1  C   UNL     1       9.179  -0.794  24.875  1.00  0.00     0.247 C 
HETATM    2  O   UNL     1       9.488  -0.628  26.048  1.00  0.00    -0.268 OA
HETATM    3  N   UNL     1       9.808  -0.294  23.774  1.00  0.00    -0.315 N 
ATOM      4  HN  UNL     1       9.396  -0.422  22.850  1.00  0.00     0.170 HD
HETATM    5  C   UNL     1      10.960   0.363  23.903  1.00  0.00     0.119 C 
HETATM    6  C   UNL     1      12.316  -0.066  24.205  1.00  0.00     0.117 C 
HETATM    7  N   UNL     1      13.365  -0.357  24.497  1.00  0.00    -0.190 NA
ENDROOT
BRANCH   5   8
HETATM    8  C   UNL     1      11.077   1.686  23.645  1.00  0.00     0.082 C 
HETATM    9  C   UNL     1      10.516   1.829  22.386  1.00  0.00     0.261 C 
HETATM   10  O   UNL     1      10.037   1.786  21.409  1.00  0.00    -0.302 OA
ENDBRANCH   5   8
BRANCH   1  11
HETATM   11  C   UNL     1       8.082  -1.465  24.587  1.00  0.00     0.095 C 
HETATM   12  C   UNL     1       7.359  -2.490  24.535  1.00  0.00     0.024 C 
BRANCH  12  13
HETATM   13  C   UNL     1       6.924  -3.121  25.647  1.00  0.00    -0.043 C 
HETATM   14  C   UNL     1       6.479  -3.577  26.578  1.00  0.00     0.028 C 
BRANCH  14  15
HETATM   15  N   UNL     1       5.916  -4.246  27.420  1.00  0.00    -0.223 N 
ATOM     16  HN  UNL     1       4.990  -3.948  27.727  1.00  0.00     0.192 HD
BRANCH  15  17
HETATM   17  S   UNL     1       6.551  -5.595  28.094  1.00  0.00     0.216 S 
HETATM   18  O   UNL     1       5.638  -6.952  27.484  1.00  0.00    -0.577 OA
HETATM   19  O   UNL     1       7.914  -5.725  27.649  1.00  0.00    -0.577 OA
HETATM   20  O   UNL     1       6.429  -5.572  29.503  1.00  0.00    -0.577 OA
ENDBRANCH  15  17
ENDBRANCH  14  15
ENDBRANCH  12  13
BRANCH  12  21
HETATM   21  C   UNL     1       7.249  -2.995  23.221  1.00  0.00     0.021 C 
BRANCH  21  22
HETATM   22  C   UNL     1       7.700  -3.762  22.514  1.00  0.00     0.001 C 
BRANCH  22  23
HETATM   23  C   UNL     1       7.205  -4.993  22.375  1.00  0.00    -0.010 C 
HETATM   24  C   UNL     1       6.216  -5.149  21.837  1.00  0.00     0.011 C 
ENDBRANCH  22  23
ENDBRANCH  21  22
ENDBRANCH  12  21
ENDBRANCH   1  11
TORSDOF 8
ENDMDL
MODEL 8
REMARK VINA RESULT:    -6.002      3.259      5.934
REMARK INTER + INTRA:          -9.780
REMARK INTER:                  -8.836
REMARK INTRA:                  -0.945
REMARK UNBOUND:                -0.971
REMARK  8 active torsions:
REMARK  status: ('A' for Active; 'I' for Inactive)
REMARK    1  A    between atoms: S_2  and  N_5 
REMARK    2  A    between atoms: N_5  and  C_7 
REMARK    3  A    between atoms: C_8  and  C_9 
REMARK    4  A    between atoms: C_9  and  C_10 
REMARK    5  A    between atoms: C_10  and  C_11 
REMARK    6  A    between atoms: C_11  and  C_12 
REMARK    7  A    between atoms: C_14  and  C_15 
REMARK       I    between atoms: C_15  and  N_17 
REMARK    8  A    between atoms: C_19  and  C_24 
ROOT
HETATM    1  C   UNL     1       8.308  -3.065  24.968  1.00  0.00     0.247 C 
HETATM    2  O   UNL     1       8.640  -4.083  24.374  1.00  0.00    -0.268 OA
HETATM    3  N   UNL     1       7.344  -2.940  25.924  1.00  0.00    -0.315 N 
ATOM      4  HN  UNL     1       7.092  -2.017  26.275  1.00  0.00     0.170 HD
HETATM    5  C   UNL     1       6.731  -4.024  26.400  1.00  0.00     0.119 C 
HETATM    6  C   UNL     1       7.157  -5.093  27.289  1.00  0.00     0.117 C 
HETATM    7  N   UNL     1       7.476  -5.968  27.924  1.00  0.00    -0.190 NA
ENDROOT
BRANCH   5   8
HETATM    8  C   UNL     1       5.421  -4.276  26.178  1.00  0.00     0.082 C 
HETATM    9  C   UNL     1       5.432  -5.199  25.144  1.00  0.00     0.261 C 
HETATM   10  O   UNL     1       5.600  -5.922  24.347  1.00  0.00    -0.302 OA
ENDBRANCH   5   8
BRANCH   1  11
HETATM   11  C   UNL     1       8.862  -1.916  24.636  1.00  0.00     0.095 C 
HETATM   12  C   UNL     1       9.516  -1.145  23.893  1.00  0.00     0.024 C 
BRANCH  12  13
HETATM   13  C   UNL     1       9.077  -0.781  22.668  1.00  0.00    -0.043 C 
HETATM   14  C   UNL     1       8.785  -0.398  21.648  1.00  0.00     0.028 C 
BRANCH  14  15
HETATM   15  N   UNL     1       8.603  -0.186  20.467  1.00  0.00    -0.223 N 
ATOM     16  HN  UNL     1       9.385  -0.333  19.828  1.00  0.00     0.192 HD
BRANCH  15  17
HETATM   17  S   UNL     1       7.181   0.320  19.835  1.00  0.00     0.216 S 
HETATM   18  O   UNL     1       6.076  -1.029  19.914  1.00  0.00    -0.577 OA
HETATM   19  O   UNL     1       6.668   1.379  20.664  1.00  0.00    -0.577 OA
HETATM   20  O   UNL     1       7.327   0.699  18.480  1.00  0.00    -0.577 OA
ENDBRANCH  15  17
ENDBRANCH  14  15
ENDBRANCH  12  13
BRANCH  12  21
HETATM   21  C   UNL     1      10.812  -0.895  24.397  1.00  0.00     0.021 C 
BRANCH  21  22
HETATM   22  C   UNL     1      11.522  -0.049  24.664  1.00  0.00     0.001 C 
BRANCH  22  23
HETATM   23  C   UNL     1      12.718   0.097  24.090  1.00  0.00    -0.010 C 
HETATM   24  C   UNL     1      13.449  -0.774  24.072  1.00  0.00     0.011 C 
ENDBRANCH  22  23
ENDBRANCH  21  22
ENDBRANCH  12  21
ENDBRANCH   1  11
TORSDOF 8
ENDMDL
MODEL 9
REMARK VINA RESULT:    -5.785      3.381      4.524
REMARK INTER + INTRA:          -9.462
REMARK INTER:                  -8.601
REMARK INTRA:                  -0.861
REMARK UNBOUND:                -0.971
REMARK  8 active torsions:
REMARK  status: ('A' for Active; 'I' for Inactive)
REMARK    1  A    between atoms: S_2  and  N_5 
REMARK    2  A    between atoms: N_5  and  C_7 
REMARK    3  A    between atoms: C_8  and  C_9 
REMARK    4  A    between atoms: C_9  and  C_10 
REMARK    5  A    between atoms: C_10  and  C_11 
REMARK    6  A    between atoms: C_11  and  C_12 
REMARK    7  A    between atoms: C_14  and  C_15 
REMARK       I    between atoms: C_15  and  N_17 
REMARK    8  A    between atoms: C_19  and  C_24 
ROOT
HETATM    1  C   UNL     1       9.307   0.660  22.015  1.00  0.00     0.247 C 
HETATM    2  O   UNL     1      10.014   0.939  21.055  1.00  0.00    -0.268 OA
HETATM    3  N   UNL     1       9.622   0.773  23.336  1.00  0.00    -0.315 N 
ATOM      4  HN  UNL     1       8.983   0.414  24.044  1.00  0.00     0.170 HD
HETATM    5  C   UNL     1      10.765   1.351  23.704  1.00  0.00     0.119 C 
HETATM    6  C   UNL     1      11.220   2.731  23.709  1.00  0.00     0.117 C 
HETATM    7  N   UNL     1      11.625   3.783  23.668  1.00  0.00    -0.190 NA
ENDROOT
BRANCH   5   8
HETATM    8  C   UNL     1      11.771   0.665  24.294  1.00  0.00     0.082 C 
HETATM    9  C   UNL     1      11.730  -0.577  23.679  1.00  0.00     0.261 C 
HETATM   10  O   UNL     1      11.584  -1.490  23.103  1.00  0.00    -0.302 OA
ENDBRANCH   5   8
BRANCH   1  11
HETATM   11  C   UNL     1       8.124   0.119  21.807  1.00  0.00     0.095 C 
HETATM   12  C   UNL     1       7.340  -0.779  21.412  1.00  0.00     0.024 C 
BRANCH  12  13
HETATM   13  C   UNL     1       7.313  -2.008  21.971  1.00  0.00    -0.043 C 
HETATM   14  C   UNL     1       7.334  -2.990  22.527  1.00  0.00     0.028 C 
BRANCH  14  15
HETATM   15  N   UNL     1       7.106  -4.005  23.151  1.00  0.00    -0.223 N 
ATOM     16  HN  UNL     1       7.575  -4.131  24.048  1.00  0.00     0.192 HD
BRANCH  15  17
HETATM   17  S   UNL     1       6.094  -5.186  22.643  1.00  0.00     0.216 S 
HETATM   18  O   UNL     1       5.630  -6.106  24.053  1.00  0.00    -0.577 OA
HETATM   19  O   UNL     1       4.916  -4.568  22.093  1.00  0.00    -0.577 OA
HETATM   20  O   UNL     1       6.737  -6.058  21.733  1.00  0.00    -0.577 OA
ENDBRANCH  15  17
ENDBRANCH  14  15
ENDBRANCH  12  13
BRANCH  12  21
HETATM   21  C   UNL     1       6.676  -0.415  20.220  1.00  0.00     0.021 C 
BRANCH  21  22
HETATM   22  C   UNL     1       6.845   0.096  19.220  1.00  0.00     0.001 C 
BRANCH  22  23
HETATM   23  C   UNL     1       5.934   0.890  18.652  1.00  0.00    -0.010 C 
HETATM   24  C   UNL     1       4.921   1.036  19.148  1.00  0.00     0.011 C 
ENDBRANCH  22  23
ENDBRANCH  21  22
ENDBRANCH  12  21
ENDBRANCH   1  11
TORSDOF 8
ENDMDL
