stable:False satoms:19 tatoms:24 sratio:0.7916666666666666
  -OEChem-07092417373D

 24 24  0     0  0  0  0  0  0999 V2000
    6.9407   -4.4330   25.3584 H   0  0  0  0  0  0  0  0  0  0  0  0
    8.6966   -4.8900   25.2662 H   0  0  0  0  0  0  0  0  0  0  0  0
    7.9361   -4.2894   25.5889 C   0  5  0  0  0  0  0  0  0  0  0  0
    9.8730   -2.2457   26.1565 O   0  0  0  0  0  0  0  0  0  0  0  0
    8.1789   -3.4529   26.1793 H   0  0  0  0  0  0  0  0  0  0  0  0
   11.0873   -1.8091   24.2844 O   0  0  0  0  0  0  0  0  0  0  0  0
    8.6855   -2.4549   23.9982 S   0  0  0  0  0  0  0  0  0  0  0  0
    9.9780   -0.6211   22.5541 C   0  0  0  0  0  0  0  0  0  0  0  0
   10.0241   -2.0505   24.9760 C   0  0  0  0  0  0  0  0  0  0  0  0
    8.8128   -1.2352   22.8986 C   0  0  0  0  0  0  0  0  0  0  0  0
   11.7478    0.0613   23.5186 H   0  0  0  0  0  0  0  0  0  0  0  0
   12.0377   -1.3497   22.5432 H   0  0  0  0  0  0  0  0  0  0  0  0
   11.3030   -0.8909   23.1973 C   0  0  0  0  0  0  0  0  0  0  0  0
    9.8000    0.3068   21.5257 C   0  0  0  0  0  0  0  0  0  0  0  0
   10.6152    0.9553   21.2681 H   0  0  0  0  0  0  0  0  0  0  0  0
    8.7332    0.5401   20.8097 N   0  0  0  0  0  0  0  0  0  0  0  0
    7.5568   -0.9116   22.1480 C   0  0  0  0  0  0  0  0  0  0  0  0
    7.6076   -0.1047   21.0581 C   0  0  0  0  0  0  0  0  0  0  0  0
    7.4771   -0.0012   18.5593 H   0  0  0  0  0  0  0  0  0  0  0  0
    5.7874    0.4982   18.4562 H   0  0  0  0  0  0  0  0  0  0  0  0
    6.9902    1.6208   19.0639 H   0  0  0  0  0  0  0  0  0  0  0  0
    6.6808    0.5732   19.0403 C   0  0  0  0  0  0  0  0  0  0  0  0
    6.4529    0.1109   20.3551 O   0  0  0  0  0  0  0  0  0  0  0  0
    6.5813   -1.2169   22.4924 H   0  0  0  0  0  0  0  0  0  0  0  0
 20 22  1  0  0  0  0
 19 22  1  0  0  0  0
 21 22  1  0  0  0  0
 22 23  1  0  0  0  0
 18 23  1  0  0  0  0
 16 18  2  0  0  0  0
 14 16  1  0  0  0  0
 17 18  1  0  0  0  0
 14 15  1  0  0  0  0
  8 14  2  0  0  0  0
 17 24  1  0  0  0  0
 10 17  2  0  0  0  0
 12 13  1  0  0  0  0
  8 10  1  0  0  0  0
  8 13  1  0  0  0  0
  7 10  1  0  0  0  0
 11 13  1  0  0  0  0
  6 13  1  0  0  0  0
  7  9  1  0  0  0  0
  6  9  1  0  0  0  0
  4  9  2  0  0  0  0
  2  3  1  0  0  0  0
  1  3  1  0  0  0  0
  3  5  1  0  0  0  0
M  CHG  1   3  -1
M  END
> <Shapegauss>
-147.535797

$$$$
