REMARK  0 active torsions:
REMARK  status: ('A' for Active; 'I' for Inactive)
ROOT
HETATM    1  C   UNL     1       9.861   0.769  21.271  1.00  0.00     0.119 C 
HETATM    2  S   UNL     1       6.147  -2.766  22.245  1.00  0.00    -0.142 SA
HETATM    3  C   UNL     1       8.624  -2.553  23.153  1.00  0.00     0.052 C 
HETATM    4  C   UNL     1      10.819   0.102  22.102  1.00  0.00     0.049 C 
HETATM    5  C   UNL     1      11.278  -1.761  23.706  1.00  0.00     0.049 C 
HETATM    6  C   UNL     1      10.365  -0.911  22.866  1.00  0.00    -0.050 C 
HETATM    7  C   UNL     1       8.521   0.611  21.274  1.00  0.00     0.079 C 
HETATM    8  C   UNL     1       8.973  -1.173  22.760  1.00  0.00    -0.018 C 
HETATM    9  C   UNL     1       7.196  -2.606  23.681  1.00  0.00     0.081 C 
HETATM   10  C   UNL     1       5.902  -0.940  21.711  1.00  0.00     0.249 C 
HETATM   11  F   UNL     1      10.140   1.684  20.080  1.00  0.00    -0.206 F 
HETATM   12  C   UNL     1       8.023  -0.313  22.165  1.00  0.00     0.079 C 
HETATM   13  O   UNL     1       6.684  -0.128  22.487  1.00  0.00    -0.341 OA
ENDROOT
TORSDOF 0
