MODEL 1
REMARK VINA RESULT:    -5.356      0.000      0.000
REMARK INTER + INTRA:          -5.356
REMARK INTER:                  -5.356
REMARK INTRA:                   0.000
REMARK UNBOUND:                 0.000
REMARK  0 active torsions:
REMARK  status: ('A' for Active; 'I' for Inactive)
ROOT
HETATM    1  C   UNL     1       9.827  -1.571  22.357  1.00  0.00     0.119 C 
HETATM    2  S   UNL     1       9.241   3.462  23.607  1.00  0.00    -0.142 SA
HETATM    3  C   UNL     1      11.255   1.794  24.014  1.00  0.00     0.052 C 
HETATM    4  C   UNL     1      11.118  -1.651  22.972  1.00  0.00     0.049 C 
HETATM    5  C   UNL     1      12.977  -0.442  24.128  1.00  0.00     0.049 C 
HETATM    6  C   UNL     1      11.675  -0.493  23.378  1.00  0.00    -0.050 C 
HETATM    7  C   UNL     1       9.161  -0.457  21.989  1.00  0.00     0.079 C 
HETATM    8  C   UNL     1      10.905   0.672  23.119  1.00  0.00    -0.018 C 
HETATM    9  C   UNL     1      10.972   3.124  23.328  1.00  0.00     0.081 C 
HETATM   10  C   UNL     1       8.401   2.518  22.164  1.00  0.00     0.249 C 
HETATM   11  F   UNL     1       8.833  -2.709  22.128  1.00  0.00    -0.206 F 
HETATM   12  C   UNL     1       9.789   0.739  22.255  1.00  0.00     0.079 C 
HETATM   13  O   UNL     1       9.343   1.800  21.477  1.00  0.00    -0.341 OA
ENDROOT
TORSDOF 0
ENDMDL
MODEL 2
REMARK VINA RESULT:    -4.843      2.755      3.976
REMARK INTER + INTRA:          -4.843
REMARK INTER:                  -4.843
REMARK INTRA:                   0.000
REMARK UNBOUND:                 0.000
REMARK  0 active torsions:
REMARK  status: ('A' for Active; 'I' for Inactive)
ROOT
HETATM    1  C   UNL     1      12.366  -0.091  24.042  1.00  0.00     0.119 C 
HETATM    2  S   UNL     1       7.460  -1.871  23.967  1.00  0.00    -0.142 SA
HETATM    3  C   UNL     1       8.413   0.598  23.951  1.00  0.00     0.052 C 
HETATM    4  C   UNL     1      11.948   1.280  24.063  1.00  0.00     0.049 C 
HETATM    5  C   UNL     1      10.047   2.902  23.959  1.00  0.00     0.049 C 
HETATM    6  C   UNL     1      10.638   1.522  23.862  1.00  0.00    -0.050 C 
HETATM    7  C   UNL     1      11.633  -1.167  23.689  1.00  0.00     0.079 C 
HETATM    8  C   UNL     1       9.837   0.372  23.632  1.00  0.00    -0.018 C 
HETATM    9  C   UNL     1       7.531  -0.310  23.104  1.00  0.00     0.081 C 
HETATM   10  C   UNL     1       9.031  -2.766  23.327  1.00  0.00     0.249 C 
HETATM   11  F   UNL     1      13.676  -0.672  24.571  1.00  0.00    -0.206 F 
HETATM   12  C   UNL     1      10.328  -0.918  23.327  1.00  0.00     0.079 C 
HETATM   13  O   UNL     1       9.756  -1.911  22.541  1.00  0.00    -0.341 OA
ENDROOT
TORSDOF 0
ENDMDL
MODEL 3
REMARK VINA RESULT:    -4.832      6.575      8.077
REMARK INTER + INTRA:          -4.832
REMARK INTER:                  -4.832
REMARK INTRA:                   0.000
REMARK UNBOUND:                 0.000
REMARK  0 active torsions:
REMARK  status: ('A' for Active; 'I' for Inactive)
ROOT
HETATM    1  C   UNL     1       7.948  -4.956  26.528  1.00  0.00     0.119 C 
HETATM    2  S   UNL     1       6.004  -5.688  21.740  1.00  0.00    -0.142 SA
HETATM    3  C   UNL     1       5.058  -6.355  24.120  1.00  0.00     0.052 C 
HETATM    4  C   UNL     1       6.858  -5.642  27.157  1.00  0.00     0.049 C 
HETATM    5  C   UNL     1       4.643  -6.771  26.883  1.00  0.00     0.049 C 
HETATM    6  C   UNL     1       5.807  -5.963  26.377  1.00  0.00    -0.050 C 
HETATM    7  C   UNL     1       7.987  -4.450  25.278  1.00  0.00     0.079 C 
HETATM    8  C   UNL     1       5.911  -5.555  25.021  1.00  0.00    -0.018 C 
HETATM    9  C   UNL     1       4.658  -5.532  22.903  1.00  0.00     0.081 C 
HETATM   10  C   UNL     1       7.200  -4.300  22.309  1.00  0.00     0.249 C 
HETATM   11  F   UNL     1       9.370  -4.786  27.059  1.00  0.00    -0.206 F 
HETATM   12  C   UNL     1       6.855  -4.632  24.516  1.00  0.00     0.079 C 
HETATM   13  O   UNL     1       6.728  -3.735  23.463  1.00  0.00    -0.341 OA
ENDROOT
TORSDOF 0
ENDMDL
MODEL 4
REMARK VINA RESULT:    -4.808     24.719     26.277
REMARK INTER + INTRA:          -4.808
REMARK INTER:                  -4.808
REMARK INTRA:                   0.000
REMARK UNBOUND:                 0.000
REMARK  0 active torsions:
REMARK  status: ('A' for Active; 'I' for Inactive)
ROOT
HETATM    1  C   UNL     1      19.682 -20.660  14.624  1.00  0.00     0.119 C 
HETATM    2  S   UNL     1      22.430 -23.388  18.123  1.00  0.00    -0.142 SA
HETATM    3  C   UNL     1      22.279 -23.595  15.488  1.00  0.00     0.052 C 
HETATM    4  C   UNL     1      20.152 -21.452  13.526  1.00  0.00     0.049 C 
HETATM    5  C   UNL     1      21.665 -23.285  12.749  1.00  0.00     0.049 C 
HETATM    6  C   UNL     1      21.147 -22.323  13.782  1.00  0.00    -0.050 C 
HETATM    7  C   UNL     1      20.221 -20.565  15.857  1.00  0.00     0.079 C 
HETATM    8  C   UNL     1      21.619 -22.326  15.122  1.00  0.00    -0.018 C 
HETATM    9  C   UNL     1      23.320 -23.354  16.575  1.00  0.00     0.081 C 
HETATM   10  C   UNL     1      21.817 -21.577  18.282  1.00  0.00     0.249 C 
HETATM   11  F   UNL     1      18.375 -19.874  14.711  1.00  0.00    -0.206 F 
HETATM   12  C   UNL     1      21.339 -21.335  16.089  1.00  0.00     0.079 C 
HETATM   13  O   UNL     1      22.128 -20.887  17.142  1.00  0.00    -0.341 OA
ENDROOT
TORSDOF 0
ENDMDL
MODEL 5
REMARK VINA RESULT:    -4.769      2.306      3.705
REMARK INTER + INTRA:          -4.769
REMARK INTER:                  -4.769
REMARK INTRA:                   0.000
REMARK UNBOUND:                 0.000
REMARK  0 active torsions:
REMARK  status: ('A' for Active; 'I' for Inactive)
ROOT
HETATM    1  C   UNL     1       8.409   0.324  20.829  1.00  0.00     0.119 C 
HETATM    2  S   UNL     1      12.412  -0.174  24.141  1.00  0.00    -0.142 SA
HETATM    3  C   UNL     1      10.393   1.537  24.101  1.00  0.00     0.052 C 
HETATM    4  C   UNL     1       7.887   1.468  21.515  1.00  0.00     0.049 C 
HETATM    5  C   UNL     1       8.063   3.007  23.478  1.00  0.00     0.049 C 
HETATM    6  C   UNL     1       8.444   1.777  22.702  1.00  0.00    -0.050 C 
HETATM    7  C   UNL     1       9.291  -0.583  21.300  1.00  0.00     0.079 C 
HETATM    8  C   UNL     1       9.477   0.901  23.132  1.00  0.00    -0.018 C 
HETATM    9  C   UNL     1      11.003   0.485  25.018  1.00  0.00     0.081 C 
HETATM   10  C   UNL     1      11.618  -1.547  23.063  1.00  0.00     0.249 C 
HETATM   11  F   UNL     1       8.224  -0.044  19.358  1.00  0.00    -0.206 F 
HETATM   12  C   UNL     1       9.755  -0.369  22.578  1.00  0.00     0.079 C 
HETATM   13  O   UNL     1      10.257  -1.506  23.199  1.00  0.00    -0.341 OA
ENDROOT
TORSDOF 0
ENDMDL
MODEL 6
REMARK VINA RESULT:    -4.763      6.350      7.618
REMARK INTER + INTRA:          -4.763
REMARK INTER:                  -4.763
REMARK INTRA:                   0.000
REMARK UNBOUND:                 0.000
REMARK  0 active torsions:
REMARK  status: ('A' for Active; 'I' for Inactive)
ROOT
HETATM    1  C   UNL     1       4.994  -6.020  23.744  1.00  0.00     0.119 C 
HETATM    2  S   UNL     1       8.499  -2.745  25.800  1.00  0.00    -0.142 SA
HETATM    3  C   UNL     1       7.021  -4.634  26.919  1.00  0.00     0.052 C 
HETATM    4  C   UNL     1       4.685  -6.607  25.014  1.00  0.00     0.049 C 
HETATM    5  C   UNL     1       5.205  -6.730  27.457  1.00  0.00     0.049 C 
HETATM    6  C   UNL     1       5.476  -6.269  26.051  1.00  0.00    -0.050 C 
HETATM    7  C   UNL     1       6.081  -5.289  23.420  1.00  0.00     0.079 C 
HETATM    8  C   UNL     1       6.539  -5.381  25.739  1.00  0.00    -0.018 C 
HETATM    9  C   UNL     1       8.487  -4.261  26.744  1.00  0.00     0.081 C 
HETATM   10  C   UNL     1       8.428  -3.387  23.994  1.00  0.00     0.249 C 
HETATM   11  F   UNL     1       4.094  -5.942  22.512  1.00  0.00    -0.206 F 
HETATM   12  C   UNL     1       6.984  -5.065  24.435  1.00  0.00     0.079 C 
HETATM   13  O   UNL     1       8.263  -4.745  23.998  1.00  0.00    -0.341 OA
ENDROOT
TORSDOF 0
ENDMDL
MODEL 7
REMARK VINA RESULT:    -4.733      2.931      3.891
REMARK INTER + INTRA:          -4.733
REMARK INTER:                  -4.733
REMARK INTRA:                   0.000
REMARK UNBOUND:                 0.000
REMARK  0 active torsions:
REMARK  status: ('A' for Active; 'I' for Inactive)
ROOT
HETATM    1  C   UNL     1      10.607   2.120  23.943  1.00  0.00     0.119 C 
HETATM    2  S   UNL     1       7.989  -2.115  22.378  1.00  0.00    -0.142 SA
HETATM    3  C   UNL     1      10.519  -1.800  23.090  1.00  0.00     0.052 C 
HETATM    4  C   UNL     1      11.844   1.406  24.056  1.00  0.00     0.049 C 
HETATM    5  C   UNL     1      13.021  -0.797  23.933  1.00  0.00     0.049 C 
HETATM    6  C   UNL     1      11.789   0.065  23.937  1.00  0.00    -0.050 C 
HETATM    7  C   UNL     1       9.363   1.602  23.889  1.00  0.00     0.079 C 
HETATM    8  C   UNL     1      10.489  -0.472  23.734  1.00  0.00    -0.018 C 
HETATM    9  C   UNL     1       9.293  -2.609  23.493  1.00  0.00     0.081 C 
HETATM   10  C   UNL     1       7.274  -0.561  23.247  1.00  0.00     0.249 C 
HETATM   11  F   UNL     1      10.416   3.615  23.690  1.00  0.00    -0.206 F 
HETATM   12  C   UNL     1       9.277   0.229  23.925  1.00  0.00     0.079 C 
HETATM   13  O   UNL     1       8.041  -0.254  24.338  1.00  0.00    -0.341 OA
ENDROOT
TORSDOF 0
ENDMDL
MODEL 8
REMARK VINA RESULT:    -4.678      3.323      4.814
REMARK INTER + INTRA:          -4.678
REMARK INTER:                  -4.678
REMARK INTRA:                   0.000
REMARK UNBOUND:                 0.000
REMARK  0 active torsions:
REMARK  status: ('A' for Active; 'I' for Inactive)
ROOT
HETATM    1  C   UNL     1       5.951  -0.289  19.203  1.00  0.00     0.119 C 
HETATM    2  S   UNL     1       8.351   1.345  23.540  1.00  0.00    -0.142 SA
HETATM    3  C   UNL     1       7.134  -0.938  22.983  1.00  0.00     0.052 C 
HETATM    4  C   UNL     1       5.574  -1.540  19.792  1.00  0.00     0.049 C 
HETATM    5  C   UNL     1       5.722  -3.063  21.770  1.00  0.00     0.049 C 
HETATM    6  C   UNL     1       6.109  -1.835  20.993  1.00  0.00    -0.050 C 
HETATM    7  C   UNL     1       6.903   0.566  19.631  1.00  0.00     0.079 C 
HETATM    8  C   UNL     1       7.004  -0.862  21.514  1.00  0.00    -0.018 C 
HETATM    9  C   UNL     1       8.502  -0.430  23.419  1.00  0.00     0.081 C 
HETATM   10  C   UNL     1       8.694   1.909  21.739  1.00  0.00     0.249 C 
HETATM   11  F   UNL     1       5.257   0.446  18.058  1.00  0.00    -0.206 F 
HETATM   12  C   UNL     1       7.572   0.202  20.777  1.00  0.00     0.079 C 
HETATM   13  O   UNL     1       8.812   0.811  20.930  1.00  0.00    -0.341 OA
ENDROOT
TORSDOF 0
ENDMDL
MODEL 9
REMARK VINA RESULT:    -4.669      6.832      8.373
REMARK INTER + INTRA:          -4.669
REMARK INTER:                  -4.669
REMARK INTRA:                   0.000
REMARK UNBOUND:                 0.000
REMARK  0 active torsions:
REMARK  status: ('A' for Active; 'I' for Inactive)
ROOT
HETATM    1  C   UNL     1       8.172  -3.892  25.542  1.00  0.00     0.119 C 
HETATM    2  S   UNL     1       3.563  -6.287  26.046  1.00  0.00    -0.142 SA
HETATM    3  C   UNL     1       5.078  -5.865  23.917  1.00  0.00     0.052 C 
HETATM    4  C   UNL     1       8.202  -4.083  24.122  1.00  0.00     0.049 C 
HETATM    5  C   UNL     1       7.110  -5.095  22.112  1.00  0.00     0.049 C 
HETATM    6  C   UNL     1       7.258  -4.888  23.595  1.00  0.00    -0.050 C 
HETATM    7  C   UNL     1       7.409  -4.544  26.442  1.00  0.00     0.079 C 
HETATM    8  C   UNL     1       6.359  -5.463  24.532  1.00  0.00    -0.018 C 
HETATM    9  C   UNL     1       4.462  -7.024  24.690  1.00  0.00     0.081 C 
HETATM   10  C   UNL     1       4.924  -6.093  27.383  1.00  0.00     0.249 C 
HETATM   11  F   UNL     1       8.870  -2.797  26.347  1.00  0.00    -0.206 F 
HETATM   12  C   UNL     1       6.545  -5.487  25.932  1.00  0.00     0.079 C 
HETATM   13  O   UNL     1       6.137  -6.443  26.855  1.00  0.00    -0.341 OA
ENDROOT
TORSDOF 0
ENDMDL
