stable:False satoms:19 tatoms:24 sratio:0.7916666666666666
  -OEChem-07092417333D

 24 25  0     0  0  0  0  0  0999 V2000
    6.8728   -1.7284   24.2457 H   0  0  0  0  0  0  0  0  0  0  0  0
    7.0935   -3.4515   24.3647 H   0  0  0  0  0  0  0  0  0  0  0  0
   10.8901   -1.9384   24.7137 H   0  0  0  0  0  0  0  0  0  0  0  0
    9.8615    0.7695   21.2713 C   0  0  0  0  0  0  0  0  0  0  0  0
    6.1472   -2.7663   22.2451 S   0  0  0  0  0  0  0  0  0  0  0  0
    8.6239   -2.5528   23.1534 C   0  0  0  0  0  0  0  0  0  0  0  0
   11.3843   -2.7425   23.2590 H   0  0  0  0  0  0  0  0  0  0  0  0
    9.2942   -3.0303   23.8644 H   0  0  0  0  0  0  0  0  0  0  0  0
   11.8723    0.3612   22.0641 H   0  0  0  0  0  0  0  0  0  0  0  0
   10.8195    0.1022   22.1022 C   0  0  0  0  0  0  0  0  0  0  0  0
   11.2783   -1.7606   23.7057 C   0  0  0  0  0  0  0  0  0  0  0  0
   12.2618   -1.2897   23.7649 H   0  0  0  0  0  0  0  0  0  0  0  0
   10.3651   -0.9108   22.8664 C   0  0  0  0  0  0  0  0  0  0  0  0
    8.5214    0.6111   21.2743 C   0  0  0  0  0  0  0  0  0  0  0  0
    8.9733   -1.1734   22.7600 C   0  0  0  0  0  0  0  0  0  0  0  0
    8.7021   -3.0999   22.2093 H   0  0  0  0  0  0  0  0  0  0  0  0
    4.8656   -0.7407   21.9987 H   0  0  0  0  0  0  0  0  0  0  0  0
    7.1961   -2.6057   23.6807 C   0  0  0  0  0  0  0  0  0  0  0  0
    5.9018   -0.9395   21.7109 C   0  0  0  0  0  0  0  0  0  0  0  0
   10.1405    1.6843   20.0803 F   0  0  0  0  0  0  0  0  0  0  0  0
    6.0187   -0.8271   20.6326 H   0  0  0  0  0  0  0  0  0  0  0  0
    7.7930    1.1802   20.6778 H   0  0  0  0  0  0  0  0  0  0  0  0
    8.0227   -0.3132   22.1646 C   0  0  0  0  0  0  0  0  0  0  0  0
    6.6843   -0.1280   22.4869 O   0  0  0  0  0  0  0  0  0  0  0  0
  4 20  1  0  0  0  0
 19 21  1  0  0  0  0
 14 22  1  0  0  0  0
  4 14  2  0  0  0  0
  4 10  1  0  0  0  0
 14 23  1  0  0  0  0
 17 19  1  0  0  0  0
  5 19  1  0  0  0  0
 19 24  1  0  0  0  0
  9 10  1  0  0  0  0
 10 13  2  0  0  0  0
 23 24  1  0  0  0  0
 15 23  2  0  0  0  0
  6 16  1  0  0  0  0
  5 18  1  0  0  0  0
 13 15  1  0  0  0  0
  6 15  1  0  0  0  0
 11 13  1  0  0  0  0
  6 18  1  0  0  0  0
  6  8  1  0  0  0  0
  7 11  1  0  0  0  0
  1 18  1  0  0  0  0
  2 18  1  0  0  0  0
 11 12  1  0  0  0  0
  3 11  1  0  0  0  0
M  END
> <Shapegauss>
-113.161774

$$$$
