stable:False satoms:18 tatoms:24 sratio:0.75
  -OEChem-07092417313D

 24 24  0     1  0  0  0  0  0999 V2000
    8.0045   -1.3861   22.7292 C   0  0  1  0  0  0  0  0  0  0  0  0
    9.4854   -1.1150   25.0406 H   0  0  0  0  0  0  0  0  0  0  0  0
    7.9431   -2.8577   24.0903 H   0  0  0  0  0  0  0  0  0  0  0  0
   10.4125   -2.5304   24.6803 H   0  0  0  0  0  0  0  0  0  0  0  0
    7.2539   -2.1806   22.1233 C   0  0  0  0  0  0  0  0  0  0  0  0
   10.5035   -2.2258   22.0790 C   0  0  0  0  0  0  0  0  0  0  0  0
    9.8959   -2.8516   21.4140 H   0  0  0  0  0  0  0  0  0  0  0  0
    7.9768    0.0038   22.0298 C   0  0  0  0  0  0  0  0  0  0  0  0
   11.1829   -0.9342   24.5454 H   0  0  0  0  0  0  0  0  0  0  0  0
    9.9564   -1.3787   22.9177 C   0  0  0  0  0  0  0  0  0  0  0  0
   10.2712   -1.4787   24.4001 C   0  0  0  0  0  0  0  0  0  0  0  0
   11.4554   -2.7279   22.3227 H   0  0  0  0  0  0  0  0  0  0  0  0
    6.4863    1.4211   21.9077 H   0  0  0  0  0  0  0  0  0  0  0  0
   10.1650   -0.3977   20.9686 H   0  0  0  0  0  0  0  0  0  0  0  0
   11.4539   -0.1956   22.1344 H   0  0  0  0  0  0  0  0  0  0  0  0
   10.5690   -0.7772   21.8981 C   0  0  0  0  0  0  0  0  0  0  0  0
    8.5836    0.7132   22.5724 H   0  0  0  0  0  0  0  0  0  0  0  0
    6.5164    0.3497   21.9766 C   0  0  0  0  0  0  0  0  0  0  0  0
    7.5927   -2.3266   20.9635 H   0  0  0  0  0  0  0  0  0  0  0  0
    8.2734    0.0305   20.9871 H   0  0  0  0  0  0  0  0  0  0  0  0
    5.9732   -0.0637   21.1202 H   0  0  0  0  0  0  0  0  0  0  0  0
    6.1720   -2.2759   21.9617 H   0  0  0  0  0  0  0  0  0  0  0  0
    7.4632   -2.1527   23.5565 N   0  0  0  0  0  0  0  0  0  0  0  0
    5.9939    0.0475   22.8776 H   0  0  0  0  0  0  0  0  0  0  0  0
  5 19  1  0  0  0  0
 14 16  1  0  0  0  0
  8 20  1  0  0  0  0
 18 21  1  0  0  0  0
  6  7  1  0  0  0  0
  6 16  1  0  0  0  0
 15 16  1  0  0  0  0
 10 16  1  0  0  0  0
 13 18  1  0  0  0  0
  5 22  1  0  0  0  0
  8 18  1  0  0  0  0
 18 24  1  0  0  0  0
  8 17  1  0  0  0  0
  1  8  1  0  0  0  0
  6 12  1  0  0  0  0
  6 10  1  0  0  0  0
  1  5  1  0  0  0  0
  5 23  1  0  0  0  0
  1 23  1  0  0  0  0
 10 11  1  0  0  0  0
  3 23  1  0  0  0  0
  9 11  1  0  0  0  0
  4 11  1  0  0  0  0
  2 11  1  0  0  0  0
M  END
> <Shapegauss>
-76.754059

$$$$
