REMARK  1 active torsions:
REMARK  status: ('A' for Active; 'I' for Inactive)
REMARK    1  A    between atoms: C_1  and  C_4 
ROOT
HETATM    1  C   UNL     2      10.504  -2.226  22.079  1.00  0.00     0.004 A 
HETATM    2  C   UNL     2       9.956  -1.379  22.918  1.00  0.00    -0.019 A 
HETATM    3  C   UNL     2      10.271  -1.479  24.400  1.00  0.00     0.010 C 
HETATM    4  C   UNL     2      10.569  -0.777  21.898  1.00  0.00     0.004 A 
ENDROOT
TORSDOF 1
