stable:False satoms:13 tatoms:24 sratio:0.5416666666666666
  -OEChem-08062411423D

 35 35  0     0  0  0  0  0  0999 V2000
   -6.5632   -5.4679  -26.5153 Cl  0  0  0  0  0  0  0  0  0  0  0  0
   -8.2768   -4.8081  -26.2652 S   0  0  0  0  0  0  0  0  0  0  0  0
   -9.1337   -5.9188  -26.0698 O   0  0  0  0  0  0  0  0  0  0  0  0
   -8.5943   -3.9923  -27.3597 O   0  0  0  0  0  0  0  0  0  0  0  0
   -8.0700   -3.9701  -24.8956 N   0  0  0  0  0  0  0  0  0  0  0  0
   -8.7918   -3.1904  -24.3235 C   0  0  0  0  0  0  0  0  0  0  0  0
   -9.2125   -2.3640  -23.7237 C   0  0  0  0  0  0  0  0  0  0  0  0
   -9.9891   -1.5344  -23.0509 C   0  0  0  0  0  0  0  0  0  0  0  0
  -11.3062   -0.0182  -24.5653 H   0  0  0  0  0  0  0  0  0  0  0  0
  -12.2207   -0.1992  -24.0721 C   0  0  0  0  0  0  0  0  0  0  0  0
  -13.1467    0.1799  -24.0980 H   0  0  0  0  0  0  0  0  0  0  0  0
  -12.1493   -1.2050  -23.1547 C   0  0  0  0  0  0  0  0  0  0  0  0
  -11.2902   -1.7873  -22.7644 C   0  0  0  0  0  0  0  0  0  0  0  0
   -9.6763   -0.4415  -22.5292 N   0  0  0  0  0  0  0  0  0  0  0  0
   -8.7722    0.0264  -21.5720 C   0  0  0  0  0  0  0  0  0  0  0  0
   -9.1020    1.0127  -20.9754 O   0  0  0  0  0  0  0  0  0  0  0  0
   -7.6160   -0.6683  -21.4499 N   0  0  0  0  0  0  0  0  0  0  0  0
   -6.8066   -0.1782  -20.6232 C   0  0  0  0  0  0  0  0  0  0  0  0
   -6.6681    0.0314  -19.3784 C   0  0  0  0  0  0  0  0  0  0  0  0
   -5.9062    0.4427  -17.7527 N   0  3  0  0  0  0  0  0  0  0  0  0
   -5.5295    0.5547  -18.6692 C   0  0  0  0  0  0  0  0  0  0  0  0
   -4.9191    0.7063  -19.9591 C   0  0  0  0  0  0  0  0  0  0  0  0
   -5.3686    0.3594  -21.0165 C   0  0  0  0  0  0  0  0  0  0  0  0
   -5.0215    0.3790  -22.0242 H   0  0  0  0  0  0  0  0  0  0  0  0
   -7.2354   -3.4448  -25.0613 H   0  0  0  0  0  0  0  0  0  0  0  0
  -13.1024   -1.4856  -22.7313 H   0  0  0  0  0  0  0  0  0  0  0  0
  -11.5055   -2.6171  -22.1075 H   0  0  0  0  0  0  0  0  0  0  0  0
  -10.2269    0.3060  -22.9008 H   0  0  0  0  0  0  0  0  0  0  0  0
   -7.4233   -1.4990  -21.9722 H   0  0  0  0  0  0  0  0  0  0  0  0
   -6.8530   -0.9484  -18.9139 H   0  0  0  0  0  0  0  0  0  0  0  0
   -7.4884    0.7186  -19.1238 H   0  0  0  0  0  0  0  0  0  0  0  0
   -6.1076   -0.5233  -17.5908 H   0  0  0  0  0  0  0  0  0  0  0  0
   -5.2412    0.7623  -17.0777 H   0  0  0  0  0  0  0  0  0  0  0  0
   -3.9507    1.1840  -19.9806 H   0  0  0  0  0  0  0  0  0  0  0  0
   -6.7476    0.9769  -17.6706 H   0  0  0  0  0  0  0  0  0  0  0  0
 20 21  1  0  0  0  0
 19 21  1  0  0  0  0
 21 22  2  0  0  0  0
 18 19  1  0  0  0  0
 22 23  1  0  0  0  0
 18 23  2  0  0  0  0
 17 18  1  0  0  0  0
 23 24  1  0  0  0  0
 15 16  2  0  0  0  0
 15 17  1  0  0  0  0
 14 15  1  0  0  0  0
  8 14  1  0  0  0  0
  8 13  2  3  0  0  0
 12 13  1  0  0  0  0
  7  8  1  0  0  0  0
 10 12  2  0  0  0  0
  6  7  3  0  0  0  0
 10 11  1  0  0  0  0
  9 10  1  0  0  0  0
  5  6  1  0  0  0  0
  2  5  1  0  0  0  0
  2  3  2  0  0  0  0
  1  2  1  0  0  0  0
  2  4  2  0  0  0  0
  5 25  1  0  0  0  0
 12 26  1  0  0  0  0
 13 27  1  0  0  0  0
 14 28  1  0  0  0  0
 17 29  1  0  0  0  0
 19 30  1  0  0  0  0
 19 31  1  0  0  0  0
 20 32  1  0  0  0  0
 20 33  1  0  0  0  0
 22 34  1  0  0  0  0
 20 35  1  0  0  0  0
M  CHG  1  20   1
M  END
> <Chemgauss4>
-8.071524

$$$$
