MODEL 1
REMARK VINA RESULT:    -4.647      0.000      0.000
REMARK INTER + INTRA:          -7.231
REMARK INTER:                  -6.820
REMARK INTRA:                  -0.411
REMARK UNBOUND:                -0.411
REMARK  8 active torsions:
REMARK  status: ('A' for Active; 'I' for Inactive)
REMARK    1  A    between atoms: C_1  and  S_3 
REMARK    2  A    between atoms: S_3  and  C_4 
REMARK    3  A    between atoms: C_4  and  N_5 
REMARK    4  A    between atoms: N_5  and  C_9 
REMARK    5  A    between atoms: C_9  and  C_10 
REMARK       I    between atoms: C_10  and  N_12 
REMARK    6  A    between atoms: N_12  and  C_14 
REMARK    7  A    between atoms: C_14  and  C_18 
REMARK    8  A    between atoms: C_15  and  C_17 
ROOT
HETATM    1  C   UNL     1       7.884  17.870   1.652  1.00  0.00     0.004 C 
HETATM    2  C   UNL     1       7.869  18.393   0.303  1.00  0.00     0.038 C 
HETATM    3  C   UNL     1       8.842  17.085   2.179  1.00  0.00     0.097 C 
ENDROOT
BRANCH   3   4
HETATM    4  N   UNL     1       9.586  17.692   3.063  1.00  0.00    -0.356 N 
ATOM      5  HN  UNL     1      10.221  16.935   3.315  1.00  0.00     0.166 HD
BRANCH   4   6
HETATM    6  C   UNL     1       9.986  18.525   3.738  1.00  0.00     0.140 C 
BRANCH   6   7
HETATM    7  S   UNL     1      10.911  18.979   4.872  1.00  0.00    -0.071 SA
BRANCH   7   8
HETATM    8  C   UNL     1      12.714  19.066   4.584  1.00  0.00     0.341 C 
HETATM    9  O   UNL     1      13.050  18.028   4.046  1.00  0.00    -0.310 OA
ENDBRANCH   7   8
ENDBRANCH   6   7
ENDBRANCH   4   6
ENDBRANCH   3   4
BRANCH   3  10
HETATM   10  C   UNL     1       9.018  15.609   1.949  1.00  0.00     0.278 C 
HETATM   11  O   UNL     1       9.956  15.138   1.408  1.00  0.00    -0.265 OA
HETATM   12  N   UNL     1       8.018  14.834   2.409  1.00  0.00    -0.287 N 
ATOM     13  HN  UNL     1       7.624  15.227   3.263  1.00  0.00     0.179 HD
BRANCH  12  14
HETATM   14  C   UNL     1       7.483  13.873   2.126  1.00  0.00    -0.038 C 
BRANCH  14  15
HETATM   15  C   UNL     1       6.720  12.887   1.840  1.00  0.00     0.085 C 
HETATM   16  C   UNL     1       6.930  11.662   2.482  1.00  0.00     0.103 C 
BRANCH  16  17
HETATM   17  C   UNL     1       7.775  11.530   3.524  1.00  0.00     0.088 C 
HETATM   18  N   UNL     1       8.349  11.226   4.370  1.00  0.00    -0.192 NA
ENDBRANCH  16  17
ENDBRANCH  14  15
ENDBRANCH  12  14
ENDBRANCH   3  10
TORSDOF 8
ENDMDL
MODEL 2
REMARK VINA RESULT:    -4.454     24.395     27.093
REMARK INTER + INTRA:          -6.949
REMARK INTER:                  -6.388
REMARK INTRA:                  -0.561
REMARK UNBOUND:                -0.411
REMARK  8 active torsions:
REMARK  status: ('A' for Active; 'I' for Inactive)
REMARK    1  A    between atoms: C_1  and  S_3 
REMARK    2  A    between atoms: S_3  and  C_4 
REMARK    3  A    between atoms: C_4  and  N_5 
REMARK    4  A    between atoms: N_5  and  C_9 
REMARK    5  A    between atoms: C_9  and  C_10 
REMARK       I    between atoms: C_10  and  N_12 
REMARK    6  A    between atoms: N_12  and  C_14 
REMARK    7  A    between atoms: C_14  and  C_18 
REMARK    8  A    between atoms: C_15  and  C_17 
ROOT
HETATM    1  C   UNL     1       6.722  -4.380  22.705  1.00  0.00     0.004 C 
HETATM    2  C   UNL     1       7.081  -5.534  21.910  1.00  0.00     0.038 C 
HETATM    3  C   UNL     1       7.425  -3.236  22.790  1.00  0.00     0.097 C 
ENDROOT
BRANCH   3   4
HETATM    4  N   UNL     1       6.858  -2.228  22.185  1.00  0.00    -0.356 N 
ATOM      5  HN  UNL     1       5.879  -2.413  22.405  1.00  0.00     0.166 HD
BRANCH   4   6
HETATM    6  C   UNL     1       6.749  -1.272  21.567  1.00  0.00     0.140 C 
BRANCH   6   7
HETATM    7  S   UNL     1       7.364  -0.222  20.635  1.00  0.00    -0.071 SA
BRANCH   7   8
HETATM    8  C   UNL     1       8.081   1.303  21.342  1.00  0.00     0.341 C 
HETATM    9  O   UNL     1       9.291   1.198  21.288  1.00  0.00    -0.310 OA
ENDBRANCH   7   8
ENDBRANCH   6   7
ENDBRANCH   4   6
ENDBRANCH   3   4
BRANCH   3  10
HETATM   10  C   UNL     1       8.669  -3.007  23.604  1.00  0.00     0.278 C 
HETATM   11  O   UNL     1       8.735  -3.194  24.767  1.00  0.00    -0.265 OA
HETATM   12  N   UNL     1       9.734  -2.564  22.910  1.00  0.00    -0.287 N 
ATOM     13  HN  UNL     1       9.742  -2.963  21.971  1.00  0.00     0.179 HD
BRANCH  12  14
HETATM   14  C   UNL     1      10.626  -1.877  23.060  1.00  0.00    -0.038 C 
BRANCH  14  15
HETATM   15  C   UNL     1      11.656  -1.117  23.040  1.00  0.00     0.085 C 
HETATM   16  C   UNL     1      11.718  -0.042  23.932  1.00  0.00     0.103 C 
BRANCH  16  17
HETATM   17  C   UNL     1      10.831   0.116  24.935  1.00  0.00     0.088 C 
HETATM   18  N   UNL     1      10.111   0.019  25.715  1.00  0.00    -0.192 NA
ENDBRANCH  16  17
ENDBRANCH  14  15
ENDBRANCH  12  14
ENDBRANCH   3  10
TORSDOF 8
ENDMDL
MODEL 3
REMARK VINA RESULT:    -4.401     23.971     26.032
REMARK INTER + INTRA:          -6.870
REMARK INTER:                  -6.054
REMARK INTRA:                  -0.816
REMARK UNBOUND:                -0.411
REMARK  8 active torsions:
REMARK  status: ('A' for Active; 'I' for Inactive)
REMARK    1  A    between atoms: C_1  and  S_3 
REMARK    2  A    between atoms: S_3  and  C_4 
REMARK    3  A    between atoms: C_4  and  N_5 
REMARK    4  A    between atoms: N_5  and  C_9 
REMARK    5  A    between atoms: C_9  and  C_10 
REMARK       I    between atoms: C_10  and  N_12 
REMARK    6  A    between atoms: N_12  and  C_14 
REMARK    7  A    between atoms: C_14  and  C_18 
REMARK    8  A    between atoms: C_15  and  C_17 
ROOT
HETATM    1  C   UNL     1       6.228   1.095  20.449  1.00  0.00     0.004 C 
HETATM    2  C   UNL     1       5.558   2.241  21.025  1.00  0.00     0.038 C 
HETATM    3  C   UNL     1       7.038   0.246  21.107  1.00  0.00     0.097 C 
ENDROOT
BRANCH   3   4
HETATM    4  N   UNL     1       6.513  -0.932  21.300  1.00  0.00    -0.356 N 
ATOM      5  HN  UNL     1       5.701  -0.871  20.685  1.00  0.00     0.166 HD
BRANCH   4   6
HETATM    6  C   UNL     1       6.374  -1.990  21.713  1.00  0.00     0.140 C 
BRANCH   6   7
HETATM    7  S   UNL     1       6.822  -3.110  22.658  1.00  0.00    -0.071 SA
BRANCH   7   8
HETATM    8  C   UNL     1       7.933  -2.721  24.056  1.00  0.00     0.341 C 
HETATM    9  O   UNL     1       8.993  -3.278  23.848  1.00  0.00    -0.310 OA
ENDBRANCH   7   8
ENDBRANCH   6   7
ENDBRANCH   4   6
ENDBRANCH   3   4
BRANCH   3  10
HETATM   10  C   UNL     1       8.473   0.490  21.487  1.00  0.00     0.278 C 
HETATM   11  O   UNL     1       9.372   0.429  20.725  1.00  0.00    -0.265 OA
HETATM   12  N   UNL     1       8.679   0.789  22.783  1.00  0.00    -0.287 N 
ATOM     13  HN  UNL     1       7.899   1.332  23.154  1.00  0.00     0.179 HD
BRANCH  12  14
HETATM   14  C   UNL     1       9.464   0.616  23.586  1.00  0.00    -0.038 C 
BRANCH  14  15
HETATM   15  C   UNL     1      10.328   0.607  24.530  1.00  0.00     0.085 C 
HETATM   16  C   UNL     1      11.392  -0.298  24.462  1.00  0.00     0.103 C 
BRANCH  16  17
HETATM   17  C   UNL     1      11.650  -1.025  23.356  1.00  0.00     0.088 C 
HETATM   18  N   UNL     1      11.950  -1.741  22.625  1.00  0.00    -0.192 NA
ENDBRANCH  16  17
ENDBRANCH  14  15
ENDBRANCH  12  14
ENDBRANCH   3  10
TORSDOF 8
ENDMDL
MODEL 4
REMARK VINA RESULT:    -4.385     24.698     25.917
REMARK INTER + INTRA:          -6.847
REMARK INTER:                  -5.906
REMARK INTRA:                  -0.941
REMARK UNBOUND:                -0.411
REMARK  8 active torsions:
REMARK  status: ('A' for Active; 'I' for Inactive)
REMARK    1  A    between atoms: C_1  and  S_3 
REMARK    2  A    between atoms: S_3  and  C_4 
REMARK    3  A    between atoms: C_4  and  N_5 
REMARK    4  A    between atoms: N_5  and  C_9 
REMARK    5  A    between atoms: C_9  and  C_10 
REMARK       I    between atoms: C_10  and  N_12 
REMARK    6  A    between atoms: N_12  and  C_14 
REMARK    7  A    between atoms: C_14  and  C_18 
REMARK    8  A    between atoms: C_15  and  C_17 
ROOT
HETATM    1  C   UNL     1       9.163   2.808  24.456  1.00  0.00     0.004 C 
HETATM    2  C   UNL     1       9.372   4.211  24.173  1.00  0.00     0.038 C 
HETATM    3  C   UNL     1       9.618   1.781  23.716  1.00  0.00     0.097 C 
ENDROOT
BRANCH   3   4
HETATM    4  N   UNL     1      10.589   1.119  24.284  1.00  0.00    -0.356 N 
ATOM      5  HN  UNL     1      10.075   0.641  25.023  1.00  0.00     0.166 HD
BRANCH   4   6
HETATM    6  C   UNL     1      11.646   0.728  24.487  1.00  0.00     0.140 C 
BRANCH   6   7
HETATM    7  S   UNL     1      12.769  -0.267  24.182  1.00  0.00    -0.071 SA
BRANCH   7   8
HETATM    8  C   UNL     1      12.446  -1.678  23.067  1.00  0.00     0.341 C 
HETATM    9  O   UNL     1      11.287  -1.601  22.704  1.00  0.00    -0.310 OA
ENDBRANCH   7   8
ENDBRANCH   6   7
ENDBRANCH   4   6
ENDBRANCH   3   4
BRANCH   3  10
HETATM   10  C   UNL     1       9.032   1.277  22.426  1.00  0.00     0.278 C 
HETATM   11  O   UNL     1       8.906   1.942  21.459  1.00  0.00    -0.265 OA
HETATM   12  N   UNL     1       8.649  -0.013  22.437  1.00  0.00    -0.287 N 
ATOM     13  HN  UNL     1       9.271  -0.567  23.026  1.00  0.00     0.179 HD
BRANCH  12  14
HETATM   14  C   UNL     1       7.839  -0.668  21.983  1.00  0.00    -0.038 C 
BRANCH  14  15
HETATM   15  C   UNL     1       6.811  -1.329  21.604  1.00  0.00     0.085 C 
HETATM   16  C   UNL     1       6.691  -2.668  21.989  1.00  0.00     0.103 C 
BRANCH  16  17
HETATM   17  C   UNL     1       7.511  -3.235  22.896  1.00  0.00     0.088 C 
HETATM   18  N   UNL     1       8.117  -3.869  23.502  1.00  0.00    -0.192 NA
ENDBRANCH  16  17
ENDBRANCH  14  15
ENDBRANCH  12  14
ENDBRANCH   3  10
TORSDOF 8
ENDMDL
MODEL 5
REMARK VINA RESULT:    -4.345     22.888     25.649
REMARK INTER + INTRA:          -6.789
REMARK INTER:                  -6.367
REMARK INTRA:                  -0.421
REMARK UNBOUND:                -0.411
REMARK  8 active torsions:
REMARK  status: ('A' for Active; 'I' for Inactive)
REMARK    1  A    between atoms: C_1  and  S_3 
REMARK    2  A    between atoms: S_3  and  C_4 
REMARK    3  A    between atoms: C_4  and  N_5 
REMARK    4  A    between atoms: N_5  and  C_9 
REMARK    5  A    between atoms: C_9  and  C_10 
REMARK       I    between atoms: C_10  and  N_12 
REMARK    6  A    between atoms: N_12  and  C_14 
REMARK    7  A    between atoms: C_14  and  C_18 
REMARK    8  A    between atoms: C_15  and  C_17 
ROOT
HETATM    1  C   UNL     1       9.555   0.142  21.153  1.00  0.00     0.004 C 
HETATM    2  C   UNL     1      10.270   1.094  21.975  1.00  0.00     0.038 C 
HETATM    3  C   UNL     1       8.230  -0.088  21.190  1.00  0.00     0.097 C 
ENDROOT
BRANCH   3   4
HETATM    4  N   UNL     1       7.593   0.364  20.145  1.00  0.00    -0.356 N 
ATOM      5  HN  UNL     1       8.376   0.708  19.590  1.00  0.00     0.166 HD
BRANCH   4   6
HETATM    6  C   UNL     1       6.722   0.623  19.449  1.00  0.00     0.140 C 
BRANCH   6   7
HETATM    7  S   UNL     1       5.219   0.619  19.154  1.00  0.00    -0.071 SA
BRANCH   7   8
HETATM    8  C   UNL     1       4.205   2.068  19.617  1.00  0.00     0.341 C 
HETATM    9  O   UNL     1       3.057   1.687  19.741  1.00  0.00    -0.310 OA
ENDBRANCH   7   8
ENDBRANCH   6   7
ENDBRANCH   4   6
ENDBRANCH   3   4
BRANCH   3  10
HETATM   10  C   UNL     1       7.491  -0.905  22.214  1.00  0.00     0.278 C 
HETATM   11  O   UNL     1       6.971  -0.446  23.168  1.00  0.00    -0.265 OA
HETATM   12  N   UNL     1       7.455  -2.229  21.971  1.00  0.00    -0.287 N 
ATOM     13  HN  UNL     1       7.409  -2.409  20.969  1.00  0.00     0.179 HD
BRANCH  12  14
HETATM   14  C   UNL     1       7.460  -3.204  22.554  1.00  0.00    -0.038 C 
BRANCH  14  15
HETATM   15  C   UNL     1       7.640  -4.253  23.265  1.00  0.00     0.085 C 
HETATM   16  C   UNL     1       6.953  -5.423  22.928  1.00  0.00     0.103 C 
BRANCH  16  17
HETATM   17  C   UNL     1       6.260  -5.547  21.779  1.00  0.00     0.088 C 
HETATM   18  N   UNL     1       5.891  -5.754  20.800  1.00  0.00    -0.192 NA
ENDBRANCH  16  17
ENDBRANCH  14  15
ENDBRANCH  12  14
ENDBRANCH   3  10
TORSDOF 8
ENDMDL
MODEL 6
REMARK VINA RESULT:    -4.317      6.103      8.735
REMARK INTER + INTRA:          -6.748
REMARK INTER:                  -5.990
REMARK INTRA:                  -0.757
REMARK UNBOUND:                -0.411
REMARK  8 active torsions:
REMARK  status: ('A' for Active; 'I' for Inactive)
REMARK    1  A    between atoms: C_1  and  S_3 
REMARK    2  A    between atoms: S_3  and  C_4 
REMARK    3  A    between atoms: C_4  and  N_5 
REMARK    4  A    between atoms: N_5  and  C_9 
REMARK    5  A    between atoms: C_9  and  C_10 
REMARK       I    between atoms: C_10  and  N_12 
REMARK    6  A    between atoms: N_12  and  C_14 
REMARK    7  A    between atoms: C_14  and  C_18 
REMARK    8  A    between atoms: C_15  and  C_17 
ROOT
HETATM    1  C   UNL     1       5.739   9.671   5.189  1.00  0.00     0.004 C 
HETATM    2  C   UNL     1       4.787  10.218   6.131  1.00  0.00     0.038 C 
HETATM    3  C   UNL     1       5.471   9.311   3.921  1.00  0.00     0.097 C 
ENDROOT
BRANCH   3   4
HETATM    4  N   UNL     1       5.983  10.116   3.031  1.00  0.00    -0.356 N 
ATOM      5  HN  UNL     1       6.458   9.442   2.430  1.00  0.00     0.166 HD
BRANCH   4   6
HETATM    6  C   UNL     1       6.244  11.090   2.489  1.00  0.00     0.140 C 
BRANCH   6   7
HETATM    7  S   UNL     1       6.923  12.463   2.490  1.00  0.00    -0.071 SA
BRANCH   7   8
HETATM    8  C   UNL     1       8.363  12.756   3.576  1.00  0.00     0.341 C 
HETATM    9  O   UNL     1       8.594  11.718   4.167  1.00  0.00    -0.310 OA
ENDBRANCH   7   8
ENDBRANCH   6   7
ENDBRANCH   4   6
ENDBRANCH   3   4
BRANCH   3  10
HETATM   10  C   UNL     1       4.789   8.048   3.472  1.00  0.00     0.278 C 
HETATM   11  O   UNL     1       4.186   7.951   2.462  1.00  0.00    -0.265 OA
HETATM   12  N   UNL     1       4.909   7.003   4.313  1.00  0.00    -0.287 N 
ATOM     13  HN  UNL     1       5.817   7.018   4.776  1.00  0.00     0.179 HD
BRANCH  12  14
HETATM   14  C   UNL     1       4.297   6.111   4.659  1.00  0.00    -0.038 C 
BRANCH  14  15
HETATM   15  C   UNL     1       3.728   5.099   5.198  1.00  0.00     0.085 C 
HETATM   16  C   UNL     1       2.614   4.536   4.566  1.00  0.00     0.103 C 
BRANCH  16  17
HETATM   17  C   UNL     1       2.233   4.893   3.323  1.00  0.00     0.088 C 
HETATM   18  N   UNL     1       2.074   5.016   2.276  1.00  0.00    -0.192 NA
ENDBRANCH  16  17
ENDBRANCH  14  15
ENDBRANCH  12  14
ENDBRANCH   3  10
TORSDOF 8
ENDMDL
MODEL 7
REMARK VINA RESULT:    -4.303     25.962     28.908
REMARK INTER + INTRA:          -6.726
REMARK INTER:                  -6.390
REMARK INTRA:                  -0.336
REMARK UNBOUND:                -0.411
REMARK  8 active torsions:
REMARK  status: ('A' for Active; 'I' for Inactive)
REMARK    1  A    between atoms: C_1  and  S_3 
REMARK    2  A    between atoms: S_3  and  C_4 
REMARK    3  A    between atoms: C_4  and  N_5 
REMARK    4  A    between atoms: N_5  and  C_9 
REMARK    5  A    between atoms: C_9  and  C_10 
REMARK       I    between atoms: C_10  and  N_12 
REMARK    6  A    between atoms: N_12  and  C_14 
REMARK    7  A    between atoms: C_14  and  C_18 
REMARK    8  A    between atoms: C_15  and  C_17 
ROOT
HETATM    1  C   UNL     1       7.374  -5.760  22.679  1.00  0.00     0.004 C 
HETATM    2  C   UNL     1       6.691  -5.752  21.404  1.00  0.00     0.038 C 
HETATM    3  C   UNL     1       7.417  -4.738  23.553  1.00  0.00     0.097 C 
ENDROOT
BRANCH   3   4
HETATM    4  N   UNL     1       6.705  -4.941  24.628  1.00  0.00    -0.356 N 
ATOM      5  HN  UNL     1       6.425  -5.910  24.479  1.00  0.00     0.166 HD
BRANCH   4   6
HETATM    6  C   UNL     1       6.193  -4.734  25.630  1.00  0.00     0.140 C 
BRANCH   6   7
HETATM    7  S   UNL     1       5.438  -5.246  26.861  1.00  0.00    -0.071 SA
BRANCH   7   8
HETATM    8  C   UNL     1       6.376  -5.833  28.315  1.00  0.00     0.341 C 
HETATM    9  O   UNL     1       7.545  -5.911  27.990  1.00  0.00    -0.310 OA
ENDBRANCH   7   8
ENDBRANCH   6   7
ENDBRANCH   4   6
ENDBRANCH   3   4
BRANCH   3  10
HETATM   10  C   UNL     1       8.285  -3.513  23.459  1.00  0.00     0.278 C 
HETATM   11  O   UNL     1       9.008  -3.154  24.320  1.00  0.00    -0.265 OA
HETATM   12  N   UNL     1       8.188  -2.831  22.303  1.00  0.00    -0.287 N 
ATOM     13  HN  UNL     1       8.028  -3.467  21.523  1.00  0.00     0.179 HD
BRANCH  12  14
HETATM   14  C   UNL     1       8.233  -1.755  21.940  1.00  0.00    -0.038 C 
BRANCH  14  15
HETATM   15  C   UNL     1       8.467  -0.550  21.578  1.00  0.00     0.085 C 
HETATM   16  C   UNL     1       7.650   0.033  20.604  1.00  0.00     0.103 C 
BRANCH  16  17
HETATM   17  C   UNL     1       6.515  -0.551  20.171  1.00  0.00     0.088 C 
HETATM   18  N   UNL     1       5.593  -0.826  19.711  1.00  0.00    -0.192 NA
ENDBRANCH  16  17
ENDBRANCH  14  15
ENDBRANCH  12  14
ENDBRANCH   3  10
TORSDOF 8
ENDMDL
MODEL 8
REMARK VINA RESULT:    -4.290     23.001     25.755
REMARK INTER + INTRA:          -6.708
REMARK INTER:                  -6.404
REMARK INTRA:                  -0.304
REMARK UNBOUND:                -0.411
REMARK  8 active torsions:
REMARK  status: ('A' for Active; 'I' for Inactive)
REMARK    1  A    between atoms: C_1  and  S_3 
REMARK    2  A    between atoms: S_3  and  C_4 
REMARK    3  A    between atoms: C_4  and  N_5 
REMARK    4  A    between atoms: N_5  and  C_9 
REMARK    5  A    between atoms: C_9  and  C_10 
REMARK       I    between atoms: C_10  and  N_12 
REMARK    6  A    between atoms: N_12  and  C_14 
REMARK    7  A    between atoms: C_14  and  C_18 
REMARK    8  A    between atoms: C_15  and  C_17 
ROOT
HETATM    1  C   UNL     1      10.486   0.996  21.927  1.00  0.00     0.004 C 
HETATM    2  C   UNL     1      10.689   1.907  23.033  1.00  0.00     0.038 C 
HETATM    3  C   UNL     1       9.616  -0.029  21.905  1.00  0.00     0.097 C 
ENDROOT
BRANCH   3   4
HETATM    4  N   UNL     1       8.590   0.174  21.124  1.00  0.00    -0.356 N 
ATOM      5  HN  UNL     1       9.012  -0.022  20.216  1.00  0.00     0.166 HD
BRANCH   4   6
HETATM    6  C   UNL     1       7.522   0.430  20.800  1.00  0.00     0.140 C 
BRANCH   6   7
HETATM    7  S   UNL     1       6.255   0.069  20.020  1.00  0.00    -0.071 SA
BRANCH   7   8
HETATM    8  C   UNL     1       6.129   0.509  18.250  1.00  0.00     0.341 C 
HETATM    9  O   UNL     1       5.634  -0.439  17.671  1.00  0.00    -0.310 OA
ENDBRANCH   7   8
ENDBRANCH   6   7
ENDBRANCH   4   6
ENDBRANCH   3   4
BRANCH   3  10
HETATM   10  C   UNL     1       9.796  -1.372  22.558  1.00  0.00     0.278 C 
HETATM   11  O   UNL     1      10.839  -1.913  22.668  1.00  0.00    -0.265 OA
HETATM   12  N   UNL     1       8.667  -1.938  23.024  1.00  0.00    -0.287 N 
ATOM     13  HN  UNL     1       8.025  -1.226  23.371  1.00  0.00     0.179 HD
BRANCH  12  14
HETATM   14  C   UNL     1       8.218  -2.975  23.144  1.00  0.00    -0.038 C 
BRANCH  14  15
HETATM   15  C   UNL     1       7.880  -4.191  23.358  1.00  0.00     0.085 C 
HETATM   16  C   UNL     1       6.682  -4.663  22.812  1.00  0.00     0.103 C 
BRANCH  16  17
HETATM   17  C   UNL     1       5.967  -3.952  21.917  1.00  0.00     0.088 C 
HETATM   18  N   UNL     1       5.591  -3.277  21.183  1.00  0.00    -0.192 NA
ENDBRANCH  16  17
ENDBRANCH  14  15
ENDBRANCH  12  14
ENDBRANCH   3  10
TORSDOF 8
ENDMDL
MODEL 9
REMARK VINA RESULT:    -4.244     27.223     28.876
REMARK INTER + INTRA:          -6.640
REMARK INTER:                  -6.018
REMARK INTRA:                  -0.622
REMARK UNBOUND:                -0.411
REMARK  8 active torsions:
REMARK  status: ('A' for Active; 'I' for Inactive)
REMARK    1  A    between atoms: C_1  and  S_3 
REMARK    2  A    between atoms: S_3  and  C_4 
REMARK    3  A    between atoms: C_4  and  N_5 
REMARK    4  A    between atoms: N_5  and  C_9 
REMARK    5  A    between atoms: C_9  and  C_10 
REMARK       I    between atoms: C_10  and  N_12 
REMARK    6  A    between atoms: N_12  and  C_14 
REMARK    7  A    between atoms: C_14  and  C_18 
REMARK    8  A    between atoms: C_15  and  C_17 
ROOT
HETATM    1  C   UNL     1       7.964  -0.044  26.310  1.00  0.00     0.004 C 
HETATM    2  C   UNL     1       6.773   0.476  25.674  1.00  0.00     0.038 C 
HETATM    3  C   UNL     1       8.916  -0.782  25.711  1.00  0.00     0.097 C 
ENDROOT
BRANCH   3   4
HETATM    4  N   UNL     1      10.037  -0.140  25.530  1.00  0.00    -0.356 N 
ATOM      5  HN  UNL     1      10.097   0.373  26.410  1.00  0.00     0.166 HD
BRANCH   4   6
HETATM    6  C   UNL     1      10.997   0.220  25.021  1.00  0.00     0.140 C 
BRANCH   6   7
HETATM    7  S   UNL     1      12.219  -0.073  24.146  1.00  0.00    -0.071 SA
BRANCH   7   8
HETATM    8  C   UNL     1      12.191  -1.500  23.005  1.00  0.00     0.341 C 
HETATM    9  O   UNL     1      13.307  -1.984  22.994  1.00  0.00    -0.310 OA
ENDBRANCH   7   8
ENDBRANCH   6   7
ENDBRANCH   4   6
ENDBRANCH   3   4
BRANCH   3  10
HETATM   10  C   UNL     1       8.840  -2.248  25.385  1.00  0.00     0.278 C 
HETATM   11  O   UNL     1       8.973  -2.685  24.297  1.00  0.00    -0.265 OA
HETATM   12  N   UNL     1       8.606  -3.057  26.436  1.00  0.00    -0.287 N 
ATOM     13  HN  UNL     1       9.051  -2.690  27.277  1.00  0.00     0.179 HD
BRANCH  12  14
HETATM   14  C   UNL     1       8.060  -4.026  26.662  1.00  0.00    -0.038 C 
BRANCH  14  15
HETATM   15  C   UNL     1       7.587  -5.205  26.825  1.00  0.00     0.085 C 
HETATM   16  C   UNL     1       6.556  -5.639  25.986  1.00  0.00     0.103 C 
BRANCH  16  17
HETATM   17  C   UNL     1       6.171  -4.945  24.897  1.00  0.00     0.088 C 
HETATM   18  N   UNL     1       5.979  -4.552  23.924  1.00  0.00    -0.192 NA
ENDBRANCH  16  17
ENDBRANCH  14  15
ENDBRANCH  12  14
ENDBRANCH   3  10
TORSDOF 8
ENDMDL
