MODEL 1
REMARK VINA RESULT:    -3.676      0.000      0.000
REMARK INTER + INTRA:          -5.440
REMARK INTER:                  -4.751
REMARK INTRA:                  -0.690
REMARK UNBOUND:                -0.690
REMARK  5 active torsions:
REMARK  status: ('A' for Active; 'I' for Inactive)
REMARK    1  A    between atoms: C_1  and  C_6 
REMARK    2  A    between atoms: C_8  and  C_10 
REMARK    3  A    between atoms: C_8  and  C_13 
REMARK    4  A    between atoms: C_9  and  C_12 
REMARK    5  A    between atoms: C_10  and  C_12 
ROOT
HETATM    1  C   UNL     1      12.276  18.623   4.664  1.00  0.00     0.049 C 
HETATM    2  C   UNL     1      10.894  18.050   4.729  1.00  0.00    -0.051 C 
HETATM    3  C   UNL     1      10.004  18.300   3.717  1.00  0.00    -0.019 C 
ENDROOT
BRANCH   3   4
HETATM    4  C   UNL     1       8.853  17.410   3.460  1.00  0.00     0.028 C 
BRANCH   4   5
HETATM    5  C   UNL     1       9.096  16.521   2.200  1.00  0.00     0.014 C 
BRANCH   5   6
HETATM    6  C   UNL     1       9.217  14.972   2.174  1.00  0.00     0.113 C 
BRANCH   6   7
HETATM    7  C   UNL     1      10.068  14.332   3.272  1.00  0.00     0.172 C 
HETATM    8  O   UNL     1      11.218  14.788   3.422  1.00  0.00    -0.648 OA
HETATM    9  O   UNL     1       9.579  13.422   3.966  1.00  0.00    -0.648 OA
ENDBRANCH   6   7
ENDBRANCH   5   6
ENDBRANCH   4   5
ENDBRANCH   3   4
BRANCH   2  10
HETATM   10  C   UNL     1      10.451  17.324   5.841  1.00  0.00     0.086 C 
HETATM   11  N   UNL     1      10.895  16.134   6.225  1.00  0.00    -0.407 N 
HETATM   12  H   UNL     1      11.546  15.601   5.685  1.00  0.00     0.155 HD
HETATM   13  H   UNL     1      10.345  15.606   6.884  1.00  0.00     0.155 HD
ENDBRANCH   2  10
TORSDOF 5
ENDMDL
MODEL 2
REMARK VINA RESULT:    -3.670     23.657     24.838
REMARK INTER + INTRA:          -5.432
REMARK INTER:                  -5.225
REMARK INTRA:                  -0.207
REMARK UNBOUND:                -0.690
REMARK  5 active torsions:
REMARK  status: ('A' for Active; 'I' for Inactive)
REMARK    1  A    between atoms: C_1  and  C_6 
REMARK    2  A    between atoms: C_8  and  C_10 
REMARK    3  A    between atoms: C_8  and  C_13 
REMARK    4  A    between atoms: C_9  and  C_12 
REMARK    5  A    between atoms: C_10  and  C_12 
ROOT
HETATM    1  C   UNL     1       7.955   2.993  22.336  1.00  0.00     0.049 C 
HETATM    2  C   UNL     1       9.178   3.010  23.201  1.00  0.00    -0.051 C 
HETATM    3  C   UNL     1       9.868   1.848  23.429  1.00  0.00    -0.019 C 
ENDROOT
BRANCH   3   4
HETATM    4  C   UNL     1      11.292   1.858  23.826  1.00  0.00     0.028 C 
BRANCH   4   5
HETATM    5  C   UNL     1      11.694   0.519  24.520  1.00  0.00     0.014 C 
BRANCH   5   6
HETATM    6  C   UNL     1      12.948  -0.343  24.204  1.00  0.00     0.113 C 
BRANCH   6   7
HETATM    7  C   UNL     1      12.760  -1.485  23.204  1.00  0.00     0.172 C 
HETATM    8  O   UNL     1      11.607  -1.656  22.764  1.00  0.00    -0.648 OA
HETATM    9  O   UNL     1      13.748  -2.162  22.865  1.00  0.00    -0.648 OA
ENDBRANCH   6   7
ENDBRANCH   5   6
ENDBRANCH   4   5
ENDBRANCH   3   4
BRANCH   2  10
HETATM   10  C   UNL     1       9.599   4.175  23.854  1.00  0.00     0.086 C 
HETATM   11  N   UNL     1       9.742   5.373  23.304  1.00  0.00    -0.407 N 
HETATM   12  H   UNL     1       9.638   5.532  22.322  1.00  0.00     0.155 HD
HETATM   13  H   UNL     1      10.275   6.069  23.800  1.00  0.00     0.155 HD
ENDBRANCH   2  10
TORSDOF 5
ENDMDL
MODEL 3
REMARK VINA RESULT:    -3.658      2.925      4.301
REMARK INTER + INTRA:          -5.417
REMARK INTER:                  -5.054
REMARK INTRA:                  -0.363
REMARK UNBOUND:                -0.690
REMARK  5 active torsions:
REMARK  status: ('A' for Active; 'I' for Inactive)
REMARK    1  A    between atoms: C_1  and  C_6 
REMARK    2  A    between atoms: C_8  and  C_10 
REMARK    3  A    between atoms: C_8  and  C_13 
REMARK    4  A    between atoms: C_9  and  C_12 
REMARK    5  A    between atoms: C_10  and  C_12 
ROOT
HETATM    1  C   UNL     1       8.345  16.407   4.192  1.00  0.00     0.049 C 
HETATM    2  C   UNL     1       8.434  15.141   3.398  1.00  0.00    -0.051 C 
HETATM    3  C   UNL     1       7.340  14.692   2.704  1.00  0.00    -0.019 C 
ENDROOT
BRANCH   3   4
HETATM    4  C   UNL     1       7.475  13.781   1.548  1.00  0.00     0.028 C 
BRANCH   4   5
HETATM    5  C   UNL     1       6.630  12.485   1.749  1.00  0.00     0.014 C 
BRANCH   5   6
HETATM    6  C   UNL     1       7.054  11.222   2.549  1.00  0.00     0.113 C 
BRANCH   6   7
HETATM    7  C   UNL     1       7.378  11.426   4.030  1.00  0.00     0.172 C 
HETATM    8  O   UNL     1       6.438  11.792   4.761  1.00  0.00    -0.648 OA
HETATM    9  O   UNL     1       8.534  11.202   4.434  1.00  0.00    -0.648 OA
ENDBRANCH   6   7
ENDBRANCH   5   6
ENDBRANCH   4   5
ENDBRANCH   3   4
BRANCH   2  10
HETATM   10  C   UNL     1       9.590  14.350   3.403  1.00  0.00     0.086 C 
HETATM   11  N   UNL     1      10.753  14.660   2.845  1.00  0.00    -0.407 N 
HETATM   12  H   UNL     1      10.881  15.476   2.283  1.00  0.00     0.155 HD
HETATM   13  H   UNL     1      11.428  13.926   2.702  1.00  0.00     0.155 HD
ENDBRANCH   2  10
TORSDOF 5
ENDMDL
MODEL 4
REMARK VINA RESULT:    -3.617     26.027     27.164
REMARK INTER + INTRA:          -5.364
REMARK INTER:                  -5.096
REMARK INTRA:                  -0.268
REMARK UNBOUND:                -0.690
REMARK  5 active torsions:
REMARK  status: ('A' for Active; 'I' for Inactive)
REMARK    1  A    between atoms: C_1  and  C_6 
REMARK    2  A    between atoms: C_8  and  C_10 
REMARK    3  A    between atoms: C_8  and  C_13 
REMARK    4  A    between atoms: C_9  and  C_12 
REMARK    5  A    between atoms: C_10  and  C_12 
ROOT
HETATM    1  C   UNL     1      24.291  -1.647  15.259  1.00  0.00     0.049 C 
HETATM    2  C   UNL     1      23.766  -0.857  16.418  1.00  0.00    -0.051 C 
HETATM    3  C   UNL     1      22.943  -1.457  17.336  1.00  0.00    -0.019 C 
ENDROOT
BRANCH   3   4
HETATM    4  C   UNL     1      22.798  -0.929  18.709  1.00  0.00     0.028 C 
BRANCH   4   5
HETATM    5  C   UNL     1      23.349  -1.939  19.763  1.00  0.00     0.014 C 
BRANCH   5   6
HETATM    6  C   UNL     1      24.226  -3.189  19.472  1.00  0.00     0.113 C 
BRANCH   6   7
HETATM    7  C   UNL     1      24.157  -4.327  20.492  1.00  0.00     0.172 C 
HETATM    8  O   UNL     1      23.886  -5.459  20.046  1.00  0.00    -0.648 OA
HETATM    9  O   UNL     1      24.388  -4.082  21.690  1.00  0.00    -0.648 OA
ENDBRANCH   6   7
ENDBRANCH   5   6
ENDBRANCH   4   5
ENDBRANCH   3   4
BRANCH   2  10
HETATM   10  C   UNL     1      24.031   0.511  16.555  1.00  0.00     0.086 C 
HETATM   11  N   UNL     1      23.292   1.502  16.074  1.00  0.00    -0.407 N 
HETATM   12  H   UNL     1      22.503   1.348  15.481  1.00  0.00     0.155 HD
HETATM   13  H   UNL     1      23.699   2.423  16.023  1.00  0.00     0.155 HD
ENDBRANCH   2  10
TORSDOF 5
ENDMDL
MODEL 5
REMARK VINA RESULT:    -3.437     30.006     31.033
REMARK INTER + INTRA:          -5.132
REMARK INTER:                  -4.912
REMARK INTRA:                  -0.219
REMARK UNBOUND:                -0.690
REMARK  5 active torsions:
REMARK  status: ('A' for Active; 'I' for Inactive)
REMARK    1  A    between atoms: C_1  and  C_6 
REMARK    2  A    between atoms: C_8  and  C_10 
REMARK    3  A    between atoms: C_8  and  C_13 
REMARK    4  A    between atoms: C_9  and  C_12 
REMARK    5  A    between atoms: C_10  and  C_12 
ROOT
HETATM    1  C   UNL     1      20.616  -0.800  24.441  1.00  0.00     0.049 C 
HETATM    2  C   UNL     1      21.564  -1.467  25.389  1.00  0.00    -0.051 C 
HETATM    3  C   UNL     1      21.941  -2.768  25.174  1.00  0.00    -0.019 C 
ENDROOT
BRANCH   3   4
HETATM    4  C   UNL     1      23.195  -3.314  25.735  1.00  0.00     0.028 C 
BRANCH   4   5
HETATM    5  C   UNL     1      23.631  -4.610  24.985  1.00  0.00     0.014 C 
BRANCH   5   6
HETATM    6  C   UNL     1      24.724  -4.716  23.884  1.00  0.00     0.113 C 
BRANCH   6   7
HETATM    7  C   UNL     1      24.353  -4.188  22.497  1.00  0.00     0.172 C 
HETATM    8  O   UNL     1      24.066  -2.978  22.420  1.00  0.00    -0.648 OA
HETATM    9  O   UNL     1      24.374  -4.967  21.527  1.00  0.00    -0.648 OA
ENDBRANCH   6   7
ENDBRANCH   5   6
ENDBRANCH   4   5
ENDBRANCH   3   4
BRANCH   2  10
HETATM   10  C   UNL     1      22.022  -0.823  26.545  1.00  0.00     0.086 C 
HETATM   11  N   UNL     1      21.458  -0.874  27.744  1.00  0.00    -0.407 N 
HETATM   12  H   UNL     1      20.581  -1.325  27.910  1.00  0.00     0.155 HD
HETATM   13  H   UNL     1      21.729  -0.189  28.432  1.00  0.00     0.155 HD
ENDBRANCH   2  10
TORSDOF 5
ENDMDL
MODEL 6
REMARK VINA RESULT:    -3.392     24.543     25.652
REMARK INTER + INTRA:          -5.073
REMARK INTER:                  -4.375
REMARK INTRA:                  -0.698
REMARK UNBOUND:                -0.690
REMARK  5 active torsions:
REMARK  status: ('A' for Active; 'I' for Inactive)
REMARK    1  A    between atoms: C_1  and  C_6 
REMARK    2  A    between atoms: C_8  and  C_10 
REMARK    3  A    between atoms: C_8  and  C_13 
REMARK    4  A    between atoms: C_9  and  C_12 
REMARK    5  A    between atoms: C_10  and  C_12 
ROOT
HETATM    1  C   UNL     1      11.608   1.788  23.917  1.00  0.00     0.049 C 
HETATM    2  C   UNL     1      11.167   0.426  24.358  1.00  0.00    -0.051 C 
HETATM    3  C   UNL     1      10.025   0.288  25.103  1.00  0.00    -0.019 C 
ENDROOT
BRANCH   3   4
HETATM    4  C   UNL     1       9.278  -0.987  25.147  1.00  0.00     0.028 C 
BRANCH   4   5
HETATM    5  C   UNL     1       8.113  -0.995  24.109  1.00  0.00     0.014 C 
BRANCH   5   6
HETATM    6  C   UNL     1       7.950  -0.035  22.898  1.00  0.00     0.113 C 
BRANCH   6   7
HETATM    7  C   UNL     1       8.750  -0.378  21.640  1.00  0.00     0.172 C 
HETATM    8  O   UNL     1       9.336  -1.478  21.634  1.00  0.00    -0.648 OA
HETATM    9  O   UNL     1       8.762   0.427  20.691  1.00  0.00    -0.648 OA
ENDBRANCH   6   7
ENDBRANCH   5   6
ENDBRANCH   4   5
ENDBRANCH   3   4
BRANCH   2  10
HETATM   10  C   UNL     1      11.934  -0.715  24.096  1.00  0.00     0.086 C 
HETATM   11  N   UNL     1      11.976  -1.384  22.951  1.00  0.00    -0.407 N 
HETATM   12  H   UNL     1      11.378  -1.170  22.179  1.00  0.00     0.155 HD
HETATM   13  H   UNL     1      12.366  -2.313  22.951  1.00  0.00     0.155 HD
ENDBRANCH   2  10
TORSDOF 5
ENDMDL
MODEL 7
REMARK VINA RESULT:    -3.363     27.570     28.723
REMARK INTER + INTRA:          -5.035
REMARK INTER:                  -4.760
REMARK INTRA:                  -0.275
REMARK UNBOUND:                -0.690
REMARK  5 active torsions:
REMARK  status: ('A' for Active; 'I' for Inactive)
REMARK    1  A    between atoms: C_1  and  C_6 
REMARK    2  A    between atoms: C_8  and  C_10 
REMARK    3  A    between atoms: C_8  and  C_13 
REMARK    4  A    between atoms: C_9  and  C_12 
REMARK    5  A    between atoms: C_10  and  C_12 
ROOT
HETATM    1  C   UNL     1       9.985  -0.191  24.816  1.00  0.00     0.049 C 
HETATM    2  C   UNL     1       9.777  -1.455  24.040  1.00  0.00    -0.051 C 
HETATM    3  C   UNL     1       8.741  -2.292  24.364  1.00  0.00    -0.019 C 
ENDROOT
BRANCH   3   4
HETATM    4  C   UNL     1       8.182  -3.248  23.385  1.00  0.00     0.028 C 
BRANCH   4   5
HETATM    5  C   UNL     1       8.074  -4.681  23.993  1.00  0.00     0.014 C 
BRANCH   5   6
HETATM    6  C   UNL     1       8.560  -5.124  25.402  1.00  0.00     0.113 C 
BRANCH   6   7
HETATM    7  C   UNL     1       7.476  -5.375  26.452  1.00  0.00     0.172 C 
HETATM    8  O   UNL     1       6.350  -5.694  26.026  1.00  0.00    -0.648 OA
HETATM    9  O   UNL     1       7.767  -5.273  27.658  1.00  0.00    -0.648 OA
ENDBRANCH   6   7
ENDBRANCH   5   6
ENDBRANCH   4   5
ENDBRANCH   3   4
BRANCH   2  10
HETATM   10  C   UNL     1      10.664  -1.851  23.031  1.00  0.00     0.086 C 
HETATM   11  N   UNL     1      10.953  -1.169  21.931  1.00  0.00    -0.407 N 
HETATM   12  H   UNL     1      10.481  -0.324  21.680  1.00  0.00     0.155 HD
HETATM   13  H   UNL     1      11.408  -1.652  21.172  1.00  0.00     0.155 HD
ENDBRANCH   2  10
TORSDOF 5
ENDMDL
MODEL 8
REMARK VINA RESULT:    -3.233      4.823      6.948
REMARK INTER + INTRA:          -4.868
REMARK INTER:                  -4.699
REMARK INTRA:                  -0.168
REMARK UNBOUND:                -0.690
REMARK  5 active torsions:
REMARK  status: ('A' for Active; 'I' for Inactive)
REMARK    1  A    between atoms: C_1  and  C_6 
REMARK    2  A    between atoms: C_8  and  C_10 
REMARK    3  A    between atoms: C_8  and  C_13 
REMARK    4  A    between atoms: C_9  and  C_12 
REMARK    5  A    between atoms: C_10  and  C_12 
ROOT
HETATM    1  C   UNL     1       4.805   9.202   3.876  1.00  0.00     0.049 C 
HETATM    2  C   UNL     1       5.725  10.219   3.274  1.00  0.00    -0.051 C 
HETATM    3  C   UNL     1       6.706  10.791   4.042  1.00  0.00    -0.019 C 
ENDROOT
BRANCH   3   4
HETATM    4  C   UNL     1       7.915  11.389   3.437  1.00  0.00     0.028 C 
BRANCH   4   5
HETATM    5  C   UNL     1       7.843  12.948   3.456  1.00  0.00     0.014 C 
BRANCH   5   6
HETATM    6  C   UNL     1       8.966  13.918   3.917  1.00  0.00     0.113 C 
BRANCH   6   7
HETATM    7  C   UNL     1       9.805  14.568   2.815  1.00  0.00     0.172 C 
HETATM    8  O   UNL     1      10.995  14.814   3.092  1.00  0.00    -0.648 OA
HETATM    9  O   UNL     1       9.280  14.797   1.710  1.00  0.00    -0.648 OA
ENDBRANCH   6   7
ENDBRANCH   5   6
ENDBRANCH   4   5
ENDBRANCH   3   4
BRANCH   2  10
HETATM   10  C   UNL     1       5.564  10.667   1.957  1.00  0.00     0.086 C 
HETATM   11  N   UNL     1       4.735  11.619   1.551  1.00  0.00    -0.407 N 
HETATM   12  H   UNL     1       4.071  12.053   2.160  1.00  0.00     0.155 HD
HETATM   13  H   UNL     1       4.529  11.689   0.567  1.00  0.00     0.155 HD
ENDBRANCH   2  10
TORSDOF 5
ENDMDL
MODEL 9
REMARK VINA RESULT:    -3.217     24.461     25.537
REMARK INTER + INTRA:          -4.847
REMARK INTER:                  -4.110
REMARK INTRA:                  -0.737
REMARK UNBOUND:                -0.690
REMARK  5 active torsions:
REMARK  status: ('A' for Active; 'I' for Inactive)
REMARK    1  A    between atoms: C_1  and  C_6 
REMARK    2  A    between atoms: C_8  and  C_10 
REMARK    3  A    between atoms: C_8  and  C_13 
REMARK    4  A    between atoms: C_9  and  C_12 
REMARK    5  A    between atoms: C_10  and  C_12 
ROOT
HETATM    1  C   UNL     1      26.627  -1.043  15.311  1.00  0.00     0.049 C 
HETATM    2  C   UNL     1      25.162  -1.350  15.250  1.00  0.00    -0.051 C 
HETATM    3  C   UNL     1      24.606  -2.206  16.165  1.00  0.00    -0.019 C 
ENDROOT
BRANCH   3   4
HETATM    4  C   UNL     1      23.162  -2.173  16.480  1.00  0.00     0.028 C 
BRANCH   4   5
HETATM    5  C   UNL     1      22.840  -1.074  17.540  1.00  0.00     0.014 C 
BRANCH   5   6
HETATM    6  C   UNL     1      23.867  -0.338  18.446  1.00  0.00     0.113 C 
BRANCH   6   7
HETATM    7  C   UNL     1      24.311   1.052  17.988  1.00  0.00     0.172 C 
HETATM    8  O   UNL     1      23.859   1.451  16.897  1.00  0.00    -0.648 OA
HETATM    9  O   UNL     1      25.070   1.716  18.717  1.00  0.00    -0.648 OA
ENDBRANCH   6   7
ENDBRANCH   5   6
ENDBRANCH   4   5
ENDBRANCH   3   4
BRANCH   2  10
HETATM   10  C   UNL     1      24.348  -0.847  14.228  1.00  0.00     0.086 C 
HETATM   11  N   UNL     1      23.979   0.418  14.074  1.00  0.00    -0.407 N 
HETATM   12  H   UNL     1      24.191   1.128  14.745  1.00  0.00     0.155 HD
HETATM   13  H   UNL     1      23.209   0.622  13.457  1.00  0.00     0.155 HD
ENDBRANCH   2  10
TORSDOF 5
ENDMDL
