REMARK  5 active torsions:
REMARK  status: ('A' for Active; 'I' for Inactive)
REMARK    1  A    between atoms: C_1  and  C_6 
REMARK    2  A    between atoms: C_8  and  C_10 
REMARK    3  A    between atoms: C_8  and  C_13 
REMARK    4  A    between atoms: C_9  and  C_12 
REMARK    5  A    between atoms: C_10  and  C_12 
ROOT
HETATM    1  C   UNL     1       6.042   0.104  23.941  1.00  0.00     0.049 C 
HETATM    2  C   UNL     1       7.415  -0.321  23.520  1.00  0.00    -0.051 C 
HETATM    3  C   UNL     1       7.679  -0.559  22.196  1.00  0.00    -0.019 C 
ENDROOT
BRANCH   3   4
HETATM    4  C   UNL     1       9.053  -0.490  21.655  1.00  0.00     0.028 C 
BRANCH   4   5
HETATM    5  C   UNL     1       9.271  -1.549  20.530  1.00  0.00     0.014 C 
BRANCH   5   6
HETATM    6  C   UNL     1      10.407  -2.608  20.468  1.00  0.00     0.113 C 
BRANCH   6   7
HETATM    7  C   UNL     1      11.542  -2.455  21.482  1.00  0.00     0.172 C 
HETATM    8  O   UNL     1      11.223  -2.494  22.686  1.00  0.00    -0.648 OA
HETATM    9  O   UNL     1      12.709  -2.323  21.070  1.00  0.00    -0.648 OA
ENDBRANCH   6   7
ENDBRANCH   5   6
ENDBRANCH   4   5
ENDBRANCH   3   4
BRANCH   2  10
HETATM   10  C   UNL     1       8.429  -0.561  24.455  1.00  0.00     0.086 C 
HETATM   11  N   UNL     1       8.341  -1.347  25.520  1.00  0.00    -0.407 N 
HETATM   12  H   UNL     1       7.486  -1.783  25.800  1.00  0.00     0.155 HD
HETATM   13  H   UNL     1       9.037  -1.256  26.243  1.00  0.00     0.155 HD
ENDBRANCH   2  10
TORSDOF 5
