stable:False satoms:22 tatoms:24 sratio:0.9166666666666666
  -OEChem-07092417273D

 24 23  0     0  0  0  0  0  0999 V2000
    9.8798   -0.6140   22.3626 H   0  0  0  0  0  0  0  0  0  0  0  0
    9.4008   -0.1138   24.2878 H   0  0  0  0  0  0  0  0  0  0  0  0
   10.8348   -2.5742   19.4588 H   0  0  0  0  0  0  0  0  0  0  0  0
    9.1631    0.5447   21.2691 H   0  0  0  0  0  0  0  0  0  0  0  0
    8.4290   -0.5607   24.4548 C   0  3  0  0  0  0  0  0  0  0  0  0
   11.2231   -2.4935   22.6863 O   0  5  0  0  0  0  0  0  0  0  0  0
    6.8718   -0.8095   21.5250 H   0  0  0  0  0  0  0  0  0  0  0  0
    8.3413   -1.3475   25.5205 N   0  0  0  0  0  0  0  0  0  0  0  0
    6.0420    0.1043   23.9409 C   0  0  0  0  0  0  0  0  0  0  0  0
    8.3505   -2.1297   20.4353 H   0  0  0  0  0  0  0  0  0  0  0  0
    9.0375   -1.2558   26.2432 H   0  0  0  0  0  0  0  0  0  0  0  0
    7.4151   -0.3207   23.5196 C   0  0  0  0  0  0  0  0  0  0  0  0
    7.4859   -1.7826   25.7996 H   0  0  0  0  0  0  0  0  0  0  0  0
    9.0530   -0.4899   21.6549 C   0  0  0  0  0  0  0  0  0  0  0  0
    5.2995   -0.1525   23.1900 H   0  0  0  0  0  0  0  0  0  0  0  0
    5.9986    1.1782   24.1044 H   0  0  0  0  0  0  0  0  0  0  0  0
   11.5416   -2.4546   21.4818 C   0  0  0  0  0  0  0  0  0  0  0  0
    9.2706   -1.5489   20.5297 C   0  0  0  0  0  0  0  0  0  0  0  0
    9.3840   -0.9545   19.6259 H   0  0  0  0  0  0  0  0  0  0  0  0
   12.7087   -2.3234   21.0705 O   0  0  0  0  0  0  0  0  0  0  0  0
    5.7597   -0.4096   24.8701 H   0  0  0  0  0  0  0  0  0  0  0  0
   10.0071   -3.6144   20.6020 H   0  0  0  0  0  0  0  0  0  0  0  0
   10.4073   -2.6083   20.4677 C   0  0  0  0  0  0  0  0  0  0  0  0
    7.6795   -0.5590   22.1964 C   0  0  0  0  0  0  0  0  0  0  0  0
  3 23  1  0  0  0  0
 18 19  1  0  0  0  0
 10 18  1  0  0  0  0
 18 23  1  0  0  0  0
 22 23  1  0  0  0  0
 17 23  1  0  0  0  0
 14 18  1  0  0  0  0
 17 20  2  0  0  0  0
  4 14  1  0  0  0  0
  6 17  1  0  0  0  0
  7 24  1  0  0  0  0
 14 24  1  0  0  0  0
  1 14  1  0  0  0  0
 12 24  2  0  0  0  0
  9 15  1  0  0  0  0
  9 12  1  0  0  0  0
  5 12  1  0  0  0  0
  9 16  1  0  0  0  0
  9 21  1  0  0  0  0
  2  5  1  0  0  0  0
  5  8  1  0  0  0  0
  8 13  1  0  0  0  0
  8 11  1  0  0  0  0
M  CHG  2   5   1   6  -1
M  END
> <Shapegauss>
-59.340630

$$$$
