stable:False satoms:16 tatoms:24 sratio:0.6666666666666666
  -OEChem-08062405083D

 25 24  0     0  0  0  0  0  0999 V2000
   13.7004    0.5966   22.7863 O   0  0  0  0  0  0  0  0  0  0  0  0
   12.9509   -0.5284   23.5278 S   0  0  0  0  0  0  0  0  0  0  0  0
   13.0426   -0.3052   24.9604 O   0  0  0  0  0  0  0  0  0  0  0  0
   13.3871   -1.8725   23.2171 O   0  5  0  0  0  0  0  0  0  0  0  0
   11.4555   -0.3106   23.0683 N   0  0  0  0  0  0  0  0  0  0  0  0
   10.5424   -1.0710   22.9962 C   0  0  0  0  0  0  0  0  0  0  0  0
    9.5291   -1.6723   22.7748 C   0  0  0  0  0  0  0  0  0  0  0  0
    8.0318   -2.7187   23.9046 C   0  0  0  0  0  0  0  0  0  0  0  0
    9.3471   -4.3312   23.7067 H   0  0  0  0  0  0  0  0  0  0  0  0
    8.4948   -4.0804   24.3276 C   0  0  0  0  0  0  0  0  0  0  0  0
    7.7200   -4.8296   24.2205 H   0  0  0  0  0  0  0  0  0  0  0  0
    8.6855   -4.0439   25.3929 H   0  0  0  0  0  0  0  0  0  0  0  0
    7.3894   -2.2494   24.6211 H   0  0  0  0  0  0  0  0  0  0  0  0
    8.2885   -2.0581   22.7856 C   0  0  0  0  0  0  0  0  0  0  0  0
    7.1272   -1.7085   21.7226 C   0  0  0  0  0  0  0  0  0  0  0  0
    6.3098   -2.5656   21.5600 O   0  0  0  0  0  0  0  0  0  0  0  0
    7.1003   -0.5358   21.0853 N   0  0  0  0  0  0  0  0  0  0  0  0
    5.8634    0.3807   19.1073 C   0  0  0  0  0  0  0  0  0  0  0  0
    4.4319    0.9648   20.5105 H   0  0  0  0  0  0  0  0  0  0  0  0
    4.5883    0.9006   19.5402 N   0  0  0  0  0  0  0  0  0  0  0  0
    4.0254    1.1468   18.7280 H   0  0  0  0  0  0  0  0  0  0  0  0
    5.9818    0.5988   17.8827 O   0  0  0  0  0  0  0  0  0  0  0  0
    6.9095   -0.2243   19.8041 C   0  0  0  0  0  2  0  0  0  0  0  0
   11.5405    0.0505   22.1396 H   0  0  0  0  0  0  0  0  0  0  0  0
    7.2513    0.2545   21.6790 H   0  0  0  0  0  0  0  0  0  0  0  0
 20 21  1  0  0  0  0
 19 20  1  0  0  0  0
 18 20  1  0  0  0  0
 18 22  2  0  0  0  0
 18 23  1  0  0  0  0
 17 23  1  0  0  0  0
 15 17  1  0  0  0  0
 15 16  2  0  0  0  0
 14 15  1  0  0  0  0
  8 13  1  0  0  0  0
  8 14  2  3  0  0  0
  8 10  1  0  0  0  0
  7 14  1  0  0  0  0
 10 11  1  0  0  0  0
  6  7  3  0  0  0  0
 10 12  1  0  0  0  0
  9 10  1  0  0  0  0
  5  6  1  0  0  0  0
  2  5  1  0  0  0  0
  2  3  2  0  0  0  0
  1  2  2  0  0  0  0
  2  4  1  0  0  0  0
  5 24  1  0  0  0  0
 17 25  1  0  0  0  0
M  CHG  1   4  -1
M  END
> <Chemgauss4>
-6.219574

$$$$
