
 OpenBabel07202414153D

 37 38  0  0  1  0  0  0  0  0999 V2000
    4.1333   -1.2510   -0.8250 C   0  0  0  0  0  0  0  0  0  0  0  0
    2.8170   -0.1860   -0.2529 S   0  0  0  0  0  0  0  0  0  0  0  0
    2.9759    1.0677   -0.9473 O   0  0  0  0  0  0  0  0  0  0  0  0
    1.5745   -0.9292   -0.3418 O   0  0  0  0  0  0  0  0  0  0  0  0
    3.2070   -0.0161    1.3877 N   0  0  0  0  0  0  0  0  0  0  0  0
    2.9735   -1.2419    2.2304 C   0  0  0  0  0  0  0  0  0  0  0  0
    1.5054   -1.3937    2.6618 C   0  0  0  0  0  0  0  0  0  0  0  0
    0.9997   -0.1980    3.3341 N   0  0  0  0  0  0  0  0  0  0  0  0
    1.2895    1.0739    2.6519 C   0  0  0  0  0  0  0  0  0  0  0  0
    2.7542    1.2087    2.1526 C   0  0  3  0  0  0  0  0  0  0  0  0
    3.0846    2.5696    1.5528 C   0  0  0  0  0  0  0  0  0  0  0  0
    4.3933    3.0717    1.6570 C   0  0  0  0  0  0  0  0  0  0  0  0
    4.7049    4.3620    1.2176 C   0  0  0  0  0  0  0  0  0  0  0  0
    3.7198    5.1647    0.6476 C   0  0  0  0  0  0  0  0  0  0  0  0
    2.4292    4.6695    0.4949 C   0  0  0  0  0  0  0  0  0  0  0  0
    2.1145    3.3829    0.9398 C   0  0  0  0  0  0  0  0  0  0  0  0
   -0.0350   -0.2084    4.2679 C   0  0  0  0  0  0  0  0  0  0  0  0
   -0.4860    0.8365    4.7441 O   0  0  0  0  0  0  0  0  0  0  0  0
   -0.6235   -1.5441    4.6891 C   0  0  0  0  0  0  0  0  0  0  0  0
    0.3581   -2.2479    5.9863 Cl  0  0  0  0  0  0  0  0  0  0  0  0
    3.9278   -1.5101   -1.8656 H   0  0  0  0  0  0  0  0  0  0  0  0
    4.1668   -2.1673   -0.2361 H   0  0  0  0  0  0  0  0  0  0  0  0
    5.0804   -0.7103   -0.7582 H   0  0  0  0  0  0  0  0  0  0  0  0
    3.6093   -1.1593    3.1206 H   0  0  0  0  0  0  0  0  0  0  0  0
    3.2991   -2.1466    1.7112 H   0  0  0  0  0  0  0  0  0  0  0  0
    1.4333   -2.2625    3.3186 H   0  0  0  0  0  0  0  0  0  0  0  0
    0.8388   -1.5839    1.8160 H   0  0  0  0  0  0  0  0  0  0  0  0
    1.0682    1.9077    3.3303 H   0  0  0  0  0  0  0  0  0  0  0  0
    0.5792    1.1366    1.8193 H   0  0  0  0  0  0  0  0  0  0  0  0
    3.3576    1.1813    3.0754 H   0  0  0  0  0  0  0  0  0  0  0  0
    5.1789    2.4645    2.1012 H   0  0  0  0  0  0  0  0  0  0  0  0
    5.7162    4.7444    1.3260 H   0  0  0  0  0  0  0  0  0  0  0  0
    3.9586    6.1708    0.3138 H   0  0  0  0  0  0  0  0  0  0  0  0
    1.6619    5.2839    0.0296 H   0  0  0  0  0  0  0  0  0  0  0  0
    1.0975    3.0320    0.7866 H   0  0  0  0  0  0  0  0  0  0  0  0
   -0.6931   -2.2425    3.8520 H   0  0  0  0  0  0  0  0  0  0  0  0
   -1.6380   -1.3842    5.0668 H   0  0  0  0  0  0  0  0  0  0  0  0
  1  2  1  0  0  0  0
  1 21  1  0  0  0  0
  1 22  1  0  0  0  0
  1 23  1  0  0  0  0
  2  3  2  0  0  0  0
  2  4  2  0  0  0  0
  2  5  1  0  0  0  0
  5  6  1  0  0  0  0
  5 10  1  0  0  0  0
  6  7  1  0  0  0  0
  6 24  1  0  0  0  0
  6 25  1  0  0  0  0
  7  8  1  0  0  0  0
  7 26  1  0  0  0  0
  7 27  1  0  0  0  0
  8  9  1  0  0  0  0
  8 17  1  0  0  0  0
  9 10  1  0  0  0  0
  9 28  1  0  0  0  0
  9 29  1  0  0  0  0
 10 11  1  0  0  0  0
 10 30  1  0  0  0  0
 11 12  1  0  0  0  0
 11 16  2  0  0  0  0
 12 13  2  0  0  0  0
 12 31  1  0  0  0  0
 13 14  1  0  0  0  0
 13 32  1  0  0  0  0
 14 15  2  0  0  0  0
 14 33  1  0  0  0  0
 15 16  1  0  0  0  0
 15 34  1  0  0  0  0
 16 35  1  0  0  0  0
 17 18  2  0  0  0  0
 17 19  1  0  0  0  0
 19 20  1  0  0  0  0
 19 36  1  0  0  0  0
 19 37  1  0  0  0  0
M  END
$$$$
