
 OpenBabel07202414153D

 40 43  0  0  1  0  0  0  0  0999 V2000
    9.1510    2.7876   -4.0191 C   0  0  0  0  0  0  0  0  0  0  0  0
    7.8642    2.3535   -3.5910 O   0  0  0  0  0  0  0  0  0  0  0  0
    7.3116    3.0682   -2.5602 C   0  0  0  0  0  0  0  0  0  0  0  0
    7.4977    4.4399   -2.3511 C   0  0  0  0  0  0  0  0  0  0  0  0
    6.8774    5.1081   -1.2754 C   0  0  0  0  0  0  0  0  0  0  0  0
    6.0533    4.3682   -0.4072 C   0  0  0  0  0  0  0  0  0  0  0  0
    5.8817    3.0199   -0.6689 C   0  0  0  0  0  0  0  0  0  0  0  0
    6.4702    2.3301   -1.7241 C   0  0  0  0  0  0  0  0  0  0  0  0
    5.0575    2.4834    0.2620 O   0  0  0  0  0  0  0  0  0  0  0  0
    4.6794    3.4581    1.1565 N   0  0  0  0  0  0  0  0  0  0  0  0
    5.2701    4.5951    0.7683 C   0  0  0  0  0  0  0  0  0  0  0  0
    5.1409    5.8145    1.4263 N   0  0  0  0  0  0  0  0  0  0  0  0
    4.4218    5.9753    2.5932 C   0  0  0  0  0  0  0  0  0  0  0  0
    3.7925    5.0811    3.1611 O   0  0  0  0  0  0  0  0  0  0  0  0
    4.3978    7.3746    3.2243 C   0  0  3  0  0  0  0  0  0  0  0  0
    2.9531    7.8800    3.2891 C   0  0  0  0  0  0  0  0  0  0  0  0
    2.5662    8.4555    1.9387 C   0  0  0  0  0  0  0  0  0  0  0  0
    3.3739    9.5800    1.5800 O   0  0  0  0  0  0  0  0  0  0  0  0
    4.7133    9.4519    1.8217 C   0  0  0  0  0  0  0  0  0  0  0  0
    5.2750    8.4267    2.5905 C   0  0  0  0  0  0  0  0  0  0  0  0
    6.6632    8.4116    2.8022 C   0  0  0  0  0  0  0  0  0  0  0  0
    7.4676    9.4065    2.2465 C   0  0  0  0  0  0  0  0  0  0  0  0
    6.9025   10.4301    1.4911 C   0  0  0  0  0  0  0  0  0  0  0  0
    5.5227   10.4543    1.2850 C   0  0  0  0  0  0  0  0  0  0  0  0
    9.1685    9.3647    2.4949 Cl  0  0  0  0  0  0  0  0  0  0  0  0
    9.5162    2.0694   -4.7599 H   0  0  0  0  0  0  0  0  0  0  0  0
    9.8590    2.7990   -3.1833 H   0  0  0  0  0  0  0  0  0  0  0  0
    9.1036    3.7645   -4.5088 H   0  0  0  0  0  0  0  0  0  0  0  0
    8.1096    5.0270   -3.0295 H   0  0  0  0  0  0  0  0  0  0  0  0
    7.0394    6.1728   -1.1377 H   0  0  0  0  0  0  0  0  0  0  0  0
    6.2943    1.2715   -1.8749 H   0  0  0  0  0  0  0  0  0  0  0  0
    5.6324    6.5965    1.0131 H   0  0  0  0  0  0  0  0  0  0  0  0
    4.7441    7.2339    4.2581 H   0  0  0  0  0  0  0  0  0  0  0  0
    2.8819    8.6689    4.0507 H   0  0  0  0  0  0  0  0  0  0  0  0
    2.2540    7.0857    3.5758 H   0  0  0  0  0  0  0  0  0  0  0  0
    1.5284    8.8032    1.9739 H   0  0  0  0  0  0  0  0  0  0  0  0
    2.6281    7.7066    1.1402 H   0  0  0  0  0  0  0  0  0  0  0  0
    7.1164    7.6327    3.4136 H   0  0  0  0  0  0  0  0  0  0  0  0
    7.5240   11.2153    1.0693 H   0  0  0  0  0  0  0  0  0  0  0  0
    5.0738   11.2618    0.7108 H   0  0  0  0  0  0  0  0  0  0  0  0
  1  2  1  0  0  0  0
  1 26  1  0  0  0  0
  1 27  1  0  0  0  0
  1 28  1  0  0  0  0
  2  3  1  0  0  0  0
  3  4  1  0  0  0  0
  3  8  2  0  0  0  0
  4  5  2  0  0  0  0
  4 29  1  0  0  0  0
  5  6  1  0  0  0  0
  5 30  1  0  0  0  0
  6  7  2  0  0  0  0
  6 11  1  0  0  0  0
  7  8  1  0  0  0  0
  7  9  1  0  0  0  0
  8 31  1  0  0  0  0
  9 10  1  0  0  0  0
 10 11  2  0  0  0  0
 11 12  1  0  0  0  0
 12 13  1  0  0  0  0
 12 32  1  0  0  0  0
 13 14  2  0  0  0  0
 13 15  1  0  0  0  0
 15 16  1  0  0  0  0
 15 20  1  0  0  0  0
 15 33  1  0  0  0  0
 16 17  1  0  0  0  0
 16 34  1  0  0  0  0
 16 35  1  0  0  0  0
 17 18  1  0  0  0  0
 17 36  1  0  0  0  0
 17 37  1  0  0  0  0
 18 19  1  0  0  0  0
 19 20  1  0  0  0  0
 19 24  2  0  0  0  0
 20 21  2  0  0  0  0
 21 22  1  0  0  0  0
 21 38  1  0  0  0  0
 22 23  2  0  0  0  0
 22 25  1  0  0  0  0
 23 24  1  0  0  0  0
 23 39  1  0  0  0  0
 24 40  1  0  0  0  0
M  END
$$$$
