stable:False satoms:22 tatoms:24 sratio:0.9166666666666666
  -OEChem-07092417293D

 24 24  0     1  0  0  0  0  0999 V2000
    9.6613   -4.0875   20.3285 H   0  0  0  0  0  0  0  0  0  0  0  0
    8.5354   -0.0729   25.9299 C   0  0  3  0  0  0  0  0  0  0  0  0
    8.7495   -0.7404   22.6540 C   0  0  0  0  0  0  0  0  0  0  0  0
    9.1288   -1.6491   20.4896 N   0  0  0  0  0  0  0  0  0  0  0  0
   11.2589   -3.3843   20.2350 H   0  0  0  0  0  0  0  0  0  0  0  0
    6.4254    0.3191   20.7501 H   0  0  0  0  0  0  0  0  0  0  0  0
   10.4602   -3.8072   19.6449 C   0  0  0  0  0  0  0  0  0  0  0  0
    9.9949   -2.7586   22.2613 O   0  0  0  0  0  0  0  0  0  0  0  0
    9.3794   -1.8126   21.8045 C   0  0  0  0  0  0  0  0  0  0  0  0
    7.6677    0.0650   27.1101 C   0  0  0  0  0  0  0  0  0  0  0  0
    9.8308    0.5554   24.4569 N   0  0  0  0  0  0  0  0  0  0  0  0
   10.0883   -3.0809   18.9442 H   0  0  0  0  0  0  0  0  0  0  0  0
    7.8669   -0.6771   18.8054 O   0  0  0  0  0  0  0  0  0  0  0  0
   10.8178   -4.6736   19.1077 H   0  0  0  0  0  0  0  0  0  0  0  0
    8.3516   -0.9872   25.0224 N   0  3  0  0  0  0  0  0  0  0  0  0
    8.1207   -0.8783   20.0956 C   0  0  0  0  0  0  0  0  0  0  0  0
    7.7951    0.0347   22.2247 N   0  0  0  0  0  0  0  0  0  0  0  0
    7.3516   -0.1541   21.0264 C   0  0  0  0  0  0  0  0  0  0  0  0
    9.0295   -0.4428   23.9941 C   0  0  3  0  0  0  0  0  0  0  0  0
    7.1501   -0.1083   18.5592 H   0  0  0  0  0  0  0  0  0  0  0  0
    9.5676    0.7590   25.6738 N   0  0  0  0  0  0  0  0  0  0  0  0
    7.3871    1.1025   27.1992 H   0  0  0  0  0  0  0  0  0  0  0  0
    6.7998   -0.5466   26.9630 H   0  0  0  0  0  0  0  0  0  0  0  0
    8.1652   -0.2645   28.0161 H   0  0  0  0  0  0  0  0  0  0  0  0
 13 20  1  0  0  0  0
 13 16  1  0  0  0  0
  7 12  1  0  0  0  0
  7 14  1  0  0  0  0
  5  7  1  0  0  0  0
  1  7  1  0  0  0  0
  4 16  1  0  0  0  0
 16 18  2  0  0  0  0
  4  9  1  0  0  0  0
  6 18  1  0  0  0  0
 17 18  1  0  0  0  0
  8  9  2  0  0  0  0
  3  9  1  0  0  0  0
  3 17  2  0  0  0  0
  3 19  1  0  0  0  0
 11 19  1  0  0  0  0
 15 19  1  0  0  0  0
 11 21  1  0  0  0  0
  2 15  1  0  0  0  0
  2 21  1  0  0  0  0
  2 10  1  0  0  0  0
 10 23  1  0  0  0  0
 10 22  1  0  0  0  0
 10 24  1  0  0  0  0
M  CHG  1  15   1
M  END
> <Shapegauss>
-108.428017

$$$$
