stable:False satoms:13 tatoms:24 sratio:0.5416666666666666
  -OEChem-07092417423D

 24 24  0     0  0  0  0  0  0999 V2000
    6.7405   -4.6926   26.4557 O   0  0  0  0  0  0  0  0  0  0  0  0
    8.1687   -4.2830   26.1595 S   0  0  0  0  0  0  0  0  0  0  0  0
    9.0272   -5.4406   26.0197 O   0  0  0  0  0  0  0  0  0  0  0  0
    8.6739   -3.3869   27.1467 O   0  5  0  0  0  0  0  0  0  0  0  0
    8.0784   -3.4899   24.7467 N   0  0  0  0  0  0  0  0  0  0  0  0
    8.8978   -2.8575   24.2161 C   0  0  0  0  0  0  0  0  0  0  0  0
    9.3956   -2.0780   23.6936 C   0  0  0  0  0  0  0  0  0  0  0  0
   10.3330   -1.0492   23.3145 C   0  0  0  0  0  0  0  0  0  0  0  0
   11.5139   -0.3799   23.8841 C   0  0  0  0  0  0  0  0  0  0  0  0
   11.6537    0.3442   24.6143 H   0  0  0  0  0  0  0  0  0  0  0  0
   13.4477   -0.4250   23.3764 H   0  0  0  0  0  0  0  0  0  0  0  0
   12.5539   -1.5449   22.4272 H   0  0  0  0  0  0  0  0  0  0  0  0
   12.4183   -0.8963   23.1519 C   0  0  0  0  0  0  0  0  0  0  0  0
    9.6763   -0.6816   22.4136 C   0  0  0  0  0  0  0  0  0  0  0  0
    9.0528   -0.0693   21.3849 C   0  0  0  0  0  0  0  0  0  0  0  0
    9.5982    0.8420   20.9597 O   0  0  0  0  0  0  0  0  0  0  0  0
    7.8541   -0.6048   21.0573 N   0  0  0  0  0  0  0  0  0  0  0  0
    7.1572   -0.0774   20.1158 C   0  0  0  0  0  0  0  0  0  0  0  0
    7.5134   -0.0055   18.7661 N   0  0  0  0  0  0  0  0  0  0  0  0
    6.6136    0.4872   18.0243 N   0  0  0  0  0  0  0  0  0  0  0  0
    5.5921    0.7679   18.7897 C   0  0  0  0  0  0  0  0  0  0  0  0
    4.6617    1.1343   18.6486 H   0  0  0  0  0  0  0  0  0  0  0  0
    5.9042    0.4511   20.2556 C   0  0  0  0  0  0  0  0  0  0  0  0
    5.0579    0.6456   21.6750 Cl  0  0  0  0  0  0  0  0  0  0  0  0
 19 20  1  0  0  0  0
 20 21  2  0  0  0  0
 21 22  1  0  0  0  0
 18 19  1  0  0  0  0
 21 23  1  0  0  0  0
 18 23  2  0  0  0  0
 17 18  1  0  0  0  0
 23 24  1  0  0  0  0
 15 16  2  0  0  0  0
 15 17  1  0  0  0  0
 14 15  1  0  0  0  0
  8 14  2  0  0  0  0
 12 13  1  0  0  0  0
 11 13  1  0  0  0  0
  9 13  2  0  0  0  0
  7  8  1  0  0  0  0
  8  9  1  0  0  0  0
  6  7  3  0  0  0  0
  9 10  1  0  0  0  0
  5  6  1  0  0  0  0
  2  5  1  0  0  0  0
  2  3  2  0  0  0  0
  1  2  2  0  0  0  0
  2  4  1  0  0  0  0
M  CHG  1   4  -1
M  END
> <Shapegauss>
-235.784225

$$$$
