stable:False satoms:13 tatoms:24 sratio:0.5416666666666666
  -OEChem-08062412333D

 28 28  0     0  0  0  0  0  0999 V2000
    6.4105   -4.3660   26.6223 O   0  0  0  0  0  0  0  0  0  0  0  0
    7.8641   -3.9550   26.5068 S   0  0  0  0  0  0  0  0  0  0  0  0
    8.7404   -5.1060   26.5691 O   0  0  0  0  0  0  0  0  0  0  0  0
    8.2170   -2.9886   27.4939 O   0  5  0  0  0  0  0  0  0  0  0  0
    7.9734   -3.2575   25.0457 N   0  0  0  0  0  0  0  0  0  0  0  0
    8.8570   -2.6487   24.5967 C   0  0  0  0  0  0  0  0  0  0  0  0
    9.4203   -1.8976   24.0998 C   0  0  0  0  0  0  0  0  0  0  0  0
   10.3966   -0.8816   23.7908 C   0  0  0  0  0  0  0  0  0  0  0  0
   11.4795   -0.1585   24.4774 C   0  0  0  0  0  0  0  0  0  0  0  0
   11.5087    0.6138   25.1700 H   0  0  0  0  0  0  0  0  0  0  0  0
   13.4664   -0.2073   24.2558 H   0  0  0  0  0  0  0  0  0  0  0  0
   12.7248   -1.4004   23.2656 H   0  0  0  0  0  0  0  0  0  0  0  0
   12.4827   -0.7079   23.9184 C   0  0  0  0  0  0  0  0  0  0  0  0
    9.8742   -0.5838   22.7826 C   0  0  0  0  0  0  0  0  0  0  0  0
    9.4016   -0.0497   21.6366 C   0  0  0  0  0  0  0  0  0  0  0  0
    9.9973    0.8401   21.2338 O   0  0  0  0  0  0  0  0  0  0  0  0
    8.2655   -0.6237   21.1774 N   0  0  0  0  0  0  0  0  0  0  0  0
    7.7083   -0.1697   20.1127 C   0  0  0  0  0  0  0  0  0  0  0  0
    8.2544   -0.1808   18.8261 N   0  0  0  0  0  0  0  0  0  0  0  0
    7.4679    0.2485   17.9319 N   0  0  0  0  0  0  0  0  0  0  0  0
    6.3453    0.5631   18.5227 C   0  0  0  0  0  0  0  0  0  0  0  0
    5.4428    0.9052   18.2257 H   0  0  0  0  0  0  0  0  0  0  0  0
    6.4452    0.3477   20.0361 C   0  0  0  0  0  0  0  0  0  0  0  0
    5.4025    0.6217   21.3035 Cl  0  0  0  0  0  0  0  0  0  0  0  0
    7.1938   -2.6324   25.0077 H   0  0  0  0  0  0  0  0  0  0  0  0
    9.2750   -1.4802   22.7207 H   0  0  0  0  0  0  0  0  0  0  0  0
    7.8615   -1.3978   21.6647 H   0  0  0  0  0  0  0  0  0  0  0  0
    9.1820   -0.4989   18.6299 H   0  0  0  0  0  0  0  0  0  0  0  0
 19 20  1  0  0  0  0
 20 21  2  0  0  0  0
 21 22  1  0  0  0  0
 18 19  1  0  0  0  0
 21 23  1  0  0  0  0
 18 23  2  0  0  0  0
 17 18  1  0  0  0  0
 23 24  1  0  0  0  0
 15 16  2  0  0  0  0
 15 17  1  0  0  0  0
 14 15  1  0  0  0  0
  8 14  2  0  0  0  0
 12 13  1  0  0  0  0
 11 13  1  0  0  0  0
  9 13  2  0  0  0  0
  7  8  1  0  0  0  0
  8  9  1  0  0  0  0
  6  7  3  0  0  0  0
  9 10  1  0  0  0  0
  5  6  1  0  0  0  0
  2  5  1  0  0  0  0
  2  3  2  0  0  0  0
  1  2  2  0  0  0  0
  2  4  1  0  0  0  0
  5 25  1  0  0  0  0
 14 26  1  0  0  0  0
 17 27  1  0  0  0  0
 19 28  1  0  0  0  0
M  CHG  1   4  -1
M  END
> <Chemgauss4>
-7.993028

$$$$
