stable:False satoms:13 tatoms:24 sratio:0.5416666666666666
  -OEChem-08062412333D

 28 28  0     0  0  0  0  0  0999 V2000
   -6.7518   -4.4729  -26.8053 O   0  0  0  0  0  0  0  0  0  0  0  0
   -8.2054   -4.0618  -26.6898 S   0  0  0  0  0  0  0  0  0  0  0  0
   -9.0817   -5.2128  -26.7521 O   0  0  0  0  0  0  0  0  0  0  0  0
   -8.5583   -3.0954  -27.6769 O   0  5  0  0  0  0  0  0  0  0  0  0
   -8.3147   -3.3643  -25.2287 N   0  0  0  0  0  0  0  0  0  0  0  0
   -9.1982   -2.7556  -24.7797 C   0  0  0  0  0  0  0  0  0  0  0  0
   -9.7616   -2.0044  -24.2828 C   0  0  0  0  0  0  0  0  0  0  0  0
  -10.7379   -0.9884  -23.9738 C   0  0  0  0  0  0  0  0  0  0  0  0
  -11.8208   -0.2654  -24.6604 C   0  0  0  0  0  0  0  0  0  0  0  0
  -11.8500    0.5070  -25.3530 H   0  0  0  0  0  0  0  0  0  0  0  0
  -13.8077   -0.3141  -24.4388 H   0  0  0  0  0  0  0  0  0  0  0  0
  -13.0661   -1.5072  -23.4486 H   0  0  0  0  0  0  0  0  0  0  0  0
  -12.8240   -0.8147  -24.1014 C   0  0  0  0  0  0  0  0  0  0  0  0
  -10.2154   -0.6906  -22.9656 C   0  0  0  0  0  0  0  0  0  0  0  0
   -9.7429   -0.1565  -21.8196 C   0  0  0  0  0  0  0  0  0  0  0  0
  -10.3386    0.7332  -21.4168 O   0  0  0  0  0  0  0  0  0  0  0  0
   -8.6068   -0.7305  -21.3604 N   0  0  0  0  0  0  0  0  0  0  0  0
   -8.0495   -0.2765  -20.2957 C   0  0  0  0  0  0  0  0  0  0  0  0
   -8.5957   -0.2877  -19.0091 N   0  0  0  0  0  0  0  0  0  0  0  0
   -7.8091    0.1417  -18.1149 N   0  0  0  0  0  0  0  0  0  0  0  0
   -6.6866    0.4562  -18.7057 C   0  0  0  0  0  0  0  0  0  0  0  0
   -5.7841    0.7984  -18.4088 H   0  0  0  0  0  0  0  0  0  0  0  0
   -6.7865    0.2408  -20.2191 C   0  0  0  0  0  0  0  0  0  0  0  0
   -5.7438    0.5148  -21.4866 Cl  0  0  0  0  0  0  0  0  0  0  0  0
   -7.5350   -2.7392  -25.1907 H   0  0  0  0  0  0  0  0  0  0  0  0
   -9.6163   -1.5870  -22.9037 H   0  0  0  0  0  0  0  0  0  0  0  0
   -8.2028   -1.5047  -21.8478 H   0  0  0  0  0  0  0  0  0  0  0  0
   -9.5232   -0.6058  -18.8129 H   0  0  0  0  0  0  0  0  0  0  0  0
 19 20  1  0  0  0  0
 20 21  2  0  0  0  0
 21 22  1  0  0  0  0
 18 19  1  0  0  0  0
 21 23  1  0  0  0  0
 18 23  2  0  0  0  0
 17 18  1  0  0  0  0
 23 24  1  0  0  0  0
 15 16  2  0  0  0  0
 15 17  1  0  0  0  0
 14 15  1  0  0  0  0
  8 14  2  0  0  0  0
 12 13  1  0  0  0  0
 11 13  1  0  0  0  0
  9 13  2  0  0  0  0
  7  8  1  0  0  0  0
  8  9  1  0  0  0  0
  6  7  3  0  0  0  0
  9 10  1  0  0  0  0
  5  6  1  0  0  0  0
  2  5  1  0  0  0  0
  2  3  2  0  0  0  0
  1  2  2  0  0  0  0
  2  4  1  0  0  0  0
  5 25  1  0  0  0  0
 14 26  1  0  0  0  0
 17 27  1  0  0  0  0
 19 28  1  0  0  0  0
M  CHG  1   4  -1
M  END
> <Chemgauss4>
-7.719561

$$$$
