REMARK  3 active torsions:
REMARK  status: ('A' for Active; 'I' for Inactive)
REMARK    1  A    between atoms: O_13  and  C_16 
REMARK    2  A    between atoms: O_13  and  C_14 
REMARK    3  A    between atoms: C_16  and  O_18 
ROOT
HETATM    1  C   UNL     1       7.729  -3.939  25.417  1.00  0.00     0.000 C 
ENDROOT
TORSDOF 3
