stable:False satoms:6 tatoms:24 sratio:0.25
  -OEChem-07092417443D

 24 24  0     1  0  0  0  0  0999 V2000
    6.5882   -4.8727   26.4521 C   0  0  0  0  0  0  0  0  0  0  0  0
    8.2438   -4.2791   26.0753 S   0  0  0  0  0  0  0  0  0  0  0  0
    9.0661   -5.4338   26.0574 O   0  0  0  0  0  0  0  0  0  0  0  0
    8.5909   -3.3462   27.1316 O   0  0  0  0  0  0  0  0  0  0  0  0
    8.1271   -3.5338   24.6737 N   0  0  0  0  0  0  0  0  0  0  0  0
    8.9521   -2.9117   24.1212 C   0  0  0  0  0  0  0  0  0  0  0  0
    9.4330   -1.9774   23.4964 C   0  0  0  0  0  0  0  0  0  0  0  0
   10.2930   -1.0785   23.2913 C   0  0  2  0  0  0  0  0  0  0  0  0
   11.0351   -0.0189   24.2579 C   0  0  0  0  0  0  0  0  0  0  0  0
   12.1512    0.2855   24.1977 C   0  0  0  0  0  0  0  0  0  0  0  0
   13.1299   -0.1499   23.4959 C   0  0  0  0  0  0  0  0  0  0  0  0
   12.7423   -1.2552   22.6192 C   0  0  0  0  0  0  0  0  0  0  0  0
   11.8708   -1.7116   22.4492 C   0  0  0  0  0  0  0  0  0  0  0  0
    9.6938   -0.5876   22.3415 C   0  0  0  0  0  0  0  0  0  0  0  0
    9.0257    0.0246   21.3778 C   0  0  0  0  0  0  0  0  0  0  0  0
    9.5196    0.9772   21.0111 O   0  0  0  0  0  0  0  0  0  0  0  0
    7.9162   -0.6533   21.0747 N   0  0  0  0  0  0  0  0  0  0  0  0
    7.1804   -0.1176   20.1874 C   0  0  0  0  0  0  0  0  0  0  0  0
    7.2129    0.0050   18.9114 C   0  0  0  0  0  0  0  0  0  0  0  0
    6.7598    0.3511   17.7827 N   0  0  0  0  0  0  0  0  0  0  0  0
    5.7151    0.8474   18.2660 C   0  0  0  0  0  0  0  0  0  0  0  0
    5.2680    0.9625   19.3863 C   0  0  0  0  0  0  0  0  0  0  0  0
    5.8270    0.5429   20.5477 C   0  0  0  0  0  0  0  0  0  0  0  0
    5.2421    0.6411   22.0915 Br  0  0  0  0  0  0  0  0  0  0  0  0
 20 21  2  0  0  0  0
 19 20  1  0  0  0  0
 21 22  1  0  0  0  0
 18 19  2  0  0  0  0
 22 23  2  0  0  0  0
 18 23  1  0  0  0  0
 17 18  1  0  0  0  0
 23 24  1  0  0  0  0
 15 16  2  0  0  0  0
 15 17  1  0  0  0  0
 14 15  1  0  0  0  0
  8 14  1  0  0  0  0
 12 13  2  0  0  0  0
 11 12  1  0  0  0  0
  7  8  1  0  0  0  0
  8  9  1  0  0  0  0
 10 11  1  0  0  0  0
  6  7  2  3  0  0  0
  5  6  1  0  0  0  0
  9 10  2  0  0  0  0
  2  5  1  0  0  0  0
  2  3  2  0  0  0  0
  1  2  1  0  0  0  0
  2  4  2  0  0  0  0
M  END
> <Shapegauss>
-286.494049

$$$$
