REMARK  9 active torsions:
REMARK  status: ('A' for Active; 'I' for Inactive)
REMARK    1  A    between atoms: S_2  and  N_5 
REMARK    2  A    between atoms: C_7  and  C_8 
REMARK    3  A    between atoms: C_8  and  C_9 
REMARK    4  A    between atoms: C_9  and  C_15 
REMARK    5  A    between atoms: C_9  and  C_10 
REMARK    6  A    between atoms: C_10  and  C_11 
REMARK    7  A    between atoms: C_12  and  C_13 
REMARK    8  A    between atoms: C_15  and  C_16 
REMARK       I    between atoms: C_16  and  N_18 
REMARK    9  A    between atoms: N_18  and  C_20 
ROOT
HETATM    1  C   UNL     1      10.293  -1.079  23.291  1.00  0.00     0.109 C 
ENDROOT
BRANCH   1   2
HETATM    2  C   UNL     1       9.433  -1.977  23.496  1.00  0.00     0.011 C 
BRANCH   2   3
HETATM    3  C   UNL     1       8.952  -2.912  24.121  1.00  0.00     0.097 C 
HETATM    4  N   UNL     1       8.127  -3.534  24.674  1.00  0.00    -0.296 N 
ATOM      5  HN  UNL     1       7.226  -3.606  24.201  1.00  0.00     0.177 HD
BRANCH   4   6
HETATM    6  S   UNL     1       8.244  -4.279  26.075  1.00  0.00     0.226 S 
HETATM    7  C   UNL     1       6.588  -4.873  26.452  1.00  0.00     0.186 C 
HETATM    8  O   UNL     1       9.066  -5.434  26.057  1.00  0.00    -0.206 OA
HETATM    9  O   UNL     1       8.591  -3.346  27.132  1.00  0.00    -0.206 OA
ENDBRANCH   4   6
ENDBRANCH   2   3
ENDBRANCH   1   2
BRANCH   1  10
HETATM   10  C   UNL     1       9.694  -0.588  22.341  1.00  0.00    -0.071 C 
BRANCH  10  11
HETATM   11  C   UNL     1       9.026   0.025  21.378  1.00  0.00     0.289 C 
HETATM   12  O   UNL     1       9.520   0.977  21.011  1.00  0.00    -0.259 OA
HETATM   13  N   UNL     1       7.916  -0.653  21.075  1.00  0.00    -0.315 N 
ATOM     14  HN  UNL     1       7.676  -1.537  21.524  1.00  0.00     0.170 HD
BRANCH  13  15
HETATM   15  C   UNL     1       7.180  -0.118  20.187  1.00  0.00     0.068 A 
HETATM   16  C   UNL     1       7.213   0.005  18.911  1.00  0.00     0.118 A 
HETATM   17  N   UNL     1       6.760   0.351  17.783  1.00  0.00    -0.373 N 
HETATM   18  C   UNL     1       5.715   0.847  18.266  1.00  0.00     0.089 A 
ATOM     19  HN  UNL     1       7.114   0.260  16.831  1.00  0.00     0.164 HD
HETATM   20  C   UNL     1       5.268   0.963  19.386  1.00  0.00     0.038 A 
HETATM   21  C   UNL     1       5.827   0.543  20.548  1.00  0.00     0.040 A 
HETATM   22 BR   UNL     1       5.242   0.641  22.091  1.00  0.00    -0.049 Br
ENDBRANCH  13  15
ENDBRANCH  10  11
ENDBRANCH   1  10
BRANCH   1  23
HETATM   23  C   UNL     1      11.035  -0.019  24.258  1.00  0.00    -0.006 C 
BRANCH  23  24
HETATM   24  C   UNL     1      12.151   0.285  24.198  1.00  0.00    -0.002 C 
HETATM   25  C   UNL     1      13.130  -0.150  23.496  1.00  0.00    -0.001 C 
BRANCH  25  26
HETATM   26  C   UNL     1      12.742  -1.255  22.619  1.00  0.00    -0.010 C 
HETATM   27  C   UNL     1      11.871  -1.712  22.449  1.00  0.00     0.011 C 
ENDBRANCH  25  26
ENDBRANCH  23  24
ENDBRANCH   1  23
TORSDOF 9
