MODEL 1
REMARK VINA RESULT:    -6.896      0.000      0.000
REMARK INTER + INTRA:         -11.440
REMARK INTER:                 -10.525
REMARK INTRA:                  -0.916
REMARK UNBOUND:                -0.916
REMARK  9 active torsions:
REMARK  status: ('A' for Active; 'I' for Inactive)
REMARK    1  A    between atoms: S_2  and  N_5 
REMARK    2  A    between atoms: C_7  and  C_8 
REMARK    3  A    between atoms: C_8  and  C_9 
REMARK    4  A    between atoms: C_9  and  C_15 
REMARK    5  A    between atoms: C_9  and  C_10 
REMARK    6  A    between atoms: C_10  and  C_11 
REMARK    7  A    between atoms: C_12  and  C_13 
REMARK    8  A    between atoms: C_15  and  C_16 
REMARK       I    between atoms: C_16  and  N_18 
REMARK    9  A    between atoms: N_18  and  C_20 
ROOT
HETATM    1  C   UNL     1       9.243  -1.469  23.432  1.00  0.00     0.109 C 
ENDROOT
BRANCH   1   2
HETATM    2  C   UNL     1       8.373  -2.381  23.451  1.00  0.00     0.011 C 
BRANCH   2   3
HETATM    3  C   UNL     1       7.876  -3.430  23.063  1.00  0.00     0.097 C 
HETATM    4  N   UNL     1       7.644  -4.310  22.326  1.00  0.00    -0.296 N 
ATOM      5  HN  UNL     1       8.444  -4.702  21.829  1.00  0.00     0.177 HD
BRANCH   4   6
HETATM    6  S   UNL     1       6.231  -4.968  22.006  1.00  0.00     0.226 S 
HETATM    7  C   UNL     1       5.723  -5.794  23.522  1.00  0.00     0.186 C 
HETATM    8  O   UNL     1       5.202  -4.034  21.721  1.00  0.00    -0.206 OA
HETATM    9  O   UNL     1       6.357  -6.006  21.000  1.00  0.00    -0.206 OA
ENDBRANCH   4   6
ENDBRANCH   2   3
ENDBRANCH   1   2
BRANCH   1  10
HETATM   10  C   UNL     1       8.773  -0.910  22.447  1.00  0.00    -0.071 C 
BRANCH  10  11
HETATM   11  C   UNL     1       8.319  -0.376  21.326  1.00  0.00     0.289 C 
HETATM   12  O   UNL     1       9.109   0.174  20.727  1.00  0.00    -0.259 OA
HETATM   13  N   UNL     1       7.016  -0.630  21.181  1.00  0.00    -0.315 N 
ATOM     14  HN  UNL     1       6.492  -1.196  21.849  1.00  0.00     0.170 HD
BRANCH  13  15
HETATM   15  C   UNL     1       6.476  -0.119  20.150  1.00  0.00     0.068 A 
HETATM   16  C   UNL     1       6.216  -0.505  18.955  1.00  0.00     0.118 A 
HETATM   17  N   UNL     1       5.731  -0.384  17.794  1.00  0.00    -0.373 N 
HETATM   18  C   UNL     1       5.304   0.775  18.006  1.00  0.00     0.089 A 
ATOM     19  HN  UNL     1       5.699  -1.002  16.984  1.00  0.00     0.164 HD
HETATM   20  C   UNL     1       5.321   1.527  18.956  1.00  0.00     0.038 A 
HETATM   21  C   UNL     1       5.859   1.302  20.180  1.00  0.00     0.040 A 
HETATM   22 BR   UNL     1       5.875   2.275  21.516  1.00  0.00    -0.049 Br
ENDBRANCH  13  15
ENDBRANCH  10  11
ENDBRANCH   1  10
BRANCH   1  23
HETATM   23  C   UNL     1       9.833  -0.483  24.566  1.00  0.00    -0.006 C 
BRANCH  23  24
HETATM   24  C   UNL     1      10.405   0.506  24.372  1.00  0.00    -0.002 C 
HETATM   25  C   UNL     1      11.645   0.768  24.192  1.00  0.00    -0.001 C 
BRANCH  25  26
HETATM   26  C   UNL     1      12.486  -0.428  24.266  1.00  0.00    -0.010 C 
HETATM   27  C   UNL     1      13.458  -0.585  24.102  1.00  0.00     0.011 C 
ENDBRANCH  25  26
ENDBRANCH  23  24
ENDBRANCH   1  23
TORSDOF 9
ENDMDL
MODEL 2
REMARK VINA RESULT:    -6.596      2.763      6.681
REMARK INTER + INTRA:         -10.982
REMARK INTER:                  -9.870
REMARK INTRA:                  -1.111
REMARK UNBOUND:                -0.916
REMARK  9 active torsions:
REMARK  status: ('A' for Active; 'I' for Inactive)
REMARK    1  A    between atoms: S_2  and  N_5 
REMARK    2  A    between atoms: C_7  and  C_8 
REMARK    3  A    between atoms: C_8  and  C_9 
REMARK    4  A    between atoms: C_9  and  C_15 
REMARK    5  A    between atoms: C_9  and  C_10 
REMARK    6  A    between atoms: C_10  and  C_11 
REMARK    7  A    between atoms: C_12  and  C_13 
REMARK    8  A    between atoms: C_15  and  C_16 
REMARK       I    between atoms: C_16  and  N_18 
REMARK    9  A    between atoms: N_18  and  C_20 
ROOT
HETATM    1  C   UNL     1       7.035  -3.596  22.130  1.00  0.00     0.109 C 
ENDROOT
BRANCH   1   2
HETATM    2  C   UNL     1       6.556  -2.455  21.894  1.00  0.00     0.011 C 
BRANCH   2   3
HETATM    3  C   UNL     1       6.311  -1.497  21.175  1.00  0.00     0.097 C 
HETATM    4  N   UNL     1       5.692  -0.823  20.442  1.00  0.00    -0.296 N 
ATOM      5  HN  UNL     1       4.712  -0.677  20.685  1.00  0.00     0.177 HD
BRANCH   4   6
HETATM    6  S   UNL     1       6.198  -0.110  19.112  1.00  0.00     0.226 S 
HETATM    7  C   UNL     1       5.220   1.393  18.963  1.00  0.00     0.186 C 
HETATM    8  O   UNL     1       7.548   0.319  19.155  1.00  0.00    -0.206 OA
HETATM    9  O   UNL     1       5.889  -0.913  17.943  1.00  0.00    -0.206 OA
ENDBRANCH   4   6
ENDBRANCH   2   3
ENDBRANCH   1   2
BRANCH   1  10
HETATM   10  C   UNL     1       8.025  -3.166  22.710  1.00  0.00    -0.071 C 
BRANCH  10  11
HETATM   11  C   UNL     1       9.033  -2.622  23.373  1.00  0.00     0.289 C 
HETATM   12  O   UNL     1       9.021  -2.840  24.485  1.00  0.00    -0.259 OA
HETATM   13  N   UNL     1       9.827  -1.943  22.541  1.00  0.00    -0.315 N 
ATOM     14  HN  UNL     1       9.661  -1.907  21.535  1.00  0.00     0.170 HD
BRANCH  13  15
HETATM   15  C   UNL     1      10.803  -1.345  23.093  1.00  0.00     0.068 A 
HETATM   16  C   UNL     1      12.054  -1.576  23.260  1.00  0.00     0.118 A 
HETATM   17  N   UNL     1      13.228  -1.299  23.635  1.00  0.00    -0.373 N 
HETATM   18  C   UNL     1      12.902  -0.180  24.096  1.00  0.00     0.089 A 
ATOM     19  HN  UNL     1      14.114  -1.801  23.583  1.00  0.00     0.164 HD
HETATM   20  C   UNL     1      11.864   0.441  24.166  1.00  0.00     0.038 A 
HETATM   21  C   UNL     1      10.642   0.063  23.717  1.00  0.00     0.040 A 
HETATM   22 BR   UNL     1       9.209   0.887  23.753  1.00  0.00    -0.049 Br
ENDBRANCH  13  15
ENDBRANCH  10  11
ENDBRANCH   1  10
BRANCH   1  23
HETATM   23  C   UNL     1       6.410  -4.951  22.750  1.00  0.00    -0.006 C 
BRANCH  23  24
HETATM   24  C   UNL     1       6.047  -5.090  23.841  1.00  0.00    -0.002 C 
HETATM   25  C   UNL     1       4.915  -5.420  24.340  1.00  0.00    -0.001 C 
BRANCH  25  26
HETATM   26  C   UNL     1       3.894  -5.643  23.316  1.00  0.00    -0.010 C 
HETATM   27  C   UNL     1       2.899  -5.570  23.323  1.00  0.00     0.011 C 
ENDBRANCH  25  26
ENDBRANCH  23  24
ENDBRANCH   1  23
TORSDOF 9
ENDMDL
MODEL 3
REMARK VINA RESULT:    -6.515      2.532      5.027
REMARK INTER + INTRA:         -10.859
REMARK INTER:                  -9.634
REMARK INTRA:                  -1.225
REMARK UNBOUND:                -0.916
REMARK  9 active torsions:
REMARK  status: ('A' for Active; 'I' for Inactive)
REMARK    1  A    between atoms: S_2  and  N_5 
REMARK    2  A    between atoms: C_7  and  C_8 
REMARK    3  A    between atoms: C_8  and  C_9 
REMARK    4  A    between atoms: C_9  and  C_15 
REMARK    5  A    between atoms: C_9  and  C_10 
REMARK    6  A    between atoms: C_10  and  C_11 
REMARK    7  A    between atoms: C_12  and  C_13 
REMARK    8  A    between atoms: C_15  and  C_16 
REMARK       I    between atoms: C_16  and  N_18 
REMARK    9  A    between atoms: N_18  and  C_20 
ROOT
HETATM    1  C   UNL     1       7.661  -2.559  24.586  1.00  0.00     0.109 C 
ENDROOT
BRANCH   1   2
HETATM    2  C   UNL     1       8.618  -1.847  24.993  1.00  0.00     0.011 C 
BRANCH   2   3
HETATM    3  C   UNL     1       9.677  -1.251  24.853  1.00  0.00     0.097 C 
HETATM    4  N   UNL     1      10.413  -0.339  24.841  1.00  0.00    -0.296 N 
ATOM      5  HN  UNL     1      10.354   0.295  25.638  1.00  0.00     0.177 HD
BRANCH   4   6
HETATM    6  S   UNL     1      11.490   0.030  23.731  1.00  0.00     0.226 S 
HETATM    7  C   UNL     1      11.889  -1.518  22.904  1.00  0.00     0.186 C 
HETATM    8  O   UNL     1      11.010   0.890  22.712  1.00  0.00    -0.206 OA
HETATM    9  O   UNL     1      12.724   0.495  24.338  1.00  0.00    -0.206 OA
ENDBRANCH   4   6
ENDBRANCH   2   3
ENDBRANCH   1   2
BRANCH   1  10
HETATM   10  C   UNL     1       7.655  -2.078  23.459  1.00  0.00    -0.071 C 
BRANCH  10  11
HETATM   11  C   UNL     1       7.613  -1.652  22.208  1.00  0.00     0.289 C 
HETATM   12  O   UNL     1       8.602  -1.736  21.660  1.00  0.00    -0.259 OA
HETATM   13  N   UNL     1       6.385  -1.225  21.902  1.00  0.00    -0.315 N 
ATOM     14  HN  UNL     1       5.609  -1.274  22.562  1.00  0.00     0.170 HD
BRANCH  13  15
HETATM   15  C   UNL     1       6.253  -0.752  20.729  1.00  0.00     0.068 A 
HETATM   16  C   UNL     1       5.815  -1.182  19.603  1.00  0.00     0.118 A 
HETATM   17  N   UNL     1       5.496  -1.079  18.384  1.00  0.00    -0.373 N 
HETATM   18  C   UNL     1       5.838   0.125  18.315  1.00  0.00     0.089 A 
ATOM     19  HN  UNL     1       5.105  -1.734  17.708  1.00  0.00     0.164 HD
HETATM   20  C   UNL     1       6.297   0.925  19.100  1.00  0.00     0.038 A 
HETATM   21  C   UNL     1       6.597   0.723  20.407  1.00  0.00     0.040 A 
HETATM   22 BR   UNL     1       7.186   1.788  21.527  1.00  0.00    -0.049 Br
ENDBRANCH  13  15
ENDBRANCH  10  11
ENDBRANCH   1  10
BRANCH   1  23
HETATM   23  C   UNL     1       7.355  -4.143  24.659  1.00  0.00    -0.006 C 
BRANCH  23  24
HETATM   24  C   UNL     1       6.329  -4.643  24.462  1.00  0.00    -0.002 C 
HETATM   25  C   UNL     1       5.857  -5.284  23.458  1.00  0.00    -0.001 C 
BRANCH  25  26
HETATM   26  C   UNL     1       6.812  -5.376  22.354  1.00  0.00    -0.010 C 
HETATM   27  C   UNL     1       6.935  -6.038  21.617  1.00  0.00     0.011 C 
ENDBRANCH  25  26
ENDBRANCH  23  24
ENDBRANCH   1  23
TORSDOF 9
ENDMDL
MODEL 4
REMARK VINA RESULT:    -6.450      1.980      2.255
REMARK INTER + INTRA:         -10.759
REMARK INTER:                  -9.509
REMARK INTRA:                  -1.250
REMARK UNBOUND:                -0.916
REMARK  9 active torsions:
REMARK  status: ('A' for Active; 'I' for Inactive)
REMARK    1  A    between atoms: S_2  and  N_5 
REMARK    2  A    between atoms: C_7  and  C_8 
REMARK    3  A    between atoms: C_8  and  C_9 
REMARK    4  A    between atoms: C_9  and  C_15 
REMARK    5  A    between atoms: C_9  and  C_10 
REMARK    6  A    between atoms: C_10  and  C_11 
REMARK    7  A    between atoms: C_12  and  C_13 
REMARK    8  A    between atoms: C_15  and  C_16 
REMARK       I    between atoms: C_16  and  N_18 
REMARK    9  A    between atoms: N_18  and  C_20 
ROOT
HETATM    1  C   UNL     1       9.826  -2.090  22.923  1.00  0.00     0.109 C 
ENDROOT
BRANCH   1   2
HETATM    2  C   UNL     1       9.164  -2.539  23.896  1.00  0.00     0.011 C 
BRANCH   2   3
HETATM    3  C   UNL     1       8.636  -3.433  24.544  1.00  0.00     0.097 C 
HETATM    4  N   UNL     1       8.297  -4.523  24.808  1.00  0.00    -0.296 N 
ATOM      5  HN  UNL     1       8.999  -5.253  24.690  1.00  0.00     0.177 HD
BRANCH   4   6
HETATM    6  S   UNL     1       6.871  -5.000  25.328  1.00  0.00     0.226 S 
HETATM    7  C   UNL     1       6.057  -3.520  25.947  1.00  0.00     0.186 C 
HETATM    8  O   UNL     1       6.018  -5.506  24.314  1.00  0.00    -0.206 OA
HETATM    9  O   UNL     1       7.005  -5.896  26.463  1.00  0.00    -0.206 OA
ENDBRANCH   4   6
ENDBRANCH   2   3
ENDBRANCH   1   2
BRANCH   1  10
HETATM   10  C   UNL     1       8.843  -1.673  22.322  1.00  0.00    -0.071 C 
BRANCH  10  11
HETATM   11  C   UNL     1       7.824  -1.262  21.586  1.00  0.00     0.289 C 
HETATM   12  O   UNL     1       6.869  -1.849  21.756  1.00  0.00    -0.259 OA
HETATM   13  N   UNL     1       8.189  -0.235  20.815  1.00  0.00    -0.315 N 
ATOM     14  HN  UNL     1       9.125   0.169  20.850  1.00  0.00     0.170 HD
BRANCH  13  15
HETATM   15  C   UNL     1       7.286   0.204  20.034  1.00  0.00     0.068 A 
HETATM   16  C   UNL     1       6.865  -0.081  18.857  1.00  0.00     0.118 A 
HETATM   17  N   UNL     1       6.097   0.029  17.859  1.00  0.00    -0.373 N 
HETATM   18  C   UNL     1       5.415   0.941  18.384  1.00  0.00     0.089 A 
ATOM     19  HN  UNL     1       6.049  -0.448  16.959  1.00  0.00     0.164 HD
HETATM   20  C   UNL     1       5.445   1.520  19.448  1.00  0.00     0.038 A 
HETATM   21  C   UNL     1       6.309   1.321  20.474  1.00  0.00     0.040 A 
HETATM   22 BR   UNL     1       6.367   2.054  21.955  1.00  0.00    -0.049 Br
ENDBRANCH  13  15
ENDBRANCH  10  11
ENDBRANCH   1  10
BRANCH   1  23
HETATM   23  C   UNL     1      11.142  -1.159  22.818  1.00  0.00    -0.006 C 
BRANCH  23  24
HETATM   24  C   UNL     1      11.797  -0.811  23.707  1.00  0.00    -0.002 C 
HETATM   25  C   UNL     1      11.837   0.278  24.380  1.00  0.00    -0.001 C 
BRANCH  25  26
HETATM   26  C   UNL     1      10.868   1.266  23.902  1.00  0.00    -0.010 C 
HETATM   27  C   UNL     1      10.172   1.811  24.365  1.00  0.00     0.011 C 
ENDBRANCH  25  26
ENDBRANCH  23  24
ENDBRANCH   1  23
TORSDOF 9
ENDMDL
MODEL 5
REMARK VINA RESULT:    -6.327     14.508     16.188
REMARK INTER + INTRA:         -10.572
REMARK INTER:                  -9.334
REMARK INTRA:                  -1.239
REMARK UNBOUND:                -0.916
REMARK  9 active torsions:
REMARK  status: ('A' for Active; 'I' for Inactive)
REMARK    1  A    between atoms: S_2  and  N_5 
REMARK    2  A    between atoms: C_7  and  C_8 
REMARK    3  A    between atoms: C_8  and  C_9 
REMARK    4  A    between atoms: C_9  and  C_15 
REMARK    5  A    between atoms: C_9  and  C_10 
REMARK    6  A    between atoms: C_10  and  C_11 
REMARK    7  A    between atoms: C_12  and  C_13 
REMARK    8  A    between atoms: C_15  and  C_16 
REMARK       I    between atoms: C_16  and  N_18 
REMARK    9  A    between atoms: N_18  and  C_20 
ROOT
HETATM    1  C   UNL     1      24.131  -1.870  23.653  1.00  0.00     0.109 C 
ENDROOT
BRANCH   1   2
HETATM    2  C   UNL     1      24.077  -3.126  23.742  1.00  0.00     0.011 C 
BRANCH   2   3
HETATM    3  C   UNL     1      24.443  -4.211  24.173  1.00  0.00     0.097 C 
HETATM    4  N   UNL     1      24.677  -5.359  24.156  1.00  0.00    -0.296 N 
ATOM      5  HN  UNL     1      25.179  -5.704  23.338  1.00  0.00     0.177 HD
BRANCH   4   6
HETATM    6  S   UNL     1      24.303  -6.445  25.258  1.00  0.00     0.226 S 
HETATM    7  C   UNL     1      25.863  -6.936  26.008  1.00  0.00     0.186 C 
HETATM    8  O   UNL     1      23.510  -5.950  26.323  1.00  0.00    -0.206 OA
HETATM    9  O   UNL     1      23.755  -7.641  24.643  1.00  0.00    -0.206 OA
ENDBRANCH   4   6
ENDBRANCH   2   3
ENDBRANCH   1   2
BRANCH   1  10
HETATM   10  C   UNL     1      23.613  -1.831  22.542  1.00  0.00    -0.071 C 
BRANCH  10  11
HETATM   11  C   UNL     1      23.153  -1.785  21.303  1.00  0.00     0.289 C 
HETATM   12  O   UNL     1      22.029  -1.912  21.226  1.00  0.00    -0.259 OA
HETATM   13  N   UNL     1      24.153  -1.593  20.440  1.00  0.00    -0.315 N 
ATOM     14  HN  UNL     1      25.119  -1.466  20.742  1.00  0.00     0.170 HD
BRANCH  13  15
HETATM   15  C   UNL     1      23.816  -1.578  19.214  1.00  0.00     0.068 A 
HETATM   16  C   UNL     1      23.341  -0.711  18.397  1.00  0.00     0.118 A 
HETATM   17  N   UNL     1      22.957  -0.294  17.267  1.00  0.00    -0.373 N 
HETATM   18  C   UNL     1      23.185  -1.387  16.698  1.00  0.00     0.089 A 
ATOM     19  HN  UNL     1      22.596   0.602  16.940  1.00  0.00     0.164 HD
HETATM   20  C   UNL     1      23.617  -2.460  17.058  1.00  0.00     0.038 A 
HETATM   21  C   UNL     1      24.021  -2.813  18.303  1.00  0.00     0.040 A 
HETATM   22 BR   UNL     1      24.653  -4.245  18.836  1.00  0.00    -0.049 Br
ENDBRANCH  13  15
ENDBRANCH  10  11
ENDBRANCH   1  10
BRANCH   1  23
HETATM   23  C   UNL     1      23.707  -0.673  24.651  1.00  0.00    -0.006 C 
BRANCH  23  24
HETATM   24  C   UNL     1      22.897   0.128  24.441  1.00  0.00    -0.002 C 
HETATM   25  C   UNL     1      21.672   0.234  24.798  1.00  0.00    -0.001 C 
BRANCH  25  26
HETATM   26  C   UNL     1      21.228  -0.895  25.617  1.00  0.00    -0.010 C 
HETATM   27  C   UNL     1      20.526  -1.592  25.486  1.00  0.00     0.011 C 
ENDBRANCH  25  26
ENDBRANCH  23  24
ENDBRANCH   1  23
TORSDOF 9
ENDMDL
MODEL 6
REMARK VINA RESULT:    -6.307      3.612      7.346
REMARK INTER + INTRA:         -10.541
REMARK INTER:                  -9.341
REMARK INTRA:                  -1.200
REMARK UNBOUND:                -0.916
REMARK  9 active torsions:
REMARK  status: ('A' for Active; 'I' for Inactive)
REMARK    1  A    between atoms: S_2  and  N_5 
REMARK    2  A    between atoms: C_7  and  C_8 
REMARK    3  A    between atoms: C_8  and  C_9 
REMARK    4  A    between atoms: C_9  and  C_15 
REMARK    5  A    between atoms: C_9  and  C_10 
REMARK    6  A    between atoms: C_10  and  C_11 
REMARK    7  A    between atoms: C_12  and  C_13 
REMARK    8  A    between atoms: C_15  and  C_16 
REMARK       I    between atoms: C_16  and  N_18 
REMARK    9  A    between atoms: N_18  and  C_20 
ROOT
HETATM    1  C   UNL     1       7.985  -0.002  20.579  1.00  0.00     0.109 C 
ENDROOT
BRANCH   1   2
HETATM    2  C   UNL     1       8.315   1.033  21.217  1.00  0.00     0.011 C 
BRANCH   2   3
HETATM    3  C   UNL     1       9.102   1.732  21.841  1.00  0.00     0.097 C 
HETATM    4  N   UNL     1      10.126   2.236  22.107  1.00  0.00    -0.296 N 
ATOM      5  HN  UNL     1      10.644   2.642  21.328  1.00  0.00     0.177 HD
BRANCH   4   6
HETATM    6  S   UNL     1      10.807   2.360  23.540  1.00  0.00     0.226 S 
HETATM    7  C   UNL     1       9.472   2.176  24.732  1.00  0.00     0.186 C 
HETATM    8  O   UNL     1      11.729   1.327  23.842  1.00  0.00    -0.206 OA
HETATM    9  O   UNL     1      11.351   3.691  23.743  1.00  0.00    -0.206 OA
ENDBRANCH   4   6
ENDBRANCH   2   3
ENDBRANCH   1   2
BRANCH   1  10
HETATM   10  C   UNL     1       8.285  -0.772  21.483  1.00  0.00    -0.071 C 
BRANCH  10  11
HETATM   11  C   UNL     1       8.664  -1.659  22.388  1.00  0.00     0.289 C 
HETATM   12  O   UNL     1       9.764  -1.927  22.335  1.00  0.00    -0.259 OA
HETATM   13  N   UNL     1       7.630  -2.016  23.154  1.00  0.00    -0.315 N 
ATOM     14  HN  UNL     1       6.702  -1.607  23.045  1.00  0.00     0.170 HD
BRANCH  13  15
HETATM   15  C   UNL     1       7.885  -2.902  24.030  1.00  0.00     0.068 A 
HETATM   16  C   UNL     1       8.284  -2.908  25.249  1.00  0.00     0.118 A 
HETATM   17  N   UNL     1       8.583  -3.448  26.352  1.00  0.00    -0.373 N 
HETATM   18  C   UNL     1       8.344  -4.608  25.940  1.00  0.00     0.089 A 
ATOM     19  HN  UNL     1       8.900  -3.077  27.247  1.00  0.00     0.164 HD
HETATM   20  C   UNL     1       7.962  -5.075  24.889  1.00  0.00     0.038 A 
HETATM   21  C   UNL     1       7.650  -4.407  23.751  1.00  0.00     0.040 A 
HETATM   22 BR   UNL     1       7.088  -4.991  22.310  1.00  0.00    -0.049 Br
ENDBRANCH  13  15
ENDBRANCH  10  11
ENDBRANCH   1  10
BRANCH   1  23
HETATM   23  C   UNL     1       6.666  -0.407  19.739  1.00  0.00    -0.006 C 
BRANCH  23  24
HETATM   24  C   UNL     1       6.363   0.021  18.707  1.00  0.00    -0.002 C 
HETATM   25  C   UNL     1       5.526   0.926  18.356  1.00  0.00    -0.001 C 
BRANCH  25  26
HETATM   26  C   UNL     1       4.816   1.504  19.498  1.00  0.00    -0.010 C 
HETATM   27  C   UNL     1       3.971   2.029  19.575  1.00  0.00     0.011 C 
ENDBRANCH  25  26
ENDBRANCH  23  24
ENDBRANCH   1  23
TORSDOF 9
ENDMDL
MODEL 7
REMARK VINA RESULT:    -6.245     24.111     27.413
REMARK INTER + INTRA:         -10.446
REMARK INTER:                  -9.114
REMARK INTRA:                  -1.332
REMARK UNBOUND:                -0.916
REMARK  9 active torsions:
REMARK  status: ('A' for Active; 'I' for Inactive)
REMARK    1  A    between atoms: S_2  and  N_5 
REMARK    2  A    between atoms: C_7  and  C_8 
REMARK    3  A    between atoms: C_8  and  C_9 
REMARK    4  A    between atoms: C_9  and  C_15 
REMARK    5  A    between atoms: C_9  and  C_10 
REMARK    6  A    between atoms: C_10  and  C_11 
REMARK    7  A    between atoms: C_12  and  C_13 
REMARK    8  A    between atoms: C_15  and  C_16 
REMARK       I    between atoms: C_16  and  N_18 
REMARK    9  A    between atoms: N_18  and  C_20 
ROOT
HETATM    1  C   UNL     1       8.564  17.265   1.334  1.00  0.00     0.109 C 
ENDROOT
BRANCH   1   2
HETATM    2  C   UNL     1       8.986  16.083   1.444  1.00  0.00     0.011 C 
BRANCH   2   3
HETATM    3  C   UNL     1       8.955  14.945   1.891  1.00  0.00     0.097 C 
HETATM    4  N   UNL     1       8.551  13.857   2.054  1.00  0.00    -0.296 N 
ATOM      5  HN  UNL     1       8.260  13.355   1.215  1.00  0.00     0.177 HD
BRANCH   4   6
HETATM    6  S   UNL     1       8.403  13.069   3.429  1.00  0.00     0.226 S 
HETATM    7  C   UNL     1       7.257  14.035   4.424  1.00  0.00     0.186 C 
HETATM    8  O   UNL     1       7.811  11.786   3.307  1.00  0.00    -0.206 OA
HETATM    9  O   UNL     1       9.659  13.053   4.156  1.00  0.00    -0.206 OA
ENDBRANCH   4   6
ENDBRANCH   2   3
ENDBRANCH   1   2
BRANCH   1  10
HETATM   10  C   UNL     1       9.050  17.639   2.395  1.00  0.00    -0.071 C 
BRANCH  10  11
HETATM   11  C   UNL     1       9.613  18.127   3.489  1.00  0.00     0.289 C 
HETATM   12  O   UNL     1       8.970  18.032   4.417  1.00  0.00    -0.259 OA
HETATM   13  N   UNL     1      10.825  18.614   3.212  1.00  0.00    -0.315 N 
ATOM     14  HN  UNL     1      11.235  18.562   2.280  1.00  0.00     0.170 HD
BRANCH  13  15
HETATM   15  C   UNL     1      11.431  19.148   4.194  1.00  0.00     0.068 A 
HETATM   16  C   UNL     1      12.163  18.735   5.163  1.00  0.00     0.118 A 
HETATM   17  N   UNL     1      12.900  18.876   6.180  1.00  0.00    -0.373 N 
HETATM   18  C   UNL     1      12.795  20.125   6.183  1.00  0.00     0.089 A 
ATOM     19  HN  UNL     1      13.398  18.216   6.777  1.00  0.00     0.164 HD
HETATM   20  C   UNL     1      12.219  20.931   5.485  1.00  0.00     0.038 A 
HETATM   21  C   UNL     1      11.453  20.684   4.394  1.00  0.00     0.040 A 
HETATM   22 BR   UNL     1      10.682  21.746   3.389  1.00  0.00    -0.049 Br
ENDBRANCH  13  15
ENDBRANCH  10  11
ENDBRANCH   1  10
BRANCH   1  23
HETATM   23  C   UNL     1       8.611  18.349   0.137  1.00  0.00    -0.006 C 
BRANCH  23  24
HETATM   24  C   UNL     1       7.785  19.122  -0.108  1.00  0.00    -0.002 C 
HETATM   25  C   UNL     1       7.817  20.384  -0.326  1.00  0.00    -0.001 C 
BRANCH  25  26
HETATM   26  C   UNL     1       9.169  20.934  -0.225  1.00  0.00    -0.010 C 
HETATM   27  C   UNL     1       9.523  21.868  -0.226  1.00  0.00     0.011 C 
ENDBRANCH  25  26
ENDBRANCH  23  24
ENDBRANCH   1  23
TORSDOF 9
ENDMDL
MODEL 8
REMARK VINA RESULT:    -6.204      1.695      2.175
REMARK INTER + INTRA:         -10.383
REMARK INTER:                  -9.155
REMARK INTRA:                  -1.228
REMARK UNBOUND:                -0.916
REMARK  9 active torsions:
REMARK  status: ('A' for Active; 'I' for Inactive)
REMARK    1  A    between atoms: S_2  and  N_5 
REMARK    2  A    between atoms: C_7  and  C_8 
REMARK    3  A    between atoms: C_8  and  C_9 
REMARK    4  A    between atoms: C_9  and  C_15 
REMARK    5  A    between atoms: C_9  and  C_10 
REMARK    6  A    between atoms: C_10  and  C_11 
REMARK    7  A    between atoms: C_12  and  C_13 
REMARK    8  A    between atoms: C_15  and  C_16 
REMARK       I    between atoms: C_16  and  N_18 
REMARK    9  A    between atoms: N_18  and  C_20 
ROOT
HETATM    1  C   UNL     1       9.823  -1.557  22.143  1.00  0.00     0.109 C 
ENDROOT
BRANCH   1   2
HETATM    2  C   UNL     1       8.932  -2.275  22.671  1.00  0.00     0.011 C 
BRANCH   2   3
HETATM    3  C   UNL     1       8.230  -3.274  22.743  1.00  0.00     0.097 C 
HETATM    4  N   UNL     1       7.809  -4.326  22.442  1.00  0.00    -0.296 N 
ATOM      5  HN  UNL     1       8.502  -5.035  22.203  1.00  0.00     0.177 HD
BRANCH   4   6
HETATM    6  S   UNL     1       6.286  -4.779  22.361  1.00  0.00     0.226 S 
HETATM    7  C   UNL     1       5.326  -3.365  22.923  1.00  0.00     0.186 C 
HETATM    8  O   UNL     1       5.826  -5.052  21.048  1.00  0.00    -0.206 OA
HETATM    9  O   UNL     1       6.013  -5.853  23.299  1.00  0.00    -0.206 OA
ENDBRANCH   4   6
ENDBRANCH   2   3
ENDBRANCH   1   2
BRANCH   1  10
HETATM   10  C   UNL     1       9.038  -0.698  21.758  1.00  0.00    -0.071 C 
BRANCH  10  11
HETATM   11  C   UNL     1       8.263   0.255  21.269  1.00  0.00     0.289 C 
HETATM   12  O   UNL     1       8.824   1.191  20.962  1.00  0.00    -0.259 OA
HETATM   13  N   UNL     1       6.987  -0.140  21.259  1.00  0.00    -0.315 N 
ATOM     14  HN  UNL     1       6.701  -1.071  21.562  1.00  0.00     0.170 HD
BRANCH  13  15
HETATM   15  C   UNL     1       6.154   0.728  20.846  1.00  0.00     0.068 A 
HETATM   16  C   UNL     1       5.636   1.805  21.310  1.00  0.00     0.118 A 
HETATM   17  N   UNL     1       4.923   2.847  21.256  1.00  0.00    -0.373 N 
HETATM   18  C   UNL     1       4.543   2.622  20.083  1.00  0.00     0.089 A 
ATOM     19  HN  UNL     1       4.729   3.596  21.921  1.00  0.00     0.164 HD
HETATM   20  C   UNL     1       4.761   1.749  19.271  1.00  0.00     0.038 A 
HETATM   21  C   UNL     1       5.561   0.664  19.418  1.00  0.00     0.040 A 
HETATM   22 BR   UNL     1       5.921  -0.530  18.332  1.00  0.00    -0.049 Br
ENDBRANCH  13  15
ENDBRANCH  10  11
ENDBRANCH   1  10
BRANCH   1  23
HETATM   23  C   UNL     1      11.247  -1.002  22.665  1.00  0.00    -0.006 C 
BRANCH  23  24
HETATM   24  C   UNL     1      11.579  -0.928  23.773  1.00  0.00    -0.002 C 
HETATM   25  C   UNL     1      11.631   0.051  24.597  1.00  0.00    -0.001 C 
BRANCH  25  26
HETATM   26  C   UNL     1      11.196   1.312  23.996  1.00  0.00    -0.010 C 
HETATM   27  C   UNL     1      10.434   1.928  24.188  1.00  0.00     0.011 C 
ENDBRANCH  25  26
ENDBRANCH  23  24
ENDBRANCH   1  23
TORSDOF 9
ENDMDL
MODEL 9
REMARK VINA RESULT:    -5.833      2.726      6.242
REMARK INTER + INTRA:          -9.818
REMARK INTER:                  -8.735
REMARK INTRA:                  -1.083
REMARK UNBOUND:                -0.916
REMARK  9 active torsions:
REMARK  status: ('A' for Active; 'I' for Inactive)
REMARK    1  A    between atoms: S_2  and  N_5 
REMARK    2  A    between atoms: C_7  and  C_8 
REMARK    3  A    between atoms: C_8  and  C_9 
REMARK    4  A    between atoms: C_9  and  C_15 
REMARK    5  A    between atoms: C_9  and  C_10 
REMARK    6  A    between atoms: C_10  and  C_11 
REMARK    7  A    between atoms: C_12  and  C_13 
REMARK    8  A    between atoms: C_15  and  C_16 
REMARK       I    between atoms: C_16  and  N_18 
REMARK    9  A    between atoms: N_18  and  C_20 
ROOT
HETATM    1  C   UNL     1       7.755   1.035  21.021  1.00  0.00     0.109 C 
ENDROOT
BRANCH   1   2
HETATM    2  C   UNL     1       8.792   1.003  21.737  1.00  0.00     0.011 C 
BRANCH   2   3
HETATM    3  C   UNL     1       9.856   0.525  22.104  1.00  0.00     0.097 C 
HETATM    4  N   UNL     1      10.847  -0.097  22.030  1.00  0.00    -0.296 N 
ATOM      5  HN  UNL     1      11.388   0.021  21.173  1.00  0.00     0.177 HD
BRANCH   4   6
HETATM    6  S   UNL     1      11.448  -1.104  23.104  1.00  0.00     0.226 S 
HETATM    7  C   UNL     1      12.209  -0.074  24.367  1.00  0.00     0.186 C 
HETATM    8  O   UNL     1      10.477  -1.882  23.784  1.00  0.00    -0.206 OA
HETATM    9  O   UNL     1      12.518  -1.899  22.529  1.00  0.00    -0.206 OA
ENDBRANCH   4   6
ENDBRANCH   2   3
ENDBRANCH   1   2
BRANCH   1  10
HETATM   10  C   UNL     1       7.414  -0.110  21.295  1.00  0.00    -0.071 C 
BRANCH  10  11
HETATM   11  C   UNL     1       6.957  -1.328  21.537  1.00  0.00     0.289 C 
HETATM   12  O   UNL     1       6.116  -1.648  20.847  1.00  0.00    -0.259 OA
HETATM   13  N   UNL     1       7.621  -1.882  22.555  1.00  0.00    -0.315 N 
ATOM     14  HN  UNL     1       8.393  -1.410  23.026  1.00  0.00     0.170 HD
BRANCH  13  15
HETATM   15  C   UNL     1       7.223  -3.041  22.894  1.00  0.00     0.068 A 
HETATM   16  C   UNL     1       7.488  -4.247  22.549  1.00  0.00     0.118 A 
HETATM   17  N   UNL     1       7.398  -5.505  22.626  1.00  0.00    -0.373 N 
HETATM   18  C   UNL     1       6.568  -5.468  23.565  1.00  0.00     0.089 A 
ATOM     19  HN  UNL     1       7.838  -6.269  22.114  1.00  0.00     0.164 HD
HETATM   20  C   UNL     1       6.035  -4.579  24.193  1.00  0.00     0.038 A 
HETATM   21  C   UNL     1       6.208  -3.242  24.046  1.00  0.00     0.040 A 
HETATM   22 BR   UNL     1       5.538  -1.996  24.901  1.00  0.00    -0.049 Br
ENDBRANCH  13  15
ENDBRANCH  10  11
ENDBRANCH   1  10
BRANCH   1  23
HETATM   23  C   UNL     1       6.546   2.095  20.875  1.00  0.00    -0.006 C 
BRANCH  23  24
HETATM   24  C   UNL     1       5.430   1.831  20.716  1.00  0.00    -0.002 C 
HETATM   25  C   UNL     1       4.769   1.444  19.689  1.00  0.00    -0.001 C 
BRANCH  25  26
HETATM   26  C   UNL     1       5.606   1.337  18.494  1.00  0.00    -0.010 C 
HETATM   27  C   UNL     1       5.773   0.596  17.847  1.00  0.00     0.011 C 
ENDBRANCH  25  26
ENDBRANCH  23  24
ENDBRANCH   1  23
TORSDOF 9
ENDMDL
