stable:False satoms:6 tatoms:24 sratio:0.25
  -OEChem-08062412533D

 40 42  0     1  0  0  0  0  0999 V2000
    6.1589   -5.0444   26.2610 C   0  0  0  0  0  0  0  0  0  0  0  0
    7.9048   -4.4638   26.0809 S   0  0  0  0  0  0  0  0  0  0  0  0
    8.7310   -5.6202   26.0376 O   0  0  0  0  0  0  0  0  0  0  0  0
    8.1653   -3.5640   27.1546 O   0  0  0  0  0  0  0  0  0  0  0  0
    7.9094   -3.7169   24.6009 N   0  0  0  0  0  0  0  0  0  0  0  0
    8.7417   -3.0692   24.2046 C   0  0  0  0  0  0  0  0  0  0  0  0
    9.2999   -2.0828   23.6195 C   0  0  0  0  0  0  0  0  0  0  0  0
   10.3010   -1.2350   23.5164 C   0  0  1  0  0  0  0  0  0  0  0  0
   10.8811   -0.2129   24.6506 C   0  0  0  0  0  0  0  0  0  0  0  0
   11.9422    0.0738   24.6583 C   0  0  0  0  0  0  0  0  0  0  0  0
   12.9664   -0.3173   23.9991 C   0  0  0  0  0  0  0  0  0  0  0  0
   12.6705   -1.3963   23.0962 C   0  0  0  0  0  0  0  0  0  0  0  0
   11.7154   -1.8313   22.9205 C   0  0  0  0  0  0  0  0  0  0  0  0
    9.6034   -0.8134   22.6347 C   0  0  3  0  0  0  0  0  0  0  0  0
    9.0844   -0.0413   21.5602 C   0  0  0  0  0  0  0  0  0  0  0  0
    9.6247    0.9213   21.2133 O   0  0  0  0  0  0  0  0  0  0  0  0
    7.9865   -0.6465   21.1728 N   0  0  0  0  0  0  0  0  0  0  0  0
    7.3068   -0.1637   20.2154 C   0  0  0  0  0  0  0  0  0  0  0  0
    7.4102   -0.0579   18.9557 C   0  0  0  0  0  0  0  0  0  0  0  0
    7.0419    0.3168   17.7783 N   0  0  0  0  0  0  0  0  0  0  0  0
    5.9590    0.8167   18.2399 C   0  0  0  0  0  0  0  0  0  0  0  0
    5.4371    0.9399   19.3330 C   0  0  0  0  0  0  0  0  0  0  0  0
    5.9434    0.5197   20.4838 C   0  0  0  0  0  0  0  0  0  0  0  0
    5.2800    0.6391   21.9278 Cl  0  0  0  0  0  0  0  0  0  0  0  0
    6.0418   -5.5625   27.2243 H   0  0  0  0  0  0  0  0  0  0  0  0
    5.4796   -4.1800   26.2248 H   0  0  0  0  0  0  0  0  0  0  0  0
    5.9163   -5.7361   25.4409 H   0  0  0  0  0  0  0  0  0  0  0  0
    7.0944   -3.1376   24.5927 H   0  0  0  0  0  0  0  0  0  0  0  0
    9.6063   -3.6389   24.5118 H   0  0  0  0  0  0  0  0  0  0  0  0
   10.2148    0.1856   25.4013 H   0  0  0  0  0  0  0  0  0  0  0  0
   12.1679    0.8504   25.3741 H   0  0  0  0  0  0  0  0  0  0  0  0
   13.9492    0.1169   24.1091 H   0  0  0  0  0  0  0  0  0  0  0  0
   13.5008   -1.8065   22.5407 H   0  0  0  0  0  0  0  0  0  0  0  0
   11.5934   -1.8478   21.8274 H   0  0  0  0  0  0  0  0  0  0  0  0
   11.7850   -2.8624   23.2973 H   0  0  0  0  0  0  0  0  0  0  0  0
   10.0981   -1.4847   21.9174 H   0  0  0  0  0  0  0  0  0  0  0  0
    7.6866   -1.4841   21.6295 H   0  0  0  0  0  0  0  0  0  0  0  0
    8.3344   -0.5792   18.7544 H   0  0  0  0  0  0  0  0  0  0  0  0
    5.3485    1.2397   17.4559 H   0  0  0  0  0  0  0  0  0  0  0  0
    4.4778    1.4348   19.3681 H   0  0  0  0  0  0  0  0  0  0  0  0
 20 21  2  0  0  0  0
 19 20  1  0  0  0  0
 21 22  1  0  0  0  0
 18 19  2  0  0  0  0
 22 23  2  0  0  0  0
 18 23  1  0  0  0  0
 17 18  1  0  0  0  0
 23 24  1  0  0  0  0
 15 16  2  0  0  0  0
 15 17  1  0  0  0  0
 14 15  1  0  0  0  0
  8 14  1  0  0  0  0
  7 14  1  0  0  0  0
 12 13  1  0  0  0  0
  8 13  1  0  0  0  0
 11 12  2  0  0  0  0
  7  8  1  0  0  0  0
  8  9  1  0  0  0  0
  6  7  2  0  0  0  0
 10 11  1  0  0  0  0
  5  6  1  0  0  0  0
  9 10  2  0  0  0  0
  2  5  1  0  0  0  0
  2  3  2  0  0  0  0
  1  2  1  0  0  0  0
  2  4  2  0  0  0  0
  1 25  1  0  0  0  0
  1 26  1  0  0  0  0
  1 27  1  0  0  0  0
  5 28  1  0  0  0  0
  6 29  1  0  0  0  0
  9 30  1  0  0  0  0
 10 31  1  0  0  0  0
 11 32  1  0  0  0  0
 12 33  1  0  0  0  0
 13 34  1  0  0  0  0
 13 35  1  0  0  0  0
 14 36  1  0  0  0  0
 17 37  1  0  0  0  0
 19 38  1  0  0  0  0
 21 39  1  0  0  0  0
 22 40  1  0  0  0  0
M  END
> <Chemgauss4>
-13.488421

$$$$
