stable:False satoms:6 tatoms:24 sratio:0.25
  -OEChem-08062412533D

 40 42  0     1  0  0  0  0  0999 V2000
   -6.1155   -4.8008  -26.2868 C   0  0  0  0  0  0  0  0  0  0  0  0
   -7.8613   -4.2201  -26.1067 S   0  0  0  0  0  0  0  0  0  0  0  0
   -8.6875   -5.3765  -26.0634 O   0  0  0  0  0  0  0  0  0  0  0  0
   -8.1218   -3.3204  -27.1804 O   0  0  0  0  0  0  0  0  0  0  0  0
   -7.8659   -3.4733  -24.6267 N   0  0  0  0  0  0  0  0  0  0  0  0
   -8.6982   -2.8256  -24.2304 C   0  0  0  0  0  0  0  0  0  0  0  0
   -9.2564   -1.8392  -23.6453 C   0  0  0  0  0  0  0  0  0  0  0  0
  -10.2575   -0.9913  -23.5422 C   0  0  1  0  0  0  0  0  0  0  0  0
  -10.8376    0.0307  -24.6764 C   0  0  0  0  0  0  0  0  0  0  0  0
  -11.8987    0.3175  -24.6841 C   0  0  0  0  0  0  0  0  0  0  0  0
  -12.9230   -0.0737  -24.0249 C   0  0  0  0  0  0  0  0  0  0  0  0
  -12.6270   -1.1527  -23.1221 C   0  0  0  0  0  0  0  0  0  0  0  0
  -11.6719   -1.5877  -22.9463 C   0  0  0  0  0  0  0  0  0  0  0  0
   -9.5599   -0.5698  -22.6605 C   0  0  3  0  0  0  0  0  0  0  0  0
   -9.0409    0.2024  -21.5860 C   0  0  0  0  0  0  0  0  0  0  0  0
   -9.5812    1.1650  -21.2391 O   0  0  0  0  0  0  0  0  0  0  0  0
   -7.9430   -0.4029  -21.1986 N   0  0  0  0  0  0  0  0  0  0  0  0
   -7.2634    0.0799  -20.2412 C   0  0  0  0  0  0  0  0  0  0  0  0
   -7.3667    0.1858  -18.9815 C   0  0  0  0  0  0  0  0  0  0  0  0
   -6.9984    0.5605  -17.8041 N   0  0  0  0  0  0  0  0  0  0  0  0
   -5.9156    1.0603  -18.2657 C   0  0  0  0  0  0  0  0  0  0  0  0
   -5.3936    1.1835  -19.3588 C   0  0  0  0  0  0  0  0  0  0  0  0
   -5.8999    0.7633  -20.5096 C   0  0  0  0  0  0  0  0  0  0  0  0
   -5.2365    0.8828  -21.9536 Cl  0  0  0  0  0  0  0  0  0  0  0  0
   -5.9984   -5.3189  -27.2501 H   0  0  0  0  0  0  0  0  0  0  0  0
   -5.4361   -3.9364  -26.2506 H   0  0  0  0  0  0  0  0  0  0  0  0
   -5.8728   -5.4925  -25.4667 H   0  0  0  0  0  0  0  0  0  0  0  0
   -7.0509   -2.8939  -24.6185 H   0  0  0  0  0  0  0  0  0  0  0  0
   -9.5628   -3.3953  -24.5376 H   0  0  0  0  0  0  0  0  0  0  0  0
  -10.1713    0.4293  -25.4271 H   0  0  0  0  0  0  0  0  0  0  0  0
  -12.1245    1.0941  -25.3999 H   0  0  0  0  0  0  0  0  0  0  0  0
  -13.9057    0.3605  -24.1349 H   0  0  0  0  0  0  0  0  0  0  0  0
  -13.4574   -1.5629  -22.5665 H   0  0  0  0  0  0  0  0  0  0  0  0
  -11.5499   -1.6042  -21.8532 H   0  0  0  0  0  0  0  0  0  0  0  0
  -11.7415   -2.6188  -23.3231 H   0  0  0  0  0  0  0  0  0  0  0  0
  -10.0546   -1.2411  -21.9432 H   0  0  0  0  0  0  0  0  0  0  0  0
   -7.6431   -1.2405  -21.6553 H   0  0  0  0  0  0  0  0  0  0  0  0
   -8.2909   -0.3355  -18.7802 H   0  0  0  0  0  0  0  0  0  0  0  0
   -5.3050    1.4834  -17.4818 H   0  0  0  0  0  0  0  0  0  0  0  0
   -4.4343    1.6784  -19.3939 H   0  0  0  0  0  0  0  0  0  0  0  0
 20 21  2  0  0  0  0
 19 20  1  0  0  0  0
 21 22  1  0  0  0  0
 18 19  2  0  0  0  0
 22 23  2  0  0  0  0
 18 23  1  0  0  0  0
 17 18  1  0  0  0  0
 23 24  1  0  0  0  0
 15 16  2  0  0  0  0
 15 17  1  0  0  0  0
 14 15  1  0  0  0  0
  8 14  1  0  0  0  0
  7 14  1  0  0  0  0
 12 13  1  0  0  0  0
  8 13  1  0  0  0  0
 11 12  2  0  0  0  0
  7  8  1  0  0  0  0
  8  9  1  0  0  0  0
  6  7  2  0  0  0  0
 10 11  1  0  0  0  0
  5  6  1  0  0  0  0
  9 10  2  0  0  0  0
  2  5  1  0  0  0  0
  2  3  2  0  0  0  0
  1  2  1  0  0  0  0
  2  4  2  0  0  0  0
  1 25  1  0  0  0  0
  1 26  1  0  0  0  0
  1 27  1  0  0  0  0
  5 28  1  0  0  0  0
  6 29  1  0  0  0  0
  9 30  1  0  0  0  0
 10 31  1  0  0  0  0
 11 32  1  0  0  0  0
 12 33  1  0  0  0  0
 13 34  1  0  0  0  0
 13 35  1  0  0  0  0
 14 36  1  0  0  0  0
 17 37  1  0  0  0  0
 19 38  1  0  0  0  0
 21 39  1  0  0  0  0
 22 40  1  0  0  0  0
M  END
> <Chemgauss4>
-13.018244

$$$$
