stable:False satoms:20 tatoms:24 sratio:0.8333333333333334
  -OEChem-08052420083D

 25 24  0     1  0  0  0  0  0999 V2000
    7.8199   -2.4540   22.7844 H   0  0  0  0  0  0  0  0  0  0  0  0
    6.2253   -3.7347   22.9637 N   0  0  0  0  0  0  0  0  0  0  0  0
    7.7811   -4.6426   21.5646 O   0  0  0  0  0  0  0  0  0  0  0  0
    8.2235   -5.1617   25.5510 H   0  0  0  0  0  0  0  0  0  0  0  0
    4.8594   -5.4830   26.3197 H   0  0  0  0  0  0  0  0  0  0  0  0
    4.5385   -6.0447   24.6380 H   0  0  0  0  0  0  0  0  0  0  0  0
    4.7854   -3.7876   23.2866 C   0  0  0  0  0  0  0  0  0  0  0  0
    4.9087   -3.0318   25.8289 C   0  0  0  0  0  0  0  0  0  0  0  0
    6.2879   -1.8381   22.0502 H   0  0  0  0  0  0  0  0  0  0  0  0
    6.3326   -5.2773   24.9323 O   0  0  0  0  0  0  0  0  0  0  0  0
    4.4045   -4.6407   22.7274 H   0  0  0  0  0  0  0  0  0  0  0  0
    5.6541   -4.3798   20.8373 O   0  5  0  0  0  0  0  0  0  0  0  0
    7.4740   -3.6271   25.1314 H   0  0  0  0  0  0  0  0  0  0  0  0
    6.5752   -4.2720   21.7065 C   0  0  0  0  0  0  0  0  0  0  0  0
    6.4782   -1.7988   23.8195 H   0  0  0  0  0  0  0  0  0  0  0  0
    4.2459   -2.9050   22.9497 H   0  0  0  0  0  0  0  0  0  0  0  0
    6.7359   -2.3592   22.9131 C   0  0  0  0  0  0  0  0  0  0  0  0
    4.3873   -3.9173   24.8365 C   0  0  2  0  0  0  0  0  0  0  0  0
    4.9852   -5.2709   25.2551 C   0  0  0  0  0  0  0  0  0  0  0  0
    3.2953   -3.9260   24.8885 H   0  0  0  0  0  0  0  0  0  0  0  0
    4.5468   -2.0109   25.6367 H   0  0  0  0  0  0  0  0  0  0  0  0
    7.2975   -4.5739   25.6520 C   0  0  0  0  0  0  0  0  0  0  0  0
    6.0080   -3.0443   25.7902 H   0  0  0  0  0  0  0  0  0  0  0  0
    7.0804   -4.4101   26.7106 H   0  0  0  0  0  0  0  0  0  0  0  0
    4.5731   -3.3583   26.8242 H   0  0  0  0  0  0  0  0  0  0  0  0
 18 20  1  0  0  0  0
  5 19  1  0  0  0  0
  6 19  1  0  0  0  0
  8 21  1  0  0  0  0
 18 19  1  0  0  0  0
 10 19  1  0  0  0  0
  8 18  1  0  0  0  0
  7 18  1  0  0  0  0
  8 23  1  0  0  0  0
  7 11  1  0  0  0  0
 10 22  1  0  0  0  0
  7 16  1  0  0  0  0
  2  7  1  0  0  0  0
 22 24  1  0  0  0  0
  4 22  1  0  0  0  0
 13 22  1  0  0  0  0
  2 14  1  0  0  0  0
  2 17  1  0  0  0  0
 12 14  1  0  0  0  0
 15 17  1  0  0  0  0
  3 14  2  0  0  0  0
  9 17  1  0  0  0  0
  1 17  1  0  0  0  0
  8 25  1  0  0  0  0
M  CHG  1  12  -1
M  END
> <Chemgauss4>
-4.451046

$$$$
