stable:False satoms:20 tatoms:24 sratio:0.8333333333333334
  -OEChem-08052420083D

 25 24  0     1  0  0  0  0  0999 V2000
   -5.5607   -5.4717  -23.8068 H   0  0  0  0  0  0  0  0  0  0  0  0
   -6.9732   -4.0518  -23.3555 N   0  0  0  0  0  0  0  0  0  0  0  0
   -5.6973   -4.4733  -21.5126 O   0  0  0  0  0  0  0  0  0  0  0  0
   -4.3514   -1.7964  -24.2291 H   0  0  0  0  0  0  0  0  0  0  0  0
   -7.4294   -0.4322  -25.0514 H   0  0  0  0  0  0  0  0  0  0  0  0
   -8.0675   -0.9244  -23.4397 H   0  0  0  0  0  0  0  0  0  0  0  0
   -8.2985   -3.5376  -23.7550 C   0  0  0  0  0  0  0  0  0  0  0  0
   -7.6786   -2.6498  -26.1793 C   0  0  0  0  0  0  0  0  0  0  0  0
   -7.2595   -6.0879  -23.8110 H   0  0  0  0  0  0  0  0  0  0  0  0
   -6.3173   -1.7019  -23.9161 O   0  0  0  0  0  0  0  0  0  0  0  0
   -8.7259   -3.1264  -22.8419 H   0  0  0  0  0  0  0  0  0  0  0  0
   -7.9459   -4.6927  -21.3789 O   0  5  0  0  0  0  0  0  0  0  0  0
   -5.2910   -3.0985  -24.9466 H   0  0  0  0  0  0  0  0  0  0  0  0
   -6.8676   -4.4433  -22.0038 C   0  0  0  0  0  0  0  0  0  0  0  0
   -6.6889   -5.1096  -25.1842 H   0  0  0  0  0  0  0  0  0  0  0  0
   -8.9654   -4.3218  -24.1071 H   0  0  0  0  0  0  0  0  0  0  0  0
   -6.5940   -5.2577  -24.1020 C   0  0  0  0  0  0  0  0  0  0  0  0
   -8.3352   -2.4418  -24.9277 C   0  0  2  0  0  0  0  0  0  0  0  0
   -7.5572   -1.2523  -24.3405 C   0  0  0  0  0  0  0  0  0  0  0  0
   -9.3851   -2.1905  -25.1004 H   0  0  0  0  0  0  0  0  0  0  0  0
   -8.1517   -3.4912  -26.7067 H   0  0  0  0  0  0  0  0  0  0  0  0
   -5.2752   -2.0154  -24.7876 C   0  0  0  0  0  0  0  0  0  0  0  0
   -6.6171   -2.8779  -26.0028 H   0  0  0  0  0  0  0  0  0  0  0  0
   -5.2665   -1.4750  -25.7376 H   0  0  0  0  0  0  0  0  0  0  0  0
   -7.7612   -1.7400  -26.7921 H   0  0  0  0  0  0  0  0  0  0  0  0
 18 20  1  0  0  0  0
  5 19  1  0  0  0  0
  6 19  1  0  0  0  0
  8 21  1  0  0  0  0
 18 19  1  0  0  0  0
 10 19  1  0  0  0  0
  8 18  1  0  0  0  0
  7 18  1  0  0  0  0
  8 23  1  0  0  0  0
  7 11  1  0  0  0  0
 10 22  1  0  0  0  0
  7 16  1  0  0  0  0
  2  7  1  0  0  0  0
 22 24  1  0  0  0  0
  4 22  1  0  0  0  0
 13 22  1  0  0  0  0
  2 14  1  0  0  0  0
  2 17  1  0  0  0  0
 12 14  1  0  0  0  0
 15 17  1  0  0  0  0
  3 14  2  0  0  0  0
  9 17  1  0  0  0  0
  1 17  1  0  0  0  0
  8 25  1  0  0  0  0
M  CHG  1  12  -1
M  END
> <Chemgauss4>
-4.655167

$$$$
