stable:False satoms:12 tatoms:24 sratio:0.5
  -OEChem-07092417433D

 24 26  0     1  0  0  0  0  0999 V2000
    6.4411   -4.9005   26.4452 Cl  0  0  0  0  0  0  0  0  0  0  0  0
    8.1707   -4.2485   26.0841 S   0  0  0  0  0  0  0  0  0  0  0  0
    9.0618   -5.3667   25.9666 O   0  0  0  0  0  0  0  0  0  0  0  0
    8.4109   -3.3861   27.2136 O   0  0  0  0  0  0  0  0  0  0  0  0
    8.0206   -3.4465   24.6892 N   0  0  0  0  0  0  0  0  0  0  0  0
    8.7954   -2.7617   24.1386 C   0  0  0  0  0  0  0  0  0  0  0  0
    9.3030   -1.8070   23.4872 C   0  0  0  0  0  0  0  0  0  0  0  0
   10.6968   -0.9595   23.4915 C   0  0  1  0  0  0  0  0  0  0  0  0
   10.7407   -0.2341   24.2991 H   0  0  0  0  0  0  0  0  0  0  0  0
   12.8249    0.1441   24.1041 H   0  0  0  0  0  0  0  0  0  0  0  0
   12.8302   -0.6709   23.3866 C   0  3  0  0  0  0  0  0  0  0  0  0
   13.5617   -0.8767   22.7561 H   0  0  0  0  0  0  0  0  0  0  0  0
   11.8640   -2.0111   23.0018 S   0  0  0  0  0  0  0  0  0  0  0  0
    9.5590   -0.8482   22.6750 C   0  0  3  0  0  0  0  0  0  0  0  0
    9.0039   -0.0001   21.4669 C   0  0  0  0  0  0  0  0  0  0  0  0
    9.6230    0.8758   20.9909 O   0  0  0  0  0  0  0  0  0  0  0  0
    7.7841   -0.4530   21.1916 N   0  0  0  0  0  0  0  0  0  0  0  0
    7.0234    0.0319   20.2789 C   0  0  0  0  0  0  0  0  0  0  0  0
    7.3802   -0.0364   18.6448 S   0  3  2  0  0  0  0  0  0  0  0  0
    6.1467    0.7269   17.2787 N   0  0  0  0  0  0  0  0  0  0  0  0
    6.0001    0.7265   18.2383 C   0  0  0  0  0  0  0  0  0  0  0  0
    5.3237    0.9562   19.4172 C   0  0  0  0  0  0  0  0  0  0  0  0
    5.7367    0.6055   20.5276 C   0  0  0  0  0  0  0  0  0  0  0  0
    5.2814    0.6500   21.5232 H   0  0  0  0  0  0  0  0  0  0  0  0
 20 21  1  0  0  0  0
 19 20  1  0  0  0  0
 19 21  1  0  0  0  0
 21 22  2  0  0  0  0
 18 19  1  0  0  0  0
 22 23  1  0  0  0  0
 18 23  2  0  0  0  0
 17 18  1  0  0  0  0
 23 24  1  0  0  0  0
 15 16  2  0  0  0  0
 15 17  1  0  0  0  0
 14 15  1  0  0  0  0
  7 14  1  0  0  0  0
  8 14  1  0  0  0  0
 11 12  1  0  0  0  0
 11 13  1  0  0  0  0
  8 13  1  0  0  0  0
 10 11  1  0  0  0  0
  7  8  1  0  0  0  0
  6  7  2  3  0  0  0
  8  9  1  0  0  0  0
  5  6  1  0  0  0  0
  2  5  1  0  0  0  0
  2  3  2  0  0  0  0
  1  2  1  0  0  0  0
  2  4  2  0  0  0  0
M  CHG  2  11   1  19   1
M  END
> <Shapegauss>
-249.966125

$$$$
