stable:False satoms:12 tatoms:24 sratio:0.5
  -OEChem-08062411463D

 29 31  0     1  0  0  0  0  0999 V2000
    6.4270   -5.6253   26.1972 Cl  0  0  0  0  0  0  0  0  0  0  0  0
    8.1568   -4.9551   25.8723 S   0  0  0  0  0  0  0  0  0  0  0  0
    9.0366   -6.0639   25.6385 O   0  0  0  0  0  0  0  0  0  0  0  0
    8.4203   -4.2028   27.0731 O   0  0  0  0  0  0  0  0  0  0  0  0
    7.9938   -4.0261   24.5600 N   0  0  0  0  0  0  0  0  0  0  0  0
    8.7665   -3.2988   24.0637 C   0  0  0  0  0  0  0  0  0  0  0  0
    9.2730   -2.2915   23.4960 C   0  0  0  0  0  0  0  0  0  0  0  0
   10.6739   -1.4581   23.5580 C   0  0  1  0  0  0  0  0  0  0  0  0
   10.7354   -0.8110   24.4286 H   0  0  0  0  0  0  0  0  0  0  0  0
   12.8080   -1.1763   23.4485 H   0  0  0  0  0  0  0  0  0  0  0  0
   12.8080   -1.1763   23.4485 C   0  0  0  0  0  2  0  0  0  0  0  0
   11.8250   -2.4681   22.9557 S   0  0  0  0  0  0  0  0  0  0  0  0
    9.5256   -1.2634   22.7724 C   0  0  3  0  0  0  0  0  0  0  0  0
    8.9607   -0.3030   21.6564 C   0  0  0  0  0  0  0  0  0  0  0  0
    9.5805    0.6088   21.2544 O   0  0  0  0  0  0  0  0  0  0  0  0
    7.7333   -0.7196   21.3586 N   0  0  0  0  0  0  0  0  0  0  0  0
    6.9639   -0.1467   20.5061 C   0  0  0  0  0  0  0  0  0  0  0  0
    7.2970   -0.0658   18.8676 S   0  3  2  0  0  0  0  0  0  0  0  0
    6.0508    0.8297   17.5966 N   0  0  0  0  0  0  0  0  0  0  0  0
    5.9178    0.7414   18.5541 C   0  0  0  0  0  0  0  0  0  0  0  0
    5.2602    0.8657   19.7591 C   0  0  0  0  0  0  0  0  0  0  0  0
    5.6858    0.4106   20.8260 C   0  0  0  0  0  0  0  0  0  0  0  0
    5.2451    0.3658   21.8281 H   0  0  0  0  0  0  0  0  0  0  0  0
    7.2051   -3.4463   24.7644 H   0  0  0  0  0  0  0  0  0  0  0  0
    9.6542   -3.9074   24.1533 H   0  0  0  0  0  0  0  0  0  0  0  0
    9.1027   -0.6104   23.5500 H   0  0  0  0  0  0  0  0  0  0  0  0
    7.3878   -1.5315   21.8291 H   0  0  0  0  0  0  0  0  0  0  0  0
    5.5047    0.2964   16.9506 H   0  0  0  0  0  0  0  0  0  0  0  0
    4.3171    1.3919   19.7714 H   0  0  0  0  0  0  0  0  0  0  0  0
 19 20  1  0  0  0  0
 18 19  1  0  0  0  0
 18 20  1  0  0  0  0
 20 21  2  0  0  0  0
 17 18  1  0  0  0  0
 21 22  1  0  0  0  0
 17 22  2  0  0  0  0
 16 17  1  0  0  0  0
 22 23  1  0  0  0  0
 14 15  2  0  0  0  0
 14 16  1  0  0  0  0
 13 14  1  0  0  0  0
  7 13  1  0  0  0  0
  8 13  1  0  0  0  0
 11 12  1  0  0  0  0
  8 12  1  0  0  0  0
 10 11  1  0  0  0  0
  7  8  1  0  0  0  0
  6  7  2  3  0  0  0
  8  9  1  0  0  0  0
  5  6  1  0  0  0  0
  2  5  1  0  0  0  0
  2  3  2  0  0  0  0
  1  2  1  0  0  0  0
  2  4  2  0  0  0  0
  5 24  1  0  0  0  0
  6 25  1  0  0  0  0
 13 26  1  0  0  0  0
 16 27  1  0  0  0  0
 19 28  1  0  0  0  0
 21 29  1  0  0  0  0
M  CHG  1  18   1
M  END
> <Chemgauss4>
-7.257339

$$$$
