stable:False satoms:12 tatoms:24 sratio:0.5
  -OEChem-08062411463D

 29 31  0     1  0  0  0  0  0999 V2000
   -6.5581   -5.4783  -25.9635 Cl  0  0  0  0  0  0  0  0  0  0  0  0
   -8.2879   -4.8081  -25.6386 S   0  0  0  0  0  0  0  0  0  0  0  0
   -9.1677   -5.9170  -25.4048 O   0  0  0  0  0  0  0  0  0  0  0  0
   -8.5514   -4.0559  -26.8394 O   0  0  0  0  0  0  0  0  0  0  0  0
   -8.1249   -3.8792  -24.3264 N   0  0  0  0  0  0  0  0  0  0  0  0
   -8.8976   -3.1519  -23.8301 C   0  0  0  0  0  0  0  0  0  0  0  0
   -9.4041   -2.1445  -23.2624 C   0  0  0  0  0  0  0  0  0  0  0  0
  -10.8050   -1.3111  -23.3244 C   0  0  1  0  0  0  0  0  0  0  0  0
  -10.8665   -0.6641  -24.1949 H   0  0  0  0  0  0  0  0  0  0  0  0
  -12.9391   -1.0294  -23.2149 H   0  0  0  0  0  0  0  0  0  0  0  0
  -12.9391   -1.0294  -23.2149 C   0  0  0  0  0  2  0  0  0  0  0  0
  -11.9561   -2.3212  -22.7221 S   0  0  0  0  0  0  0  0  0  0  0  0
   -9.6567   -1.1164  -22.5387 C   0  0  3  0  0  0  0  0  0  0  0  0
   -9.0918   -0.1560  -21.4228 C   0  0  0  0  0  0  0  0  0  0  0  0
   -9.7116    0.7558  -21.0207 O   0  0  0  0  0  0  0  0  0  0  0  0
   -7.8644   -0.5727  -21.1249 N   0  0  0  0  0  0  0  0  0  0  0  0
   -7.0950    0.0002  -20.2725 C   0  0  0  0  0  0  0  0  0  0  0  0
   -7.4280    0.0812  -18.6339 S   0  3  2  0  0  0  0  0  0  0  0  0
   -6.1819    0.9767  -17.3629 N   0  0  0  0  0  0  0  0  0  0  0  0
   -6.0489    0.8884  -18.3204 C   0  0  0  0  0  0  0  0  0  0  0  0
   -5.3912    1.0126  -19.5255 C   0  0  0  0  0  0  0  0  0  0  0  0
   -5.8169    0.5575  -20.5924 C   0  0  0  0  0  0  0  0  0  0  0  0
   -5.3762    0.5128  -21.5945 H   0  0  0  0  0  0  0  0  0  0  0  0
   -7.3362   -3.2994  -24.5308 H   0  0  0  0  0  0  0  0  0  0  0  0
   -9.7853   -3.7604  -23.9196 H   0  0  0  0  0  0  0  0  0  0  0  0
   -9.2338   -0.4634  -23.3164 H   0  0  0  0  0  0  0  0  0  0  0  0
   -7.5189   -1.3846  -21.5955 H   0  0  0  0  0  0  0  0  0  0  0  0
   -5.6358    0.4433  -16.7169 H   0  0  0  0  0  0  0  0  0  0  0  0
   -4.4482    1.5389  -19.5378 H   0  0  0  0  0  0  0  0  0  0  0  0
 19 20  1  0  0  0  0
 18 19  1  0  0  0  0
 18 20  1  0  0  0  0
 20 21  2  0  0  0  0
 17 18  1  0  0  0  0
 21 22  1  0  0  0  0
 17 22  2  0  0  0  0
 16 17  1  0  0  0  0
 22 23  1  0  0  0  0
 14 15  2  0  0  0  0
 14 16  1  0  0  0  0
 13 14  1  0  0  0  0
  7 13  1  0  0  0  0
  8 13  1  0  0  0  0
 11 12  1  0  0  0  0
  8 12  1  0  0  0  0
 10 11  1  0  0  0  0
  7  8  1  0  0  0  0
  6  7  2  3  0  0  0
  8  9  1  0  0  0  0
  5  6  1  0  0  0  0
  2  5  1  0  0  0  0
  2  3  2  0  0  0  0
  1  2  1  0  0  0  0
  2  4  2  0  0  0  0
  5 24  1  0  0  0  0
  6 25  1  0  0  0  0
 13 26  1  0  0  0  0
 16 27  1  0  0  0  0
 19 28  1  0  0  0  0
 21 29  1  0  0  0  0
M  CHG  1  18   1
M  END
> <Chemgauss4>
-7.538386

$$$$
