stable:False satoms:5 tatoms:24 sratio:0.20833333333333334
  -OEChem-08062413353D

 45 46  0     1  0  0  0  0  0999 V2000
    6.6289   -5.4239   25.9211 C   0  0  0  0  0  0  0  0  0  0  0  0
    8.1143   -4.9347   25.7786 S   0  0  0  0  0  0  0  0  0  0  0  0
    9.0037   -6.0819   25.6598 O   0  0  0  0  0  0  0  0  0  0  0  0
    8.4786   -4.1157   26.8976 O   0  0  0  0  0  0  0  0  0  0  0  0
    8.1849   -4.1026   24.3643 N   0  0  0  0  0  0  0  0  0  0  0  0
    9.0101   -3.3379   23.9847 C   0  0  0  0  0  0  0  0  0  0  0  0
    9.5447   -2.3787   23.5058 C   0  0  0  0  0  0  0  0  0  0  0  0
   10.5233   -1.4880   23.3847 C   0  0  1  0  0  0  0  0  0  0  0  0
   11.1176   -0.5008   24.5281 C   0  0  0  0  0  0  0  0  0  0  0  0
   12.1848   -0.1479   24.6466 C   0  0  0  0  0  0  0  0  0  0  0  0
   13.2283   -0.5363   23.9071 C   0  0  0  0  0  0  0  0  0  0  0  0
   12.9454   -1.5106   22.9895 C   0  0  0  0  0  0  0  0  0  0  0  0
   11.9494   -2.0012   22.7524 C   0  0  0  0  0  0  0  0  0  0  0  0
    9.9200   -0.9069   22.5194 C   0  0  0  0  0  0  0  0  0  0  0  0
    9.3346   -0.2006   21.5112 C   0  0  0  0  0  0  0  0  0  0  0  0
    9.8662    0.7787   21.1955 O   0  0  0  0  0  0  0  0  0  0  0  0
    8.2214   -0.7838   21.0831 N   0  0  0  0  0  0  0  0  0  0  0  0
    7.6062   -0.2085   20.1580 C   0  0  0  0  0  0  0  0  0  0  0  0
    7.7098    0.0213   18.8900 C   0  0  0  0  0  0  0  0  0  0  0  0
    7.3689    0.4547   17.7663 N   0  0  0  0  0  0  0  0  0  0  0  0
    6.2626    0.8781   18.2046 C   0  0  0  0  0  0  0  0  0  0  0  0
    5.7125    0.9266   19.3367 C   0  0  0  0  0  0  0  0  0  0  0  0
    6.1696    0.4519   20.4932 C   0  0  0  0  0  0  0  0  0  0  0  0
    5.7655    0.4630   21.4563 C   0  0  0  0  0  0  0  0  0  0  0  0
    6.5176   -5.9919   26.8565 H   0  0  0  0  0  0  0  0  0  0  0  0
    5.9565   -4.5536   25.9385 H   0  0  0  0  0  0  0  0  0  0  0  0
    6.3720   -6.0688   25.0678 H   0  0  0  0  0  0  0  0  0  0  0  0
    7.3330   -3.5794   24.3418 H   0  0  0  0  0  0  0  0  0  0  0  0
    9.8919   -3.8932   24.2683 H   0  0  0  0  0  0  0  0  0  0  0  0
    8.8376   -2.0611   22.7539 H   0  0  0  0  0  0  0  0  0  0  0  0
   10.4112   -0.1393   25.2606 H   0  0  0  0  0  0  0  0  0  0  0  0
   12.3795    0.5696   25.4300 H   0  0  0  0  0  0  0  0  0  0  0  0
   14.2157   -0.1147   24.0247 H   0  0  0  0  0  0  0  0  0  0  0  0
   13.7864   -1.8619   22.4100 H   0  0  0  0  0  0  0  0  0  0  0  0
   11.8350   -1.9410   21.6600 H   0  0  0  0  0  0  0  0  0  0  0  0
   12.0519   -3.0544   23.0529 H   0  0  0  0  0  0  0  0  0  0  0  0
    9.2028   -0.5071   23.2514 H   0  0  0  0  0  0  0  0  0  0  0  0
    9.5383   -1.8549   22.1124 H   0  0  0  0  0  0  0  0  0  0  0  0
    7.8911   -1.6401   21.4803 H   0  0  0  0  0  0  0  0  0  0  0  0
    8.6629   -0.4344   18.6654 H   0  0  0  0  0  0  0  0  0  0  0  0
    5.6426    1.2969   17.4257 H   0  0  0  0  0  0  0  0  0  0  0  0
    4.7496    1.4144   19.3736 H   0  0  0  0  0  0  0  0  0  0  0  0
    5.1590   -0.4416   21.6104 H   0  0  0  0  0  0  0  0  0  0  0  0
    6.5800    0.4885   22.1952 H   0  0  0  0  0  0  0  0  0  0  0  0
    5.1322    1.3541   21.5778 H   0  0  0  0  0  0  0  0  0  0  0  0
 20 21  2  0  0  0  0
 19 20  1  0  0  0  0
 21 22  1  0  0  0  0
 18 19  2  0  0  0  0
 22 23  2  0  0  0  0
 18 23  1  0  0  0  0
 17 18  1  0  0  0  0
 23 24  1  0  0  0  0
 15 16  2  0  0  0  0
 15 17  1  0  0  0  0
 14 15  1  0  0  0  0
  8 14  1  0  0  0  0
 12 13  1  0  0  0  0
  8 13  1  0  0  0  0
 11 12  2  0  0  0  0
  7  8  1  0  0  0  0
  8  9  1  0  0  0  0
 10 11  1  0  0  0  0
  6  7  2  0  0  0  0
  5  6  1  0  0  0  0
  9 10  2  0  0  0  0
  2  5  1  0  0  0  0
  2  3  2  0  0  0  0
  1  2  1  0  0  0  0
  2  4  2  0  0  0  0
  1 25  1  0  0  0  0
  1 26  1  0  0  0  0
  1 27  1  0  0  0  0
  5 28  1  0  0  0  0
  6 29  1  0  0  0  0
  7 30  1  0  0  0  0
  9 31  1  0  0  0  0
 10 32  1  0  0  0  0
 11 33  1  0  0  0  0
 12 34  1  0  0  0  0
 13 35  1  0  0  0  0
 13 36  1  0  0  0  0
 14 37  1  0  0  0  0
 14 38  1  0  0  0  0
 17 39  1  0  0  0  0
 19 40  1  0  0  0  0
 21 41  1  0  0  0  0
 22 42  1  0  0  0  0
 24 43  1  0  0  0  0
 24 44  1  0  0  0  0
 24 45  1  0  0  0  0
M  END
> <Chemgauss4>
-13.214165

$$$$
