stable:False satoms:5 tatoms:24 sratio:0.20833333333333334
  -OEChem-08062413353D

 45 46  0     1  0  0  0  0  0999 V2000
   -6.3538   -5.3275  -25.8541 C   0  0  0  0  0  0  0  0  0  0  0  0
   -7.8392   -4.8383  -25.7116 S   0  0  0  0  0  0  0  0  0  0  0  0
   -8.7286   -5.9855  -25.5928 O   0  0  0  0  0  0  0  0  0  0  0  0
   -8.2035   -4.0194  -26.8306 O   0  0  0  0  0  0  0  0  0  0  0  0
   -7.9098   -4.0063  -24.2973 N   0  0  0  0  0  0  0  0  0  0  0  0
   -8.7350   -3.2415  -23.9177 C   0  0  0  0  0  0  0  0  0  0  0  0
   -9.2696   -2.2823  -23.4388 C   0  0  0  0  0  0  0  0  0  0  0  0
  -10.2482   -1.3916  -23.3177 C   0  0  1  0  0  0  0  0  0  0  0  0
  -10.8425   -0.4045  -24.4611 C   0  0  0  0  0  0  0  0  0  0  0  0
  -11.9097   -0.0516  -24.5796 C   0  0  0  0  0  0  0  0  0  0  0  0
  -12.9532   -0.4399  -23.8401 C   0  0  0  0  0  0  0  0  0  0  0  0
  -12.6703   -1.4142  -22.9225 C   0  0  0  0  0  0  0  0  0  0  0  0
  -11.6743   -1.9048  -22.6854 C   0  0  0  0  0  0  0  0  0  0  0  0
   -9.6448   -0.8105  -22.4524 C   0  0  0  0  0  0  0  0  0  0  0  0
   -9.0595   -0.1042  -21.4443 C   0  0  0  0  0  0  0  0  0  0  0  0
   -9.5911    0.8750  -21.1285 O   0  0  0  0  0  0  0  0  0  0  0  0
   -7.9463   -0.6874  -21.0162 N   0  0  0  0  0  0  0  0  0  0  0  0
   -7.3311   -0.1121  -20.0910 C   0  0  0  0  0  0  0  0  0  0  0  0
   -7.4347    0.1177  -18.8231 C   0  0  0  0  0  0  0  0  0  0  0  0
   -7.0938    0.5510  -17.6994 N   0  0  0  0  0  0  0  0  0  0  0  0
   -5.9875    0.9744  -18.1376 C   0  0  0  0  0  0  0  0  0  0  0  0
   -5.4373    1.0230  -19.2697 C   0  0  0  0  0  0  0  0  0  0  0  0
   -5.8945    0.5482  -20.4262 C   0  0  0  0  0  0  0  0  0  0  0  0
   -5.4904    0.5594  -21.3893 C   0  0  0  0  0  0  0  0  0  0  0  0
   -6.2425   -5.8956  -26.7895 H   0  0  0  0  0  0  0  0  0  0  0  0
   -5.6814   -4.4572  -25.8715 H   0  0  0  0  0  0  0  0  0  0  0  0
   -6.0969   -5.9724  -25.0008 H   0  0  0  0  0  0  0  0  0  0  0  0
   -7.0579   -3.4831  -24.2748 H   0  0  0  0  0  0  0  0  0  0  0  0
   -9.6168   -3.7968  -24.2013 H   0  0  0  0  0  0  0  0  0  0  0  0
   -8.5625   -1.9647  -22.6869 H   0  0  0  0  0  0  0  0  0  0  0  0
  -10.1361   -0.0429  -25.1937 H   0  0  0  0  0  0  0  0  0  0  0  0
  -12.1044    0.6659  -25.3630 H   0  0  0  0  0  0  0  0  0  0  0  0
  -13.9406   -0.0184  -23.9577 H   0  0  0  0  0  0  0  0  0  0  0  0
  -13.5113   -1.7655  -22.3430 H   0  0  0  0  0  0  0  0  0  0  0  0
  -11.5599   -1.8446  -21.5931 H   0  0  0  0  0  0  0  0  0  0  0  0
  -11.7768   -2.9580  -22.9859 H   0  0  0  0  0  0  0  0  0  0  0  0
   -8.9277   -0.4107  -23.1844 H   0  0  0  0  0  0  0  0  0  0  0  0
   -9.2632   -1.7585  -22.0454 H   0  0  0  0  0  0  0  0  0  0  0  0
   -7.6160   -1.5437  -21.4133 H   0  0  0  0  0  0  0  0  0  0  0  0
   -8.3877   -0.3380  -18.5985 H   0  0  0  0  0  0  0  0  0  0  0  0
   -5.3675    1.3932  -17.3587 H   0  0  0  0  0  0  0  0  0  0  0  0
   -4.4745    1.5107  -19.3066 H   0  0  0  0  0  0  0  0  0  0  0  0
   -4.8839   -0.3453  -21.5434 H   0  0  0  0  0  0  0  0  0  0  0  0
   -6.3049    0.5849  -22.1282 H   0  0  0  0  0  0  0  0  0  0  0  0
   -4.8571    1.4505  -21.5108 H   0  0  0  0  0  0  0  0  0  0  0  0
 20 21  2  0  0  0  0
 19 20  1  0  0  0  0
 21 22  1  0  0  0  0
 18 19  2  0  0  0  0
 22 23  2  0  0  0  0
 18 23  1  0  0  0  0
 17 18  1  0  0  0  0
 23 24  1  0  0  0  0
 15 16  2  0  0  0  0
 15 17  1  0  0  0  0
 14 15  1  0  0  0  0
  8 14  1  0  0  0  0
 12 13  1  0  0  0  0
  8 13  1  0  0  0  0
 11 12  2  0  0  0  0
  7  8  1  0  0  0  0
  8  9  1  0  0  0  0
 10 11  1  0  0  0  0
  6  7  2  0  0  0  0
  5  6  1  0  0  0  0
  9 10  2  0  0  0  0
  2  5  1  0  0  0  0
  2  3  2  0  0  0  0
  1  2  1  0  0  0  0
  2  4  2  0  0  0  0
  1 25  1  0  0  0  0
  1 26  1  0  0  0  0
  1 27  1  0  0  0  0
  5 28  1  0  0  0  0
  6 29  1  0  0  0  0
  7 30  1  0  0  0  0
  9 31  1  0  0  0  0
 10 32  1  0  0  0  0
 11 33  1  0  0  0  0
 12 34  1  0  0  0  0
 13 35  1  0  0  0  0
 13 36  1  0  0  0  0
 14 37  1  0  0  0  0
 14 38  1  0  0  0  0
 17 39  1  0  0  0  0
 19 40  1  0  0  0  0
 21 41  1  0  0  0  0
 22 42  1  0  0  0  0
 24 43  1  0  0  0  0
 24 44  1  0  0  0  0
 24 45  1  0  0  0  0
M  END
> <Chemgauss4>
-13.347401

$$$$
