stable:False satoms:17 tatoms:24 sratio:0.7083333333333334
  -OEChem-08052421203D

 27 29  0     1  0  0  0  0  0999 V2000
   14.7005   -0.9457   24.3463 H   0  0  0  0  0  0  0  0  0  0  0  0
   13.6696   -0.8103   24.0960 C   0  0  0  0  0  0  0  0  0  0  0  0
   13.2048    1.1722   24.7718 H   0  0  0  0  0  0  0  0  0  0  0  0
   11.5549   -1.3273   23.4185 C   0  0  0  0  0  0  0  0  0  0  0  0
   10.7036    1.4684   21.2785 N   0  0  0  0  0  0  0  0  0  0  0  0
   10.3351    0.5244   21.9897 N   0  0  2  0  0  0  0  0  0  0  0  0
   12.8410   -1.7399   23.3802 C   0  0  3  0  0  0  0  0  0  0  0  0
   11.4956   -0.1588   24.1860 C   0  0  0  0  0  0  0  0  0  0  0  0
   10.2533    2.7435   23.1738 C   0  0  0  0  0  0  0  0  0  0  0  0
   10.4578    2.6558   21.9227 N   0  0  0  0  0  0  0  0  0  0  0  0
   10.5662    3.4900   21.3841 H   0  0  0  0  0  0  0  0  0  0  0  0
   13.1928   -2.6336   22.8861 H   0  0  0  0  0  0  0  0  0  0  0  0
    8.9063   -0.9371   21.4274 H   0  0  0  0  0  0  0  0  0  0  0  0
   12.8483    0.2214   24.4092 C   0  0  0  0  0  0  0  0  0  0  0  0
    8.4839    0.8569   23.2610 H   0  0  0  0  0  0  0  0  0  0  0  0
    9.6059   -0.6134   22.1859 C   0  0  2  0  0  0  0  0  0  0  0  0
    9.4433    0.3640   23.1238 C   0  0  1  0  0  0  0  0  0  0  0  0
    9.5195   -0.6551   25.0521 H   0  0  0  0  0  0  0  0  0  0  0  0
   10.4637   -2.6582   22.1193 H   0  0  0  0  0  0  0  0  0  0  0  0
   10.2715   -1.8996   22.8523 C   0  0  0  0  0  0  0  0  0  0  0  0
   10.0523    0.1307   24.5440 C   0  0  0  0  0  0  0  0  0  0  0  0
    9.9924    0.9964   25.1859 H   0  0  0  0  0  0  0  0  0  0  0  0
    9.6132   -2.2818   23.6213 H   0  0  0  0  0  0  0  0  0  0  0  0
    9.8564    2.6888   24.2375 O   0  0  0  0  0  0  0  0  0  0  0  0
   11.6834    1.3852   21.0970 H   0  0  0  0  0  0  0  0  0  0  0  0
   12.8410   -1.7399   23.3802 H   0  0  0  0  0  0  0  0  0  0  0  0
   11.1490    3.3008   23.4057 H   0  0  0  0  0  0  0  0  0  0  0  0
 19 20  1  0  0  0  0
 20 23  1  0  0  0  0
 13 16  1  0  0  0  0
 16 20  1  0  0  0  0
  4 20  1  0  0  0  0
 16 17  1  0  0  0  0
  6 16  1  0  0  0  0
  7 12  1  0  0  0  0
  4  7  1  0  0  0  0
  4  8  2  0  0  0  0
 18 21  1  0  0  0  0
  2  7  1  0  0  0  0
 15 17  1  0  0  0  0
  6 17  1  0  0  0  0
 17 21  1  0  0  0  0
  5  6  1  0  0  0  0
  8 21  1  0  0  0  0
 21 22  1  0  0  0  0
  8 14  1  0  0  0  0
  5 10  1  0  0  0  0
  1  2  1  0  0  0  0
  2 14  2  0  0  0  0
  3 14  1  0  0  0  0
  9 10  1  0  0  0  0
 10 11  1  0  0  0  0
  9 24  2  0  0  0  0
  5 25  1  0  0  0  0
  7 26  1  0  0  0  0
  9 27  1  0  0  0  0
M  END
> <Chemgauss4>
-7.553222

$$$$
