stable:False satoms:17 tatoms:24 sratio:0.7083333333333334
  -OEChem-08052421203D

 27 29  0     1  0  0  0  0  0999 V2000
  -14.5686   -0.8946  -24.4066 H   0  0  0  0  0  0  0  0  0  0  0  0
  -13.5377   -0.7593  -24.1563 C   0  0  0  0  0  0  0  0  0  0  0  0
  -13.0729    1.2233  -24.8321 H   0  0  0  0  0  0  0  0  0  0  0  0
  -11.4230   -1.2762  -23.4788 C   0  0  0  0  0  0  0  0  0  0  0  0
  -10.5716    1.5194  -21.3388 N   0  0  0  0  0  0  0  0  0  0  0  0
  -10.2032    0.5755  -22.0500 N   0  0  2  0  0  0  0  0  0  0  0  0
  -12.7091   -1.6889  -23.4405 C   0  0  3  0  0  0  0  0  0  0  0  0
  -11.3637   -0.1077  -24.2463 C   0  0  0  0  0  0  0  0  0  0  0  0
  -10.1214    2.7946  -23.2341 C   0  0  0  0  0  0  0  0  0  0  0  0
  -10.3258    2.7068  -21.9830 N   0  0  0  0  0  0  0  0  0  0  0  0
  -10.4343    3.5410  -21.4444 H   0  0  0  0  0  0  0  0  0  0  0  0
  -13.0609   -2.5825  -22.9464 H   0  0  0  0  0  0  0  0  0  0  0  0
   -8.7744   -0.8861  -21.4877 H   0  0  0  0  0  0  0  0  0  0  0  0
  -12.7164    0.2725  -24.4695 C   0  0  0  0  0  0  0  0  0  0  0  0
   -8.3520    0.9080  -23.3213 H   0  0  0  0  0  0  0  0  0  0  0  0
   -9.4740   -0.5623  -22.2462 C   0  0  2  0  0  0  0  0  0  0  0  0
   -9.3114    0.4151  -23.1841 C   0  0  1  0  0  0  0  0  0  0  0  0
   -9.3876   -0.6041  -25.1124 H   0  0  0  0  0  0  0  0  0  0  0  0
  -10.3317   -2.6072  -22.1796 H   0  0  0  0  0  0  0  0  0  0  0  0
  -10.1396   -1.8486  -22.9126 C   0  0  0  0  0  0  0  0  0  0  0  0
   -9.9204    0.1817  -24.6043 C   0  0  0  0  0  0  0  0  0  0  0  0
   -9.8605    1.0475  -25.2462 H   0  0  0  0  0  0  0  0  0  0  0  0
   -9.4813   -2.2308  -23.6816 H   0  0  0  0  0  0  0  0  0  0  0  0
   -9.7244    2.7399  -24.2978 O   0  0  0  0  0  0  0  0  0  0  0  0
  -11.5515    1.4362  -21.1573 H   0  0  0  0  0  0  0  0  0  0  0  0
  -12.7091   -1.6889  -23.4405 H   0  0  0  0  0  0  0  0  0  0  0  0
  -11.0170    3.3518  -23.4660 H   0  0  0  0  0  0  0  0  0  0  0  0
 19 20  1  0  0  0  0
 20 23  1  0  0  0  0
 13 16  1  0  0  0  0
 16 20  1  0  0  0  0
  4 20  1  0  0  0  0
 16 17  1  0  0  0  0
  6 16  1  0  0  0  0
  7 12  1  0  0  0  0
  4  7  1  0  0  0  0
  4  8  2  0  0  0  0
 18 21  1  0  0  0  0
  2  7  1  0  0  0  0
 15 17  1  0  0  0  0
  6 17  1  0  0  0  0
 17 21  1  0  0  0  0
  5  6  1  0  0  0  0
  8 21  1  0  0  0  0
 21 22  1  0  0  0  0
  8 14  1  0  0  0  0
  5 10  1  0  0  0  0
  1  2  1  0  0  0  0
  2 14  2  0  0  0  0
  3 14  1  0  0  0  0
  9 10  1  0  0  0  0
 10 11  1  0  0  0  0
  9 24  2  0  0  0  0
  5 25  1  0  0  0  0
  7 26  1  0  0  0  0
  9 27  1  0  0  0  0
M  END
> <Chemgauss4>
-7.509769

$$$$
