REMARK  1 active torsions:
REMARK  status: ('A' for Active; 'I' for Inactive)
REMARK    1  A    between atoms: C_3  and  N_6 
ROOT
HETATM    1  C   UNL     1      10.766  -1.941  24.842  1.00  0.00     0.005 C 
HETATM    2  H   UNL     1      11.351  -1.114  21.284  1.00  0.00     0.166 HD
HETATM    3  C   UNL     1      11.988  -1.439  24.425  1.00  0.00     0.017 C 
HETATM    4  N   UNL     1       9.099  -1.140  21.646  1.00  0.00    -0.329 N 
HETATM    5  C   UNL     1      12.175  -1.001  23.154  1.00  0.00     0.089 C 
HETATM    6  C   UNL     1       9.713  -1.757  23.978  1.00  0.00     0.048 C 
HETATM    7  N   UNL     1      11.174  -1.124  22.261  1.00  0.00    -0.352 N 
HETATM    8  C   UNL     1       9.922  -1.372  22.652  1.00  0.00     0.106 C 
HETATM    9  H   UNL     1       9.370  -0.703  20.781  1.00  0.00     0.169 HD
ENDROOT
BRANCH   4  10
HETATM   10  C   UNL     1       7.764  -1.271  21.613  1.00  0.00     0.108 C 
HETATM   11  N   UNL     1       7.217  -0.528  20.545  1.00  0.00    -0.319 N 
HETATM   12  C   UNL     1       6.036  -0.037  20.817  1.00  0.00     0.189 C 
HETATM   13  H   UNL     1       7.643  -0.289  19.666  1.00  0.00     0.169 HD
HETATM   14  F   UNL     1       5.624   0.893  19.973  1.00  0.00    -0.186 F 
HETATM   15  C   UNL     1       5.209  -0.470  21.823  1.00  0.00     0.061 C 
HETATM   16  C   UNL     1       5.711  -1.422  22.702  1.00  0.00     0.008 C 
HETATM   17  C   UNL     1       6.981  -1.888  22.534  1.00  0.00     0.049 C 
ENDBRANCH   4  10
TORSDOF 1
