MODEL 1
REMARK VINA RESULT:    -5.987      0.000      0.000
REMARK INTER + INTRA:          -6.692
REMARK INTER:                  -6.337
REMARK INTRA:                  -0.355
REMARK UNBOUND:                -0.355
REMARK  1 active torsions:
REMARK  status: ('A' for Active; 'I' for Inactive)
REMARK    1  A    between atoms: C_3  and  N_6 
ROOT
HETATM    1  C   UNL     1       7.132  18.956   1.576  1.00  0.00     0.005 C 
HETATM    2  H   UNL     1      10.113  17.926  -0.359  1.00  0.00     0.166 HD
HETATM    3  C   UNL     1       7.548  19.687   0.475  1.00  0.00     0.017 C 
HETATM    4  N   UNL     1       9.357  16.113   0.799  1.00  0.00    -0.329 N 
HETATM    5  C   UNL     1       8.552  19.249  -0.326  1.00  0.00     0.089 C 
HETATM    6  C   UNL     1       7.629  17.677   1.671  1.00  0.00     0.048 C 
HETATM    7  N   UNL     1       9.205  18.117  -0.004  1.00  0.00    -0.352 N 
HETATM    8  C   UNL     1       8.707  17.258   0.889  1.00  0.00     0.106 C 
HETATM    9  H   UNL     1      10.014  15.889   0.070  1.00  0.00     0.169 HD
ENDROOT
BRANCH   4  10
HETATM   10  C   UNL     1       9.177  14.993   1.516  1.00  0.00     0.108 C 
HETATM   11  N   UNL     1       8.179  14.183   0.933  1.00  0.00    -0.319 N 
HETATM   12  C   UNL     1       7.480  13.519   1.817  1.00  0.00     0.189 C 
HETATM   13  H   UNL     1       7.913  14.116  -0.034  1.00  0.00     0.169 HD
HETATM   14  F   UNL     1       6.366  12.988   1.344  1.00  0.00    -0.186 F 
HETATM   15  C   UNL     1       7.861  13.281   3.114  1.00  0.00     0.061 C 
HETATM   16  C   UNL     1       9.022  13.897   3.565  1.00  0.00     0.008 C 
HETATM   17  C   UNL     1       9.732  14.695   2.719  1.00  0.00     0.049 C 
ENDBRANCH   4  10
TORSDOF 1
ENDMDL
MODEL 2
REMARK VINA RESULT:    -5.795     27.935     29.379
REMARK INTER + INTRA:          -6.489
REMARK INTER:                  -6.270
REMARK INTRA:                  -0.219
REMARK UNBOUND:                -0.355
REMARK  1 active torsions:
REMARK  status: ('A' for Active; 'I' for Inactive)
REMARK    1  A    between atoms: C_3  and  N_6 
ROOT
HETATM    1  C   UNL     1       7.830  -3.717  25.691  1.00  0.00     0.005 C 
HETATM    2  H   UNL     1       8.095  -3.679  22.002  1.00  0.00     0.166 HD
HETATM    3  C   UNL     1       7.315  -4.758  24.935  1.00  0.00     0.017 C 
HETATM    4  N   UNL     1       9.681  -2.272  22.842  1.00  0.00    -0.329 N 
HETATM    5  C   UNL     1       7.525  -4.829  23.596  1.00  0.00     0.089 C 
HETATM    6  C   UNL     1       8.740  -2.905  25.058  1.00  0.00     0.048 C 
HETATM    7  N   UNL     1       8.185  -3.829  22.979  1.00  0.00    -0.352 N 
HETATM    8  C   UNL     1       8.899  -2.938  23.670  1.00  0.00     0.106 C 
HETATM    9  H   UNL     1       9.818  -2.512  21.874  1.00  0.00     0.169 HD
ENDROOT
BRANCH   4  10
HETATM   10  C   UNL     1      10.549  -1.288  23.124  1.00  0.00     0.108 C 
HETATM   11  N   UNL     1      11.867  -1.679  22.805  1.00  0.00    -0.319 N 
HETATM   12  C   UNL     1      12.760  -1.171  23.613  1.00  0.00     0.189 C 
HETATM   13  H   UNL     1      12.174  -2.329  22.101  1.00  0.00     0.169 HD
HETATM   14  F   UNL     1      13.953  -1.736  23.534  1.00  0.00    -0.186 F 
HETATM   15  C   UNL     1      12.564  -0.086  24.431  1.00  0.00     0.061 C 
HETATM   16  C   UNL     1      11.281   0.441  24.502  1.00  0.00     0.008 C 
HETATM   17  C   UNL     1      10.282  -0.122  23.765  1.00  0.00     0.049 C 
ENDBRANCH   4  10
TORSDOF 1
ENDMDL
MODEL 3
REMARK VINA RESULT:    -5.681     27.737     28.560
REMARK INTER + INTRA:          -6.369
REMARK INTER:                  -6.225
REMARK INTRA:                  -0.143
REMARK UNBOUND:                -0.355
REMARK  1 active torsions:
REMARK  status: ('A' for Active; 'I' for Inactive)
REMARK    1  A    between atoms: C_3  and  N_6 
ROOT
HETATM    1  C   UNL     1       6.165  -2.210  21.723  1.00  0.00     0.005 C 
HETATM    2  H   UNL     1       8.704  -4.750  22.611  1.00  0.00     0.166 HD
HETATM    3  C   UNL     1       5.806  -3.536  21.899  1.00  0.00     0.017 C 
HETATM    4  N   UNL     1       9.523  -2.698  23.178  1.00  0.00    -0.329 N 
HETATM    5  C   UNL     1       6.694  -4.453  22.359  1.00  0.00     0.089 C 
HETATM    6  C   UNL     1       7.379  -1.840  22.250  1.00  0.00     0.048 C 
HETATM    7  N   UNL     1       7.970  -4.081  22.580  1.00  0.00    -0.352 N 
HETATM    8  C   UNL     1       8.314  -2.794  22.658  1.00  0.00     0.106 C 
HETATM    9  H   UNL     1      10.028  -3.467  23.585  1.00  0.00     0.169 HD
ENDROOT
BRANCH   4  10
HETATM   10  C   UNL     1      10.241  -1.591  23.422  1.00  0.00     0.108 C 
HETATM   11  N   UNL     1      11.522  -1.690  22.836  1.00  0.00    -0.319 N 
HETATM   12  C   UNL     1      12.449  -1.086  23.533  1.00  0.00     0.189 C 
HETATM   13  H   UNL     1      11.798  -2.205  22.018  1.00  0.00     0.169 HD
HETATM   14  F   UNL     1      13.685  -1.399  23.184  1.00  0.00    -0.186 F 
HETATM   15  C   UNL     1      12.226  -0.134  24.496  1.00  0.00     0.061 C 
HETATM   16  C   UNL     1      10.907   0.125  24.848  1.00  0.00     0.008 C 
HETATM   17  C   UNL     1       9.900  -0.558  24.233  1.00  0.00     0.049 C 
ENDBRANCH   4  10
TORSDOF 1
ENDMDL
MODEL 4
REMARK VINA RESULT:    -5.655     23.874     25.518
REMARK INTER + INTRA:          -6.341
REMARK INTER:                  -6.132
REMARK INTRA:                  -0.209
REMARK UNBOUND:                -0.355
REMARK  1 active torsions:
REMARK  status: ('A' for Active; 'I' for Inactive)
REMARK    1  A    between atoms: C_3  and  N_6 
ROOT
HETATM    1  C   UNL     1       5.429   1.571  20.212  1.00  0.00     0.005 C 
HETATM    2  H   UNL     1       7.740  -0.240  17.961  1.00  0.00     0.166 HD
HETATM    3  C   UNL     1       4.977   1.037  19.016  1.00  0.00     0.017 C 
HETATM    4  N   UNL     1       8.646  -0.235  20.055  1.00  0.00    -0.329 N 
HETATM    5  C   UNL     1       5.775   0.253  18.246  1.00  0.00     0.089 C 
HETATM    6  C   UNL     1       6.626   1.080  20.676  1.00  0.00     0.048 C 
HETATM    7  N   UNL     1       7.053   0.049  18.617  1.00  0.00    -0.352 N 
HETATM    8  C   UNL     1       7.470   0.331  19.854  1.00  0.00     0.106 C 
HETATM    9  H   UNL     1       9.074  -0.893  19.425  1.00  0.00     0.169 HD
ENDROOT
BRANCH   4  10
HETATM   10  C   UNL     1       9.414  -0.195  21.154  1.00  0.00     0.108 C 
HETATM   11  N   UNL     1       9.602  -1.492  21.678  1.00  0.00    -0.319 N 
HETATM   12  C   UNL     1       9.693  -1.508  22.982  1.00  0.00     0.189 C 
HETATM   13  H   UNL     1       9.605  -2.370  21.188  1.00  0.00     0.169 HD
HETATM   14  F   UNL     1       9.574  -2.708  23.523  1.00  0.00    -0.186 F 
HETATM   15  C   UNL     1       9.975  -0.421  23.771  1.00  0.00     0.061 C 
HETATM   16  C   UNL     1      10.050   0.821  23.152  1.00  0.00     0.008 C 
HETATM   17  C   UNL     1       9.850   0.913  21.806  1.00  0.00     0.049 C 
ENDBRANCH   4  10
TORSDOF 1
ENDMDL
MODEL 5
REMARK VINA RESULT:    -5.650     34.106     35.723
REMARK INTER + INTRA:          -6.335
REMARK INTER:                  -6.002
REMARK INTRA:                  -0.334
REMARK UNBOUND:                -0.355
REMARK  1 active torsions:
REMARK  status: ('A' for Active; 'I' for Inactive)
REMARK    1  A    between atoms: C_3  and  N_6 
ROOT
HETATM    1  C   UNL     1       1.473 -20.607   9.143  1.00  0.00     0.005 C 
HETATM    2  H   UNL     1       3.664 -17.763   8.252  1.00  0.00     0.166 HD
HETATM    3  C   UNL     1       2.847 -20.770   9.072  1.00  0.00     0.017 C 
HETATM    4  N   UNL     1       1.680 -16.923   9.001  1.00  0.00    -0.329 N 
HETATM    5  C   UNL     1       3.674 -19.710   8.883  1.00  0.00     0.089 C 
HETATM    6  C   UNL     1       1.024 -19.312   9.243  1.00  0.00     0.048 C 
HETATM    7  N   UNL     1       3.144 -18.487   8.690  1.00  0.00    -0.352 N 
HETATM    8  C   UNL     1       1.867 -18.230   8.980  1.00  0.00     0.106 C 
HETATM    9  H   UNL     1       2.421 -16.244   8.953  1.00  0.00     0.169 HD
ENDROOT
BRANCH   4  10
HETATM   10  C   UNL     1       0.548 -16.246   9.243  1.00  0.00     0.108 C 
HETATM   11  N   UNL     1       0.305 -16.162  10.631  1.00  0.00    -0.319 N 
HETATM   12  C   UNL     1      -0.968 -16.178  10.928  1.00  0.00     0.189 C 
HETATM   13  H   UNL     1       0.971 -16.160  11.384  1.00  0.00     0.169 HD
HETATM   14  F   UNL     1      -1.228 -16.396  12.206  1.00  0.00    -0.186 F 
HETATM   15  C   UNL     1      -1.991 -15.911  10.053  1.00  0.00     0.061 C 
HETATM   16  C   UNL     1      -1.661 -15.727   8.716  1.00  0.00     0.008 C 
HETATM   17  C   UNL     1      -0.357 -15.813   8.328  1.00  0.00     0.049 C 
ENDBRANCH   4  10
TORSDOF 1
ENDMDL
MODEL 6
REMARK VINA RESULT:    -5.510      3.555      5.084
REMARK INTER + INTRA:          -6.188
REMARK INTER:                  -5.928
REMARK INTRA:                  -0.260
REMARK UNBOUND:                -0.355
REMARK  1 active torsions:
REMARK  status: ('A' for Active; 'I' for Inactive)
REMARK    1  A    between atoms: C_3  and  N_6 
ROOT
HETATM    1  C   UNL     1       8.010  15.541   3.298  1.00  0.00     0.005 C 
HETATM    2  H   UNL     1      10.275  12.622   3.506  1.00  0.00     0.166 HD
HETATM    3  C   UNL     1       9.369  15.682   3.065  1.00  0.00     0.017 C 
HETATM    4  N   UNL     1       8.152  11.853   3.181  1.00  0.00    -0.329 N 
HETATM    5  C   UNL     1      10.190  14.604   3.000  1.00  0.00     0.089 C 
HETATM    6  C   UNL     1       7.518  14.259   3.230  1.00  0.00     0.048 C 
HETATM    7  N   UNL     1       9.687  13.377   3.239  1.00  0.00    -0.352 N 
HETATM    8  C   UNL     1       8.371  13.154   3.232  1.00  0.00     0.106 C 
HETATM    9  H   UNL     1       8.867  11.163   3.020  1.00  0.00     0.169 HD
ENDROOT
BRANCH   4  10
HETATM   10  C   UNL     1       6.977  11.205   3.164  1.00  0.00     0.108 C 
HETATM   11  N   UNL     1       6.618  10.792   4.465  1.00  0.00    -0.319 N 
HETATM   12  C   UNL     1       5.962   9.661   4.479  1.00  0.00     0.189 C 
HETATM   13  H   UNL     1       6.857  11.217   5.345  1.00  0.00     0.169 HD
HETATM   14  F   UNL     1       5.866   9.100   5.672  1.00  0.00    -0.186 F 
HETATM   15  C   UNL     1       5.328   9.098   3.400  1.00  0.00     0.061 C 
HETATM   16  C   UNL     1       5.496   9.711   2.164  1.00  0.00     0.008 C 
HETATM   17  C   UNL     1       6.265  10.833   2.070  1.00  0.00     0.049 C 
ENDBRANCH   4  10
TORSDOF 1
ENDMDL
MODEL 7
REMARK VINA RESULT:    -5.503     32.427     34.698
REMARK INTER + INTRA:          -6.179
REMARK INTER:                  -5.921
REMARK INTRA:                  -0.258
REMARK UNBOUND:                -0.355
REMARK  1 active torsions:
REMARK  status: ('A' for Active; 'I' for Inactive)
REMARK    1  A    between atoms: C_3  and  N_6 
ROOT
HETATM    1  C   UNL     1      22.772  -0.676  24.186  1.00  0.00     0.005 C 
HETATM    2  H   UNL     1      20.462  -3.033  25.858  1.00  0.00     0.166 HD
HETATM    3  C   UNL     1      21.556  -0.239  24.685  1.00  0.00     0.017 C 
HETATM    4  N   UNL     1      22.556  -3.935  25.908  1.00  0.00    -0.329 N 
HETATM    5  C   UNL     1      20.760  -1.056  25.422  1.00  0.00     0.089 C 
HETATM    6  C   UNL     1      23.220  -1.884  24.665  1.00  0.00     0.048 C 
HETATM    7  N   UNL     1      21.126  -2.338  25.609  1.00  0.00    -0.352 N 
HETATM    8  C   UNL     1      22.373  -2.747  25.363  1.00  0.00     0.106 C 
HETATM    9  H   UNL     1      21.903  -4.379  26.532  1.00  0.00     0.169 HD
ENDROOT
BRANCH   4  10
HETATM   10  C   UNL     1      23.658  -4.701  25.891  1.00  0.00     0.108 C 
HETATM   11  N   UNL     1      23.530  -5.737  24.941  1.00  0.00    -0.319 N 
HETATM   12  C   UNL     1      24.135  -6.838  25.302  1.00  0.00     0.189 C 
HETATM   13  H   UNL     1      22.994  -5.743  24.090  1.00  0.00     0.169 HD
HETATM   14  F   UNL     1      23.798  -7.903  24.596  1.00  0.00    -0.186 F 
HETATM   15  C   UNL     1      25.110  -6.929  26.264  1.00  0.00     0.061 C 
HETATM   16  C   UNL     1      25.395  -5.786  27.000  1.00  0.00     0.008 C 
HETATM   17  C   UNL     1      24.712  -4.634  26.743  1.00  0.00     0.049 C 
ENDBRANCH   4  10
TORSDOF 1
ENDMDL
MODEL 8
REMARK VINA RESULT:    -5.464     25.443     27.377
REMARK INTER + INTRA:          -6.139
REMARK INTER:                  -5.785
REMARK INTRA:                  -0.354
REMARK UNBOUND:                -0.355
REMARK  1 active torsions:
REMARK  status: ('A' for Active; 'I' for Inactive)
REMARK    1  A    between atoms: C_3  and  N_6 
ROOT
HETATM    1  C   UNL     1      11.943   0.047  24.772  1.00  0.00     0.005 C 
HETATM    2  H   UNL     1      12.471  -2.695  22.345  1.00  0.00     0.166 HD
HETATM    3  C   UNL     1      13.224  -0.345  24.417  1.00  0.00     0.017 C 
HETATM    4  N   UNL     1      10.361  -1.881  22.050  1.00  0.00    -0.329 N 
HETATM    5  C   UNL     1      13.436  -1.251  23.428  1.00  0.00     0.089 C 
HETATM    6  C   UNL     1      10.935  -0.350  23.927  1.00  0.00     0.048 C 
HETATM    7  N   UNL     1      12.379  -1.833  22.830  1.00  0.00    -0.352 N 
HETATM    8  C   UNL     1      11.148  -1.333  22.957  1.00  0.00     0.106 C 
HETATM    9  H   UNL     1      10.685  -2.463  21.296  1.00  0.00     0.169 HD
ENDROOT
BRANCH   4  10
HETATM   10  C   UNL     1       9.054  -1.663  21.838  1.00  0.00     0.108 C 
HETATM   11  N   UNL     1       8.867  -0.669  20.853  1.00  0.00    -0.319 N 
HETATM   12  C   UNL     1       7.805   0.064  21.063  1.00  0.00     0.189 C 
HETATM   13  H   UNL     1       9.469  -0.430  20.084  1.00  0.00     0.169 HD
HETATM   14  F   UNL     1       7.757   1.173  20.345  1.00  0.00    -0.186 F 
HETATM   15  C   UNL     1       6.754  -0.276  21.877  1.00  0.00     0.061 C 
HETATM   16  C   UNL     1       6.878  -1.434  22.636  1.00  0.00     0.008 C 
HETATM   17  C   UNL     1       8.015  -2.180  22.543  1.00  0.00     0.049 C 
ENDBRANCH   4  10
TORSDOF 1
ENDMDL
MODEL 9
REMARK VINA RESULT:    -5.405     27.374     28.800
REMARK INTER + INTRA:          -6.076
REMARK INTER:                  -5.840
REMARK INTRA:                  -0.236
REMARK UNBOUND:                -0.355
REMARK  1 active torsions:
REMARK  status: ('A' for Active; 'I' for Inactive)
REMARK    1  A    between atoms: C_3  and  N_6 
ROOT
HETATM    1  C   UNL     1      10.415  -0.761  24.642  1.00  0.00     0.005 C 
HETATM    2  H   UNL     1      10.592  -2.180  21.230  1.00  0.00     0.166 HD
HETATM    3  C   UNL     1      11.244  -0.198  23.684  1.00  0.00     0.017 C 
HETATM    4  N   UNL     1       8.634  -2.861  22.182  1.00  0.00    -0.329 N 
HETATM    5  C   UNL     1      11.218  -0.617  22.394  1.00  0.00     0.089 C 
HETATM    6  C   UNL     1       9.425  -1.588  24.170  1.00  0.00     0.048 C 
HETATM    7  N   UNL     1      10.423  -1.650  22.052  1.00  0.00    -0.352 N 
HETATM    8  C   UNL     1       9.445  -2.069  22.859  1.00  0.00     0.106 C 
HETATM    9  H   UNL     1       8.673  -2.995  21.186  1.00  0.00     0.169 HD
ENDROOT
BRANCH   4  10
HETATM   10  C   UNL     1       7.534  -3.496  22.616  1.00  0.00     0.108 C 
HETATM   11  N   UNL     1       7.758  -4.888  22.683  1.00  0.00    -0.319 N 
HETATM   12  C   UNL     1       6.689  -5.590  22.411  1.00  0.00     0.189 C 
HETATM   13  H   UNL     1       8.622  -5.377  22.842  1.00  0.00     0.169 HD
HETATM   14  F   UNL     1       6.921  -6.870  22.176  1.00  0.00    -0.186 F 
HETATM   15  C   UNL     1       5.401  -5.118  22.439  1.00  0.00     0.061 C 
HETATM   16  C   UNL     1       5.220  -3.757  22.652  1.00  0.00     0.008 C 
HETATM   17  C   UNL     1       6.309  -2.955  22.829  1.00  0.00     0.049 C 
ENDBRANCH   4  10
TORSDOF 1
ENDMDL
