
 OpenBabel07202414173D

 39 42  0  0  1  0  0  0  0  0999 V2000
    9.9441    4.8161   -1.2672 Cl  0  0  0  0  0  0  0  0  0  0  0  0
    9.0890    3.4046   -0.7572 C   0  0  0  0  0  0  0  0  0  0  0  0
    9.5861    2.1635   -1.1701 C   0  0  0  0  0  0  0  0  0  0  0  0
    8.9256    0.9940   -0.8011 C   0  0  0  0  0  0  0  0  0  0  0  0
    7.7752    1.0397   -0.0089 C   0  0  0  0  0  0  0  0  0  0  0  0
    7.2878    2.2869    0.4130 C   0  0  0  0  0  0  0  0  0  0  0  0
    7.9369    3.4678    0.0345 C   0  0  0  0  0  0  0  0  0  0  0  0
    7.2722    4.9646    0.5823 Cl  0  0  0  0  0  0  0  0  0  0  0  0
    7.1104   -0.2450    0.4280 C   0  0  3  0  0  0  0  0  0  0  0  0
    7.4589   -0.6322    1.8741 C   0  0  0  0  0  0  0  0  0  0  0  0
    6.5660   -0.6939    2.7148 O   0  0  0  0  0  0  0  0  0  0  0  0
    8.7960   -0.8987    2.0913 N   0  0  0  0  0  0  0  0  0  0  0  0
    9.4242   -1.2231    3.3232 C   0  0  0  0  0  0  0  0  0  0  0  0
    8.7280   -1.3133    4.5291 C   0  0  0  0  0  0  0  0  0  0  0  0
    9.3104   -1.4611    5.7416 N   0  0  0  0  0  0  0  0  0  0  0  0
   10.6532   -1.5718    5.7552 C   0  0  0  0  0  0  0  0  0  0  0  0
   11.4546   -1.6102    4.6162 C   0  0  0  0  0  0  0  0  0  0  0  0
   12.8387   -1.8410    4.7160 C   0  0  0  0  0  0  0  0  0  0  0  0
   13.6317   -1.9196    3.5749 C   0  0  0  0  0  0  0  0  0  0  0  0
   13.0544   -1.7438    2.3254 C   0  0  0  0  0  0  0  0  0  0  0  0
   11.6816   -1.4992    2.2161 C   0  0  0  0  0  0  0  0  0  0  0  0
   10.8359   -1.4311    3.3563 C   0  0  0  0  0  0  0  0  0  0  0  0
    7.3784   -1.3965   -0.5370 C   0  0  0  0  0  0  0  0  0  0  0  0
    8.8062   -1.4422   -1.0216 C   0  0  0  0  0  0  0  0  0  0  0  0
    9.3755   -2.4909   -1.3066 O   0  0  0  0  0  0  0  0  0  0  0  0
    9.4422   -0.2430   -1.1932 N   0  0  0  0  0  0  0  0  0  0  0  0
   10.4820    2.1228   -1.7868 H   0  0  0  0  0  0  0  0  0  0  0  0
    6.4014    2.3399    1.0441 H   0  0  0  0  0  0  0  0  0  0  0  0
    6.0248   -0.0750    0.4136 H   0  0  0  0  0  0  0  0  0  0  0  0
    9.4244   -0.7281    1.3221 H   0  0  0  0  0  0  0  0  0  0  0  0
    7.6465   -1.2595    4.5859 H   0  0  0  0  0  0  0  0  0  0  0  0
   11.0834   -1.6460    6.7511 H   0  0  0  0  0  0  0  0  0  0  0  0
   13.3033   -1.9914    5.6888 H   0  0  0  0  0  0  0  0  0  0  0  0
   14.6940   -2.1333    3.6617 H   0  0  0  0  0  0  0  0  0  0  0  0
   13.6666   -1.8157    1.4294 H   0  0  0  0  0  0  0  0  0  0  0  0
   11.2851   -1.4084    1.2095 H   0  0  0  0  0  0  0  0  0  0  0  0
    6.7536   -1.2840   -1.4320 H   0  0  0  0  0  0  0  0  0  0  0  0
    7.1300   -2.3586   -0.0748 H   0  0  0  0  0  0  0  0  0  0  0  0
   10.3390   -0.2943   -1.6656 H   0  0  0  0  0  0  0  0  0  0  0  0
  1  2  1  0  0  0  0
  2  3  1  0  0  0  0
  2  7  2  0  0  0  0
  3  4  2  0  0  0  0
  3 27  1  0  0  0  0
  4  5  1  0  0  0  0
  4 26  1  0  0  0  0
  5  6  2  0  0  0  0
  5  9  1  0  0  0  0
  6  7  1  0  0  0  0
  6 28  1  0  0  0  0
  7  8  1  0  0  0  0
  9 10  1  0  0  0  0
  9 23  1  0  0  0  0
  9 29  1  0  0  0  0
 10 11  2  0  0  0  0
 10 12  1  0  0  0  0
 12 13  1  0  0  0  0
 12 30  1  0  0  0  0
 13 14  1  0  0  0  0
 13 22  2  0  0  0  0
 14 15  2  0  0  0  0
 14 31  1  0  0  0  0
 15 16  1  0  0  0  0
 16 17  2  0  0  0  0
 16 32  1  0  0  0  0
 17 18  1  0  0  0  0
 17 22  1  0  0  0  0
 18 19  2  0  0  0  0
 18 33  1  0  0  0  0
 19 20  1  0  0  0  0
 19 34  1  0  0  0  0
 20 21  2  0  0  0  0
 20 35  1  0  0  0  0
 21 22  1  0  0  0  0
 21 36  1  0  0  0  0
 23 24  1  0  0  0  0
 23 37  1  0  0  0  0
 23 38  1  0  0  0  0
 24 25  2  0  0  0  0
 24 26  1  0  0  0  0
 26 39  1  0  0  0  0
M  END
$$$$
