REMARK  6 active torsions:
REMARK  status: ('A' for Active; 'I' for Inactive)
REMARK    1  A    between atoms: C_6  and  C_7 
REMARK    2  A    between atoms: C_7  and  C_10 
REMARK    3  A    between atoms: C_7  and  C_8 
REMARK    4  A    between atoms: C_10  and  N_11 
REMARK    5  A    between atoms: N_11  and  O_12 
REMARK    6  A    between atoms: O_12  and  C_13 
ROOT
HETATM    1  H   UNL     1       7.374  -4.203  25.433  1.00  0.00     0.146 HD
HETATM    2  N   UNL     1       8.192  -4.225  26.007  1.00  0.00    -0.439 N 
HETATM    3  H   UNL     1       9.076  -4.440  25.611  1.00  0.00     0.146 HD
HETATM    4  H   UNL     1       8.014  -4.267  26.959  1.00  0.00     0.146 HD
ENDROOT
TORSDOF 6
