stable:False satoms:12 tatoms:24 sratio:0.5
  -OEChem-07092417383D

 24 24  0     1  0  0  0  0  0999 V2000
    6.7413   -4.6025   26.3477 F   0  0  0  0  0  0  0  0  0  0  0  0
    8.0780   -4.2880   25.9664 C   0  0  0  0  0  0  0  0  0  0  0  0
    8.6878   -5.4580   25.8970 O   0  0  0  0  0  0  0  0  0  0  0  0
    8.5521   -3.4955   26.8398 O   0  0  0  0  0  0  0  0  0  0  0  0
    7.9627   -3.6374   24.6341 N   0  0  0  0  0  0  0  0  0  0  0  0
    8.8761   -3.0785   24.2540 C   0  0  0  0  0  0  0  0  0  0  0  0
    9.6222   -2.4793   23.7698 C   0  0  0  0  0  0  0  0  0  0  0  0
   10.3276   -1.5491   23.1575 C   0  0  3  0  0  0  0  0  0  0  0  0
   11.3740    0.0930   23.1784 C   0  0  0  0  0  0  0  0  0  0  0  0
   12.5738   -0.0630   23.4514 C   0  5  0  0  0  0  0  0  0  0  0  0
   13.3098    0.4786   23.9010 H   0  0  0  0  0  0  0  0  0  0  0  0
   12.8350   -0.9855   23.0600 H   0  0  0  0  0  0  0  0  0  0  0  0
   11.1509   -2.2367   23.3792 O   0  0  0  0  0  0  0  0  0  0  0  0
   10.3131   -0.2497   22.5692 C   0  0  0  0  0  0  0  0  0  0  0  0
    9.4093    0.2613   21.4157 C   0  0  0  0  0  0  0  0  0  0  0  0
    9.7240    1.1958   20.7726 O   0  0  0  0  0  0  0  0  0  0  0  0
    8.3013   -0.4057   21.1380 N   0  0  0  0  0  0  0  0  0  0  0  0
    7.7772   -0.0810   20.1440 C   0  0  0  0  0  0  0  0  0  0  0  0
    6.6155    0.2440   19.7962 C   0  0  0  0  0  0  0  0  0  0  0  0
    5.9811    0.8679   17.8391 H   0  0  0  0  0  0  0  0  0  0  0  0
    5.6449    0.7097   18.8017 C   0  5  0  0  0  0  0  0  0  0  0  0
    4.6438    0.8845   18.9251 H   0  0  0  0  0  0  0  0  0  0  0  0
    5.7646    0.3053   20.5905 C   0  0  0  0  0  2  0  0  0  0  0  0
    5.3180    0.2797   21.4684 H   0  0  0  0  0  0  0  0  0  0  0  0
 20 21  1  0  0  0  0
 21 22  1  0  0  0  0
 19 21  1  0  0  0  0
 18 19  2  0  0  0  0
 19 23  1  0  0  0  0
 17 18  1  0  0  0  0
 23 24  1  0  0  0  0
 15 16  2  0  0  0  0
 15 17  1  0  0  0  0
 14 15  1  0  0  0  0
  8 14  1  0  0  0  0
  9 14  2  3  0  0  0
 10 12  1  0  0  0  0
  8 13  1  0  0  0  0
  7  8  1  0  0  0  0
  9 10  1  0  0  0  0
  7 13  1  0  0  0  0
 10 11  1  0  0  0  0
  6  7  2  3  0  0  0
  5  6  1  0  0  0  0
  2  5  1  0  0  0  0
  2  3  1  0  0  0  0
  1  2  1  0  0  0  0
  2  4  1  0  0  0  0
M  CHG  2  10  -1  21  -1
M  END
> <Shapegauss>
-207.540054

$$$$
