stable:False satoms:12 tatoms:24 sratio:0.5
  -OEChem-08062407503D

 34 34  0     1  0  0  0  0  0999 V2000
    6.4797   -3.6492   23.4135 F   0  0  0  0  0  0  0  0  0  0  0  0
    7.8551   -3.6887   23.0424 C   0  0  0  0  0  0  0  0  0  0  0  0
    7.8623   -4.2668   21.8544 O   0  0  0  0  0  0  0  0  0  0  0  0
    8.4803   -4.3283   23.9456 O   0  0  0  0  0  0  0  0  0  0  0  0
    8.2838   -2.2663   22.9749 N   0  0  0  0  0  0  0  0  0  0  0  0
    9.4021   -2.0672   22.9442 C   0  0  0  0  0  0  0  0  0  0  0  0
   10.4111   -1.7038   22.9523 C   0  0  0  0  0  0  0  0  0  0  0  0
   11.5585   -1.0969   23.1822 C   0  0  3  0  0  0  0  0  0  0  0  0
   13.2198   -0.9036   24.1796 C   0  0  0  0  0  0  0  0  0  0  0  0
   14.1468   -1.6261   23.7833 C   0  0  0  0  0  0  0  0  0  0  0  0
   14.8583   -1.0228   23.2004 H   0  0  0  0  0  0  0  0  0  0  0  0
   14.6633   -2.0681   24.6480 H   0  0  0  0  0  0  0  0  0  0  0  0
   11.9225   -1.8300   22.4544 O   0  0  0  0  0  0  0  0  0  0  0  0
   12.2436   -0.1198   23.9637 C   0  0  0  0  0  0  0  0  0  0  0  0
   11.8900    1.3821   24.1305 C   0  0  0  0  0  0  0  0  0  0  0  0
   12.7042    2.1576   24.4794 O   0  0  0  0  0  0  0  0  0  0  0  0
   10.6665    1.7812   23.8245 N   0  0  0  0  0  0  0  0  0  0  0  0
   10.5309    2.9424   23.7894 C   0  0  0  0  0  0  0  0  0  0  0  0
    9.7275    3.7762   24.2749 C   0  0  0  0  0  0  0  0  0  0  0  0
    8.3508    5.1326   25.1109 H   0  0  0  0  0  0  0  0  0  0  0  0
    9.2674    5.1488   24.5029 C   0  0  0  0  0  0  0  0  0  0  0  0
    9.0576    5.6304   23.5364 H   0  0  0  0  0  0  0  0  0  0  0  0
    8.8762    3.4195   24.9868 C   0  0  0  0  0  2  0  0  0  0  0  0
    8.3230    2.8144   25.5332 H   0  0  0  0  0  0  0  0  0  0  0  0
    7.5835   -5.1709   21.9400 H   0  0  0  0  0  0  0  0  0  0  0  0
    8.1818   -5.2301   23.9598 H   0  0  0  0  0  0  0  0  0  0  0  0
    7.9163   -1.8015   23.7804 H   0  0  0  0  0  0  0  0  0  0  0  0
    9.6731   -3.0900   22.7276 H   0  0  0  0  0  0  0  0  0  0  0  0
   11.3590   -0.3603   22.3900 H   0  0  0  0  0  0  0  0  0  0  0  0
   13.2661   -0.9794   25.2559 H   0  0  0  0  0  0  0  0  0  0  0  0
   13.7409   -2.4283   23.1494 H   0  0  0  0  0  0  0  0  0  0  0  0
    9.9195    1.1429   23.6387 H   0  0  0  0  0  0  0  0  0  0  0  0
   11.2895    3.4184   23.1858 H   0  0  0  0  0  0  0  0  0  0  0  0
   10.0485    5.7141   25.0323 H   0  0  0  0  0  0  0  0  0  0  0  0
 20 21  1  0  0  0  0
 21 22  1  0  0  0  0
 19 21  1  0  0  0  0
 18 19  2  0  0  0  0
 19 23  1  0  0  0  0
 17 18  1  0  0  0  0
 23 24  1  0  0  0  0
 15 16  2  0  0  0  0
 15 17  1  0  0  0  0
 14 15  1  0  0  0  0
  8 14  1  0  0  0  0
  9 14  2  3  0  0  0
 10 12  1  0  0  0  0
  8 13  1  0  0  0  0
  7  8  1  0  0  0  0
  9 10  1  0  0  0  0
  7 13  1  0  0  0  0
 10 11  1  0  0  0  0
  6  7  2  3  0  0  0
  5  6  1  0  0  0  0
  2  5  1  0  0  0  0
  2  3  1  0  0  0  0
  1  2  1  0  0  0  0
  2  4  1  0  0  0  0
  3 25  1  0  0  0  0
  4 26  1  0  0  0  0
  5 27  1  0  0  0  0
  6 28  1  0  0  0  0
  8 29  1  0  0  0  0
  9 30  1  0  0  0  0
 10 31  1  0  0  0  0
 17 32  1  0  0  0  0
 18 33  1  0  0  0  0
 21 34  1  0  0  0  0
M  END
> <Chemgauss4>
-6.384840

$$$$
