stable:False satoms:12 tatoms:24 sratio:0.5
  -OEChem-08062407503D

 34 34  0     1  0  0  0  0  0999 V2000
   -6.6364   -4.4095  -24.4441 F   0  0  0  0  0  0  0  0  0  0  0  0
   -7.9341   -4.2520  -23.8764 C   0  0  0  0  0  0  0  0  0  0  0  0
   -7.8757   -4.9029  -22.7281 O   0  0  0  0  0  0  0  0  0  0  0  0
   -8.7773   -4.7174  -24.7059 O   0  0  0  0  0  0  0  0  0  0  0  0
   -8.1012   -2.7872  -23.6811 N   0  0  0  0  0  0  0  0  0  0  0  0
   -9.1543   -2.4126  -23.4767 C   0  0  0  0  0  0  0  0  0  0  0  0
  -10.0782   -1.8912  -23.3192 C   0  0  0  0  0  0  0  0  0  0  0  0
  -11.1263   -1.0922  -23.3492 C   0  0  3  0  0  0  0  0  0  0  0  0
  -12.8518   -0.5637  -24.0807 C   0  0  0  0  0  0  0  0  0  0  0  0
  -13.8246   -1.1527  -23.5856 C   0  0  0  0  0  0  0  0  0  0  0  0
  -14.3359   -0.4845  -22.8770 H   0  0  0  0  0  0  0  0  0  0  0  0
  -14.5229   -1.4438  -24.3840 H   0  0  0  0  0  0  0  0  0  0  0  0
  -11.5058   -1.8059  -22.6101 O   0  0  0  0  0  0  0  0  0  0  0  0
  -11.7362    0.0350  -23.9754 C   0  0  0  0  0  0  0  0  0  0  0  0
  -11.1588    1.4679  -24.1234 C   0  0  0  0  0  0  0  0  0  0  0  0
  -11.8695    2.3872  -24.3123 O   0  0  0  0  0  0  0  0  0  0  0  0
   -9.8550    1.6416  -23.9832 N   0  0  0  0  0  0  0  0  0  0  0  0
   -9.5204    2.7603  -23.9151 C   0  0  0  0  0  0  0  0  0  0  0  0
   -8.6616    3.4851  -24.4750 C   0  0  0  0  0  0  0  0  0  0  0  0
   -7.2029    4.6562  -25.4417 H   0  0  0  0  0  0  0  0  0  0  0  0
   -8.0107    4.7778  -24.7051 C   0  0  0  0  0  0  0  0  0  0  0  0
   -7.5910    5.1504  -23.7590 H   0  0  0  0  0  0  0  0  0  0  0  0
   -7.9897    3.0461  -25.3203 C   0  0  0  0  0  2  0  0  0  0  0  0
   -7.6281    2.3992  -25.9695 H   0  0  0  0  0  0  0  0  0  0  0  0
   -7.7691   -5.8320  -22.8953 H   0  0  0  0  0  0  0  0  0  0  0  0
   -8.6413   -5.6523  -24.8054 H   0  0  0  0  0  0  0  0  0  0  0  0
   -7.7745   -2.3328  -24.5099 H   0  0  0  0  0  0  0  0  0  0  0  0
   -9.5628   -3.3907  -23.2698 H   0  0  0  0  0  0  0  0  0  0  0  0
  -10.6973   -0.4548  -22.5621 H   0  0  0  0  0  0  0  0  0  0  0  0
  -13.0582   -0.5556  -25.1408 H   0  0  0  0  0  0  0  0  0  0  0  0
  -13.4777   -2.0523  -23.0561 H   0  0  0  0  0  0  0  0  0  0  0  0
   -9.2090    0.8795  -23.9390 H   0  0  0  0  0  0  0  0  0  0  0  0
  -10.0966    3.3093  -23.1850 H   0  0  0  0  0  0  0  0  0  0  0  0
   -8.7497    5.4975  -25.0869 H   0  0  0  0  0  0  0  0  0  0  0  0
 20 21  1  0  0  0  0
 21 22  1  0  0  0  0
 19 21  1  0  0  0  0
 18 19  2  0  0  0  0
 19 23  1  0  0  0  0
 17 18  1  0  0  0  0
 23 24  1  0  0  0  0
 15 16  2  0  0  0  0
 15 17  1  0  0  0  0
 14 15  1  0  0  0  0
  8 14  1  0  0  0  0
  9 14  2  3  0  0  0
 10 12  1  0  0  0  0
  8 13  1  0  0  0  0
  7  8  1  0  0  0  0
  9 10  1  0  0  0  0
  7 13  1  0  0  0  0
 10 11  1  0  0  0  0
  6  7  2  3  0  0  0
  5  6  1  0  0  0  0
  2  5  1  0  0  0  0
  2  3  1  0  0  0  0
  1  2  1  0  0  0  0
  2  4  1  0  0  0  0
  3 25  1  0  0  0  0
  4 26  1  0  0  0  0
  5 27  1  0  0  0  0
  6 28  1  0  0  0  0
  8 29  1  0  0  0  0
  9 30  1  0  0  0  0
 10 31  1  0  0  0  0
 17 32  1  0  0  0  0
 18 33  1  0  0  0  0
 21 34  1  0  0  0  0
M  END
> <Chemgauss4>
-6.581739

$$$$
