MODEL 1
REMARK VINA RESULT:    -7.354      0.000      0.000
REMARK INTER + INTRA:         -11.567
REMARK INTER:                 -10.364
REMARK INTRA:                  -1.203
REMARK UNBOUND:                -1.203
REMARK  7 active torsions:
REMARK  status: ('A' for Active; 'I' for Inactive)
REMARK    1  A    between atoms: S_2  and  N_5 
REMARK    2  A    between atoms: N_5  and  C_7 
REMARK    3  A    between atoms: C_7  and  C_8 
REMARK    4  A    between atoms: C_8  and  C_9 
REMARK    5  A    between atoms: C_9  and  C_15 
REMARK    6  A    between atoms: C_15  and  C_16 
REMARK       I    between atoms: C_16  and  N_18 
REMARK    7  A    between atoms: N_18  and  C_20 
ROOT
HETATM    1  C   UNL     1       9.508  -1.501  23.323  1.00  0.00     0.068 A 
HETATM    2  C   UNL     1       9.733  -0.384  24.533  1.00  0.00     0.000 A 
HETATM    3  C   UNL     1      10.712   0.089  24.809  1.00  0.00    -0.002 A 
HETATM    4  C   UNL     1      11.963  -0.195  24.241  1.00  0.00    -0.001 A 
HETATM    5  C   UNL     1      11.941  -1.080  23.367  1.00  0.00    -0.002 A 
HETATM    6  C   UNL     1      11.130  -1.720  22.915  1.00  0.00     0.000 A 
ENDROOT
BRANCH   1   7
HETATM    7  C   UNL     1       8.680  -2.530  23.358  1.00  0.00     0.135 C 
BRANCH   7   8
HETATM    8  C   UNL     1       8.137  -3.463  22.969  1.00  0.00    -0.058 C 
BRANCH   8   9
HETATM    9  N   UNL     1       7.673  -4.283  22.231  1.00  0.00    -0.254 N 
ATOM     10  HN  UNL     1       8.341  -4.906  21.777  1.00  0.00     0.188 HD
BRANCH   9  11
HETATM   11  S   UNL     1       6.124  -4.524  21.868  1.00  0.00     0.233 S 
HETATM   12  C   UNL     1       5.431  -5.046  23.333  1.00  0.00     0.186 C 
HETATM   13  O   UNL     1       5.519  -3.257  21.510  1.00  0.00    -0.206 OA
HETATM   14  O   UNL     1       5.918  -5.498  20.822  1.00  0.00    -0.206 OA
ENDBRANCH   9  11
ENDBRANCH   8   9
ENDBRANCH   7   8
ENDBRANCH   1   7
BRANCH   1  15
HETATM   15  C   UNL     1       8.994  -0.957  22.359  1.00  0.00    -0.064 C 
BRANCH  15  16
HETATM   16  C   UNL     1       8.469  -0.371  21.302  1.00  0.00     0.290 C 
HETATM   17  O   UNL     1       9.216   0.246  20.702  1.00  0.00    -0.259 OA
HETATM   18  N   UNL     1       7.169  -0.629  21.153  1.00  0.00    -0.314 N 
ATOM     19  HN  UNL     1       6.667  -1.198  21.835  1.00  0.00     0.170 HD
BRANCH  18  20
HETATM   20  C   UNL     1       6.577  -0.155  20.151  1.00  0.00     0.072 A 
HETATM   21  C   UNL     1       6.212  -0.524  18.920  1.00  0.00     0.119 A 
HETATM   22  N   UNL     1       5.732  -0.432  17.817  1.00  0.00    -0.373 N 
HETATM   23  C   UNL     1       5.234   0.844  18.068  1.00  0.00     0.089 A 
ATOM     24  HN  UNL     1       5.703  -1.052  17.008  1.00  0.00     0.164 HD
HETATM   25  C   UNL     1       5.329   1.494  19.023  1.00  0.00     0.043 A 
HETATM   26  C   UNL     1       5.911   1.263  20.205  1.00  0.00     0.063 A 
HETATM   27 CL   UNL     1       5.977   2.190  21.441  1.00  0.00    -0.082 Cl
ENDBRANCH  18  20
ENDBRANCH  15  16
ENDBRANCH   1  15
TORSDOF 7
ENDMDL
MODEL 2
REMARK VINA RESULT:    -6.960      2.865      5.776
REMARK INTER + INTRA:         -11.011
REMARK INTER:                  -9.977
REMARK INTRA:                  -1.034
REMARK UNBOUND:                -1.203
REMARK  7 active torsions:
REMARK  status: ('A' for Active; 'I' for Inactive)
REMARK    1  A    between atoms: S_2  and  N_5 
REMARK    2  A    between atoms: N_5  and  C_7 
REMARK    3  A    between atoms: C_7  and  C_8 
REMARK    4  A    between atoms: C_8  and  C_9 
REMARK    5  A    between atoms: C_9  and  C_15 
REMARK    6  A    between atoms: C_15  and  C_16 
REMARK       I    between atoms: C_16  and  N_18 
REMARK    7  A    between atoms: N_18  and  C_20 
ROOT
HETATM    1  C   UNL     1      10.396  -0.690  23.367  1.00  0.00     0.068 A 
HETATM    2  C   UNL     1      11.682  -1.572  22.791  1.00  0.00     0.000 A 
HETATM    3  C   UNL     1      12.744  -1.479  23.140  1.00  0.00    -0.002 A 
HETATM    4  C   UNL     1      13.231  -0.568  24.089  1.00  0.00    -0.001 A 
HETATM    5  C   UNL     1      12.372   0.208  24.544  1.00  0.00    -0.002 A 
HETATM    6  C   UNL     1      11.267   0.351  24.367  1.00  0.00     0.000 A 
ENDROOT
BRANCH   1   7
HETATM    7  C   UNL     1       9.378  -0.241  22.654  1.00  0.00     0.135 C 
BRANCH   7   8
HETATM    8  C   UNL     1       8.499  -0.292  21.918  1.00  0.00    -0.058 C 
BRANCH   8   9
HETATM    9  N   UNL     1       7.660  -0.717  21.178  1.00  0.00    -0.254 N 
ATOM     10  HN  UNL     1       7.366  -1.680  21.341  1.00  0.00     0.188 HD
BRANCH   9  11
HETATM   11  S   UNL     1       6.940   0.045  19.957  1.00  0.00     0.233 S 
HETATM   12  C   UNL     1       5.632  -0.967  19.551  1.00  0.00     0.186 C 
HETATM   13  O   UNL     1       6.404   1.304  20.434  1.00  0.00    -0.206 OA
HETATM   14  O   UNL     1       7.801   0.260  18.818  1.00  0.00    -0.206 OA
ENDBRANCH   9  11
ENDBRANCH   8   9
ENDBRANCH   7   8
ENDBRANCH   1   7
BRANCH   1  15
HETATM   15  C   UNL     1       9.729  -1.388  24.116  1.00  0.00    -0.064 C 
BRANCH  15  16
HETATM   16  C   UNL     1       9.033  -2.137  24.947  1.00  0.00     0.290 C 
HETATM   17  O   UNL     1       8.711  -1.592  25.894  1.00  0.00    -0.259 OA
HETATM   18  N   UNL     1       8.846  -3.379  24.499  1.00  0.00    -0.314 N 
ATOM     19  HN  UNL     1       9.252  -3.682  23.614  1.00  0.00     0.170 HD
BRANCH  18  20
HETATM   20  C   UNL     1       8.157  -4.167  25.195  1.00  0.00     0.072 A 
HETATM   21  C   UNL     1       8.301  -4.987  26.239  1.00  0.00     0.119 A 
HETATM   22  N   UNL     1       7.994  -5.791  27.084  1.00  0.00    -0.373 N 
HETATM   23  C   UNL     1       6.650  -5.762  26.719  1.00  0.00     0.089 A 
ATOM     24  HN  UNL     1       8.519  -6.299  27.795  1.00  0.00     0.164 HD
HETATM   25  C   UNL     1       6.134  -5.162  25.873  1.00  0.00     0.043 A 
HETATM   26  C   UNL     1       6.609  -4.287  24.980  1.00  0.00     0.063 A 
HETATM   27 CL   UNL     1       5.836  -3.513  23.888  1.00  0.00    -0.082 Cl
ENDBRANCH  18  20
ENDBRANCH  15  16
ENDBRANCH   1  15
TORSDOF 7
ENDMDL
MODEL 3
REMARK VINA RESULT:    -6.671      2.293      2.361
REMARK INTER + INTRA:         -10.604
REMARK INTER:                  -9.733
REMARK INTRA:                  -0.872
REMARK UNBOUND:                -1.203
REMARK  7 active torsions:
REMARK  status: ('A' for Active; 'I' for Inactive)
REMARK    1  A    between atoms: S_2  and  N_5 
REMARK    2  A    between atoms: N_5  and  C_7 
REMARK    3  A    between atoms: C_7  and  C_8 
REMARK    4  A    between atoms: C_8  and  C_9 
REMARK    5  A    between atoms: C_9  and  C_15 
REMARK    6  A    between atoms: C_15  and  C_16 
REMARK       I    between atoms: C_16  and  N_18 
REMARK    7  A    between atoms: N_18  and  C_20 
ROOT
HETATM    1  C   UNL     1       9.917  -1.196  23.805  1.00  0.00     0.068 A 
HETATM    2  C   UNL     1      10.373   0.052  24.805  1.00  0.00     0.000 A 
HETATM    3  C   UNL     1      11.410   0.470  24.893  1.00  0.00    -0.002 A 
HETATM    4  C   UNL     1      12.555   0.003  24.231  1.00  0.00    -0.001 A 
HETATM    5  C   UNL     1      12.359  -0.987  23.504  1.00  0.00    -0.002 A 
HETATM    6  C   UNL     1      11.454  -1.610  23.247  1.00  0.00     0.000 A 
ENDROOT
BRANCH   1   7
HETATM    7  C   UNL     1       9.030  -2.134  24.086  1.00  0.00     0.135 C 
BRANCH   7   8
HETATM    8  C   UNL     1       8.613  -3.198  24.185  1.00  0.00    -0.058 C 
BRANCH   8   9
HETATM    9  N   UNL     1       8.072  -4.170  24.625  1.00  0.00    -0.254 N 
ATOM     10  HN  UNL     1       7.748  -4.852  23.938  1.00  0.00     0.188 HD
BRANCH   9  11
HETATM   11  S   UNL     1       7.793  -4.535  26.167  1.00  0.00     0.233 S 
HETATM   12  C   UNL     1       6.589  -3.430  26.643  1.00  0.00     0.186 C 
HETATM   13  O   UNL     1       7.235  -5.870  26.245  1.00  0.00    -0.206 OA
HETATM   14  O   UNL     1       8.960  -4.424  27.010  1.00  0.00    -0.206 OA
ENDBRANCH   9  11
ENDBRANCH   8   9
ENDBRANCH   7   8
ENDBRANCH   1   7
BRANCH   1  15
HETATM   15  C   UNL     1       9.323  -0.745  22.838  1.00  0.00    -0.064 C 
BRANCH  15  16
HETATM   16  C   UNL     1       8.690  -0.287  21.777  1.00  0.00     0.290 C 
HETATM   17  O   UNL     1       9.381   0.155  20.986  1.00  0.00    -0.259 OA
HETATM   18  N   UNL     1       7.367  -0.443  21.851  1.00  0.00    -0.314 N 
ATOM     19  HN  UNL     1       6.934  -0.847  22.682  1.00  0.00     0.170 HD
BRANCH  18  20
HETATM   20  C   UNL     1       6.668  -0.080  20.872  1.00  0.00     0.072 A 
HETATM   21  C   UNL     1       6.091  -0.605  19.788  1.00  0.00     0.119 A 
HETATM   22  N   UNL     1       5.457  -0.645  18.762  1.00  0.00    -0.373 N 
HETATM   23  C   UNL     1       5.103   0.699  18.851  1.00  0.00     0.089 A 
ATOM     24  HN  UNL     1       5.257  -1.382  18.087  1.00  0.00     0.164 HD
HETATM   25  C   UNL     1       5.394   1.482  19.654  1.00  0.00     0.043 A 
HETATM   26  C   UNL     1       6.130   1.389  20.767  1.00  0.00     0.063 A 
HETATM   27 CL   UNL     1       6.456   2.492  21.799  1.00  0.00    -0.082 Cl
ENDBRANCH  18  20
ENDBRANCH  15  16
ENDBRANCH   1  15
TORSDOF 7
ENDMDL
MODEL 4
REMARK VINA RESULT:    -6.662      4.165      6.200
REMARK INTER + INTRA:         -10.591
REMARK INTER:                  -9.755
REMARK INTRA:                  -0.836
REMARK UNBOUND:                -1.203
REMARK  7 active torsions:
REMARK  status: ('A' for Active; 'I' for Inactive)
REMARK    1  A    between atoms: S_2  and  N_5 
REMARK    2  A    between atoms: N_5  and  C_7 
REMARK    3  A    between atoms: C_7  and  C_8 
REMARK    4  A    between atoms: C_8  and  C_9 
REMARK    5  A    between atoms: C_9  and  C_15 
REMARK    6  A    between atoms: C_15  and  C_16 
REMARK       I    between atoms: C_16  and  N_18 
REMARK    7  A    between atoms: N_18  and  C_20 
ROOT
HETATM    1  C   UNL     1       7.547  -4.530  24.077  1.00  0.00     0.068 A 
HETATM    2  C   UNL     1       7.596  -5.606  22.811  1.00  0.00     0.000 A 
HETATM    3  C   UNL     1       6.792  -5.742  22.041  1.00  0.00    -0.002 A 
HETATM    4  C   UNL     1       5.553  -5.085  22.006  1.00  0.00    -0.001 A 
HETATM    5  C   UNL     1       5.360  -4.302  22.953  1.00  0.00    -0.002 A 
HETATM    6  C   UNL     1       5.966  -3.990  23.853  1.00  0.00     0.000 A 
ENDROOT
BRANCH   1   7
HETATM    7  C   UNL     1       8.019  -4.738  25.293  1.00  0.00     0.135 C 
BRANCH   7   8
HETATM    8  C   UNL     1       8.051  -5.175  26.354  1.00  0.00    -0.058 C 
BRANCH   8   9
HETATM    9  N   UNL     1       7.884  -5.904  27.288  1.00  0.00    -0.254 N 
ATOM     10  HN  UNL     1       8.653  -6.540  27.502  1.00  0.00     0.188 HD
BRANCH   9  11
HETATM   11  S   UNL     1       6.597  -6.005  28.248  1.00  0.00     0.233 S 
HETATM   12  C   UNL     1       5.308  -6.320  27.181  1.00  0.00     0.186 C 
HETATM   13  O   UNL     1       6.747  -7.150  29.123  1.00  0.00    -0.206 OA
HETATM   14  O   UNL     1       6.352  -4.808  29.018  1.00  0.00    -0.206 OA
ENDBRANCH   9  11
ENDBRANCH   8   9
ENDBRANCH   7   8
ENDBRANCH   1   7
BRANCH   1  15
HETATM   15  C   UNL     1       8.263  -3.573  23.824  1.00  0.00    -0.064 C 
BRANCH  15  16
HETATM   16  C   UNL     1       9.009  -2.521  23.554  1.00  0.00     0.290 C 
HETATM   17  O   UNL     1       9.058  -2.267  22.445  1.00  0.00    -0.259 OA
HETATM   18  N   UNL     1       9.546  -1.968  24.643  1.00  0.00    -0.314 N 
ATOM     19  HN  UNL     1       9.396  -2.377  25.565  1.00  0.00     0.170 HD
BRANCH  18  20
HETATM   20  C   UNL     1      10.240  -0.930  24.504  1.00  0.00     0.072 A 
HETATM   21  C   UNL     1      11.491  -0.582  24.191  1.00  0.00     0.119 A 
HETATM   22  N   UNL     1      12.436   0.137  23.980  1.00  0.00    -0.373 N 
HETATM   23  C   UNL     1      11.672   1.293  24.122  1.00  0.00     0.089 A 
ATOM     24  HN  UNL     1      13.421  -0.035  23.777  1.00  0.00     0.164 HD
HETATM   25  C   UNL     1      10.547   1.401  24.376  1.00  0.00     0.043 A 
HETATM   26  C   UNL     1       9.590   0.493  24.597  1.00  0.00     0.063 A 
HETATM   27 CL   UNL     1       8.096   0.729  24.917  1.00  0.00    -0.082 Cl
ENDBRANCH  18  20
ENDBRANCH  15  16
ENDBRANCH   1  15
TORSDOF 7
ENDMDL
MODEL 5
REMARK VINA RESULT:    -6.347      2.756      5.916
REMARK INTER + INTRA:         -10.147
REMARK INTER:                  -9.020
REMARK INTRA:                  -1.127
REMARK UNBOUND:                -1.203
REMARK  7 active torsions:
REMARK  status: ('A' for Active; 'I' for Inactive)
REMARK    1  A    between atoms: S_2  and  N_5 
REMARK    2  A    between atoms: N_5  and  C_7 
REMARK    3  A    between atoms: C_7  and  C_8 
REMARK    4  A    between atoms: C_8  and  C_9 
REMARK    5  A    between atoms: C_9  and  C_15 
REMARK    6  A    between atoms: C_15  and  C_16 
REMARK       I    between atoms: C_16  and  N_18 
REMARK    7  A    between atoms: N_18  and  C_20 
ROOT
HETATM    1  C   UNL     1       7.821   0.229  20.835  1.00  0.00     0.068 A 
HETATM    2  C   UNL     1       6.612   1.298  21.233  1.00  0.00     0.000 A 
HETATM    3  C   UNL     1       5.779   1.620  20.554  1.00  0.00    -0.002 A 
HETATM    4  C   UNL     1       5.605   1.244  19.214  1.00  0.00    -0.001 A 
HETATM    5  C   UNL     1       6.495   0.499  18.770  1.00  0.00    -0.002 A 
HETATM    6  C   UNL     1       7.432   0.044  19.205  1.00  0.00     0.000 A 
ENDROOT
BRANCH   1   7
HETATM    7  C   UNL     1       9.083   0.304  21.220  1.00  0.00     0.135 C 
BRANCH   7   8
HETATM    8  C   UNL     1       9.980   0.667  21.837  1.00  0.00    -0.058 C 
BRANCH   8   9
HETATM    9  N   UNL     1      10.833   0.728  22.673  1.00  0.00    -0.254 N 
ATOM     10  HN  UNL     1      11.276   1.640  22.794  1.00  0.00     0.188 HD
BRANCH   9  11
HETATM   11  S   UNL     1      11.368  -0.449  23.631  1.00  0.00     0.233 S 
HETATM   12  C   UNL     1      10.092  -0.701  24.730  1.00  0.00     0.186 C 
HETATM   13  O   UNL     1      11.534  -1.657  22.849  1.00  0.00    -0.206 OA
HETATM   14  O   UNL     1      12.592  -0.122  24.324  1.00  0.00    -0.206 OA
ENDBRANCH   9  11
ENDBRANCH   8   9
ENDBRANCH   7   8
ENDBRANCH   1   7
BRANCH   1  15
HETATM   15  C   UNL     1       7.594  -0.853  21.355  1.00  0.00    -0.064 C 
BRANCH  15  16
HETATM   16  C   UNL     1       7.315  -2.012  21.916  1.00  0.00     0.290 C 
HETATM   17  O   UNL     1       8.222  -2.531  22.371  1.00  0.00    -0.259 OA
HETATM   18  N   UNL     1       6.022  -2.332  21.838  1.00  0.00    -0.314 N 
ATOM     19  HN  UNL     1       5.362  -1.727  21.351  1.00  0.00     0.170 HD
BRANCH  18  20
HETATM   20  C   UNL     1       5.639  -3.399  22.380  1.00  0.00     0.072 A 
HETATM   21  C   UNL     1       5.537  -4.700  22.097  1.00  0.00     0.119 A 
HETATM   22  N   UNL     1       5.276  -5.867  22.260  1.00  0.00    -0.373 N 
HETATM   23  C   UNL     1       4.906  -5.667  23.588  1.00  0.00     0.089 A 
ATOM     24  HN  UNL     1       5.313  -6.687  21.655  1.00  0.00     0.164 HD
HETATM   25  C   UNL     1       4.876  -4.685  24.200  1.00  0.00     0.043 A 
HETATM   26  C   UNL     1       5.195  -3.425  23.883  1.00  0.00     0.063 A 
HETATM   27 CL   UNL     1       5.139  -2.165  24.778  1.00  0.00    -0.082 Cl
ENDBRANCH  18  20
ENDBRANCH  15  16
ENDBRANCH   1  15
TORSDOF 7
ENDMDL
MODEL 6
REMARK VINA RESULT:    -6.327      2.404      4.777
REMARK INTER + INTRA:         -10.118
REMARK INTER:                  -8.898
REMARK INTRA:                  -1.220
REMARK UNBOUND:                -1.203
REMARK  7 active torsions:
REMARK  status: ('A' for Active; 'I' for Inactive)
REMARK    1  A    between atoms: S_2  and  N_5 
REMARK    2  A    between atoms: N_5  and  C_7 
REMARK    3  A    between atoms: C_7  and  C_8 
REMARK    4  A    between atoms: C_8  and  C_9 
REMARK    5  A    between atoms: C_9  and  C_15 
REMARK    6  A    between atoms: C_15  and  C_16 
REMARK       I    between atoms: C_16  and  N_18 
REMARK    7  A    between atoms: N_18  and  C_20 
ROOT
HETATM    1  C   UNL     1       9.113  -0.171  22.456  1.00  0.00     0.068 A 
HETATM    2  C   UNL     1      10.770  -0.253  22.563  1.00  0.00     0.000 A 
HETATM    3  C   UNL     1      11.382   0.062  23.449  1.00  0.00    -0.002 A 
HETATM    4  C   UNL     1      10.898   0.643  24.630  1.00  0.00    -0.001 A 
HETATM    5  C   UNL     1       9.668   0.831  24.644  1.00  0.00    -0.002 A 
HETATM    6  C   UNL     1       8.833   0.637  23.910  1.00  0.00     0.000 A 
ENDROOT
BRANCH   1   7
HETATM    7  C   UNL     1       8.418   0.134  21.375  1.00  0.00     0.135 C 
BRANCH   7   8
HETATM    8  C   UNL     1       8.110   0.093  20.270  1.00  0.00    -0.058 C 
BRANCH   8   9
HETATM    9  N   UNL     1       7.457   0.158  19.270  1.00  0.00    -0.254 N 
ATOM     10  HN  UNL     1       7.925   0.557  18.456  1.00  0.00     0.188 HD
BRANCH   9  11
HETATM   11  S   UNL     1       5.932  -0.308  19.050  1.00  0.00     0.233 S 
HETATM   12  C   UNL     1       5.019   1.085  19.406  1.00  0.00     0.186 C 
HETATM   13  O   UNL     1       5.732  -0.632  17.652  1.00  0.00    -0.206 OA
HETATM   14  O   UNL     1       5.537  -1.414  19.889  1.00  0.00    -0.206 OA
ENDBRANCH   9  11
ENDBRANCH   8   9
ENDBRANCH   7   8
ENDBRANCH   1   7
BRANCH   1  15
HETATM   15  C   UNL     1       8.641  -1.288  22.601  1.00  0.00    -0.064 C 
BRANCH  15  16
HETATM   16  C   UNL     1       8.143  -2.493  22.789  1.00  0.00     0.290 C 
HETATM   17  O   UNL     1       8.785  -3.154  23.459  1.00  0.00    -0.259 OA
HETATM   18  N   UNL     1       6.984  -2.683  22.157  1.00  0.00    -0.314 N 
ATOM     19  HN  UNL     1       6.582  -1.953  21.569  1.00  0.00     0.170 HD
BRANCH  18  20
HETATM   20  C   UNL     1       6.399  -3.786  22.304  1.00  0.00     0.072 A 
HETATM   21  C   UNL     1       6.420  -5.020  21.795  1.00  0.00     0.119 A 
HETATM   22  N   UNL     1       6.107  -6.175  21.639  1.00  0.00    -0.373 N 
HETATM   23  C   UNL     1       5.206  -6.144  22.701  1.00  0.00     0.089 A 
ATOM     24  HN  UNL     1       6.393  -6.899  20.981  1.00  0.00     0.164 HD
HETATM   25  C   UNL     1       4.923  -5.262  23.396  1.00  0.00     0.043 A 
HETATM   26  C   UNL     1       5.355  -3.997  23.455  1.00  0.00     0.063 A 
HETATM   27 CL   UNL     1       4.930  -2.880  24.436  1.00  0.00    -0.082 Cl
ENDBRANCH  18  20
ENDBRANCH  15  16
ENDBRANCH   1  15
TORSDOF 7
ENDMDL
MODEL 7
REMARK VINA RESULT:    -6.189      2.094      5.506
REMARK INTER + INTRA:          -9.925
REMARK INTER:                  -9.177
REMARK INTRA:                  -0.748
REMARK UNBOUND:                -1.203
REMARK  7 active torsions:
REMARK  status: ('A' for Active; 'I' for Inactive)
REMARK    1  A    between atoms: S_2  and  N_5 
REMARK    2  A    between atoms: N_5  and  C_7 
REMARK    3  A    between atoms: C_7  and  C_8 
REMARK    4  A    between atoms: C_8  and  C_9 
REMARK    5  A    between atoms: C_9  and  C_15 
REMARK    6  A    between atoms: C_15  and  C_16 
REMARK       I    between atoms: C_16  and  N_18 
REMARK    7  A    between atoms: N_18  and  C_20 
ROOT
HETATM    1  C   UNL     1       6.829  -0.502  20.737  1.00  0.00     0.068 A 
HETATM    2  C   UNL     1       6.799  -0.404  19.078  1.00  0.00     0.000 A 
HETATM    3  C   UNL     1       6.415   0.466  18.483  1.00  0.00    -0.002 A 
HETATM    4  C   UNL     1       5.827   1.631  18.998  1.00  0.00    -0.001 A 
HETATM    5  C   UNL     1       5.720   1.647  20.237  1.00  0.00    -0.002 A 
HETATM    6  C   UNL     1       5.993   0.927  21.062  1.00  0.00     0.000 A 
ENDROOT
BRANCH   1   7
HETATM    7  C   UNL     1       6.608  -1.587  21.457  1.00  0.00     0.135 C 
BRANCH   7   8
HETATM    8  C   UNL     1       5.998  -2.344  22.068  1.00  0.00    -0.058 C 
BRANCH   8   9
HETATM    9  N   UNL     1       5.326  -3.289  22.361  1.00  0.00    -0.254 N 
ATOM     10  HN  UNL     1       4.389  -3.081  22.708  1.00  0.00     0.188 HD
BRANCH   9  11
HETATM   11  S   UNL     1       5.717  -4.847  22.276  1.00  0.00     0.233 S 
HETATM   12  C   UNL     1       4.374  -5.649  22.950  1.00  0.00     0.186 C 
HETATM   13  O   UNL     1       5.821  -5.234  20.884  1.00  0.00    -0.206 OA
HETATM   14  O   UNL     1       6.929  -5.181  22.987  1.00  0.00    -0.206 OA
ENDBRANCH   9  11
ENDBRANCH   8   9
ENDBRANCH   7   8
ENDBRANCH   1   7
BRANCH   1  15
HETATM   15  C   UNL     1       7.969  -0.316  21.134  1.00  0.00    -0.064 C 
BRANCH  15  16
HETATM   16  C   UNL     1       9.204  -0.150  21.562  1.00  0.00     0.290 C 
HETATM   17  O   UNL     1       9.758   0.700  21.044  1.00  0.00    -0.259 OA
HETATM   18  N   UNL     1       9.545  -1.012  22.521  1.00  0.00    -0.314 N 
ATOM     19  HN  UNL     1       8.894  -1.734  22.831  1.00  0.00     0.170 HD
BRANCH  18  20
HETATM   20  C   UNL     1      10.689  -0.914  23.032  1.00  0.00     0.072 A 
HETATM   21  C   UNL     1      11.908  -1.443  22.899  1.00  0.00     0.119 A 
HETATM   22  N   UNL     1      13.078  -1.635  23.120  1.00  0.00    -0.373 N 
HETATM   23  C   UNL     1      13.132  -0.619  24.072  1.00  0.00     0.089 A 
ATOM     24  HN  UNL     1      13.766  -2.291  22.752  1.00  0.00     0.164 HD
HETATM   25  C   UNL     1      12.287   0.077  24.450  1.00  0.00     0.043 A 
HETATM   26  C   UNL     1      10.996   0.179  24.113  1.00  0.00     0.063 A 
HETATM   27 CL   UNL     1       9.934   1.157  24.664  1.00  0.00    -0.082 Cl
ENDBRANCH  18  20
ENDBRANCH  15  16
ENDBRANCH   1  15
TORSDOF 7
ENDMDL
MODEL 8
REMARK VINA RESULT:    -6.177      3.353      6.641
REMARK INTER + INTRA:          -9.908
REMARK INTER:                  -8.903
REMARK INTRA:                  -1.004
REMARK UNBOUND:                -1.203
REMARK  7 active torsions:
REMARK  status: ('A' for Active; 'I' for Inactive)
REMARK    1  A    between atoms: S_2  and  N_5 
REMARK    2  A    between atoms: N_5  and  C_7 
REMARK    3  A    between atoms: C_7  and  C_8 
REMARK    4  A    between atoms: C_8  and  C_9 
REMARK    5  A    between atoms: C_9  and  C_15 
REMARK    6  A    between atoms: C_15  and  C_16 
REMARK       I    between atoms: C_16  and  N_18 
REMARK    7  A    between atoms: N_18  and  C_20 
ROOT
HETATM    1  C   UNL     1       7.179   1.059  20.793  1.00  0.00     0.068 A 
HETATM    2  C   UNL     1       5.658   1.696  20.583  1.00  0.00     0.000 A 
HETATM    3  C   UNL     1       5.011   1.549  19.679  1.00  0.00    -0.002 A 
HETATM    4  C   UNL     1       5.356   0.852  18.511  1.00  0.00    -0.001 A 
HETATM    5  C   UNL     1       6.510   0.389  18.512  1.00  0.00    -0.002 A 
HETATM    6  C   UNL     1       7.362   0.398  19.252  1.00  0.00     0.000 A 
ENDROOT
BRANCH   1   7
HETATM    7  C   UNL     1       8.196   1.654  21.393  1.00  0.00     0.135 C 
BRANCH   7   8
HETATM    8  C   UNL     1       9.194   1.730  21.953  1.00  0.00    -0.058 C 
BRANCH   8   9
HETATM    9  N   UNL     1      10.310   1.507  22.321  1.00  0.00    -0.254 N 
ATOM     10  HN  UNL     1      10.920   1.044  21.647  1.00  0.00     0.188 HD
BRANCH   9  11
HETATM   11  S   UNL     1      10.968   1.845  23.751  1.00  0.00     0.233 S 
HETATM   12  C   UNL     1      11.366   3.497  23.642  1.00  0.00     0.186 C 
HETATM   13  O   UNL     1       9.963   1.692  24.783  1.00  0.00    -0.206 OA
HETATM   14  O   UNL     1      12.134   1.050  24.056  1.00  0.00    -0.206 OA
ENDBRANCH   9  11
ENDBRANCH   8   9
ENDBRANCH   7   8
ENDBRANCH   1   7
BRANCH   1  15
HETATM   15  C   UNL     1       7.119   0.108  21.557  1.00  0.00    -0.064 C 
BRANCH  15  16
HETATM   16  C   UNL     1       7.076  -0.901  22.402  1.00  0.00     0.290 C 
HETATM   17  O   UNL     1       6.373  -0.732  23.283  1.00  0.00    -0.259 OA
HETATM   18  N   UNL     1       7.863  -1.917  22.043  1.00  0.00    -0.314 N 
ATOM     19  HN  UNL     1       8.448  -1.856  21.211  1.00  0.00     0.170 HD
BRANCH  18  20
HETATM   20  C   UNL     1       7.864  -2.951  22.757  1.00  0.00     0.072 A 
HETATM   21  C   UNL     1       7.381  -4.196  22.739  1.00  0.00     0.119 A 
HETATM   22  N   UNL     1       7.157  -5.319  23.121  1.00  0.00    -0.373 N 
HETATM   23  C   UNL     1       7.961  -5.167  24.248  1.00  0.00     0.089 A 
ATOM     24  HN  UNL     1       6.592  -6.086  22.757  1.00  0.00     0.164 HD
HETATM   25  C   UNL     1       8.560  -4.241  24.601  1.00  0.00     0.043 A 
HETATM   26  C   UNL     1       8.719  -3.024  24.069  1.00  0.00     0.063 A 
HETATM   27 CL   UNL     1       9.560  -1.842  24.606  1.00  0.00    -0.082 Cl
ENDBRANCH  18  20
ENDBRANCH  15  16
ENDBRANCH   1  15
TORSDOF 7
ENDMDL
MODEL 9
REMARK VINA RESULT:    -6.080     14.776     16.049
REMARK INTER + INTRA:          -9.771
REMARK INTER:                  -8.788
REMARK INTRA:                  -0.983
REMARK UNBOUND:                -1.203
REMARK  7 active torsions:
REMARK  status: ('A' for Active; 'I' for Inactive)
REMARK    1  A    between atoms: S_2  and  N_5 
REMARK    2  A    between atoms: N_5  and  C_7 
REMARK    3  A    between atoms: C_7  and  C_8 
REMARK    4  A    between atoms: C_8  and  C_9 
REMARK    5  A    between atoms: C_9  and  C_15 
REMARK    6  A    between atoms: C_15  and  C_16 
REMARK       I    between atoms: C_16  and  N_18 
REMARK    7  A    between atoms: N_18  and  C_20 
ROOT
HETATM    1  C   UNL     1      23.120  -1.623  23.548  1.00  0.00     0.068 A 
HETATM    2  C   UNL     1      21.671  -1.505  24.355  1.00  0.00     0.000 A 
HETATM    3  C   UNL     1      21.279  -0.583  24.859  1.00  0.00    -0.002 A 
HETATM    4  C   UNL     1      21.941   0.649  24.970  1.00  0.00    -0.001 A 
HETATM    5  C   UNL     1      23.078   0.669  24.468  1.00  0.00    -0.002 A 
HETATM    6  C   UNL     1      23.716  -0.092  23.931  1.00  0.00     0.000 A 
ENDROOT
BRANCH   1   7
HETATM    7  C   UNL     1      23.922  -2.672  23.539  1.00  0.00     0.135 C 
BRANCH   7   8
HETATM    8  C   UNL     1      24.508  -3.558  23.973  1.00  0.00    -0.058 C 
BRANCH   8   9
HETATM    9  N   UNL     1      24.882  -4.418  24.716  1.00  0.00    -0.254 N 
ATOM     10  HN  UNL     1      25.885  -4.441  24.905  1.00  0.00     0.188 HD
BRANCH   9  11
HETATM   11  S   UNL     1      23.999  -5.543  25.454  1.00  0.00     0.233 S 
HETATM   12  C   UNL     1      25.036  -6.162  26.654  1.00  0.00     0.186 C 
HETATM   13  O   UNL     1      22.877  -4.908  26.113  1.00  0.00    -0.206 OA
HETATM   14  O   UNL     1      23.543  -6.592  24.573  1.00  0.00    -0.206 OA
ENDBRANCH   9  11
ENDBRANCH   8   9
ENDBRANCH   7   8
ENDBRANCH   1   7
BRANCH   1  15
HETATM   15  C   UNL     1      22.916  -1.607  22.344  1.00  0.00    -0.064 C 
BRANCH  15  16
HETATM   16  C   UNL     1      22.689  -1.624  21.046  1.00  0.00     0.290 C 
HETATM   17  O   UNL     1      21.600  -1.819  20.775  1.00  0.00    -0.259 OA
HETATM   18  N   UNL     1      23.786  -1.402  20.321  1.00  0.00    -0.314 N 
ATOM     19  HN  UNL     1      24.693  -1.275  20.770  1.00  0.00     0.170 HD
BRANCH  18  20
HETATM   20  C   UNL     1      23.674  -1.353  19.070  1.00  0.00     0.072 A 
HETATM   21  C   UNL     1      23.419  -0.461  18.110  1.00  0.00     0.119 A 
HETATM   22  N   UNL     1      23.236  -0.032  16.997  1.00  0.00    -0.373 N 
HETATM   23  C   UNL     1      23.536  -1.256  16.404  1.00  0.00     0.089 A 
ATOM     24  HN  UNL     1      22.965   0.880  16.631  1.00  0.00     0.164 HD
HETATM   25  C   UNL     1      23.820  -2.262  16.903  1.00  0.00     0.043 A 
HETATM   26  C   UNL     1      23.985  -2.608  18.184  1.00  0.00     0.063 A 
HETATM   27 CL   UNL     1      24.386  -3.984  18.764  1.00  0.00    -0.082 Cl
ENDBRANCH  18  20
ENDBRANCH  15  16
ENDBRANCH   1  15
TORSDOF 7
ENDMDL
