REMARK  7 active torsions:
REMARK  status: ('A' for Active; 'I' for Inactive)
REMARK    1  A    between atoms: S_2  and  N_5 
REMARK    2  A    between atoms: N_5  and  C_7 
REMARK    3  A    between atoms: C_7  and  C_8 
REMARK    4  A    between atoms: C_8  and  C_9 
REMARK    5  A    between atoms: C_9  and  C_15 
REMARK    6  A    between atoms: C_15  and  C_16 
REMARK       I    between atoms: C_16  and  N_18 
REMARK    7  A    between atoms: N_18  and  C_20 
ROOT
HETATM    1  C   UNL     1      10.363  -1.157  23.249  1.00  0.00     0.068 A 
HETATM    2  C   UNL     1      11.063  -0.018  24.237  1.00  0.00     0.000 A 
HETATM    3  C   UNL     1      12.144   0.280  24.223  1.00  0.00    -0.002 A 
HETATM    4  C   UNL     1      13.150  -0.275  23.418  1.00  0.00    -0.001 A 
HETATM    5  C   UNL     1      12.766  -1.200  22.681  1.00  0.00    -0.002 A 
HETATM    6  C   UNL     1      11.773  -1.707  22.505  1.00  0.00     0.000 A 
ENDROOT
BRANCH   1   7
HETATM    7  C   UNL     1       9.411  -2.006  23.593  1.00  0.00     0.135 C 
BRANCH   7   8
HETATM    8  C   UNL     1       8.923  -2.869  24.171  1.00  0.00    -0.058 C 
BRANCH   8   9
HETATM    9  N   UNL     1       8.102  -3.572  24.684  1.00  0.00    -0.254 N 
ATOM     10  HN  UNL     1       7.247  -3.725  24.149  1.00  0.00     0.188 HD
BRANCH   9  11
HETATM   11  S   UNL     1       8.181  -4.306  26.114  1.00  0.00     0.233 S 
HETATM   12  C   UNL     1       6.589  -4.842  26.393  1.00  0.00     0.186 C 
HETATM   13  O   UNL     1       9.035  -5.471  26.002  1.00  0.00    -0.206 OA
HETATM   14  O   UNL     1       8.633  -3.447  27.183  1.00  0.00    -0.206 OA
ENDBRANCH   9  11
ENDBRANCH   8   9
ENDBRANCH   7   8
ENDBRANCH   1   7
BRANCH   1  15
HETATM   15  C   UNL     1       9.723  -0.596  22.373  1.00  0.00    -0.064 C 
BRANCH  15  16
HETATM   16  C   UNL     1       9.046   0.039  21.438  1.00  0.00     0.290 C 
HETATM   17  O   UNL     1       9.550   0.995  21.077  1.00  0.00    -0.259 OA
HETATM   18  N   UNL     1       7.911  -0.578  21.105  1.00  0.00    -0.314 N 
ATOM     19  HN  UNL     1       7.621  -1.432  21.581  1.00  0.00     0.170 HD
BRANCH  18  20
HETATM   20  C   UNL     1       7.208  -0.080  20.190  1.00  0.00     0.072 A 
HETATM   21  C   UNL     1       7.213   0.041  18.860  1.00  0.00     0.119 A 
HETATM   22  N   UNL     1       6.838   0.372  17.762  1.00  0.00    -0.373 N 
HETATM   23  C   UNL     1       5.649   0.904  18.256  1.00  0.00     0.089 A 
ATOM     24  HN  UNL     1       7.239   0.293  16.828  1.00  0.00     0.164 HD
HETATM   25  C   UNL     1       5.275   0.971  19.350  1.00  0.00     0.043 A 
HETATM   26  C   UNL     1       5.811   0.558  20.504  1.00  0.00     0.063 A 
HETATM   27 CL   UNL     1       5.228   0.675  21.931  1.00  0.00    -0.082 Cl
ENDBRANCH  18  20
ENDBRANCH  15  16
ENDBRANCH   1  15
TORSDOF 7
