stable:False satoms:23 tatoms:24 sratio:0.9583333333333334
  -OEChem-07092417323D

 24 25  0     1  0  0  0  0  0999 V2000
   10.4843   -2.8725   24.4699 C   0  0  0  0  0  0  0  0  0  0  0  0
    9.0501   -1.1123   24.3070 O   0  0  0  0  0  0  0  0  0  0  0  0
    9.6795   -3.5950   24.8319 H   0  0  0  0  0  0  0  0  0  0  0  0
    7.4952   -2.1651   22.1969 N   0  0  0  0  0  0  0  0  0  0  0  0
    6.9710   -3.0202   22.2574 H   0  0  0  0  0  0  0  0  0  0  0  0
    7.7169    0.6254   20.0016 C   0  0  0  0  0  0  0  0  0  0  0  0
    8.1459   -0.2276   23.6632 C   0  0  0  0  0  0  0  0  0  0  0  0
    8.8592   -2.3068   22.2342 C   0  0  2  0  0  0  0  0  0  0  0  0
   10.2614   -2.2895   25.4758 H   0  0  0  0  0  0  0  0  0  0  0  0
    8.2376    0.7362   24.1702 H   0  0  0  0  0  0  0  0  0  0  0  0
    9.8355   -1.8515   23.4674 C   0  0  2  0  0  0  0  0  0  0  0  0
   11.5571   -2.4896   24.5887 H   0  0  0  0  0  0  0  0  0  0  0  0
   10.9100   -3.6825   23.7176 H   0  0  0  0  0  0  0  0  0  0  0  0
    9.3760    0.4108   21.9977 H   0  0  0  0  0  0  0  0  0  0  0  0
    8.3825   -0.0607   22.1411 C   0  0  1  0  0  0  0  0  0  0  0  0
    8.3773   -1.3177   21.4126 N   0  0  2  0  0  0  0  0  0  0  0  0
    7.1337   -0.6482   23.7828 H   0  0  0  0  0  0  0  0  0  0  0  0
    6.7996    0.6946   19.3981 H   0  0  0  0  0  0  0  0  0  0  0  0
    8.2740   -0.2420   19.5837 H   0  0  0  0  0  0  0  0  0  0  0  0
   10.5829   -1.2750   22.8861 H   0  0  0  0  0  0  0  0  0  0  0  0
    7.3832    0.6813   21.3962 N   0  0  0  0  0  0  0  0  0  0  0  0
    9.3129   -3.2089   21.7883 H   0  0  0  0  0  0  0  0  0  0  0  0
    8.3247    1.5197   19.8428 H   0  0  0  0  0  0  0  0  0  0  0  0
    6.4335    0.4069   21.6857 H   0  0  0  0  0  0  0  0  0  0  0  0
  6 18  1  0  0  0  0
  6 19  1  0  0  0  0
  6 23  1  0  0  0  0
  6 21  1  0  0  0  0
 21 24  1  0  0  0  0
 15 21  1  0  0  0  0
 15 16  1  0  0  0  0
  4 16  1  0  0  0  0
  8 16  1  0  0  0  0
  8 22  1  0  0  0  0
 14 15  1  0  0  0  0
  7 15  1  0  0  0  0
  4  8  1  0  0  0  0
  4  5  1  0  0  0  0
  8 11  1  0  0  0  0
 11 20  1  0  0  0  0
  2 11  1  0  0  0  0
  1 11  1  0  0  0  0
  7 17  1  0  0  0  0
  7 10  1  0  0  0  0
  2  7  1  0  0  0  0
  1 13  1  0  0  0  0
  1 12  1  0  0  0  0
  1  3  1  0  0  0  0
  1  9  1  0  0  0  0
M  END
> <Shapegauss>
-82.627174

$$$$
