stable:False satoms:23 tatoms:24 sratio:0.9583333333333334
  -OEChem-08052418543D

 25 26  0     1  0  0  0  0  0999 V2000
  -10.2360   -0.2507  -24.8752 C   0  0  0  0  0  0  0  0  0  0  0  0
   -9.0170    1.5838  -24.3003 O   0  0  0  0  0  0  0  0  0  0  0  0
  -10.1133   -0.7478  -23.8560 H   0  0  0  0  0  0  0  0  0  0  0  0
  -10.8282    2.5763  -22.3734 N   0  0  0  0  0  0  0  0  0  0  0  0
   -9.8643    2.5259  -22.1120 H   0  0  0  0  0  0  0  0  0  0  0  0
  -11.1310    5.8795  -23.6589 C   0  0  0  0  0  0  0  0  0  0  0  0
   -8.7998    2.9034  -23.8247 C   0  0  0  0  0  0  0  0  0  0  0  0
  -11.2552    2.0245  -23.5545 C   0  0  2  0  0  0  0  0  0  0  0  0
   -9.0601   -0.3637  -24.9519 H   0  0  0  0  0  0  0  0  0  0  0  0
   -7.9030    3.2732  -24.3279 H   0  0  0  0  0  0  0  0  0  0  0  0
  -10.3017    1.3063  -24.6754 C   0  0  2  0  0  0  0  0  0  0  0  0
  -10.2343   -0.3770  -26.0134 H   0  0  0  0  0  0  0  0  0  0  0  0
  -11.3892   -0.5207  -24.8972 H   0  0  0  0  0  0  0  0  0  0  0  0
  -10.1225    3.9958  -25.1482 H   0  0  0  0  0  0  0  0  0  0  0  0
   -9.9857    3.8737  -24.0544 C   0  0  1  0  0  0  0  0  0  0  0  0
  -11.2408    3.3965  -23.4996 N   0  0  2  0  0  0  0  0  0  0  0  0
   -8.6493    2.8388  -22.7343 H   0  0  0  0  0  0  0  0  0  0  0  0
  -11.3176    6.5819  -22.8329 H   0  0  0  0  0  0  0  0  0  0  0  0
  -12.0859    5.3240  -23.7884 H   0  0  0  0  0  0  0  0  0  0  0  0
  -10.6614    1.8472  -25.5736 H   0  0  0  0  0  0  0  0  0  0  0  0
   -9.8993    5.1798  -23.4293 N   0  3  0  0  0  0  0  0  0  0  0  0
  -12.2223    1.4928  -23.5746 H   0  0  0  0  0  0  0  0  0  0  0  0
  -10.9446    6.4407  -24.5780 H   0  0  0  0  0  0  0  0  0  0  0  0
   -9.1401    5.6944  -23.8277 H   0  0  0  0  0  0  0  0  0  0  0  0
   -9.7504    5.0735  -22.4461 H   0  0  0  0  0  0  0  0  0  0  0  0
  6 18  1  0  0  0  0
  6 19  1  0  0  0  0
  6 23  1  0  0  0  0
  6 21  1  0  0  0  0
 21 24  1  0  0  0  0
 15 21  1  0  0  0  0
 15 16  1  0  0  0  0
  4 16  1  0  0  0  0
  8 16  1  0  0  0  0
  8 22  1  0  0  0  0
 14 15  1  0  0  0  0
  7 15  1  0  0  0  0
  4  8  1  0  0  0  0
  4  5  1  0  0  0  0
  8 11  1  0  0  0  0
 11 20  1  0  0  0  0
  2 11  1  0  0  0  0
  1 11  1  0  0  0  0
  7 17  1  0  0  0  0
  7 10  1  0  0  0  0
  2  7  1  0  0  0  0
  1 13  1  0  0  0  0
  1 12  1  0  0  0  0
  1  3  1  0  0  0  0
  1  9  1  0  0  0  0
 21 25  1  0  0  0  0
M  CHG  1  21   1
M  END
> <Chemgauss4>
-4.807543

$$$$
