stable:False satoms:23 tatoms:24 sratio:0.9583333333333334
  -OEChem-08052418543D

 25 26  0     1  0  0  0  0  0999 V2000
   10.2360   -0.1891   24.8374 C   0  0  0  0  0  0  0  0  0  0  0  0
    9.0170    1.6454   24.2626 O   0  0  0  0  0  0  0  0  0  0  0  0
   10.1133   -0.6861   23.8183 H   0  0  0  0  0  0  0  0  0  0  0  0
   10.8282    2.6380   22.3356 N   0  0  0  0  0  0  0  0  0  0  0  0
    9.8643    2.5875   22.0743 H   0  0  0  0  0  0  0  0  0  0  0  0
   11.1310    5.9411   23.6212 C   0  0  0  0  0  0  0  0  0  0  0  0
    8.7998    2.9650   23.7869 C   0  0  0  0  0  0  0  0  0  0  0  0
   11.2552    2.0862   23.5168 C   0  0  2  0  0  0  0  0  0  0  0  0
    9.0601   -0.3021   24.9141 H   0  0  0  0  0  0  0  0  0  0  0  0
    7.9030    3.3348   24.2901 H   0  0  0  0  0  0  0  0  0  0  0  0
   10.3017    1.3679   24.6376 C   0  0  2  0  0  0  0  0  0  0  0  0
   10.2343   -0.3154   25.9757 H   0  0  0  0  0  0  0  0  0  0  0  0
   11.3892   -0.4591   24.8594 H   0  0  0  0  0  0  0  0  0  0  0  0
   10.1225    4.0574   25.1104 H   0  0  0  0  0  0  0  0  0  0  0  0
    9.9857    3.9354   24.0167 C   0  0  1  0  0  0  0  0  0  0  0  0
   11.2408    3.4582   23.4618 N   0  0  2  0  0  0  0  0  0  0  0  0
    8.6493    2.9004   22.6965 H   0  0  0  0  0  0  0  0  0  0  0  0
   11.3176    6.6435   22.7952 H   0  0  0  0  0  0  0  0  0  0  0  0
   12.0859    5.3856   23.7506 H   0  0  0  0  0  0  0  0  0  0  0  0
   10.6614    1.9089   25.5359 H   0  0  0  0  0  0  0  0  0  0  0  0
    9.8993    5.2414   23.3915 N   0  3  0  0  0  0  0  0  0  0  0  0
   12.2223    1.5544   23.5368 H   0  0  0  0  0  0  0  0  0  0  0  0
   10.9446    6.5024   24.5403 H   0  0  0  0  0  0  0  0  0  0  0  0
    9.1401    5.7561   23.7899 H   0  0  0  0  0  0  0  0  0  0  0  0
    9.7504    5.1352   22.4084 H   0  0  0  0  0  0  0  0  0  0  0  0
  6 18  1  0  0  0  0
  6 19  1  0  0  0  0
  6 23  1  0  0  0  0
  6 21  1  0  0  0  0
 21 24  1  0  0  0  0
 15 21  1  0  0  0  0
 15 16  1  0  0  0  0
  4 16  1  0  0  0  0
  8 16  1  0  0  0  0
  8 22  1  0  0  0  0
 14 15  1  0  0  0  0
  7 15  1  0  0  0  0
  4  8  1  0  0  0  0
  4  5  1  0  0  0  0
  8 11  1  0  0  0  0
 11 20  1  0  0  0  0
  2 11  1  0  0  0  0
  1 11  1  0  0  0  0
  7 17  1  0  0  0  0
  7 10  1  0  0  0  0
  2  7  1  0  0  0  0
  1 13  1  0  0  0  0
  1 12  1  0  0  0  0
  1  3  1  0  0  0  0
  1  9  1  0  0  0  0
 21 25  1  0  0  0  0
M  CHG  1  21   1
M  END
> <Chemgauss4>
-4.791417

$$$$
