stable:False satoms:12 tatoms:24 sratio:0.5
  -OEChem-07092417373D

 24 24  0     0  0  0  0  0  0999 V2000
    6.5060   -4.9618   26.3459 Cl  0  0  0  0  0  0  0  0  0  0  0  0
    8.2963   -4.4615   26.1832 S   0  0  0  0  0  0  0  0  0  0  0  0
    9.0310   -5.6231   26.1635 O   0  0  0  0  0  0  0  0  0  0  0  0
    8.5983   -3.5557   27.1434 O   0  0  0  0  0  0  0  0  0  0  0  0
    8.2799   -3.8030   24.7763 N   0  0  0  0  0  0  0  0  0  0  0  0
    9.1036   -3.2162   24.3403 C   0  0  0  0  0  0  0  0  0  0  0  0
    9.7675   -2.4750   23.6205 N   0  0  0  0  0  0  0  0  0  0  0  0
   10.9327   -1.9659   23.3768 C   0  0  0  0  0  0  0  0  0  0  0  0
   11.9199    0.1154   23.6702 C   0  5  0  0  0  0  0  0  0  0  0  0
   11.7178    0.9957   24.1666 H   0  0  0  0  0  0  0  0  0  0  0  0
   12.9422   -0.2187   23.5985 H   0  0  0  0  0  0  0  0  0  0  0  0
   11.9051   -2.4750   23.3794 H   0  0  0  0  0  0  0  0  0  0  0  0
   10.9065   -0.6532   23.0765 C   0  0  0  0  0  0  0  0  0  0  0  0
    9.8180   -0.2083   22.4351 N   0  0  0  0  0  0  0  0  0  0  0  0
    9.1674    0.2549   21.4083 C   0  0  0  0  0  0  0  0  0  0  0  0
    9.5792    1.1918   20.7297 O   0  0  0  0  0  0  0  0  0  0  0  0
    7.9523   -0.3538   21.1868 N   0  0  0  0  0  0  0  0  0  0  0  0
    7.2179    0.0784   20.1656 C   0  0  0  0  0  0  0  0  0  0  0  0
    7.6019    0.0378   18.8500 N   0  0  0  0  0  0  0  0  0  0  0  0
    6.6907    0.5255   18.0813 N   0  0  0  0  0  0  0  0  0  0  0  0
    5.6831    0.9224   18.8244 C   0  0  0  0  0  0  0  0  0  0  0  0
    4.8465    1.4843   18.5283 H   0  0  0  0  0  0  0  0  0  0  0  0
    5.2198    0.5298   21.0091 H   0  0  0  0  0  0  0  0  0  0  0  0
    5.9003    0.5452   20.2370 C   0  0  0  0  0  0  0  0  0  0  0  0
 20 21  2  0  0  0  0
 19 20  1  0  0  0  0
 21 22  1  0  0  0  0
 21 24  1  0  0  0  0
 18 19  1  0  0  0  0
 18 24  2  0  0  0  0
 17 18  1  0  0  0  0
 23 24  1  0  0  0  0
 15 16  2  0  0  0  0
 15 17  1  0  0  0  0
 14 15  1  0  0  0  0
 13 14  1  0  0  0  0
  8 13  2  3  0  0  0
  9 13  1  0  0  0  0
  8 12  1  0  0  0  0
  7  8  1  0  0  0  0
  9 11  1  0  0  0  0
  6  7  1  0  0  0  0
  9 10  1  0  0  0  0
  5  6  2  0  0  0  0
  2  5  1  0  0  0  0
  2  3  2  0  0  0  0
  1  2  1  0  0  0  0
  2  4  2  0  0  0  0
M  CHG  1   9  -1
M  END
> <Shapegauss>
-227.714355

$$$$
