stable:False satoms:12 tatoms:24 sratio:0.5
  -OEChem-08062406263D

 30 30  0     0  0  0  0  0  0999 V2000
   -6.2358   -4.0627  -26.7088 Cl  0  0  0  0  0  0  0  0  0  0  0  0
   -7.9974   -3.4502  -26.7678 S   0  0  0  0  0  0  0  0  0  0  0  0
   -8.7857   -4.5405  -27.0493 O   0  0  0  0  0  0  0  0  0  0  0  0
   -8.0777   -2.3951  -27.6128 O   0  0  0  0  0  0  0  0  0  0  0  0
   -8.1917   -3.0033  -25.2927 N   0  0  0  0  0  0  0  0  0  0  0  0
   -9.0462   -2.4214  -24.9129 C   0  0  0  0  0  0  0  0  0  0  0  0
   -9.7848   -1.7405  -24.2064 N   0  0  0  0  0  0  0  0  0  0  0  0
  -10.9455   -1.1806  -24.0822 C   0  0  0  0  0  0  0  0  0  0  0  0
  -11.7527    0.9931  -24.2086 C   0  0  0  0  0  0  0  0  0  0  0  0
  -12.3198    1.5454  -23.4449 H   0  0  0  0  0  0  0  0  0  0  0  0
  -12.4515    0.4591  -24.8693 H   0  0  0  0  0  0  0  0  0  0  0  0
  -11.9284   -1.6051  -24.3236 H   0  0  0  0  0  0  0  0  0  0  0  0
  -10.9015    0.0693  -23.5823 C   0  0  0  0  0  0  0  0  0  0  0  0
   -9.9195    0.3298  -22.7093 N   0  0  0  0  0  0  0  0  0  0  0  0
   -9.4344    0.5880  -21.5303 C   0  0  0  0  0  0  0  0  0  0  0  0
   -9.9074    1.4478  -20.7921 O   0  0  0  0  0  0  0  0  0  0  0  0
   -8.3113   -0.1408  -21.2085 N   0  0  0  0  0  0  0  0  0  0  0  0
   -7.7445    0.0810  -20.0259 C   0  0  0  0  0  0  0  0  0  0  0  0
   -8.3542   -0.1170  -18.8139 N   0  0  0  0  0  0  0  0  0  0  0  0
   -7.5664    0.1816  -17.8396 N   0  0  0  0  0  0  0  0  0  0  0  0
   -6.4246    0.5995  -18.3361 C   0  0  0  0  0  0  0  0  0  0  0  0
   -5.6236    1.0449  -17.8229 H   0  0  0  0  0  0  0  0  0  0  0  0
   -5.6084    0.4882  -20.4487 H   0  0  0  0  0  0  0  0  0  0  0  0
   -6.4115    0.4469  -19.8063 C   0  0  0  0  0  0  0  0  0  0  0  0
   -9.6954   -2.5184  -25.7705 H   0  0  0  0  0  0  0  0  0  0  0  0
   -9.2724   -1.5288  -23.3742 H   0  0  0  0  0  0  0  0  0  0  0  0
  -11.1537    1.6992  -24.8025 H   0  0  0  0  0  0  0  0  0  0  0  0
   -9.1031    0.3208  -23.2867 H   0  0  0  0  0  0  0  0  0  0  0  0
   -7.9340   -0.8150  -21.8435 H   0  0  0  0  0  0  0  0  0  0  0  0
   -9.2902   -0.4503  -18.7009 H   0  0  0  0  0  0  0  0  0  0  0  0
 20 21  2  0  0  0  0
 19 20  1  0  0  0  0
 21 22  1  0  0  0  0
 21 24  1  0  0  0  0
 18 19  1  0  0  0  0
 18 24  2  0  0  0  0
 17 18  1  0  0  0  0
 23 24  1  0  0  0  0
 15 16  2  0  0  0  0
 15 17  1  0  0  0  0
 14 15  1  0  0  0  0
 13 14  1  0  0  0  0
  8 13  2  3  0  0  0
  9 13  1  0  0  0  0
  8 12  1  0  0  0  0
  7  8  1  0  0  0  0
  9 11  1  0  0  0  0
  6  7  1  0  0  0  0
  9 10  1  0  0  0  0
  5  6  2  0  0  0  0
  2  5  1  0  0  0  0
  2  3  2  0  0  0  0
  1  2  1  0  0  0  0
  2  4  2  0  0  0  0
  6 25  1  0  0  0  0
  7 26  1  0  0  0  0
  9 27  1  0  0  0  0
 14 28  1  0  0  0  0
 17 29  1  0  0  0  0
 19 30  1  0  0  0  0
M  END
> <Chemgauss4>
-8.459901

$$$$
