stable:False satoms:12 tatoms:24 sratio:0.5
  -OEChem-08062406263D

 30 30  0     0  0  0  0  0  0999 V2000
    6.1398   -4.0125   26.5810 Cl  0  0  0  0  0  0  0  0  0  0  0  0
    7.9014   -3.3999   26.6399 S   0  0  0  0  0  0  0  0  0  0  0  0
    8.6897   -4.4902   26.9215 O   0  0  0  0  0  0  0  0  0  0  0  0
    7.9818   -2.3448   27.4849 O   0  0  0  0  0  0  0  0  0  0  0  0
    8.0958   -2.9531   25.1649 N   0  0  0  0  0  0  0  0  0  0  0  0
    8.9502   -2.3712   24.7851 C   0  0  0  0  0  0  0  0  0  0  0  0
    9.6888   -1.6903   24.0786 N   0  0  0  0  0  0  0  0  0  0  0  0
   10.8495   -1.1303   23.9543 C   0  0  0  0  0  0  0  0  0  0  0  0
   11.6567    1.0433   24.0808 C   0  0  0  0  0  0  0  0  0  0  0  0
   12.2238    1.5956   23.3170 H   0  0  0  0  0  0  0  0  0  0  0  0
   12.3555    0.5094   24.7415 H   0  0  0  0  0  0  0  0  0  0  0  0
   11.8325   -1.5549   24.1958 H   0  0  0  0  0  0  0  0  0  0  0  0
   10.8055    0.1195   23.4544 C   0  0  0  0  0  0  0  0  0  0  0  0
    9.8235    0.3801   22.5815 N   0  0  0  0  0  0  0  0  0  0  0  0
    9.3384    0.6383   21.4025 C   0  0  0  0  0  0  0  0  0  0  0  0
    9.8115    1.4981   20.6643 O   0  0  0  0  0  0  0  0  0  0  0  0
    8.2153   -0.0905   21.0807 N   0  0  0  0  0  0  0  0  0  0  0  0
    7.6485    0.1312   19.8981 C   0  0  0  0  0  0  0  0  0  0  0  0
    8.2582   -0.0667   18.6861 N   0  0  0  0  0  0  0  0  0  0  0  0
    7.4704    0.2319   17.7117 N   0  0  0  0  0  0  0  0  0  0  0  0
    6.3286    0.6497   18.2083 C   0  0  0  0  0  0  0  0  0  0  0  0
    5.5276    1.0952   17.6951 H   0  0  0  0  0  0  0  0  0  0  0  0
    5.5124    0.5385   20.3209 H   0  0  0  0  0  0  0  0  0  0  0  0
    6.3155    0.4972   19.6784 C   0  0  0  0  0  0  0  0  0  0  0  0
    9.5994   -2.4681   25.6427 H   0  0  0  0  0  0  0  0  0  0  0  0
    9.1764   -1.4786   23.2463 H   0  0  0  0  0  0  0  0  0  0  0  0
   11.0578    1.7494   24.6747 H   0  0  0  0  0  0  0  0  0  0  0  0
    9.0071    0.3710   23.1588 H   0  0  0  0  0  0  0  0  0  0  0  0
    7.8380   -0.7647   21.7157 H   0  0  0  0  0  0  0  0  0  0  0  0
    9.1942   -0.4001   18.5730 H   0  0  0  0  0  0  0  0  0  0  0  0
 20 21  2  0  0  0  0
 19 20  1  0  0  0  0
 21 22  1  0  0  0  0
 21 24  1  0  0  0  0
 18 19  1  0  0  0  0
 18 24  2  0  0  0  0
 17 18  1  0  0  0  0
 23 24  1  0  0  0  0
 15 16  2  0  0  0  0
 15 17  1  0  0  0  0
 14 15  1  0  0  0  0
 13 14  1  0  0  0  0
  8 13  2  3  0  0  0
  9 13  1  0  0  0  0
  8 12  1  0  0  0  0
  7  8  1  0  0  0  0
  9 11  1  0  0  0  0
  6  7  1  0  0  0  0
  9 10  1  0  0  0  0
  5  6  2  0  0  0  0
  2  5  1  0  0  0  0
  2  3  2  0  0  0  0
  1  2  1  0  0  0  0
  2  4  2  0  0  0  0
  6 25  1  0  0  0  0
  7 26  1  0  0  0  0
  9 27  1  0  0  0  0
 14 28  1  0  0  0  0
 17 29  1  0  0  0  0
 19 30  1  0  0  0  0
M  END
> <Chemgauss4>
-8.027246

$$$$
