MODEL 1
REMARK VINA RESULT:    -7.543      0.000      0.000
REMARK INTER + INTRA:         -11.158
REMARK INTER:                 -10.188
REMARK INTRA:                  -0.969
REMARK UNBOUND:                -0.969
REMARK  6 active torsions:
REMARK  status: ('A' for Active; 'I' for Inactive)
REMARK    1  A    between atoms: S_2  and  N_5 
REMARK    2  A    between atoms: C_7  and  C_8 
REMARK    3  A    between atoms: C_8  and  C_9 
REMARK    4  A    between atoms: C_9  and  C_15 
REMARK    5  A    between atoms: C_15  and  C_16 
REMARK       I    between atoms: C_16  and  N_18 
REMARK    6  A    between atoms: N_18  and  C_20 
ROOT
HETATM    1  C   UNL     1       9.508  -1.489  23.273  1.00  0.00     0.076 C 
HETATM    2  C   UNL     1       9.337  -0.539  24.697  1.00  0.00     0.003 C 
HETATM    3  C   UNL     1      10.088   0.012  25.127  1.00  0.00    -0.002 C 
HETATM    4  C   UNL     1      11.454   0.183  24.793  1.00  0.00    -0.001 C 
HETATM    5  C   UNL     1      11.801  -0.660  23.710  1.00  0.00    -0.002 C 
HETATM    6  C   UNL     1      11.225  -1.322  23.154  1.00  0.00     0.003 C 
ENDROOT
BRANCH   1   7
HETATM    7  C   UNL     1       8.987  -2.618  23.017  1.00  0.00     0.021 C 
BRANCH   7   8
HETATM    8  C   UNL     1       8.051  -3.403  22.867  1.00  0.00     0.098 C 
HETATM    9  N   UNL     1       7.467  -4.377  22.522  1.00  0.00    -0.296 N 
ATOM     10  HN  UNL     1       7.986  -5.251  22.600  1.00  0.00     0.177 HD
BRANCH   9  11
HETATM   11  S   UNL     1       5.964  -4.506  21.946  1.00  0.00     0.226 S 
HETATM   12  C   UNL     1       5.077  -5.103  23.082  1.00  0.00     0.186 C 
HETATM   13  O   UNL     1       5.478  -3.177  21.603  1.00  0.00    -0.206 OA
HETATM   14  O   UNL     1       5.946  -5.375  20.780  1.00  0.00    -0.206 OA
ENDBRANCH   9  11
ENDBRANCH   7   8
ENDBRANCH   1   7
BRANCH   1  15
HETATM   15  C   UNL     1       8.941  -0.929  22.347  1.00  0.00    -0.061 C 
BRANCH  15  16
HETATM   16  C   UNL     1       8.402  -0.356  21.278  1.00  0.00     0.290 C 
HETATM   17  O   UNL     1       9.126   0.286  20.654  1.00  0.00    -0.259 OA
HETATM   18  N   UNL     1       7.113  -0.628  21.176  1.00  0.00    -0.315 N 
ATOM     19  HN  UNL     1       6.612  -1.153  21.893  1.00  0.00     0.170 HD
BRANCH  18  20
HETATM   20  C   UNL     1       6.540  -0.197  20.135  1.00  0.00     0.068 A 
HETATM   21  C   UNL     1       6.242  -0.533  18.960  1.00  0.00     0.118 A 
HETATM   22  N   UNL     1       5.680  -0.426  17.793  1.00  0.00    -0.373 N 
HETATM   23  C   UNL     1       5.248   0.831  18.076  1.00  0.00     0.089 A 
ATOM     24  HN  UNL     1       5.595  -1.042  16.984  1.00  0.00     0.164 HD
HETATM   25  C   UNL     1       5.351   1.498  19.099  1.00  0.00     0.038 A 
HETATM   26  C   UNL     1       5.867   1.303  20.264  1.00  0.00     0.040 A 
HETATM   27 BR   UNL     1       5.927   2.220  21.632  1.00  0.00    -0.049 Br
ENDBRANCH  18  20
ENDBRANCH  15  16
ENDBRANCH   1  15
TORSDOF 6
ENDMDL
MODEL 2
REMARK VINA RESULT:    -7.342      2.915      5.808
REMARK INTER + INTRA:         -10.887
REMARK INTER:                  -9.934
REMARK INTRA:                  -0.953
REMARK UNBOUND:                -0.969
REMARK  6 active torsions:
REMARK  status: ('A' for Active; 'I' for Inactive)
REMARK    1  A    between atoms: S_2  and  N_5 
REMARK    2  A    between atoms: C_7  and  C_8 
REMARK    3  A    between atoms: C_8  and  C_9 
REMARK    4  A    between atoms: C_9  and  C_15 
REMARK    5  A    between atoms: C_15  and  C_16 
REMARK       I    between atoms: C_16  and  N_18 
REMARK    6  A    between atoms: N_18  and  C_20 
ROOT
HETATM    1  C   UNL     1      10.110  -0.668  23.599  1.00  0.00     0.076 C 
HETATM    2  C   UNL     1      11.412  -1.576  22.934  1.00  0.00     0.003 C 
HETATM    3  C   UNL     1      12.399  -1.449  23.179  1.00  0.00    -0.002 C 
HETATM    4  C   UNL     1      13.055  -0.545  24.051  1.00  0.00    -0.001 C 
HETATM    5  C   UNL     1      12.128   0.385  24.578  1.00  0.00    -0.002 C 
HETATM    6  C   UNL     1      11.101   0.473  24.439  1.00  0.00     0.003 C 
ENDROOT
BRANCH   1   7
HETATM    7  C   UNL     1       9.065  -0.251  23.011  1.00  0.00     0.021 C 
BRANCH   7   8
HETATM    8  C   UNL     1       8.159  -0.305  22.180  1.00  0.00     0.098 C 
HETATM    9  N   UNL     1       7.472  -0.745  21.319  1.00  0.00    -0.296 N 
ATOM     10  HN  UNL     1       7.252  -1.738  21.395  1.00  0.00     0.177 HD
BRANCH   9  11
HETATM   11  S   UNL     1       6.838   0.014  20.042  1.00  0.00     0.226 S 
HETATM   12  C   UNL     1       5.676  -0.875  19.499  1.00  0.00     0.186 C 
HETATM   13  O   UNL     1       6.300   1.295  20.478  1.00  0.00    -0.206 OA
HETATM   14  O   UNL     1       7.851   0.204  19.017  1.00  0.00    -0.206 OA
ENDBRANCH   9  11
ENDBRANCH   7   8
ENDBRANCH   1   7
BRANCH   1  15
HETATM   15  C   UNL     1       9.486  -1.374  24.378  1.00  0.00    -0.061 C 
BRANCH  15  16
HETATM   16  C   UNL     1       8.882  -2.212  25.210  1.00  0.00     0.290 C 
HETATM   17  O   UNL     1       8.654  -1.780  26.254  1.00  0.00    -0.259 OA
HETATM   18  N   UNL     1       8.697  -3.398  24.660  1.00  0.00    -0.315 N 
ATOM     19  HN  UNL     1       9.057  -3.628  23.733  1.00  0.00     0.170 HD
BRANCH  18  20
HETATM   20  C   UNL     1       8.045  -4.231  25.352  1.00  0.00     0.068 A 
HETATM   21  C   UNL     1       8.182  -5.066  26.282  1.00  0.00     0.118 A 
HETATM   22  N   UNL     1       7.806  -5.922  27.186  1.00  0.00    -0.373 N 
HETATM   23  C   UNL     1       6.519  -5.869  26.751  1.00  0.00     0.089 A 
ATOM     24  HN  UNL     1       8.286  -6.431  27.928  1.00  0.00     0.164 HD
HETATM   25  C   UNL     1       6.003  -5.192  25.870  1.00  0.00     0.038 A 
HETATM   26  C   UNL     1       6.425  -4.295  25.045  1.00  0.00     0.040 A 
HETATM   27 BR   UNL     1       5.669  -3.367  23.913  1.00  0.00    -0.049 Br
ENDBRANCH  18  20
ENDBRANCH  15  16
ENDBRANCH   1  15
TORSDOF 6
ENDMDL
MODEL 3
REMARK VINA RESULT:    -6.818      2.500      4.657
REMARK INTER + INTRA:         -10.179
REMARK INTER:                  -9.360
REMARK INTRA:                  -0.819
REMARK UNBOUND:                -0.969
REMARK  6 active torsions:
REMARK  status: ('A' for Active; 'I' for Inactive)
REMARK    1  A    between atoms: S_2  and  N_5 
REMARK    2  A    between atoms: C_7  and  C_8 
REMARK    3  A    between atoms: C_8  and  C_9 
REMARK    4  A    between atoms: C_9  and  C_15 
REMARK    5  A    between atoms: C_15  and  C_16 
REMARK       I    between atoms: C_16  and  N_18 
REMARK    6  A    between atoms: N_18  and  C_20 
ROOT
HETATM    1  C   UNL     1       7.566  -2.852  23.830  1.00  0.00     0.076 C 
HETATM    2  C   UNL     1       7.699  -4.530  23.471  1.00  0.00     0.003 C 
HETATM    3  C   UNL     1       6.931  -5.205  23.536  1.00  0.00    -0.002 C 
HETATM    4  C   UNL     1       5.580  -5.074  23.942  1.00  0.00    -0.001 C 
HETATM    5  C   UNL     1       5.338  -3.763  24.417  1.00  0.00    -0.002 C 
HETATM    6  C   UNL     1       5.967  -2.938  24.482  1.00  0.00     0.003 C 
ENDROOT
BRANCH   1   7
HETATM    7  C   UNL     1       8.417  -2.103  24.400  1.00  0.00     0.021 C 
BRANCH   7   8
HETATM    8  C   UNL     1       9.498  -1.524  24.503  1.00  0.00     0.098 C 
HETATM    9  N   UNL     1      10.270  -0.650  24.724  1.00  0.00    -0.296 N 
ATOM     10  HN  UNL     1      10.058  -0.072  25.538  1.00  0.00     0.177 HD
BRANCH   9  11
HETATM   11  S   UNL     1      11.608  -0.251  23.913  1.00  0.00     0.226 S 
HETATM   12  C   UNL     1      11.991  -1.467  23.014  1.00  0.00     0.186 C 
HETATM   13  O   UNL     1      11.317   0.899  23.068  1.00  0.00    -0.206 OA
HETATM   14  O   UNL     1      12.685   0.053  24.841  1.00  0.00    -0.206 OA
ENDBRANCH   9  11
ENDBRANCH   7   8
ENDBRANCH   1   7
BRANCH   1  15
HETATM   15  C   UNL     1       7.587  -2.216  22.787  1.00  0.00    -0.061 C 
BRANCH  15  16
HETATM   16  C   UNL     1       7.512  -1.495  21.675  1.00  0.00     0.290 C 
HETATM   17  O   UNL     1       8.528  -1.169  21.239  1.00  0.00    -0.259 OA
HETATM   18  N   UNL     1       6.260  -1.275  21.319  1.00  0.00    -0.315 N 
ATOM     19  HN  UNL     1       5.472  -1.573  21.895  1.00  0.00     0.170 HD
BRANCH  18  20
HETATM   20  C   UNL     1       6.098  -0.673  20.219  1.00  0.00     0.068 A 
HETATM   21  C   UNL     1       5.912  -0.886  18.994  1.00  0.00     0.118 A 
HETATM   22  N   UNL     1       5.656  -0.589  17.754  1.00  0.00    -0.373 N 
HETATM   23  C   UNL     1       5.702   0.741  18.026  1.00  0.00     0.089 A 
ATOM     24  HN  UNL     1       5.488  -1.138  16.910  1.00  0.00     0.164 HD
HETATM   25  C   UNL     1       5.869   1.333  19.086  1.00  0.00     0.038 A 
HETATM   26  C   UNL     1       6.049   0.973  20.311  1.00  0.00     0.040 A 
HETATM   27 BR   UNL     1       6.210   1.817  21.717  1.00  0.00    -0.049 Br
ENDBRANCH  18  20
ENDBRANCH  15  16
ENDBRANCH   1  15
TORSDOF 6
ENDMDL
MODEL 4
REMARK VINA RESULT:    -6.815      4.081      6.307
REMARK INTER + INTRA:         -10.174
REMARK INTER:                  -9.468
REMARK INTRA:                  -0.706
REMARK UNBOUND:                -0.969
REMARK  6 active torsions:
REMARK  status: ('A' for Active; 'I' for Inactive)
REMARK    1  A    between atoms: S_2  and  N_5 
REMARK    2  A    between atoms: C_7  and  C_8 
REMARK    3  A    between atoms: C_8  and  C_9 
REMARK    4  A    between atoms: C_9  and  C_15 
REMARK    5  A    between atoms: C_15  and  C_16 
REMARK       I    between atoms: C_16  and  N_18 
REMARK    6  A    between atoms: N_18  and  C_20 
ROOT
HETATM    1  C   UNL     1       7.205  -4.661  24.416  1.00  0.00     0.076 C 
HETATM    2  C   UNL     1       7.681  -5.478  22.979  1.00  0.00     0.003 C 
HETATM    3  C   UNL     1       7.059  -5.690  22.193  1.00  0.00    -0.002 C 
HETATM    4  C   UNL     1       5.677  -5.461  21.984  1.00  0.00    -0.001 C 
HETATM    5  C   UNL     1       5.090  -4.917  23.152  1.00  0.00    -0.002 C 
HETATM    6  C   UNL     1       5.512  -4.661  24.066  1.00  0.00     0.003 C 
ENDROOT
BRANCH   1   7
HETATM    7  C   UNL     1       7.581  -4.887  25.608  1.00  0.00     0.021 C 
BRANCH   7   8
HETATM    8  C   UNL     1       7.443  -5.303  26.758  1.00  0.00     0.098 C 
HETATM    9  N   UNL     1       7.530  -6.034  27.688  1.00  0.00    -0.296 N 
ATOM     10  HN  UNL     1       8.420  -6.524  27.782  1.00  0.00     0.177 HD
BRANCH   9  11
HETATM   11  S   UNL     1       6.431  -6.360  28.826  1.00  0.00     0.226 S 
HETATM   12  C   UNL     1       5.040  -6.445  28.123  1.00  0.00     0.186 C 
HETATM   13  O   UNL     1       6.746  -7.649  29.426  1.00  0.00    -0.206 OA
HETATM   14  O   UNL     1       6.426  -5.312  29.833  1.00  0.00    -0.206 OA
ENDBRANCH   9  11
ENDBRANCH   7   8
ENDBRANCH   1   7
BRANCH   1  15
HETATM   15  C   UNL     1       7.661  -3.527  24.403  1.00  0.00    -0.061 C 
BRANCH  15  16
HETATM   16  C   UNL     1       8.252  -2.339  24.400  1.00  0.00     0.290 C 
HETATM   17  O   UNL     1       7.697  -1.520  24.990  1.00  0.00    -0.259 OA
HETATM   18  N   UNL     1       9.358  -2.345  23.678  1.00  0.00    -0.315 N 
ATOM     19  HN  UNL     1       9.649  -3.161  23.140  1.00  0.00     0.170 HD
BRANCH  18  20
HETATM   20  C   UNL     1      10.034  -1.277  23.696  1.00  0.00     0.068 A 
HETATM   21  C   UNL     1      10.954  -0.700  24.330  1.00  0.00     0.118 A 
HETATM   22  N   UNL     1      11.843   0.216  24.577  1.00  0.00    -0.373 N 
HETATM   23  C   UNL     1      11.397   0.978  23.544  1.00  0.00     0.089 A 
ATOM     24  HN  UNL     1      12.582   0.322  25.272  1.00  0.00     0.164 HD
HETATM   25  C   UNL     1      10.521   0.762  22.714  1.00  0.00     0.038 A 
HETATM   26  C   UNL     1       9.712  -0.213  22.477  1.00  0.00     0.040 A 
HETATM   27 BR   UNL     1       8.586  -0.477  21.304  1.00  0.00    -0.049 Br
ENDBRANCH  18  20
ENDBRANCH  15  16
ENDBRANCH   1  15
TORSDOF 6
ENDMDL
MODEL 5
REMARK VINA RESULT:    -6.583     14.943     16.165
REMARK INTER + INTRA:          -9.861
REMARK INTER:                  -9.019
REMARK INTRA:                  -0.842
REMARK UNBOUND:                -0.969
REMARK  6 active torsions:
REMARK  status: ('A' for Active; 'I' for Inactive)
REMARK    1  A    between atoms: S_2  and  N_5 
REMARK    2  A    between atoms: C_7  and  C_8 
REMARK    3  A    between atoms: C_8  and  C_9 
REMARK    4  A    between atoms: C_9  and  C_15 
REMARK    5  A    between atoms: C_15  and  C_16 
REMARK       I    between atoms: C_16  and  N_18 
REMARK    6  A    between atoms: N_18  and  C_20 
ROOT
HETATM    1  C   UNL     1      23.160  -1.552  23.671  1.00  0.00     0.076 C 
HETATM    2  C   UNL     1      21.650  -1.219  24.425  1.00  0.00     0.003 C 
HETATM    3  C   UNL     1      21.399  -0.328  24.864  1.00  0.00    -0.002 C 
HETATM    4  C   UNL     1      22.120   0.877  25.053  1.00  0.00    -0.001 C 
HETATM    5  C   UNL     1      23.456   0.721  24.612  1.00  0.00    -0.002 C 
HETATM    6  C   UNL     1      23.936  -0.092  24.178  1.00  0.00     0.003 C 
ENDROOT
BRANCH   1   7
HETATM    7  C   UNL     1      23.825  -2.633  23.690  1.00  0.00     0.021 C 
BRANCH   7   8
HETATM    8  C   UNL     1      24.056  -3.791  24.037  1.00  0.00     0.098 C 
HETATM    9  N   UNL     1      23.954  -4.972  24.092  1.00  0.00    -0.296 N 
ATOM     10  HN  UNL     1      23.770  -5.439  23.204  1.00  0.00     0.177 HD
BRANCH   9  11
HETATM   11  S   UNL     1      24.068  -5.941  25.378  1.00  0.00     0.226 S 
HETATM   12  C   UNL     1      25.571  -5.994  25.794  1.00  0.00     0.186 C 
HETATM   13  O   UNL     1      23.288  -5.367  26.467  1.00  0.00    -0.206 OA
HETATM   14  O   UNL     1      23.587  -7.272  25.049  1.00  0.00    -0.206 OA
ENDBRANCH   9  11
ENDBRANCH   7   8
ENDBRANCH   1   7
BRANCH   1  15
HETATM   15  C   UNL     1      23.007  -1.575  22.458  1.00  0.00    -0.061 C 
BRANCH  15  16
HETATM   16  C   UNL     1      22.751  -1.654  21.159  1.00  0.00     0.290 C 
HETATM   17  O   UNL     1      21.659  -1.907  20.894  1.00  0.00    -0.259 OA
HETATM   18  N   UNL     1      23.836  -1.450  20.434  1.00  0.00    -0.315 N 
ATOM     19  HN  UNL     1      24.756  -1.328  20.858  1.00  0.00     0.170 HD
BRANCH  18  20
HETATM   20  C   UNL     1      23.664  -1.416  19.182  1.00  0.00     0.068 A 
HETATM   21  C   UNL     1      23.315  -0.644  18.253  1.00  0.00     0.118 A 
HETATM   22  N   UNL     1      23.116  -0.263  17.026  1.00  0.00    -0.373 N 
HETATM   23  C   UNL     1      23.426  -1.500  16.555  1.00  0.00     0.089 A 
ATOM     24  HN  UNL     1      22.838   0.616  16.589  1.00  0.00     0.164 HD
HETATM   25  C   UNL     1      23.798  -2.507  17.145  1.00  0.00     0.038 A 
HETATM   26  C   UNL     1      24.047  -2.802  18.375  1.00  0.00     0.040 A 
HETATM   27 BR   UNL     1      24.605  -4.167  19.110  1.00  0.00    -0.049 Br
ENDBRANCH  18  20
ENDBRANCH  15  16
ENDBRANCH   1  15
TORSDOF 6
ENDMDL
MODEL 6
REMARK VINA RESULT:    -6.290      2.178      5.524
REMARK INTER + INTRA:          -9.466
REMARK INTER:                  -8.987
REMARK INTRA:                  -0.479
REMARK UNBOUND:                -0.969
REMARK  6 active torsions:
REMARK  status: ('A' for Active; 'I' for Inactive)
REMARK    1  A    between atoms: S_2  and  N_5 
REMARK    2  A    between atoms: C_7  and  C_8 
REMARK    3  A    between atoms: C_8  and  C_9 
REMARK    4  A    between atoms: C_9  and  C_15 
REMARK    5  A    between atoms: C_15  and  C_16 
REMARK       I    between atoms: C_16  and  N_18 
REMARK    6  A    between atoms: N_18  and  C_20 
ROOT
HETATM    1  C   UNL     1       6.569  -0.418  20.566  1.00  0.00     0.076 C 
HETATM    2  C   UNL     1       6.544  -0.552  18.851  1.00  0.00     0.003 C 
HETATM    3  C   UNL     1       6.197   0.171  18.212  1.00  0.00    -0.002 C 
HETATM    4  C   UNL     1       5.616   1.443  18.440  1.00  0.00    -0.001 C 
HETATM    5  C   UNL     1       5.426   1.652  19.827  1.00  0.00    -0.002 C 
HETATM    6  C   UNL     1       5.659   1.051  20.642  1.00  0.00     0.003 C 
ENDROOT
BRANCH   1   7
HETATM    7  C   UNL     1       6.337  -1.323  21.426  1.00  0.00     0.021 C 
BRANCH   7   8
HETATM    8  C   UNL     1       6.301  -2.481  21.841  1.00  0.00     0.098 C 
HETATM    9  N   UNL     1       6.000  -3.404  22.522  1.00  0.00    -0.296 N 
ATOM     10  HN  UNL     1       5.024  -3.431  22.819  1.00  0.00     0.177 HD
BRANCH   9  11
HETATM   11  S   UNL     1       6.922  -4.623  23.043  1.00  0.00     0.226 S 
HETATM   12  C   UNL     1       7.074  -5.633  21.864  1.00  0.00     0.186 C 
HETATM   13  O   UNL     1       8.233  -4.098  23.399  1.00  0.00    -0.206 OA
HETATM   14  O   UNL     1       6.300  -5.270  24.187  1.00  0.00    -0.206 OA
ENDBRANCH   9  11
ENDBRANCH   7   8
ENDBRANCH   1   7
BRANCH   1  15
HETATM   15  C   UNL     1       7.720  -0.248  20.939  1.00  0.00    -0.061 C 
BRANCH  15  16
HETATM   16  C   UNL     1       8.967  -0.161  21.383  1.00  0.00     0.290 C 
HETATM   17  O   UNL     1       9.605   0.656  20.880  1.00  0.00    -0.259 OA
HETATM   18  N   UNL     1       9.223  -1.071  22.305  1.00  0.00    -0.315 N 
ATOM     19  HN  UNL     1       8.543  -1.787  22.562  1.00  0.00     0.170 HD
BRANCH  18  20
HETATM   20  C   UNL     1      10.361  -1.000  22.849  1.00  0.00     0.068 A 
HETATM   21  C   UNL     1      11.528  -1.461  22.764  1.00  0.00     0.118 A 
HETATM   22  N   UNL     1      12.795  -1.565  23.036  1.00  0.00    -0.373 N 
HETATM   23  C   UNL     1      12.686  -0.675  24.057  1.00  0.00     0.089 A 
ATOM     24  HN  UNL     1      13.567  -2.103  22.640  1.00  0.00     0.164 HD
HETATM   25  C   UNL     1      11.722  -0.029  24.451  1.00  0.00     0.038 A 
HETATM   26  C   UNL     1      10.490   0.084  24.086  1.00  0.00     0.040 A 
HETATM   27 BR   UNL     1       9.243   1.019  24.619  1.00  0.00    -0.049 Br
ENDBRANCH  18  20
ENDBRANCH  15  16
ENDBRANCH   1  15
TORSDOF 6
ENDMDL
MODEL 7
REMARK VINA RESULT:    -6.200      3.713      6.166
REMARK INTER + INTRA:          -9.344
REMARK INTER:                  -8.469
REMARK INTRA:                  -0.875
REMARK UNBOUND:                -0.969
REMARK  6 active torsions:
REMARK  status: ('A' for Active; 'I' for Inactive)
REMARK    1  A    between atoms: S_2  and  N_5 
REMARK    2  A    between atoms: C_7  and  C_8 
REMARK    3  A    between atoms: C_8  and  C_9 
REMARK    4  A    between atoms: C_9  and  C_15 
REMARK    5  A    between atoms: C_15  and  C_16 
REMARK       I    between atoms: C_16  and  N_18 
REMARK    6  A    between atoms: N_18  and  C_20 
ROOT
HETATM    1  C   UNL     1       8.006   3.444  23.258  1.00  0.00     0.076 C 
HETATM    2  C   UNL     1       8.723   4.998  23.443  1.00  0.00     0.003 C 
HETATM    3  C   UNL     1       8.839   5.485  24.337  1.00  0.00    -0.002 C 
HETATM    4  C   UNL     1       8.469   5.146  25.662  1.00  0.00    -0.001 C 
HETATM    5  C   UNL     1       7.725   3.942  25.668  1.00  0.00    -0.002 C 
HETATM    6  C   UNL     1       7.454   3.309  24.890  1.00  0.00     0.003 C 
ENDROOT
BRANCH   1   7
HETATM    7  C   UNL     1       7.250   3.037  22.322  1.00  0.00     0.021 C 
BRANCH   7   8
HETATM    8  C   UNL     1       6.927   2.292  21.398  1.00  0.00     0.098 C 
HETATM    9  N   UNL     1       6.276   1.521  20.773  1.00  0.00    -0.296 N 
ATOM     10  HN  UNL     1       5.268   1.675  20.796  1.00  0.00     0.177 HD
BRANCH   9  11
HETATM   11  S   UNL     1       6.769   0.261  19.891  1.00  0.00     0.226 S 
HETATM   12  C   UNL     1       6.113   0.392  18.481  1.00  0.00     0.186 C 
HETATM   13  O   UNL     1       8.217   0.322  19.756  1.00  0.00    -0.206 OA
HETATM   14  O   UNL     1       6.364  -0.983  20.524  1.00  0.00    -0.206 OA
ENDBRANCH   9  11
ENDBRANCH   7   8
ENDBRANCH   1   7
BRANCH   1  15
HETATM   15  C   UNL     1       8.881   2.626  23.014  1.00  0.00    -0.061 C 
BRANCH  15  16
HETATM   16  C   UNL     1       9.900   1.813  22.765  1.00  0.00     0.290 C 
HETATM   17  O   UNL     1      10.403   1.966  21.740  1.00  0.00    -0.259 OA
HETATM   18  N   UNL     1      10.102   0.965  23.757  1.00  0.00    -0.315 N 
ATOM     19  HN  UNL     1       9.481   0.918  24.565  1.00  0.00     0.170 HD
BRANCH  18  20
HETATM   20  C   UNL     1      11.113   0.214  23.642  1.00  0.00     0.068 A 
HETATM   21  C   UNL     1      12.335   0.152  23.929  1.00  0.00     0.118 A 
HETATM   22  N   UNL     1      13.511  -0.392  24.041  1.00  0.00    -0.373 N 
HETATM   23  C   UNL     1      13.099  -1.504  23.377  1.00  0.00     0.089 A 
ATOM     24  HN  UNL     1      14.394  -0.100  24.461  1.00  0.00     0.164 HD
HETATM   25  C   UNL     1      11.997  -1.805  22.934  1.00  0.00     0.038 A 
HETATM   26  C   UNL     1      10.837  -1.242  22.919  1.00  0.00     0.040 A 
HETATM   27 BR   UNL     1       9.364  -1.722  22.356  1.00  0.00    -0.049 Br
ENDBRANCH  18  20
ENDBRANCH  15  16
ENDBRANCH   1  15
TORSDOF 6
ENDMDL
MODEL 8
REMARK VINA RESULT:    -6.011     23.170     26.313
REMARK INTER + INTRA:          -9.089
REMARK INTER:                  -8.278
REMARK INTRA:                  -0.810
REMARK UNBOUND:                -0.969
REMARK  6 active torsions:
REMARK  status: ('A' for Active; 'I' for Inactive)
REMARK    1  A    between atoms: S_2  and  N_5 
REMARK    2  A    between atoms: C_7  and  C_8 
REMARK    3  A    between atoms: C_8  and  C_9 
REMARK    4  A    between atoms: C_9  and  C_15 
REMARK    5  A    between atoms: C_15  and  C_16 
REMARK       I    between atoms: C_16  and  N_18 
REMARK    6  A    between atoms: N_18  and  C_20 
ROOT
HETATM    1  C   UNL     1       8.106  17.227   1.999  1.00  0.00     0.076 C 
HETATM    2  C   UNL     1       8.743  17.661   0.460  1.00  0.00     0.003 C 
HETATM    3  C   UNL     1       8.576  18.556  -0.011  1.00  0.00    -0.002 C 
HETATM    4  C   UNL     1       7.802  19.689   0.344  1.00  0.00    -0.001 C 
HETATM    5  C   UNL     1       7.082  19.435   1.536  1.00  0.00    -0.002 C 
HETATM    6  C   UNL     1       7.064  18.599   2.152  1.00  0.00     0.003 C 
ENDROOT
BRANCH   1   7
HETATM    7  C   UNL     1       7.680  16.093   2.379  1.00  0.00     0.021 C 
BRANCH   7   8
HETATM    8  C   UNL     1       7.756  14.877   2.553  1.00  0.00     0.098 C 
HETATM    9  N   UNL     1       7.411  13.743   2.607  1.00  0.00    -0.296 N 
ATOM     10  HN  UNL     1       6.770  13.442   1.873  1.00  0.00     0.177 HD
BRANCH   9  11
HETATM   11  S   UNL     1       7.819  12.611   3.683  1.00  0.00     0.226 S 
HETATM   12  C   UNL     1       7.403  11.229   3.091  1.00  0.00     0.186 C 
HETATM   13  O   UNL     1       9.264  12.639   3.868  1.00  0.00    -0.206 OA
HETATM   14  O   UNL     1       7.136  12.848   4.944  1.00  0.00    -0.206 OA
ENDBRANCH   9  11
ENDBRANCH   7   8
ENDBRANCH   1   7
BRANCH   1  15
HETATM   15  C   UNL     1       9.004  17.256   2.827  1.00  0.00    -0.061 C 
BRANCH  15  16
HETATM   16  C   UNL     1       9.914  17.340   3.789  1.00  0.00     0.290 C 
HETATM   17  O   UNL     1      10.752  16.550   3.735  1.00  0.00    -0.259 OA
HETATM   18  N   UNL     1       9.639  18.313   4.638  1.00  0.00    -0.315 N 
ATOM     19  HN  UNL     1       8.781  18.862   4.574  1.00  0.00     0.170 HD
BRANCH  18  20
HETATM   20  C   UNL     1      10.504  18.523   5.535  1.00  0.00     0.068 A 
HETATM   21  C   UNL     1      10.918  18.073   6.635  1.00  0.00     0.118 A 
HETATM   22  N   UNL     1      11.705  17.971   7.665  1.00  0.00    -0.373 N 
HETATM   23  C   UNL     1      12.417  19.060   7.273  1.00  0.00     0.089 A 
ATOM     24  HN  UNL     1      11.764  17.327   8.454  1.00  0.00     0.164 HD
HETATM   25  C   UNL     1      12.311  19.766   6.277  1.00  0.00     0.038 A 
HETATM   26  C   UNL     1      11.543  19.770   5.242  1.00  0.00     0.040 A 
HETATM   27 BR   UNL     1      11.483  20.715   3.893  1.00  0.00    -0.049 Br
ENDBRANCH  18  20
ENDBRANCH  15  16
ENDBRANCH   1  15
TORSDOF 6
ENDMDL
MODEL 9
REMARK VINA RESULT:    -5.804     15.023     17.284
REMARK INTER + INTRA:          -8.809
REMARK INTER:                  -7.938
REMARK INTRA:                  -0.871
REMARK UNBOUND:                -0.969
REMARK  6 active torsions:
REMARK  status: ('A' for Active; 'I' for Inactive)
REMARK    1  A    between atoms: S_2  and  N_5 
REMARK    2  A    between atoms: C_7  and  C_8 
REMARK    3  A    between atoms: C_8  and  C_9 
REMARK    4  A    between atoms: C_9  and  C_15 
REMARK    5  A    between atoms: C_15  and  C_16 
REMARK       I    between atoms: C_16  and  N_18 
REMARK    6  A    between atoms: N_18  and  C_20 
ROOT
HETATM    1  C   UNL     1      22.846  -1.255  23.105  1.00  0.00     0.076 C 
HETATM    2  C   UNL     1      23.632   0.074  23.864  1.00  0.00     0.003 C 
HETATM    3  C   UNL     1      23.251   0.607  24.652  1.00  0.00    -0.002 C 
HETATM    4  C   UNL     1      22.027   0.517  25.359  1.00  0.00    -0.001 C 
HETATM    5  C   UNL     1      21.185  -0.449  24.757  1.00  0.00    -0.002 C 
HETATM    6  C   UNL     1      21.343  -1.071  23.940  1.00  0.00     0.003 C 
ENDROOT
BRANCH   1   7
HETATM    7  C   UNL     1      22.824  -1.553  21.871  1.00  0.00     0.021 C 
BRANCH   7   8
HETATM    8  C   UNL     1      23.291  -1.617  20.733  1.00  0.00     0.098 C 
HETATM    9  N   UNL     1      24.098  -1.588  19.865  1.00  0.00    -0.296 N 
ATOM     10  HN  UNL     1      25.004  -1.998  20.093  1.00  0.00     0.177 HD
BRANCH   9  11
HETATM   11  S   UNL     1      23.959  -0.989  18.372  1.00  0.00     0.226 S 
HETATM   12  C   UNL     1      24.946  -1.778  17.456  1.00  0.00     0.186 C 
HETATM   13  O   UNL     1      22.596  -1.203  17.906  1.00  0.00    -0.206 OA
HETATM   14  O   UNL     1      24.287   0.427  18.366  1.00  0.00    -0.206 OA
ENDBRANCH   9  11
ENDBRANCH   7   8
ENDBRANCH   1   7
BRANCH   1  15
HETATM   15  C   UNL     1      23.408  -2.292  23.426  1.00  0.00    -0.061 C 
BRANCH  15  16
HETATM   16  C   UNL     1      24.059  -3.365  23.856  1.00  0.00     0.290 C 
HETATM   17  O   UNL     1      25.144  -3.459  23.478  1.00  0.00    -0.259 OA
HETATM   18  N   UNL     1      23.296  -4.127  24.618  1.00  0.00    -0.315 N 
ATOM     19  HN  UNL     1      22.308  -3.924  24.770  1.00  0.00     0.170 HD
BRANCH  18  20
HETATM   20  C   UNL     1      23.865  -5.124  25.145  1.00  0.00     0.068 A 
HETATM   21  C   UNL     1      24.180  -6.320  24.914  1.00  0.00     0.118 A 
HETATM   22  N   UNL     1      24.748  -7.469  25.129  1.00  0.00    -0.373 N 
HETATM   23  C   UNL     1      25.146  -7.081  26.369  1.00  0.00     0.089 A 
ATOM     24  HN  UNL     1      24.854  -8.325  24.583  1.00  0.00     0.164 HD
HETATM   25  C   UNL     1      25.017  -6.009  26.948  1.00  0.00     0.038 A 
HETATM   26  C   UNL     1      24.498  -4.868  26.647  1.00  0.00     0.040 A 
HETATM   27 BR   UNL     1      24.405  -3.431  27.448  1.00  0.00    -0.049 Br
ENDBRANCH  18  20
ENDBRANCH  15  16
ENDBRANCH   1  15
TORSDOF 6
ENDMDL
