REMARK  6 active torsions:
REMARK  status: ('A' for Active; 'I' for Inactive)
REMARK    1  A    between atoms: S_2  and  N_5 
REMARK    2  A    between atoms: C_7  and  C_8 
REMARK    3  A    between atoms: C_8  and  C_9 
REMARK    4  A    between atoms: C_9  and  C_15 
REMARK    5  A    between atoms: C_15  and  C_16 
REMARK       I    between atoms: C_16  and  N_18 
REMARK    6  A    between atoms: N_18  and  C_20 
ROOT
HETATM    1  C   UNL     1      10.349  -1.146  23.219  1.00  0.00     0.076 C 
HETATM    2  C   UNL     1      11.070   0.034  24.243  1.00  0.00     0.003 C 
HETATM    3  C   UNL     1      12.060   0.298  24.225  1.00  0.00    -0.002 C 
HETATM    4  C   UNL     1      13.156  -0.169  23.458  1.00  0.00    -0.001 C 
HETATM    5  C   UNL     1      12.758  -1.263  22.653  1.00  0.00    -0.002 C 
HETATM    6  C   UNL     1      11.832  -1.721  22.541  1.00  0.00     0.003 C 
ENDROOT
BRANCH   1   7
HETATM    7  C   UNL     1       9.445  -1.989  23.510  1.00  0.00     0.021 C 
BRANCH   7   8
HETATM    8  C   UNL     1       8.953  -2.915  24.154  1.00  0.00     0.098 C 
HETATM    9  N   UNL     1       8.122  -3.581  24.677  1.00  0.00    -0.296 N 
ATOM     10  HN  UNL     1       7.249  -3.682  24.159  1.00  0.00     0.177 HD
BRANCH   9  11
HETATM   11  S   UNL     1       8.184  -4.349  26.096  1.00  0.00     0.226 S 
HETATM   12  C   UNL     1       6.747  -4.870  26.410  1.00  0.00     0.186 C 
HETATM   13  O   UNL     1       9.091  -5.482  25.976  1.00  0.00    -0.206 OA
HETATM   14  O   UNL     1       8.632  -3.441  27.139  1.00  0.00    -0.206 OA
ENDBRANCH   9  11
ENDBRANCH   7   8
ENDBRANCH   1   7
BRANCH   1  15
HETATM   15  C   UNL     1       9.664  -0.583  22.378  1.00  0.00    -0.061 C 
BRANCH  15  16
HETATM   16  C   UNL     1       9.006   0.034  21.405  1.00  0.00     0.290 C 
HETATM   17  O   UNL     1       9.529   0.970  20.983  1.00  0.00    -0.259 OA
HETATM   18  N   UNL     1       7.852  -0.554  21.146  1.00  0.00    -0.315 N 
ATOM     19  HN  UNL     1       7.507  -1.338  21.700  1.00  0.00     0.170 HD
BRANCH  18  20
HETATM   20  C   UNL     1       7.202  -0.085  20.169  1.00  0.00     0.068 A 
HETATM   21  C   UNL     1       7.243   0.028  18.917  1.00  0.00     0.118 A 
HETATM   22  N   UNL     1       6.806   0.321  17.728  1.00  0.00    -0.373 N 
HETATM   23  C   UNL     1       5.683   0.888  18.242  1.00  0.00     0.089 A 
ATOM     24  HN  UNL     1       7.164   0.181  16.783  1.00  0.00     0.164 HD
HETATM   25  C   UNL     1       5.296   0.982  19.401  1.00  0.00     0.038 A 
HETATM   26  C   UNL     1       5.750   0.601  20.546  1.00  0.00     0.040 A 
HETATM   27 BR   UNL     1       5.155   0.703  22.079  1.00  0.00    -0.049 Br
ENDBRANCH  18  20
ENDBRANCH  15  16
ENDBRANCH   1  15
TORSDOF 6
