REMARK  1 active torsions:
REMARK  status: ('A' for Active; 'I' for Inactive)
REMARK    1  A    between atoms: C_3  and  C_4 
ROOT
HETATM    1  C   UNL     1       8.949  -2.212  23.482  1.00  0.00     0.094 C 
HETATM    2  C   UNL     1       9.855  -1.239  23.891  1.00  0.00     0.051 C 
HETATM    3  C   UNL     1      11.555   0.218  23.089  1.00  0.00     0.029 C 
HETATM    4  N   UNL     1       8.893  -2.297  22.191  1.00  0.00    -0.294 N 
ATOM      5  HN  UNL     1       8.965  -3.220  21.762  1.00  0.00     0.187 HD
HETATM    6  C   UNL     1       9.528  -0.245  21.676  1.00  0.00     0.269 C 
HETATM    7  N   UNL     1       8.751  -1.274  21.423  1.00  0.00    -0.265 N 
ATOM      8  HN  UNL     1       8.073  -1.263  20.661  1.00  0.00     0.190 HD
HETATM    9  O   UNL     1       9.565   0.694  20.854  1.00  0.00    -0.266 OA
HETATM   10  C   UNL     1      10.287  -0.370  22.886  1.00  0.00     0.026 C 
ENDROOT
BRANCH   1  11
HETATM   11  C   UNL     1       8.186  -3.156  24.375  1.00  0.00     0.173 C 
HETATM   12  O   UNL     1       7.063  -3.568  24.220  1.00  0.00    -0.291 OA
HETATM   13  C   UNL     1       8.764  -3.681  25.644  1.00  0.00     0.098 C 
ENDBRANCH   1  11
TORSDOF 1
