stable:False satoms:17 tatoms:24 sratio:0.7083333333333334
  -OEChem-07092417333D

 24 23  0     0  0  0  0  0  0999 V2000
    7.0631   -3.5676   24.2203 O   0  0  0  0  0  0  0  0  0  0  0  0
    8.7645   -3.6810   25.6441 C   0  0  0  0  0  0  0  0  0  0  0  0
    9.7821   -3.9985   25.5467 H   0  0  0  0  0  0  0  0  0  0  0  0
    8.6658   -2.9504   26.4287 H   0  0  0  0  0  0  0  0  0  0  0  0
    8.1682   -4.5424   25.8920 H   0  0  0  0  0  0  0  0  0  0  0  0
    8.1859   -3.1565   24.3750 C   0  0  0  0  0  0  0  0  0  0  0  0
    8.9487   -2.2122   23.4820 C   0  0  0  0  0  0  0  0  0  0  0  0
   10.2972   -1.2549   24.8521 H   0  0  0  0  0  0  0  0  0  0  0  0
    9.8551   -1.2393   23.8906 C   0  0  0  0  0  0  0  0  0  0  0  0
   11.9252    0.3489   24.0727 H   0  0  0  0  0  0  0  0  0  0  0  0
   12.1055    0.6423   22.3084 H   0  0  0  0  0  0  0  0  0  0  0  0
   11.5547    0.2180   23.0889 C   0  5  0  0  0  0  0  0  0  0  0  0
    8.8927   -2.2968   22.1907 N   0  0  0  0  0  0  0  0  0  0  0  0
    9.5278   -0.2454   21.6764 C   0  0  0  0  0  0  0  0  0  0  0  0
    8.7510   -1.2739   21.4226 N   0  0  0  0  0  0  0  0  0  0  0  0
    9.5647    0.6941   20.8541 O   0  0  0  0  0  0  0  0  0  0  0  0
   10.2874   -0.3699   22.8858 C   0  0  0  0  0  0  0  0  0  0  0  0
    7.3455    1.1344   20.9231 H   0  0  0  0  0  0  0  0  0  0  0  0
    6.4651   -0.9076   18.9708 H   0  0  0  0  0  0  0  0  0  0  0  0
    6.7398    0.1064   19.1892 C   0  0  0  0  0  0  0  0  0  0  0  0
    7.7358    0.2301   18.7892 H   0  0  0  0  0  0  0  0  0  0  0  0
    6.6974    0.4041   20.5911 C   0  5  0  0  0  0  0  0  0  0  0  0
    6.0888    0.8043   18.7113 H   0  0  0  0  0  0  0  0  0  0  0  0
    6.1720   -0.1762   21.2908 H   0  0  0  0  0  0  0  0  0  0  0  0
 20 23  1  0  0  0  0
 20 21  1  0  0  0  0
 19 20  1  0  0  0  0
 20 22  1  0  0  0  0
 18 22  1  0  0  0  0
 22 24  1  0  0  0  0
 14 16  2  0  0  0  0
 14 15  1  0  0  0  0
 13 15  1  0  0  0  0
 14 17  1  0  0  0  0
  7 13  2  0  0  0  0
 11 12  1  0  0  0  0
 12 17  1  0  0  0  0
  9 17  2  0  0  0  0
 10 12  1  0  0  0  0
  7  9  1  0  0  0  0
  6  7  1  0  0  0  0
  8  9  1  0  0  0  0
  1  6  2  0  0  0  0
  2  6  1  0  0  0  0
  2  3  1  0  0  0  0
  2  5  1  0  0  0  0
  2  4  1  0  0  0  0
M  CHG  2  12  -1  22  -1
M  END
> <Shapegauss>
-133.654114

$$$$
