MODEL 1
REMARK VINA RESULT:    -5.254      0.000      0.000
REMARK INTER + INTRA:          -8.286
REMARK INTER:                  -7.711
REMARK INTRA:                  -0.575
REMARK UNBOUND:                -0.575
REMARK  8 active torsions:
REMARK  status: ('A' for Active; 'I' for Inactive)
REMARK    1  A    between atoms: N_2  and  C_4 
REMARK    2  A    between atoms: C_4  and  C_5 
REMARK    3  A    between atoms: C_5  and  C_8 
REMARK    4  A    between atoms: C_6  and  C_8 
REMARK    5  A    between atoms: C_8  and  N_10 
REMARK    6  A    between atoms: C_9  and  N_12 
REMARK    7  A    between atoms: C_9  and  N_10 
REMARK    8  A    between atoms: N_12  and  C_14 
ROOT
HETATM    1  C   UNL     1       2.613 -18.170   8.723  1.00  0.00     0.054 C 
ENDROOT
BRANCH   1   2
HETATM    2  N   UNL     1       3.384 -18.950   8.873  1.00  0.00    -0.292 N 
ATOM      3  HN  UNL     1       4.271 -18.677   9.297  1.00  0.00     0.178 HD
BRANCH   2   4
HETATM    4  C   UNL     1       3.223 -20.168   8.545  1.00  0.00     0.127 C 
HETATM    5  N   UNL     1       3.932 -20.912   7.608  1.00  0.00    -0.289 N 
HETATM    6  N   UNL     1       4.100 -21.937   7.167  1.00  0.00    -0.331 N 
ATOM      7  HN  UNL     1       4.554 -20.267   7.119  1.00  0.00     0.188 HD
HETATM    8  C   UNL     1       2.993 -22.800   7.880  1.00  0.00     0.166 C 
ATOM      9  HN  UNL     1       4.794 -22.231   6.480  1.00  0.00     0.180 HD
HETATM   10  C   UNL     1       2.527 -22.165   8.653  1.00  0.00    -0.002 C 
HETATM   11  C   UNL     1       2.361 -21.041   9.243  1.00  0.00     0.048 C 
ENDBRANCH   2   4
ENDBRANCH   1   2
BRANCH   1  12
HETATM   12  N   UNL     1       1.900 -17.220   8.506  1.00  0.00    -0.303 N 
ATOM     13  HN  UNL     1       2.231 -16.367   8.054  1.00  0.00     0.177 HD
BRANCH  12  14
HETATM   14  C   UNL     1       0.565 -17.395   8.932  1.00  0.00     0.073 C 
BRANCH  14  15
HETATM   15  C   UNL     1      -0.101 -16.852   9.929  1.00  0.00    -0.030 C 
BRANCH  15  16
HETATM   16  C   UNL     1      -0.577 -16.382  10.985  1.00  0.00     0.012 C 
BRANCH  16  17
HETATM   17  N   UNL     1      -0.890 -16.181  12.122  1.00  0.00    -0.354 N 
HETATM   18  C   UNL     1      -0.346 -16.473  13.418  1.00  0.00     0.157 C 
ATOM     19  HN  UNL     1      -1.771 -15.670  12.187  1.00  0.00     0.169 HD
ENDBRANCH  16  17
ENDBRANCH  15  16
ENDBRANCH  14  15
BRANCH  14  20
HETATM   20  C   UNL     1      -0.153 -18.417   8.140  1.00  0.00     0.063 C 
HETATM   21  C   UNL     1      -0.529 -17.894   6.822  1.00  0.00     0.012 C 
ENDBRANCH  14  20
ENDBRANCH  12  14
ENDBRANCH   1  12
TORSDOF 8
ENDMDL
MODEL 2
REMARK VINA RESULT:    -5.016     20.362     23.725
REMARK INTER + INTRA:          -7.936
REMARK INTER:                  -7.510
REMARK INTRA:                  -0.426
REMARK UNBOUND:                -0.575
REMARK  8 active torsions:
REMARK  status: ('A' for Active; 'I' for Inactive)
REMARK    1  A    between atoms: N_2  and  C_4 
REMARK    2  A    between atoms: C_4  and  C_5 
REMARK    3  A    between atoms: C_5  and  C_8 
REMARK    4  A    between atoms: C_6  and  C_8 
REMARK    5  A    between atoms: C_8  and  N_10 
REMARK    6  A    between atoms: C_9  and  N_12 
REMARK    7  A    between atoms: C_9  and  N_10 
REMARK    8  A    between atoms: N_12  and  C_14 
ROOT
HETATM    1  C   UNL     1       8.900  -2.293  23.255  1.00  0.00     0.054 C 
ENDROOT
BRANCH   1   2
HETATM    2  N   UNL     1       9.253  -1.409  23.818  1.00  0.00    -0.292 N 
ATOM      3  HN  UNL     1       8.557  -0.803  24.252  1.00  0.00     0.178 HD
BRANCH   2   4
HETATM    4  C   UNL     1      10.482  -1.109  23.953  1.00  0.00     0.127 C 
HETATM    5  N   UNL     1      11.577  -1.619  23.263  1.00  0.00    -0.289 N 
HETATM    6  N   UNL     1      12.687  -1.527  23.081  1.00  0.00    -0.331 N 
ATOM      7  HN  UNL     1      11.239  -2.391  22.688  1.00  0.00     0.188 HD
HETATM    8  C   UNL     1      13.114  -0.426  24.122  1.00  0.00     0.166 C 
ATOM      9  HN  UNL     1      13.267  -2.031  22.410  1.00  0.00     0.180 HD
HETATM   10  C   UNL     1      12.191  -0.022  24.571  1.00  0.00    -0.002 C 
HETATM   11  C   UNL     1      10.923  -0.030  24.749  1.00  0.00     0.048 C 
ENDBRANCH   2   4
ENDBRANCH   1   2
BRANCH   1  12
HETATM   12  N   UNL     1       8.643  -3.343  22.715  1.00  0.00    -0.303 N 
ATOM     13  HN  UNL     1       8.964  -3.579  21.775  1.00  0.00     0.177 HD
BRANCH  12  14
HETATM   14  C   UNL     1       7.859  -4.216  23.501  1.00  0.00     0.073 C 
BRANCH  14  15
HETATM   15  C   UNL     1       8.030  -4.662  24.726  1.00  0.00    -0.030 C 
BRANCH  15  16
HETATM   16  C   UNL     1       8.147  -5.263  25.817  1.00  0.00     0.012 C 
BRANCH  16  17
HETATM   17  N   UNL     1       8.111  -5.584  26.968  1.00  0.00    -0.354 N 
HETATM   18  C   UNL     1       7.098  -5.741  27.974  1.00  0.00     0.157 C 
ATOM     19  HN  UNL     1       9.041  -5.801  27.330  1.00  0.00     0.169 HD
ENDBRANCH  16  17
ENDBRANCH  15  16
ENDBRANCH  14  15
BRANCH  14  20
HETATM   20  C   UNL     1       6.691  -4.745  22.763  1.00  0.00     0.063 C 
HETATM   21  C   UNL     1       7.085  -5.839  21.868  1.00  0.00     0.012 C 
ENDBRANCH  14  20
ENDBRANCH  12  14
ENDBRANCH   1  12
TORSDOF 8
ENDMDL
MODEL 3
REMARK VINA RESULT:    -4.984     31.528     33.376
REMARK INTER + INTRA:          -7.889
REMARK INTER:                  -7.204
REMARK INTRA:                  -0.685
REMARK UNBOUND:                -0.575
REMARK  8 active torsions:
REMARK  status: ('A' for Active; 'I' for Inactive)
REMARK    1  A    between atoms: N_2  and  C_4 
REMARK    2  A    between atoms: C_4  and  C_5 
REMARK    3  A    between atoms: C_5  and  C_8 
REMARK    4  A    between atoms: C_6  and  C_8 
REMARK    5  A    between atoms: C_8  and  N_10 
REMARK    6  A    between atoms: C_9  and  N_12 
REMARK    7  A    between atoms: C_9  and  N_10 
REMARK    8  A    between atoms: N_12  and  C_14 
ROOT
HETATM    1  C   UNL     1       7.063  13.118   0.886  1.00  0.00     0.054 C 
ENDROOT
BRANCH   1   2
HETATM    2  N   UNL     1       7.838  13.889   0.714  1.00  0.00    -0.292 N 
ATOM      3  HN  UNL     1       8.098  14.107  -0.248  1.00  0.00     0.178 HD
BRANCH   2   4
HETATM    4  C   UNL     1       8.421  14.517   1.653  1.00  0.00     0.127 C 
HETATM    5  N   UNL     1       9.705  14.327   2.154  1.00  0.00    -0.289 N 
HETATM    6  N   UNL     1      10.500  14.721   2.852  1.00  0.00    -0.331 N 
ATOM      7  HN  UNL     1      10.081  13.490   1.709  1.00  0.00     0.188 HD
HETATM    8  C   UNL     1       9.758  15.901   3.583  1.00  0.00     0.166 C 
ATOM      9  HN  UNL     1      11.458  14.394   2.977  1.00  0.00     0.180 HD
HETATM   10  C   UNL     1       8.782  16.036   3.085  1.00  0.00    -0.002 C 
HETATM   11  C   UNL     1       7.883  15.679   2.248  1.00  0.00     0.048 C 
ENDBRANCH   2   4
ENDBRANCH   1   2
BRANCH   1  12
HETATM   12  N   UNL     1       6.122  12.363   0.962  1.00  0.00    -0.303 N 
ATOM     13  HN  UNL     1       5.682  11.940   0.145  1.00  0.00     0.177 HD
BRANCH  12  14
HETATM   14  C   UNL     1       5.687  12.120   2.283  1.00  0.00     0.073 C 
BRANCH  14  15
HETATM   15  C   UNL     1       5.860  11.081   3.071  1.00  0.00    -0.030 C 
BRANCH  15  16
HETATM   16  C   UNL     1       5.837  10.052   3.781  1.00  0.00     0.012 C 
BRANCH  16  17
HETATM   17  N   UNL     1       6.107   9.038   4.355  1.00  0.00    -0.354 N 
HETATM   18  C   UNL     1       5.467   8.186   5.318  1.00  0.00     0.157 C 
ATOM     19  HN  UNL     1       7.030   8.689   4.094  1.00  0.00     0.169 HD
ENDBRANCH  16  17
ENDBRANCH  15  16
ENDBRANCH  14  15
BRANCH  14  20
HETATM   20  C   UNL     1       4.843  13.214   2.811  1.00  0.00     0.063 C 
HETATM   21  C   UNL     1       5.359  13.705   4.094  1.00  0.00     0.012 C 
ENDBRANCH  14  20
ENDBRANCH  12  14
ENDBRANCH   1  12
TORSDOF 8
ENDMDL
MODEL 4
REMARK VINA RESULT:    -4.955     37.176     38.802
REMARK INTER + INTRA:          -7.847
REMARK INTER:                  -7.201
REMARK INTRA:                  -0.647
REMARK UNBOUND:                -0.575
REMARK  8 active torsions:
REMARK  status: ('A' for Active; 'I' for Inactive)
REMARK    1  A    between atoms: N_2  and  C_4 
REMARK    2  A    between atoms: C_4  and  C_5 
REMARK    3  A    between atoms: C_5  and  C_8 
REMARK    4  A    between atoms: C_6  and  C_8 
REMARK    5  A    between atoms: C_8  and  N_10 
REMARK    6  A    between atoms: C_9  and  N_12 
REMARK    7  A    between atoms: C_9  and  N_10 
REMARK    8  A    between atoms: N_12  and  C_14 
ROOT
HETATM    1  C   UNL     1       8.958  17.898   0.439  1.00  0.00     0.054 C 
ENDROOT
BRANCH   1   2
HETATM    2  N   UNL     1       8.684  16.878   0.766  1.00  0.00    -0.292 N 
ATOM      3  HN  UNL     1       8.039  16.341   0.186  1.00  0.00     0.178 HD
BRANCH   2   4
HETATM    4  C   UNL     1       9.129  16.339   1.828  1.00  0.00     0.127 C 
HETATM    5  N   UNL     1       9.996  15.257   1.951  1.00  0.00    -0.289 N 
HETATM    6  N   UNL     1      10.609  14.632   2.663  1.00  0.00    -0.331 N 
ATOM      7  HN  UNL     1      10.133  14.873   1.016  1.00  0.00     0.188 HD
HETATM    8  C   UNL     1      10.200  15.214   4.067  1.00  0.00     0.166 C 
ATOM      9  HN  UNL     1      11.263  13.879   2.450  1.00  0.00     0.180 HD
HETATM   10  C   UNL     1       9.576  16.106   3.886  1.00  0.00    -0.002 C 
HETATM   11  C   UNL     1       8.932  16.895   3.111  1.00  0.00     0.048 C 
ENDBRANCH   2   4
ENDBRANCH   1   2
BRANCH   1  12
HETATM   12  N   UNL     1       9.165  18.980  -0.058  1.00  0.00    -0.303 N 
ATOM     13  HN  UNL     1       8.968  19.189  -1.037  1.00  0.00     0.177 HD
BRANCH  12  14
HETATM   14  C   UNL     1       9.705  19.929   0.837  1.00  0.00     0.073 C 
BRANCH  14  15
HETATM   15  C   UNL     1      10.624  19.808   1.771  1.00  0.00    -0.030 C 
BRANCH  15  16
HETATM   16  C   UNL     1      11.571  19.861   2.587  1.00  0.00     0.012 C 
BRANCH  16  17
HETATM   17  N   UNL     1      12.456  19.600   3.347  1.00  0.00    -0.354 N 
HETATM   18  C   UNL     1      12.602  18.825   4.547  1.00  0.00     0.157 C 
ATOM     19  HN  UNL     1      13.334  20.042   3.072  1.00  0.00     0.169 HD
ENDBRANCH  16  17
ENDBRANCH  15  16
ENDBRANCH  14  15
BRANCH  14  20
HETATM   20  C   UNL     1       9.057  21.253   0.717  1.00  0.00     0.063 C 
HETATM   21  C   UNL     1      10.013  22.268   0.260  1.00  0.00     0.012 C 
ENDBRANCH  14  20
ENDBRANCH  12  14
ENDBRANCH   1  12
TORSDOF 8
ENDMDL
MODEL 5
REMARK VINA RESULT:    -4.871     34.622     36.480
REMARK INTER + INTRA:          -7.723
REMARK INTER:                  -7.305
REMARK INTRA:                  -0.419
REMARK UNBOUND:                -0.575
REMARK  8 active torsions:
REMARK  status: ('A' for Active; 'I' for Inactive)
REMARK    1  A    between atoms: N_2  and  C_4 
REMARK    2  A    between atoms: C_4  and  C_5 
REMARK    3  A    between atoms: C_5  and  C_8 
REMARK    4  A    between atoms: C_6  and  C_8 
REMARK    5  A    between atoms: C_8  and  N_10 
REMARK    6  A    between atoms: C_9  and  N_12 
REMARK    7  A    between atoms: C_9  and  N_10 
REMARK    8  A    between atoms: N_12  and  C_14 
ROOT
HETATM    1  C   UNL     1       9.444  15.541   1.486  1.00  0.00     0.054 C 
ENDROOT
BRANCH   1   2
HETATM    2  N   UNL     1       8.749  16.255   1.005  1.00  0.00    -0.292 N 
ATOM      3  HN  UNL     1       7.879  15.894   0.614  1.00  0.00     0.178 HD
BRANCH   2   4
HETATM    4  C   UNL     1       8.979  17.502   0.913  1.00  0.00     0.127 C 
HETATM    5  N   UNL     1       9.981  18.245   1.529  1.00  0.00    -0.289 N 
HETATM    6  N   UNL     1      10.485  19.252   1.598  1.00  0.00    -0.331 N 
ATOM      7  HN  UNL     1      10.454  17.625   2.188  1.00  0.00     0.188 HD
HETATM    8  C   UNL     1       9.584  20.148   0.669  1.00  0.00     0.166 C 
ATOM      9  HN  UNL     1      11.314  19.516   2.130  1.00  0.00     0.180 HD
HETATM   10  C   UNL     1       8.865  19.480   0.164  1.00  0.00    -0.002 C 
HETATM   11  C   UNL     1       8.317  18.337  -0.013  1.00  0.00     0.048 C 
ENDBRANCH   2   4
ENDBRANCH   1   2
BRANCH   1  12
HETATM   12  N   UNL     1      10.063  14.667   2.045  1.00  0.00    -0.303 N 
ATOM     13  HN  UNL     1      10.965  14.324   1.712  1.00  0.00     0.177 HD
BRANCH  12  14
HETATM   14  C   UNL     1       9.428  14.164   3.201  1.00  0.00     0.073 C 
BRANCH  14  15
HETATM   15  C   UNL     1       8.729  13.066   3.393  1.00  0.00    -0.030 C 
BRANCH  15  16
HETATM   16  C   UNL     1       8.129  12.031   3.760  1.00  0.00     0.012 C 
BRANCH  16  17
HETATM   17  N   UNL     1       7.541  10.991   3.803  1.00  0.00    -0.354 N 
HETATM   18  C   UNL     1       6.212  10.561   4.141  1.00  0.00     0.157 C 
ATOM     19  HN  UNL     1       8.135  10.208   3.531  1.00  0.00     0.169 HD
ENDBRANCH  16  17
ENDBRANCH  15  16
ENDBRANCH  14  15
BRANCH  14  20
HETATM   20  C   UNL     1       9.534  15.087   4.352  1.00  0.00     0.063 C 
HETATM   21  C   UNL     1      10.924  15.207   4.805  1.00  0.00     0.012 C 
ENDBRANCH  14  20
ENDBRANCH  12  14
ENDBRANCH   1  12
TORSDOF 8
ENDMDL
MODEL 6
REMARK VINA RESULT:    -4.784     31.998     33.804
REMARK INTER + INTRA:          -7.596
REMARK INTER:                  -7.043
REMARK INTRA:                  -0.553
REMARK UNBOUND:                -0.575
REMARK  8 active torsions:
REMARK  status: ('A' for Active; 'I' for Inactive)
REMARK    1  A    between atoms: N_2  and  C_4 
REMARK    2  A    between atoms: C_4  and  C_5 
REMARK    3  A    between atoms: C_5  and  C_8 
REMARK    4  A    between atoms: C_6  and  C_8 
REMARK    5  A    between atoms: C_8  and  N_10 
REMARK    6  A    between atoms: C_9  and  N_12 
REMARK    7  A    between atoms: C_9  and  N_10 
REMARK    8  A    between atoms: N_12  and  C_14 
ROOT
HETATM    1  C   UNL     1       7.096  13.133   0.863  1.00  0.00     0.054 C 
ENDROOT
BRANCH   1   2
HETATM    2  N   UNL     1       7.806  13.976   0.772  1.00  0.00    -0.292 N 
ATOM      3  HN  UNL     1       7.979  14.365  -0.155  1.00  0.00     0.178 HD
BRANCH   2   4
HETATM    4  C   UNL     1       8.420  14.486   1.762  1.00  0.00     0.127 C 
HETATM    5  N   UNL     1       9.763  14.364   2.103  1.00  0.00    -0.289 N 
HETATM    6  N   UNL     1      10.584  14.715   2.793  1.00  0.00    -0.331 N 
ATOM      7  HN  UNL     1      10.174  13.676   1.471  1.00  0.00     0.188 HD
HETATM    8  C   UNL     1       9.808  15.639   3.804  1.00  0.00     0.166 C 
ATOM      9  HN  UNL     1      11.579  14.490   2.769  1.00  0.00     0.180 HD
HETATM   10  C   UNL     1       8.776  15.745   3.428  1.00  0.00    -0.002 C 
HETATM   11  C   UNL     1       7.832  15.442   2.618  1.00  0.00     0.048 C 
ENDBRANCH   2   4
ENDBRANCH   1   2
BRANCH   1  12
HETATM   12  N   UNL     1       6.433  12.123   0.872  1.00  0.00    -0.303 N 
ATOM     13  HN  UNL     1       6.517  11.396   0.161  1.00  0.00     0.177 HD
BRANCH  12  14
HETATM   14  C   UNL     1       5.531  12.038   1.956  1.00  0.00     0.073 C 
BRANCH  14  15
HETATM   15  C   UNL     1       4.286  12.442   2.075  1.00  0.00    -0.030 C 
BRANCH  15  16
HETATM   16  C   UNL     1       3.096  12.821   1.993  1.00  0.00     0.012 C 
BRANCH  16  17
HETATM   17  N   UNL     1       1.978  13.045   1.634  1.00  0.00    -0.354 N 
HETATM   18  C   UNL     1       1.183  14.213   1.374  1.00  0.00     0.157 C 
ATOM     19  HN  UNL     1       1.453  12.185   1.471  1.00  0.00     0.169 HD
ENDBRANCH  16  17
ENDBRANCH  15  16
ENDBRANCH  14  15
BRANCH  14  20
HETATM   20  C   UNL     1       6.151  11.446   3.162  1.00  0.00     0.063 C 
HETATM   21  C   UNL     1       5.709  10.061   3.355  1.00  0.00     0.012 C 
ENDBRANCH  14  20
ENDBRANCH  12  14
ENDBRANCH   1  12
TORSDOF 8
ENDMDL
MODEL 7
REMARK VINA RESULT:    -4.740     30.064     31.959
REMARK INTER + INTRA:          -7.532
REMARK INTER:                  -7.059
REMARK INTRA:                  -0.472
REMARK UNBOUND:                -0.575
REMARK  8 active torsions:
REMARK  status: ('A' for Active; 'I' for Inactive)
REMARK    1  A    between atoms: N_2  and  C_4 
REMARK    2  A    between atoms: C_4  and  C_5 
REMARK    3  A    between atoms: C_5  and  C_8 
REMARK    4  A    between atoms: C_6  and  C_8 
REMARK    5  A    between atoms: C_8  and  N_10 
REMARK    6  A    between atoms: C_9  and  N_12 
REMARK    7  A    between atoms: C_9  and  N_10 
REMARK    8  A    between atoms: N_12  and  C_14 
ROOT
HETATM    1  C   UNL     1       7.867  11.558   3.409  1.00  0.00     0.054 C 
ENDROOT
BRANCH   1   2
HETATM    2  N   UNL     1       8.694  12.214   3.741  1.00  0.00    -0.292 N 
ATOM      3  HN  UNL     1       9.360  11.846   4.420  1.00  0.00     0.178 HD
BRANCH   2   4
HETATM    4  C   UNL     1       8.858  13.402   3.319  1.00  0.00     0.127 C 
HETATM    5  N   UNL     1      10.016  13.990   2.819  1.00  0.00    -0.289 N 
HETATM    6  N   UNL     1      10.457  14.903   2.323  1.00  0.00    -0.331 N 
ATOM      7  HN  UNL     1      10.776  13.325   2.958  1.00  0.00     0.188 HD
HETATM    8  C   UNL     1       9.240  15.902   2.304  1.00  0.00     0.166 C 
ATOM      9  HN  UNL     1      11.405  15.045   1.975  1.00  0.00     0.180 HD
HETATM   10  C   UNL     1       8.351  15.344   2.643  1.00  0.00    -0.002 C 
HETATM   11  C   UNL     1       7.787  14.302   3.128  1.00  0.00     0.048 C 
ENDBRANCH   2   4
ENDBRANCH   1   2
BRANCH   1  12
HETATM   12  N   UNL     1       7.075  10.714   3.061  1.00  0.00    -0.303 N 
ATOM     13  HN  UNL     1       7.109  10.263   2.147  1.00  0.00     0.177 HD
BRANCH  12  14
HETATM   14  C   UNL     1       6.098  10.408   4.034  1.00  0.00     0.073 C 
BRANCH  14  15
HETATM   15  C   UNL     1       5.761   9.263   4.586  1.00  0.00    -0.030 C 
BRANCH  15  16
HETATM   16  C   UNL     1       5.512   8.092   4.949  1.00  0.00     0.012 C 
BRANCH  16  17
HETATM   17  N   UNL     1       5.384   6.905   5.012  1.00  0.00    -0.354 N 
HETATM   18  C   UNL     1       4.301   5.968   4.899  1.00  0.00     0.157 C 
ATOM     19  HN  UNL     1       6.273   6.436   5.191  1.00  0.00     0.169 HD
ENDBRANCH  16  17
ENDBRANCH  15  16
ENDBRANCH  14  15
BRANCH  14  20
HETATM   20  C   UNL     1       5.299  11.589   4.424  1.00  0.00     0.063 C 
HETATM   21  C   UNL     1       3.877  11.384   4.128  1.00  0.00     0.012 C 
ENDBRANCH  14  20
ENDBRANCH  12  14
ENDBRANCH   1  12
TORSDOF 8
ENDMDL
MODEL 8
REMARK VINA RESULT:    -4.738     30.882     32.710
REMARK INTER + INTRA:          -7.528
REMARK INTER:                  -7.017
REMARK INTRA:                  -0.512
REMARK UNBOUND:                -0.575
REMARK  8 active torsions:
REMARK  status: ('A' for Active; 'I' for Inactive)
REMARK    1  A    between atoms: N_2  and  C_4 
REMARK    2  A    between atoms: C_4  and  C_5 
REMARK    3  A    between atoms: C_5  and  C_8 
REMARK    4  A    between atoms: C_6  and  C_8 
REMARK    5  A    between atoms: C_8  and  N_10 
REMARK    6  A    between atoms: C_9  and  N_12 
REMARK    7  A    between atoms: C_9  and  N_10 
REMARK    8  A    between atoms: N_12  and  C_14 
ROOT
HETATM    1  C   UNL     1       7.805  11.424   3.473  1.00  0.00     0.054 C 
ENDROOT
BRANCH   1   2
HETATM    2  N   UNL     1       8.574  12.146   3.807  1.00  0.00    -0.292 N 
ATOM      3  HN  UNL     1       9.098  11.936   4.657  1.00  0.00     0.178 HD
BRANCH   2   4
HETATM    4  C   UNL     1       8.837  13.226   3.188  1.00  0.00     0.127 C 
HETATM    5  N   UNL     1      10.053  13.895   3.096  1.00  0.00    -0.289 N 
HETATM    6  N   UNL     1      10.614  14.745   2.609  1.00  0.00    -0.331 N 
ATOM      7  HN  UNL     1      10.704  13.427   3.728  1.00  0.00     0.188 HD
HETATM    8  C   UNL     1       9.483  15.474   1.791  1.00  0.00     0.166 C 
ATOM      9  HN  UNL     1      11.603  14.981   2.680  1.00  0.00     0.180 HD
HETATM   10  C   UNL     1       8.576  14.849   1.853  1.00  0.00    -0.002 C 
HETATM   11  C   UNL     1       7.922  13.850   2.313  1.00  0.00     0.048 C 
ENDBRANCH   2   4
ENDBRANCH   1   2
BRANCH   1  12
HETATM   12  N   UNL     1       7.080  10.514   3.149  1.00  0.00    -0.303 N 
ATOM     13  HN  UNL     1       7.407   9.701   2.625  1.00  0.00     0.177 HD
BRANCH  12  14
HETATM   14  C   UNL     1       5.738  10.676   3.559  1.00  0.00     0.073 C 
BRANCH  14  15
HETATM   15  C   UNL     1       4.712  11.231   2.952  1.00  0.00    -0.030 C 
BRANCH  15  16
HETATM   16  C   UNL     1       3.865  11.894   2.313  1.00  0.00     0.012 C 
BRANCH  16  17
HETATM   17  N   UNL     1       3.270  12.752   1.731  1.00  0.00    -0.354 N 
HETATM   18  C   UNL     1       1.976  13.368   1.827  1.00  0.00     0.157 C 
ATOM     19  HN  UNL     1       3.823  13.149   0.971  1.00  0.00     0.169 HD
ENDBRANCH  16  17
ENDBRANCH  15  16
ENDBRANCH  14  15
BRANCH  14  20
HETATM   20  C   UNL     1       5.504  10.182   4.933  1.00  0.00     0.063 C 
HETATM   21  C   UNL     1       5.298   8.729   4.942  1.00  0.00     0.012 C 
ENDBRANCH  14  20
ENDBRANCH  12  14
ENDBRANCH   1  12
TORSDOF 8
ENDMDL
MODEL 9
REMARK VINA RESULT:    -4.724     22.481     24.318
REMARK INTER + INTRA:          -7.508
REMARK INTER:                  -7.080
REMARK INTRA:                  -0.427
REMARK UNBOUND:                -0.575
REMARK  8 active torsions:
REMARK  status: ('A' for Active; 'I' for Inactive)
REMARK    1  A    between atoms: N_2  and  C_4 
REMARK    2  A    between atoms: C_4  and  C_5 
REMARK    3  A    between atoms: C_5  and  C_8 
REMARK    4  A    between atoms: C_6  and  C_8 
REMARK    5  A    between atoms: C_8  and  N_10 
REMARK    6  A    between atoms: C_9  and  N_12 
REMARK    7  A    between atoms: C_9  and  N_10 
REMARK    8  A    between atoms: N_12  and  C_14 
ROOT
HETATM    1  C   UNL     1       9.626   0.155  21.410  1.00  0.00     0.054 C 
ENDROOT
BRANCH   1   2
HETATM    2  N   UNL     1       9.043  -0.410  20.659  1.00  0.00    -0.292 N 
ATOM      3  HN  UNL     1       9.363  -1.344  20.401  1.00  0.00     0.178 HD
BRANCH   2   4
HETATM    4  C   UNL     1       7.996   0.044  20.098  1.00  0.00     0.127 C 
HETATM    5  N   UNL     1       7.642  -0.007  18.754  1.00  0.00    -0.289 N 
HETATM    6  N   UNL     1       6.831   0.195  17.996  1.00  0.00    -0.331 N 
ATOM      7  HN  UNL     1       8.444  -0.381  18.245  1.00  0.00     0.188 HD
HETATM    8  C   UNL     1       5.723   0.901  18.863  1.00  0.00     0.166 C 
ATOM      9  HN  UNL     1       6.819  -0.025  17.000  1.00  0.00     0.180 HD
HETATM   10  C   UNL     1       6.041   0.839  19.918  1.00  0.00    -0.002 C 
HETATM   11  C   UNL     1       6.896   0.549  20.825  1.00  0.00     0.048 C 
ENDBRANCH   2   4
ENDBRANCH   1   2
BRANCH   1  12
HETATM   12  N   UNL     1      10.162   0.905  22.192  1.00  0.00    -0.303 N 
ATOM     13  HN  UNL     1      10.360   1.882  21.978  1.00  0.00     0.177 HD
BRANCH  12  14
HETATM   14  C   UNL     1      10.490   0.306  23.428  1.00  0.00     0.073 C 
BRANCH  14  15
HETATM   15  C   UNL     1       9.905  -0.662  24.100  1.00  0.00    -0.030 C 
BRANCH  15  16
HETATM   16  C   UNL     1       9.395  -1.696  24.585  1.00  0.00     0.012 C 
BRANCH  16  17
HETATM   17  N   UNL     1       8.907  -2.512  25.310  1.00  0.00    -0.354 N 
HETATM   18  C   UNL     1       8.170  -3.735  25.152  1.00  0.00     0.157 C 
ATOM     19  HN  UNL     1       9.050  -2.280  26.293  1.00  0.00     0.169 HD
ENDBRANCH  16  17
ENDBRANCH  15  16
ENDBRANCH  14  15
BRANCH  14  20
HETATM   20  C   UNL     1      11.656   0.946  24.075  1.00  0.00     0.063 C 
HETATM   21  C   UNL     1      12.731  -0.026  24.303  1.00  0.00     0.012 C 
ENDBRANCH  14  20
ENDBRANCH  12  14
ENDBRANCH   1  12
TORSDOF 8
ENDMDL
