stable:False satoms:19 tatoms:24 sratio:0.7916666666666666
  -OEChem-07092417283D

 24 23  0     0  0  0  0  0  0999 V2000
   10.7241   -2.2276   24.4950 N   0  0  0  0  0  0  0  0  0  0  0  0
   12.8219   -0.5797   24.7682 H   0  0  0  0  0  0  0  0  0  0  0  0
    8.0820   -1.0840   20.9250 C   0  0  0  0  0  0  0  0  0  0  0  0
   12.6799    1.0930   24.1910 H   0  0  0  0  0  0  0  0  0  0  0  0
    9.6001   -0.8132   22.9027 C   0  0  0  0  0  0  0  0  0  0  0  0
   10.9263    0.1151   24.3017 O   0  0  0  0  0  0  0  0  0  0  0  0
   12.3235    0.0758   24.0614 C   0  0  0  0  0  0  0  0  0  0  0  0
    7.5657   -1.1771   19.9799 H   0  0  0  0  0  0  0  0  0  0  0  0
    9.3328   -0.5580   20.8091 N   0  3  0  0  0  0  0  0  0  0  0  0
    6.4130   -2.0431   23.6581 H   0  0  0  0  0  0  0  0  0  0  0  0
   10.3979   -1.0203   23.9498 C   0  0  0  0  0  0  0  0  0  0  0  0
   11.8077   -2.6630   24.4903 O   0  0  0  0  0  0  0  0  0  0  0  0
    7.5631   -1.4310   22.0140 C   0  0  0  0  0  0  0  0  0  0  0  0
    5.1673   -1.3091   22.0530 C   0  0  0  0  0  0  0  0  0  0  0  0
   12.5316   -0.2716   23.0605 H   0  0  0  0  0  0  0  0  0  0  0  0
    9.9066   -0.2710   21.9225 N   0  0  0  0  0  0  0  0  0  0  0  0
    4.0413   -1.6208   20.4348 H   0  0  0  0  0  0  0  0  0  0  0  0
    6.3520   -3.0704   22.2352 H   0  0  0  0  0  0  0  0  0  0  0  0
   10.0241   -2.7338   24.9923 H   0  0  0  0  0  0  0  0  0  0  0  0
    6.3974   -2.0420   22.5804 C   0  0  0  0  0  0  0  0  0  0  0  0
    4.4590   -0.5836   22.6837 O   0  0  0  0  0  0  0  0  0  0  0  0
    5.0029   -1.5253   20.7357 N   0  0  0  0  0  0  0  0  0  0  0  0
    9.8157   -0.4438   19.9595 H   0  0  0  0  0  0  0  0  0  0  0  0
    5.6480   -1.1056   20.0928 H   0  0  0  0  0  0  0  0  0  0  0  0
  9 23  1  0  0  0  0
  3  8  1  0  0  0  0
 22 24  1  0  0  0  0
 17 22  1  0  0  0  0
 14 22  1  0  0  0  0
  3  9  1  0  0  0  0
  9 16  2  0  0  0  0
  3 13  2  0  0  0  0
  5 16  1  0  0  0  0
 13 20  1  0  0  0  0
 14 20  1  0  0  0  0
 14 21  2  0  0  0  0
 18 20  1  0  0  0  0
 10 20  1  0  0  0  0
  5 11  2  3  0  0  0
  7 15  1  0  0  0  0
  6 11  1  0  0  0  0
  1 11  1  0  0  0  0
  4  7  1  0  0  0  0
  6  7  1  0  0  0  0
  2  7  1  0  0  0  0
  1 12  1  0  0  0  0
  1 19  1  0  0  0  0
M  CHG  1   9   1
M  END
> <Shapegauss>
-106.526283

$$$$
