stable:False satoms:19 tatoms:24 sratio:0.7916666666666666
  -OEChem-08052413583D

 25 24  0     0  0  0  0  0  0999 V2000
  -11.3377    0.6231  -22.9617 N   0  0  0  0  0  0  0  0  0  0  0  0
  -13.3176   -1.0557  -23.6345 H   0  0  0  0  0  0  0  0  0  0  0  0
   -7.4930   -1.6056  -21.8281 C   0  0  0  0  0  0  0  0  0  0  0  0
  -13.3388   -2.6843  -22.9284 H   0  0  0  0  0  0  0  0  0  0  0  0
   -9.9424   -1.1137  -22.0474 C   0  0  0  0  0  0  0  0  0  0  0  0
  -12.0598   -1.4200  -22.0286 O   0  0  0  0  0  0  0  0  0  0  0  0
  -12.7074   -1.8491  -23.2152 C   0  0  0  0  0  0  0  0  0  0  0  0
   -6.4593   -1.9195  -21.8653 H   0  0  0  0  0  0  0  0  0  0  0  0
   -8.3237   -2.3889  -22.5704 N   0  0  0  0  0  0  0  0  0  0  0  0
   -8.1991    1.0420  -19.9132 H   0  0  0  0  0  0  0  0  0  0  0  0
  -11.1244   -0.5690  -22.3335 C   0  0  0  0  0  0  0  0  0  0  0  0
  -11.8450    0.7154  -24.0095 O   0  5  0  0  0  0  0  0  0  0  0  0
   -7.8730   -0.6136  -21.1594 C   0  0  0  0  0  0  0  0  0  0  0  0
   -6.5056   -0.1238  -19.2498 C   0  0  0  0  0  0  0  0  0  0  0  0
  -11.9858   -2.1594  -23.9560 H   0  0  0  0  0  0  0  0  0  0  0  0
   -9.5771   -2.1541  -22.4120 N   0  0  0  0  0  0  0  0  0  0  0  0
   -4.5425   -0.4810  -19.2042 H   0  0  0  0  0  0  0  0  0  0  0  0
   -6.7903    1.1158  -20.9590 H   0  0  0  0  0  0  0  0  0  0  0  0
  -11.1236    1.4663  -22.4753 H   0  0  0  0  0  0  0  0  0  0  0  0
   -7.3976    0.4618  -20.3407 C   0  0  0  0  0  0  0  0  0  0  0  0
   -6.7754   -0.2004  -18.0892 O   0  0  0  0  0  0  0  0  0  0  0  0
   -5.3699   -0.6230  -19.7695 N   0  0  0  0  0  0  0  0  0  0  0  0
   -5.4166   -1.4622  -20.3164 H   0  0  0  0  0  0  0  0  0  0  0  0
   -9.2695   -0.5413  -21.4261 H   0  0  0  0  0  0  0  0  0  0  0  0
   -8.9489   -0.5463  -21.2250 H   0  0  0  0  0  0  0  0  0  0  0  0
  3  8  1  0  0  0  0
 22 23  1  0  0  0  0
 17 22  1  0  0  0  0
 14 22  1  0  0  0  0
  3  9  1  0  0  0  0
  9 16  2  0  0  0  0
  3 13  2  0  0  0  0
  5 16  1  0  0  0  0
 13 20  1  0  0  0  0
 14 20  1  0  0  0  0
 14 21  2  0  0  0  0
 18 20  1  0  0  0  0
 10 20  1  0  0  0  0
  5 11  2  3  0  0  0
  7 15  1  0  0  0  0
  6 11  1  0  0  0  0
  1 11  1  0  0  0  0
  4  7  1  0  0  0  0
  6  7  1  0  0  0  0
  2  7  1  0  0  0  0
  1 12  1  0  0  0  0
  1 19  1  0  0  0  0
  5 24  1  0  0  0  0
 13 25  1  0  0  0  0
M  CHG  1  12  -1
M  END
> <Chemgauss4>
-5.687137

$$$$
