stable:False satoms:19 tatoms:24 sratio:0.7916666666666666
  -OEChem-08052413583D

 25 24  0     0  0  0  0  0  0999 V2000
   11.2907    0.4772   23.0114 N   0  0  0  0  0  0  0  0  0  0  0  0
   13.2707   -1.2016   23.6842 H   0  0  0  0  0  0  0  0  0  0  0  0
    7.4461   -1.7515   21.8778 C   0  0  0  0  0  0  0  0  0  0  0  0
   13.2918   -2.8302   22.9781 H   0  0  0  0  0  0  0  0  0  0  0  0
    9.8954   -1.2596   22.0971 C   0  0  0  0  0  0  0  0  0  0  0  0
   12.0128   -1.5660   22.0783 O   0  0  0  0  0  0  0  0  0  0  0  0
   12.6604   -1.9950   23.2649 C   0  0  0  0  0  0  0  0  0  0  0  0
    6.4124   -2.0654   21.9150 H   0  0  0  0  0  0  0  0  0  0  0  0
    8.2768   -2.5348   22.6201 N   0  0  0  0  0  0  0  0  0  0  0  0
    8.1521    0.8961   19.9629 H   0  0  0  0  0  0  0  0  0  0  0  0
   11.0775   -0.7149   22.3831 C   0  0  0  0  0  0  0  0  0  0  0  0
   11.7981    0.5695   24.0592 O   0  5  0  0  0  0  0  0  0  0  0  0
    7.8260   -0.7596   21.2091 C   0  0  0  0  0  0  0  0  0  0  0  0
    6.4586   -0.2697   19.2995 C   0  0  0  0  0  0  0  0  0  0  0  0
   11.9388   -2.3053   24.0057 H   0  0  0  0  0  0  0  0  0  0  0  0
    9.5302   -2.3000   22.4617 N   0  0  0  0  0  0  0  0  0  0  0  0
    4.4955   -0.6269   19.2539 H   0  0  0  0  0  0  0  0  0  0  0  0
    6.7433    0.9699   21.0087 H   0  0  0  0  0  0  0  0  0  0  0  0
   11.0766    1.3204   22.5250 H   0  0  0  0  0  0  0  0  0  0  0  0
    7.3506    0.3159   20.3904 C   0  0  0  0  0  0  0  0  0  0  0  0
    6.7284   -0.3463   18.1389 O   0  0  0  0  0  0  0  0  0  0  0  0
    5.3229   -0.7689   19.8192 N   0  0  0  0  0  0  0  0  0  0  0  0
    5.3696   -1.6081   20.3661 H   0  0  0  0  0  0  0  0  0  0  0  0
    9.2225   -0.6872   21.4758 H   0  0  0  0  0  0  0  0  0  0  0  0
    8.9019   -0.6922   21.2747 H   0  0  0  0  0  0  0  0  0  0  0  0
  3  8  1  0  0  0  0
 22 23  1  0  0  0  0
 17 22  1  0  0  0  0
 14 22  1  0  0  0  0
  3  9  1  0  0  0  0
  9 16  2  0  0  0  0
  3 13  2  0  0  0  0
  5 16  1  0  0  0  0
 13 20  1  0  0  0  0
 14 20  1  0  0  0  0
 14 21  2  0  0  0  0
 18 20  1  0  0  0  0
 10 20  1  0  0  0  0
  5 11  2  3  0  0  0
  7 15  1  0  0  0  0
  6 11  1  0  0  0  0
  1 11  1  0  0  0  0
  4  7  1  0  0  0  0
  6  7  1  0  0  0  0
  2  7  1  0  0  0  0
  1 12  1  0  0  0  0
  1 19  1  0  0  0  0
  5 24  1  0  0  0  0
 13 25  1  0  0  0  0
M  CHG  1  12  -1
M  END
> <Chemgauss4>
-5.596785

$$$$
