stable:False satoms:10 tatoms:24 sratio:0.4166666666666667
  -OEChem-07092417493D

 24 25  0     1  0  0  0  0  0999 V2000
    6.6186   -4.8872   26.4082 C   0  0  0  0  0  0  0  0  0  0  0  0
    8.1646   -4.3251   26.1409 S   0  0  0  0  0  0  0  0  0  0  0  0
    9.0801   -5.4450   26.0610 O   0  0  0  0  0  0  0  0  0  0  0  0
    8.5382   -3.4431   27.2073 O   0  0  0  0  0  0  0  0  0  0  0  0
    8.0834   -3.5690   24.7094 N   0  0  0  0  0  0  0  0  0  0  0  0
    8.9729   -2.9338   24.1722 C   0  0  0  0  0  0  0  0  0  0  0  0
    9.4358   -1.9649   23.5034 C   0  0  0  0  0  0  0  0  0  0  0  0
   10.3523   -1.1670   23.2093 C   0  0  1  0  0  0  0  0  0  0  0  0
   11.0663    0.0048   24.3654 C   0  0  0  0  0  0  0  0  0  0  0  0
   12.0779    0.2980   24.2651 C   0  0  0  0  0  0  0  0  0  0  0  0
   13.1740   -0.1074   23.4798 C   0  0  0  0  0  0  0  0  0  0  0  0
   12.7467   -1.2637   22.6272 C   0  0  0  0  0  0  0  0  0  0  0  0
   11.8014   -1.7042   22.5233 C   0  0  0  0  0  0  0  0  0  0  0  0
    9.7440   -0.5539   22.3669 C   0  0  0  0  0  0  0  0  0  0  0  0
    9.0554    0.0420   21.4115 C   0  0  0  0  0  0  0  0  0  0  0  0
    9.5465    1.0030   21.0465 O   0  0  0  0  0  0  0  0  0  0  0  0
    7.9387   -0.5734   21.0655 N   0  0  0  0  0  0  0  0  0  0  0  0
    7.2281   -0.1068   20.1404 C   0  0  0  0  0  0  0  0  0  0  0  0
    7.2176   -0.0186   18.8303 C   0  0  0  0  0  0  0  0  0  0  0  0
    6.7715    0.2832   17.7443 N   0  0  0  0  0  0  0  0  0  0  0  0
    5.6150    0.8858   18.2070 C   0  0  0  0  0  0  0  0  0  0  0  0
    5.2173    0.9939   19.4085 C   0  0  0  0  0  0  0  0  0  0  0  0
    5.8018    0.5764   20.5235 C   0  0  0  0  0  0  0  0  0  0  0  0
    5.3359    0.6856   21.8799 C   0  0  0  0  0  0  0  0  0  0  0  0
 20 21  2  0  0  0  0
 19 20  1  0  0  0  0
 21 22  1  0  0  0  0
 18 19  2  0  0  0  0
 22 23  2  0  0  0  0
 18 23  1  0  0  0  0
 17 18  1  0  0  0  0
 23 24  1  0  0  0  0
 15 16  2  0  0  0  0
 15 17  1  0  0  0  0
 14 15  1  0  0  0  0
  8 14  1  0  0  0  0
 12 13  1  0  0  0  0
  8 13  1  0  0  0  0
 11 12  2  0  0  0  0
  7  8  1  0  0  0  0
  8  9  1  0  0  0  0
 10 11  1  0  0  0  0
  6  7  2  0  0  0  0
  5  6  1  0  0  0  0
  9 10  2  0  0  0  0
  2  5  1  0  0  0  0
  2  3  2  0  0  0  0
  1  2  1  0  0  0  0
  2  4  2  0  0  0  0
M  END
> <Shapegauss>
-286.742432

$$$$
