stable:False satoms:10 tatoms:24 sratio:0.4166666666666667
  -OEChem-08062416003D

 45 46  0     1  0  0  0  0  0999 V2000
   -6.0606   -5.2025  -25.8612 C   0  0  0  0  0  0  0  0  0  0  0  0
   -7.6307   -4.6501  -25.7778 S   0  0  0  0  0  0  0  0  0  0  0  0
   -8.5389   -5.7777  -25.7288 O   0  0  0  0  0  0  0  0  0  0  0  0
   -7.9052   -3.8305  -26.9213 O   0  0  0  0  0  0  0  0  0  0  0  0
   -7.6990   -3.8193  -24.3876 N   0  0  0  0  0  0  0  0  0  0  0  0
   -8.6434   -3.1701  -23.9753 C   0  0  0  0  0  0  0  0  0  0  0  0
   -9.1795   -2.1746  -23.4080 C   0  0  0  0  0  0  0  0  0  0  0  0
  -10.1282   -1.3760  -23.2486 C   0  0  1  0  0  0  0  0  0  0  0  0
  -10.7352   -0.2768  -24.5302 C   0  0  0  0  0  0  0  0  0  0  0  0
  -11.7545    0.0063  -24.5458 C   0  0  0  0  0  0  0  0  0  0  0  0
  -12.9191   -0.3737  -23.8518 C   0  0  0  0  0  0  0  0  0  0  0  0
  -12.5675   -1.4775  -22.9008 C   0  0  0  0  0  0  0  0  0  0  0  0
  -11.6330   -1.8980  -22.6809 C   0  0  0  0  0  0  0  0  0  0  0  0
   -9.6122   -0.7110  -22.3843 C   0  0  0  0  0  0  0  0  0  0  0  0
   -9.0274   -0.0560  -21.3988 C   0  0  0  0  0  0  0  0  0  0  0  0
   -9.5614    0.9154  -21.1358 O   0  0  0  0  0  0  0  0  0  0  0  0
   -7.9447   -0.6360  -20.9122 N   0  0  0  0  0  0  0  0  0  0  0  0
   -7.3338   -0.1113  -19.9479 C   0  0  0  0  0  0  0  0  0  0  0  0
   -7.4540    0.0452  -18.6497 C   0  0  0  0  0  0  0  0  0  0  0  0
   -7.1207    0.4098  -17.5427 N   0  0  0  0  0  0  0  0  0  0  0  0
   -5.9298    1.0044  -17.9207 C   0  0  0  0  0  0  0  0  0  0  0  0
   -5.4160    1.0555  -19.0812 C   0  0  0  0  0  0  0  0  0  0  0  0
   -5.8831    0.5719  -20.2245 C   0  0  0  0  0  0  0  0  0  0  0  0
   -5.2861    0.6171  -21.5323 C   0  0  0  0  0  0  0  0  0  0  0  0
   -5.9244   -5.7838  -26.7851 H   0  0  0  0  0  0  0  0  0  0  0  0
   -5.3703   -4.3461  -25.8619 H   0  0  0  0  0  0  0  0  0  0  0  0
   -5.8504   -5.8422  -24.9913 H   0  0  0  0  0  0  0  0  0  0  0  0
   -6.9395   -3.1706  -24.4355 H   0  0  0  0  0  0  0  0  0  0  0  0
   -9.4921   -3.7830  -24.2406 H   0  0  0  0  0  0  0  0  0  0  0  0
   -8.4366   -1.8459  -22.6963 H   0  0  0  0  0  0  0  0  0  0  0  0
  -10.0598    0.0961  -25.2860 H   0  0  0  0  0  0  0  0  0  0  0  0
  -11.9503    0.7784  -25.2751 H   0  0  0  0  0  0  0  0  0  0  0  0
  -13.9006    0.0576  -23.9826 H   0  0  0  0  0  0  0  0  0  0  0  0
  -13.4011   -1.9029  -22.3618 H   0  0  0  0  0  0  0  0  0  0  0  0
  -11.5533   -1.8564  -21.5846 H   0  0  0  0  0  0  0  0  0  0  0  0
  -11.7102   -2.9469  -23.0034 H   0  0  0  0  0  0  0  0  0  0  0  0
  -10.5434   -0.1445  -22.2357 H   0  0  0  0  0  0  0  0  0  0  0  0
   -8.9844   -0.1963  -23.1265 H   0  0  0  0  0  0  0  0  0  0  0  0
   -7.6122   -1.4908  -21.3106 H   0  0  0  0  0  0  0  0  0  0  0  0
   -8.4058   -0.4261  -18.4538 H   0  0  0  0  0  0  0  0  0  0  0  0
   -5.3684    1.4838  -17.1324 H   0  0  0  0  0  0  0  0  0  0  0  0
   -4.4655    1.5642  -19.1462 H   0  0  0  0  0  0  0  0  0  0  0  0
   -4.6645   -0.2778  -21.6833 H   0  0  0  0  0  0  0  0  0  0  0  0
   -6.0776    0.6467  -22.2957 H   0  0  0  0  0  0  0  0  0  0  0  0
   -4.6597    1.5172  -21.6184 H   0  0  0  0  0  0  0  0  0  0  0  0
 20 21  2  0  0  0  0
 19 20  1  0  0  0  0
 21 22  1  0  0  0  0
 18 19  2  0  0  0  0
 22 23  2  0  0  0  0
 18 23  1  0  0  0  0
 17 18  1  0  0  0  0
 23 24  1  0  0  0  0
 15 16  2  0  0  0  0
 15 17  1  0  0  0  0
 14 15  1  0  0  0  0
  8 14  1  0  0  0  0
 12 13  1  0  0  0  0
  8 13  1  0  0  0  0
 11 12  2  0  0  0  0
  7  8  1  0  0  0  0
  8  9  1  0  0  0  0
 10 11  1  0  0  0  0
  6  7  2  0  0  0  0
  5  6  1  0  0  0  0
  9 10  2  0  0  0  0
  2  5  1  0  0  0  0
  2  3  2  0  0  0  0
  1  2  1  0  0  0  0
  2  4  2  0  0  0  0
  1 25  1  0  0  0  0
  1 26  1  0  0  0  0
  1 27  1  0  0  0  0
  5 28  1  0  0  0  0
  6 29  1  0  0  0  0
  7 30  1  0  0  0  0
  9 31  1  0  0  0  0
 10 32  1  0  0  0  0
 11 33  1  0  0  0  0
 12 34  1  0  0  0  0
 13 35  1  0  0  0  0
 13 36  1  0  0  0  0
 14 37  1  0  0  0  0
 14 38  1  0  0  0  0
 17 39  1  0  0  0  0
 19 40  1  0  0  0  0
 21 41  1  0  0  0  0
 22 42  1  0  0  0  0
 24 43  1  0  0  0  0
 24 44  1  0  0  0  0
 24 45  1  0  0  0  0
M  END
> <Chemgauss4>
-13.232685

$$$$
