stable:False satoms:10 tatoms:24 sratio:0.4166666666666667
  -OEChem-08062416003D

 45 46  0     1  0  0  0  0  0999 V2000
    5.8400   -5.1376   25.8492 C   0  0  0  0  0  0  0  0  0  0  0  0
    7.4101   -4.5852   25.7659 S   0  0  0  0  0  0  0  0  0  0  0  0
    8.3183   -5.7128   25.7169 O   0  0  0  0  0  0  0  0  0  0  0  0
    7.6845   -3.7656   26.9094 O   0  0  0  0  0  0  0  0  0  0  0  0
    7.4784   -3.7544   24.3757 N   0  0  0  0  0  0  0  0  0  0  0  0
    8.4228   -3.1052   23.9634 C   0  0  0  0  0  0  0  0  0  0  0  0
    8.9589   -2.1097   23.3961 C   0  0  0  0  0  0  0  0  0  0  0  0
    9.9076   -1.3111   23.2366 C   0  0  1  0  0  0  0  0  0  0  0  0
   10.5146   -0.2119   24.5183 C   0  0  0  0  0  0  0  0  0  0  0  0
   11.5339    0.0712   24.5339 C   0  0  0  0  0  0  0  0  0  0  0  0
   12.6985   -0.3088   23.8398 C   0  0  0  0  0  0  0  0  0  0  0  0
   12.3468   -1.4126   22.8888 C   0  0  0  0  0  0  0  0  0  0  0  0
   11.4124   -1.8331   22.6690 C   0  0  0  0  0  0  0  0  0  0  0  0
    9.3916   -0.6461   22.3723 C   0  0  0  0  0  0  0  0  0  0  0  0
    8.8068    0.0089   21.3869 C   0  0  0  0  0  0  0  0  0  0  0  0
    9.3408    0.9803   21.1238 O   0  0  0  0  0  0  0  0  0  0  0  0
    7.7241   -0.5711   20.9003 N   0  0  0  0  0  0  0  0  0  0  0  0
    7.1132   -0.0464   19.9359 C   0  0  0  0  0  0  0  0  0  0  0  0
    7.2334    0.1101   18.6377 C   0  0  0  0  0  0  0  0  0  0  0  0
    6.9001    0.4747   17.5307 N   0  0  0  0  0  0  0  0  0  0  0  0
    5.7092    1.0693   17.9088 C   0  0  0  0  0  0  0  0  0  0  0  0
    5.1954    1.1204   19.0693 C   0  0  0  0  0  0  0  0  0  0  0  0
    5.6625    0.6368   20.2126 C   0  0  0  0  0  0  0  0  0  0  0  0
    5.0655    0.6820   21.5204 C   0  0  0  0  0  0  0  0  0  0  0  0
    5.7038   -5.7189   26.7731 H   0  0  0  0  0  0  0  0  0  0  0  0
    5.1496   -4.2812   25.8499 H   0  0  0  0  0  0  0  0  0  0  0  0
    5.6298   -5.7773   24.9794 H   0  0  0  0  0  0  0  0  0  0  0  0
    6.7189   -3.1057   24.4236 H   0  0  0  0  0  0  0  0  0  0  0  0
    9.2715   -3.7182   24.2286 H   0  0  0  0  0  0  0  0  0  0  0  0
    8.2160   -1.7810   22.6844 H   0  0  0  0  0  0  0  0  0  0  0  0
    9.8392    0.1610   25.2741 H   0  0  0  0  0  0  0  0  0  0  0  0
   11.7296    0.8433   25.2632 H   0  0  0  0  0  0  0  0  0  0  0  0
   13.6800    0.1225   23.9707 H   0  0  0  0  0  0  0  0  0  0  0  0
   13.1805   -1.8380   22.3499 H   0  0  0  0  0  0  0  0  0  0  0  0
   11.3327   -1.7915   21.5727 H   0  0  0  0  0  0  0  0  0  0  0  0
   11.4896   -2.8820   22.9915 H   0  0  0  0  0  0  0  0  0  0  0  0
   10.3228   -0.0796   22.2238 H   0  0  0  0  0  0  0  0  0  0  0  0
    8.7637   -0.1314   23.1145 H   0  0  0  0  0  0  0  0  0  0  0  0
    7.3916   -1.4259   21.2987 H   0  0  0  0  0  0  0  0  0  0  0  0
    8.1852   -0.3612   18.4419 H   0  0  0  0  0  0  0  0  0  0  0  0
    5.1477    1.5486   17.1205 H   0  0  0  0  0  0  0  0  0  0  0  0
    4.2449    1.6291   19.1342 H   0  0  0  0  0  0  0  0  0  0  0  0
    4.4439   -0.2129   21.6714 H   0  0  0  0  0  0  0  0  0  0  0  0
    5.8569    0.7116   22.2838 H   0  0  0  0  0  0  0  0  0  0  0  0
    4.4391    1.5821   21.6065 H   0  0  0  0  0  0  0  0  0  0  0  0
 20 21  2  0  0  0  0
 19 20  1  0  0  0  0
 21 22  1  0  0  0  0
 18 19  2  0  0  0  0
 22 23  2  0  0  0  0
 18 23  1  0  0  0  0
 17 18  1  0  0  0  0
 23 24  1  0  0  0  0
 15 16  2  0  0  0  0
 15 17  1  0  0  0  0
 14 15  1  0  0  0  0
  8 14  1  0  0  0  0
 12 13  1  0  0  0  0
  8 13  1  0  0  0  0
 11 12  2  0  0  0  0
  7  8  1  0  0  0  0
  8  9  1  0  0  0  0
 10 11  1  0  0  0  0
  6  7  2  0  0  0  0
  5  6  1  0  0  0  0
  9 10  2  0  0  0  0
  2  5  1  0  0  0  0
  2  3  2  0  0  0  0
  1  2  1  0  0  0  0
  2  4  2  0  0  0  0
  1 25  1  0  0  0  0
  1 26  1  0  0  0  0
  1 27  1  0  0  0  0
  5 28  1  0  0  0  0
  6 29  1  0  0  0  0
  7 30  1  0  0  0  0
  9 31  1  0  0  0  0
 10 32  1  0  0  0  0
 11 33  1  0  0  0  0
 12 34  1  0  0  0  0
 13 35  1  0  0  0  0
 13 36  1  0  0  0  0
 14 37  1  0  0  0  0
 14 38  1  0  0  0  0
 17 39  1  0  0  0  0
 19 40  1  0  0  0  0
 21 41  1  0  0  0  0
 22 42  1  0  0  0  0
 24 43  1  0  0  0  0
 24 44  1  0  0  0  0
 24 45  1  0  0  0  0
M  END
> <Chemgauss4>
-12.893888

$$$$
