
 OpenBabel07202414173D

 39 42  0  0  0  0  0  0  0  0999 V2000
    8.4097   -1.0238    3.4535 Cl  0  0  0  0  0  0  0  0  0  0  0  0
    8.0922   -2.1753    2.2150 C   0  0  0  0  0  0  0  0  0  0  0  0
    9.0715   -3.1097    1.8851 C   0  0  0  0  0  0  0  0  0  0  0  0
    8.7989   -4.0044    0.8651 C   0  0  0  0  0  0  0  0  0  0  0  0
    7.5880   -3.9742    0.1930 C   0  0  0  0  0  0  0  0  0  0  0  0
    6.5905   -3.0564    0.4970 C   0  0  0  0  0  0  0  0  0  0  0  0
    5.3011   -2.9707   -0.2790 C   0  0  0  0  0  0  0  0  0  0  0  0
    4.2867   -4.0680    0.0036 C   0  0  0  0  0  0  0  0  0  0  0  0
    3.2424   -3.8013    0.5910 O   0  0  0  0  0  0  0  0  0  0  0  0
    4.6363   -5.3185   -0.4917 N   0  0  0  0  0  0  0  0  0  0  0  0
    3.8664   -6.5132   -0.3688 C   0  0  0  0  0  0  0  0  0  0  0  0
    2.5148   -6.4842   -0.0199 C   0  0  0  0  0  0  0  0  0  0  0  0
    1.7582   -7.5753    0.2412 N   0  0  0  0  0  0  0  0  0  0  0  0
    2.3688   -8.7670    0.1213 C   0  0  0  0  0  0  0  0  0  0  0  0
    3.6732   -8.9406   -0.3267 C   0  0  0  0  0  0  0  0  0  0  0  0
    4.1966  -10.2363   -0.5179 C   0  0  0  0  0  0  0  0  0  0  0  0
    5.4965  -10.4183   -0.9789 C   0  0  0  0  0  0  0  0  0  0  0  0
    6.2873   -9.3105   -1.2463 C   0  0  0  0  0  0  0  0  0  0  0  0
    5.7763   -8.0224   -1.0557 C   0  0  0  0  0  0  0  0  0  0  0  0
    4.4578   -7.7909   -0.5898 C   0  0  0  0  0  0  0  0  0  0  0  0
    6.8640   -2.1480    1.5359 C   0  0  0  0  0  0  0  0  0  0  0  0
    7.4889   -4.9225   -0.7917 O   0  0  0  0  0  0  0  0  0  0  0  0
    8.7622   -5.6167   -0.7797 C   0  0  0  0  0  0  0  0  0  0  0  0
    9.6634   -5.0725    0.3260 C   0  0  0  0  0  0  0  0  0  0  0  0
   10.0238   -3.1309    2.4058 H   0  0  0  0  0  0  0  0  0  0  0  0
    5.5055   -2.9292   -1.3541 H   0  0  0  0  0  0  0  0  0  0  0  0
    4.8037   -2.0193   -0.0410 H   0  0  0  0  0  0  0  0  0  0  0  0
    5.6010   -5.4120   -0.7896 H   0  0  0  0  0  0  0  0  0  0  0  0
    1.9539   -5.5572    0.0465 H   0  0  0  0  0  0  0  0  0  0  0  0
    1.7461   -9.6164    0.3923 H   0  0  0  0  0  0  0  0  0  0  0  0
    3.5880  -11.1087   -0.3091 H   0  0  0  0  0  0  0  0  0  0  0  0
    5.8811  -11.4227   -1.1414 H   0  0  0  0  0  0  0  0  0  0  0  0
    7.3022   -9.4460   -1.6151 H   0  0  0  0  0  0  0  0  0  0  0  0
    6.4250   -7.1941   -1.3070 H   0  0  0  0  0  0  0  0  0  0  0  0
    6.1248   -1.3974    1.8126 H   0  0  0  0  0  0  0  0  0  0  0  0
    9.2238   -5.4978   -1.7664 H   0  0  0  0  0  0  0  0  0  0  0  0
    8.5758   -6.6857   -0.6299 H   0  0  0  0  0  0  0  0  0  0  0  0
   10.6001   -4.6830   -0.0829 H   0  0  0  0  0  0  0  0  0  0  0  0
    9.8807   -5.8399    1.0751 H   0  0  0  0  0  0  0  0  0  0  0  0
  1  2  1  0  0  0  0
  2  3  1  0  0  0  0
  2 21  2  0  0  0  0
  3  4  2  0  0  0  0
  3 25  1  0  0  0  0
  4  5  1  0  0  0  0
  4 24  1  0  0  0  0
  5  6  2  0  0  0  0
  5 22  1  0  0  0  0
  6  7  1  0  0  0  0
  6 21  1  0  0  0  0
  7  8  1  0  0  0  0
  7 26  1  0  0  0  0
  7 27  1  0  0  0  0
  8  9  2  0  0  0  0
  8 10  1  0  0  0  0
 10 11  1  0  0  0  0
 10 28  1  0  0  0  0
 11 12  1  0  0  0  0
 11 20  2  0  0  0  0
 12 13  2  0  0  0  0
 12 29  1  0  0  0  0
 13 14  1  0  0  0  0
 14 15  2  0  0  0  0
 14 30  1  0  0  0  0
 15 16  1  0  0  0  0
 15 20  1  0  0  0  0
 16 17  2  0  0  0  0
 16 31  1  0  0  0  0
 17 18  1  0  0  0  0
 17 32  1  0  0  0  0
 18 19  2  0  0  0  0
 18 33  1  0  0  0  0
 19 20  1  0  0  0  0
 19 34  1  0  0  0  0
 21 35  1  0  0  0  0
 22 23  1  0  0  0  0
 23 24  1  0  0  0  0
 23 36  1  0  0  0  0
 23 37  1  0  0  0  0
 24 38  1  0  0  0  0
 24 39  1  0  0  0  0
M  END
$$$$
