stable:False satoms:23 tatoms:24 sratio:0.9583333333333334
  -OEChem-07092417273D

 24 24  0     1  0  0  0  0  0999 V2000
   13.5406    0.7347   21.4077 H   0  0  0  0  0  0  0  0  0  0  0  0
    5.7853    0.2458   23.3787 C   0  0  0  0  0  0  0  0  0  0  0  0
   12.3492    0.3948   20.1383 H   0  0  0  0  0  0  0  0  0  0  0  0
    9.7326   -3.9009   22.6204 H   0  0  0  0  0  0  0  0  0  0  0  0
   12.8310   -0.0009   21.0436 C   0  0  0  0  0  0  0  0  0  0  0  0
    7.7575   -1.1486   22.8819 C   0  0  0  0  0  0  0  0  0  0  0  0
    5.8641    0.9238   22.5371 H   0  0  0  0  0  0  0  0  0  0  0  0
   10.0731   -0.0307   21.2401 H   0  0  0  0  0  0  0  0  0  0  0  0
    6.2407   -1.1663   23.0193 C   0  0  1  0  0  0  0  0  0  0  0  0
    9.5227   -2.8511   22.4759 C   0  0  0  0  0  0  0  0  0  0  0  0
    7.1130   -3.6545   23.5550 S   0  0  0  0  0  0  0  0  0  0  0  0
   10.5639   -2.0719   21.9196 C   0  0  0  0  0  0  0  0  0  0  0  0
   11.9254   -0.2240   22.1141 O   0  0  0  0  0  0  0  0  0  0  0  0
   13.3404   -0.9412   20.8196 H   0  0  0  0  0  0  0  0  0  0  0  0
    6.1544   -1.9913   25.0588 H   0  0  0  0  0  0  0  0  0  0  0  0
    4.9410   -2.6853   23.9604 H   0  0  0  0  0  0  0  0  0  0  0  0
   10.7540   -0.7362   21.7189 C   0  0  0  0  0  0  0  0  0  0  0  0
    8.2615   -2.4776   22.8668 C   0  0  0  0  0  0  0  0  0  0  0  0
    5.8130   -1.4611   22.0640 H   0  0  0  0  0  0  0  0  0  0  0  0
    8.4489   -0.1550   22.9079 O   0  0  0  0  0  0  0  0  0  0  0  0
    4.7499    0.2272   23.7165 H   0  0  0  0  0  0  0  0  0  0  0  0
    6.4153    0.6245   24.1666 H   0  0  0  0  0  0  0  0  0  0  0  0
   11.4533   -2.6488   21.6532 H   0  0  0  0  0  0  0  0  0  0  0  0
    5.9534   -2.2955   24.0325 C   0  0  0  0  0  0  0  0  0  0  0  0
  3  5  1  0  0  0  0
  5 14  1  0  0  0  0
  1  5  1  0  0  0  0
  5 13  1  0  0  0  0
  8 17  1  0  0  0  0
 12 23  1  0  0  0  0
 12 17  2  3  0  0  0
 13 17  1  0  0  0  0
 10 12  1  0  0  0  0
  9 19  1  0  0  0  0
  4 10  1  0  0  0  0
 10 18  2  0  0  0  0
  2  7  1  0  0  0  0
  6 18  1  0  0  0  0
 11 18  1  0  0  0  0
  6 20  2  0  0  0  0
  6  9  1  0  0  0  0
  2  9  1  0  0  0  0
  9 24  1  0  0  0  0
  2 21  1  0  0  0  0
  2 22  1  0  0  0  0
 11 24  1  0  0  0  0
 16 24  1  0  0  0  0
 15 24  1  0  0  0  0
M  END
> <Shapegauss>
-82.608902

$$$$
