stable:False satoms:23 tatoms:24 sratio:0.9583333333333334
  -OEChem-08052413423D

 24 24  0     1  0  0  0  0  0999 V2000
   -6.5344    0.6082  -17.6019 H   0  0  0  0  0  0  0  0  0  0  0  0
  -11.3575    3.0947  -23.5031 C   0  0  0  0  0  0  0  0  0  0  0  0
   -5.8800    0.7576  -19.2438 H   0  0  0  0  0  0  0  0  0  0  0  0
   -9.7815   -2.2369  -21.9404 H   0  0  0  0  0  0  0  0  0  0  0  0
   -6.5819    0.2012  -18.6066 C   0  0  0  0  0  0  0  0  0  0  0  0
  -10.3615    1.0581  -22.5330 C   0  0  0  0  0  0  0  0  0  0  0  0
  -10.4584    3.6981  -23.5429 H   0  0  0  0  0  0  0  0  0  0  0  0
   -7.8152    1.2225  -20.8607 H   0  0  0  0  0  0  0  0  0  0  0  0
  -11.0668    1.6184  -23.7612 C   0  0  1  0  0  0  0  0  0  0  0  0
   -9.5730   -1.1852  -21.8083 C   0  0  0  0  0  0  0  0  0  0  0  0
  -11.5947   -1.0186  -23.6796 S   0  0  0  0  0  0  0  0  0  0  0  0
   -8.5529   -0.8570  -20.8850 C   0  0  0  0  0  0  0  0  0  0  0  0
   -7.9368    0.3315  -19.0104 O   0  0  0  0  0  0  0  0  0  0  0  0
   -6.3238   -0.8605  -18.5985 H   0  0  0  0  0  0  0  0  0  0  0  0
  -13.0840    0.8726  -23.2897 H   0  0  0  0  0  0  0  0  0  0  0  0
  -12.6468    0.7017  -25.0044 H   0  0  0  0  0  0  0  0  0  0  0  0
   -8.0982    0.3071  -20.3386 C   0  0  0  0  0  0  0  0  0  0  0  0
  -10.3541   -0.3625  -22.5804 C   0  0  0  0  0  0  0  0  0  0  0  0
  -10.4016    1.5162  -24.6154 H   0  0  0  0  0  0  0  0  0  0  0  0
   -9.9740    1.7132  -21.5914 O   0  0  0  0  0  0  0  0  0  0  0  0
  -12.0626    3.4692  -24.2441 H   0  0  0  0  0  0  0  0  0  0  0  0
  -11.7804    3.1987  -22.5175 H   0  0  0  0  0  0  0  0  0  0  0  0
   -8.0573   -1.7271  -20.4467 H   0  0  0  0  0  0  0  0  0  0  0  0
  -12.2692    0.6759  -23.9852 C   0  0  0  0  0  0  0  0  0  0  0  0
  3  5  1  0  0  0  0
  5 14  1  0  0  0  0
  1  5  1  0  0  0  0
  5 13  1  0  0  0  0
  8 17  1  0  0  0  0
 12 23  1  0  0  0  0
 12 17  2  3  0  0  0
 13 17  1  0  0  0  0
 10 12  1  0  0  0  0
  9 19  1  0  0  0  0
  4 10  1  0  0  0  0
 10 18  2  0  0  0  0
  2  7  1  0  0  0  0
  6 18  1  0  0  0  0
 11 18  1  0  0  0  0
  6 20  2  0  0  0  0
  6  9  1  0  0  0  0
  2  9  1  0  0  0  0
  9 24  1  0  0  0  0
  2 21  1  0  0  0  0
  2 22  1  0  0  0  0
 11 24  1  0  0  0  0
 16 24  1  0  0  0  0
 15 24  1  0  0  0  0
M  END
> <Chemgauss4>
-5.702972

$$$$
