
 OpenBabel07202414153D

 43 46  0  0  1  0  0  0  0  0999 V2000
    2.5007    0.5209   -1.3395 C   0  0  0  0  0  0  0  0  0  0  0  0
    2.0785   -0.1239    0.0045 C   0  0  1  0  0  0  0  0  0  0  0  0
    0.5244   -0.2468    0.0156 C   0  0  0  0  0  0  0  0  0  0  0  0
   -0.1004   -0.3710   -1.0369 O   0  0  0  0  0  0  0  0  0  0  0  0
   -0.0538   -0.3002    1.2711 N   0  0  0  0  0  0  0  0  0  0  0  0
   -1.4367   -0.2930    1.5972 C   0  0  0  0  0  0  0  0  0  0  0  0
   -2.4512   -0.3287    0.6414 C   0  0  0  0  0  0  0  0  0  0  0  0
   -3.7660   -0.1305    0.9038 N   0  0  0  0  0  0  0  0  0  0  0  0
   -4.0941    0.0658    2.1997 C   0  0  0  0  0  0  0  0  0  0  0  0
   -3.2001   -0.0091    3.2613 C   0  0  0  0  0  0  0  0  0  0  0  0
   -3.6464    0.0835    4.5962 C   0  0  0  0  0  0  0  0  0  0  0  0
   -2.7541   -0.0181    5.6550 C   0  0  0  0  0  0  0  0  0  0  0  0
   -1.3991   -0.1840    5.3985 C   0  0  0  0  0  0  0  0  0  0  0  0
   -0.9427   -0.2671    4.0776 C   0  0  0  0  0  0  0  0  0  0  0  0
   -1.8252   -0.1931    2.9677 C   0  0  0  0  0  0  0  0  0  0  0  0
    2.6964   -1.5409    0.0203 C   0  0  0  0  0  0  0  0  0  0  0  0
    2.5380   -2.2067    1.3734 C   0  0  0  0  0  0  0  0  0  0  0  0
    3.0903   -1.3844    2.4384 N   0  0  0  0  0  0  0  0  0  0  0  0
    3.1957   -0.0035    2.2900 C   0  0  0  0  0  0  0  0  0  0  0  0
    3.7579    0.7323    3.3437 C   0  0  0  0  0  0  0  0  0  0  0  0
    3.7958    2.1282    3.3150 C   0  0  0  0  0  0  0  0  0  0  0  0
    4.5335    2.9423    4.6481 Cl  0  0  0  0  0  0  0  0  0  0  0  0
    3.2344    2.8092    2.2363 C   0  0  0  0  0  0  0  0  0  0  0  0
    3.2333    4.5328    2.1280 Cl  0  0  0  0  0  0  0  0  0  0  0  0
    2.6512    2.0882    1.1884 C   0  0  0  0  0  0  0  0  0  0  0  0
    2.6444    0.6789    1.1885 C   0  0  0  0  0  0  0  0  0  0  0  0
    3.5840    0.6856   -1.3810 H   0  0  0  0  0  0  0  0  0  0  0  0
    2.0077    1.4849   -1.5046 H   0  0  0  0  0  0  0  0  0  0  0  0
    2.2303   -0.1157   -2.1904 H   0  0  0  0  0  0  0  0  0  0  0  0
    0.5811   -0.2039    2.0507 H   0  0  0  0  0  0  0  0  0  0  0  0
   -2.2560   -0.5203   -0.4081 H   0  0  0  0  0  0  0  0  0  0  0  0
   -5.1460    0.2876    2.3628 H   0  0  0  0  0  0  0  0  0  0  0  0
   -4.7064    0.2035    4.8133 H   0  0  0  0  0  0  0  0  0  0  0  0
   -3.1111    0.0221    6.6828 H   0  0  0  0  0  0  0  0  0  0  0  0
   -0.6918   -0.2627    6.2209 H   0  0  0  0  0  0  0  0  0  0  0  0
    0.1232   -0.4250    3.9445 H   0  0  0  0  0  0  0  0  0  0  0  0
    3.7695   -1.4803   -0.2137 H   0  0  0  0  0  0  0  0  0  0  0  0
    2.2410   -2.1749   -0.7507 H   0  0  0  0  0  0  0  0  0  0  0  0
    3.0493   -3.1750    1.3697 H   0  0  0  0  0  0  0  0  0  0  0  0
    1.4869   -2.4191    1.5924 H   0  0  0  0  0  0  0  0  0  0  0  0
    3.8868   -1.8037    2.9163 H   0  0  0  0  0  0  0  0  0  0  0  0
    4.1709    0.2082    4.2036 H   0  0  0  0  0  0  0  0  0  0  0  0
    2.2103    2.6432    0.3625 H   0  0  0  0  0  0  0  0  0  0  0  0
  1 27  1  0  0  0  0
  1 28  1  0  0  0  0
  1 29  1  0  0  0  0
  2 16  1  0  0  0  0
  2 26  1  0  0  0  0
  2  3  1  1  0  0  0
  2  1  1  0  0  0  0
  3  4  2  0  0  0  0
  3  5  1  0  0  0  0
  5  6  1  0  0  0  0
  5 30  1  0  0  0  0
  6  7  1  0  0  0  0
  6 15  2  0  0  0  0
  7  8  2  0  0  0  0
  7 31  1  0  0  0  0
  8  9  1  0  0  0  0
  9 10  2  0  0  0  0
  9 32  1  0  0  0  0
 10 11  1  0  0  0  0
 10 15  1  0  0  0  0
 11 12  2  0  0  0  0
 11 33  1  0  0  0  0
 12 13  1  0  0  0  0
 12 34  1  0  0  0  0
 13 14  2  0  0  0  0
 13 35  1  0  0  0  0
 14 15  1  0  0  0  0
 14 36  1  0  0  0  0
 16 17  1  0  0  0  0
 16 37  1  0  0  0  0
 16 38  1  0  0  0  0
 17 18  1  0  0  0  0
 17 39  1  0  0  0  0
 17 40  1  0  0  0  0
 18 19  1  0  0  0  0
 18 41  1  0  0  0  0
 19 20  1  0  0  0  0
 19 26  2  0  0  0  0
 20 21  2  0  0  0  0
 20 42  1  0  0  0  0
 21 22  1  0  0  0  0
 21 23  1  0  0  0  0
 23 24  1  0  0  0  0
 23 25  2  0  0  0  0
 25 26  1  0  0  0  0
 25 43  1  0  0  0  0
M  END
$$$$
