stable:False satoms:19 tatoms:24 sratio:0.7916666666666666
  -OEChem-08052419503D

 27 26  0     1  0  0  0  0  0999 V2000
    9.4439    2.3776   24.7678 C   0  0  0  0  0  0  0  0  0  0  0  0
    8.6615    2.9707   24.9561 H   0  0  0  0  0  0  0  0  0  0  0  0
   12.3328    0.1052   24.7742 C   0  0  0  0  0  0  0  0  0  0  0  0
   12.7748    1.0552   24.9848 H   0  0  0  0  0  0  0  0  0  0  0  0
   10.9445    0.5469   24.1749 C   0  0  3  0  0  0  0  0  0  0  0  0
   10.1287    1.4798   24.4327 C   0  0  0  0  0  0  0  0  0  0  0  0
    9.2187    0.5915   20.7674 O   0  0  0  0  0  0  0  0  0  0  0  0
   12.0124   -0.6103   25.5030 H   0  0  0  0  0  0  0  0  0  0  0  0
   11.1847   -1.3068   21.4243 C   0  0  0  0  0  0  0  0  0  0  0  0
    9.4169   -0.5717   22.6086 N   0  0  0  0  0  0  0  0  0  0  0  0
   13.6078   -0.9033   24.0053 Cl  0  0  0  0  0  0  0  0  0  0  0  0
   10.6760   -2.1351   23.3592 H   0  0  0  0  0  0  0  0  0  0  0  0
   10.1256   -1.7027   22.5481 C   0  0  0  0  0  0  0  0  0  0  0  0
   10.1042    0.0396   23.2805 C   0  0  0  0  0  0  0  0  0  0  0  0
   11.0024   -1.9871   20.6131 H   0  0  0  0  0  0  0  0  0  0  0  0
   11.0316   -0.3090   21.0560 H   0  0  0  0  0  0  0  0  0  0  0  0
    8.6543   -0.0610   21.5779 C   0  0  0  0  0  0  0  0  0  0  0  0
   12.1510   -1.4002   21.8547 H   0  0  0  0  0  0  0  0  0  0  0  0
    9.3306   -2.4854   22.3111 H   0  0  0  0  0  0  0  0  0  0  0  0
    6.9277   -1.4297   21.4126 H   0  0  0  0  0  0  0  0  0  0  0  0
    7.1423   -0.3635   21.4468 C   0  0  0  0  0  0  0  0  0  0  0  0
    6.3619    0.2609   22.4410 O   0  0  0  0  0  0  0  0  0  0  0  0
    6.8261    0.0667   20.5009 H   0  0  0  0  0  0  0  0  0  0  0  0
    6.8444   -0.0610   23.2354 H   0  0  0  0  0  0  0  0  0  0  0  0
   11.4426    1.1544   23.4049 H   0  0  0  0  0  0  0  0  0  0  0  0
   10.6882    0.4225   22.4306 H   0  0  0  0  0  0  0  0  0  0  0  0
    9.3110    0.7584   23.5339 H   0  0  0  0  0  0  0  0  0  0  0  0
 20 21  1  0  0  0  0
 13 19  1  0  0  0  0
 21 23  1  0  0  0  0
 21 22  1  0  0  0  0
 17 21  1  0  0  0  0
 22 24  1  0  0  0  0
 12 13  1  0  0  0  0
 10 13  1  0  0  0  0
  9 13  1  0  0  0  0
  9 15  1  0  0  0  0
 10 17  1  0  0  0  0
  7 17  2  0  0  0  0
 10 14  1  0  0  0  0
  9 18  1  0  0  0  0
  9 16  1  0  0  0  0
  5 14  1  0  0  0  0
  3  8  1  0  0  0  0
  5  6  1  0  0  0  0
  3  5  1  0  0  0  0
  1  6  3  0  0  0  0
  3 11  1  0  0  0  0
  1  2  1  0  0  0  0
  3  4  1  0  0  0  0
  5 25  1  0  0  0  0
 14 26  1  0  0  0  0
 14 27  1  0  0  0  0
M  END
> <Chemgauss4>
-5.508916

$$$$
