REMARK  6 active torsions:
REMARK  status: ('A' for Active; 'I' for Inactive)
REMARK    1  A    between atoms: S_2  and  N_5 
REMARK    2  A    between atoms: C_7  and  C_8 
REMARK    3  A    between atoms: C_8  and  C_9 
REMARK    4  A    between atoms: C_9  and  C_15 
REMARK    5  A    between atoms: C_15  and  C_16 
REMARK       I    between atoms: C_16  and  N_18 
REMARK    6  A    between atoms: N_18  and  C_20 
ROOT
HETATM    1  C   UNL     1      10.331  -1.140  23.253  1.00  0.00     0.076 C 
HETATM    2  C   UNL     1      11.070   0.006  24.334  1.00  0.00     0.003 C 
HETATM    3  C   UNL     1      12.119   0.288  24.272  1.00  0.00    -0.002 C 
HETATM    4  C   UNL     1      13.175  -0.186  23.505  1.00  0.00    -0.001 C 
HETATM    5  C   UNL     1      12.746  -1.298  22.630  1.00  0.00    -0.002 C 
HETATM    6  C   UNL     1      11.789  -1.710  22.503  1.00  0.00     0.003 C 
ENDROOT
BRANCH   1   7
HETATM    7  C   UNL     1       9.419  -1.964  23.526  1.00  0.00     0.021 C 
BRANCH   7   8
HETATM    8  C   UNL     1       8.971  -2.893  24.142  1.00  0.00     0.098 C 
HETATM    9  N   UNL     1       8.116  -3.578  24.666  1.00  0.00    -0.296 N 
ATOM     10  HN  UNL     1       7.254  -3.703  24.135  1.00  0.00     0.177 HD
BRANCH   9  11
HETATM   11  S   UNL     1       8.177  -4.319  26.109  1.00  0.00     0.226 S 
HETATM   12  C   UNL     1       6.610  -4.873  26.414  1.00  0.00     0.186 C 
HETATM   13  O   UNL     1       9.046  -5.467  26.060  1.00  0.00    -0.206 OA
HETATM   14  O   UNL     1       8.577  -3.426  27.163  1.00  0.00    -0.206 OA
ENDBRANCH   9  11
ENDBRANCH   7   8
ENDBRANCH   1   7
BRANCH   1  15
HETATM   15  C   UNL     1       9.736  -0.553  22.367  1.00  0.00    -0.061 C 
BRANCH  15  16
HETATM   16  C   UNL     1       9.072   0.041  21.390  1.00  0.00     0.290 C 
HETATM   17  O   UNL     1       9.553   0.964  20.936  1.00  0.00    -0.259 OA
HETATM   18  N   UNL     1       7.923  -0.558  21.096  1.00  0.00    -0.315 N 
ATOM     19  HN  UNL     1       7.637  -1.392  21.609  1.00  0.00     0.170 HD
BRANCH  18  20
HETATM   20  C   UNL     1       7.176  -0.089  20.171  1.00  0.00     0.057 A 
HETATM   21  C   UNL     1       7.246  -0.003  18.864  1.00  0.00     0.117 A 
HETATM   22  N   UNL     1       6.769   0.327  17.775  1.00  0.00    -0.373 N 
HETATM   23  C   UNL     1       5.631   0.903  18.264  1.00  0.00     0.088 A 
ATOM     24  HN  UNL     1       7.112   0.209  16.822  1.00  0.00     0.164 HD
HETATM   25  C   UNL     1       5.239   0.992  19.377  1.00  0.00     0.026 A 
HETATM   26  C   UNL     1       5.821   0.555  20.520  1.00  0.00    -0.033 A 
HETATM   27  C   UNL     1       5.272   0.691  21.962  1.00  0.00     0.050 C 
ENDBRANCH  18  20
ENDBRANCH  15  16
ENDBRANCH   1  15
TORSDOF 6
