MODEL 1
REMARK VINA RESULT:    -7.546      0.000      0.000
REMARK INTER + INTRA:         -11.172
REMARK INTER:                 -10.192
REMARK INTRA:                  -0.980
REMARK UNBOUND:                -0.980
REMARK  6 active torsions:
REMARK  status: ('A' for Active; 'I' for Inactive)
REMARK    1  A    between atoms: S_2  and  N_5 
REMARK    2  A    between atoms: C_7  and  C_8 
REMARK    3  A    between atoms: C_8  and  C_9 
REMARK    4  A    between atoms: C_9  and  C_15 
REMARK    5  A    between atoms: C_15  and  C_16 
REMARK       I    between atoms: C_16  and  N_18 
REMARK    6  A    between atoms: N_18  and  C_20 
ROOT
HETATM    1  C   UNL     1       9.473  -1.546  23.267  1.00  0.00     0.076 C 
HETATM    2  C   UNL     1       9.270  -0.607  24.718  1.00  0.00     0.003 C 
HETATM    3  C   UNL     1      10.056   0.020  25.133  1.00  0.00    -0.002 C 
HETATM    4  C   UNL     1      11.393   0.193  24.800  1.00  0.00    -0.001 C 
HETATM    5  C   UNL     1      11.780  -0.673  23.666  1.00  0.00    -0.002 C 
HETATM    6  C   UNL     1      11.186  -1.326  23.098  1.00  0.00     0.003 C 
ENDROOT
BRANCH   1   7
HETATM    7  C   UNL     1       8.971  -2.672  23.014  1.00  0.00     0.021 C 
BRANCH   7   8
HETATM    8  C   UNL     1       8.039  -3.418  22.877  1.00  0.00     0.098 C 
HETATM    9  N   UNL     1       7.455  -4.424  22.529  1.00  0.00    -0.296 N 
ATOM     10  HN  UNL     1       7.948  -5.304  22.681  1.00  0.00     0.177 HD
BRANCH   9  11
HETATM   11  S   UNL     1       5.985  -4.541  21.851  1.00  0.00     0.226 S 
HETATM   12  C   UNL     1       4.953  -5.095  23.069  1.00  0.00     0.186 C 
HETATM   13  O   UNL     1       5.510  -3.247  21.429  1.00  0.00    -0.206 OA
HETATM   14  O   UNL     1       5.964  -5.470  20.753  1.00  0.00    -0.206 OA
ENDBRANCH   9  11
ENDBRANCH   7   8
ENDBRANCH   1   7
BRANCH   1  15
HETATM   15  C   UNL     1       8.989  -0.955  22.318  1.00  0.00    -0.061 C 
BRANCH  15  16
HETATM   16  C   UNL     1       8.463  -0.356  21.263  1.00  0.00     0.290 C 
HETATM   17  O   UNL     1       9.154   0.315  20.661  1.00  0.00    -0.259 OA
HETATM   18  N   UNL     1       7.180  -0.647  21.080  1.00  0.00    -0.315 N 
ATOM     19  HN  UNL     1       6.703  -1.279  21.723  1.00  0.00     0.170 HD
BRANCH  18  20
HETATM   20  C   UNL     1       6.542  -0.136  20.097  1.00  0.00     0.057 A 
HETATM   21  C   UNL     1       6.242  -0.513  18.877  1.00  0.00     0.117 A 
HETATM   22  N   UNL     1       5.698  -0.316  17.788  1.00  0.00    -0.373 N 
HETATM   23  C   UNL     1       5.237   0.941  18.061  1.00  0.00     0.088 A 
ATOM     24  HN  UNL     1       5.619  -0.899  16.955  1.00  0.00     0.164 HD
HETATM   25  C   UNL     1       5.311   1.581  19.054  1.00  0.00     0.026 A 
HETATM   26  C   UNL     1       5.900   1.258  20.230  1.00  0.00    -0.033 A 
HETATM   27  C   UNL     1       5.974   2.127  21.510  1.00  0.00     0.050 C 
ENDBRANCH  18  20
ENDBRANCH  15  16
ENDBRANCH   1  15
TORSDOF 6
ENDMDL
MODEL 2
REMARK VINA RESULT:    -7.311      2.703      5.848
REMARK INTER + INTRA:         -10.855
REMARK INTER:                  -9.936
REMARK INTRA:                  -0.919
REMARK UNBOUND:                -0.980
REMARK  6 active torsions:
REMARK  status: ('A' for Active; 'I' for Inactive)
REMARK    1  A    between atoms: S_2  and  N_5 
REMARK    2  A    between atoms: C_7  and  C_8 
REMARK    3  A    between atoms: C_8  and  C_9 
REMARK    4  A    between atoms: C_9  and  C_15 
REMARK    5  A    between atoms: C_15  and  C_16 
REMARK       I    between atoms: C_16  and  N_18 
REMARK    6  A    between atoms: N_18  and  C_20 
ROOT
HETATM    1  C   UNL     1      10.322  -0.611  23.458  1.00  0.00     0.076 C 
HETATM    2  C   UNL     1      11.562  -1.582  22.717  1.00  0.00     0.003 C 
HETATM    3  C   UNL     1      12.599  -1.569  23.044  1.00  0.00    -0.002 C 
HETATM    4  C   UNL     1      13.285  -0.784  23.961  1.00  0.00    -0.001 C 
HETATM    5  C   UNL     1      12.395   0.225  24.575  1.00  0.00    -0.002 C 
HETATM    6  C   UNL     1      11.365   0.373  24.435  1.00  0.00     0.003 C 
ENDROOT
BRANCH   1   7
HETATM    7  C   UNL     1       9.332  -0.080  22.890  1.00  0.00     0.021 C 
BRANCH   7   8
HETATM    8  C   UNL     1       8.371  -0.113  22.169  1.00  0.00     0.098 C 
HETATM    9  N   UNL     1       7.584  -0.593  21.379  1.00  0.00    -0.296 N 
ATOM     10  HN  UNL     1       7.302  -1.557  21.556  1.00  0.00     0.177 HD
BRANCH   9  11
HETATM   11  S   UNL     1       6.925   0.113  20.074  1.00  0.00     0.226 S 
HETATM   12  C   UNL     1       5.667  -0.903  19.581  1.00  0.00     0.186 C 
HETATM   13  O   UNL     1       6.350   1.389  20.416  1.00  0.00    -0.206 OA
HETATM   14  O   UNL     1       7.868   0.254  18.997  1.00  0.00    -0.206 OA
ENDBRANCH   9  11
ENDBRANCH   7   8
ENDBRANCH   1   7
BRANCH   1  15
HETATM   15  C   UNL     1       9.690  -1.280  24.255  1.00  0.00    -0.061 C 
BRANCH  15  16
HETATM   16  C   UNL     1       8.975  -2.022  25.084  1.00  0.00     0.290 C 
HETATM   17  O   UNL     1       8.653  -1.531  26.057  1.00  0.00    -0.259 OA
HETATM   18  N   UNL     1       8.748  -3.249  24.628  1.00  0.00    -0.315 N 
ATOM     19  HN  UNL     1       9.114  -3.531  23.719  1.00  0.00     0.170 HD
BRANCH  18  20
HETATM   20  C   UNL     1       8.070  -4.076  25.329  1.00  0.00     0.057 A 
HETATM   21  C   UNL     1       8.337  -4.930  26.288  1.00  0.00     0.117 A 
HETATM   22  N   UNL     1       7.982  -5.779  27.110  1.00  0.00    -0.373 N 
HETATM   23  C   UNL     1       6.661  -5.800  26.761  1.00  0.00     0.088 A 
ATOM     24  HN  UNL     1       8.503  -6.296  27.817  1.00  0.00     0.164 HD
HETATM   25  C   UNL     1       6.074  -5.159  25.958  1.00  0.00     0.026 A 
HETATM   26  C   UNL     1       6.550  -4.206  25.120  1.00  0.00    -0.033 A 
HETATM   27  C   UNL     1       5.744  -3.387  24.081  1.00  0.00     0.050 C 
ENDBRANCH  18  20
ENDBRANCH  15  16
ENDBRANCH   1  15
TORSDOF 6
ENDMDL
MODEL 3
REMARK VINA RESULT:    -6.941      4.193      6.363
REMARK INTER + INTRA:         -10.356
REMARK INTER:                  -9.805
REMARK INTRA:                  -0.551
REMARK UNBOUND:                -0.980
REMARK  6 active torsions:
REMARK  status: ('A' for Active; 'I' for Inactive)
REMARK    1  A    between atoms: S_2  and  N_5 
REMARK    2  A    between atoms: C_7  and  C_8 
REMARK    3  A    between atoms: C_8  and  C_9 
REMARK    4  A    between atoms: C_9  and  C_15 
REMARK    5  A    between atoms: C_15  and  C_16 
REMARK       I    between atoms: C_16  and  N_18 
REMARK    6  A    between atoms: N_18  and  C_20 
ROOT
HETATM    1  C   UNL     1       7.416  -4.848  23.999  1.00  0.00     0.076 C 
HETATM    2  C   UNL     1       7.622  -5.943  22.661  1.00  0.00     0.003 C 
HETATM    3  C   UNL     1       6.880  -6.065  21.875  1.00  0.00    -0.002 C 
HETATM    4  C   UNL     1       5.592  -5.571  21.715  1.00  0.00    -0.001 C 
HETATM    5  C   UNL     1       5.190  -4.736  22.867  1.00  0.00    -0.002 C 
HETATM    6  C   UNL     1       5.748  -4.461  23.713  1.00  0.00     0.003 C 
ENDROOT
BRANCH   1   7
HETATM    7  C   UNL     1       7.813  -5.010  25.182  1.00  0.00     0.021 C 
BRANCH   7   8
HETATM    8  C   UNL     1       7.629  -5.240  26.347  1.00  0.00     0.098 C 
HETATM    9  N   UNL     1       7.736  -5.838  27.398  1.00  0.00    -0.296 N 
ATOM     10  HN  UNL     1       8.672  -6.170  27.632  1.00  0.00     0.177 HD
BRANCH   9  11
HETATM   11  S   UNL     1       6.572  -6.174  28.479  1.00  0.00     0.226 S 
HETATM   12  C   UNL     1       5.164  -6.430  27.580  1.00  0.00     0.186 C 
HETATM   13  O   UNL     1       6.867  -7.392  29.188  1.00  0.00    -0.206 OA
HETATM   14  O   UNL     1       6.356  -5.091  29.400  1.00  0.00    -0.206 OA
ENDBRANCH   9  11
ENDBRANCH   7   8
ENDBRANCH   1   7
BRANCH   1  15
HETATM   15  C   UNL     1       8.016  -3.811  23.784  1.00  0.00    -0.061 C 
BRANCH  15  16
HETATM   16  C   UNL     1       8.704  -2.710  23.530  1.00  0.00     0.290 C 
HETATM   17  O   UNL     1       8.669  -2.324  22.462  1.00  0.00    -0.259 OA
HETATM   18  N   UNL     1       9.336  -2.228  24.594  1.00  0.00    -0.315 N 
ATOM     19  HN  UNL     1       9.259  -2.705  25.492  1.00  0.00     0.170 HD
BRANCH  18  20
HETATM   20  C   UNL     1      10.042  -1.168  24.492  1.00  0.00     0.057 A 
HETATM   21  C   UNL     1      11.261  -0.888  24.096  1.00  0.00     0.117 A 
HETATM   22  N   UNL     1      12.166  -0.081  23.871  1.00  0.00    -0.373 N 
HETATM   23  C   UNL     1      11.503   1.032  24.303  1.00  0.00     0.088 A 
ATOM     24  HN  UNL     1      13.104  -0.204  23.489  1.00  0.00     0.164 HD
HETATM   25  C   UNL     1      10.397   1.151  24.708  1.00  0.00     0.026 A 
HETATM   26  C   UNL     1       9.449   0.199  24.882  1.00  0.00    -0.033 A 
HETATM   27  C   UNL     1       8.008   0.398  25.415  1.00  0.00     0.050 C 
ENDBRANCH  18  20
ENDBRANCH  15  16
ENDBRANCH   1  15
TORSDOF 6
ENDMDL
MODEL 4
REMARK VINA RESULT:    -6.563     14.820     16.208
REMARK INTER + INTRA:          -9.845
REMARK INTER:                  -9.013
REMARK INTRA:                  -0.832
REMARK UNBOUND:                -0.980
REMARK  6 active torsions:
REMARK  status: ('A' for Active; 'I' for Inactive)
REMARK    1  A    between atoms: S_2  and  N_5 
REMARK    2  A    between atoms: C_7  and  C_8 
REMARK    3  A    between atoms: C_8  and  C_9 
REMARK    4  A    between atoms: C_9  and  C_15 
REMARK    5  A    between atoms: C_15  and  C_16 
REMARK       I    between atoms: C_16  and  N_18 
REMARK    6  A    between atoms: N_18  and  C_20 
ROOT
HETATM    1  C   UNL     1      23.252  -1.669  23.638  1.00  0.00     0.076 C 
HETATM    2  C   UNL     1      21.772  -1.395  24.512  1.00  0.00     0.003 C 
HETATM    3  C   UNL     1      21.477  -0.417  24.887  1.00  0.00    -0.002 C 
HETATM    4  C   UNL     1      22.132   0.807  24.933  1.00  0.00    -0.001 C 
HETATM    5  C   UNL     1      23.494   0.709  24.368  1.00  0.00    -0.002 C 
HETATM    6  C   UNL     1      23.971  -0.116  23.927  1.00  0.00     0.003 C 
ENDROOT
BRANCH   1   7
HETATM    7  C   UNL     1      23.977  -2.698  23.675  1.00  0.00     0.021 C 
BRANCH   7   8
HETATM    8  C   UNL     1      24.184  -3.847  23.957  1.00  0.00     0.098 C 
HETATM    9  N   UNL     1      23.997  -5.047  23.962  1.00  0.00    -0.296 N 
ATOM     10  HN  UNL     1      23.741  -5.465  23.067  1.00  0.00     0.177 HD
BRANCH   9  11
HETATM   11  S   UNL     1      24.104  -6.068  25.220  1.00  0.00     0.226 S 
HETATM   12  C   UNL     1      25.705  -5.982  25.753  1.00  0.00     0.186 C 
HETATM   13  O   UNL     1      23.258  -5.639  26.303  1.00  0.00    -0.206 OA
HETATM   14  O   UNL     1      23.802  -7.424  24.847  1.00  0.00    -0.206 OA
ENDBRANCH   9  11
ENDBRANCH   7   8
ENDBRANCH   1   7
BRANCH   1  15
HETATM   15  C   UNL     1      23.030  -1.691  22.441  1.00  0.00    -0.061 C 
BRANCH  15  16
HETATM   16  C   UNL     1      22.763  -1.673  21.146  1.00  0.00     0.290 C 
HETATM   17  O   UNL     1      21.688  -1.882  20.846  1.00  0.00    -0.259 OA
HETATM   18  N   UNL     1      23.825  -1.406  20.394  1.00  0.00    -0.315 N 
ATOM     19  HN  UNL     1      24.731  -1.239  20.832  1.00  0.00     0.170 HD
BRANCH  18  20
HETATM   20  C   UNL     1      23.712  -1.359  19.122  1.00  0.00     0.057 A 
HETATM   21  C   UNL     1      23.363  -0.447  18.246  1.00  0.00     0.117 A 
HETATM   22  N   UNL     1      23.175  -0.081  17.082  1.00  0.00    -0.373 N 
HETATM   23  C   UNL     1      23.462  -1.277  16.488  1.00  0.00     0.088 A 
ATOM     24  HN  UNL     1      22.896   0.819  16.692  1.00  0.00     0.164 HD
HETATM   25  C   UNL     1      23.822  -2.299  16.964  1.00  0.00     0.026 A 
HETATM   26  C   UNL     1      24.045  -2.596  18.267  1.00  0.00    -0.033 A 
HETATM   27  C   UNL     1      24.518  -3.951  18.851  1.00  0.00     0.050 C 
ENDBRANCH  18  20
ENDBRANCH  15  16
ENDBRANCH   1  15
TORSDOF 6
ENDMDL
MODEL 5
REMARK VINA RESULT:    -6.343      2.193      2.356
REMARK INTER + INTRA:          -9.548
REMARK INTER:                  -8.891
REMARK INTRA:                  -0.657
REMARK UNBOUND:                -0.980
REMARK  6 active torsions:
REMARK  status: ('A' for Active; 'I' for Inactive)
REMARK    1  A    between atoms: S_2  and  N_5 
REMARK    2  A    between atoms: C_7  and  C_8 
REMARK    3  A    between atoms: C_8  and  C_9 
REMARK    4  A    between atoms: C_9  and  C_15 
REMARK    5  A    between atoms: C_15  and  C_16 
REMARK       I    between atoms: C_16  and  N_18 
REMARK    6  A    between atoms: N_18  and  C_20 
ROOT
HETATM    1  C   UNL     1       9.568  -0.976  23.611  1.00  0.00     0.076 C 
HETATM    2  C   UNL     1      10.136   0.332  24.609  1.00  0.00     0.003 C 
HETATM    3  C   UNL     1      11.180   0.636  24.650  1.00  0.00    -0.002 C 
HETATM    4  C   UNL     1      12.338   0.094  24.107  1.00  0.00    -0.001 C 
HETATM    5  C   UNL     1      12.048  -1.141  23.349  1.00  0.00    -0.002 C 
HETATM    6  C   UNL     1      11.123  -1.598  23.153  1.00  0.00     0.003 C 
ENDROOT
BRANCH   1   7
HETATM    7  C   UNL     1       8.638  -1.783  23.873  1.00  0.00     0.021 C 
BRANCH   7   8
HETATM    8  C   UNL     1       7.748  -2.196  24.567  1.00  0.00     0.098 C 
HETATM    9  N   UNL     1       6.668  -2.689  24.824  1.00  0.00    -0.296 N 
ATOM     10  HN  UNL     1       6.388  -3.481  24.245  1.00  0.00     0.177 HD
BRANCH   9  11
HETATM   11  S   UNL     1       5.616  -2.240  25.975  1.00  0.00     0.226 S 
HETATM   12  C   UNL     1       5.240  -3.646  26.835  1.00  0.00     0.186 C 
HETATM   13  O   UNL     1       6.225  -1.313  26.894  1.00  0.00    -0.206 OA
HETATM   14  O   UNL     1       4.409  -1.686  25.423  1.00  0.00    -0.206 OA
ENDBRANCH   9  11
ENDBRANCH   7   8
ENDBRANCH   1   7
BRANCH   1  15
HETATM   15  C   UNL     1       9.094  -0.537  22.579  1.00  0.00    -0.061 C 
BRANCH  15  16
HETATM   16  C   UNL     1       8.566  -0.106  21.446  1.00  0.00     0.290 C 
HETATM   17  O   UNL     1       9.250   0.483  20.758  1.00  0.00    -0.259 OA
HETATM   18  N   UNL     1       7.289  -0.444  21.299  1.00  0.00    -0.315 N 
ATOM     19  HN  UNL     1       6.819  -0.986  22.024  1.00  0.00     0.170 HD
BRANCH  18  20
HETATM   20  C   UNL     1       6.651  -0.092  20.249  1.00  0.00     0.057 A 
HETATM   21  C   UNL     1       6.408  -0.627  19.077  1.00  0.00     0.117 A 
HETATM   22  N   UNL     1       5.884  -0.593  17.960  1.00  0.00    -0.373 N 
HETATM   23  C   UNL     1       5.344   0.657  18.073  1.00  0.00     0.088 A 
ATOM     24  HN  UNL     1       5.863  -1.274  17.201  1.00  0.00     0.164 HD
HETATM   25  C   UNL     1       5.352   1.412  18.983  1.00  0.00     0.026 A 
HETATM   26  C   UNL     1       5.926   1.266  20.202  1.00  0.00    -0.033 A 
HETATM   27  C   UNL     1       5.913   2.283  21.371  1.00  0.00     0.050 C 
ENDBRANCH  18  20
ENDBRANCH  15  16
ENDBRANCH   1  15
TORSDOF 6
ENDMDL
MODEL 6
REMARK VINA RESULT:    -6.038     15.179     17.829
REMARK INTER + INTRA:          -9.135
REMARK INTER:                  -8.390
REMARK INTRA:                  -0.745
REMARK UNBOUND:                -0.980
REMARK  6 active torsions:
REMARK  status: ('A' for Active; 'I' for Inactive)
REMARK    1  A    between atoms: S_2  and  N_5 
REMARK    2  A    between atoms: C_7  and  C_8 
REMARK    3  A    between atoms: C_8  and  C_9 
REMARK    4  A    between atoms: C_9  and  C_15 
REMARK    5  A    between atoms: C_15  and  C_16 
REMARK       I    between atoms: C_16  and  N_18 
REMARK    6  A    between atoms: N_18  and  C_20 
ROOT
HETATM    1  C   UNL     1      23.184  -2.312  24.947  1.00  0.00     0.076 C 
HETATM    2  C   UNL     1      23.426  -0.658  24.463  1.00  0.00     0.003 C 
HETATM    3  C   UNL     1      22.641   0.095  24.511  1.00  0.00    -0.002 C 
HETATM    4  C   UNL     1      21.286   0.021  24.806  1.00  0.00    -0.001 C 
HETATM    5  C   UNL     1      20.873  -1.371  25.086  1.00  0.00    -0.002 C 
HETATM    6  C   UNL     1      21.459  -2.241  25.126  1.00  0.00     0.003 C 
ENDROOT
BRANCH   1   7
HETATM    7  C   UNL     1      23.706  -3.338  24.436  1.00  0.00     0.021 C 
BRANCH   7   8
HETATM    8  C   UNL     1      23.972  -4.509  24.433  1.00  0.00     0.098 C 
HETATM    9  N   UNL     1      23.757  -5.704  24.395  1.00  0.00    -0.296 N 
ATOM     10  HN  UNL     1      23.055  -6.011  23.722  1.00  0.00     0.177 HD
BRANCH   9  11
HETATM   11  S   UNL     1      24.451  -6.871  25.284  1.00  0.00     0.226 S 
HETATM   12  C   UNL     1      26.118  -6.647  25.127  1.00  0.00     0.186 C 
HETATM   13  O   UNL     1      24.118  -6.721  26.678  1.00  0.00    -0.206 OA
HETATM   14  O   UNL     1      24.105  -8.188  24.820  1.00  0.00    -0.206 OA
ENDBRANCH   9  11
ENDBRANCH   7   8
ENDBRANCH   1   7
BRANCH   1  15
HETATM   15  C   UNL     1      23.606  -2.481  26.077  1.00  0.00    -0.061 C 
BRANCH  15  16
HETATM   16  C   UNL     1      24.055  -2.617  27.313  1.00  0.00     0.290 C 
HETATM   17  O   UNL     1      24.901  -3.358  27.468  1.00  0.00    -0.259 OA
HETATM   18  N   UNL     1      23.424  -1.844  28.189  1.00  0.00    -0.315 N 
ATOM     19  HN  UNL     1      22.675  -1.225  27.877  1.00  0.00     0.170 HD
BRANCH  18  20
HETATM   20  C   UNL     1      23.754  -1.874  29.423  1.00  0.00     0.057 A 
HETATM   21  C   UNL     1      23.450  -2.624  30.456  1.00  0.00     0.117 A 
HETATM   22  N   UNL     1      23.569  -2.924  31.647  1.00  0.00    -0.373 N 
HETATM   23  C   UNL     1      24.430  -1.918  31.983  1.00  0.00     0.088 A 
ATOM     24  HN  UNL     1      23.160  -3.677  32.199  1.00  0.00     0.164 HD
HETATM   25  C   UNL     1      24.920  -1.078  31.309  1.00  0.00     0.026 A 
HETATM   26  C   UNL     1      24.759  -0.850  29.983  1.00  0.00    -0.033 A 
HETATM   27  C   UNL     1      25.423   0.264  29.136  1.00  0.00     0.050 C 
ENDBRANCH  18  20
ENDBRANCH  15  16
ENDBRANCH   1  15
TORSDOF 6
ENDMDL
MODEL 7
REMARK VINA RESULT:    -5.817      4.428      6.347
REMARK INTER + INTRA:          -8.837
REMARK INTER:                  -8.250
REMARK INTRA:                  -0.587
REMARK UNBOUND:                -0.980
REMARK  6 active torsions:
REMARK  status: ('A' for Active; 'I' for Inactive)
REMARK    1  A    between atoms: S_2  and  N_5 
REMARK    2  A    between atoms: C_7  and  C_8 
REMARK    3  A    between atoms: C_8  and  C_9 
REMARK    4  A    between atoms: C_9  and  C_15 
REMARK    5  A    between atoms: C_15  and  C_16 
REMARK       I    between atoms: C_16  and  N_18 
REMARK    6  A    between atoms: N_18  and  C_20 
ROOT
HETATM    1  C   UNL     1       9.676   1.842  24.026  1.00  0.00     0.076 C 
HETATM    2  C   UNL     1      11.274   1.377  23.518  1.00  0.00     0.003 C 
HETATM    3  C   UNL     1      11.687   0.385  23.694  1.00  0.00    -0.002 C 
HETATM    4  C   UNL     1      11.226  -0.710  24.413  1.00  0.00    -0.001 C 
HETATM    5  C   UNL     1       9.928  -0.420  25.058  1.00  0.00    -0.002 C 
HETATM    6  C   UNL     1       9.338   0.446  25.001  1.00  0.00     0.003 C 
ENDROOT
BRANCH   1   7
HETATM    7  C   UNL     1       9.306   2.976  24.429  1.00  0.00     0.021 C 
BRANCH   7   8
HETATM    8  C   UNL     1       9.397   4.173  24.475  1.00  0.00     0.098 C 
HETATM    9  N   UNL     1       9.952   5.253  24.452  1.00  0.00    -0.296 N 
ATOM     10  HN  UNL     1      10.673   5.371  23.740  1.00  0.00     0.177 HD
BRANCH   9  11
HETATM   11  S   UNL     1       9.688   6.530  25.418  1.00  0.00     0.226 S 
HETATM   12  C   UNL     1       8.567   7.501  24.609  1.00  0.00     0.186 C 
HETATM   13  O   UNL     1       9.094   6.118  26.664  1.00  0.00    -0.206 OA
HETATM   14  O   UNL     1      10.887   7.290  25.656  1.00  0.00    -0.206 OA
ENDBRANCH   9  11
ENDBRANCH   7   8
ENDBRANCH   1   7
BRANCH   1  15
HETATM   15  C   UNL     1       8.901   1.760  23.090  1.00  0.00    -0.061 C 
BRANCH  15  16
HETATM   16  C   UNL     1       8.064   1.623  22.075  1.00  0.00     0.290 C 
HETATM   17  O   UNL     1       7.390   2.508  21.849  1.00  0.00    -0.259 OA
HETATM   18  N   UNL     1       8.156   0.441  21.475  1.00  0.00    -0.315 N 
ATOM     19  HN  UNL     1       8.827  -0.250  21.811  1.00  0.00     0.170 HD
BRANCH  18  20
HETATM   20  C   UNL     1       7.403   0.170  20.478  1.00  0.00     0.057 A 
HETATM   21  C   UNL     1       7.209   0.680  19.285  1.00  0.00     0.117 A 
HETATM   22  N   UNL     1       6.649   0.677  18.186  1.00  0.00    -0.373 N 
HETATM   23  C   UNL     1       5.826  -0.387  18.426  1.00  0.00     0.088 A 
ATOM     24  HN  UNL     1       6.763   1.273  17.366  1.00  0.00     0.164 HD
HETATM   25  C   UNL     1       5.743  -1.087  19.377  1.00  0.00     0.026 A 
HETATM   26  C   UNL     1       6.440  -1.030  20.537  1.00  0.00    -0.033 A 
HETATM   27  C   UNL     1       6.300  -1.970  21.761  1.00  0.00     0.050 C 
ENDBRANCH  18  20
ENDBRANCH  15  16
ENDBRANCH   1  15
TORSDOF 6
ENDMDL
MODEL 8
REMARK VINA RESULT:    -5.796     22.674     25.573
REMARK INTER + INTRA:          -8.809
REMARK INTER:                  -8.116
REMARK INTRA:                  -0.693
REMARK UNBOUND:                -0.980
REMARK  6 active torsions:
REMARK  status: ('A' for Active; 'I' for Inactive)
REMARK    1  A    between atoms: S_2  and  N_5 
REMARK    2  A    between atoms: C_7  and  C_8 
REMARK    3  A    between atoms: C_8  and  C_9 
REMARK    4  A    between atoms: C_9  and  C_15 
REMARK    5  A    between atoms: C_15  and  C_16 
REMARK       I    between atoms: C_16  and  N_18 
REMARK    6  A    between atoms: N_18  and  C_20 
ROOT
HETATM    1  C   UNL     1       8.622  16.629   1.679  1.00  0.00     0.076 C 
HETATM    2  C   UNL     1       9.378  17.607   0.454  1.00  0.00     0.003 C 
HETATM    3  C   UNL     1       9.062  18.623   0.228  1.00  0.00    -0.002 C 
HETATM    4  C   UNL     1       7.992  19.393   0.665  1.00  0.00    -0.001 C 
HETATM    5  C   UNL     1       7.138  18.639   1.608  1.00  0.00    -0.002 C 
HETATM    6  C   UNL     1       7.267  17.669   1.988  1.00  0.00     0.003 C 
ENDROOT
BRANCH   1   7
HETATM    7  C   UNL     1       8.446  15.383   1.657  1.00  0.00     0.021 C 
BRANCH   7   8
HETATM    8  C   UNL     1       8.354  14.309   2.188  1.00  0.00     0.098 C 
HETATM    9  N   UNL     1       7.928  13.187   2.373  1.00  0.00    -0.296 N 
ATOM     10  HN  UNL     1       7.772  12.624   1.537  1.00  0.00     0.177 HD
BRANCH   9  11
HETATM   11  S   UNL     1       7.577  12.474   3.788  1.00  0.00     0.226 S 
HETATM   12  C   UNL     1       6.132  11.634   3.539  1.00  0.00     0.186 C 
HETATM   13  O   UNL     1       8.588  11.511   4.142  1.00  0.00    -0.206 OA
HETATM   14  O   UNL     1       7.393  13.429   4.848  1.00  0.00    -0.206 OA
ENDBRANCH   9  11
ENDBRANCH   7   8
ENDBRANCH   1   7
BRANCH   1  15
HETATM   15  C   UNL     1       9.279  16.665   2.704  1.00  0.00    -0.061 C 
BRANCH  15  16
HETATM   16  C   UNL     1      10.029  16.680   3.793  1.00  0.00     0.290 C 
HETATM   17  O   UNL     1      10.907  15.960   3.816  1.00  0.00    -0.259 OA
HETATM   18  N   UNL     1       9.619  17.559   4.701  1.00  0.00    -0.315 N 
ATOM     19  HN  UNL     1       8.799  18.137   4.517  1.00  0.00     0.170 HD
BRANCH  18  20
HETATM   20  C   UNL     1      10.251  17.679   5.805  1.00  0.00     0.057 A 
HETATM   21  C   UNL     1      11.316  18.330   6.209  1.00  0.00     0.117 A 
HETATM   22  N   UNL     1      12.113  18.657   7.092  1.00  0.00    -0.373 N 
HETATM   23  C   UNL     1      11.564  17.906   8.093  1.00  0.00     0.088 A 
ATOM     24  HN  UNL     1      12.919  19.282   7.079  1.00  0.00     0.164 HD
HETATM   25  C   UNL     1      10.603  17.217   8.089  1.00  0.00     0.026 A 
HETATM   26  C   UNL     1       9.753  16.949   7.067  1.00  0.00    -0.033 A 
HETATM   27  C   UNL     1       8.501  16.039   7.105  1.00  0.00     0.050 C 
ENDBRANCH  18  20
ENDBRANCH  15  16
ENDBRANCH   1  15
TORSDOF 6
ENDMDL
MODEL 9
REMARK VINA RESULT:    -5.726     14.700     17.753
REMARK INTER + INTRA:          -8.714
REMARK INTER:                  -7.839
REMARK INTRA:                  -0.875
REMARK UNBOUND:                -0.980
REMARK  6 active torsions:
REMARK  status: ('A' for Active; 'I' for Inactive)
REMARK    1  A    between atoms: S_2  and  N_5 
REMARK    2  A    between atoms: C_7  and  C_8 
REMARK    3  A    between atoms: C_8  and  C_9 
REMARK    4  A    between atoms: C_9  and  C_15 
REMARK    5  A    between atoms: C_15  and  C_16 
REMARK       I    between atoms: C_16  and  N_18 
REMARK    6  A    between atoms: N_18  and  C_20 
ROOT
HETATM    1  C   UNL     1      22.648  -1.623  24.090  1.00  0.00     0.076 C 
HETATM    2  C   UNL     1      23.136  -0.521  25.345  1.00  0.00     0.003 C 
HETATM    3  C   UNL     1      22.532  -0.322  26.227  1.00  0.00    -0.002 C 
HETATM    4  C   UNL     1      21.248  -0.706  26.592  1.00  0.00    -0.001 C 
HETATM    5  C   UNL     1      20.615  -1.529  25.540  1.00  0.00    -0.002 C 
HETATM    6  C   UNL     1      21.017  -1.867  24.631  1.00  0.00     0.003 C 
ENDROOT
BRANCH   1   7
HETATM    7  C   UNL     1      22.876  -1.519  22.856  1.00  0.00     0.021 C 
BRANCH   7   8
HETATM    8  C   UNL     1      23.380  -1.888  21.830  1.00  0.00     0.098 C 
HETATM    9  N   UNL     1      23.417  -2.288  20.684  1.00  0.00    -0.296 N 
ATOM     10  HN  UNL     1      22.765  -1.848  20.034  1.00  0.00     0.177 HD
BRANCH   9  11
HETATM   11  S   UNL     1      24.378  -3.438  20.059  1.00  0.00     0.226 S 
HETATM   12  C   UNL     1      25.840  -3.330  20.899  1.00  0.00     0.186 C 
HETATM   13  O   UNL     1      23.830  -4.749  20.298  1.00  0.00    -0.206 OA
HETATM   14  O   UNL     1      24.622  -3.240  18.656  1.00  0.00    -0.206 OA
ENDBRANCH   9  11
ENDBRANCH   7   8
ENDBRANCH   1   7
BRANCH   1  15
HETATM   15  C   UNL     1      23.192  -2.701  24.247  1.00  0.00    -0.061 C 
BRANCH  15  16
HETATM   16  C   UNL     1      23.804  -3.854  24.459  1.00  0.00     0.290 C 
HETATM   17  O   UNL     1      23.636  -4.668  23.685  1.00  0.00    -0.259 OA
HETATM   18  N   UNL     1      24.531  -3.866  25.571  1.00  0.00    -0.315 N 
ATOM     19  HN  UNL     1      24.574  -3.035  26.161  1.00  0.00     0.170 HD
BRANCH  18  20
HETATM   20  C   UNL     1      25.176  -4.919  25.901  1.00  0.00     0.057 A 
HETATM   21  C   UNL     1      24.902  -6.014  26.569  1.00  0.00     0.117 A 
HETATM   22  N   UNL     1      25.227  -7.116  27.019  1.00  0.00    -0.373 N 
HETATM   23  C   UNL     1      26.526  -7.087  26.598  1.00  0.00     0.088 A 
ATOM     24  HN  UNL     1      24.699  -7.819  27.535  1.00  0.00     0.164 HD
HETATM   25  C   UNL     1      27.104  -6.271  25.964  1.00  0.00     0.026 A 
HETATM   26  C   UNL     1      26.645  -5.096  25.471  1.00  0.00    -0.033 A 
HETATM   27  C   UNL     1      27.436  -4.054  24.642  1.00  0.00     0.050 C 
ENDBRANCH  18  20
ENDBRANCH  15  16
ENDBRANCH   1  15
TORSDOF 6
ENDMDL
