stable:False satoms:8 tatoms:24 sratio:0.3333333333333333
  -OEChem-08062418093D

 47 47  0     1  0  0  0  0  0999 V2000
   -6.0815   -5.4315  -25.9530 C   0  0  0  0  0  0  0  0  0  0  0  0
   -7.7554   -4.8614  -25.8048 S   0  0  0  0  0  0  0  0  0  0  0  0
   -8.5976   -6.0199  -25.7268 O   0  0  0  0  0  0  0  0  0  0  0  0
   -7.9979   -4.0439  -26.9632 O   0  0  0  0  0  0  0  0  0  0  0  0
   -7.8122   -4.0004  -24.4340 N   0  0  0  0  0  0  0  0  0  0  0  0
   -8.7206   -3.3106  -24.0754 C   0  0  0  0  0  0  0  0  0  0  0  0
   -9.2285   -2.3173  -23.5953 C   0  0  0  0  0  0  0  0  0  0  0  0
  -10.1333   -1.3912  -23.5550 C   0  0  2  0  0  0  0  0  0  0  0  0
  -10.7236   -0.4438  -24.6866 C   0  0  0  0  0  0  0  0  0  0  0  0
  -11.8575   -0.1158  -24.8162 C   0  0  0  0  0  0  0  0  0  0  0  0
  -12.9205   -0.5143  -24.1507 C   0  0  0  0  0  0  0  0  0  0  0  0
  -12.6112   -1.6046  -23.1802 C   0  0  0  0  0  0  0  0  0  0  0  0
  -11.7841   -2.0222  -22.8896 C   0  0  0  0  0  0  0  0  0  0  0  0
   -9.6878   -0.8277  -22.6114 C   0  0  0  0  0  0  0  0  0  0  0  0
   -9.1333   -0.1131  -21.6010 C   0  0  0  0  0  0  0  0  0  0  0  0
   -9.6625    0.8693  -21.3439 O   0  0  0  0  0  0  0  0  0  0  0  0
   -8.0555   -0.6675  -21.1172 N   0  0  0  0  0  0  0  0  0  0  0  0
   -7.4479   -0.1365  -20.1552 C   0  0  0  0  0  0  0  0  0  0  0  0
   -7.6163    0.0506  -18.8756 C   0  0  0  0  0  0  0  0  0  0  0  0
   -7.2233    0.5305  -17.8122 N   0  0  0  0  0  0  0  0  0  0  0  0
   -6.0842    1.0447  -18.1518 C   0  0  0  0  0  0  0  0  0  0  0  0
   -5.5674    1.0524  -19.3064 C   0  0  0  0  0  0  0  0  0  0  0  0
   -5.9856    0.5587  -20.4445 C   0  0  0  0  0  0  0  0  0  0  0  0
   -5.4041    0.5618  -21.7836 C   0  0  0  0  0  0  0  0  0  0  0  0
   -5.9766   -6.0275  -26.8716 H   0  0  0  0  0  0  0  0  0  0  0  0
   -5.4025   -4.5673  -25.9973 H   0  0  0  0  0  0  0  0  0  0  0  0
   -5.8275   -6.0531  -25.0818 H   0  0  0  0  0  0  0  0  0  0  0  0
   -7.0201   -3.3914  -24.4738 H   0  0  0  0  0  0  0  0  0  0  0  0
   -9.5811   -3.9175  -24.3157 H   0  0  0  0  0  0  0  0  0  0  0  0
   -8.5857   -2.0812  -22.7602 H   0  0  0  0  0  0  0  0  0  0  0  0
  -11.0380   -1.9056  -23.1986 H   0  0  0  0  0  0  0  0  0  0  0  0
  -10.0217   -0.0589  -25.4116 H   0  0  0  0  0  0  0  0  0  0  0  0
  -12.0427    0.6136  -25.5908 H   0  0  0  0  0  0  0  0  0  0  0  0
  -13.6685   -0.8825  -24.8683 H   0  0  0  0  0  0  0  0  0  0  0  0
  -13.3330    0.3430  -23.5985 H   0  0  0  0  0  0  0  0  0  0  0  0
  -13.4887   -2.0139  -22.7019 H   0  0  0  0  0  0  0  0  0  0  0  0
  -11.8078   -2.8144  -22.1559 H   0  0  0  0  0  0  0  0  0  0  0  0
  -10.8404   -1.6945  -23.3001 H   0  0  0  0  0  0  0  0  0  0  0  0
   -9.2167   -1.7533  -22.2492 H   0  0  0  0  0  0  0  0  0  0  0  0
  -10.6889   -0.7275  -22.1668 H   0  0  0  0  0  0  0  0  0  0  0  0
   -7.7122   -1.5187  -21.5142 H   0  0  0  0  0  0  0  0  0  0  0  0
   -8.5390   -0.4561  -18.6341 H   0  0  0  0  0  0  0  0  0  0  0  0
   -5.5148    1.5175  -17.3653 H   0  0  0  0  0  0  0  0  0  0  0  0
   -4.6131    1.5548  -19.3633 H   0  0  0  0  0  0  0  0  0  0  0  0
   -4.7822   -0.3359  -21.9160 H   0  0  0  0  0  0  0  0  0  0  0  0
   -6.2094    0.5636  -22.5329 H   0  0  0  0  0  0  0  0  0  0  0  0
   -4.7825    1.4604  -21.9112 H   0  0  0  0  0  0  0  0  0  0  0  0
 20 21  2  0  0  0  0
 19 20  1  0  0  0  0
 21 22  1  0  0  0  0
 18 19  2  0  0  0  0
 22 23  2  0  0  0  0
 18 23  1  0  0  0  0
 17 18  1  0  0  0  0
 23 24  1  0  0  0  0
 15 16  2  0  0  0  0
 15 17  1  0  0  0  0
 14 15  1  0  0  0  0
  8 14  1  0  0  0  0
 12 13  2  0  0  0  0
 11 12  1  0  0  0  0
  7  8  1  0  0  0  0
  8  9  1  0  0  0  0
 10 11  1  0  0  0  0
  6  7  2  3  0  0  0
  5  6  1  0  0  0  0
  9 10  2  0  0  0  0
  2  5  1  0  0  0  0
  2  3  2  0  0  0  0
  1  2  1  0  0  0  0
  2  4  2  0  0  0  0
  1 25  1  0  0  0  0
  1 26  1  0  0  0  0
  1 27  1  0  0  0  0
  5 28  1  0  0  0  0
  6 29  1  0  0  0  0
  7 30  1  0  0  0  0
  8 31  1  0  0  0  0
  9 32  1  0  0  0  0
 10 33  1  0  0  0  0
 11 34  1  0  0  0  0
 11 35  1  0  0  0  0
 12 36  1  0  0  0  0
 13 37  1  0  0  0  0
 13 38  1  0  0  0  0
 14 39  1  0  0  0  0
 14 40  1  0  0  0  0
 17 41  1  0  0  0  0
 19 42  1  0  0  0  0
 21 43  1  0  0  0  0
 22 44  1  0  0  0  0
 24 45  1  0  0  0  0
 24 46  1  0  0  0  0
 24 47  1  0  0  0  0
M  END
> <Chemgauss4>
-12.801666

$$$$
