stable:False satoms:8 tatoms:24 sratio:0.3333333333333333
  -OEChem-08062418093D

 47 47  0     1  0  0  0  0  0999 V2000
    6.1580   -5.2185   25.8963 C   0  0  0  0  0  0  0  0  0  0  0  0
    7.8369   -4.6604   25.7592 S   0  0  0  0  0  0  0  0  0  0  0  0
    8.6731   -5.8249   25.7104 O   0  0  0  0  0  0  0  0  0  0  0  0
    8.0703   -3.8254   26.9068 O   0  0  0  0  0  0  0  0  0  0  0  0
    7.9154   -3.8226   24.3752 N   0  0  0  0  0  0  0  0  0  0  0  0
    8.8322   -3.1440   24.0164 C   0  0  0  0  0  0  0  0  0  0  0  0
    9.3517   -2.1616   23.5263 C   0  0  0  0  0  0  0  0  0  0  0  0
   10.2624   -1.2416   23.4818 C   0  0  2  0  0  0  0  0  0  0  0  0
   10.8446   -0.2790   24.6047 C   0  0  0  0  0  0  0  0  0  0  0  0
   11.9787    0.0446   24.7427 C   0  0  0  0  0  0  0  0  0  0  0  0
   13.0474   -0.3710   24.0968 C   0  0  0  0  0  0  0  0  0  0  0  0
   12.7433   -1.4753   23.1406 C   0  0  0  0  0  0  0  0  0  0  0  0
   11.9173   -1.8929   22.8469 C   0  0  0  0  0  0  0  0  0  0  0  0
    9.8316   -0.6911   22.5237 C   0  0  0  0  0  0  0  0  0  0  0  0
    9.2937    0.0099   21.4950 C   0  0  0  0  0  0  0  0  0  0  0  0
    9.8317    0.9849   21.2282 O   0  0  0  0  0  0  0  0  0  0  0  0
    8.2185   -0.5463   21.0073 N   0  0  0  0  0  0  0  0  0  0  0  0
    7.6257   -0.0277   20.0294 C   0  0  0  0  0  0  0  0  0  0  0  0
    7.8107    0.1373   18.7491 C   0  0  0  0  0  0  0  0  0  0  0  0
    7.4333    0.6018   17.6732 N   0  0  0  0  0  0  0  0  0  0  0  0
    6.2933    1.1281   17.9905 C   0  0  0  0  0  0  0  0  0  0  0  0
    5.7627    1.1578   19.1384 C   0  0  0  0  0  0  0  0  0  0  0  0
    6.1642    0.6805   20.2894 C   0  0  0  0  0  0  0  0  0  0  0  0
    5.5665    0.7091   21.6211 C   0  0  0  0  0  0  0  0  0  0  0  0
    6.0385   -5.7987   26.8232 H   0  0  0  0  0  0  0  0  0  0  0  0
    5.4836   -4.3498   25.9182 H   0  0  0  0  0  0  0  0  0  0  0  0
    5.9109   -5.8529   25.0324 H   0  0  0  0  0  0  0  0  0  0  0  0
    7.1265   -3.2084   24.3953 H   0  0  0  0  0  0  0  0  0  0  0  0
    9.6860   -3.7518   24.2770 H   0  0  0  0  0  0  0  0  0  0  0  0
    8.7204   -1.9357   22.6796 H   0  0  0  0  0  0  0  0  0  0  0  0
   11.1682   -1.7669   23.1449 H   0  0  0  0  0  0  0  0  0  0  0  0
   10.1363    0.1218   25.3147 H   0  0  0  0  0  0  0  0  0  0  0  0
   12.1589    0.7856   25.5075 H   0  0  0  0  0  0  0  0  0  0  0  0
   13.7844   -0.7316   24.8294 H   0  0  0  0  0  0  0  0  0  0  0  0
   13.4716    0.4748   23.5358 H   0  0  0  0  0  0  0  0  0  0  0  0
   13.6241   -1.8975   22.6799 H   0  0  0  0  0  0  0  0  0  0  0  0
   11.9452   -2.6972   22.1267 H   0  0  0  0  0  0  0  0  0  0  0  0
   10.9707   -1.5531   23.2405 H   0  0  0  0  0  0  0  0  0  0  0  0
    9.3595   -1.6199   22.1710 H   0  0  0  0  0  0  0  0  0  0  0  0
   10.8386   -0.6040   22.0897 H   0  0  0  0  0  0  0  0  0  0  0  0
    7.8654   -1.3888   21.4140 H   0  0  0  0  0  0  0  0  0  0  0  0
    8.7331   -0.3786   18.5271 H   0  0  0  0  0  0  0  0  0  0  0  0
    5.7362    1.5911   17.1894 H   0  0  0  0  0  0  0  0  0  0  0  0
    4.8107    1.6665   19.1754 H   0  0  0  0  0  0  0  0  0  0  0  0
    4.9378   -0.1827   21.7607 H   0  0  0  0  0  0  0  0  0  0  0  0
    6.3627    0.7186   22.3801 H   0  0  0  0  0  0  0  0  0  0  0  0
    4.9488    1.6131   21.7264 H   0  0  0  0  0  0  0  0  0  0  0  0
 20 21  2  0  0  0  0
 19 20  1  0  0  0  0
 21 22  1  0  0  0  0
 18 19  2  0  0  0  0
 22 23  2  0  0  0  0
 18 23  1  0  0  0  0
 17 18  1  0  0  0  0
 23 24  1  0  0  0  0
 15 16  2  0  0  0  0
 15 17  1  0  0  0  0
 14 15  1  0  0  0  0
  8 14  1  0  0  0  0
 12 13  2  0  0  0  0
 11 12  1  0  0  0  0
  7  8  1  0  0  0  0
  8  9  1  0  0  0  0
 10 11  1  0  0  0  0
  6  7  2  3  0  0  0
  5  6  1  0  0  0  0
  9 10  2  0  0  0  0
  2  5  1  0  0  0  0
  2  3  2  0  0  0  0
  1  2  1  0  0  0  0
  2  4  2  0  0  0  0
  1 25  1  0  0  0  0
  1 26  1  0  0  0  0
  1 27  1  0  0  0  0
  5 28  1  0  0  0  0
  6 29  1  0  0  0  0
  7 30  1  0  0  0  0
  8 31  1  0  0  0  0
  9 32  1  0  0  0  0
 10 33  1  0  0  0  0
 11 34  1  0  0  0  0
 11 35  1  0  0  0  0
 12 36  1  0  0  0  0
 13 37  1  0  0  0  0
 13 38  1  0  0  0  0
 14 39  1  0  0  0  0
 14 40  1  0  0  0  0
 17 41  1  0  0  0  0
 19 42  1  0  0  0  0
 21 43  1  0  0  0  0
 22 44  1  0  0  0  0
 24 45  1  0  0  0  0
 24 46  1  0  0  0  0
 24 47  1  0  0  0  0
M  END
> <Chemgauss4>
-12.780867

$$$$
