stable:False satoms:18 tatoms:24 sratio:0.75
  -OEChem-08052418073D

 26 27  0     1  0  0  0  0  0999 V2000
   13.1635   -2.7486   22.5887 H   0  0  0  0  0  0  0  0  0  0  0  0
   13.3515   -1.0530   23.8813 C   0  0  0  0  0  0  0  0  0  0  0  0
   10.0371   -3.2117   21.9879 H   0  0  0  0  0  0  0  0  0  0  0  0
    7.5656    0.3145   24.2337 H   0  0  0  0  0  0  0  0  0  0  0  0
    7.6725    0.4625   21.7235 H   0  0  0  0  0  0  0  0  0  0  0  0
    6.0646   -0.6405   24.0329 H   0  0  0  0  0  0  0  0  0  0  0  0
    7.3571   -2.4782   22.9712 H   0  0  0  0  0  0  0  0  0  0  0  0
    9.8493   -0.4897   23.4132 C   0  0  0  0  0  0  0  0  0  0  0  0
    7.0076   -0.3516   23.5996 C   0  0  0  0  0  0  0  0  0  0  0  0
   12.8910    0.1315   24.5112 C   0  0  0  0  0  0  0  0  0  0  0  0
   13.6606    0.6408   25.1099 H   0  0  0  0  0  0  0  0  0  0  0  0
   11.6010    1.6109   25.2005 H   0  0  0  0  0  0  0  0  0  0  0  0
    9.2330   -1.4782   22.9265 N   0  0  3  0  0  0  0  0  0  0  0  0
   10.3599    0.5307   23.9309 C   0  0  0  0  0  0  0  0  0  0  0  0
   12.6116   -1.9641   23.0785 C   0  0  0  0  0  0  0  0  0  0  0  0
   11.3722   -1.9964   22.8738 N   0  0  0  0  0  0  0  0  0  0  0  0
   10.2459   -2.3914   22.5150 N   0  0  0  0  0  0  0  0  0  0  0  0
    7.1124   -0.3467   22.1467 C   0  0  2  0  0  0  0  0  0  0  0  0
   14.3941   -1.3124   24.0534 H   0  0  0  0  0  0  0  0  0  0  0  0
   11.6385    0.7545   24.5307 C   0  0  0  0  0  0  0  0  0  0  0  0
    9.6652    1.3519   23.9569 H   0  0  0  0  0  0  0  0  0  0  0  0
    6.1388   -0.8741   21.2911 O   0  0  0  0  0  0  0  0  0  0  0  0
    7.8760   -1.5490   22.9297 C   0  0  2  0  0  0  0  0  0  0  0  0
    6.6696   -1.0770   20.5106 H   0  0  0  0  0  0  0  0  0  0  0  0
   10.8080   -0.8628   23.0844 H   0  0  0  0  0  0  0  0  0  0  0  0
   11.1148   -1.8285   23.8254 H   0  0  0  0  0  0  0  0  0  0  0  0
 10 11  1  0  0  0  0
  2 19  1  0  0  0  0
  2 10  1  0  0  0  0
 10 20  2  0  0  0  0
  2 15  2  0  0  0  0
 12 20  1  0  0  0  0
 14 20  1  0  0  0  0
  1 15  1  0  0  0  0
 15 16  1  0  0  0  0
 14 21  1  0  0  0  0
  8 14  2  3  0  0  0
 16 17  1  0  0  0  0
  8 13  1  0  0  0  0
 13 17  1  0  0  0  0
  3 17  1  0  0  0  0
  5 18  1  0  0  0  0
 13 23  1  0  0  0  0
  4  9  1  0  0  0  0
 18 23  1  0  0  0  0
  9 18  1  0  0  0  0
 18 22  1  0  0  0  0
  9 23  1  0  0  0  0
  7 23  1  0  0  0  0
 22 24  1  0  0  0  0
  6  9  1  0  0  0  0
  8 25  1  0  0  0  0
 16 26  1  0  0  0  0
M  END
> <Chemgauss4>
-6.293756

$$$$
