stable:False satoms:18 tatoms:24 sratio:0.75
  -OEChem-08052418073D

 26 27  0     1  0  0  0  0  0999 V2000
  -10.8277    0.4774  -25.3869 H   0  0  0  0  0  0  0  0  0  0  0  0
  -10.2606    0.0182  -23.3747 C   0  0  0  0  0  0  0  0  0  0  0  0
   -9.3673   -1.6165  -27.3446 H   0  0  0  0  0  0  0  0  0  0  0  0
   -6.8501   -4.7139  -24.5776 H   0  0  0  0  0  0  0  0  0  0  0  0
   -8.9101   -5.6417  -25.6866 H   0  0  0  0  0  0  0  0  0  0  0  0
   -5.9353   -5.2304  -26.0274 H   0  0  0  0  0  0  0  0  0  0  0  0
   -7.1646   -3.5736  -27.4127 H   0  0  0  0  0  0  0  0  0  0  0  0
   -8.6781   -2.9281  -24.6463 C   0  0  0  0  0  0  0  0  0  0  0  0
   -6.8871   -4.9145  -25.6339 C   0  0  0  0  0  0  0  0  0  0  0  0
   -9.7302   -0.8113  -22.3537 C   0  0  0  0  0  0  0  0  0  0  0  0
   -9.8145   -0.3792  -21.3456 H   0  0  0  0  0  0  0  0  0  0  0  0
   -8.7235   -2.3778  -21.4260 H   0  0  0  0  0  0  0  0  0  0  0  0
   -8.5014   -2.9146  -25.8963 N   0  0  3  0  0  0  0  0  0  0  0  0
   -8.7746   -3.0234  -23.4007 C   0  0  0  0  0  0  0  0  0  0  0  0
  -10.2742   -0.2167  -24.7770 C   0  0  0  0  0  0  0  0  0  0  0  0
   -9.6990   -1.1290  -25.4219 N   0  0  0  0  0  0  0  0  0  0  0  0
   -9.2392   -1.7926  -26.3715 N   0  0  0  0  0  0  0  0  0  0  0  0
   -8.0887   -5.3715  -26.3188 C   0  0  2  0  0  0  0  0  0  0  0  0
  -10.6879    0.9643  -23.0490 H   0  0  0  0  0  0  0  0  0  0  0  0
   -9.1012   -2.0603  -22.3955 C   0  0  0  0  0  0  0  0  0  0  0  0
   -8.5080   -4.0073  -23.0566 H   0  0  0  0  0  0  0  0  0  0  0  0
   -8.0821   -6.0267  -27.5553 O   0  0  0  0  0  0  0  0  0  0  0  0
   -7.6863   -3.8090  -26.5145 C   0  0  2  0  0  0  0  0  0  0  0  0
   -8.9661   -5.8153  -27.8806 H   0  0  0  0  0  0  0  0  0  0  0  0
   -9.4262   -2.1506  -24.6941 H   0  0  0  0  0  0  0  0  0  0  0  0
   -8.8347   -1.0671  -24.9227 H   0  0  0  0  0  0  0  0  0  0  0  0
 10 11  1  0  0  0  0
  2 19  1  0  0  0  0
  2 10  1  0  0  0  0
 10 20  2  0  0  0  0
  2 15  2  0  0  0  0
 12 20  1  0  0  0  0
 14 20  1  0  0  0  0
  1 15  1  0  0  0  0
 15 16  1  0  0  0  0
 14 21  1  0  0  0  0
  8 14  2  3  0  0  0
 16 17  1  0  0  0  0
  8 13  1  0  0  0  0
 13 17  1  0  0  0  0
  3 17  1  0  0  0  0
  5 18  1  0  0  0  0
 13 23  1  0  0  0  0
  4  9  1  0  0  0  0
 18 23  1  0  0  0  0
  9 18  1  0  0  0  0
 18 22  1  0  0  0  0
  9 23  1  0  0  0  0
  7 23  1  0  0  0  0
 22 24  1  0  0  0  0
  6  9  1  0  0  0  0
  8 25  1  0  0  0  0
 16 26  1  0  0  0  0
M  END
> <Chemgauss4>
-6.124504

$$$$
