stable:False satoms:8 tatoms:24 sratio:0.3333333333333333
  -OEChem-07092417413D

 24 26  0     1  0  0  0  0  0999 V2000
    6.5168   -4.9977   26.3795 Cl  0  0  0  0  0  0  0  0  0  0  0  0
    8.3001   -4.3192   26.1048 S   0  0  0  0  0  0  0  0  0  0  0  0
    9.1695   -5.4538   25.9915 O   0  0  0  0  0  0  0  0  0  0  0  0
    8.5951   -3.4581   27.1916 O   0  0  0  0  0  0  0  0  0  0  0  0
    8.2149   -3.5393   24.7023 N   0  0  0  0  0  0  0  0  0  0  0  0
    8.9520   -2.8157   24.1895 C   0  0  0  0  0  0  0  0  0  0  0  0
    9.5111   -1.9394   23.5650 C   0  0  0  0  0  0  0  0  0  0  0  0
   10.5654   -1.0996   23.2207 C   0  0  1  0  0  0  0  0  0  0  0  0
   11.1397   -0.0549   24.2026 C   0  0  0  0  0  0  0  0  0  0  0  0
   12.1523    0.2600   24.1502 C   0  0  0  0  0  0  0  0  0  0  0  0
   13.0784   -0.1909   23.5260 C   0  0  0  0  0  0  0  0  0  0  0  0
   12.9903   -1.1682   22.7790 N   0  0  0  0  0  0  0  0  0  0  0  0
   11.9198   -1.4548   22.7891 C   0  0  0  0  0  0  0  0  0  0  0  0
    9.6559   -0.7995   22.4755 C   0  0  3  0  0  0  0  0  0  0  0  0
    8.9951   -0.0260   21.4332 C   0  0  0  0  0  0  0  0  0  0  0  0
    9.5582    0.8622   20.9281 O   0  0  0  0  0  0  0  0  0  0  0  0
    7.7736   -0.4969   21.2201 N   0  0  0  0  0  0  0  0  0  0  0  0
    7.0409   -0.0178   20.2677 C   0  0  0  0  0  0  0  0  0  0  0  0
    7.3679   -0.0927   18.9275 N   0  0  0  0  0  0  0  0  0  0  0  0
    6.6990    0.3560   18.1288 N   0  0  0  0  0  0  0  0  0  0  0  0
    4.8563    1.1155   18.3498 H   0  0  0  0  0  0  0  0  0  0  0  0
    5.4902    0.8066   19.0536 C   0  0  0  0  0  0  0  0  0  0  0  0
    5.7846    0.5498   20.3771 C   0  0  0  0  0  0  0  0  0  0  0  0
    5.2570    0.6842   21.3437 H   0  0  0  0  0  0  0  0  0  0  0  0
 19 20  1  0  0  0  0
 20 22  2  0  0  0  0
 21 22  1  0  0  0  0
 18 19  1  0  0  0  0
 22 23  1  0  0  0  0
 18 23  2  0  0  0  0
 17 18  1  0  0  0  0
 23 24  1  0  0  0  0
 15 16  2  0  0  0  0
 15 17  1  0  0  0  0
 14 15  1  0  0  0  0
  8 14  1  0  0  0  0
  7 14  1  0  0  0  0
 12 13  1  0  0  0  0
 11 12  2  0  0  0  0
  8 13  1  0  0  0  0
  7  8  1  0  0  0  0
  8  9  1  0  0  0  0
 10 11  1  0  0  0  0
  6  7  2  0  0  0  0
  9 10  2  0  0  0  0
  5  6  1  0  0  0  0
  2  5  1  0  0  0  0
  2  3  2  0  0  0  0
  1  2  1  0  0  0  0
  2  4  2  0  0  0  0
M  END
> <Shapegauss>
-269.395569

$$$$
