stable:False satoms:8 tatoms:24 sratio:0.3333333333333333
  -OEChem-08062409073D

 34 36  0     1  0  0  0  0  0999 V2000
    6.3976   -5.5444   26.1872 Cl  0  0  0  0  0  0  0  0  0  0  0  0
    8.1827   -4.8262   26.0710 S   0  0  0  0  0  0  0  0  0  0  0  0
    9.0793   -5.9406   25.9705 O   0  0  0  0  0  0  0  0  0  0  0  0
    8.3836   -4.0105   27.2130 O   0  0  0  0  0  0  0  0  0  0  0  0
    8.1822   -3.9851   24.7017 N   0  0  0  0  0  0  0  0  0  0  0  0
    8.9400   -3.2275   24.2753 C   0  0  0  0  0  0  0  0  0  0  0  0
    9.5252   -2.3152   23.7315 C   0  0  0  0  0  0  0  0  0  0  0  0
   10.5851   -1.4441   23.5009 C   0  0  1  0  0  0  0  0  0  0  0  0
   11.0685   -0.4360   24.5664 C   0  0  0  0  0  0  0  0  0  0  0  0
   12.0761   -0.1031   24.6005 C   0  0  0  0  0  0  0  0  0  0  0  0
   13.0525   -0.5107   24.0250 C   0  0  0  0  0  0  0  0  0  0  0  0
   13.0361   -1.4545   23.2313 N   0  0  0  0  0  0  0  0  0  0  0  0
   11.9732   -1.7581   23.1521 C   0  0  0  0  0  0  0  0  0  0  0  0
    9.7251   -1.1250   22.7064 C   0  0  3  0  0  0  0  0  0  0  0  0
    9.1253   -0.3157   21.6545 C   0  0  0  0  0  0  0  0  0  0  0  0
    9.7058    0.6032   21.2305 O   0  0  0  0  0  0  0  0  0  0  0  0
    7.9311   -0.7957   21.3340 N   0  0  0  0  0  0  0  0  0  0  0  0
    7.2587   -0.2857   20.3535 C   0  0  0  0  0  0  0  0  0  0  0  0
    7.6812   -0.2947   19.0382 N   0  0  0  0  0  0  0  0  0  0  0  0
    7.0621    0.1790   18.2142 N   0  0  0  0  0  0  0  0  0  0  0  0
    5.1943    0.8986   18.3359 H   0  0  0  0  0  0  0  0  0  0  0  0
    5.7825    0.5682   19.0690 C   0  0  0  0  0  0  0  0  0  0  0  0
    5.9873    0.2565   20.3976 C   0  0  0  0  0  0  0  0  0  0  0  0
    5.3901    0.3387   21.3289 H   0  0  0  0  0  0  0  0  0  0  0  0
    7.3254   -3.4708   24.7380 H   0  0  0  0  0  0  0  0  0  0  0  0
    9.8211   -3.7095   24.6724 H   0  0  0  0  0  0  0  0  0  0  0  0
   10.3646   -0.0605   25.2943 H   0  0  0  0  0  0  0  0  0  0  0  0
   12.2542    0.7359   25.2568 H   0  0  0  0  0  0  0  0  0  0  0  0
   13.9965   -0.0216   24.2148 H   0  0  0  0  0  0  0  0  0  0  0  0
   11.8793   -1.8141   22.0576 H   0  0  0  0  0  0  0  0  0  0  0  0
   12.0412   -2.7746   23.5668 H   0  0  0  0  0  0  0  0  0  0  0  0
   10.1338   -1.8204   21.9584 H   0  0  0  0  0  0  0  0  0  0  0  0
    7.5472   -1.5583   21.8546 H   0  0  0  0  0  0  0  0  0  0  0  0
    8.5521   -0.7286   18.8074 H   0  0  0  0  0  0  0  0  0  0  0  0
 19 20  1  0  0  0  0
 20 22  2  0  0  0  0
 21 22  1  0  0  0  0
 18 19  1  0  0  0  0
 22 23  1  0  0  0  0
 18 23  2  0  0  0  0
 17 18  1  0  0  0  0
 23 24  1  0  0  0  0
 15 16  2  0  0  0  0
 15 17  1  0  0  0  0
 14 15  1  0  0  0  0
  8 14  1  0  0  0  0
  7 14  1  0  0  0  0
 12 13  1  0  0  0  0
 11 12  2  0  0  0  0
  8 13  1  0  0  0  0
  7  8  1  0  0  0  0
  8  9  1  0  0  0  0
 10 11  1  0  0  0  0
  6  7  2  0  0  0  0
  9 10  2  0  0  0  0
  5  6  1  0  0  0  0
  2  5  1  0  0  0  0
  2  3  2  0  0  0  0
  1  2  1  0  0  0  0
  2  4  2  0  0  0  0
  5 25  1  0  0  0  0
  6 26  1  0  0  0  0
  9 27  1  0  0  0  0
 10 28  1  0  0  0  0
 11 29  1  0  0  0  0
 13 30  1  0  0  0  0
 13 31  1  0  0  0  0
 14 32  1  0  0  0  0
 17 33  1  0  0  0  0
 19 34  1  0  0  0  0
M  END
> <Chemgauss4>
-11.406532

$$$$
