stable:False satoms:8 tatoms:24 sratio:0.3333333333333333
  -OEChem-08062409073D

 34 36  0     1  0  0  0  0  0999 V2000
   -6.3427   -5.5165  -25.8162 Cl  0  0  0  0  0  0  0  0  0  0  0  0
   -8.1278   -4.7982  -25.6999 S   0  0  0  0  0  0  0  0  0  0  0  0
   -9.0243   -5.9127  -25.5994 O   0  0  0  0  0  0  0  0  0  0  0  0
   -8.3287   -3.9826  -26.8419 O   0  0  0  0  0  0  0  0  0  0  0  0
   -8.1273   -3.9571  -24.3306 N   0  0  0  0  0  0  0  0  0  0  0  0
   -8.8850   -3.1995  -23.9042 C   0  0  0  0  0  0  0  0  0  0  0  0
   -9.4703   -2.2872  -23.3605 C   0  0  0  0  0  0  0  0  0  0  0  0
  -10.5302   -1.4162  -23.1298 C   0  0  1  0  0  0  0  0  0  0  0  0
  -11.0136   -0.4080  -24.1953 C   0  0  0  0  0  0  0  0  0  0  0  0
  -12.0212   -0.0751  -24.2294 C   0  0  0  0  0  0  0  0  0  0  0  0
  -12.9976   -0.4827  -23.6539 C   0  0  0  0  0  0  0  0  0  0  0  0
  -12.9811   -1.4265  -22.8602 N   0  0  0  0  0  0  0  0  0  0  0  0
  -11.9182   -1.7301  -22.7811 C   0  0  0  0  0  0  0  0  0  0  0  0
   -9.6702   -1.0971  -22.3353 C   0  0  3  0  0  0  0  0  0  0  0  0
   -9.0704   -0.2878  -21.2834 C   0  0  0  0  0  0  0  0  0  0  0  0
   -9.6509    0.6311  -20.8594 O   0  0  0  0  0  0  0  0  0  0  0  0
   -7.8762   -0.7677  -20.9629 N   0  0  0  0  0  0  0  0  0  0  0  0
   -7.2038   -0.2577  -19.9825 C   0  0  0  0  0  0  0  0  0  0  0  0
   -7.6262   -0.2668  -18.6671 N   0  0  0  0  0  0  0  0  0  0  0  0
   -7.0072    0.2070  -17.8431 N   0  0  0  0  0  0  0  0  0  0  0  0
   -5.1394    0.9266  -17.9648 H   0  0  0  0  0  0  0  0  0  0  0  0
   -5.7276    0.5962  -18.6979 C   0  0  0  0  0  0  0  0  0  0  0  0
   -5.9324    0.2845  -20.0265 C   0  0  0  0  0  0  0  0  0  0  0  0
   -5.3352    0.3667  -20.9578 H   0  0  0  0  0  0  0  0  0  0  0  0
   -7.2705   -3.4428  -24.3669 H   0  0  0  0  0  0  0  0  0  0  0  0
   -9.7662   -3.6815  -24.3014 H   0  0  0  0  0  0  0  0  0  0  0  0
  -10.3097   -0.0325  -24.9232 H   0  0  0  0  0  0  0  0  0  0  0  0
  -12.1993    0.7639  -24.8857 H   0  0  0  0  0  0  0  0  0  0  0  0
  -13.9416    0.0064  -23.8437 H   0  0  0  0  0  0  0  0  0  0  0  0
  -11.8244   -1.7861  -21.6865 H   0  0  0  0  0  0  0  0  0  0  0  0
  -11.9863   -2.7466  -23.1958 H   0  0  0  0  0  0  0  0  0  0  0  0
  -10.0788   -1.7924  -21.5873 H   0  0  0  0  0  0  0  0  0  0  0  0
   -7.4923   -1.5304  -21.4835 H   0  0  0  0  0  0  0  0  0  0  0  0
   -8.4972   -0.7006  -18.4364 H   0  0  0  0  0  0  0  0  0  0  0  0
 19 20  1  0  0  0  0
 20 22  2  0  0  0  0
 21 22  1  0  0  0  0
 18 19  1  0  0  0  0
 22 23  1  0  0  0  0
 18 23  2  0  0  0  0
 17 18  1  0  0  0  0
 23 24  1  0  0  0  0
 15 16  2  0  0  0  0
 15 17  1  0  0  0  0
 14 15  1  0  0  0  0
  8 14  1  0  0  0  0
  7 14  1  0  0  0  0
 12 13  1  0  0  0  0
 11 12  2  0  0  0  0
  8 13  1  0  0  0  0
  7  8  1  0  0  0  0
  8  9  1  0  0  0  0
 10 11  1  0  0  0  0
  6  7  2  0  0  0  0
  9 10  2  0  0  0  0
  5  6  1  0  0  0  0
  2  5  1  0  0  0  0
  2  3  2  0  0  0  0
  1  2  1  0  0  0  0
  2  4  2  0  0  0  0
  5 25  1  0  0  0  0
  6 26  1  0  0  0  0
  9 27  1  0  0  0  0
 10 28  1  0  0  0  0
 11 29  1  0  0  0  0
 13 30  1  0  0  0  0
 13 31  1  0  0  0  0
 14 32  1  0  0  0  0
 17 33  1  0  0  0  0
 19 34  1  0  0  0  0
M  END
> <Chemgauss4>
-11.306256

$$$$
