REMARK  5 active torsions:
REMARK  status: ('A' for Active; 'I' for Inactive)
REMARK    1  A    between atoms: C_2  and  C_12 
REMARK    2  A    between atoms: O_4  and  C_9 
REMARK    3  A    between atoms: C_5  and  N_14 
REMARK    4  A    between atoms: C_5  and  O_6 
REMARK    5  A    between atoms: C_11  and  N_14 
ROOT
HETATM    1  C   UNL     2      11.405  -2.536  24.793  1.00  0.00     0.000 C 
ENDROOT
TORSDOF 5
