stable:False satoms:19 tatoms:24 sratio:0.7916666666666666
  -OEChem-07092417333D

 24 22  0     1  0  0  0  0  0999 V2000
    6.9054   -2.3947   23.0366 H   0  0  0  0  0  0  0  0  0  0  0  0
    5.0158   -0.1973   21.9458 C   0  0  0  0  0  0  0  0  0  0  0  0
   10.3928   -1.9110   22.0707 C   0  0  0  0  0  0  0  0  0  0  0  0
   11.0589   -2.3608   25.8013 H   0  0  0  0  0  0  0  0  0  0  0  0
   11.4048   -2.5357   24.7926 C   0  0  0  0  0  0  0  0  0  0  0  0
    7.4570   -2.6049   22.2484 O   0  0  0  0  0  0  0  0  0  0  0  0
    9.2344   -0.0434   22.8138 C   0  0  0  0  0  0  0  0  0  0  0  0
   10.1935   -0.9199   23.0621 O   0  0  0  0  0  0  0  0  0  0  0  0
   10.5982   -2.9855   24.2353 H   0  0  0  0  0  0  0  0  0  0  0  0
    9.4516    1.1765   23.1743 N   0  0  0  0  0  0  0  0  0  0  0  0
   10.3521   -1.4304   21.1046 H   0  0  0  0  0  0  0  0  0  0  0  0
   12.2676   -3.1860   24.7792 H   0  0  0  0  0  0  0  0  0  0  0  0
    9.6832   -2.7026   22.2138 H   0  0  0  0  0  0  0  0  0  0  0  0
    7.7334   -1.5034   21.5025 C   0  3  0  0  0  0  0  0  0  0  0  0
    8.7057    1.7875   22.8698 H   0  0  0  0  0  0  0  0  0  0  0  0
   11.6924   -1.6050   24.3165 H   0  0  0  0  0  0  0  0  0  0  0  0
   11.3867   -2.3030   22.1616 H   0  0  0  0  0  0  0  0  0  0  0  0
    5.6825   -1.1385   20.3429 H   0  0  0  0  0  0  0  0  0  0  0  0
    7.0899    0.2417   21.5460 C   0  3  0  0  0  0  0  0  0  0  0  0
    6.0290   -0.5841   21.2109 C   0  5  2  0  0  0  0  0  0  0  0  0
    7.9947   -1.5988   20.4475 H   0  0  0  0  0  0  0  0  0  0  0  0
    4.2352    0.6034   21.9658 O   0  0  0  0  0  0  0  0  0  0  0  0
    6.9769    1.3049   21.4782 H   0  0  0  0  0  0  0  0  0  0  0  0
    8.0422   -0.3990   22.1765 N   0  0  0  0  0  0  0  0  0  0  0  0
 18 20  1  0  0  0  0
 14 21  1  0  0  0  0
  3 11  1  0  0  0  0
 19 20  1  0  0  0  0
  2 20  1  0  0  0  0
 19 23  1  0  0  0  0
 14 24  1  0  0  0  0
  6 14  1  0  0  0  0
 19 24  1  0  0  0  0
  2 22  2  0  0  0  0
  3 17  1  0  0  0  0
  3 13  1  0  0  0  0
  3  8  1  0  0  0  0
  7 24  1  0  0  0  0
  1  6  1  0  0  0  0
  7  8  1  0  0  0  0
  7 10  2  0  0  0  0
 10 15  1  0  0  0  0
  5  9  1  0  0  0  0
  5 16  1  0  0  0  0
  5 12  1  0  0  0  0
  4  5  1  0  0  0  0
M  CHG  3  14   1  19   1  20  -1
M  END
> <Shapegauss>
-80.917435

$$$$
