REMARK  4 active torsions:
REMARK  status: ('A' for Active; 'I' for Inactive)
REMARK    1  A    between atoms: C_2  and  N_4 
REMARK    2  A    between atoms: C_7  and  C_8 
REMARK    3  A    between atoms: C_9  and  C_11 
REMARK    4  A    between atoms: C_9  and  O_13 
ROOT
HETATM    1  C   UNL     1       6.764  -0.010  19.756  1.00  0.00     0.051 C 
HETATM    2  C   UNL     1       8.342  -2.243  22.045  1.00  0.00     0.185 A 
HETATM    3  C   UNL     1       7.885  -1.278  21.445  1.00  0.00     0.135 A 
HETATM    4  C   UNL     1       7.557  -0.074  20.976  1.00  0.00    -0.024 C 
HETATM    5  O   UNL     1       7.663  -2.772  21.206  1.00  0.00    -0.286 OA
ENDROOT
BRANCH   2   6
HETATM    6  N   UNL     1       9.277  -2.619  23.144  1.00  0.00    -0.333 N 
HETATM    7  C   UNL     1      10.432  -2.100  23.205  1.00  0.00     0.173 C 
HETATM    8  C   UNL     1       8.688  -3.641  23.934  1.00  0.00     0.158 C 
BRANCH   7   9
HETATM    9  C   UNL     1      10.847  -1.236  24.312  1.00  0.00     0.181 C 
HETATM   10  O   UNL     1      10.996  -0.053  24.280  1.00  0.00    -0.646 OA
BRANCH   9  11
HETATM   11  O   UNL     1      11.003  -1.983  25.409  1.00  0.00    -0.772 OA
HETATM   12  H   UNL     1      11.570  -1.589  26.068  1.00  0.00     0.167 HD
ENDBRANCH   9  11
ENDBRANCH   7   9
ENDBRANCH   2   6
BRANCH   4  13
HETATM   13  C   UNL     1       7.958   1.046  21.652  1.00  0.00    -0.001 C 
HETATM   14  C   UNL     1       8.635   1.096  22.823  1.00  0.00     0.012 C 
ENDBRANCH   4  13
TORSDOF 4
