MODEL 1
REMARK VINA RESULT:    -4.850      0.000      0.000
REMARK INTER + INTRA:          -6.094
REMARK INTER:                  -5.843
REMARK INTRA:                  -0.251
REMARK UNBOUND:                -0.251
REMARK  4 active torsions:
REMARK  status: ('A' for Active; 'I' for Inactive)
REMARK    1  A    between atoms: C_2  and  N_4 
REMARK    2  A    between atoms: C_7  and  C_8 
REMARK    3  A    between atoms: C_9  and  C_11 
REMARK    4  A    between atoms: C_9  and  O_13 
ROOT
HETATM    1  C   UNL     1       6.549  10.771   3.520  1.00  0.00     0.051 C 
HETATM    2  C   UNL     1       8.883  13.467   3.510  1.00  0.00     0.185 A 
HETATM    3  C   UNL     1       7.894  12.747   3.455  1.00  0.00     0.135 A 
HETATM    4  C   UNL     1       6.692  12.199   3.272  1.00  0.00    -0.024 C 
HETATM    5  O   UNL     1       9.307  12.430   3.946  1.00  0.00    -0.286 OA
ENDROOT
BRANCH   2   6
HETATM    6  N   UNL     1       9.372  14.834   3.170  1.00  0.00    -0.333 N 
HETATM    7  C   UNL     1       9.741  15.627   4.088  1.00  0.00     0.173 C 
HETATM    8  C   UNL     1       9.240  15.047   1.773  1.00  0.00     0.158 C 
BRANCH   7   9
HETATM    9  C   UNL     1      11.121  16.099   4.210  1.00  0.00     0.181 C 
HETATM   10  O   UNL     1      11.481  17.224   4.381  1.00  0.00    -0.646 OA
BRANCH   9  11
HETATM   11  O   UNL     1      11.946  15.050   4.138  1.00  0.00    -0.772 OA
HETATM   12  H   UNL     1      11.699  14.409   3.476  1.00  0.00     0.167 HD
ENDBRANCH   9  11
ENDBRANCH   7   9
ENDBRANCH   2   6
BRANCH   4  13
HETATM   13  C   UNL     1       5.645  12.985   2.876  1.00  0.00    -0.001 C 
HETATM   14  C   UNL     1       4.700  12.685   1.954  1.00  0.00     0.012 C 
ENDBRANCH   4  13
TORSDOF 4
ENDMDL
MODEL 2
REMARK VINA RESULT:    -4.677      2.416      5.010
REMARK INTER + INTRA:          -5.885
REMARK INTER:                  -5.645
REMARK INTRA:                  -0.240
REMARK UNBOUND:                -0.251
REMARK  4 active torsions:
REMARK  status: ('A' for Active; 'I' for Inactive)
REMARK    1  A    between atoms: C_2  and  N_4 
REMARK    2  A    between atoms: C_7  and  C_8 
REMARK    3  A    between atoms: C_9  and  C_11 
REMARK    4  A    between atoms: C_9  and  O_13 
ROOT
HETATM    1  C   UNL     1       8.496  18.319   0.159  1.00  0.00     0.051 C 
HETATM    2  C   UNL     1       9.127  15.354   2.037  1.00  0.00     0.185 A 
HETATM    3  C   UNL     1       8.700  16.408   1.581  1.00  0.00     0.135 A 
HETATM    4  C   UNL     1       8.091  17.568   1.340  1.00  0.00    -0.024 C 
HETATM    5  O   UNL     1       9.716  15.428   0.992  1.00  0.00    -0.286 OA
ENDROOT
BRANCH   2   6
HETATM    6  N   UNL     1       9.059  14.469   3.236  1.00  0.00    -0.333 N 
HETATM    7  C   UNL     1       8.044  13.736   3.431  1.00  0.00     0.173 C 
HETATM    8  C   UNL     1      10.198  14.697   4.053  1.00  0.00     0.158 C 
BRANCH   7   9
HETATM    9  C   UNL     1       8.119  12.274   3.424  1.00  0.00     0.181 C 
HETATM   10  O   UNL     1       8.573  11.576   4.278  1.00  0.00    -0.646 OA
BRANCH   9  11
HETATM   11  O   UNL     1       7.552  11.817   2.304  1.00  0.00    -0.772 OA
HETATM   12  H   UNL     1       8.105  11.220   1.805  1.00  0.00     0.167 HD
ENDBRANCH   9  11
ENDBRANCH   7   9
ENDBRANCH   2   6
BRANCH   4  13
HETATM   13  C   UNL     1       7.110  18.005   2.188  1.00  0.00    -0.001 C 
HETATM   14  C   UNL     1       7.219  18.225   3.520  1.00  0.00     0.012 C 
ENDBRANCH   4  13
TORSDOF 4
ENDMDL
MODEL 3
REMARK VINA RESULT:    -4.667      3.146      5.134
REMARK INTER + INTRA:          -5.873
REMARK INTER:                  -5.673
REMARK INTRA:                  -0.200
REMARK UNBOUND:                -0.251
REMARK  4 active torsions:
REMARK  status: ('A' for Active; 'I' for Inactive)
REMARK    1  A    between atoms: C_2  and  N_4 
REMARK    2  A    between atoms: C_7  and  C_8 
REMARK    3  A    between atoms: C_9  and  C_11 
REMARK    4  A    between atoms: C_9  and  O_13 
ROOT
HETATM    1  C   UNL     1       6.725  20.000   2.014  1.00  0.00     0.051 C 
HETATM    2  C   UNL     1       7.288  16.677   3.180  1.00  0.00     0.185 A 
HETATM    3  C   UNL     1       7.245  17.730   2.554  1.00  0.00     0.135 A 
HETATM    4  C   UNL     1       7.292  18.709   1.651  1.00  0.00    -0.024 C 
HETATM    5  O   UNL     1       6.846  17.435   4.001  1.00  0.00    -0.286 OA
ENDROOT
BRANCH   2   6
HETATM    6  N   UNL     1       7.614  15.229   3.038  1.00  0.00    -0.333 N 
HETATM    7  C   UNL     1       8.706  14.870   2.504  1.00  0.00     0.173 C 
HETATM    8  C   UNL     1       6.511  14.453   3.482  1.00  0.00     0.158 C 
BRANCH   7   9
HETATM    9  C   UNL     1       9.742  14.147   3.245  1.00  0.00     0.181 C 
HETATM   10  O   UNL     1       9.578  13.260   4.025  1.00  0.00    -0.646 OA
BRANCH   9  11
HETATM   11  O   UNL     1      10.940  14.613   2.880  1.00  0.00    -0.772 OA
HETATM   12  H   UNL     1      11.437  14.014   2.327  1.00  0.00     0.167 HD
ENDBRANCH   9  11
ENDBRANCH   7   9
ENDBRANCH   2   6
BRANCH   4  13
HETATM   13  C   UNL     1       7.875  18.478   0.435  1.00  0.00    -0.001 C 
HETATM   14  C   UNL     1       9.140  18.055   0.201  1.00  0.00     0.012 C 
ENDBRANCH   4  13
TORSDOF 4
ENDMDL
MODEL 4
REMARK VINA RESULT:    -4.510     20.990     22.805
REMARK INTER + INTRA:          -5.684
REMARK INTER:                  -5.490
REMARK INTRA:                  -0.194
REMARK UNBOUND:                -0.251
REMARK  4 active torsions:
REMARK  status: ('A' for Active; 'I' for Inactive)
REMARK    1  A    between atoms: C_2  and  N_4 
REMARK    2  A    between atoms: C_7  and  C_8 
REMARK    3  A    between atoms: C_9  and  C_11 
REMARK    4  A    between atoms: C_9  and  O_13 
ROOT
HETATM    1  C   UNL     1      10.275  -1.935  23.178  1.00  0.00     0.051 C 
HETATM    2  C   UNL     1       7.703  -0.521  21.152  1.00  0.00     0.185 A 
HETATM    3  C   UNL     1       8.736  -0.782  21.756  1.00  0.00     0.135 A 
HETATM    4  C   UNL     1       9.933  -0.791  22.344  1.00  0.00    -0.024 C 
HETATM    5  O   UNL     1       7.486  -1.636  21.544  1.00  0.00    -0.286 OA
ENDROOT
BRANCH   2   6
HETATM    6  N   UNL     1       7.013   0.569  20.405  1.00  0.00    -0.333 N 
HETATM    7  C   UNL     1       6.878   0.494  19.146  1.00  0.00     0.173 C 
HETATM    8  C   UNL     1       6.685   1.619  21.301  1.00  0.00     0.158 C 
BRANCH   7   9
HETATM    9  C   UNL     1       5.568   0.395  18.501  1.00  0.00     0.181 C 
HETATM   10  O   UNL     1       4.613   1.078  18.711  1.00  0.00    -0.646 OA
BRANCH   9  11
HETATM   11  O   UNL     1       5.608  -0.577  17.586  1.00  0.00    -0.772 OA
HETATM   12  H   UNL     1       6.274  -0.449  16.914  1.00  0.00     0.167 HD
ENDBRANCH   9  11
ENDBRANCH   7   9
ENDBRANCH   2   6
BRANCH   4  13
HETATM   13  C   UNL     1      10.794   0.252  22.137  1.00  0.00    -0.001 C 
HETATM   14  C   UNL     1      10.478   1.564  22.032  1.00  0.00     0.012 C 
ENDBRANCH   4  13
TORSDOF 4
ENDMDL
MODEL 5
REMARK VINA RESULT:    -4.498     24.985     26.478
REMARK INTER + INTRA:          -5.670
REMARK INTER:                  -5.479
REMARK INTRA:                  -0.191
REMARK UNBOUND:                -0.251
REMARK  4 active torsions:
REMARK  status: ('A' for Active; 'I' for Inactive)
REMARK    1  A    between atoms: C_2  and  N_4 
REMARK    2  A    between atoms: C_7  and  C_8 
REMARK    3  A    between atoms: C_9  and  C_11 
REMARK    4  A    between atoms: C_9  and  O_13 
ROOT
HETATM    1  C   UNL     1       6.896  -5.282  25.350  1.00  0.00     0.051 C 
HETATM    2  C   UNL     1       9.005  -2.567  24.402  1.00  0.00     0.185 A 
HETATM    3  C   UNL     1       8.218  -3.505  24.450  1.00  0.00     0.135 A 
HETATM    4  C   UNL     1       7.394  -4.525  24.210  1.00  0.00    -0.024 C 
HETATM    5  O   UNL     1       8.848  -2.699  25.587  1.00  0.00    -0.286 OA
ENDROOT
BRANCH   2   6
HETATM    6  N   UNL     1       9.804  -1.740  23.454  1.00  0.00    -0.333 N 
HETATM    7  C   UNL     1      10.712  -0.969  23.887  1.00  0.00     0.173 C 
HETATM    8  C   UNL     1       9.300  -1.914  22.138  1.00  0.00     0.158 C 
BRANCH   7   9
HETATM    9  C   UNL     1      12.127  -1.161  23.563  1.00  0.00     0.181 C 
HETATM   10  O   UNL     1      12.583  -1.935  22.779  1.00  0.00    -0.646 OA
BRANCH   9  11
HETATM   11  O   UNL     1      12.854  -0.288  24.267  1.00  0.00    -0.772 OA
HETATM   12  H   UNL     1      12.443   0.567  24.366  1.00  0.00     0.167 HD
ENDBRANCH   9  11
ENDBRANCH   7   9
ENDBRANCH   2   6
BRANCH   4  13
HETATM   13  C   UNL     1       7.037  -4.816  22.922  1.00  0.00    -0.001 C 
HETATM   14  C   UNL     1       7.289  -5.959  22.241  1.00  0.00     0.012 C 
ENDBRANCH   4  13
TORSDOF 4
ENDMDL
MODEL 6
REMARK VINA RESULT:    -4.480      3.547      6.018
REMARK INTER + INTRA:          -5.647
REMARK INTER:                  -5.371
REMARK INTRA:                  -0.276
REMARK UNBOUND:                -0.251
REMARK  4 active torsions:
REMARK  status: ('A' for Active; 'I' for Inactive)
REMARK    1  A    between atoms: C_2  and  N_4 
REMARK    2  A    between atoms: C_7  and  C_8 
REMARK    3  A    between atoms: C_9  and  C_11 
REMARK    4  A    between atoms: C_9  and  O_13 
ROOT
HETATM    1  C   UNL     1      10.257  21.089   1.162  1.00  0.00     0.051 C 
HETATM    2  C   UNL     1       9.526  17.793   2.311  1.00  0.00     0.185 A 
HETATM    3  C   UNL     1       9.623  18.844   1.690  1.00  0.00     0.135 A 
HETATM    4  C   UNL     1       9.513  19.875   0.852  1.00  0.00    -0.024 C 
HETATM    5  O   UNL     1      10.365  18.376   2.943  1.00  0.00    -0.286 OA
ENDROOT
BRANCH   2   6
HETATM    6  N   UNL     1       8.762  16.513   2.358  1.00  0.00    -0.333 N 
HETATM    7  C   UNL     1       9.375  15.404   2.356  1.00  0.00     0.173 C 
HETATM    8  C   UNL     1       7.371  16.793   2.300  1.00  0.00     0.158 C 
BRANCH   7   9
HETATM    9  C   UNL     1       9.323  14.476   3.488  1.00  0.00     0.181 C 
HETATM   10  O   UNL     1       8.936  14.714   4.592  1.00  0.00    -0.646 OA
BRANCH   9  11
HETATM   11  O   UNL     1       9.750  13.276   3.085  1.00  0.00    -0.772 OA
HETATM   12  H   UNL     1      10.444  13.312   2.430  1.00  0.00     0.167 HD
ENDBRANCH   9  11
ENDBRANCH   7   9
ENDBRANCH   2   6
BRANCH   4  13
HETATM   13  C   UNL     1       8.727  19.759  -0.262  1.00  0.00    -0.001 C 
HETATM   14  C   UNL     1       7.378  19.844  -0.323  1.00  0.00     0.012 C 
ENDBRANCH   4  13
TORSDOF 4
ENDMDL
MODEL 7
REMARK VINA RESULT:    -4.467     22.951     23.811
REMARK INTER + INTRA:          -5.633
REMARK INTER:                  -5.353
REMARK INTRA:                  -0.279
REMARK UNBOUND:                -0.251
REMARK  4 active torsions:
REMARK  status: ('A' for Active; 'I' for Inactive)
REMARK    1  A    between atoms: C_2  and  N_4 
REMARK    2  A    between atoms: C_7  and  C_8 
REMARK    3  A    between atoms: C_9  and  C_11 
REMARK    4  A    between atoms: C_9  and  O_13 
ROOT
HETATM    1  C   UNL     1      22.865  -2.447  16.521  1.00  0.00     0.051 C 
HETATM    2  C   UNL     1      24.545  -0.144  14.378  1.00  0.00     0.185 A 
HETATM    3  C   UNL     1      24.047  -0.752  15.317  1.00  0.00     0.135 A 
HETATM    4  C   UNL     1      23.551  -1.163  16.485  1.00  0.00    -0.024 C 
HETATM    5  O   UNL     1      24.253  -1.193  13.868  1.00  0.00    -0.286 OA
ENDROOT
BRANCH   2   6
HETATM    6  N   UNL     1      25.125   1.175  13.996  1.00  0.00    -0.333 N 
HETATM    7  C   UNL     1      25.500   1.387  12.804  1.00  0.00     0.173 C 
HETATM    8  C   UNL     1      25.245   1.989  15.153  1.00  0.00     0.158 C 
BRANCH   7   9
HETATM    9  C   UNL     1      24.863   2.389  11.947  1.00  0.00     0.181 C 
HETATM   10  O   UNL     1      25.333   3.422  11.582  1.00  0.00    -0.646 OA
BRANCH   9  11
HETATM   11  O   UNL     1      23.653   1.947  11.590  1.00  0.00    -0.772 OA
HETATM   12  H   UNL     1      23.228   2.480  10.922  1.00  0.00     0.167 HD
ENDBRANCH   9  11
ENDBRANCH   7   9
ENDBRANCH   2   6
BRANCH   4  13
HETATM   13  C   UNL     1      23.712  -0.384  17.598  1.00  0.00    -0.001 C 
HETATM   14  C   UNL     1      24.049  -0.795  18.843  1.00  0.00     0.012 C 
ENDBRANCH   4  13
TORSDOF 4
ENDMDL
MODEL 8
REMARK VINA RESULT:    -4.458     31.056     32.020
REMARK INTER + INTRA:          -5.621
REMARK INTER:                  -5.377
REMARK INTRA:                  -0.244
REMARK UNBOUND:                -0.251
REMARK  4 active torsions:
REMARK  status: ('A' for Active; 'I' for Inactive)
REMARK    1  A    between atoms: C_2  and  N_4 
REMARK    2  A    between atoms: C_7  and  C_8 
REMARK    3  A    between atoms: C_9  and  C_11 
REMARK    4  A    between atoms: C_9  and  O_13 
ROOT
HETATM    1  C   UNL     1      21.305   0.018  24.811  1.00  0.00     0.051 C 
HETATM    2  C   UNL     1      22.946  -3.124  25.200  1.00  0.00     0.185 A 
HETATM    3  C   UNL     1      22.453  -2.011  25.340  1.00  0.00     0.135 A 
HETATM    4  C   UNL     1      22.074  -0.798  25.740  1.00  0.00    -0.024 C 
HETATM    5  O   UNL     1      22.312  -3.004  24.185  1.00  0.00    -0.286 OA
ENDROOT
BRANCH   2   6
HETATM    6  N   UNL     1      23.876  -4.096  25.843  1.00  0.00    -0.333 N 
HETATM    7  C   UNL     1      23.467  -5.252  26.167  1.00  0.00     0.173 C 
HETATM    8  C   UNL     1      25.127  -3.467  26.077  1.00  0.00     0.158 C 
BRANCH   7   9
HETATM    9  C   UNL     1      23.993  -6.472  25.552  1.00  0.00     0.181 C 
HETATM   10  O   UNL     1      24.135  -6.682  24.386  1.00  0.00    -0.646 OA
BRANCH   9  11
HETATM   11  O   UNL     1      24.338  -7.329  26.517  1.00  0.00    -0.772 OA
HETATM   12  H   UNL     1      23.637  -7.516  27.138  1.00  0.00     0.167 HD
ENDBRANCH   9  11
ENDBRANCH   7   9
ENDBRANCH   2   6
BRANCH   4  13
HETATM   13  C   UNL     1      22.404  -0.368  26.997  1.00  0.00    -0.001 C 
HETATM   14  C   UNL     1      23.079   0.758  27.325  1.00  0.00     0.012 C 
ENDBRANCH   4  13
TORSDOF 4
ENDMDL
MODEL 9
REMARK VINA RESULT:    -4.373      3.706      6.189
REMARK INTER + INTRA:          -5.519
REMARK INTER:                  -5.224
REMARK INTRA:                  -0.295
REMARK UNBOUND:                -0.251
REMARK  4 active torsions:
REMARK  status: ('A' for Active; 'I' for Inactive)
REMARK    1  A    between atoms: C_2  and  N_4 
REMARK    2  A    between atoms: C_7  and  C_8 
REMARK    3  A    between atoms: C_9  and  C_11 
REMARK    4  A    between atoms: C_9  and  O_13 
ROOT
HETATM    1  C   UNL     1      10.835  21.257   1.477  1.00  0.00     0.051 C 
HETATM    2  C   UNL     1      10.616  18.587   3.830  1.00  0.00     0.185 A 
HETATM    3  C   UNL     1      10.525  19.335   2.864  1.00  0.00     0.135 A 
HETATM    4  C   UNL     1      10.210  19.967   1.734  1.00  0.00    -0.024 C 
HETATM    5  O   UNL     1      11.442  19.422   4.085  1.00  0.00    -0.286 OA
ENDROOT
BRANCH   2   6
HETATM    6  N   UNL     1      10.015  17.368   4.443  1.00  0.00    -0.333 N 
HETATM    7  C   UNL     1       9.943  16.290   3.780  1.00  0.00     0.173 C 
HETATM    8  C   UNL     1       9.512  17.688   5.731  1.00  0.00     0.158 C 
BRANCH   7   9
HETATM    9  C   UNL     1      10.668  15.078   4.168  1.00  0.00     0.181 C 
HETATM   10  O   UNL     1      10.196  14.018   4.442  1.00  0.00    -0.646 OA
BRANCH   9  11
HETATM   11  O   UNL     1      11.980  15.330   4.133  1.00  0.00    -0.772 OA
HETATM   12  H   UNL     1      12.520  14.551   4.021  1.00  0.00     0.167 HD
ENDBRANCH   9  11
ENDBRANCH   7   9
ENDBRANCH   2   6
BRANCH   4  13
HETATM   13  C   UNL     1       9.332  19.388   0.859  1.00  0.00    -0.001 C 
HETATM   14  C   UNL     1       9.333  18.105   0.428  1.00  0.00     0.012 C 
ENDBRANCH   4  13
TORSDOF 4
ENDMDL
