
 OpenBabel07202414173D

 48 51  0  0  1  0  0  0  0  0999 V2000
   -2.1213   -0.1301   -0.0354 Cl  0  0  0  0  0  0  0  0  0  0  0  0
   -0.4029   -0.0283   -0.0343 C   0  0  0  0  0  0  0  0  0  0  0  0
    0.2137    1.2211   -0.0138 C   0  0  0  0  0  0  0  0  0  0  0  0
    1.6091    1.2983   -0.0024 C   0  0  0  0  0  0  0  0  0  0  0  0
    2.3404    2.4567    0.0465 O   0  0  0  0  0  0  0  0  0  0  0  0
    1.6014    3.6782    0.0061 C   0  0  0  0  0  0  0  0  0  0  0  0
    2.5843    4.8492   -0.0078 C   0  0  0  0  0  0  0  0  0  0  0  0
    1.9162    6.1377    0.0233 N   0  0  0  0  0  0  0  0  0  0  0  0
    1.1963    6.5859   -1.0633 C   0  0  0  0  0  0  0  0  0  0  0  0
    1.0876    5.9145   -2.0842 O   0  0  0  0  0  0  0  0  0  0  0  0
    0.5216    7.9190   -0.9165 C   0  0  0  0  0  0  0  0  0  0  0  0
    1.1152    8.8377   -0.1365 C   0  0  0  0  0  0  0  0  0  0  0  0
    0.5828   10.2048    0.0205 C   0  0  0  0  0  0  0  0  0  0  0  0
    1.1222   10.9971    0.7838 O   0  0  0  0  0  0  0  0  0  0  0  0
   -0.5085   10.5276   -0.7229 N   0  0  0  0  0  0  0  0  0  0  0  0
   -1.1585    9.6287   -1.5752 C   0  0  0  0  0  0  0  0  0  0  0  0
   -2.2711   10.0734   -2.2959 C   0  0  0  0  0  0  0  0  0  0  0  0
   -2.9473    9.1937   -3.1365 C   0  0  0  0  0  0  0  0  0  0  0  0
   -2.5189    7.8745   -3.2419 C   0  0  0  0  0  0  0  0  0  0  0  0
   -1.4054    7.4343   -2.5158 C   0  0  0  0  0  0  0  0  0  0  0  0
   -0.6918    8.3071   -1.6828 C   0  0  0  0  0  0  0  0  0  0  0  0
    2.3732    0.1257   -0.0315 C   0  0  0  0  0  0  0  0  0  0  0  0
    1.7473   -1.1210   -0.0683 C   0  0  0  0  0  0  0  0  0  0  0  0
    2.3934   -2.3318   -0.0864 O   0  0  0  0  0  0  0  0  0  0  0  0
    3.7316   -2.4018   -0.6114 C   0  0  3  0  0  0  0  0  0  0  0  0
    3.9270   -2.2028   -2.1297 C   0  0  0  0  0  0  0  0  0  0  0  0
    4.1778   -3.7138   -2.1548 C   0  0  0  0  0  0  0  0  0  0  0  0
    4.2273   -4.5926   -2.9770 O   0  0  0  0  0  0  0  0  0  0  0  0
    4.2282   -3.7748   -0.7983 N   0  0  0  0  0  0  0  0  0  0  0  0
    0.3559   -1.1955   -0.0532 C   0  0  0  0  0  0  0  0  0  0  0  0
   -0.4121    2.1052   -0.0011 H   0  0  0  0  0  0  0  0  0  0  0  0
    0.9628    3.7621    0.8947 H   0  0  0  0  0  0  0  0  0  0  0  0
    0.9755    3.7081   -0.8930 H   0  0  0  0  0  0  0  0  0  0  0  0
    3.2197    4.7984   -0.9000 H   0  0  0  0  0  0  0  0  0  0  0  0
    3.2496    4.7978    0.8613 H   0  0  0  0  0  0  0  0  0  0  0  0
    1.9241    6.6492    0.8944 H   0  0  0  0  0  0  0  0  0  0  0  0
    2.0357    8.6719    0.4084 H   0  0  0  0  0  0  0  0  0  0  0  0
   -0.8501   11.4740   -0.6219 H   0  0  0  0  0  0  0  0  0  0  0  0
   -2.6150   11.1004   -2.2140 H   0  0  0  0  0  0  0  0  0  0  0  0
   -3.8072    9.5350   -3.7077 H   0  0  0  0  0  0  0  0  0  0  0  0
   -3.0446    7.1823   -3.8962 H   0  0  0  0  0  0  0  0  0  0  0  0
   -1.1109    6.3947   -2.6326 H   0  0  0  0  0  0  0  0  0  0  0  0
    3.4544    0.2192   -0.0094 H   0  0  0  0  0  0  0  0  0  0  0  0
    4.4428   -1.8466    0.0120 H   0  0  0  0  0  0  0  0  0  0  0  0
    4.7913   -1.6025   -2.4195 H   0  0  0  0  0  0  0  0  0  0  0  0
    3.0416   -1.9005   -2.6937 H   0  0  0  0  0  0  0  0  0  0  0  0
    3.8632   -4.6140   -0.3715 H   0  0  0  0  0  0  0  0  0  0  0  0
   -0.1319   -2.1657   -0.0597 H   0  0  0  0  0  0  0  0  0  0  0  0
  1  2  1  0  0  0  0
  2  3  1  0  0  0  0
  2 30  2  0  0  0  0
  3  4  2  0  0  0  0
  3 31  1  0  0  0  0
  4  5  1  0  0  0  0
  4 22  1  0  0  0  0
  5  6  1  0  0  0  0
  6  7  1  0  0  0  0
  6 32  1  0  0  0  0
  6 33  1  0  0  0  0
  7  8  1  0  0  0  0
  7 34  1  0  0  0  0
  7 35  1  0  0  0  0
  8  9  1  0  0  0  0
  8 36  1  0  0  0  0
  9 10  2  0  0  0  0
  9 11  1  0  0  0  0
 11 12  2  0  0  0  0
 11 21  1  0  0  0  0
 12 13  1  0  0  0  0
 12 37  1  0  0  0  0
 13 14  2  0  0  0  0
 13 15  1  0  0  0  0
 15 16  1  0  0  0  0
 15 38  1  0  0  0  0
 16 17  1  0  0  0  0
 16 21  2  0  0  0  0
 17 18  2  0  0  0  0
 17 39  1  0  0  0  0
 18 19  1  0  0  0  0
 18 40  1  0  0  0  0
 19 20  2  0  0  0  0
 19 41  1  0  0  0  0
 20 21  1  0  0  0  0
 20 42  1  0  0  0  0
 22 23  2  0  0  0  0
 22 43  1  0  0  0  0
 23 24  1  0  0  0  0
 23 30  1  0  0  0  0
 24 25  1  0  0  0  0
 25 26  1  0  0  0  0
 25 29  1  0  0  0  0
 25 44  1  0  0  0  0
 26 27  1  0  0  0  0
 26 45  1  0  0  0  0
 26 46  1  0  0  0  0
 27 28  2  0  0  0  0
 27 29  1  0  0  0  0
 29 47  1  0  0  0  0
 30 48  1  0  0  0  0
M  END
$$$$
