stable:False satoms:11 tatoms:24 sratio:0.4583333333333333
  -OEChem-07092417443D

 24 25  0     1  0  0  0  0  0999 V2000
    6.5312   -4.9084   26.4906 C   0  0  0  0  0  0  0  0  0  0  0  0
    8.2250   -4.3011   26.0675 S   0  0  0  0  0  0  0  0  0  0  0  0
    9.0588   -5.5099   26.0458 O   0  0  0  0  0  0  0  0  0  0  0  0
    8.5859   -3.3717   27.1155 O   0  0  0  0  0  0  0  0  0  0  0  0
    8.0806   -3.6411   24.6367 N   0  0  0  0  0  0  0  0  0  0  0  0
    8.9864   -2.8979   24.1542 C   0  0  0  0  0  0  0  0  0  0  0  0
    9.4614   -1.9510   23.5191 C   0  0  0  0  0  0  0  0  0  0  0  0
   10.4351   -1.1337   23.2133 C   0  0  1  0  0  0  0  0  0  0  0  0
   11.1173   -0.0535   24.2660 C   0  0  0  0  0  0  0  0  0  0  0  0
   12.1184    0.3299   24.2421 C   0  0  0  0  0  0  0  0  0  0  0  0
   13.2184   -0.2139   23.3698 C   0  0  0  0  0  0  0  0  0  0  0  0
   12.7869   -1.1920   22.6860 C   0  0  0  0  0  0  0  0  0  0  0  0
   11.7290   -1.6894   22.5428 C   0  0  0  0  0  0  0  0  0  0  0  0
    9.7373   -0.5722   22.3634 C   0  0  0  0  0  0  0  0  0  0  0  0
    9.0586    0.0870   21.4032 C   0  0  0  0  0  0  0  0  0  0  0  0
    9.5129    1.0675   21.0394 O   0  0  0  0  0  0  0  0  0  0  0  0
    7.9362   -0.5538   21.0687 N   0  0  0  0  0  0  0  0  0  0  0  0
    7.1878   -0.1119   20.2021 C   0  0  0  0  0  0  0  0  0  0  0  0
    7.1823   -0.0101   18.8822 C   0  0  0  0  0  0  0  0  0  0  0  0
    6.7008    0.2831   17.7973 N   0  0  0  0  0  0  0  0  0  0  0  0
    5.6510    0.8348   18.2461 C   0  0  0  0  0  0  0  0  0  0  0  0
    5.2323    0.9514   19.4245 C   0  0  0  0  0  0  0  0  0  0  0  0
    5.7792    0.5624   20.5669 C   0  0  0  0  0  0  0  0  0  0  0  0
    5.2711    0.7051   21.9535 C   0  0  0  0  0  0  0  0  0  0  0  0
 20 21  2  0  0  0  0
 19 20  1  0  0  0  0
 21 22  1  0  0  0  0
 18 19  2  0  0  0  0
 22 23  2  0  0  0  0
 18 23  1  0  0  0  0
 17 18  1  0  0  0  0
 23 24  1  0  0  0  0
 15 16  2  0  0  0  0
 15 17  1  0  0  0  0
 14 15  1  0  0  0  0
  8 14  1  0  0  0  0
 12 13  1  0  0  0  0
  8 13  1  0  0  0  0
 11 12  2  0  0  0  0
  7  8  1  0  0  0  0
  8  9  1  0  0  0  0
 10 11  1  0  0  0  0
  6  7  2  0  0  0  0
  5  6  1  0  0  0  0
  9 10  2  0  0  0  0
  2  5  1  0  0  0  0
  2  3  2  0  0  0  0
  1  2  1  0  0  0  0
  2  4  2  0  0  0  0
M  END
> <Shapegauss>
-287.024628

$$$$
