stable:False satoms:11 tatoms:24 sratio:0.4583333333333333
  -OEChem-08062415043D

 45 46  0     1  0  0  0  0  0999 V2000
   -6.1581   -5.2819  -26.0370 C   0  0  0  0  0  0  0  0  0  0  0  0
   -7.8621   -4.6220  -25.7581 S   0  0  0  0  0  0  0  0  0  0  0  0
   -8.7231   -5.8117  -25.7392 O   0  0  0  0  0  0  0  0  0  0  0  0
   -8.1303   -3.7351  -26.8689 O   0  0  0  0  0  0  0  0  0  0  0  0
   -7.7991   -3.8995  -24.3518 N   0  0  0  0  0  0  0  0  0  0  0  0
   -8.7180   -3.1169  -23.9660 C   0  0  0  0  0  0  0  0  0  0  0  0
   -9.2127   -2.1324  -23.4079 C   0  0  0  0  0  0  0  0  0  0  0  0
  -10.1857   -1.2826  -23.2062 C   0  0  1  0  0  0  0  0  0  0  0  0
  -10.7706   -0.2389  -24.3503 C   0  0  0  0  0  0  0  0  0  0  0  0
  -11.7619    0.1651  -24.4120 C   0  0  0  0  0  0  0  0  0  0  0  0
  -12.9303   -0.3157  -23.5933 C   0  0  0  0  0  0  0  0  0  0  0  0
  -12.5684   -1.2696  -22.8385 C   0  0  0  0  0  0  0  0  0  0  0  0
  -11.5342   -1.7808  -22.6013 C   0  0  0  0  0  0  0  0  0  0  0  0
   -9.5339   -0.6964  -22.3366 C   0  0  0  0  0  0  0  0  0  0  0  0
   -8.9064   -0.0071  -21.3629 C   0  0  0  0  0  0  0  0  0  0  0  0
   -9.3614    0.9980  -21.0752 O   0  0  0  0  0  0  0  0  0  0  0  0
   -7.8241   -0.6540  -20.9242 N   0  0  0  0  0  0  0  0  0  0  0  0
   -7.1257   -0.1874  -20.0292 C   0  0  0  0  0  0  0  0  0  0  0  0
   -7.2066   -0.0248  -18.7179 C   0  0  0  0  0  0  0  0  0  0  0  0
   -6.7925    0.3086  -17.6169 N   0  0  0  0  0  0  0  0  0  0  0  0
   -5.7025    0.8179  -18.0173 C   0  0  0  0  0  0  0  0  0  0  0  0
   -5.2029    0.8715  -19.1684 C   0  0  0  0  0  0  0  0  0  0  0  0
   -5.6806    0.4411  -20.3269 C   0  0  0  0  0  0  0  0  0  0  0  0
   -5.0772    0.5093  -21.6806 C   0  0  0  0  0  0  0  0  0  0  0  0
   -6.1202   -5.8035  -27.0047 H   0  0  0  0  0  0  0  0  0  0  0  0
   -5.4389   -4.4496  -26.0408 H   0  0  0  0  0  0  0  0  0  0  0  0
   -5.9010   -5.9851  -25.2312 H   0  0  0  0  0  0  0  0  0  0  0  0
   -6.9537   -3.3655  -24.3470 H   0  0  0  0  0  0  0  0  0  0  0  0
   -9.5963   -3.6025  -24.3649 H   0  0  0  0  0  0  0  0  0  0  0  0
   -8.4360   -1.7997  -22.7352 H   0  0  0  0  0  0  0  0  0  0  0  0
  -10.0774    0.0690  -25.1191 H   0  0  0  0  0  0  0  0  0  0  0  0
  -11.9340    0.9720  -25.1089 H   0  0  0  0  0  0  0  0  0  0  0  0
  -13.9295    0.0912  -23.6413 H   0  0  0  0  0  0  0  0  0  0  0  0
  -13.3902   -1.7097  -22.2932 H   0  0  0  0  0  0  0  0  0  0  0  0
  -11.4141   -1.7308  -21.5090 H   0  0  0  0  0  0  0  0  0  0  0  0
  -11.6365   -2.8312  -22.9112 H   0  0  0  0  0  0  0  0  0  0  0  0
   -8.7960   -0.3628  -23.0811 H   0  0  0  0  0  0  0  0  0  0  0  0
   -9.2091   -1.6530  -21.9015 H   0  0  0  0  0  0  0  0  0  0  0  0
   -7.5782   -1.5335  -21.3317 H   0  0  0  0  0  0  0  0  0  0  0  0
   -8.1961   -0.3957  -18.4951 H   0  0  0  0  0  0  0  0  0  0  0  0
   -5.1076    1.2803  -17.2435 H   0  0  0  0  0  0  0  0  0  0  0  0
   -4.2323    1.3421  -19.2224 H   0  0  0  0  0  0  0  0  0  0  0  0
   -4.4852   -0.3993  -21.8650 H   0  0  0  0  0  0  0  0  0  0  0  0
   -5.8750    0.5862  -22.4340 H   0  0  0  0  0  0  0  0  0  0  0  0
   -4.4241    1.3920  -21.7467 H   0  0  0  0  0  0  0  0  0  0  0  0
 20 21  2  0  0  0  0
 19 20  1  0  0  0  0
 21 22  1  0  0  0  0
 18 19  2  0  0  0  0
 22 23  2  0  0  0  0
 18 23  1  0  0  0  0
 17 18  1  0  0  0  0
 23 24  1  0  0  0  0
 15 16  2  0  0  0  0
 15 17  1  0  0  0  0
 14 15  1  0  0  0  0
  8 14  1  0  0  0  0
 12 13  1  0  0  0  0
  8 13  1  0  0  0  0
 11 12  2  0  0  0  0
  7  8  1  0  0  0  0
  8  9  1  0  0  0  0
 10 11  1  0  0  0  0
  6  7  2  0  0  0  0
  5  6  1  0  0  0  0
  9 10  2  0  0  0  0
  2  5  1  0  0  0  0
  2  3  2  0  0  0  0
  1  2  1  0  0  0  0
  2  4  2  0  0  0  0
  1 25  1  0  0  0  0
  1 26  1  0  0  0  0
  1 27  1  0  0  0  0
  5 28  1  0  0  0  0
  6 29  1  0  0  0  0
  7 30  1  0  0  0  0
  9 31  1  0  0  0  0
 10 32  1  0  0  0  0
 11 33  1  0  0  0  0
 12 34  1  0  0  0  0
 13 35  1  0  0  0  0
 13 36  1  0  0  0  0
 14 37  1  0  0  0  0
 14 38  1  0  0  0  0
 17 39  1  0  0  0  0
 19 40  1  0  0  0  0
 21 41  1  0  0  0  0
 22 42  1  0  0  0  0
 24 43  1  0  0  0  0
 24 44  1  0  0  0  0
 24 45  1  0  0  0  0
M  END
> <Chemgauss4>
-12.848133

$$$$
