stable:False satoms:11 tatoms:24 sratio:0.4583333333333333
  -OEChem-08062415043D

 45 46  0     1  0  0  0  0  0999 V2000
    6.5464   -5.3098   26.0747 C   0  0  0  0  0  0  0  0  0  0  0  0
    8.2504   -4.6500   25.7958 S   0  0  0  0  0  0  0  0  0  0  0  0
    9.1113   -5.8397   25.7769 O   0  0  0  0  0  0  0  0  0  0  0  0
    8.5185   -3.7631   26.9066 O   0  0  0  0  0  0  0  0  0  0  0  0
    8.1874   -3.9275   24.3895 N   0  0  0  0  0  0  0  0  0  0  0  0
    9.1063   -3.1449   24.0038 C   0  0  0  0  0  0  0  0  0  0  0  0
    9.6010   -2.1604   23.4456 C   0  0  0  0  0  0  0  0  0  0  0  0
   10.5740   -1.3106   23.2439 C   0  0  1  0  0  0  0  0  0  0  0  0
   11.1588   -0.2668   24.3880 C   0  0  0  0  0  0  0  0  0  0  0  0
   12.1502    0.1371   24.4497 C   0  0  0  0  0  0  0  0  0  0  0  0
   13.3186   -0.3437   23.6310 C   0  0  0  0  0  0  0  0  0  0  0  0
   12.9566   -1.2975   22.8762 C   0  0  0  0  0  0  0  0  0  0  0  0
   11.9225   -1.8088   22.6390 C   0  0  0  0  0  0  0  0  0  0  0  0
    9.9222   -0.7243   22.3744 C   0  0  0  0  0  0  0  0  0  0  0  0
    9.2946   -0.0351   21.4006 C   0  0  0  0  0  0  0  0  0  0  0  0
    9.7497    0.9701   21.1130 O   0  0  0  0  0  0  0  0  0  0  0  0
    8.2123   -0.6819   20.9619 N   0  0  0  0  0  0  0  0  0  0  0  0
    7.5139   -0.2154   20.0670 C   0  0  0  0  0  0  0  0  0  0  0  0
    7.5948   -0.0528   18.7556 C   0  0  0  0  0  0  0  0  0  0  0  0
    7.1808    0.2806   17.6547 N   0  0  0  0  0  0  0  0  0  0  0  0
    6.0908    0.7900   18.0550 C   0  0  0  0  0  0  0  0  0  0  0  0
    5.5912    0.8436   19.2062 C   0  0  0  0  0  0  0  0  0  0  0  0
    6.0688    0.4131   20.3646 C   0  0  0  0  0  0  0  0  0  0  0  0
    5.4655    0.4813   21.7183 C   0  0  0  0  0  0  0  0  0  0  0  0
    6.5084   -5.8315   27.0425 H   0  0  0  0  0  0  0  0  0  0  0  0
    5.8271   -4.4776   26.0785 H   0  0  0  0  0  0  0  0  0  0  0  0
    6.2892   -6.0131   25.2689 H   0  0  0  0  0  0  0  0  0  0  0  0
    7.3420   -3.3934   24.3848 H   0  0  0  0  0  0  0  0  0  0  0  0
    9.9846   -3.6305   24.4027 H   0  0  0  0  0  0  0  0  0  0  0  0
    8.8243   -1.8277   22.7729 H   0  0  0  0  0  0  0  0  0  0  0  0
   10.4656    0.0411   25.1569 H   0  0  0  0  0  0  0  0  0  0  0  0
   12.3222    0.9440   25.1467 H   0  0  0  0  0  0  0  0  0  0  0  0
   14.3178    0.0632   23.6790 H   0  0  0  0  0  0  0  0  0  0  0  0
   13.7784   -1.7377   22.3310 H   0  0  0  0  0  0  0  0  0  0  0  0
   11.8024   -1.7588   21.5468 H   0  0  0  0  0  0  0  0  0  0  0  0
   12.0247   -2.8592   22.9490 H   0  0  0  0  0  0  0  0  0  0  0  0
    9.1843   -0.3908   23.1188 H   0  0  0  0  0  0  0  0  0  0  0  0
    9.5974   -1.6810   21.9393 H   0  0  0  0  0  0  0  0  0  0  0  0
    7.9665   -1.5614   21.3694 H   0  0  0  0  0  0  0  0  0  0  0  0
    8.5844   -0.4237   18.5328 H   0  0  0  0  0  0  0  0  0  0  0  0
    5.4959    1.2524   17.2813 H   0  0  0  0  0  0  0  0  0  0  0  0
    4.6206    1.3141   19.2601 H   0  0  0  0  0  0  0  0  0  0  0  0
    4.8735   -0.4273   21.9027 H   0  0  0  0  0  0  0  0  0  0  0  0
    6.2632    0.5582   22.4718 H   0  0  0  0  0  0  0  0  0  0  0  0
    4.8124    1.3640   21.7845 H   0  0  0  0  0  0  0  0  0  0  0  0
 20 21  2  0  0  0  0
 19 20  1  0  0  0  0
 21 22  1  0  0  0  0
 18 19  2  0  0  0  0
 22 23  2  0  0  0  0
 18 23  1  0  0  0  0
 17 18  1  0  0  0  0
 23 24  1  0  0  0  0
 15 16  2  0  0  0  0
 15 17  1  0  0  0  0
 14 15  1  0  0  0  0
  8 14  1  0  0  0  0
 12 13  1  0  0  0  0
  8 13  1  0  0  0  0
 11 12  2  0  0  0  0
  7  8  1  0  0  0  0
  8  9  1  0  0  0  0
 10 11  1  0  0  0  0
  6  7  2  0  0  0  0
  5  6  1  0  0  0  0
  9 10  2  0  0  0  0
  2  5  1  0  0  0  0
  2  3  2  0  0  0  0
  1  2  1  0  0  0  0
  2  4  2  0  0  0  0
  1 25  1  0  0  0  0
  1 26  1  0  0  0  0
  1 27  1  0  0  0  0
  5 28  1  0  0  0  0
  6 29  1  0  0  0  0
  7 30  1  0  0  0  0
  9 31  1  0  0  0  0
 10 32  1  0  0  0  0
 11 33  1  0  0  0  0
 12 34  1  0  0  0  0
 13 35  1  0  0  0  0
 13 36  1  0  0  0  0
 14 37  1  0  0  0  0
 14 38  1  0  0  0  0
 17 39  1  0  0  0  0
 19 40  1  0  0  0  0
 21 41  1  0  0  0  0
 22 42  1  0  0  0  0
 24 43  1  0  0  0  0
 24 44  1  0  0  0  0
 24 45  1  0  0  0  0
M  END
> <Chemgauss4>
-12.994125

$$$$
