stable:False satoms:17 tatoms:24 sratio:0.7083333333333334
  -OEChem-08052419443D

 28 30  0     1  0  0  0  0  0999 V2000
    9.0608   -0.0744   21.1706 C   0  0  0  0  0  0  0  0  0  0  0  0
    8.3665    0.7500   19.9780 S   0  0  0  0  0  0  0  0  0  0  0  0
   10.2427    0.2737   21.6481 N   0  0  0  0  0  0  0  0  0  0  0  0
   11.7618   -1.5100   22.3957 O   0  0  0  0  0  0  0  0  0  0  0  0
    9.3056   -1.8448   25.0006 C   0  0  0  0  0  0  0  0  0  0  0  0
   10.5321   -0.0775   25.1824 H   0  0  0  0  0  0  0  0  0  0  0  0
    8.4600   -1.3106   21.8765 C   0  0  0  0  0  0  0  0  0  0  0  0
   11.4121   -1.6347   25.1437 H   0  0  0  0  0  0  0  0  0  0  0  0
    8.9511   -2.6696   23.8305 C   0  0  2  0  0  0  0  0  0  0  0  0
    9.6094   -3.5589   23.7163 H   0  0  0  0  0  0  0  0  0  0  0  0
   11.0981    0.7435   21.5244 H   0  0  0  0  0  0  0  0  0  0  0  0
   10.5455   -1.0756   24.8275 C   0  0  0  0  0  0  0  0  0  0  0  0
   11.6969    0.6612   23.5295 O   0  0  0  0  0  0  0  0  0  0  0  0
    9.0007   -1.3869   27.0029 H   0  0  0  0  0  0  0  0  0  0  0  0
    8.5406   -1.8120   26.1344 C   0  0  0  0  0  0  0  0  0  0  0  0
    9.3655   -1.8100   22.7179 N   0  0  0  0  0  0  0  0  0  0  0  0
   10.7932   -0.5887   23.0950 S   0  0  0  0  0  0  0  0  0  0  0  0
    7.4464   -3.0453   24.0056 C   0  0  3  0  0  0  0  0  0  0  0  0
    7.2109   -2.2444   26.2349 C   0  0  0  0  0  0  0  0  0  0  0  0
    6.6538   -2.1390   27.1568 H   0  0  0  0  0  0  0  0  0  0  0  0
    6.6555   -2.8163   25.1107 C   0  0  0  0  0  0  0  0  0  0  0  0
    7.3103   -1.7187   21.7174 O   0  0  0  0  0  0  0  0  0  0  0  0
    7.4066   -4.1335   23.8499 H   0  0  0  0  0  0  0  0  0  0  0  0
    5.6082   -3.0864   25.0729 H   0  0  0  0  0  0  0  0  0  0  0  0
   11.8705   -1.2307   21.4942 H   0  0  0  0  0  0  0  0  0  0  0  0
   11.9840    1.1295   22.7545 H   0  0  0  0  0  0  0  0  0  0  0  0
   10.7932   -0.5887   23.0950 H   0  0  0  0  0  0  0  0  0  0  0  0
    6.9298   -2.5373   23.1779 H   0  0  0  0  0  0  0  0  0  0  0  0
 19 20  1  0  0  0  0
 14 15  1  0  0  0  0
 15 19  1  0  0  0  0
 19 21  2  0  0  0  0
  5 15  2  0  0  0  0
 21 24  1  0  0  0  0
 18 21  1  0  0  0  0
  5 12  1  0  0  0  0
  5  9  1  0  0  0  0
  6 12  1  0  0  0  0
  9 18  1  0  0  0  0
 18 23  1  0  0  0  0
  8 12  1  0  0  0  0
 12 17  1  0  0  0  0
  9 10  1  0  0  0  0
  9 16  1  0  0  0  0
 13 17  1  0  0  0  0
 16 17  1  0  0  0  0
  7 16  1  0  0  0  0
  3 17  1  0  0  0  0
  4 17  1  0  0  0  0
  7 22  2  0  0  0  0
  1  7  1  0  0  0  0
  1  3  1  0  0  0  0
  3 11  1  0  0  0  0
  1  2  2  0  0  0  0
  4 25  1  0  0  0  0
 13 26  1  0  0  0  0
 17 27  1  0  0  0  0
 18 28  1  0  0  0  0
M  END
> <Chemgauss4>
-6.360872

$$$$
