stable:False satoms:17 tatoms:24 sratio:0.7083333333333334
  -OEChem-08052419443D

 28 30  0     1  0  0  0  0  0999 V2000
   -9.5137   -0.2070  -21.4147 C   0  0  0  0  0  0  0  0  0  0  0  0
   -8.9321    0.6932  -20.2167 S   0  0  0  0  0  0  0  0  0  0  0  0
  -10.6081    0.1430  -22.0673 N   0  0  0  0  0  0  0  0  0  0  0  0
  -12.1107   -1.6394  -22.8505 O   0  0  0  0  0  0  0  0  0  0  0  0
   -9.3701   -2.3035  -25.0818 C   0  0  0  0  0  0  0  0  0  0  0  0
  -10.4737   -0.5128  -25.5673 H   0  0  0  0  0  0  0  0  0  0  0  0
   -8.8930   -1.5244  -21.9312 C   0  0  0  0  0  0  0  0  0  0  0  0
  -11.4292   -2.0243  -25.5107 H   0  0  0  0  0  0  0  0  0  0  0  0
   -9.2058   -3.0331  -23.8106 C   0  0  2  0  0  0  0  0  0  0  0  0
   -9.9172   -3.8819  -23.7072 H   0  0  0  0  0  0  0  0  0  0  0  0
  -11.4474    0.6554  -22.0942 H   0  0  0  0  0  0  0  0  0  0  0  0
  -10.5815   -1.4736  -25.1343 C   0  0  0  0  0  0  0  0  0  0  0  0
  -11.7960    0.4168  -24.1454 O   0  0  0  0  0  0  0  0  0  0  0  0
   -8.7963   -2.0399  -27.0599 H   0  0  0  0  0  0  0  0  0  0  0  0
   -8.4696   -2.4030  -26.1070 C   0  0  0  0  0  0  0  0  0  0  0  0
   -9.7111   -2.0614  -22.8367 N   0  0  0  0  0  0  0  0  0  0  0  0
  -11.0175   -0.8236  -23.4950 S   0  0  0  0  0  0  0  0  0  0  0  0
   -7.7118   -3.4821  -23.7593 C   0  0  3  0  0  0  0  0  0  0  0  0
   -7.1612   -2.8947  -25.9995 C   0  0  0  0  0  0  0  0  0  0  0  0
   -6.4894   -2.8948  -26.8480 H   0  0  0  0  0  0  0  0  0  0  0  0
   -6.7793   -3.3848  -24.7693 C   0  0  0  0  0  0  0  0  0  0  0  0
   -7.7941   -1.9616  -21.5924 O   0  0  0  0  0  0  0  0  0  0  0  0
   -7.7466   -4.5526  -23.5087 H   0  0  0  0  0  0  0  0  0  0  0  0
   -5.7597   -3.6915  -24.5750 H   0  0  0  0  0  0  0  0  0  0  0  0
  -12.3163   -1.2761  -21.9971 H   0  0  0  0  0  0  0  0  0  0  0  0
  -12.1531    0.9639  -23.4557 H   0  0  0  0  0  0  0  0  0  0  0  0
  -11.0175   -0.8236  -23.4950 H   0  0  0  0  0  0  0  0  0  0  0  0
   -7.2770   -2.9225  -22.9180 H   0  0  0  0  0  0  0  0  0  0  0  0
 19 20  1  0  0  0  0
 14 15  1  0  0  0  0
 15 19  1  0  0  0  0
 19 21  2  0  0  0  0
  5 15  2  0  0  0  0
 21 24  1  0  0  0  0
 18 21  1  0  0  0  0
  5 12  1  0  0  0  0
  5  9  1  0  0  0  0
  6 12  1  0  0  0  0
  9 18  1  0  0  0  0
 18 23  1  0  0  0  0
  8 12  1  0  0  0  0
 12 17  1  0  0  0  0
  9 10  1  0  0  0  0
  9 16  1  0  0  0  0
 13 17  1  0  0  0  0
 16 17  1  0  0  0  0
  7 16  1  0  0  0  0
  3 17  1  0  0  0  0
  4 17  1  0  0  0  0
  7 22  2  0  0  0  0
  1  7  1  0  0  0  0
  1  3  1  0  0  0  0
  3 11  1  0  0  0  0
  1  2  2  0  0  0  0
  4 25  1  0  0  0  0
 13 26  1  0  0  0  0
 17 27  1  0  0  0  0
 18 28  1  0  0  0  0
M  END
> <Chemgauss4>
-6.434424

$$$$
