stable:False satoms:9 tatoms:24 sratio:0.375
  -OEChem-07092417443D

 24 25  0     0  0  0  0  0  0999 V2000
    6.5158   -4.7969   26.4872 O   0  0  0  0  0  0  0  0  0  0  0  0
    8.1797   -4.4440   26.1913 S   0  0  0  0  0  0  0  0  0  0  0  0
    8.9536   -5.6145   26.1123 O   0  0  0  0  0  0  0  0  0  0  0  0
    8.6020   -3.5441   27.2112 O   0  5  0  0  0  0  0  0  0  0  0  0
    8.0944   -3.7540   24.7307 N   0  0  0  0  0  0  0  0  0  0  0  0
    8.8578   -2.9482   24.2174 C   0  0  0  0  0  0  0  0  0  0  0  0
    9.2912   -2.1702   23.7073 C   0  0  0  0  0  0  0  0  0  0  0  0
   10.1537   -1.3666   23.0639 C   0  0  0  0  0  0  0  0  0  0  0  0
   11.5277   -0.0414   24.1997 C   0  0  0  0  0  0  0  0  0  0  0  0
   12.6705    0.4527   24.4864 C   0  0  0  0  0  0  0  0  0  0  0  0
   12.6884   -0.2729   23.7634 C   0  5  0  0  0  0  0  0  0  0  0  0
   13.1875   -0.9466   23.0957 H   0  0  0  0  0  0  0  0  0  0  0  0
   11.1948   -1.1995   22.6840 C   0  0  0  0  0  0  0  0  0  0  0  0
    9.9377   -0.6086   22.1221 C   0  0  0  0  0  0  0  0  0  0  0  0
    9.0549    0.0762   21.2753 C   0  0  0  0  0  0  0  0  0  0  0  0
    9.4601    1.0042   20.8501 O   0  0  0  0  0  0  0  0  0  0  0  0
    7.8759   -0.5205   21.1600 N   0  0  0  0  0  0  0  0  0  0  0  0
    7.1228   -0.0661   20.2594 C   0  0  0  0  0  0  0  0  0  0  0  0
    7.5030   -0.1117   18.6115 S   0  0  0  0  0  0  0  0  0  0  0  0
    6.1546    0.5813   18.1900 N   0  3  0  0  0  0  0  0  0  0  0  0
    5.7693    1.0112   17.4684 H   0  0  0  0  0  0  0  0  0  0  0  0
    5.5033    0.7906   19.3835 C   0  0  0  0  0  0  0  0  0  0  0  0
    5.8508    0.5304   20.5211 C   0  0  0  0  0  0  0  0  0  0  0  0
    5.4343    0.6689   21.5047 H   0  0  0  0  0  0  0  0  0  0  0  0
 20 21  1  0  0  0  0
 19 20  1  0  0  0  0
 20 22  2  0  0  0  0
 18 19  1  0  0  0  0
 22 23  1  0  0  0  0
 18 23  2  0  0  0  0
 17 18  1  0  0  0  0
 23 24  1  0  0  0  0
 15 16  2  0  0  0  0
 15 17  1  0  0  0  0
 14 15  1  0  0  0  0
 13 14  1  0  0  0  0
  8 14  2  0  0  0  0
  8 13  1  0  0  0  0
  7  8  1  0  0  0  0
 11 12  1  0  0  0  0
  6  7  3  0  0  0  0
  9 11  1  0  0  0  0
 10 11  1  0  0  0  0
  9 10  1  0  0  0  0
  5  6  1  0  0  0  0
  2  5  1  0  0  0  0
  2  3  2  0  0  0  0
  1  2  2  0  0  0  0
  2  4  1  0  0  0  0
M  CHG  3   4  -1  11  -1  20   1
M  END
> <Shapegauss>
-261.574188

$$$$
