stable:False satoms:10 tatoms:24 sratio:0.4166666666666667
  -OEChem-07092417423D

 24 24  0     0  0  0  0  0  0999 V2000
    6.7211   -4.8476   26.2898 O   0  0  0  0  0  0  0  0  0  0  0  0
    8.1730   -4.3431   26.1146 S   0  0  0  0  0  0  0  0  0  0  0  0
    9.0642   -5.4605   25.9722 O   0  0  0  0  0  0  0  0  0  0  0  0
    8.4814   -3.4449   27.1789 O   0  5  0  0  0  0  0  0  0  0  0  0
    8.1122   -3.5120   24.7331 N   0  0  0  0  0  0  0  0  0  0  0  0
    8.7191   -2.7926   24.0648 C   0  0  0  0  0  0  0  0  0  0  0  0
    9.1019   -1.8862   23.2927 C   0  0  0  0  0  0  0  0  0  0  0  0
   10.9199   -0.9078   23.0770 C   0  0  0  0  0  0  0  0  0  0  0  0
   11.5406   -0.0933   23.9875 C   0  0  0  0  0  2  0  0  0  0  0  0
   11.7409    0.5304   24.6787 H   0  0  0  0  0  0  0  0  0  0  0  0
   13.2294   -0.4477   23.3587 O   0  0  0  0  0  0  0  0  0  0  0  0
   12.9400   -1.3141   22.6825 N   0  0  0  0  0  0  0  0  0  0  0  0
   11.8236   -1.6915   22.5095 N   0  0  0  0  0  0  0  0  0  0  0  0
    9.6208   -0.9568   22.6193 C   0  0  0  0  0  0  0  0  0  0  0  0
    9.0338   -0.0830   21.4958 C   0  0  0  0  0  0  0  0  0  0  0  0
    9.6558    0.7937   20.9470 O   0  0  0  0  0  0  0  0  0  0  0  0
    7.7933   -0.4286   21.2832 N   0  0  0  0  0  0  0  0  0  0  0  0
    7.0931    0.0319   20.2705 C   0  0  0  0  0  0  0  0  0  0  0  0
    7.1929    0.0951   18.9468 C   0  0  0  0  0  0  0  0  0  0  0  0
    6.6693    0.4235   17.8836 N   0  0  0  0  0  0  0  0  0  0  0  0
    5.6247    0.8742   18.2848 C   0  0  0  0  0  0  0  0  0  0  0  0
    5.2218    0.9444   19.4697 C   0  0  0  0  0  0  0  0  0  0  0  0
    5.7483    0.5889   20.5846 C   0  0  0  0  0  0  0  0  0  0  0  0
    5.3628    0.6373   21.5715 H   0  0  0  0  0  0  0  0  0  0  0  0
 20 21  2  0  0  0  0
 19 20  1  0  0  0  0
 21 22  1  0  0  0  0
 18 19  2  0  0  0  0
 22 23  2  0  0  0  0
 18 23  1  0  0  0  0
 17 18  1  0  0  0  0
 23 24  1  0  0  0  0
 15 16  2  0  0  0  0
 15 17  1  0  0  0  0
 14 15  1  0  0  0  0
 12 13  2  0  0  0  0
  8 13  1  0  0  0  0
  8 14  2  3  0  0  0
  7 14  1  0  0  0  0
 11 12  1  0  0  0  0
  8  9  1  0  0  0  0
  6  7  3  0  0  0  0
  9 10  1  0  0  0  0
  5  6  1  0  0  0  0
  2  5  1  0  0  0  0
  2  3  2  0  0  0  0
  1  2  2  0  0  0  0
  2  4  1  0  0  0  0
M  CHG  1   4  -1
M  END
> <Shapegauss>
-265.138275

$$$$
