stable:False satoms:10 tatoms:24 sratio:0.4166666666666667
  -OEChem-08062410483D

 30 30  0     0  0  0  0  0  0999 V2000
   -6.5883   -5.4651  -26.0731 O   0  0  0  0  0  0  0  0  0  0  0  0
   -8.0306   -4.9092  -26.0088 S   0  0  0  0  0  0  0  0  0  0  0  0
   -8.9651   -5.9913  -25.8708 O   0  0  0  0  0  0  0  0  0  0  0  0
   -8.2458   -4.0527  -27.1289 O   0  5  0  0  0  0  0  0  0  0  0  0
   -8.0241   -4.0169  -24.6647 N   0  0  0  0  0  0  0  0  0  0  0  0
   -8.6454   -3.2490  -24.0672 C   0  0  0  0  0  0  0  0  0  0  0  0
   -9.0430   -2.2965  -23.3610 C   0  0  0  0  0  0  0  0  0  0  0  0
  -10.8372   -1.2545  -23.2997 C   0  0  0  0  0  0  0  0  0  0  0  0
  -11.3759   -0.4649  -24.2816 C   0  0  0  0  0  2  0  0  0  0  0  0
  -11.5143    0.1317  -25.0108 H   0  0  0  0  0  0  0  0  0  0  0  0
  -13.1096   -0.7383  -23.7409 O   0  0  0  0  0  0  0  0  0  0  0  0
  -12.8894   -1.5806  -23.0104 N   0  0  0  0  0  0  0  0  0  0  0  0
  -11.7983   -1.9832  -22.7534 N   0  0  0  0  0  0  0  0  0  0  0  0
   -9.5698   -1.3214  -22.7625 C   0  0  0  0  0  0  0  0  0  0  0  0
   -9.0216   -0.4144  -21.6457 C   0  0  0  0  0  0  0  0  0  0  0  0
   -9.6457    0.5054  -21.1753 O   0  0  0  0  0  0  0  0  0  0  0  0
   -7.8079   -0.7871  -21.3432 N   0  0  0  0  0  0  0  0  0  0  0  0
   -7.1539   -0.3013  -20.3116 C   0  0  0  0  0  0  0  0  0  0  0  0
   -7.3296   -0.1734  -19.0005 C   0  0  0  0  0  0  0  0  0  0  0  0
   -6.8592    0.1882  -17.9233 N   0  0  0  0  0  0  0  0  0  0  0  0
   -5.7784    0.5878  -18.2804 C   0  0  0  0  0  0  0  0  0  0  0  0
   -5.3041    0.5905  -19.4407 C   0  0  0  0  0  0  0  0  0  0  0  0
   -5.7753    0.1995  -20.5684 C   0  0  0  0  0  0  0  0  0  0  0  0
   -5.3308    0.1902  -21.5313 H   0  0  0  0  0  0  0  0  0  0  0  0
   -7.1708   -3.5095  -24.7849 H   0  0  0  0  0  0  0  0  0  0  0  0
  -14.0474   -0.5924  -23.7833 H   0  0  0  0  0  0  0  0  0  0  0  0
   -7.3576   -1.4694  -21.9191 H   0  0  0  0  0  0  0  0  0  0  0  0
   -8.3180   -0.5534  -18.7881 H   0  0  0  0  0  0  0  0  0  0  0  0
   -5.1425    0.9923  -17.5067 H   0  0  0  0  0  0  0  0  0  0  0  0
   -4.3071    1.0008  -19.5033 H   0  0  0  0  0  0  0  0  0  0  0  0
 20 21  2  0  0  0  0
 19 20  1  0  0  0  0
 21 22  1  0  0  0  0
 18 19  2  0  0  0  0
 22 23  2  0  0  0  0
 18 23  1  0  0  0  0
 17 18  1  0  0  0  0
 23 24  1  0  0  0  0
 15 16  2  0  0  0  0
 15 17  1  0  0  0  0
 14 15  1  0  0  0  0
 12 13  2  0  0  0  0
  8 13  1  0  0  0  0
  8 14  2  3  0  0  0
  7 14  1  0  0  0  0
 11 12  1  0  0  0  0
  8  9  1  0  0  0  0
  6  7  3  0  0  0  0
  9 10  1  0  0  0  0
  5  6  1  0  0  0  0
  2  5  1  0  0  0  0
  2  3  2  0  0  0  0
  1  2  2  0  0  0  0
  2  4  1  0  0  0  0
  5 25  1  0  0  0  0
 11 26  1  0  0  0  0
 17 27  1  0  0  0  0
 19 28  1  0  0  0  0
 21 29  1  0  0  0  0
 22 30  1  0  0  0  0
M  CHG  1   4  -1
M  END
> <Chemgauss4>
-12.509351

$$$$
