stable:False satoms:10 tatoms:24 sratio:0.4166666666666667
  -OEChem-08062410483D

 30 30  0     0  0  0  0  0  0999 V2000
    6.6902   -5.3471   25.8272 O   0  0  0  0  0  0  0  0  0  0  0  0
    8.1325   -4.7913   25.7629 S   0  0  0  0  0  0  0  0  0  0  0  0
    9.0669   -5.8734   25.6249 O   0  0  0  0  0  0  0  0  0  0  0  0
    8.3477   -3.9348   26.8831 O   0  5  0  0  0  0  0  0  0  0  0  0
    8.1260   -3.8989   24.4188 N   0  0  0  0  0  0  0  0  0  0  0  0
    8.7472   -3.1311   23.8213 C   0  0  0  0  0  0  0  0  0  0  0  0
    9.1448   -2.1785   23.1151 C   0  0  0  0  0  0  0  0  0  0  0  0
   10.9391   -1.1366   23.0538 C   0  0  0  0  0  0  0  0  0  0  0  0
   11.4777   -0.3470   24.0357 C   0  0  0  0  0  2  0  0  0  0  0  0
   11.6162    0.2496   24.7649 H   0  0  0  0  0  0  0  0  0  0  0  0
   13.2115   -0.6204   23.4950 O   0  0  0  0  0  0  0  0  0  0  0  0
   12.9913   -1.4627   22.7645 N   0  0  0  0  0  0  0  0  0  0  0  0
   11.9001   -1.8652   22.5075 N   0  0  0  0  0  0  0  0  0  0  0  0
    9.6716   -1.2035   22.5166 C   0  0  0  0  0  0  0  0  0  0  0  0
    9.1235   -0.2964   21.3998 C   0  0  0  0  0  0  0  0  0  0  0  0
    9.7476    0.6233   20.9294 O   0  0  0  0  0  0  0  0  0  0  0  0
    7.9098   -0.6691   21.0973 N   0  0  0  0  0  0  0  0  0  0  0  0
    7.2558   -0.1833   20.0657 C   0  0  0  0  0  0  0  0  0  0  0  0
    7.4315   -0.0555   18.7546 C   0  0  0  0  0  0  0  0  0  0  0  0
    6.9610    0.3061   17.6774 N   0  0  0  0  0  0  0  0  0  0  0  0
    5.8803    0.7058   18.0345 C   0  0  0  0  0  0  0  0  0  0  0  0
    5.4060    0.7084   19.1948 C   0  0  0  0  0  0  0  0  0  0  0  0
    5.8772    0.3175   20.3225 C   0  0  0  0  0  0  0  0  0  0  0  0
    5.4327    0.3081   21.2854 H   0  0  0  0  0  0  0  0  0  0  0  0
    7.2727   -3.3916   24.5390 H   0  0  0  0  0  0  0  0  0  0  0  0
   14.1493   -0.4745   23.5374 H   0  0  0  0  0  0  0  0  0  0  0  0
    7.4595   -1.3514   21.6732 H   0  0  0  0  0  0  0  0  0  0  0  0
    8.4199   -0.4354   18.5422 H   0  0  0  0  0  0  0  0  0  0  0  0
    5.2444    1.1102   17.2608 H   0  0  0  0  0  0  0  0  0  0  0  0
    4.4089    1.1188   19.2574 H   0  0  0  0  0  0  0  0  0  0  0  0
 20 21  2  0  0  0  0
 19 20  1  0  0  0  0
 21 22  1  0  0  0  0
 18 19  2  0  0  0  0
 22 23  2  0  0  0  0
 18 23  1  0  0  0  0
 17 18  1  0  0  0  0
 23 24  1  0  0  0  0
 15 16  2  0  0  0  0
 15 17  1  0  0  0  0
 14 15  1  0  0  0  0
 12 13  2  0  0  0  0
  8 13  1  0  0  0  0
  8 14  2  3  0  0  0
  7 14  1  0  0  0  0
 11 12  1  0  0  0  0
  8  9  1  0  0  0  0
  6  7  3  0  0  0  0
  9 10  1  0  0  0  0
  5  6  1  0  0  0  0
  2  5  1  0  0  0  0
  2  3  2  0  0  0  0
  1  2  2  0  0  0  0
  2  4  1  0  0  0  0
  5 25  1  0  0  0  0
 11 26  1  0  0  0  0
 17 27  1  0  0  0  0
 19 28  1  0  0  0  0
 21 29  1  0  0  0  0
 22 30  1  0  0  0  0
M  CHG  1   4  -1
M  END
> <Chemgauss4>
-12.383122

$$$$
