stable:False satoms:16 tatoms:24 sratio:0.6666666666666666
  -OEChem-08052419593D

 22 23  0     1  0  0  0  0  0999 V2000
  -11.4146   -0.9368  -24.6104 C   0  0  1  0  0  0  0  0  0  0  0  0
  -12.1830    1.2197  -24.1488 N   0  0  0  0  0  0  0  0  0  0  0  0
  -11.6313   -1.4552  -22.8970 S   0  0  0  0  0  0  0  0  0  0  0  0
  -13.1027   -1.5085  -22.8365 O   0  0  0  0  0  0  0  0  0  0  0  0
  -10.9803   -0.8121  -21.8494 O   0  0  0  0  0  0  0  0  0  0  0  0
  -10.0590    0.9035  -24.8283 N   0  0  0  0  0  0  0  0  0  0  0  0
  -11.7076   -1.8263  -25.1657 H   0  0  0  0  0  0  0  0  0  0  0  0
  -12.3148    0.0733  -24.7239 O   0  0  0  0  0  0  0  0  0  0  0  0
  -11.0809    1.7505  -24.6448 C   0  0  0  0  0  2  0  0  0  0  0  0
   -8.8360   -0.3952  -26.7391 H   0  0  0  0  0  0  0  0  0  0  0  0
   -8.4418    2.5706  -25.2257 H   0  0  0  0  0  0  0  0  0  0  0  0
   -8.7775    1.4486  -24.7619 O   0  0  0  0  0  0  0  0  0  0  0  0
   -8.3401   -3.0032  -24.5724 C   0  0  0  0  0  0  0  0  0  0  0  0
  -10.3368   -2.6076  -23.2536 O   0  0  0  0  0  0  0  0  0  0  0  0
   -8.4257   -2.2336  -25.7204 C   0  0  0  0  0  0  0  0  0  0  0  0
  -10.0604   -0.4448  -25.0772 C   0  0  0  0  0  0  0  0  0  0  0  0
   -7.5837   -3.7774  -24.5677 H   0  0  0  0  0  0  0  0  0  0  0  0
   -7.8612   -2.6183  -26.5697 H   0  0  0  0  0  0  0  0  0  0  0  0
   -9.1097   -1.0242  -25.8864 C   0  0  0  0  0  0  0  0  0  0  0  0
   -9.0856   -2.8970  -23.4266 C   0  0  0  0  0  2  0  0  0  0  0  0
   -8.4418    2.5706  -25.2257 C   0  0  0  0  0  2  0  0  0  0  0  0
  -12.0983    1.1043  -23.1591 H   0  0  0  0  0  0  0  0  0  0  0  0
 13 17  1  0  0  0  0
 13 20  1  0  0  0  0
 13 15  2  0  0  0  0
 15 18  1  0  0  0  0
 14 20  1  0  0  0  0
 15 19  1  0  0  0  0
 10 19  1  0  0  0  0
 16 19  2  3  0  0  0
  3 14  1  0  0  0  0
 12 21  1  0  0  0  0
  6 12  1  0  0  0  0
 11 21  1  0  0  0  0
  3  5  2  0  0  0  0
  6 16  1  0  0  0  0
  1 16  1  0  0  0  0
  6  9  1  0  0  0  0
  1  3  1  0  0  0  0
  3  4  2  0  0  0  0
  1  7  1  0  0  0  0
  1  8  1  0  0  0  0
  2  9  1  0  0  0  0
  2  8  1  0  0  0  0
  2 22  1  0  0  0  0
M  END
> <Chemgauss4>
-6.443995

$$$$
