stable:False satoms:16 tatoms:24 sratio:0.6666666666666666
  -OEChem-08052419593D

 22 23  0     1  0  0  0  0  0999 V2000
   11.5286   -0.7988   24.7111 C   0  0  1  0  0  0  0  0  0  0  0  0
   12.3891    1.2817   24.0907 N   0  0  0  0  0  0  0  0  0  0  0  0
   11.6864   -1.4414   23.0337 S   0  0  0  0  0  0  0  0  0  0  0  0
   13.1521   -1.5703   22.9526 O   0  0  0  0  0  0  0  0  0  0  0  0
   11.0458   -0.8395   21.9556 O   0  0  0  0  0  0  0  0  0  0  0  0
   10.2663    1.1157   24.8253 N   0  0  0  0  0  0  0  0  0  0  0  0
   11.7901   -1.6620   25.3209 H   0  0  0  0  0  0  0  0  0  0  0  0
   12.4777    0.1716   24.7404 O   0  0  0  0  0  0  0  0  0  0  0  0
   11.3235    1.8977   24.5675 C   0  0  0  0  0  2  0  0  0  0  0  0
    9.0214    0.0098   26.8405 H   0  0  0  0  0  0  0  0  0  0  0  0
    8.7383    2.8826   25.1349 H   0  0  0  0  0  0  0  0  0  0  0  0
    9.0112    1.7169   24.7432 O   0  0  0  0  0  0  0  0  0  0  0  0
    8.3594   -2.7110   24.8653 C   0  0  0  0  0  0  0  0  0  0  0  0
   10.3460   -2.5028   23.4896 O   0  0  0  0  0  0  0  0  0  0  0  0
    8.5042   -1.8708   25.9566 C   0  0  0  0  0  0  0  0  0  0  0  0
   10.2088   -0.2111   25.1657 C   0  0  0  0  0  0  0  0  0  0  0  0
    7.5672   -3.4461   24.9261 H   0  0  0  0  0  0  0  0  0  0  0  0
    7.9391   -2.1695   26.8395 H   0  0  0  0  0  0  0  0  0  0  0  0
    9.2480   -0.6877   26.0283 C   0  0  0  0  0  0  0  0  0  0  0  0
    9.0861   -2.7187   23.7028 C   0  0  0  0  0  2  0  0  0  0  0  0
    8.7383    2.8826   25.1349 C   0  0  0  0  0  2  0  0  0  0  0  0
   12.2793    1.1042   23.1127 H   0  0  0  0  0  0  0  0  0  0  0  0
 13 17  1  0  0  0  0
 13 20  1  0  0  0  0
 13 15  2  0  0  0  0
 15 18  1  0  0  0  0
 14 20  1  0  0  0  0
 15 19  1  0  0  0  0
 10 19  1  0  0  0  0
 16 19  2  3  0  0  0
  3 14  1  0  0  0  0
 12 21  1  0  0  0  0
  6 12  1  0  0  0  0
 11 21  1  0  0  0  0
  3  5  2  0  0  0  0
  6 16  1  0  0  0  0
  1 16  1  0  0  0  0
  6  9  1  0  0  0  0
  1  3  1  0  0  0  0
  3  4  2  0  0  0  0
  1  7  1  0  0  0  0
  1  8  1  0  0  0  0
  2  9  1  0  0  0  0
  2  8  1  0  0  0  0
  2 22  1  0  0  0  0
M  END
> <Chemgauss4>
-6.512592

$$$$
