REMARK  4 active torsions:
REMARK  status: ('A' for Active; 'I' for Inactive)
REMARK    1  A    between atoms: N_2  and  C_4 
REMARK    2  A    between atoms: C_5  and  C_6 
REMARK    3  A    between atoms: C_6  and  C_9 
REMARK    4  A    between atoms: C_9  and  C_10 
REMARK       I    between atoms: C_10  and  N_12 
ROOT
HETATM    1  C   UNL     1       9.001   0.118  21.301  1.00  0.00     0.294 C 
HETATM    2  O   UNL     1       9.560   1.118  20.895  1.00  0.00    -0.258 OA
HETATM    3  N   UNL     1       7.718  -0.322  21.009  1.00  0.00    -0.317 N 
ATOM      4  HN  UNL     1       7.319  -1.082  21.559  1.00  0.00     0.169 HD
HETATM    5  C   UNL     1       7.020   0.198  20.069  1.00  0.00     0.054 A 
HETATM    6  C   UNL     1       6.991   0.245  18.738  1.00  0.00     0.172 A 
HETATM    7  N   UNL     1       6.482   0.400  17.629  1.00  0.00    -0.387 N 
ATOM      8  HN  UNL     1       6.723   0.270  16.646  1.00  0.00     0.156 HD
HETATM    9  C   UNL     1       5.544   0.787  18.301  1.00  0.00     0.206 A 
HETATM   10  N   UNL     1       4.934   1.049  19.322  1.00  0.00    -0.374 N 
ATOM     11  HN  UNL     1       3.983   1.415  19.370  1.00  0.00     0.161 HD
HETATM   12  C   UNL     1       5.676   0.792  20.312  1.00  0.00     0.112 A 
ENDROOT
BRANCH   1  13
HETATM   13  C   UNL     1       9.659  -0.656  22.178  1.00  0.00    -0.035 C 
BRANCH  13  14
HETATM   14  C   UNL     1      10.334  -1.319  23.055  1.00  0.00     0.069 C 
HETATM   15  C   UNL     1      11.771  -1.233  23.137  1.00  0.00     0.019 C 
HETATM   16  C   UNL     1      12.260  -0.550  24.150  1.00  0.00     0.013 C 
BRANCH  14  17
HETATM   17  C   UNL     1       9.618  -2.134  23.818  1.00  0.00    -0.035 C 
HETATM   18  C   UNL     1       9.006  -2.982  24.330  1.00  0.00     0.011 C 
BRANCH  18  19
HETATM   19  N   UNL     1       8.226  -3.755  24.801  1.00  0.00    -0.354 N 
HETATM   20  C   UNL     1       8.279  -4.322  26.091  1.00  0.00     0.157 C 
ATOM     21  HN  UNL     1       7.442  -4.033  24.210  1.00  0.00     0.169 HD
ENDBRANCH  18  19
ENDBRANCH  14  17
ENDBRANCH  13  14
ENDBRANCH   1  13
TORSDOF 4
