stable:False satoms:15 tatoms:24 sratio:0.625
  -OEChem-07092417403D

 24 25  0     1  0  0  0  0  0999 V2000
    7.2553   -4.6188   26.4013 H   0  0  0  0  0  0  0  0  0  0  0  0
    8.2792   -4.3217   26.0913 C   0  0  0  0  0  0  0  0  0  0  0  0
    8.9097   -5.2168   26.0716 H   0  0  0  0  0  0  0  0  0  0  0  0
    8.7137   -3.6211   26.8449 H   0  0  0  0  0  0  0  0  0  0  0  0
    8.2256   -3.7553   24.8008 N   0  3  0  0  0  0  0  0  0  0  0  0
    9.0059   -2.9822   24.3296 C   0  0  0  0  0  0  0  0  0  0  0  0
    9.6176   -2.1343   23.8184 C   0  0  0  0  0  0  0  0  0  0  0  0
   10.3339   -1.3191   23.0554 C   0  0  0  0  0  0  0  0  0  0  0  0
   11.6027   -0.2899   24.9612 H   0  0  0  0  0  0  0  0  0  0  0  0
   12.2603   -0.5505   24.1496 C   0  0  0  0  0  0  0  0  0  0  0  0
   13.2794   -0.2765   24.1561 H   0  0  0  0  0  0  0  0  0  0  0  0
   12.3721   -1.6652   22.3834 H   0  0  0  0  0  0  0  0  0  0  0  0
   11.7710   -1.2332   23.1365 C   0  0  0  0  0  0  0  0  0  0  0  0
    9.6590   -0.6558   22.1782 C   0  0  0  0  0  0  0  0  0  0  0  0
    9.0010    0.1179   21.3007 C   0  0  0  0  0  0  0  0  0  0  0  0
    9.5604    1.1179   20.8951 O   0  0  0  0  0  0  0  0  0  0  0  0
    7.7175   -0.3220   21.0092 N   0  0  0  0  0  0  0  0  0  0  0  0
    7.0203    0.1977   20.0694 C   0  0  0  0  0  0  0  0  0  0  0  0
    6.9908    0.2453   18.7383 C   0  0  0  0  0  0  0  0  0  0  0  0
    6.4821    0.3998   17.6289 N   0  0  0  0  0  0  0  0  0  0  0  0
    5.5437    0.7867   18.3014 C   0  0  1  0  0  0  0  0  0  0  0  0
    4.9343    1.0487   19.3219 N   0  0  0  0  0  0  0  0  0  0  0  0
    5.6760    0.7922   20.3123 C   0  0  0  0  0  0  0  0  0  0  0  0
    5.3726    0.9661   21.3413 H   0  0  0  0  0  0  0  0  0  0  0  0
 20 21  1  0  0  0  0
 19 20  2  0  0  0  0
 19 21  1  0  0  0  0
 21 22  1  0  0  0  0
 18 19  1  0  0  0  0
 22 23  1  0  0  0  0
 18 23  2  0  0  0  0
 17 18  1  0  0  0  0
 23 24  1  0  0  0  0
 15 16  2  0  0  0  0
 15 17  1  0  0  0  0
 14 15  1  0  0  0  0
  8 14  2  3  0  0  0
 12 13  1  0  0  0  0
  8 13  1  0  0  0  0
  7  8  1  0  0  0  0
 10 13  2  0  0  0  0
  6  7  3  0  0  0  0
 10 11  1  0  0  0  0
  9 10  1  0  0  0  0
  5  6  1  0  0  0  0
  2  5  1  0  0  0  0
  2  3  1  0  0  0  0
  1  2  1  0  0  0  0
  2  4  1  0  0  0  0
M  CHG  1   5   1
M  END
> <Shapegauss>
-214.416504

$$$$
