REMARK  6 active torsions:
REMARK  status: ('A' for Active; 'I' for Inactive)
REMARK    1  A    between atoms: S_2  and  N_5 
REMARK    2  A    between atoms: N_5  and  C_7 
REMARK    3  A    between atoms: C_8  and  C_9 
REMARK    4  A    between atoms: C_9  and  C_15 
REMARK    5  A    between atoms: C_15  and  C_16 
REMARK       I    between atoms: C_16  and  N_18 
REMARK    6  A    between atoms: N_18  and  C_20 
ROOT
HETATM    1  C   UNL     1      10.292  -1.152  23.237  1.00  0.00     0.075 C 
HETATM    2  C   UNL     1      11.090   0.039  24.311  1.00  0.00    -0.000 C 
HETATM    3  C   UNL     1      12.046   0.296  24.277  1.00  0.00    -0.025 C 
HETATM    4  C   UNL     1      13.159  -0.195  23.421  1.00  0.00     0.054 C 
HETATM    5  C   UNL     1      12.713  -1.284  22.615  1.00  0.00    -0.025 C 
HETATM    6  C   UNL     1      11.815  -1.737  22.488  1.00  0.00    -0.000 C 
ENDROOT
BRANCH   1   7
HETATM    7  C   UNL     1       9.384  -1.982  23.479  1.00  0.00     0.021 C 
HETATM    8  C   UNL     1       8.960  -2.933  24.150  1.00  0.00     0.098 C 
BRANCH   8   9
HETATM    9  N   UNL     1       8.146  -3.565  24.670  1.00  0.00    -0.296 N 
ATOM     10  HN  UNL     1       7.277  -3.671  24.146  1.00  0.00     0.177 HD
BRANCH   9  11
HETATM   11  S   UNL     1       8.179  -4.309  26.111  1.00  0.00     0.226 S 
HETATM   12  C   UNL     1       6.642  -4.817  26.447  1.00  0.00     0.186 C 
HETATM   13  O   UNL     1       9.078  -5.428  26.033  1.00  0.00    -0.206 OA
HETATM   14  O   UNL     1       8.551  -3.438  27.171  1.00  0.00    -0.206 OA
ENDBRANCH   9  11
ENDBRANCH   8   9
ENDBRANCH   1   7
BRANCH   1  15
HETATM   15  C   UNL     1       9.743  -0.592  22.358  1.00  0.00    -0.061 C 
BRANCH  15  16
HETATM   16  C   UNL     1       9.063   0.047  21.382  1.00  0.00     0.290 C 
HETATM   17  O   UNL     1       9.557   0.979  20.965  1.00  0.00    -0.259 OA
HETATM   18  N   UNL     1       7.940  -0.551  21.097  1.00  0.00    -0.315 N 
ATOM     19  HN  UNL     1       7.664  -1.388  21.610  1.00  0.00     0.170 HD
BRANCH  18  20
HETATM   20  C   UNL     1       7.189  -0.092  20.180  1.00  0.00     0.057 A 
HETATM   21  C   UNL     1       7.254  -0.021  18.884  1.00  0.00     0.117 A 
HETATM   22  N   UNL     1       6.765   0.323  17.785  1.00  0.00    -0.373 N 
HETATM   23  C   UNL     1       5.639   0.897  18.242  1.00  0.00     0.088 A 
ATOM     24  HN  UNL     1       7.114   0.204  16.834  1.00  0.00     0.164 HD
HETATM   25  C   UNL     1       5.254   0.975  19.405  1.00  0.00     0.026 A 
HETATM   26  C   UNL     1       5.809   0.554  20.560  1.00  0.00    -0.033 A 
HETATM   27  C   UNL     1       5.316   0.694  22.027  1.00  0.00     0.050 C 
ENDBRANCH  18  20
ENDBRANCH  15  16
ENDBRANCH   1  15
TORSDOF 6
