stable:False satoms:8 tatoms:24 sratio:0.3333333333333333
  -OEChem-07092417503D

 24 25  0     1  0  0  0  0  0999 V2000
    6.6417   -4.8175   26.4470 C   0  0  0  0  0  0  0  0  0  0  0  0
    8.1786   -4.3086   26.1114 S   0  0  0  0  0  0  0  0  0  0  0  0
    9.0778   -5.4285   26.0330 O   0  0  0  0  0  0  0  0  0  0  0  0
    8.5512   -3.4377   27.1709 O   0  0  0  0  0  0  0  0  0  0  0  0
    8.1464   -3.5649   24.6703 N   0  0  0  0  0  0  0  0  0  0  0  0
    8.9603   -2.9327   24.1501 C   0  0  0  0  0  0  0  0  0  0  0  0
    9.3839   -1.9818   23.4791 C   0  0  0  0  0  0  0  0  0  0  0  0
   10.2924   -1.1521   23.2367 C   0  0  1  0  0  0  0  0  0  0  0  0
   11.0896    0.0392   24.3112 C   0  0  0  0  0  0  0  0  0  0  0  0
   12.0459    0.2961   24.2774 C   0  0  0  0  0  0  0  0  0  0  0  0
   13.1589   -0.1945   23.4213 C   0  0  0  0  0  0  0  0  0  0  0  0
   12.7127   -1.2836   22.6152 C   0  0  0  0  0  0  0  0  0  0  0  0
   11.8147   -1.7373   22.4879 C   0  0  0  0  0  0  0  0  0  0  0  0
    9.7431   -0.5922   22.3581 C   0  0  0  0  0  0  0  0  0  0  0  0
    9.0635    0.0473   21.3819 C   0  0  0  0  0  0  0  0  0  0  0  0
    9.5574    0.9793   20.9648 O   0  0  0  0  0  0  0  0  0  0  0  0
    7.9402   -0.5510   21.0966 N   0  0  0  0  0  0  0  0  0  0  0  0
    7.1895   -0.0922   20.1795 C   0  0  0  0  0  0  0  0  0  0  0  0
    7.2536   -0.0207   18.8843 C   0  0  0  0  0  0  0  0  0  0  0  0
    6.7648    0.3231   17.7852 N   0  0  0  0  0  0  0  0  0  0  0  0
    5.6386    0.8975   18.2423 C   0  0  0  0  0  0  0  0  0  0  0  0
    5.2542    0.9745   19.4049 C   0  0  0  0  0  0  0  0  0  0  0  0
    5.8086    0.5544   20.5602 C   0  0  0  0  0  0  0  0  0  0  0  0
    5.3165    0.6938   22.0274 C   0  0  0  0  0  0  0  0  0  0  0  0
 20 21  2  0  0  0  0
 19 20  1  0  0  0  0
 21 22  1  0  0  0  0
 18 19  2  0  0  0  0
 22 23  2  0  0  0  0
 18 23  1  0  0  0  0
 17 18  1  0  0  0  0
 23 24  1  0  0  0  0
 15 16  2  0  0  0  0
 15 17  1  0  0  0  0
 14 15  1  0  0  0  0
  8 14  1  0  0  0  0
 12 13  1  0  0  0  0
  8 13  1  0  0  0  0
 11 12  2  0  0  0  0
  7  8  1  0  0  0  0
  8  9  1  0  0  0  0
 10 11  1  0  0  0  0
  6  7  2  3  0  0  0
  5  6  1  0  0  0  0
  9 10  2  0  0  0  0
  2  5  1  0  0  0  0
  2  3  2  0  0  0  0
  1  2  1  0  0  0  0
  2  4  2  0  0  0  0
M  END
> <Shapegauss>
-286.002686

$$$$
