stable:False satoms:11 tatoms:24 sratio:0.4583333333333333
  -OEChem-08062411273D

 33 33  0     1  0  0  0  0  0999 V2000
    5.8407   -5.3163   25.7985 Cl  0  0  0  0  0  0  0  0  0  0  0  0
    7.5903   -4.6709   25.6597 S   0  0  0  0  0  0  0  0  0  0  0  0
    8.4396   -5.8404   25.6678 O   0  0  0  0  0  0  0  0  0  0  0  0
    7.8085   -3.8232   26.7736 O   0  0  0  0  0  0  0  0  0  0  0  0
    7.6302   -3.9338   24.2414 N   0  0  0  0  0  0  0  0  0  0  0  0
    8.5520   -3.1404   23.9529 C   0  0  0  0  0  0  0  0  0  0  0  0
    9.1710   -2.2754   23.5493 C   0  0  0  0  0  0  0  0  0  0  0  0
   10.0074   -1.3457   23.0607 C   0  0  3  0  0  0  0  0  0  0  0  0
   12.5981   -0.7786   24.9401 H   0  0  0  0  0  0  0  0  0  0  0  0
   11.9182   -0.3131   24.2114 C   0  0  0  0  0  0  0  0  0  0  0  0
   11.0205    0.0542   24.7302 H   0  0  0  0  0  0  0  0  0  0  0  0
   12.4587   -1.5611   22.7985 C   0  0  0  0  0  0  0  0  0  0  0  0
   11.4881   -1.4105   23.0952 C   0  0  0  0  0  0  0  0  0  0  0  0
    9.6868   -0.3613   22.4159 N   0  0  0  0  0  0  0  0  0  0  0  0
    9.0404    0.1314   21.3267 C   0  0  0  0  0  0  0  0  0  0  0  0
    9.4978    1.1011   20.7806 O   0  0  0  0  0  0  0  0  0  0  0  0
    7.8903   -0.5127   20.9789 N   0  0  0  0  0  0  0  0  0  0  0  0
    7.2475    0.0207   19.9478 C   0  0  0  0  0  0  0  0  0  0  0  0
    7.6690    0.0826   18.7008 N   0  0  0  0  0  0  0  0  0  0  0  0
    7.0803    0.5512   17.7229 N   0  0  0  0  0  0  0  0  0  0  0  0
    6.0754    0.9855   18.0934 C   0  0  0  0  0  0  0  0  0  0  0  0
    5.5457    0.9812   19.1828 C   0  0  0  0  0  0  0  0  0  0  0  0
    5.9135    0.5433   20.2730 C   0  0  0  0  0  0  0  0  0  0  0  0
    5.4099    0.5413   21.2188 H   0  0  0  0  0  0  0  0  0  0  0  0
    6.7770   -3.4177   24.1653 H   0  0  0  0  0  0  0  0  0  0  0  0
    9.9811   -0.7802   24.0038 H   0  0  0  0  0  0  0  0  0  0  0  0
   12.4280    0.5289   23.7202 H   0  0  0  0  0  0  0  0  0  0  0  0
   13.2596   -1.0138   23.2734 H   0  0  0  0  0  0  0  0  0  0  0  0
   12.6795   -2.2668   22.0114 H   0  0  0  0  0  0  0  0  0  0  0  0
   10.0643    0.4279   22.9003 H   0  0  0  0  0  0  0  0  0  0  0  0
    7.5576   -1.3225   21.4622 H   0  0  0  0  0  0  0  0  0  0  0  0
    5.5034    1.4877   17.3273 H   0  0  0  0  0  0  0  0  0  0  0  0
    4.5715    1.4472   19.2010 H   0  0  0  0  0  0  0  0  0  0  0  0
 20 21  2  0  0  0  0
 19 20  1  0  0  0  0
 21 22  1  0  0  0  0
 18 19  2  0  0  0  0
 22 23  2  0  0  0  0
 18 23  1  0  0  0  0
 17 18  1  0  0  0  0
 23 24  1  0  0  0  0
 15 16  2  0  0  0  0
 15 17  1  0  0  0  0
 14 15  1  0  0  0  0
  8 14  1  0  0  0  0
 12 13  2  0  0  0  0
  8 13  1  0  0  0  0
 10 13  1  0  0  0  0
  7  8  1  0  0  0  0
  6  7  3  0  0  0  0
 10 11  1  0  0  0  0
  9 10  1  0  0  0  0
  5  6  1  0  0  0  0
  2  5  1  0  0  0  0
  2  3  2  0  0  0  0
  1  2  1  0  0  0  0
  2  4  2  0  0  0  0
  5 25  1  0  0  0  0
  8 26  1  0  0  0  0
 10 27  1  0  0  0  0
 12 28  1  0  0  0  0
 12 29  1  0  0  0  0
 14 30  1  0  0  0  0
 17 31  1  0  0  0  0
 21 32  1  0  0  0  0
 22 33  1  0  0  0  0
M  END
> <Chemgauss4>
-11.364863

$$$$
