stable:False satoms:11 tatoms:24 sratio:0.4583333333333333
  -OEChem-08062411273D

 33 33  0     1  0  0  0  0  0999 V2000
   -6.1271   -5.4622  -25.8482 Cl  0  0  0  0  0  0  0  0  0  0  0  0
   -7.8766   -4.8168  -25.7094 S   0  0  0  0  0  0  0  0  0  0  0  0
   -8.7259   -5.9863  -25.7175 O   0  0  0  0  0  0  0  0  0  0  0  0
   -8.0949   -3.9691  -26.8233 O   0  0  0  0  0  0  0  0  0  0  0  0
   -7.9165   -4.0797  -24.2911 N   0  0  0  0  0  0  0  0  0  0  0  0
   -8.8383   -3.2863  -24.0026 C   0  0  0  0  0  0  0  0  0  0  0  0
   -9.4574   -2.4213  -23.5990 C   0  0  0  0  0  0  0  0  0  0  0  0
  -10.2937   -1.4916  -23.1104 C   0  0  3  0  0  0  0  0  0  0  0  0
  -12.8844   -0.9245  -24.9898 H   0  0  0  0  0  0  0  0  0  0  0  0
  -12.2046   -0.4590  -24.2611 C   0  0  0  0  0  0  0  0  0  0  0  0
  -11.3068   -0.0917  -24.7799 H   0  0  0  0  0  0  0  0  0  0  0  0
  -12.7451   -1.7070  -22.8482 C   0  0  0  0  0  0  0  0  0  0  0  0
  -11.7745   -1.5564  -23.1449 C   0  0  0  0  0  0  0  0  0  0  0  0
   -9.9731   -0.5072  -22.4656 N   0  0  0  0  0  0  0  0  0  0  0  0
   -9.3268   -0.0145  -21.3763 C   0  0  0  0  0  0  0  0  0  0  0  0
   -9.7842    0.9552  -20.8303 O   0  0  0  0  0  0  0  0  0  0  0  0
   -8.1766   -0.6586  -21.0286 N   0  0  0  0  0  0  0  0  0  0  0  0
   -7.5338   -0.1252  -19.9975 C   0  0  0  0  0  0  0  0  0  0  0  0
   -7.9554   -0.0633  -18.7505 N   0  0  0  0  0  0  0  0  0  0  0  0
   -7.3667    0.4053  -17.7726 N   0  0  0  0  0  0  0  0  0  0  0  0
   -6.3618    0.8396  -18.1431 C   0  0  0  0  0  0  0  0  0  0  0  0
   -5.8320    0.8353  -19.2325 C   0  0  0  0  0  0  0  0  0  0  0  0
   -6.1999    0.3974  -20.3227 C   0  0  0  0  0  0  0  0  0  0  0  0
   -5.6962    0.3954  -21.2685 H   0  0  0  0  0  0  0  0  0  0  0  0
   -7.0634   -3.5636  -24.2150 H   0  0  0  0  0  0  0  0  0  0  0  0
  -10.2675   -0.9261  -24.0535 H   0  0  0  0  0  0  0  0  0  0  0  0
  -12.7143    0.3830  -23.7699 H   0  0  0  0  0  0  0  0  0  0  0  0
  -13.5460   -1.1597  -23.3230 H   0  0  0  0  0  0  0  0  0  0  0  0
  -12.9658   -2.4127  -22.0610 H   0  0  0  0  0  0  0  0  0  0  0  0
  -10.3507    0.2820  -22.9500 H   0  0  0  0  0  0  0  0  0  0  0  0
   -7.8440   -1.4684  -21.5119 H   0  0  0  0  0  0  0  0  0  0  0  0
   -5.7897    1.3418  -17.3770 H   0  0  0  0  0  0  0  0  0  0  0  0
   -4.8579    1.3012  -19.2507 H   0  0  0  0  0  0  0  0  0  0  0  0
 20 21  2  0  0  0  0
 19 20  1  0  0  0  0
 21 22  1  0  0  0  0
 18 19  2  0  0  0  0
 22 23  2  0  0  0  0
 18 23  1  0  0  0  0
 17 18  1  0  0  0  0
 23 24  1  0  0  0  0
 15 16  2  0  0  0  0
 15 17  1  0  0  0  0
 14 15  1  0  0  0  0
  8 14  1  0  0  0  0
 12 13  2  0  0  0  0
  8 13  1  0  0  0  0
 10 13  1  0  0  0  0
  7  8  1  0  0  0  0
  6  7  3  0  0  0  0
 10 11  1  0  0  0  0
  9 10  1  0  0  0  0
  5  6  1  0  0  0  0
  2  5  1  0  0  0  0
  2  3  2  0  0  0  0
  1  2  1  0  0  0  0
  2  4  2  0  0  0  0
  5 25  1  0  0  0  0
  8 26  1  0  0  0  0
 10 27  1  0  0  0  0
 12 28  1  0  0  0  0
 12 29  1  0  0  0  0
 14 30  1  0  0  0  0
 17 31  1  0  0  0  0
 21 32  1  0  0  0  0
 22 33  1  0  0  0  0
M  END
> <Chemgauss4>
-11.764330

$$$$
