
 OpenBabel07202414123D

 71 74  0  0  1  0  0  0  0  0999 V2000
    2.1251    0.4519   -1.1116 C   0  0  0  0  0  0  0  0  0  0  0  0
    1.5942   -0.2396    0.1634 C   0  0  0  0  0  0  0  0  0  0  0  0
    1.6688    0.7571    1.3332 C   0  0  0  0  0  0  0  0  0  0  0  0
    0.1002   -0.5601   -0.1090 C   0  0  0  0  0  0  0  0  0  0  0  0
    2.3949   -1.5078    0.5140 C   0  0  0  0  0  0  0  0  0  0  0  0
    3.7391   -1.6985    0.1439 C   0  0  0  0  0  0  0  0  0  0  0  0
    4.3990   -2.9313    0.3447 C   0  0  0  0  0  0  0  0  0  0  0  0
    3.7268   -4.0114    0.9175 C   0  0  0  0  0  0  0  0  0  0  0  0
    4.2783   -5.3338    0.8962 N   0  0  0  0  0  0  0  0  0  0  0  0
    3.4212   -6.4376    0.4028 C   0  0  3  0  0  0  0  0  0  0  0  0
    2.6494   -7.1703    1.5345 C   0  0  0  0  0  0  0  0  0  0  0  0
    1.8831   -6.6132    2.3192 O   0  0  0  0  0  0  0  0  0  0  0  0
    2.8398   -8.5408    1.5910 N   0  0  0  0  0  0  0  0  0  0  0  0
    2.0597   -9.3579    2.5117 C   0  0  0  0  0  0  0  0  0  0  0  0
    0.5644   -9.3099    2.1721 C   0  0  0  0  0  0  0  0  0  0  0  0
   -0.3231  -10.1482    3.0558 C   0  0  0  0  0  0  0  0  0  0  0  0
   -0.8441   -9.6185    4.2476 C   0  0  0  0  0  0  0  0  0  0  0  0
   -1.7685  -10.3450    5.0031 C   0  0  0  0  0  0  0  0  0  0  0  0
   -2.1712  -11.6101    4.5805 C   0  0  0  0  0  0  0  0  0  0  0  0
   -1.6337  -12.1438    3.4153 C   0  0  0  0  0  0  0  0  0  0  0  0
   -2.0279  -13.3562    3.0027 F   0  0  0  0  0  0  0  0  0  0  0  0
   -0.7126  -11.4312    2.6548 C   0  0  0  0  0  0  0  0  0  0  0  0
    2.5968   -6.2262   -0.8669 C   0  0  0  0  0  0  0  0  0  0  0  0
    3.1710   -6.4972   -2.1236 C   0  0  0  0  0  0  0  0  0  0  0  0
    2.3635   -6.6437   -3.2469 C   0  0  0  0  0  0  0  0  0  0  0  0
    1.0009   -6.4686   -3.0927 C   0  0  0  0  0  0  0  0  0  0  0  0
    0.4212   -6.1095   -1.9297 N   0  0  0  0  0  0  0  0  0  0  0  0
    1.2276   -5.9859   -0.8463 C   0  0  0  0  0  0  0  0  0  0  0  0
    5.5641   -5.5705    1.4813 C   0  0  0  0  0  0  0  0  0  0  0  0
    6.1970   -4.6737    2.0348 O   0  0  0  0  0  0  0  0  0  0  0  0
    6.1680   -6.9529    1.4818 C   0  0  0  0  0  0  0  0  0  0  0  0
    7.2088   -7.4308    2.3449 C   0  0  0  0  0  0  0  0  0  0  0  0
    7.5245   -8.6992    1.9039 C   0  0  0  0  0  0  0  0  0  0  0  0
    8.5429   -9.7009    2.2628 C   0  0  0  0  0  0  0  0  0  0  0  0
    7.8384  -10.8969    2.5610 O   0  0  0  0  0  0  0  0  0  0  0  0
    6.6664   -8.9479    0.8812 N   0  0  0  0  0  0  0  0  0  0  0  0
    5.8493   -7.9299    0.6080 N   0  0  0  0  0  0  0  0  0  0  0  0
    2.4500   -3.7661    1.4226 C   0  0  0  0  0  0  0  0  0  0  0  0
    1.7952   -2.5466    1.2293 C   0  0  0  0  0  0  0  0  0  0  0  0
    1.4757    1.2832   -1.4115 H   0  0  0  0  0  0  0  0  0  0  0  0
    2.1717   -0.2497   -1.9532 H   0  0  0  0  0  0  0  0  0  0  0  0
    3.1247    0.8734   -0.9640 H   0  0  0  0  0  0  0  0  0  0  0  0
    1.0984    1.6658    1.1125 H   0  0  0  0  0  0  0  0  0  0  0  0
    2.7040    1.0550    1.5387 H   0  0  0  0  0  0  0  0  0  0  0  0
    1.2605    0.3272    2.2559 H   0  0  0  0  0  0  0  0  0  0  0  0
   -0.4366    0.3224   -0.4770 H   0  0  0  0  0  0  0  0  0  0  0  0
   -0.4284   -0.8830    0.7949 H   0  0  0  0  0  0  0  0  0  0  0  0
   -0.0069   -1.3508   -0.8614 H   0  0  0  0  0  0  0  0  0  0  0  0
    4.2976   -0.9035   -0.3447 H   0  0  0  0  0  0  0  0  0  0  0  0
    5.4180   -3.0410   -0.0171 H   0  0  0  0  0  0  0  0  0  0  0  0
    4.0727   -7.1979    0.0090 H   0  0  0  0  0  0  0  0  0  0  0  0
    3.7341   -8.8861    1.2602 H   0  0  0  0  0  0  0  0  0  0  0  0
    2.2508   -9.0064    3.5326 H   0  0  0  0  0  0  0  0  0  0  0  0
    2.4393  -10.3816    2.4300 H   0  0  0  0  0  0  0  0  0  0  0  0
    0.4225   -9.6102    1.1266 H   0  0  0  0  0  0  0  0  0  0  0  0
    0.1852   -8.2812    2.2157 H   0  0  0  0  0  0  0  0  0  0  0  0
   -0.5619   -8.6181    4.5722 H   0  0  0  0  0  0  0  0  0  0  0  0
   -2.1905   -9.9134    5.9076 H   0  0  0  0  0  0  0  0  0  0  0  0
   -2.9064  -12.1766    5.1425 H   0  0  0  0  0  0  0  0  0  0  0  0
   -0.3387  -11.8696    1.7349 H   0  0  0  0  0  0  0  0  0  0  0  0
    4.2410   -6.6772   -2.2173 H   0  0  0  0  0  0  0  0  0  0  0  0
    2.7804   -6.9299   -4.2079 H   0  0  0  0  0  0  0  0  0  0  0  0
    0.3177   -6.6328   -3.9213 H   0  0  0  0  0  0  0  0  0  0  0  0
    0.7017   -5.7350    0.0703 H   0  0  0  0  0  0  0  0  0  0  0  0
    7.6807   -6.8797    3.1497 H   0  0  0  0  0  0  0  0  0  0  0  0
    9.1569   -9.4077    3.1159 H   0  0  0  0  0  0  0  0  0  0  0  0
    9.1980   -9.9012    1.4069 H   0  0  0  0  0  0  0  0  0  0  0  0
    7.4458  -10.7713    3.4445 H   0  0  0  0  0  0  0  0  0  0  0  0
    6.5925   -9.7998    0.3313 H   0  0  0  0  0  0  0  0  0  0  0  0
    1.9161   -4.5030    2.0046 H   0  0  0  0  0  0  0  0  0  0  0  0
    0.7888   -2.4533    1.6323 H   0  0  0  0  0  0  0  0  0  0  0  0
  1  2  1  0  0  0  0
  1 40  1  0  0  0  0
  1 41  1  0  0  0  0
  1 42  1  0  0  0  0
  2  3  1  0  0  0  0
  2  4  1  0  0  0  0
  2  5  1  0  0  0  0
  3 43  1  0  0  0  0
  3 44  1  0  0  0  0
  3 45  1  0  0  0  0
  4 46  1  0  0  0  0
  4 47  1  0  0  0  0
  4 48  1  0  0  0  0
  5  6  1  0  0  0  0
  5 39  2  0  0  0  0
  6  7  2  0  0  0  0
  6 49  1  0  0  0  0
  7  8  1  0  0  0  0
  7 50  1  0  0  0  0
  8  9  1  0  0  0  0
  8 38  2  0  0  0  0
  9 10  1  0  0  0  0
  9 29  1  0  0  0  0
 10 11  1  0  0  0  0
 10 23  1  0  0  0  0
 10 51  1  0  0  0  0
 11 12  2  0  0  0  0
 11 13  1  0  0  0  0
 13 14  1  0  0  0  0
 13 52  1  0  0  0  0
 14 15  1  0  0  0  0
 14 53  1  0  0  0  0
 14 54  1  0  0  0  0
 15 16  1  0  0  0  0
 15 55  1  0  0  0  0
 15 56  1  0  0  0  0
 16 17  1  0  0  0  0
 16 22  2  0  0  0  0
 17 18  2  0  0  0  0
 17 57  1  0  0  0  0
 18 19  1  0  0  0  0
 18 58  1  0  0  0  0
 19 20  2  0  0  0  0
 19 59  1  0  0  0  0
 20 21  1  0  0  0  0
 20 22  1  0  0  0  0
 22 60  1  0  0  0  0
 23 24  1  0  0  0  0
 23 28  2  0  0  0  0
 24 25  2  0  0  0  0
 24 61  1  0  0  0  0
 25 26  1  0  0  0  0
 25 62  1  0  0  0  0
 26 27  2  0  0  0  0
 26 63  1  0  0  0  0
 27 28  1  0  0  0  0
 28 64  1  0  0  0  0
 29 30  2  0  0  0  0
 29 31  1  0  0  0  0
 31 32  1  0  0  0  0
 31 37  2  0  0  0  0
 32 33  2  0  0  0  0
 32 65  1  0  0  0  0
 33 34  1  0  0  0  0
 33 36  1  0  0  0  0
 34 35  1  0  0  0  0
 34 66  1  0  0  0  0
 34 67  1  0  0  0  0
 35 68  1  0  0  0  0
 36 37  1  0  0  0  0
 36 69  1  0  0  0  0
 38 39  1  0  0  0  0
 38 70  1  0  0  0  0
 39 71  1  0  0  0  0
M  END
$$$$
