stable:False satoms:5 tatoms:24 sratio:0.20833333333333334
  -OEChem-07092417513D

 24 24  0     1  0  0  0  0  0999 V2000
    6.5761   -4.8450   26.4830 C   0  0  0  0  0  0  0  0  0  0  0  0
    8.1980   -4.2966   26.1119 S   0  0  0  0  0  0  0  0  0  0  0  0
    9.0397   -5.4836   26.0914 O   0  0  0  0  0  0  0  0  0  0  0  0
    8.6083   -3.3905   27.1423 O   0  0  0  0  0  0  0  0  0  0  0  0
    8.1074   -3.6296   24.6454 N   0  0  0  0  0  0  0  0  0  0  0  0
    8.9595   -2.9208   24.1750 C   0  0  0  0  0  0  0  0  0  0  0  0
    9.4048   -1.9685   23.5401 C   0  0  0  0  0  0  0  0  0  0  0  0
   10.2869   -1.1309   23.2728 C   0  0  2  0  0  0  0  0  0  0  0  0
   11.0268   -0.0066   24.2531 C   0  0  0  0  0  0  0  0  0  0  0  0
   12.0582    0.3069   24.2055 C   0  0  0  0  0  0  0  0  0  0  0  0
   13.1103   -0.1334   23.4430 C   0  0  0  0  0  0  0  0  0  0  0  0
   12.7136   -1.2932   22.5996 C   0  0  0  0  0  0  0  0  0  0  0  0
   11.8260   -1.7535   22.4625 C   0  0  0  0  0  0  0  0  0  0  0  0
    9.7386   -0.5740   22.3364 C   0  0  0  0  0  0  0  0  0  0  0  0
    9.0717    0.0517   21.3860 C   0  0  0  0  0  0  0  0  0  0  0  0
    9.5407    0.9978   20.9763 O   0  0  0  0  0  0  0  0  0  0  0  0
    7.9259   -0.5581   21.0968 N   0  0  0  0  0  0  0  0  0  0  0  0
    7.2086   -0.1118   20.1826 C   0  0  0  0  0  0  0  0  0  0  0  0
    7.2704   -0.0126   18.8638 C   0  0  0  0  0  0  0  0  0  0  0  0
    6.7646    0.3432   17.7709 N   0  0  0  0  0  0  0  0  0  0  0  0
    5.6481    0.8665   18.2650 C   0  0  0  0  0  0  0  0  0  0  0  0
    5.2765    0.9821   19.3936 C   0  0  0  0  0  0  0  0  0  0  0  0
    5.8451    0.5691   20.5512 C   0  0  0  0  0  0  0  0  0  0  0  0
    5.3783    0.7013   22.0487 C   0  0  0  0  0  0  0  0  0  0  0  0
 20 21  2  0  0  0  0
 19 20  1  0  0  0  0
 21 22  1  0  0  0  0
 18 19  2  0  0  0  0
 22 23  2  0  0  0  0
 18 23  1  0  0  0  0
 17 18  1  0  0  0  0
 23 24  1  0  0  0  0
 15 16  2  0  0  0  0
 15 17  1  0  0  0  0
 14 15  1  0  0  0  0
  8 14  1  0  0  0  0
 12 13  2  0  0  0  0
 11 12  1  0  0  0  0
  7  8  1  0  0  0  0
  8  9  1  0  0  0  0
 10 11  1  0  0  0  0
  6  7  2  0  0  0  0
  5  6  1  0  0  0  0
  9 10  2  0  0  0  0
  2  5  1  0  0  0  0
  2  3  2  0  0  0  0
  1  2  1  0  0  0  0
  2  4  2  0  0  0  0
M  END
> <Shapegauss>
-285.745270

$$$$
