stable:False satoms:5 tatoms:24 sratio:0.20833333333333334
  -OEChem-08062418053D

 47 47  0     1  0  0  0  0  0999 V2000
   -6.4012   -5.3559  -26.0329 C   0  0  0  0  0  0  0  0  0  0  0  0
   -8.0453   -4.7855  -25.8321 S   0  0  0  0  0  0  0  0  0  0  0  0
   -8.8867   -5.9707  -25.7598 O   0  0  0  0  0  0  0  0  0  0  0  0
   -8.3803   -3.9832  -26.9702 O   0  0  0  0  0  0  0  0  0  0  0  0
   -8.0600   -3.9826  -24.4325 N   0  0  0  0  0  0  0  0  0  0  0  0
   -8.9434   -3.2382  -24.0933 C   0  0  0  0  0  0  0  0  0  0  0  0
   -9.4328   -2.2332  -23.5846 C   0  0  0  0  0  0  0  0  0  0  0  0
  -10.3315   -1.3798  -23.4614 C   0  0  2  0  0  0  0  0  0  0  0  0
  -10.9988   -0.3577  -24.5939 C   0  0  0  0  0  0  0  0  0  0  0  0
  -12.0308   -0.0478  -24.6500 C   0  0  0  0  0  0  0  0  0  0  0  0
  -13.1351   -0.4210  -23.9265 C   0  0  0  0  0  0  0  0  0  0  0  0
  -12.8003   -1.4936  -22.9511 C   0  0  0  0  0  0  0  0  0  0  0  0
  -11.9250   -1.9332  -22.7080 C   0  0  0  0  0  0  0  0  0  0  0  0
   -9.8517   -0.7336  -22.5450 C   0  0  0  0  0  0  0  0  0  0  0  0
   -9.2545   -0.0168  -21.6128 C   0  0  0  0  0  0  0  0  0  0  0  0
   -9.7514    0.9607  -21.3288 O   0  0  0  0  0  0  0  0  0  0  0  0
   -8.1326   -0.5892  -21.1861 N   0  0  0  0  0  0  0  0  0  0  0  0
   -7.4826   -0.0541  -20.2692 C   0  0  0  0  0  0  0  0  0  0  0  0
   -7.6389    0.1685  -18.9735 C   0  0  0  0  0  0  0  0  0  0  0  0
   -7.2127    0.6290  -17.8857 N   0  0  0  0  0  0  0  0  0  0  0  0
   -6.0634    1.1106  -18.3460 C   0  0  0  0  0  0  0  0  0  0  0  0
   -5.6118    1.1217  -19.4510 C   0  0  0  0  0  0  0  0  0  0  0  0
   -6.0959    0.5978  -20.6021 C   0  0  0  0  0  0  0  0  0  0  0  0
   -5.5228    0.5912  -22.0682 C   0  0  0  0  0  0  0  0  0  0  0  0
   -6.3196   -5.9166  -26.9757 H   0  0  0  0  0  0  0  0  0  0  0  0
   -5.7153   -4.4963  -26.0571 H   0  0  0  0  0  0  0  0  0  0  0  0
   -6.1359   -6.0130  -25.1915 H   0  0  0  0  0  0  0  0  0  0  0  0
   -7.2247   -3.4329  -24.4264 H   0  0  0  0  0  0  0  0  0  0  0  0
   -9.8217   -3.7623  -24.4402 H   0  0  0  0  0  0  0  0  0  0  0  0
   -8.6913   -1.9276  -22.8613 H   0  0  0  0  0  0  0  0  0  0  0  0
  -11.2139   -1.9023  -23.0633 H   0  0  0  0  0  0  0  0  0  0  0  0
  -10.3320    0.0342  -25.3477 H   0  0  0  0  0  0  0  0  0  0  0  0
  -12.2306    0.6894  -25.4136 H   0  0  0  0  0  0  0  0  0  0  0  0
  -13.9079   -0.7913  -24.6161 H   0  0  0  0  0  0  0  0  0  0  0  0
  -13.5192    0.4535  -23.3808 H   0  0  0  0  0  0  0  0  0  0  0  0
  -13.6504   -1.8711  -22.4023 H   0  0  0  0  0  0  0  0  0  0  0  0
  -11.9005   -2.7086  -21.9567 H   0  0  0  0  0  0  0  0  0  0  0  0
  -11.0128   -1.6282  -23.1992 H   0  0  0  0  0  0  0  0  0  0  0  0
   -9.9483   -1.5885  -21.8597 H   0  0  0  0  0  0  0  0  0  0  0  0
  -10.7546   -0.1085  -22.4811 H   0  0  0  0  0  0  0  0  0  0  0  0
   -7.8137   -1.4426  -21.5984 H   0  0  0  0  0  0  0  0  0  0  0  0
   -8.6053   -0.2509  -18.7359 H   0  0  0  0  0  0  0  0  0  0  0  0
   -5.4338    1.5675  -17.5969 H   0  0  0  0  0  0  0  0  0  0  0  0
   -4.6647    1.6316  -19.5483 H   0  0  0  0  0  0  0  0  0  0  0  0
   -4.9090   -0.3091  -22.2184 H   0  0  0  0  0  0  0  0  0  0  0  0
   -6.3553    0.5915  -22.7871 H   0  0  0  0  0  0  0  0  0  0  0  0
   -4.9038    1.4871  -22.2237 H   0  0  0  0  0  0  0  0  0  0  0  0
 20 21  2  0  0  0  0
 19 20  1  0  0  0  0
 21 22  1  0  0  0  0
 18 19  2  0  0  0  0
 22 23  2  0  0  0  0
 18 23  1  0  0  0  0
 17 18  1  0  0  0  0
 23 24  1  0  0  0  0
 15 16  2  0  0  0  0
 15 17  1  0  0  0  0
 14 15  1  0  0  0  0
  8 14  1  0  0  0  0
 12 13  2  0  0  0  0
 11 12  1  0  0  0  0
  7  8  1  0  0  0  0
  8  9  1  0  0  0  0
 10 11  1  0  0  0  0
  6  7  2  0  0  0  0
  5  6  1  0  0  0  0
  9 10  2  0  0  0  0
  2  5  1  0  0  0  0
  2  3  2  0  0  0  0
  1  2  1  0  0  0  0
  2  4  2  0  0  0  0
  1 25  1  0  0  0  0
  1 26  1  0  0  0  0
  1 27  1  0  0  0  0
  5 28  1  0  0  0  0
  6 29  1  0  0  0  0
  7 30  1  0  0  0  0
  8 31  1  0  0  0  0
  9 32  1  0  0  0  0
 10 33  1  0  0  0  0
 11 34  1  0  0  0  0
 11 35  1  0  0  0  0
 12 36  1  0  0  0  0
 13 37  1  0  0  0  0
 13 38  1  0  0  0  0
 14 39  1  0  0  0  0
 14 40  1  0  0  0  0
 17 41  1  0  0  0  0
 19 42  1  0  0  0  0
 21 43  1  0  0  0  0
 22 44  1  0  0  0  0
 24 45  1  0  0  0  0
 24 46  1  0  0  0  0
 24 47  1  0  0  0  0
M  END
> <Chemgauss4>
-12.998285

$$$$
