stable:False satoms:5 tatoms:24 sratio:0.20833333333333334
  -OEChem-08062418053D

 47 47  0     1  0  0  0  0  0999 V2000
    6.3059   -5.2594   26.2959 C   0  0  0  0  0  0  0  0  0  0  0  0
    7.9257   -4.6237   26.0928 S   0  0  0  0  0  0  0  0  0  0  0  0
    8.8242   -5.7681   26.1232 O   0  0  0  0  0  0  0  0  0  0  0  0
    8.1923   -3.7291   27.1789 O   0  0  0  0  0  0  0  0  0  0  0  0
    7.9386   -3.9199   24.6409 N   0  0  0  0  0  0  0  0  0  0  0  0
    8.7941   -3.1580   24.2703 C   0  0  0  0  0  0  0  0  0  0  0  0
    9.2481   -2.1677   23.7034 C   0  0  0  0  0  0  0  0  0  0  0  0
   10.1081   -1.2816   23.5408 C   0  0  2  0  0  0  0  0  0  0  0  0
   10.6961   -0.1519   24.6135 C   0  0  0  0  0  0  0  0  0  0  0  0
   11.7104    0.2118   24.6710 C   0  0  0  0  0  0  0  0  0  0  0  0
   12.8497   -0.1557   24.0008 C   0  0  0  0  0  0  0  0  0  0  0  0
   12.5920   -1.3084   23.0960 C   0  0  0  0  0  0  0  0  0  0  0  0
   11.7453   -1.8064   22.8646 C   0  0  0  0  0  0  0  0  0  0  0  0
    9.6221   -0.7248   22.5706 C   0  0  0  0  0  0  0  0  0  0  0  0
    9.0159   -0.1046   21.5769 C   0  0  0  0  0  0  0  0  0  0  0  0
    9.4729    0.8742   21.2362 O   0  0  0  0  0  0  0  0  0  0  0  0
    7.9341   -0.7598   21.1662 N   0  0  0  0  0  0  0  0  0  0  0  0
    7.2835   -0.3222   20.1994 C   0  0  0  0  0  0  0  0  0  0  0  0
    7.4627   -0.1823   18.8951 C   0  0  0  0  0  0  0  0  0  0  0  0
    7.0436    0.1802   17.7683 N   0  0  0  0  0  0  0  0  0  0  0  0
    5.8611    0.6352   18.1673 C   0  0  0  0  0  0  0  0  0  0  0  0
    5.3807    0.7004   19.2582 C   0  0  0  0  0  0  0  0  0  0  0  0
    5.8591    0.2819   20.4540 C   0  0  0  0  0  0  0  0  0  0  0  0
    5.2489    0.3486   21.9035 C   0  0  0  0  0  0  0  0  0  0  0  0
    6.2266   -5.7569   27.2737 H   0  0  0  0  0  0  0  0  0  0  0  0
    5.5795   -4.4350   26.2440 H   0  0  0  0  0  0  0  0  0  0  0  0
    6.0943   -5.9854   25.4970 H   0  0  0  0  0  0  0  0  0  0  0  0
    7.0785   -3.4138   24.5772 H   0  0  0  0  0  0  0  0  0  0  0  0
    9.6870   -3.6128   24.6731 H   0  0  0  0  0  0  0  0  0  0  0  0
    8.5121   -1.9499   22.9437 H   0  0  0  0  0  0  0  0  0  0  0  0
   11.0244   -1.7861   23.2006 H   0  0  0  0  0  0  0  0  0  0  0  0
    9.9919    0.2579   25.3224 H   0  0  0  0  0  0  0  0  0  0  0  0
   11.8548    1.0090   25.3852 H   0  0  0  0  0  0  0  0  0  0  0  0
   13.6210   -0.4388   24.7322 H   0  0  0  0  0  0  0  0  0  0  0  0
   13.2058    0.6968   23.4038 H   0  0  0  0  0  0  0  0  0  0  0  0
   13.4731   -1.6805   22.5945 H   0  0  0  0  0  0  0  0  0  0  0  0
   11.7773   -2.6322   22.1694 H   0  0  0  0  0  0  0  0  0  0  0  0
   10.8071   -1.5135   23.3123 H   0  0  0  0  0  0  0  0  0  0  0  0
    9.7772   -1.6193   21.9495 H   0  0  0  0  0  0  0  0  0  0  0  0
   10.4955   -0.0619   22.4834 H   0  0  0  0  0  0  0  0  0  0  0  0
    7.6456   -1.5974   21.6302 H   0  0  0  0  0  0  0  0  0  0  0  0
    8.4539   -0.5690   18.7097 H   0  0  0  0  0  0  0  0  0  0  0  0
    5.2301    1.0075   17.3738 H   0  0  0  0  0  0  0  0  0  0  0  0
    4.4082    1.1684   19.2979 H   0  0  0  0  0  0  0  0  0  0  0  0
    4.6750   -0.5684   22.1028 H   0  0  0  0  0  0  0  0  0  0  0  0
    6.0614    0.4396   22.6394 H   0  0  0  0  0  0  0  0  0  0  0  0
    4.5840    1.2214   21.9815 H   0  0  0  0  0  0  0  0  0  0  0  0
 20 21  2  0  0  0  0
 19 20  1  0  0  0  0
 21 22  1  0  0  0  0
 18 19  2  0  0  0  0
 22 23  2  0  0  0  0
 18 23  1  0  0  0  0
 17 18  1  0  0  0  0
 23 24  1  0  0  0  0
 15 16  2  0  0  0  0
 15 17  1  0  0  0  0
 14 15  1  0  0  0  0
  8 14  1  0  0  0  0
 12 13  2  0  0  0  0
 11 12  1  0  0  0  0
  7  8  1  0  0  0  0
  8  9  1  0  0  0  0
 10 11  1  0  0  0  0
  6  7  2  0  0  0  0
  5  6  1  0  0  0  0
  9 10  2  0  0  0  0
  2  5  1  0  0  0  0
  2  3  2  0  0  0  0
  1  2  1  0  0  0  0
  2  4  2  0  0  0  0
  1 25  1  0  0  0  0
  1 26  1  0  0  0  0
  1 27  1  0  0  0  0
  5 28  1  0  0  0  0
  6 29  1  0  0  0  0
  7 30  1  0  0  0  0
  8 31  1  0  0  0  0
  9 32  1  0  0  0  0
 10 33  1  0  0  0  0
 11 34  1  0  0  0  0
 11 35  1  0  0  0  0
 12 36  1  0  0  0  0
 13 37  1  0  0  0  0
 13 38  1  0  0  0  0
 14 39  1  0  0  0  0
 14 40  1  0  0  0  0
 17 41  1  0  0  0  0
 19 42  1  0  0  0  0
 21 43  1  0  0  0  0
 22 44  1  0  0  0  0
 24 45  1  0  0  0  0
 24 46  1  0  0  0  0
 24 47  1  0  0  0  0
M  END
> <Chemgauss4>
-12.984994

$$$$
