MODEL 1
REMARK VINA RESULT:    -5.304      0.000      0.000
REMARK INTER + INTRA:          -6.971
REMARK INTER:                  -6.699
REMARK INTRA:                  -0.272
REMARK UNBOUND:                -0.272
REMARK  5 active torsions:
REMARK  status: ('A' for Active; 'I' for Inactive)
REMARK    1  A    between atoms: C_2  and  O_17 
REMARK       I    between atoms: C_6  and  N_12 
REMARK    2  A    between atoms: C_6  and  C_15 
REMARK    3  A    between atoms: C_7  and  O_14 
REMARK    4  A    between atoms: C_7  and  C_10 
REMARK    5  A    between atoms: C_10  and  N_12 
ROOT
HETATM    1  H   UNL     1      11.684  14.413   3.152  1.00  0.00     0.189 HD
HETATM    2  C   UNL     1      10.117  15.710   3.451  1.00  0.00     0.168 C 
HETATM    3  N   UNL     1       9.810  13.558   2.914  1.00  0.00    -0.293 N 
HETATM    4  C   UNL     1       7.913  16.518   2.697  1.00  0.00     0.030 C 
HETATM    5  H   UNL     1      10.020  12.582   2.797  1.00  0.00     0.187 HD
HETATM    6  C   UNL     1       8.615  14.035   3.097  1.00  0.00     0.130 C 
HETATM    7  C   UNL     1       8.702  15.484   3.106  1.00  0.00     0.041 C 
HETATM    8  N   UNL     1      10.707  14.543   3.157  1.00  0.00    -0.279 N 
ENDROOT
BRANCH   6   9
HETATM    9  C   UNL     1       7.607  12.975   3.392  1.00  0.00     0.274 C 
HETATM   10  N   UNL     1       6.606  13.032   2.581  1.00  0.00    -0.330 N 
ATOM     11  HN  UNL     1       6.030  13.860   2.734  1.00  0.00     0.168 HD
HETATM   12  O   UNL     1       7.757  12.217   4.349  1.00  0.00    -0.266 OA
BRANCH  10  13
HETATM   13  C   UNL     1       6.157  12.292   1.621  1.00  0.00     0.115 C 
BRANCH  13  14
HETATM   14  C   UNL     1       6.897  11.184   1.360  1.00  0.00     0.148 C 
BRANCH  14  15
HETATM   15  O   UNL     1       7.007  10.889   0.093  1.00  0.00    -0.371 OA
HETATM   16  H   UNL     1       6.418  10.969  -0.645  1.00  0.00     0.216 HD
ENDBRANCH  14  15
ENDBRANCH  13  14
ENDBRANCH  10  13
ENDBRANCH   6   9
BRANCH   2  17
HETATM   17  O   UNL     1      10.882  16.712   3.921  1.00  0.00    -0.339 OA
HETATM   18  C   UNL     1      10.590  17.068   5.286  1.00  0.00     0.211 C 
ENDBRANCH   2  17
TORSDOF 5
ENDMDL
MODEL 2
REMARK VINA RESULT:    -5.006     22.839     24.177
REMARK INTER + INTRA:          -6.595
REMARK INTER:                  -6.148
REMARK INTRA:                  -0.447
REMARK UNBOUND:                -0.272
REMARK  5 active torsions:
REMARK  status: ('A' for Active; 'I' for Inactive)
REMARK    1  A    between atoms: C_2  and  O_17 
REMARK       I    between atoms: C_6  and  N_12 
REMARK    2  A    between atoms: C_6  and  C_15 
REMARK    3  A    between atoms: C_7  and  O_14 
REMARK    4  A    between atoms: C_7  and  C_10 
REMARK    5  A    between atoms: C_10  and  N_12 
ROOT
HETATM    1  H   UNL     1       5.124  -0.757  19.757  1.00  0.00     0.189 HD
HETATM    2  C   UNL     1       6.993   0.071  19.965  1.00  0.00     0.168 C 
HETATM    3  N   UNL     1       6.230  -1.529  21.332  1.00  0.00    -0.293 N 
HETATM    4  C   UNL     1       8.717   0.959  21.488  1.00  0.00     0.030 C 
HETATM    5  H   UNL     1       5.659  -2.290  21.658  1.00  0.00     0.187 HD
HETATM    6  C   UNL     1       7.454  -1.314  21.713  1.00  0.00     0.130 C 
HETATM    7  C   UNL     1       7.901  -0.068  21.118  1.00  0.00     0.041 C 
HETATM    8  N   UNL     1       5.964  -0.732  20.271  1.00  0.00    -0.279 N 
ENDROOT
BRANCH   6   9
HETATM    9  C   UNL     1       8.033  -2.460  22.475  1.00  0.00     0.274 C 
HETATM   10  N   UNL     1       9.320  -2.393  22.527  1.00  0.00    -0.330 N 
ATOM     11  HN  UNL     1       9.754  -2.558  21.619  1.00  0.00     0.168 HD
HETATM   12  O   UNL     1       7.308  -3.350  22.915  1.00  0.00    -0.266 OA
BRANCH  10  13
HETATM   13  C   UNL     1      10.192  -2.167  23.454  1.00  0.00     0.115 C 
BRANCH  13  14
HETATM   14  C   UNL     1      11.270  -1.442  23.059  1.00  0.00     0.148 C 
BRANCH  14  15
HETATM   15  O   UNL     1      11.552  -1.532  21.787  1.00  0.00    -0.371 OA
HETATM   16  H   UNL     1      11.025  -1.700  21.017  1.00  0.00     0.216 HD
ENDBRANCH  14  15
ENDBRANCH  13  14
ENDBRANCH  10  13
ENDBRANCH   6   9
BRANCH   2  17
HETATM   17  O   UNL     1       6.946   0.758  18.809  1.00  0.00    -0.339 OA
HETATM   18  C   UNL     1       5.734   0.541  18.060  1.00  0.00     0.211 C 
ENDBRANCH   2  17
TORSDOF 5
ENDMDL
MODEL 3
REMARK VINA RESULT:    -4.976     23.495     24.661
REMARK INTER + INTRA:          -6.556
REMARK INTER:                  -6.272
REMARK INTRA:                  -0.284
REMARK UNBOUND:                -0.272
REMARK  5 active torsions:
REMARK  status: ('A' for Active; 'I' for Inactive)
REMARK    1  A    between atoms: C_2  and  O_17 
REMARK       I    between atoms: C_6  and  N_12 
REMARK    2  A    between atoms: C_6  and  C_15 
REMARK    3  A    between atoms: C_7  and  O_14 
REMARK    4  A    between atoms: C_7  and  C_10 
REMARK    5  A    between atoms: C_10  and  N_12 
ROOT
HETATM    1  H   UNL     1       9.369  -3.648  23.121  1.00  0.00     0.189 HD
HETATM    2  C   UNL     1       9.456  -1.958  24.287  1.00  0.00     0.168 C 
HETATM    3  N   UNL     1       9.732  -1.901  22.066  1.00  0.00    -0.293 N 
HETATM    4  C   UNL     1      10.596   0.173  24.779  1.00  0.00     0.030 C 
HETATM    5  H   UNL     1       9.687  -2.201  21.108  1.00  0.00     0.187 HD
HETATM    6  C   UNL     1       9.774  -0.658  22.445  1.00  0.00     0.130 C 
HETATM    7  C   UNL     1       9.950  -0.628  23.885  1.00  0.00     0.041 C 
HETATM    8  N   UNL     1       9.509  -2.673  23.155  1.00  0.00    -0.279 N 
ENDROOT
BRANCH   6   9
HETATM    9  C   UNL     1       9.472   0.296  21.336  1.00  0.00     0.274 C 
HETATM   10  N   UNL     1       8.726  -0.246  20.434  1.00  0.00    -0.330 N 
ATOM     11  HN  UNL     1       9.217  -0.967  19.906  1.00  0.00     0.168 HD
HETATM   12  O   UNL     1       9.964   1.422  21.328  1.00  0.00    -0.266 OA
BRANCH  10  13
HETATM   13  C   UNL     1       7.505  -0.093  20.037  1.00  0.00     0.115 C 
BRANCH  13  14
HETATM   14  C   UNL     1       7.368   0.277  18.739  1.00  0.00     0.148 C 
BRANCH  14  15
HETATM   15  O   UNL     1       6.406  -0.330  18.097  1.00  0.00    -0.371 OA
HETATM   16  H   UNL     1       5.575  -0.038  17.747  1.00  0.00     0.216 HD
ENDBRANCH  14  15
ENDBRANCH  13  14
ENDBRANCH  10  13
ENDBRANCH   6   9
BRANCH   2  17
HETATM   17  O   UNL     1       9.031  -2.567  25.409  1.00  0.00    -0.339 OA
HETATM   18  C   UNL     1       7.771  -3.248  25.251  1.00  0.00     0.211 C 
ENDBRANCH   2  17
TORSDOF 5
ENDMDL
MODEL 4
REMARK VINA RESULT:    -4.884     25.804     27.249
REMARK INTER + INTRA:          -6.441
REMARK INTER:                  -5.877
REMARK INTRA:                  -0.564
REMARK UNBOUND:                -0.272
REMARK  5 active torsions:
REMARK  status: ('A' for Active; 'I' for Inactive)
REMARK    1  A    between atoms: C_2  and  O_17 
REMARK       I    between atoms: C_6  and  N_12 
REMARK    2  A    between atoms: C_6  and  C_15 
REMARK    3  A    between atoms: C_7  and  O_14 
REMARK    4  A    between atoms: C_7  and  C_10 
REMARK    5  A    between atoms: C_10  and  N_12 
ROOT
HETATM    1  H   UNL     1       7.705  -4.324  21.250  1.00  0.00     0.189 HD
HETATM    2  C   UNL     1       7.427  -4.807  23.229  1.00  0.00     0.168 C 
HETATM    3  N   UNL     1       8.647  -3.045  22.582  1.00  0.00    -0.293 N 
HETATM    4  C   UNL     1       8.425  -5.047  25.472  1.00  0.00     0.030 C 
HETATM    5  H   UNL     1       8.997  -2.315  21.986  1.00  0.00     0.187 HD
HETATM    6  C   UNL     1       8.631  -2.987  23.880  1.00  0.00     0.130 C 
HETATM    7  C   UNL     1       8.164  -4.265  24.385  1.00  0.00     0.041 C 
HETATM    8  N   UNL     1       7.904  -4.106  22.191  1.00  0.00    -0.279 N 
ENDROOT
BRANCH   6   9
HETATM    9  C   UNL     1       8.929  -1.620  24.404  1.00  0.00     0.274 C 
HETATM   10  N   UNL     1      10.198  -1.426  24.528  1.00  0.00    -0.330 N 
ATOM     11  HN  UNL     1      10.604  -1.986  25.277  1.00  0.00     0.168 HD
HETATM   12  O   UNL     1       8.017  -0.856  24.713  1.00  0.00    -0.266 OA
BRANCH  10  13
HETATM   13  C   UNL     1      11.078  -0.691  23.931  1.00  0.00     0.115 C 
BRANCH  13  14
HETATM   14  C   UNL     1      11.908  -1.362  23.093  1.00  0.00     0.148 C 
BRANCH  14  15
HETATM   15  O   UNL     1      11.418  -1.581  21.902  1.00  0.00    -0.371 OA
HETATM   16  H   UNL     1      10.922  -1.046  21.297  1.00  0.00     0.216 HD
ENDBRANCH  14  15
ENDBRANCH  13  14
ENDBRANCH  10  13
ENDBRANCH   6   9
BRANCH   2  17
HETATM   17  O   UNL     1       6.504  -5.755  22.990  1.00  0.00    -0.339 OA
HETATM   18  C   UNL     1       6.270  -5.990  21.588  1.00  0.00     0.211 C 
ENDBRANCH   2  17
TORSDOF 5
ENDMDL
MODEL 5
REMARK VINA RESULT:    -4.851     23.715     24.514
REMARK INTER + INTRA:          -6.398
REMARK INTER:                  -5.932
REMARK INTRA:                  -0.466
REMARK UNBOUND:                -0.272
REMARK  5 active torsions:
REMARK  status: ('A' for Active; 'I' for Inactive)
REMARK    1  A    between atoms: C_2  and  O_17 
REMARK       I    between atoms: C_6  and  N_12 
REMARK    2  A    between atoms: C_6  and  C_15 
REMARK    3  A    between atoms: C_7  and  O_14 
REMARK    4  A    between atoms: C_7  and  C_10 
REMARK    5  A    between atoms: C_10  and  N_12 
ROOT
HETATM    1  H   UNL     1      24.271   3.102  15.983  1.00  0.00     0.189 HD
HETATM    2  C   UNL     1      24.293   1.559  17.341  1.00  0.00     0.168 C 
HETATM    3  N   UNL     1      23.897   1.236  15.161  1.00  0.00    -0.293 N 
HETATM    4  C   UNL     1      23.238  -0.521  18.142  1.00  0.00     0.030 C 
HETATM    5  H   UNL     1      23.882   1.422  14.173  1.00  0.00     0.187 HD
HETATM    6  C   UNL     1      23.909   0.046  15.683  1.00  0.00     0.130 C 
HETATM    7  C   UNL     1      23.813   0.182  17.125  1.00  0.00     0.041 C 
HETATM    8  N   UNL     1      24.159   2.135  16.138  1.00  0.00    -0.279 N 
ENDROOT
BRANCH   6   9
HETATM    9  C   UNL     1      24.175  -1.026  14.678  1.00  0.00     0.274 C 
HETATM   10  N   UNL     1      24.314  -0.539  13.491  1.00  0.00    -0.330 N 
ATOM     11  HN  UNL     1      23.439  -0.171  13.118  1.00  0.00     0.168 HD
HETATM   12  O   UNL     1      24.184  -2.209  15.011  1.00  0.00    -0.266 OA
BRANCH  10  13
HETATM   13  C   UNL     1      25.296  -0.407  12.661  1.00  0.00     0.115 C 
BRANCH  13  14
HETATM   14  C   UNL     1      25.301   0.758  11.964  1.00  0.00     0.148 C 
BRANCH  14  15
HETATM   15  O   UNL     1      24.230   1.490  12.118  1.00  0.00    -0.371 OA
HETATM   16  H   UNL     1      23.567   1.802  11.517  1.00  0.00     0.216 HD
ENDBRANCH  14  15
ENDBRANCH  13  14
ENDBRANCH  10  13
ENDBRANCH   6   9
BRANCH   2  17
HETATM   17  O   UNL     1      24.762   2.304  18.357  1.00  0.00    -0.339 OA
HETATM   18  C   UNL     1      26.099   1.950  18.761  1.00  0.00     0.211 C 
ENDBRANCH   2  17
TORSDOF 5
ENDMDL
MODEL 6
REMARK VINA RESULT:    -4.845     22.717     23.674
REMARK INTER + INTRA:          -6.392
REMARK INTER:                  -6.103
REMARK INTRA:                  -0.289
REMARK UNBOUND:                -0.272
REMARK  5 active torsions:
REMARK  status: ('A' for Active; 'I' for Inactive)
REMARK    1  A    between atoms: C_2  and  O_17 
REMARK       I    between atoms: C_6  and  N_12 
REMARK    2  A    between atoms: C_6  and  C_15 
REMARK    3  A    between atoms: C_7  and  O_14 
REMARK    4  A    between atoms: C_7  and  C_10 
REMARK    5  A    between atoms: C_10  and  N_12 
ROOT
HETATM    1  H   UNL     1       9.680   4.762  23.139  1.00  0.00     0.189 HD
HETATM    2  C   UNL     1      11.119   3.315  23.379  1.00  0.00     0.168 C 
HETATM    3  N   UNL     1       9.098   2.870  22.524  1.00  0.00    -0.293 N 
HETATM    4  C   UNL     1      11.656   1.011  24.075  1.00  0.00     0.030 C 
HETATM    5  H   UNL     1       8.205   3.036  22.093  1.00  0.00     0.187 HD
HETATM    6  C   UNL     1       9.752   1.749  22.449  1.00  0.00     0.130 C 
HETATM    7  C   UNL     1      10.932   1.855  23.287  1.00  0.00     0.041 C 
HETATM    8  N   UNL     1       9.920   3.811  23.044  1.00  0.00    -0.279 N 
ENDROOT
BRANCH   6   9
HETATM    9  C   UNL     1       9.184   0.813  21.433  1.00  0.00     0.274 C 
HETATM   10  N   UNL     1       9.768  -0.336  21.467  1.00  0.00    -0.330 N 
ATOM     11  HN  UNL     1      10.731  -0.291  21.135  1.00  0.00     0.168 HD
HETATM   12  O   UNL     1       8.309   1.189  20.655  1.00  0.00    -0.266 OA
BRANCH  10  13
HETATM   13  C   UNL     1       9.426  -1.531  21.820  1.00  0.00     0.115 C 
BRANCH  13  14
HETATM   14  C   UNL     1       9.838  -1.900  23.060  1.00  0.00     0.148 C 
BRANCH  14  15
HETATM   15  O   UNL     1       9.334  -3.026  23.489  1.00  0.00    -0.371 OA
HETATM   16  H   UNL     1       9.668  -3.912  23.526  1.00  0.00     0.216 HD
ENDBRANCH  14  15
ENDBRANCH  13  14
ENDBRANCH  10  13
ENDBRANCH   6   9
BRANCH   2  17
HETATM   17  O   UNL     1      12.099   4.176  23.706  1.00  0.00    -0.339 OA
HETATM   18  C   UNL     1      11.632   5.521  23.929  1.00  0.00     0.211 C 
ENDBRANCH   2  17
TORSDOF 5
ENDMDL
MODEL 7
REMARK VINA RESULT:    -4.843     30.821     32.941
REMARK INTER + INTRA:          -6.388
REMARK INTER:                  -6.095
REMARK INTRA:                  -0.293
REMARK UNBOUND:                -0.272
REMARK  5 active torsions:
REMARK  status: ('A' for Active; 'I' for Inactive)
REMARK    1  A    between atoms: C_2  and  O_17 
REMARK       I    between atoms: C_6  and  N_12 
REMARK    2  A    between atoms: C_6  and  C_15 
REMARK    3  A    between atoms: C_7  and  O_14 
REMARK    4  A    between atoms: C_7  and  C_10 
REMARK    5  A    between atoms: C_10  and  N_12 
ROOT
HETATM    1  H   UNL     1       3.560 -17.829   8.370  1.00  0.00     0.189 HD
HETATM    2  C   UNL     1       1.886 -18.977   8.043  1.00  0.00     0.168 C 
HETATM    3  N   UNL     1       1.770 -16.870   8.791  1.00  0.00    -0.293 N 
HETATM    4  C   UNL     1      -0.333 -19.695   8.845  1.00  0.00     0.030 C 
HETATM    5  H   UNL     1       2.059 -15.927   8.984  1.00  0.00     0.187 HD
HETATM    6  C   UNL     1       0.535 -17.242   8.633  1.00  0.00     0.130 C 
HETATM    7  C   UNL     1       0.511 -18.686   8.487  1.00  0.00     0.041 C 
HETATM    8  N   UNL     1       2.576 -17.888   8.408  1.00  0.00    -0.279 N 
ENDROOT
BRANCH   6   9
HETATM    9  C   UNL     1      -0.404 -16.089   8.493  1.00  0.00     0.274 C 
HETATM   10  N   UNL     1      -0.394 -15.611   7.295  1.00  0.00    -0.330 N 
ATOM     11  HN  UNL     1       0.484 -15.142   7.071  1.00  0.00     0.168 HD
HETATM   12  O   UNL     1      -1.028 -15.668   9.464  1.00  0.00    -0.266 OA
BRANCH  10  13
HETATM   13  C   UNL     1      -1.229 -15.584   6.309  1.00  0.00     0.115 C 
BRANCH  13  14
HETATM   14  C   UNL     1      -2.258 -14.711   6.456  1.00  0.00     0.148 C 
BRANCH  14  15
HETATM   15  O   UNL     1      -1.984 -13.483   6.106  1.00  0.00    -0.371 OA
HETATM   16  H   UNL     1      -2.478 -12.813   5.651  1.00  0.00     0.216 HD
ENDBRANCH  14  15
ENDBRANCH  13  14
ENDBRANCH  10  13
ENDBRANCH   6   9
BRANCH   2  17
HETATM   17  O   UNL     1       2.548 -19.982   7.442  1.00  0.00    -0.339 OA
HETATM   18  C   UNL     1       3.343 -20.771   8.349  1.00  0.00     0.211 C 
ENDBRANCH   2  17
TORSDOF 5
ENDMDL
MODEL 8
REMARK VINA RESULT:    -4.743     23.345     24.584
REMARK INTER + INTRA:          -6.263
REMARK INTER:                  -5.743
REMARK INTRA:                  -0.520
REMARK UNBOUND:                -0.272
REMARK  5 active torsions:
REMARK  status: ('A' for Active; 'I' for Inactive)
REMARK    1  A    between atoms: C_2  and  O_17 
REMARK       I    between atoms: C_6  and  N_12 
REMARK    2  A    between atoms: C_6  and  C_15 
REMARK    3  A    between atoms: C_7  and  O_14 
REMARK    4  A    between atoms: C_7  and  C_10 
REMARK    5  A    between atoms: C_10  and  N_12 
ROOT
HETATM    1  H   UNL     1       4.921  -1.080  19.895  1.00  0.00     0.189 HD
HETATM    2  C   UNL     1       6.830  -0.322  19.979  1.00  0.00     0.168 C 
HETATM    3  N   UNL     1       6.062  -1.811  21.464  1.00  0.00    -0.293 N 
HETATM    4  C   UNL     1       8.652   0.574  21.378  1.00  0.00     0.030 C 
HETATM    5  H   UNL     1       5.475  -2.528  21.855  1.00  0.00     0.187 HD
HETATM    6  C   UNL     1       7.308  -1.628  21.782  1.00  0.00     0.130 C 
HETATM    7  C   UNL     1       7.780  -0.437  21.100  1.00  0.00     0.041 C 
HETATM    8  N   UNL     1       5.783  -1.062  20.371  1.00  0.00    -0.279 N 
ENDROOT
BRANCH   6   9
HETATM    9  C   UNL     1       7.873  -2.754  22.584  1.00  0.00     0.274 C 
HETATM   10  N   UNL     1       7.082  -3.772  22.595  1.00  0.00    -0.330 N 
ATOM     11  HN  UNL     1       6.231  -3.596  23.128  1.00  0.00     0.168 HD
HETATM   12  O   UNL     1       8.940  -2.623  23.181  1.00  0.00    -0.266 OA
BRANCH  10  13
HETATM   13  C   UNL     1       7.110  -4.963  22.094  1.00  0.00     0.115 C 
BRANCH  13  14
HETATM   14  C   UNL     1       5.903  -5.447  21.705  1.00  0.00     0.148 C 
BRANCH  14  15
HETATM   15  O   UNL     1       4.891  -4.664  21.969  1.00  0.00    -0.371 OA
HETATM   16  H   UNL     1       4.767  -3.726  21.916  1.00  0.00     0.216 HD
ENDBRANCH  14  15
ENDBRANCH  13  14
ENDBRANCH  10  13
ENDBRANCH   6   9
BRANCH   2  17
HETATM   17  O   UNL     1       6.761   0.302  18.789  1.00  0.00    -0.339 OA
HETATM   18  C   UNL     1       5.424   0.697  18.423  1.00  0.00     0.211 C 
ENDBRANCH   2  17
TORSDOF 5
ENDMDL
MODEL 9
REMARK VINA RESULT:    -4.704     28.271     29.481
REMARK INTER + INTRA:          -6.214
REMARK INTER:                  -5.918
REMARK INTRA:                  -0.295
REMARK UNBOUND:                -0.272
REMARK  5 active torsions:
REMARK  status: ('A' for Active; 'I' for Inactive)
REMARK    1  A    between atoms: C_2  and  O_17 
REMARK       I    between atoms: C_6  and  N_12 
REMARK    2  A    between atoms: C_6  and  C_15 
REMARK    3  A    between atoms: C_7  and  O_14 
REMARK    4  A    between atoms: C_7  and  C_10 
REMARK    5  A    between atoms: C_10  and  N_12 
ROOT
HETATM    1  H   UNL     1       8.566  -6.600  27.691  1.00  0.00     0.189 HD
HETATM    2  C   UNL     1       6.961  -5.363  27.347  1.00  0.00     0.168 C 
HETATM    3  N   UNL     1       8.820  -5.291  26.103  1.00  0.00    -0.293 N 
HETATM    4  C   UNL     1       6.162  -3.092  26.812  1.00  0.00     0.030 C 
HETATM    5  H   UNL     1       9.689  -5.594  25.697  1.00  0.00     0.187 HD
HETATM    6  C   UNL     1       8.011  -4.438  25.551  1.00  0.00     0.130 C 
HETATM    7  C   UNL     1       6.931  -4.169  26.483  1.00  0.00     0.041 C 
HETATM    8  N   UNL     1       8.186  -5.868  27.150  1.00  0.00    -0.279 N 
ENDROOT
BRANCH   6   9
HETATM    9  C   UNL     1       8.354  -4.149  24.127  1.00  0.00     0.274 C 
HETATM   10  N   UNL     1       7.807  -4.998  23.325  1.00  0.00    -0.330 N 
ATOM     11  HN  UNL     1       8.212  -5.930  23.411  1.00  0.00     0.168 HD
HETATM   12  O   UNL     1       9.123  -3.233  23.841  1.00  0.00    -0.266 OA
BRANCH  10  13
HETATM   13  C   UNL     1       6.868  -4.952  22.438  1.00  0.00     0.115 C 
BRANCH  13  14
HETATM   14  C   UNL     1       6.655  -6.114  21.770  1.00  0.00     0.148 C 
BRANCH  14  15
HETATM   15  O   UNL     1       5.618  -6.104  20.976  1.00  0.00    -0.371 OA
HETATM   16  H   UNL     1       5.423  -6.542  20.159  1.00  0.00     0.216 HD
ENDBRANCH  14  15
ENDBRANCH  13  14
ENDBRANCH  10  13
ENDBRANCH   6   9
BRANCH   2  17
HETATM   17  O   UNL     1       6.144  -5.987  28.214  1.00  0.00    -0.339 OA
HETATM   18  C   UNL     1       5.139  -6.799  27.575  1.00  0.00     0.211 C 
ENDBRANCH   2  17
TORSDOF 5
ENDMDL
