stable:False satoms:5 tatoms:24 sratio:0.20833333333333334
  -OEChem-07092417463D

 24 24  0     0  0  0  0  0  0999 V2000
    6.5533   -4.9378   26.5409 C   0  0  0  0  0  0  0  0  0  0  0  0
    8.2113   -4.2760   26.1387 S   0  0  0  0  0  0  0  0  0  0  0  0
    9.0531   -5.4299   26.0832 O   0  0  0  0  0  0  0  0  0  0  0  0
    8.5662   -3.3653   27.1617 O   0  0  0  0  0  0  0  0  0  0  0  0
    8.1154   -3.5703   24.6794 N   0  0  0  0  0  0  0  0  0  0  0  0
    8.9082   -2.9230   24.2055 C   0  0  0  0  0  0  0  0  0  0  0  0
    9.3544   -1.9990   23.6191 C   0  0  0  0  0  0  0  0  0  0  0  0
   10.0741   -0.9836   23.3885 C   0  0  0  0  0  0  0  0  0  0  0  0
   11.0505   -0.0743   24.2303 C   0  0  0  0  0  0  0  0  0  0  0  0
   12.0185    0.1169   24.1345 C   0  0  0  0  0  0  0  0  0  0  0  0
   13.3363   -0.2735   23.2833 C   0  0  0  0  0  0  0  0  0  0  0  0
   12.7414   -1.1311   22.7052 C   0  0  0  0  0  0  0  0  0  0  0  0
   12.2402   -1.7850   22.2986 C   0  0  0  0  0  0  0  0  0  0  0  0
    9.6798   -0.5909   22.4020 C   0  0  0  0  0  0  0  0  0  0  0  0
    9.0458    0.0605   21.4016 C   0  0  0  0  0  0  0  0  0  0  0  0
    9.5307    1.0288   21.0275 O   0  0  0  0  0  0  0  0  0  0  0  0
    7.9110   -0.5028   21.0881 N   0  0  0  0  0  0  0  0  0  0  0  0
    7.1887   -0.0794   20.1887 C   0  0  0  0  0  0  0  0  0  0  0  0
    7.1620   -0.0058   18.9040 C   0  0  0  0  0  0  0  0  0  0  0  0
    6.6782    0.2176   17.7781 N   0  0  0  0  0  0  0  0  0  0  0  0
    5.6267    0.8496   18.3099 C   0  0  0  0  0  0  0  0  0  0  0  0
    5.2609    0.9996   19.4715 C   0  0  0  0  0  0  0  0  0  0  0  0
    5.7846    0.6388   20.6110 C   0  0  0  0  0  0  0  0  0  0  0  0
    5.4926    0.7258   21.6454 C   0  0  0  0  0  0  0  0  0  0  0  0
 20 21  2  0  0  0  0
 19 20  1  0  0  0  0
 21 22  1  0  0  0  0
 18 19  2  0  0  0  0
 22 23  2  0  0  0  0
 18 23  1  0  0  0  0
 17 18  1  0  0  0  0
 23 24  1  0  0  0  0
 15 16  2  0  0  0  0
 15 17  1  0  0  0  0
 14 15  1  0  0  0  0
 12 13  3  0  0  0  0
  8 14  2  3  0  0  0
 11 12  1  0  0  0  0
 10 11  1  0  0  0  0
  7  8  1  0  0  0  0
  8  9  1  0  0  0  0
  6  7  3  0  0  0  0
  9 10  2  0  0  0  0
  5  6  1  0  0  0  0
  2  5  1  0  0  0  0
  2  3  2  0  0  0  0
  1  2  1  0  0  0  0
  2  4  2  0  0  0  0
M  END
> <Shapegauss>
-286.175323

$$$$
