stable:False satoms:5 tatoms:24 sratio:0.20833333333333334
  -OEChem-08062413003D

 41 41  0     0  0  0  0  0  0999 V2000
   -6.5547   -5.7751  -25.9400 C   0  0  0  0  0  0  0  0  0  0  0  0
   -8.1463   -4.8824  -25.8035 S   0  0  0  0  0  0  0  0  0  0  0  0
   -9.1312   -5.9160  -25.7330 O   0  0  0  0  0  0  0  0  0  0  0  0
   -8.2719   -4.0581  -26.9465 O   0  0  0  0  0  0  0  0  0  0  0  0
   -8.1131   -4.0322  -24.4204 N   0  0  0  0  0  0  0  0  0  0  0  0
   -8.8609   -3.2471  -24.1098 C   0  0  0  0  0  0  0  0  0  0  0  0
   -9.2429   -2.2168  -23.6747 C   0  0  0  0  0  0  0  0  0  0  0  0
   -9.8457   -1.1046  -23.6324 C   0  0  0  0  0  0  0  0  0  0  0  0
  -10.6033   -0.1883  -24.6694 C   0  0  0  0  0  0  0  0  0  0  0  0
  -11.5432    0.1246  -24.7077 C   0  0  0  0  0  0  0  0  0  0  0  0
  -12.9820   -0.0099  -23.9829 C   0  0  0  0  0  0  0  0  0  0  0  0
  -12.5664   -0.8603  -23.2565 C   0  0  0  0  0  0  0  0  0  0  0  0
  -12.1990   -1.5182  -22.7308 C   0  0  0  0  0  0  0  0  0  0  0  0
   -9.5092   -0.6516  -22.6503 C   0  0  0  0  0  0  0  0  0  0  0  0
   -8.9045    0.0300  -21.6520 C   0  0  0  0  0  0  0  0  0  0  0  0
   -9.2968    1.0845  -21.4356 O   0  0  0  0  0  0  0  0  0  0  0  0
   -7.8909   -0.6232  -21.1527 N   0  0  0  0  0  0  0  0  0  0  0  0
   -7.2179   -0.1882  -20.2211 C   0  0  0  0  0  0  0  0  0  0  0  0
   -7.3163    0.0266  -18.9559 C   0  0  0  0  0  0  0  0  0  0  0  0
   -6.9280    0.3178  -17.8087 N   0  0  0  0  0  0  0  0  0  0  0  0
   -5.7540    0.7580  -18.2733 C   0  0  0  0  0  0  0  0  0  0  0  0
   -5.2525    0.7317  -19.3929 C   0  0  0  0  0  0  0  0  0  0  0  0
   -5.6965    0.3081  -20.5445 C   0  0  0  0  0  0  0  0  0  0  0  0
   -5.2893    0.2427  -21.5409 C   0  0  0  0  0  0  0  0  0  0  0  0
   -6.5425   -6.3638  -26.8691 H   0  0  0  0  0  0  0  0  0  0  0  0
   -5.7278   -5.0499  -25.9546 H   0  0  0  0  0  0  0  0  0  0  0  0
   -6.4369   -6.4482  -25.0780 H   0  0  0  0  0  0  0  0  0  0  0  0
   -7.2278   -3.5672  -24.4189 H   0  0  0  0  0  0  0  0  0  0  0  0
   -9.9869    0.1610  -25.4845 H   0  0  0  0  0  0  0  0  0  0  0  0
  -11.6425    0.8060  -25.5396 H   0  0  0  0  0  0  0  0  0  0  0  0
  -13.7859   -0.3511  -24.6517 H   0  0  0  0  0  0  0  0  0  0  0  0
  -13.3028    0.9030  -23.4599 H   0  0  0  0  0  0  0  0  0  0  0  0
  -11.7751   -2.2772  -22.1243 H   0  0  0  0  0  0  0  0  0  0  0  0
  -10.2353   -1.1559  -22.0298 H   0  0  0  0  0  0  0  0  0  0  0  0
   -7.6526   -1.5123  -21.5436 H   0  0  0  0  0  0  0  0  0  0  0  0
   -8.3677   -0.1543  -18.7879 H   0  0  0  0  0  0  0  0  0  0  0  0
   -5.1312    1.2233  -17.5236 H   0  0  0  0  0  0  0  0  0  0  0  0
   -4.2521    1.1367  -19.4328 H   0  0  0  0  0  0  0  0  0  0  0  0
   -4.7935   -0.7305  -21.6718 H   0  0  0  0  0  0  0  0  0  0  0  0
   -6.1014    0.3421  -22.2761 H   0  0  0  0  0  0  0  0  0  0  0  0
   -4.5575    1.0500  -21.6915 H   0  0  0  0  0  0  0  0  0  0  0  0
 20 21  2  0  0  0  0
 19 20  1  0  0  0  0
 21 22  1  0  0  0  0
 18 19  2  0  0  0  0
 22 23  2  0  0  0  0
 18 23  1  0  0  0  0
 17 18  1  0  0  0  0
 23 24  1  0  0  0  0
 15 16  2  0  0  0  0
 15 17  1  0  0  0  0
 14 15  1  0  0  0  0
 12 13  3  0  0  0  0
  8 14  2  3  0  0  0
 11 12  1  0  0  0  0
 10 11  1  0  0  0  0
  7  8  1  0  0  0  0
  8  9  1  0  0  0  0
  6  7  3  0  0  0  0
  9 10  2  0  0  0  0
  5  6  1  0  0  0  0
  2  5  1  0  0  0  0
  2  3  2  0  0  0  0
  1  2  1  0  0  0  0
  2  4  2  0  0  0  0
  1 25  1  0  0  0  0
  1 26  1  0  0  0  0
  1 27  1  0  0  0  0
  5 28  1  0  0  0  0
  9 29  1  0  0  0  0
 10 30  1  0  0  0  0
 11 31  1  0  0  0  0
 11 32  1  0  0  0  0
 13 33  1  0  0  0  0
 14 34  1  0  0  0  0
 17 35  1  0  0  0  0
 19 36  1  0  0  0  0
 21 37  1  0  0  0  0
 22 38  1  0  0  0  0
 24 39  1  0  0  0  0
 24 40  1  0  0  0  0
 24 41  1  0  0  0  0
M  END
> <Chemgauss4>
-12.542858

$$$$
