stable:False satoms:5 tatoms:24 sratio:0.20833333333333334
  -OEChem-08062413003D

 41 41  0     0  0  0  0  0  0999 V2000
    6.3671   -5.7473   25.9745 C   0  0  0  0  0  0  0  0  0  0  0  0
    7.9587   -4.8546   25.8380 S   0  0  0  0  0  0  0  0  0  0  0  0
    8.9435   -5.8882   25.7675 O   0  0  0  0  0  0  0  0  0  0  0  0
    8.0843   -4.0303   26.9810 O   0  0  0  0  0  0  0  0  0  0  0  0
    7.9255   -4.0044   24.4549 N   0  0  0  0  0  0  0  0  0  0  0  0
    8.6733   -3.2193   24.1443 C   0  0  0  0  0  0  0  0  0  0  0  0
    9.0553   -2.1890   23.7092 C   0  0  0  0  0  0  0  0  0  0  0  0
    9.6581   -1.0767   23.6669 C   0  0  0  0  0  0  0  0  0  0  0  0
   10.4156   -0.1605   24.7039 C   0  0  0  0  0  0  0  0  0  0  0  0
   11.3555    0.1524   24.7422 C   0  0  0  0  0  0  0  0  0  0  0  0
   12.7943    0.0179   24.0174 C   0  0  0  0  0  0  0  0  0  0  0  0
   12.3787   -0.8325   23.2910 C   0  0  0  0  0  0  0  0  0  0  0  0
   12.0114   -1.4904   22.7653 C   0  0  0  0  0  0  0  0  0  0  0  0
    9.3216   -0.6238   22.6848 C   0  0  0  0  0  0  0  0  0  0  0  0
    8.7168    0.0579   21.6865 C   0  0  0  0  0  0  0  0  0  0  0  0
    9.1091    1.1124   21.4701 O   0  0  0  0  0  0  0  0  0  0  0  0
    7.7032   -0.5954   21.1872 N   0  0  0  0  0  0  0  0  0  0  0  0
    7.0303   -0.1604   20.2556 C   0  0  0  0  0  0  0  0  0  0  0  0
    7.1286    0.0545   18.9904 C   0  0  0  0  0  0  0  0  0  0  0  0
    6.7403    0.3456   17.8432 N   0  0  0  0  0  0  0  0  0  0  0  0
    5.5663    0.7859   18.3078 C   0  0  0  0  0  0  0  0  0  0  0  0
    5.0649    0.7595   19.4274 C   0  0  0  0  0  0  0  0  0  0  0  0
    5.5089    0.3359   20.5790 C   0  0  0  0  0  0  0  0  0  0  0  0
    5.1016    0.2705   21.5754 C   0  0  0  0  0  0  0  0  0  0  0  0
    6.3548   -6.3360   26.9036 H   0  0  0  0  0  0  0  0  0  0  0  0
    5.5402   -5.0220   25.9891 H   0  0  0  0  0  0  0  0  0  0  0  0
    6.2492   -6.4204   25.1125 H   0  0  0  0  0  0  0  0  0  0  0  0
    7.0402   -3.5394   24.4534 H   0  0  0  0  0  0  0  0  0  0  0  0
    9.7992    0.1889   25.5190 H   0  0  0  0  0  0  0  0  0  0  0  0
   11.4548    0.8338   25.5741 H   0  0  0  0  0  0  0  0  0  0  0  0
   13.5983   -0.3233   24.6862 H   0  0  0  0  0  0  0  0  0  0  0  0
   13.1152    0.9309   23.4944 H   0  0  0  0  0  0  0  0  0  0  0  0
   11.5875   -2.2494   22.1587 H   0  0  0  0  0  0  0  0  0  0  0  0
   10.0476   -1.1280   22.0643 H   0  0  0  0  0  0  0  0  0  0  0  0
    7.4650   -1.4845   21.5780 H   0  0  0  0  0  0  0  0  0  0  0  0
    8.1800   -0.1265   18.8224 H   0  0  0  0  0  0  0  0  0  0  0  0
    4.9435    1.2511   17.5581 H   0  0  0  0  0  0  0  0  0  0  0  0
    4.0645    1.1645   19.4673 H   0  0  0  0  0  0  0  0  0  0  0  0
    4.6059   -0.7027   21.7063 H   0  0  0  0  0  0  0  0  0  0  0  0
    5.9138    0.3699   22.3106 H   0  0  0  0  0  0  0  0  0  0  0  0
    4.3698    1.0779   21.7260 H   0  0  0  0  0  0  0  0  0  0  0  0
 20 21  2  0  0  0  0
 19 20  1  0  0  0  0
 21 22  1  0  0  0  0
 18 19  2  0  0  0  0
 22 23  2  0  0  0  0
 18 23  1  0  0  0  0
 17 18  1  0  0  0  0
 23 24  1  0  0  0  0
 15 16  2  0  0  0  0
 15 17  1  0  0  0  0
 14 15  1  0  0  0  0
 12 13  3  0  0  0  0
  8 14  2  3  0  0  0
 11 12  1  0  0  0  0
 10 11  1  0  0  0  0
  7  8  1  0  0  0  0
  8  9  1  0  0  0  0
  6  7  3  0  0  0  0
  9 10  2  0  0  0  0
  5  6  1  0  0  0  0
  2  5  1  0  0  0  0
  2  3  2  0  0  0  0
  1  2  1  0  0  0  0
  2  4  2  0  0  0  0
  1 25  1  0  0  0  0
  1 26  1  0  0  0  0
  1 27  1  0  0  0  0
  5 28  1  0  0  0  0
  9 29  1  0  0  0  0
 10 30  1  0  0  0  0
 11 31  1  0  0  0  0
 11 32  1  0  0  0  0
 13 33  1  0  0  0  0
 14 34  1  0  0  0  0
 17 35  1  0  0  0  0
 19 36  1  0  0  0  0
 21 37  1  0  0  0  0
 22 38  1  0  0  0  0
 24 39  1  0  0  0  0
 24 40  1  0  0  0  0
 24 41  1  0  0  0  0
M  END
> <Chemgauss4>
-12.313725

$$$$
