
 OpenBabel07202414163D

 63 68  0  0  1  0  0  0  0  0999 V2000
   -2.0766    0.1285    0.3058 Cl  0  0  0  0  0  0  0  0  0  0  0  0
   -0.3607    0.1532    0.1490 C   0  0  0  0  0  0  0  0  0  0  0  0
    0.3024    1.3510    0.0584 C   0  0  0  0  0  0  0  0  0  0  0  0
    1.6881    1.3279   -0.0419 C   0  0  0  0  0  0  0  0  0  0  0  0
    2.4318    2.6362   -0.1043 C   0  0  0  0  0  0  0  0  0  0  0  0
    3.3140    2.7923   -1.3227 C   0  0  0  0  0  0  0  0  0  0  0  0
    4.4409    3.2641   -1.2174 O   0  0  0  0  0  0  0  0  0  0  0  0
    2.7052    2.4726   -2.5242 N   0  0  0  0  0  0  0  0  0  0  0  0
    3.3677    2.5859   -3.7674 C   0  0  0  0  0  0  0  0  0  0  0  0
    4.7074    2.2133   -3.9033 C   0  0  0  0  0  0  0  0  0  0  0  0
    5.4052    2.2748   -5.0580 N   0  0  0  0  0  0  0  0  0  0  0  0
    4.7447    2.7708   -6.1263 C   0  0  0  0  0  0  0  0  0  0  0  0
    3.4137    3.1964   -6.1152 C   0  0  0  0  0  0  0  0  0  0  0  0
    2.6900    3.0826   -4.9086 C   0  0  0  0  0  0  0  0  0  0  0  0
    1.3504    3.5503   -4.8972 C   0  0  0  0  0  0  0  0  0  0  0  0
    0.7633    4.1059   -6.0362 C   0  0  0  0  0  0  0  0  0  0  0  0
    1.4924    4.2055   -7.2138 C   0  0  0  0  0  0  0  0  0  0  0  0
    2.8076    3.7472   -7.2584 C   0  0  0  0  0  0  0  0  0  0  0  0
    2.3836    0.0860   -0.0500 C   0  0  0  0  0  0  0  0  0  0  0  0
    1.7463   -1.1696    0.0464 C   0  0  0  0  0  0  0  0  0  0  0  0
    2.4426   -2.3933    0.0930 N   0  0  0  0  0  0  0  0  0  0  0  0
    3.8593   -2.3498    0.5487 C   0  0  0  0  0  0  0  0  0  0  0  0
    4.7296   -3.5045    0.0559 C   0  0  0  0  0  0  0  0  0  0  0  0
    4.1130   -4.8060    0.4497 C   0  0  0  0  0  0  0  0  0  0  0  0
    2.7330   -4.9493    0.2542 C   0  0  0  0  0  0  0  0  0  0  0  0
    2.1635   -6.2069    0.5426 C   0  0  0  0  0  0  0  0  0  0  0  0
    2.9202   -7.2420    1.0943 C   0  0  0  0  0  0  0  0  0  0  0  0
    4.2795   -7.0640    1.3157 C   0  0  0  0  0  0  0  0  0  0  0  0
    4.8820   -5.8564    0.9723 C   0  0  0  0  0  0  0  0  0  0  0  0
    1.9182   -3.7677   -0.3328 C   0  0  1  0  0  0  0  0  0  0  0  0
    0.4218   -3.9841   -0.1103 C   0  0  0  0  0  0  0  0  0  0  0  0
   -0.1109   -4.0573    1.1966 C   0  0  0  0  0  0  0  0  0  0  0  0
   -1.4915   -4.0600    1.3964 C   0  0  0  0  0  0  0  0  0  0  0  0
   -2.3526   -4.0224    0.2995 C   0  0  0  0  0  0  0  0  0  0  0  0
   -1.8403   -4.0220   -0.9991 C   0  0  0  0  0  0  0  0  0  0  0  0
   -0.4600   -4.0148   -1.2080 C   0  0  0  0  0  0  0  0  0  0  0  0
    0.3534   -1.0494    0.1435 C   0  0  0  0  0  0  0  0  0  0  0  0
   -0.2549    2.2821    0.0847 H   0  0  0  0  0  0  0  0  0  0  0  0
    3.0557    2.7185    0.7935 H   0  0  0  0  0  0  0  0  0  0  0  0
    1.7341    3.4832   -0.0900 H   0  0  0  0  0  0  0  0  0  0  0  0
    1.6985    2.3812   -2.5307 H   0  0  0  0  0  0  0  0  0  0  0  0
    5.2679    1.8073   -3.0649 H   0  0  0  0  0  0  0  0  0  0  0  0
    5.3474    2.8326   -7.0276 H   0  0  0  0  0  0  0  0  0  0  0  0
    0.7521    3.5245   -3.9918 H   0  0  0  0  0  0  0  0  0  0  0  0
   -0.2564    4.4810   -5.9928 H   0  0  0  0  0  0  0  0  0  0  0  0
    1.0423    4.6518   -8.0983 H   0  0  0  0  0  0  0  0  0  0  0  0
    3.3694    3.8450   -8.1818 H   0  0  0  0  0  0  0  0  0  0  0  0
    3.4616    0.1580   -0.1548 H   0  0  0  0  0  0  0  0  0  0  0  0
    3.8609   -2.3258    1.6459 H   0  0  0  0  0  0  0  0  0  0  0  0
    4.3889   -1.4588    0.2080 H   0  0  0  0  0  0  0  0  0  0  0  0
    5.7338   -3.4072    0.4864 H   0  0  0  0  0  0  0  0  0  0  0  0
    4.8387   -3.4750   -1.0356 H   0  0  0  0  0  0  0  0  0  0  0  0
    1.1086   -6.4027    0.3604 H   0  0  0  0  0  0  0  0  0  0  0  0
    2.4414   -8.1844    1.3478 H   0  0  0  0  0  0  0  0  0  0  0  0
    4.8694   -7.8691    1.7451 H   0  0  0  0  0  0  0  0  0  0  0  0
    5.9519   -5.7364    1.1249 H   0  0  0  0  0  0  0  0  0  0  0  0
    2.1025   -3.8191   -1.4163 H   0  0  0  0  0  0  0  0  0  0  0  0
    0.5577   -4.0125    2.0552 H   0  0  0  0  0  0  0  0  0  0  0  0
   -1.8909   -4.0294    2.4064 H   0  0  0  0  0  0  0  0  0  0  0  0
   -3.4264   -3.9648    0.4575 H   0  0  0  0  0  0  0  0  0  0  0  0
   -2.5172   -3.9797   -1.8488 H   0  0  0  0  0  0  0  0  0  0  0  0
   -0.0777   -3.9585   -2.2251 H   0  0  0  0  0  0  0  0  0  0  0  0
   -0.2852   -1.8916    0.2865 H   0  0  0  0  0  0  0  0  0  0  0  0
  1  2  1  0  0  0  0
  2  3  2  0  0  0  0
  2 37  1  0  0  0  0
  3  4  1  0  0  0  0
  3 38  1  0  0  0  0
  4  5  1  0  0  0  0
  4 19  2  0  0  0  0
  5  6  1  0  0  0  0
  5 39  1  0  0  0  0
  5 40  1  0  0  0  0
  6  7  2  0  0  0  0
  6  8  1  0  0  0  0
  8  9  1  0  0  0  0
  8 41  1  0  0  0  0
  9 10  2  0  0  0  0
  9 14  1  0  0  0  0
 10 11  1  0  0  0  0
 10 42  1  0  0  0  0
 11 12  2  0  0  0  0
 12 13  1  0  0  0  0
 12 43  1  0  0  0  0
 13 14  2  0  0  0  0
 13 18  1  0  0  0  0
 14 15  1  0  0  0  0
 15 16  2  0  0  0  0
 15 44  1  0  0  0  0
 16 17  1  0  0  0  0
 16 45  1  0  0  0  0
 17 18  2  0  0  0  0
 17 46  1  0  0  0  0
 18 47  1  0  0  0  0
 19 20  1  0  0  0  0
 19 48  1  0  0  0  0
 20 21  1  0  0  0  0
 20 37  2  0  0  0  0
 21 22  1  0  0  0  0
 21 30  1  0  0  0  0
 22 23  1  0  0  0  0
 22 49  1  0  0  0  0
 22 50  1  0  0  0  0
 23 24  1  0  0  0  0
 23 51  1  0  0  0  0
 23 52  1  0  0  0  0
 24 25  2  0  0  0  0
 24 29  1  0  0  0  0
 25 26  1  0  0  0  0
 25 30  1  0  0  0  0
 26 27  2  0  0  0  0
 26 53  1  0  0  0  0
 27 28  1  0  0  0  0
 27 54  1  0  0  0  0
 28 29  2  0  0  0  0
 28 55  1  0  0  0  0
 29 56  1  0  0  0  0
 30 31  1  0  0  0  0
 30 57  1  6  0  0  0
 31 32  2  0  0  0  0
 31 36  1  0  0  0  0
 32 33  1  0  0  0  0
 32 58  1  0  0  0  0
 33 34  2  0  0  0  0
 33 59  1  0  0  0  0
 34 35  1  0  0  0  0
 34 60  1  0  0  0  0
 35 36  2  0  0  0  0
 35 61  1  0  0  0  0
 36 62  1  0  0  0  0
 37 63  1  0  0  0  0
M  END
$$$$
