stable:False satoms:19 tatoms:24 sratio:0.7916666666666666
  -OEChem-07092417353D

 24 24  0     1  0  0  0  0  0999 V2000
    8.5673   -4.2725   25.9952 C   0  0  0  0  0  0  0  0  0  0  0  0
    7.6507   -4.5713   25.5878 H   0  0  0  0  0  0  0  0  0  0  0  0
    9.2271   -5.1078   26.1411 H   0  0  0  0  0  0  0  0  0  0  0  0
    8.4660   -3.7007   26.8894 H   0  0  0  0  0  0  0  0  0  0  0  0
    9.3264   -3.0957   24.7209 S   0  0  0  0  0  0  0  0  0  0  0  0
    8.6631   -1.5090   22.2920 C   0  3  0  0  0  0  0  0  0  0  0  0
    9.8577   -1.6755   22.5428 N   0  0  0  0  0  0  0  0  0  0  0  0
   11.6485   -1.1650   24.0198 C   0  0  0  0  0  0  0  0  0  0  0  0
   10.7109    0.3553   23.6861 H   0  0  0  0  0  0  0  0  0  0  0  0
   11.3013    0.1500   24.4099 O   0  0  0  0  0  0  0  0  0  0  0  0
   12.2194   -1.5587   24.8527 H   0  0  0  0  0  0  0  0  0  0  0  0
   12.3489   -1.1943   23.1800 H   0  0  0  0  0  0  0  0  0  0  0  0
   10.4103   -1.9632   23.7280 C   0  0  3  0  0  0  0  0  0  0  0  0
   10.5942   -1.4166   21.8801 H   0  0  0  0  0  0  0  0  0  0  0  0
    8.5659   -0.3557   21.4549 C   0  0  0  0  0  0  0  0  0  0  0  0
    8.7877    0.7692   20.6038 O   0  0  0  0  0  0  0  0  0  0  0  0
    7.8036   -2.0810   22.3661 H   0  0  0  0  0  0  0  0  0  0  0  0
    7.7077    0.1907   20.9323 C   0  0  0  0  0  0  0  0  0  0  0  0
    7.3314    0.6163   18.6809 H   0  0  0  0  0  0  0  0  0  0  0  0
    5.9221    1.1478   17.7549 H   0  0  0  0  0  0  0  0  0  0  0  0
    6.3141    0.8886   18.6895 C   0  0  0  0  0  0  0  0  0  0  0  0
    4.6084    1.2934   19.7897 H   0  0  0  0  0  0  0  0  0  0  0  0
    5.5921    0.8598   19.7940 C   0  0  0  0  0  0  0  0  0  0  0  0
    5.9595    0.1056   21.3050 S   0  0  0  0  0  0  0  0  0  0  0  0
 20 21  1  0  0  0  0
 19 21  1  0  0  0  0
 21 23  2  0  0  0  0
 22 23  1  0  0  0  0
 23 24  1  0  0  0  0
 16 18  1  0  0  0  0
 15 16  1  0  0  0  0
 18 24  1  0  0  0  0
 15 18  2  0  0  0  0
  6 15  1  0  0  0  0
  7 14  1  0  0  0  0
  6 17  1  0  0  0  0
  6  7  1  0  0  0  0
  7 13  1  0  0  0  0
  8 12  1  0  0  0  0
  9 10  1  0  0  0  0
  8 13  1  0  0  0  0
  5 13  1  0  0  0  0
  8 10  1  0  0  0  0
  8 11  1  0  0  0  0
  1  5  1  0  0  0  0
  1  2  1  0  0  0  0
  1  3  1  0  0  0  0
  1  4  1  0  0  0  0
M  CHG  1   6   1
M  END
> <Shapegauss>
-156.740509

$$$$
