stable:False satoms:19 tatoms:24 sratio:0.7916666666666666
  -OEChem-08062400293D

 25 25  0     1  0  0  0  0  0999 V2000
  -12.4061    7.3269  -24.9954 C   0  0  0  0  0  0  0  0  0  0  0  0
  -13.3458    6.9666  -24.7081 H   0  0  0  0  0  0  0  0  0  0  0  0
  -12.1516    8.2305  -24.4729 H   0  0  0  0  0  0  0  0  0  0  0  0
  -12.3049    7.4498  -26.0497 H   0  0  0  0  0  0  0  0  0  0  0  0
  -11.1773    5.9669  -24.5205 S   0  0  0  0  0  0  0  0  0  0  0  0
  -11.0274    3.1090  -23.7035 C   0  0  0  0  0  2  0  0  0  0  0  0
  -10.0170    3.7933  -23.5344 N   0  3  0  0  0  0  0  0  0  0  0  0
   -8.2411    4.9740  -24.5837 C   0  0  0  0  0  0  0  0  0  0  0  0
   -8.4612    3.3773  -25.4227 H   0  0  0  0  0  0  0  0  0  0  0  0
   -8.0386    4.1765  -25.7347 O   0  0  0  0  0  0  0  0  0  0  0  0
   -7.9180    5.9667  -24.8750 H   0  0  0  0  0  0  0  0  0  0  0  0
   -7.5771    4.7108  -23.7552 H   0  0  0  0  0  0  0  0  0  0  0  0
   -9.6829    4.9255  -24.1664 C   0  0  3  0  0  0  0  0  0  0  0  0
  -10.0338    4.0377  -22.5648 H   0  0  0  0  0  0  0  0  0  0  0  0
  -10.6085    1.7442  -23.7473 C   0  0  0  0  0  0  0  0  0  0  0  0
   -9.9096    0.5002  -23.6922 O   0  0  0  0  0  0  0  0  0  0  0  0
  -11.1451    0.7395  -23.8516 C   0  0  0  0  0  0  0  0  0  0  0  0
  -11.2149   -1.0948  -22.4296 H   0  0  0  0  0  0  0  0  0  0  0  0
  -12.2422   -2.5306  -22.3340 H   0  0  0  0  0  0  0  0  0  0  0  0
  -12.0319   -1.6302  -22.8232 C   0  0  0  0  0  0  0  0  0  0  0  0
  -13.4710   -1.8133  -24.2994 H   0  0  0  0  0  0  0  0  0  0  0  0
  -12.7510   -1.1683  -23.8290 C   0  0  0  0  0  0  0  0  0  0  0  0
  -12.7906    0.4307  -24.4835 S   0  0  0  0  0  0  0  0  0  0  0  0
   -9.4821    5.4594  -23.2258 H   0  0  0  0  0  0  0  0  0  0  0  0
   -9.2546    3.1698  -23.7078 H   0  0  0  0  0  0  0  0  0  0  0  0
 19 20  1  0  0  0  0
 18 20  1  0  0  0  0
 20 22  2  0  0  0  0
 21 22  1  0  0  0  0
 22 23  1  0  0  0  0
 16 17  1  0  0  0  0
 15 16  1  0  0  0  0
 17 23  1  0  0  0  0
 15 17  2  0  0  0  0
  6 15  1  0  0  0  0
  7 14  1  0  0  0  0
  6  7  1  0  0  0  0
  7 13  1  0  0  0  0
  8 12  1  0  0  0  0
  9 10  1  0  0  0  0
  8 13  1  0  0  0  0
  5 13  1  0  0  0  0
  8 10  1  0  0  0  0
  8 11  1  0  0  0  0
  1  5  1  0  0  0  0
  1  2  1  0  0  0  0
  1  3  1  0  0  0  0
  1  4  1  0  0  0  0
 13 24  1  0  0  0  0
  7 25  1  0  0  0  0
M  CHG  1   7   1
M  END
> <Chemgauss4>
-6.120061

$$$$
