stable:False satoms:19 tatoms:24 sratio:0.7916666666666666
  -OEChem-08062400293D

 25 25  0     1  0  0  0  0  0999 V2000
   12.5184    7.3543   25.4974 C   0  0  0  0  0  0  0  0  0  0  0  0
   13.4465    6.8798   25.4026 H   0  0  0  0  0  0  0  0  0  0  0  0
   12.5105    8.3105   25.0075 H   0  0  0  0  0  0  0  0  0  0  0  0
   12.1868    7.4360   26.5074 H   0  0  0  0  0  0  0  0  0  0  0  0
   11.2761    6.2082   24.6441 S   0  0  0  0  0  0  0  0  0  0  0  0
   10.9658    3.4462   23.5801 C   0  0  0  0  0  2  0  0  0  0  0  0
   10.1184    4.2744   23.2429 N   0  3  0  0  0  0  0  0  0  0  0  0
    8.3075    5.6392   23.9549 C   0  0  0  0  0  0  0  0  0  0  0  0
    8.1203    3.9864   24.6865 H   0  0  0  0  0  0  0  0  0  0  0  0
    7.7398    4.8202   24.9594 O   0  0  0  0  0  0  0  0  0  0  0  0
    8.0520    6.6513   24.2464 H   0  0  0  0  0  0  0  0  0  0  0  0
    7.8308    5.5156   22.9781 H   0  0  0  0  0  0  0  0  0  0  0  0
    9.7893    5.4085   23.8741 C   0  0  3  0  0  0  0  0  0  0  0  0
   10.3948    4.5635   22.3263 H   0  0  0  0  0  0  0  0  0  0  0  0
   10.3803    2.1539   23.4140 C   0  0  0  0  0  0  0  0  0  0  0  0
    9.5637    1.0259   23.0982 O   0  0  0  0  0  0  0  0  0  0  0  0
   10.7463    1.0794   23.5538 C   0  0  0  0  0  0  0  0  0  0  0  0
   10.9196   -0.6708   22.0377 H   0  0  0  0  0  0  0  0  0  0  0  0
   11.7516   -2.2307   22.0595 H   0  0  0  0  0  0  0  0  0  0  0  0
   11.5463   -1.3360   22.5611 C   0  0  0  0  0  0  0  0  0  0  0  0
   12.5604   -1.7966   24.3055 H   0  0  0  0  0  0  0  0  0  0  0  0
   12.0591   -1.0328   23.7389 C   0  0  0  0  0  0  0  0  0  0  0  0
   12.1433    0.5087   24.5157 S   0  0  0  0  0  0  0  0  0  0  0  0
    9.8856    6.0130   22.9602 H   0  0  0  0  0  0  0  0  0  0  0  0
    9.2645    3.7570   23.1859 H   0  0  0  0  0  0  0  0  0  0  0  0
 19 20  1  0  0  0  0
 18 20  1  0  0  0  0
 20 22  2  0  0  0  0
 21 22  1  0  0  0  0
 22 23  1  0  0  0  0
 16 17  1  0  0  0  0
 15 16  1  0  0  0  0
 17 23  1  0  0  0  0
 15 17  2  0  0  0  0
  6 15  1  0  0  0  0
  7 14  1  0  0  0  0
  6  7  1  0  0  0  0
  7 13  1  0  0  0  0
  8 12  1  0  0  0  0
  9 10  1  0  0  0  0
  8 13  1  0  0  0  0
  5 13  1  0  0  0  0
  8 10  1  0  0  0  0
  8 11  1  0  0  0  0
  1  5  1  0  0  0  0
  1  2  1  0  0  0  0
  1  3  1  0  0  0  0
  1  4  1  0  0  0  0
 13 24  1  0  0  0  0
  7 25  1  0  0  0  0
M  CHG  1   7   1
M  END
> <Chemgauss4>
-5.778517

$$$$
