stable:False satoms:15 tatoms:24 sratio:0.625
  -OEChem-07092417363D

 24 25  0     1  0  0  0  0  0999 V2000
    6.4122   -4.6012   25.9190 Br  0  0  0  0  0  0  0  0  0  0  0  0
    8.6358   -3.0716   26.5134 H   0  0  0  0  0  0  0  0  0  0  0  0
    9.5151   -4.5856   25.6802 F   0  0  0  0  0  0  0  0  0  0  0  0
   10.0565   -2.4538   25.2978 O   0  0  0  0  0  0  0  0  0  0  0  0
    7.6711   -3.2388   24.2115 S   0  2  3  0  0  0  0  0  0  0  0  0
    9.1212   -3.2707   25.5418 C   0  0  1  0  0  0  0  0  0  0  0  0
    8.3305   -2.2992   23.2417 C   0  0  3  0  0  0  0  0  0  0  0  0
    9.7239   -0.7677   22.0898 N   0  0  0  0  0  0  0  0  0  0  0  0
   10.5509   -1.4472   24.0435 C   0  0  0  0  0  0  0  0  0  0  0  0
   11.2605    0.5178   23.6646 H   0  0  0  0  0  0  0  0  0  0  0  0
   12.4967   -0.4798   24.4408 H   0  0  0  0  0  0  0  0  0  0  0  0
   12.1350   -0.7282   22.7392 H   0  0  0  0  0  0  0  0  0  0  0  0
    9.6936   -1.5168   23.1421 C   0  0  0  0  0  0  0  0  0  0  0  0
   11.6886   -0.4755   23.6980 C   0  0  0  0  0  0  0  0  0  0  0  0
    8.6700   -0.4219   21.5270 N   0  0  0  0  0  0  0  0  0  0  0  0
    9.1531    1.4253   20.4198 O   0  0  0  0  0  0  0  0  0  0  0  0
    7.4661   -2.3392   22.5417 N   0  0  0  0  0  0  0  0  0  0  0  0
    8.4641    0.4217   20.4629 C   0  0  0  0  0  0  0  0  0  0  0  0
    5.5178   -0.3326   19.0931 H   0  0  0  0  0  0  0  0  0  0  0  0
    7.8091   -0.2886   18.5374 H   0  0  0  0  0  0  0  0  0  0  0  0
    5.8902    1.3795   18.9210 H   0  0  0  0  0  0  0  0  0  0  0  0
    6.0805    0.4875   19.5310 C   0  0  0  0  0  0  0  0  0  0  0  0
    7.4794    0.1397   19.4790 C   0  5  3  0  0  0  0  0  0  0  0  0
    5.7622    0.6566   20.5605 H   0  0  0  0  0  0  0  0  0  0  0  0
 20 23  1  0  0  0  0
 21 22  1  0  0  0  0
 19 22  1  0  0  0  0
 22 23  1  0  0  0  0
 18 23  1  0  0  0  0
 22 24  1  0  0  0  0
 16 18  2  0  0  0  0
 15 18  1  0  0  0  0
  8 15  2  0  0  0  0
  8 13  1  0  0  0  0
  7 17  1  0  0  0  0
  5 17  1  0  0  0  0
 12 14  1  0  0  0  0
  7 13  1  0  0  0  0
  9 13  2  0  0  0  0
  5  7  1  0  0  0  0
 10 14  1  0  0  0  0
  9 14  1  0  0  0  0
 11 14  1  0  0  0  0
  4  9  1  0  0  0  0
  5  6  1  0  0  0  0
  1  5  1  0  0  0  0
  4  6  1  0  0  0  0
  3  6  1  0  0  0  0
  2  6  1  0  0  0  0
M  CHG  2   5   2  23  -1
M  END
> <Shapegauss>
-159.005035

$$$$
