stable:False satoms:15 tatoms:24 sratio:0.625
  -OEChem-08062401373D

 27 28  0     1  0  0  0  0  0999 V2000
    6.4420   -1.0325   25.4531 Br  0  0  0  0  0  0  0  0  0  0  0  0
    9.0533   -1.8361   25.8687 H   0  0  0  0  0  0  0  0  0  0  0  0
    8.8529   -2.3790   24.0181 F   0  0  0  0  0  0  0  0  0  0  0  0
   10.6602   -1.3557   24.8369 O   0  0  0  0  0  0  0  0  0  0  0  0
    8.4489    0.2397   24.6103 S   0  2  3  0  0  0  0  0  0  0  0  0
    9.4001   -1.4605   24.8899 C   0  0  1  0  0  0  0  0  0  0  0  0
    9.6514    1.0682   24.2558 C   0  0  3  0  0  0  0  0  0  0  0  0
   11.8107    1.9488   23.8360 N   0  0  0  0  0  0  0  0  0  0  0  0
   11.8086   -0.2065   24.3993 C   0  0  0  0  0  0  0  0  0  0  0  0
   13.6385    0.6523   25.0491 H   0  0  0  0  0  0  0  0  0  0  0  0
   13.8711   -0.9960   24.4534 H   0  0  0  0  0  0  0  0  0  0  0  0
   13.6142    0.3061   23.3017 H   0  0  0  0  0  0  0  0  0  0  0  0
   11.2022    0.8406   24.1023 C   0  0  0  0  0  0  0  0  0  0  0  0
   13.3326   -0.0539   24.2884 C   0  0  0  0  0  0  0  0  0  0  0  0
   11.2818    3.0426   24.1026 N   0  0  0  0  0  0  0  0  0  0  0  0
   12.9396    4.4886   24.2821 O   0  0  0  0  0  0  0  0  0  0  0  0
    9.0373    1.9858   24.1159 N   0  0  0  0  0  0  0  0  0  0  0  0
   11.7706    4.3205   23.9837 C   0  0  0  0  0  0  0  0  0  0  0  0
    9.1789    6.4136   23.8162 H   0  0  0  0  0  0  0  0  0  0  0  0
   10.2710    4.9456   22.8027 H   0  0  0  0  0  0  0  0  0  0  0  0
   10.5685    7.1676   24.5909 H   0  0  0  0  0  0  0  0  0  0  0  0
   10.0845    6.2058   24.3799 C   0  0  0  0  0  0  0  0  0  0  0  0
   10.9404    5.3898   23.5540 C   0  0  3  0  0  0  0  0  0  0  0  0
    9.8405    5.6914   25.3103 H   0  0  0  0  0  0  0  0  0  0  0  0
    9.7920    1.3213   25.3170 H   0  0  0  0  0  0  0  0  0  0  0  0
    9.0614    2.7329   24.7802 H   0  0  0  0  0  0  0  0  0  0  0  0
   11.6225    6.0997   23.0633 H   0  0  0  0  0  0  0  0  0  0  0  0
 20 23  1  0  0  0  0
 21 22  1  0  0  0  0
 19 22  1  0  0  0  0
 22 23  1  0  0  0  0
 18 23  1  0  0  0  0
 22 24  1  0  0  0  0
 16 18  2  0  0  0  0
 15 18  1  0  0  0  0
  8 15  2  0  0  0  0
  8 13  1  0  0  0  0
  7 17  1  0  0  0  0
  5 17  1  0  0  0  0
 12 14  1  0  0  0  0
  7 13  1  0  0  0  0
  9 13  2  0  0  0  0
  5  7  1  0  0  0  0
 10 14  1  0  0  0  0
  9 14  1  0  0  0  0
 11 14  1  0  0  0  0
  4  9  1  0  0  0  0
  5  6  1  0  0  0  0
  1  5  1  0  0  0  0
  4  6  1  0  0  0  0
  3  6  1  0  0  0  0
  2  6  1  0  0  0  0
  7 25  1  0  0  0  0
 17 26  1  0  0  0  0
 23 27  1  0  0  0  0
M  CHG  1   5   2
M  END
> <Chemgauss4>
-5.606662

$$$$
