stable:False satoms:15 tatoms:24 sratio:0.625
  -OEChem-08062401363D

 27 28  0     1  0  0  0  0  0999 V2000
   -6.2919   -1.1354  -25.4531 Br  0  0  0  0  0  0  0  0  0  0  0  0
   -8.9032   -1.9390  -25.8687 H   0  0  0  0  0  0  0  0  0  0  0  0
   -8.7029   -2.4819  -24.0181 F   0  0  0  0  0  0  0  0  0  0  0  0
  -10.5102   -1.4586  -24.8369 O   0  0  0  0  0  0  0  0  0  0  0  0
   -8.2989    0.1368  -24.6103 S   0  2  3  0  0  0  0  0  0  0  0  0
   -9.2501   -1.5634  -24.8899 C   0  0  1  0  0  0  0  0  0  0  0  0
   -9.5014    0.9653  -24.2558 C   0  0  3  0  0  0  0  0  0  0  0  0
  -11.6606    1.8459  -23.8360 N   0  0  0  0  0  0  0  0  0  0  0  0
  -11.6586   -0.3094  -24.3993 C   0  0  0  0  0  0  0  0  0  0  0  0
  -13.4885    0.5494  -25.0491 H   0  0  0  0  0  0  0  0  0  0  0  0
  -13.7210   -1.0989  -24.4534 H   0  0  0  0  0  0  0  0  0  0  0  0
  -13.4642    0.2032  -23.3017 H   0  0  0  0  0  0  0  0  0  0  0  0
  -11.0521    0.7377  -24.1023 C   0  0  0  0  0  0  0  0  0  0  0  0
  -13.1825   -0.1568  -24.2884 C   0  0  0  0  0  0  0  0  0  0  0  0
  -11.1318    2.9396  -24.1026 N   0  0  0  0  0  0  0  0  0  0  0  0
  -12.7896    4.3857  -24.2821 O   0  0  0  0  0  0  0  0  0  0  0  0
   -8.8872    1.8829  -24.1159 N   0  0  0  0  0  0  0  0  0  0  0  0
  -11.6206    4.2176  -23.9837 C   0  0  0  0  0  0  0  0  0  0  0  0
   -9.0288    6.3107  -23.8162 H   0  0  0  0  0  0  0  0  0  0  0  0
  -10.1209    4.8427  -22.8027 H   0  0  0  0  0  0  0  0  0  0  0  0
  -10.4184    7.0647  -24.5909 H   0  0  0  0  0  0  0  0  0  0  0  0
   -9.9344    6.1029  -24.3799 C   0  0  0  0  0  0  0  0  0  0  0  0
  -10.7904    5.2869  -23.5540 C   0  0  3  0  0  0  0  0  0  0  0  0
   -9.6904    5.5885  -25.3103 H   0  0  0  0  0  0  0  0  0  0  0  0
   -9.6419    1.2184  -25.3170 H   0  0  0  0  0  0  0  0  0  0  0  0
   -8.9113    2.6300  -24.7802 H   0  0  0  0  0  0  0  0  0  0  0  0
  -11.4725    5.9968  -23.0633 H   0  0  0  0  0  0  0  0  0  0  0  0
 20 23  1  0  0  0  0
 21 22  1  0  0  0  0
 19 22  1  0  0  0  0
 22 23  1  0  0  0  0
 18 23  1  0  0  0  0
 22 24  1  0  0  0  0
 16 18  2  0  0  0  0
 15 18  1  0  0  0  0
  8 15  2  0  0  0  0
  8 13  1  0  0  0  0
  7 17  1  0  0  0  0
  5 17  1  0  0  0  0
 12 14  1  0  0  0  0
  7 13  1  0  0  0  0
  9 13  2  0  0  0  0
  5  7  1  0  0  0  0
 10 14  1  0  0  0  0
  9 14  1  0  0  0  0
 11 14  1  0  0  0  0
  4  9  1  0  0  0  0
  5  6  1  0  0  0  0
  1  5  1  0  0  0  0
  4  6  1  0  0  0  0
  3  6  1  0  0  0  0
  2  6  1  0  0  0  0
  7 25  1  0  0  0  0
 17 26  1  0  0  0  0
 23 27  1  0  0  0  0
M  CHG  1   5   2
M  END
> <Chemgauss4>
-5.569959

$$$$
