stable:False satoms:19 tatoms:24 sratio:0.7916666666666666
  -OEChem-07092417333D

 24 24  0     1  0  0  0  0  0999 V2000
    9.4084   -2.5370   26.0837 H   0  0  0  0  0  0  0  0  0  0  0  0
    9.5253   -2.1018   25.1050 C   0  3  0  0  0  0  0  0  0  0  0  0
    7.7420   -1.7504   20.9234 C   0  0  0  0  0  0  0  0  0  0  0  0
    8.4375   -1.7520   24.6042 N   0  5  0  0  0  0  0  0  0  0  0  0
    7.0321   -2.2313   21.5855 H   0  0  0  0  0  0  0  0  0  0  0  0
    6.9596    0.1799   22.5602 C   0  0  2  0  0  0  0  0  0  0  0  0
   10.8768   -1.9814   24.5900 C   0  0  0  0  0  0  0  0  0  0  0  0
    7.3317   -0.9825   20.2742 H   0  0  0  0  0  0  0  0  0  0  0  0
   10.0008   -1.0431   21.3900 N   0  0  0  0  0  0  0  0  0  0  0  0
   12.5648   -1.8796   23.3539 H   0  0  0  0  0  0  0  0  0  0  0  0
   11.4851   -1.8075   23.3461 C   0  0  0  0  0  0  0  0  0  0  0  0
   11.6180   -2.0842   25.3766 H   0  0  0  0  0  0  0  0  0  0  0  0
    8.7252   -0.9327   21.6523 C   0  0  0  0  0  0  0  0  0  0  0  0
   11.0770   -1.6737   21.9181 C   0  0  0  0  0  0  0  0  0  0  0  0
    5.6628    0.1010   21.8513 N   0  0  0  0  0  0  0  0  0  0  0  0
    7.4237    1.3575   22.5573 O   0  0  0  0  0  0  0  0  0  0  0  0
    8.1982   -1.2735   23.7505 H   0  0  0  0  0  0  0  0  0  0  0  0
   10.1057   -0.8148   20.3779 H   0  0  0  0  0  0  0  0  0  0  0  0
   11.7873   -2.0544   21.0496 O   0  0  0  0  0  0  0  0  0  0  0  0
    8.1346   -2.4649   20.2202 H   0  0  0  0  0  0  0  0  0  0  0  0
    8.2494    0.1861   22.0943 N   0  3  0  0  0  0  0  0  0  0  0  0
    6.7043   -0.5064   23.4105 H   0  0  0  0  0  0  0  0  0  0  0  0
    5.6501    0.3187   20.8801 H   0  0  0  0  0  0  0  0  0  0  0  0
    4.8838    0.4380   22.3419 H   0  0  0  0  0  0  0  0  0  0  0  0
  3 20  1  0  0  0  0
  3  8  1  0  0  0  0
  9 18  1  0  0  0  0
 15 23  1  0  0  0  0
  3  5  1  0  0  0  0
  3 13  1  0  0  0  0
 14 19  2  0  0  0  0
  9 13  1  0  0  0  0
  9 14  1  0  0  0  0
 13 21  2  0  0  0  0
 15 24  1  0  0  0  0
  6 15  1  0  0  0  0
 11 14  1  0  0  0  0
 16 21  1  0  0  0  0
  6 21  1  0  0  0  0
  6 16  1  0  0  0  0
  6 22  1  0  0  0  0
 10 11  1  0  0  0  0
  7 11  2  0  0  0  0
  4 17  1  0  0  0  0
  2  7  1  0  0  0  0
  7 12  1  0  0  0  0
  2  4  1  0  0  0  0
  1  2  1  0  0  0  0
M  CHG  3   2   1   4  -1  21   1
M  END
> <Shapegauss>
-95.367676

$$$$
