stable:False satoms:13 tatoms:24 sratio:0.5416666666666666
  -OEChem-07092417333D

 24 25  0     1  0  0  0  0  0999 V2000
    5.7463   -1.0394   24.4379 S   0  0  0  0  0  0  0  0  0  0  0  0
    7.2836   -1.6971   24.0927 C   0  0  0  0  0  0  0  0  0  0  0  0
    9.0012   -4.2621   25.4168 N   0  0  0  0  0  0  0  0  0  0  0  0
    8.3838   -4.3157   26.1659 H   0  0  0  0  0  0  0  0  0  0  0  0
    9.8925   -4.6555   25.5062 H   0  0  0  0  0  0  0  0  0  0  0  0
    8.9928   -3.1572   24.6183 C   0  0  0  0  0  0  0  0  0  0  0  0
    8.4142   -1.3548   23.1064 C   0  0  0  0  0  0  0  0  0  0  0  0
   10.9254   -0.7388   20.9684 N   0  0  0  0  0  0  0  0  0  0  0  0
   10.0146   -2.6419   23.9952 C   0  0  0  0  0  0  0  0  0  0  0  0
    7.9483    0.9022   21.2194 C   0  0  0  0  0  0  0  0  0  0  0  0
   10.6417   -0.8073   23.0742 H   0  0  0  0  0  0  0  0  0  0  0  0
   11.0063   -2.9883   24.0278 H   0  0  0  0  0  0  0  0  0  0  0  0
   11.3448    0.3164   20.0728 N   0  0  0  0  0  0  0  0  0  0  0  0
    8.8842   -1.3998   22.0622 C   0  5  1  0  0  0  0  0  0  0  0  0
    8.6369    0.7943   19.3643 H   0  0  0  0  0  0  0  0  0  0  0  0
    7.9754    1.0966   22.3821 O   0  0  0  0  0  0  0  0  0  0  0  0
    9.7365   -1.4787   23.1107 C   0  0  1  0  0  0  0  0  0  0  0  0
    8.6183   -1.7520   21.0500 H   0  0  0  0  0  0  0  0  0  0  0  0
    5.9817    1.2273   21.1661 H   0  0  0  0  0  0  0  0  0  0  0  0
    6.6352    1.3905   19.6029 H   0  0  0  0  0  0  0  0  0  0  0  0
    8.8476    0.6331   20.2894 N   0  0  0  0  0  0  0  0  0  0  0  0
    6.7323    1.2565   20.5507 N   0  0  0  0  0  0  0  0  0  0  0  0
   10.2810    0.0633   20.4553 C   0  0  0  0  0  0  0  0  0  0  0  0
    7.6596   -2.6817   24.5610 O   0  0  0  0  0  0  0  0  0  0  0  0
 15 21  1  0  0  0  0
 20 22  1  0  0  0  0
 13 23  1  0  0  0  0
  8 13  1  0  0  0  0
 21 23  1  0  0  0  0
 10 21  1  0  0  0  0
  8 23  1  0  0  0  0
 19 22  1  0  0  0  0
 10 22  1  0  0  0  0
 14 18  1  0  0  0  0
 10 16  2  0  0  0  0
  7 14  1  0  0  0  0
 14 17  1  0  0  0  0
 11 17  1  0  0  0  0
  7 17  1  0  0  0  0
  2  7  2  0  0  0  0
  9 17  1  0  0  0  0
  9 12  1  0  0  0  0
  6  9  2  0  0  0  0
  1  2  1  0  0  0  0
  2 24  1  0  0  0  0
  6 24  1  0  0  0  0
  3  6  1  0  0  0  0
  3  5  1  0  0  0  0
  3  4  1  0  0  0  0
M  CHG  1  14  -1
M  END
> <Shapegauss>
-120.708427

$$$$
