MODEL 1
REMARK VINA RESULT:    -4.781      0.000      0.000
REMARK INTER + INTRA:          -5.525
REMARK INTER:                  -5.479
REMARK INTRA:                  -0.046
REMARK UNBOUND:                -0.046
REMARK  3 active torsions:
REMARK  status: ('A' for Active; 'I' for Inactive)
REMARK    1  A    between atoms: C_1  and  C_8 
REMARK    2  A    between atoms: C_2  and  C_12 
REMARK    3  A    between atoms: C_8  and  O_9 
ROOT
HETATM    1  C   UNL     1       1.466 -18.588   9.101  1.00  0.00     0.018 A 
HETATM    2  C   UNL     1       2.741 -19.424   9.480  1.00  0.00     0.025 A 
HETATM    3  C   UNL     1       2.732 -18.357   8.453  1.00  0.00     0.017 A 
ENDROOT
BRANCH   2   4
HETATM    4  C   UNL     1       2.827 -20.815   8.982  1.00  0.00    -0.057 A 
HETATM    5  C   UNL     1       2.228 -21.846   9.677  1.00  0.00    -0.015 A 
HETATM    6  C   UNL     1       2.388 -23.277   9.318  1.00  0.00     0.054 A 
HETATM    7  C   UNL     1       3.209 -23.439   8.096  1.00  0.00    -0.023 A 
HETATM    8  C   UNL     1       3.735 -22.387   7.404  1.00  0.00    -0.003 A 
HETATM    9  C   UNL     1       3.532 -21.056   7.821  1.00  0.00     0.007 A 
ENDBRANCH   2   4
BRANCH   1  10
HETATM   10  C   UNL     1       0.622 -17.293   8.937  1.00  0.00     0.169 C 
BRANCH  10  11
HETATM   11  O   UNL     1       1.526 -16.251   9.123  1.00  0.00    -0.400 OA
HETATM   12  H   UNL     1       1.012 -15.585   9.653  1.00  0.00     0.209 HD
ENDBRANCH  10  11
ENDBRANCH   1  10
TORSDOF 3
ENDMDL
MODEL 2
REMARK VINA RESULT:    -4.651     36.279     38.923
REMARK INTER + INTRA:          -5.377
REMARK INTER:                  -5.297
REMARK INTRA:                  -0.080
REMARK UNBOUND:                -0.046
REMARK  3 active torsions:
REMARK  status: ('A' for Active; 'I' for Inactive)
REMARK    1  A    between atoms: C_1  and  C_8 
REMARK    2  A    between atoms: C_2  and  C_12 
REMARK    3  A    between atoms: C_8  and  O_9 
ROOT
HETATM    1  C   UNL     1       9.046  15.734   2.856  1.00  0.00     0.018 A 
HETATM    2  C   UNL     1       7.960  16.117   1.786  1.00  0.00     0.025 A 
HETATM    3  C   UNL     1       9.215  15.400   1.464  1.00  0.00     0.017 A 
ENDROOT
BRANCH   2   4
HETATM    4  C   UNL     1       7.882  17.531   1.358  1.00  0.00    -0.057 A 
HETATM    5  C   UNL     1       7.141  18.443   2.083  1.00  0.00    -0.015 A 
HETATM    6  C   UNL     1       6.902  19.840   1.641  1.00  0.00     0.054 A 
HETATM    7  C   UNL     1       7.610  20.134   0.374  1.00  0.00    -0.023 A 
HETATM    8  C   UNL     1       8.382  19.219  -0.282  1.00  0.00    -0.003 A 
HETATM    9  C   UNL     1       8.551  17.910   0.213  1.00  0.00     0.007 A 
ENDBRANCH   2   4
BRANCH   1  10
HETATM   10  C   UNL     1       9.944  14.765   3.673  1.00  0.00     0.169 C 
BRANCH  10  11
HETATM   11  O   UNL     1      11.070  14.565   2.880  1.00  0.00    -0.400 OA
HETATM   12  H   UNL     1      10.873  13.715   2.401  1.00  0.00     0.209 HD
ENDBRANCH  10  11
ENDBRANCH   1  10
TORSDOF 3
ENDMDL
MODEL 3
REMARK VINA RESULT:    -4.649     30.478     31.371
REMARK INTER + INTRA:          -5.374
REMARK INTER:                  -5.302
REMARK INTRA:                  -0.072
REMARK UNBOUND:                -0.046
REMARK  3 active torsions:
REMARK  status: ('A' for Active; 'I' for Inactive)
REMARK    1  A    between atoms: C_1  and  C_8 
REMARK    2  A    between atoms: C_2  and  C_12 
REMARK    3  A    between atoms: C_8  and  O_9 
ROOT
HETATM    1  C   UNL     1      23.751  -5.178  25.111  1.00  0.00     0.018 A 
HETATM    2  C   UNL     1      23.988  -3.650  25.392  1.00  0.00     0.025 A 
HETATM    3  C   UNL     1      23.608  -4.629  26.435  1.00  0.00     0.017 A 
ENDROOT
BRANCH   2   4
HETATM    4  C   UNL     1      22.936  -2.700  24.968  1.00  0.00    -0.057 A 
HETATM    5  C   UNL     1      21.861  -2.431  25.791  1.00  0.00    -0.015 A 
HETATM    6  C   UNL     1      20.701  -1.602  25.378  1.00  0.00     0.054 A 
HETATM    7  C   UNL     1      20.884  -1.058  24.013  1.00  0.00    -0.023 A 
HETATM    8  C   UNL     1      21.992  -1.300  23.254  1.00  0.00    -0.003 A 
HETATM    9  C   UNL     1      23.048  -2.104  23.728  1.00  0.00     0.007 A 
ENDBRANCH   2   4
BRANCH   1  10
HETATM   10  C   UNL     1      24.013  -6.701  25.270  1.00  0.00     0.169 C 
BRANCH  10  11
HETATM   11  O   UNL     1      24.096  -6.908  26.643  1.00  0.00    -0.400 OA
HETATM   12  H   UNL     1      24.266  -5.999  27.009  1.00  0.00     0.209 HD
ENDBRANCH  10  11
ENDBRANCH   1  10
TORSDOF 3
ENDMDL
MODEL 4
REMARK VINA RESULT:    -4.475      3.824      6.042
REMARK INTER + INTRA:          -5.175
REMARK INTER:                  -5.104
REMARK INTRA:                  -0.071
REMARK UNBOUND:                -0.046
REMARK  3 active torsions:
REMARK  status: ('A' for Active; 'I' for Inactive)
REMARK    1  A    between atoms: C_1  and  C_8 
REMARK    2  A    between atoms: C_2  and  C_12 
REMARK    3  A    between atoms: C_8  and  O_9 
ROOT
HETATM    1  C   UNL     1       3.491 -25.177  10.412  1.00  0.00     0.018 A 
HETATM    2  C   UNL     1       2.596 -24.672   9.224  1.00  0.00     0.025 A 
HETATM    3  C   UNL     1       3.842 -25.450   9.042  1.00  0.00     0.017 A 
ENDROOT
BRANCH   2   4
HETATM    4  C   UNL     1       2.660 -23.236   8.874  1.00  0.00    -0.057 A 
HETATM    5  C   UNL     1       3.508 -22.794   7.879  1.00  0.00    -0.015 A 
HETATM    6  C   UNL     1       3.730 -21.360   7.569  1.00  0.00     0.054 A 
HETATM    7  C   UNL     1       2.881 -20.487   8.412  1.00  0.00    -0.023 A 
HETATM    8  C   UNL     1       2.010 -20.968   9.346  1.00  0.00    -0.003 A 
HETATM    9  C   UNL     1       1.866 -22.351   9.575  1.00  0.00     0.007 A 
ENDBRANCH   2   4
BRANCH   1  10
HETATM   10  C   UNL     1       4.205 -26.242  11.290  1.00  0.00     0.169 C 
BRANCH  10  11
HETATM   11  O   UNL     1       4.951 -27.002  10.395  1.00  0.00    -0.400 OA
HETATM   12  H   UNL     1       4.594 -27.923  10.512  1.00  0.00     0.209 HD
ENDBRANCH  10  11
ENDBRANCH   1  10
TORSDOF 3
ENDMDL
MODEL 5
REMARK VINA RESULT:    -4.442     32.743     33.272
REMARK INTER + INTRA:          -5.137
REMARK INTER:                  -5.088
REMARK INTRA:                  -0.049
REMARK UNBOUND:                -0.046
REMARK  3 active torsions:
REMARK  status: ('A' for Active; 'I' for Inactive)
REMARK    1  A    between atoms: C_1  and  C_8 
REMARK    2  A    between atoms: C_2  and  C_12 
REMARK    3  A    between atoms: C_8  and  O_9 
ROOT
HETATM    1  C   UNL     1      17.778  -3.367  33.780  1.00  0.00     0.018 A 
HETATM    2  C   UNL     1      17.546  -4.781  33.135  1.00  0.00     0.025 A 
HETATM    3  C   UNL     1      16.658  -4.189  34.162  1.00  0.00     0.017 A 
ENDROOT
BRANCH   2   4
HETATM    4  C   UNL     1      18.415  -5.893  33.579  1.00  0.00    -0.057 A 
HETATM    5  C   UNL     1      19.556  -6.215  32.872  1.00  0.00    -0.015 A 
HETATM    6  C   UNL     1      20.398  -7.400  33.172  1.00  0.00     0.054 A 
HETATM    7  C   UNL     1      19.893  -8.136  34.354  1.00  0.00    -0.023 A 
HETATM    8  C   UNL     1      18.792  -7.749  35.062  1.00  0.00    -0.003 A 
HETATM    9  C   UNL     1      18.050  -6.607  34.701  1.00  0.00     0.007 A 
ENDBRANCH   2   4
BRANCH   1  10
HETATM   10  C   UNL     1      17.413  -1.899  34.137  1.00  0.00     0.169 C 
BRANCH  10  11
HETATM   11  O   UNL     1      16.417  -1.548  33.231  1.00  0.00    -0.400 OA
HETATM   12  H   UNL     1      16.078  -0.680  33.579  1.00  0.00     0.209 HD
ENDBRANCH  10  11
ENDBRANCH   1  10
TORSDOF 3
ENDMDL
MODEL 6
REMARK VINA RESULT:    -4.426     23.860     25.221
REMARK INTER + INTRA:          -5.119
REMARK INTER:                  -5.076
REMARK INTRA:                  -0.043
REMARK UNBOUND:                -0.046
REMARK  3 active torsions:
REMARK  status: ('A' for Active; 'I' for Inactive)
REMARK    1  A    between atoms: C_1  and  C_8 
REMARK    2  A    between atoms: C_2  and  C_12 
REMARK    3  A    between atoms: C_8  and  O_9 
ROOT
HETATM    1  C   UNL     1       8.412  -0.293  20.796  1.00  0.00     0.018 A 
HETATM    2  C   UNL     1       8.865  -1.352  21.865  1.00  0.00     0.025 A 
HETATM    3  C   UNL     1       7.602  -0.585  21.950  1.00  0.00     0.017 A 
ENDROOT
BRANCH   2   4
HETATM    4  C   UNL     1       9.935  -0.964  22.810  1.00  0.00    -0.057 A 
HETATM    5  C   UNL     1       9.694  -0.030  23.797  1.00  0.00    -0.015 A 
HETATM    6  C   UNL     1      10.750   0.511  24.688  1.00  0.00     0.054 A 
HETATM    7  C   UNL     1      12.060  -0.126  24.423  1.00  0.00    -0.023 A 
HETATM    8  C   UNL     1      12.244  -1.091  23.475  1.00  0.00    -0.003 A 
HETATM    9  C   UNL     1      11.179  -1.544  22.670  1.00  0.00     0.007 A 
ENDBRANCH   2   4
BRANCH   1  10
HETATM   10  C   UNL     1       7.474   0.312  19.716  1.00  0.00     0.169 C 
BRANCH  10  11
HETATM   11  O   UNL     1       8.057  -0.033  18.500  1.00  0.00    -0.400 OA
HETATM   12  H   UNL     1       7.295  -0.024  17.862  1.00  0.00     0.209 HD
ENDBRANCH  10  11
ENDBRANCH   1  10
TORSDOF 3
ENDMDL
MODEL 7
REMARK VINA RESULT:    -4.377     14.719     17.814
REMARK INTER + INTRA:          -5.062
REMARK INTER:                  -4.989
REMARK INTRA:                  -0.073
REMARK UNBOUND:                -0.046
REMARK  3 active torsions:
REMARK  status: ('A' for Active; 'I' for Inactive)
REMARK    1  A    between atoms: C_1  and  C_8 
REMARK    2  A    between atoms: C_2  and  C_12 
REMARK    3  A    between atoms: C_8  and  O_9 
ROOT
HETATM    1  C   UNL     1      -4.144  -7.139  14.519  1.00  0.00     0.018 A 
HETATM    2  C   UNL     1      -4.888  -6.246  15.576  1.00  0.00     0.025 A 
HETATM    3  C   UNL     1      -4.758  -5.891  14.144  1.00  0.00     0.017 A 
ENDROOT
BRANCH   2   4
HETATM    4  C   UNL     1      -4.062  -5.466  16.524  1.00  0.00    -0.057 A 
HETATM    5  C   UNL     1      -3.640  -6.028  17.712  1.00  0.00    -0.015 A 
HETATM    6  C   UNL     1      -2.931  -5.268  18.771  1.00  0.00     0.054 A 
HETATM    7  C   UNL     1      -2.686  -3.867  18.358  1.00  0.00    -0.023 A 
HETATM    8  C   UNL     1      -3.069  -3.366  17.148  1.00  0.00    -0.003 A 
HETATM    9  C   UNL     1      -3.741  -4.164  16.201  1.00  0.00     0.007 A 
ENDBRANCH   2   4
BRANCH   1  10
HETATM   10  C   UNL     1      -4.021  -7.997  13.229  1.00  0.00     0.169 C 
BRANCH  10  11
HETATM   11  O   UNL     1      -3.043  -8.943  13.520  1.00  0.00    -0.400 OA
HETATM   12  H   UNL     1      -2.272  -8.665  12.956  1.00  0.00     0.209 HD
ENDBRANCH  10  11
ENDBRANCH   1  10
TORSDOF 3
ENDMDL
MODEL 8
REMARK VINA RESULT:    -4.345     23.146     25.211
REMARK INTER + INTRA:          -5.026
REMARK INTER:                  -4.965
REMARK INTRA:                  -0.061
REMARK UNBOUND:                -0.046
REMARK  3 active torsions:
REMARK  status: ('A' for Active; 'I' for Inactive)
REMARK    1  A    between atoms: C_1  and  C_8 
REMARK    2  A    between atoms: C_2  and  C_12 
REMARK    3  A    between atoms: C_8  and  O_9 
ROOT
HETATM    1  C   UNL     1       6.602   0.592  19.302  1.00  0.00     0.018 A 
HETATM    2  C   UNL     1       6.805   0.334  20.839  1.00  0.00     0.025 A 
HETATM    3  C   UNL     1       5.877   1.349  20.291  1.00  0.00     0.017 A 
ENDROOT
BRANCH   2   4
HETATM    4  C   UNL     1       8.043   0.846  21.467  1.00  0.00    -0.057 A 
HETATM    5  C   UNL     1       8.027   2.020  22.193  1.00  0.00    -0.015 A 
HETATM    6  C   UNL     1       9.250   2.666  22.731  1.00  0.00     0.054 A 
HETATM    7  C   UNL     1      10.458   1.860  22.444  1.00  0.00    -0.023 A 
HETATM    8  C   UNL     1      10.423   0.673  21.772  1.00  0.00    -0.003 A 
HETATM    9  C   UNL     1       9.212   0.134  21.294  1.00  0.00     0.007 A 
ENDBRANCH   2   4
BRANCH   1  10
HETATM   10  C   UNL     1       5.793   0.672  17.978  1.00  0.00     0.169 C 
BRANCH  10  11
HETATM   11  O   UNL     1       5.655  -0.649  17.563  1.00  0.00    -0.400 OA
HETATM   12  H   UNL     1       5.261  -1.105  18.354  1.00  0.00     0.209 HD
ENDBRANCH  10  11
ENDBRANCH   1  10
TORSDOF 3
ENDMDL
MODEL 9
REMARK VINA RESULT:    -4.193     20.976     22.770
REMARK INTER + INTRA:          -4.852
REMARK INTER:                  -4.798
REMARK INTRA:                  -0.054
REMARK UNBOUND:                -0.046
REMARK  3 active torsions:
REMARK  status: ('A' for Active; 'I' for Inactive)
REMARK    1  A    between atoms: C_1  and  C_8 
REMARK    2  A    between atoms: C_2  and  C_12 
REMARK    3  A    between atoms: C_8  and  O_9 
ROOT
HETATM    1  C   UNL     1       7.030  -5.259  26.392  1.00  0.00     0.018 A 
HETATM    2  C   UNL     1       7.954  -4.902  25.172  1.00  0.00     0.025 A 
HETATM    3  C   UNL     1       7.553  -3.929  26.213  1.00  0.00     0.017 A 
ENDROOT
BRANCH   2   4
HETATM    4  C   UNL     1       7.317  -4.747  23.846  1.00  0.00    -0.057 A 
HETATM    5  C   UNL     1       6.547  -3.637  23.564  1.00  0.00    -0.015 A 
HETATM    6  C   UNL     1       5.766  -3.478  22.313  1.00  0.00     0.054 A 
HETATM    7  C   UNL     1       5.975  -4.623  21.397  1.00  0.00    -0.023 A 
HETATM    8  C   UNL     1       6.793  -5.675  21.690  1.00  0.00    -0.003 A 
HETATM    9  C   UNL     1       7.497  -5.742  22.908  1.00  0.00     0.007 A 
ENDBRANCH   2   4
BRANCH   1  10
HETATM   10  C   UNL     1       6.672  -5.414  27.896  1.00  0.00     0.169 C 
BRANCH  10  11
HETATM   11  O   UNL     1       7.536  -6.396  28.370  1.00  0.00    -0.400 OA
HETATM   12  H   UNL     1       8.363  -6.262  27.833  1.00  0.00     0.209 HD
ENDBRANCH  10  11
ENDBRANCH   1  10
TORSDOF 3
ENDMDL
