REMARK  3 active torsions:
REMARK  status: ('A' for Active; 'I' for Inactive)
REMARK    1  A    between atoms: C_1  and  C_8 
REMARK    2  A    between atoms: C_2  and  C_12 
REMARK    3  A    between atoms: C_8  and  O_9 
ROOT
HETATM    1  C   UNL     1      10.063  -2.019  21.507  1.00  0.00     0.018 A 
HETATM    2  C   UNL     1       8.704  -2.353  22.222  1.00  0.00     0.025 A 
HETATM    3  C   UNL     1       8.818  -2.028  20.782  1.00  0.00     0.017 A 
ENDROOT
BRANCH   2   4
HETATM    4  C   UNL     1       8.105  -1.312  23.086  1.00  0.00    -0.057 A 
HETATM    5  C   UNL     1       8.226  -1.386  24.459  1.00  0.00    -0.015 A 
HETATM    6  C   UNL     1       7.537  -0.461  25.393  1.00  0.00     0.054 A 
HETATM    7  C   UNL     1       6.770   0.573  24.661  1.00  0.00    -0.023 A 
HETATM    8  C   UNL     1       6.724   0.646  23.299  1.00  0.00    -0.003 A 
HETATM    9  C   UNL     1       7.411  -0.280  22.489  1.00  0.00     0.007 A 
ENDBRANCH   2   4
BRANCH   1  10
HETATM   10  C   UNL     1      11.201  -2.223  20.469  1.00  0.00     0.169 C 
BRANCH  10  11
HETATM   11  O   UNL     1      11.335  -0.990  19.838  1.00  0.00    -0.400 OA
HETATM   12  H   UNL     1      11.601  -0.376  20.574  1.00  0.00     0.209 HD
ENDBRANCH  10  11
ENDBRANCH   1  10
TORSDOF 3
