stable:False satoms:18 tatoms:24 sratio:0.75
  -OEChem-07092417403D

 24 25  0     1  0  0  0  0  0999 V2000
    6.8735   -4.7992   26.3478 F   0  0  0  0  0  0  0  0  0  0  0  0
    8.1642   -4.2590   26.0381 C   0  0  0  0  0  0  0  0  0  0  0  0
    8.9693   -5.3003   25.9845 O   0  0  0  0  0  0  0  0  0  0  0  0
    8.4989   -3.4604   27.1191 F   0  0  0  0  0  0  0  0  0  0  0  0
    8.0549   -3.4882   24.8071 N   0  3  0  0  0  0  0  0  0  0  0  0
    8.7569   -2.8370   24.0894 C   0  0  0  0  0  0  0  0  0  0  0  0
    9.2639   -1.9884   23.3972 C   0  0  0  0  0  0  0  0  0  0  0  0
    9.8111   -0.9454   22.8110 C   0  0  0  0  0  0  0  0  0  0  0  0
   10.7176    0.6443   23.6763 H   0  0  0  0  0  0  0  0  0  0  0  0
   12.3451   -0.9195   24.5331 H   0  0  0  0  0  0  0  0  0  0  0  0
   12.9991   -0.1873   23.1526 H   0  0  0  0  0  0  0  0  0  0  0  0
   12.3746   -1.7895   22.9368 H   0  0  0  0  0  0  0  0  0  0  0  0
   12.2236   -0.8601   23.4571 C   0  0  0  0  0  0  0  0  0  0  0  0
   10.8504   -0.3285   23.2603 C   0  0  0  0  0  0  0  0  0  0  0  0
    9.0483   -0.1631   21.4924 C   0  0  0  0  0  0  0  0  0  0  0  0
    9.5729    0.8660   21.2156 O   0  0  0  0  0  0  0  0  0  0  0  0
    7.9990   -0.7256   20.9688 N   0  0  0  0  0  0  0  0  0  0  0  0
    7.1986   -0.0832   20.1847 C   0  0  0  0  0  0  0  0  0  0  0  0
    7.0111    0.0899   18.8841 C   0  0  1  0  0  0  0  0  0  0  0  0
    5.8577    0.6775   17.2087 H   0  0  0  0  0  0  0  0  0  0  0  0
    6.0186    0.5891   18.2056 C   0  5  3  0  0  0  0  0  0  0  0  0
    5.5677    0.7928   19.4120 C   0  0  1  0  0  0  0  0  0  0  0  0
    5.8940    0.5403   20.5783 C   0  0  0  0  0  0  0  0  0  0  0  0
    5.5130    0.6448   21.5361 H   0  0  0  0  0  0  0  0  0  0  0  0
 20 21  1  0  0  0  0
 19 21  1  0  0  0  0
 21 22  1  0  0  0  0
 19 22  1  0  0  0  0
 18 19  1  0  0  0  0
 22 23  1  0  0  0  0
 18 23  2  0  0  0  0
 17 18  1  0  0  0  0
 23 24  1  0  0  0  0
 15 17  1  0  0  0  0
 15 16  2  0  0  0  0
  8 15  1  0  0  0  0
  8 14  2  3  0  0  0
  7  8  1  0  0  0  0
 12 13  1  0  0  0  0
 11 13  1  0  0  0  0
 13 14  1  0  0  0  0
  9 14  1  0  0  0  0
  6  7  3  0  0  0  0
 10 13  1  0  0  0  0
  5  6  1  0  0  0  0
  2  5  1  0  0  0  0
  2  3  1  0  0  0  0
  1  2  1  0  0  0  0
  2  4  1  0  0  0  0
M  CHG  2   5   1  21  -1
M  END
> <Shapegauss>
-209.950699

$$$$
