stable:False satoms:18 tatoms:24 sratio:0.75
  -OEChem-08062405513D

 30 31  0     1  0  0  0  0  0999 V2000
    6.2238    1.5704   17.9906 F   0  0  0  0  0  0  0  0  0  0  0  0
    5.8974    0.3156   18.6011 C   0  0  0  0  0  0  0  0  0  0  0  0
    5.6836   -0.5102   17.5973 O   0  0  0  0  0  0  0  0  0  0  0  0
    4.7156    0.5364   19.2889 F   0  0  0  0  0  0  0  0  0  0  0  0
    6.9851   -0.0552   19.4960 N   0  0  0  0  0  0  0  0  0  0  0  0
    7.2706   -0.9460   20.2423 C   0  0  0  0  0  0  0  0  0  0  0  0
    7.6012   -1.6355   21.1759 C   0  0  0  0  0  0  0  0  0  0  0  0
    7.8031   -2.3013   22.2925 C   0  0  0  0  0  0  0  0  0  0  0  0
    6.5011   -2.6288   23.8075 H   0  0  0  0  0  0  0  0  0  0  0  0
    5.1576   -3.8448   22.2123 H   0  0  0  0  0  0  0  0  0  0  0  0
    6.0519   -4.9700   23.1088 H   0  0  0  0  0  0  0  0  0  0  0  0
    6.6499   -4.6195   21.5204 H   0  0  0  0  0  0  0  0  0  0  0  0
    6.1709   -4.1914   22.3832 C   0  0  0  0  0  0  0  0  0  0  0  0
    6.8981   -2.9991   22.8897 C   0  0  0  0  0  0  0  0  0  0  0  0
    9.2516   -2.1201   23.1878 C   0  0  0  0  0  0  0  0  0  0  0  0
    9.1868   -2.6342   24.2566 O   0  0  0  0  0  0  0  0  0  0  0  0
   10.2231   -1.4411   22.6523 N   0  0  0  0  0  0  0  0  0  0  0  0
   11.2199   -1.0077   23.3500 C   0  0  0  0  0  0  0  0  0  0  0  0
   12.4538   -1.3825   23.6560 C   0  0  1  0  0  0  0  0  0  0  0  0
   13.8097   -1.1282   25.1593 H   0  0  0  0  0  0  0  0  0  0  0  0
   13.4510   -0.7416   24.1940 C   0  0  3  0  0  0  0  0  0  0  0  0
   12.5468    0.1960   24.2525 C   0  0  1  0  0  0  0  0  0  0  0  0
   11.3799    0.3824   23.8864 C   0  0  0  0  0  0  0  0  0  0  0  0
   10.6767    1.1432   23.8753 H   0  0  0  0  0  0  0  0  0  0  0  0
    4.9606   -0.1893   17.0711 H   0  0  0  0  0  0  0  0  0  0  0  0
    7.0315    0.7400   20.1006 H   0  0  0  0  0  0  0  0  0  0  0  0
   10.1974   -1.2488   21.6713 H   0  0  0  0  0  0  0  0  0  0  0  0
   12.1275   -1.7584   24.6369 H   0  0  0  0  0  0  0  0  0  0  0  0
   14.3101   -0.5442   23.5360 H   0  0  0  0  0  0  0  0  0  0  0  0
   12.2201   -0.1330   25.2500 H   0  0  0  0  0  0  0  0  0  0  0  0
 20 21  1  0  0  0  0
 19 21  1  0  0  0  0
 21 22  1  0  0  0  0
 19 22  1  0  0  0  0
 18 19  1  0  0  0  0
 22 23  1  0  0  0  0
 18 23  2  0  0  0  0
 17 18  1  0  0  0  0
 23 24  1  0  0  0  0
 15 17  1  0  0  0  0
 15 16  2  0  0  0  0
  8 15  1  0  0  0  0
  8 14  2  3  0  0  0
  7  8  1  0  0  0  0
 12 13  1  0  0  0  0
 11 13  1  0  0  0  0
 13 14  1  0  0  0  0
  9 14  1  0  0  0  0
  6  7  3  0  0  0  0
 10 13  1  0  0  0  0
  5  6  1  0  0  0  0
  2  5  1  0  0  0  0
  2  3  1  0  0  0  0
  1  2  1  0  0  0  0
  2  4  1  0  0  0  0
  3 25  1  0  0  0  0
  5 26  1  0  0  0  0
 17 27  1  0  0  0  0
 19 28  1  0  0  0  0
 21 29  1  0  0  0  0
 22 30  1  0  0  0  0
M  END
> <Chemgauss4>
-6.964204

$$$$
