stable:False satoms:18 tatoms:24 sratio:0.75
  -OEChem-08062405503D

 30 31  0     1  0  0  0  0  0999 V2000
   -6.5136   -4.3657  -23.4891 F   0  0  0  0  0  0  0  0  0  0  0  0
   -7.9210   -4.2727  -23.2357 C   0  0  0  0  0  0  0  0  0  0  0  0
   -8.0948   -4.8248  -22.0523 O   0  0  0  0  0  0  0  0  0  0  0  0
   -8.5236   -5.0499  -24.2109 F   0  0  0  0  0  0  0  0  0  0  0  0
   -8.3133   -2.8737  -23.3374 N   0  0  0  0  0  0  0  0  0  0  0  0
   -9.3026   -2.2082  -23.2352 C   0  0  0  0  0  0  0  0  0  0  0  0
  -10.2212   -1.4394  -23.3819 C   0  0  0  0  0  0  0  0  0  0  0  0
  -11.2636   -0.7081  -23.7128 C   0  0  0  0  0  0  0  0  0  0  0  0
  -12.7733   -1.1798  -24.9760 H   0  0  0  0  0  0  0  0  0  0  0  0
  -13.3193   -2.9641  -23.4442 H   0  0  0  0  0  0  0  0  0  0  0  0
  -14.3612   -1.6663  -23.1285 H   0  0  0  0  0  0  0  0  0  0  0  0
  -13.0356   -1.8586  -22.0288 H   0  0  0  0  0  0  0  0  0  0  0  0
  -13.3310   -1.9504  -23.0591 C   0  0  0  0  0  0  0  0  0  0  0  0
  -12.4321   -1.1909  -23.9658 C   0  0  0  0  0  0  0  0  0  0  0  0
  -11.1062    0.9618  -24.0582 C   0  0  0  0  0  0  0  0  0  0  0  0
  -12.0973    1.4194  -24.5264 O   0  0  0  0  0  0  0  0  0  0  0  0
   -9.9624    1.5327  -23.8189 N   0  0  0  0  0  0  0  0  0  0  0  0
   -9.6594    2.6884  -24.3095 C   0  0  0  0  0  0  0  0  0  0  0  0
   -9.6895    3.9612  -23.9410 C   0  0  1  0  0  0  0  0  0  0  0  0
   -9.8328    5.8072  -24.7985 H   0  0  0  0  0  0  0  0  0  0  0  0
   -9.1407    5.0280  -24.4465 C   0  0  3  0  0  0  0  0  0  0  0  0
   -8.7580    4.1564  -25.3376 C   0  0  1  0  0  0  0  0  0  0  0  0
   -8.8182    2.9350  -25.5249 C   0  0  0  0  0  0  0  0  0  0  0  0
   -8.4658    2.2295  -26.1969 H   0  0  0  0  0  0  0  0  0  0  0  0
   -7.8133   -5.7317  -22.0811 H   0  0  0  0  0  0  0  0  0  0  0  0
   -8.0069   -2.6428  -24.2609 H   0  0  0  0  0  0  0  0  0  0  0  0
   -9.2978    1.0630  -23.2379 H   0  0  0  0  0  0  0  0  0  0  0  0
  -10.6165    4.1336  -24.5076 H   0  0  0  0  0  0  0  0  0  0  0  0
   -8.3418    5.4903  -23.8482 H   0  0  0  0  0  0  0  0  0  0  0  0
   -9.6578    4.3311  -25.9458 H   0  0  0  0  0  0  0  0  0  0  0  0
 20 21  1  0  0  0  0
 19 21  1  0  0  0  0
 21 22  1  0  0  0  0
 19 22  1  0  0  0  0
 18 19  1  0  0  0  0
 22 23  1  0  0  0  0
 18 23  2  0  0  0  0
 17 18  1  0  0  0  0
 23 24  1  0  0  0  0
 15 17  1  0  0  0  0
 15 16  2  0  0  0  0
  8 15  1  0  0  0  0
  8 14  2  3  0  0  0
  7  8  1  0  0  0  0
 12 13  1  0  0  0  0
 11 13  1  0  0  0  0
 13 14  1  0  0  0  0
  9 14  1  0  0  0  0
  6  7  3  0  0  0  0
 10 13  1  0  0  0  0
  5  6  1  0  0  0  0
  2  5  1  0  0  0  0
  2  3  1  0  0  0  0
  1  2  1  0  0  0  0
  2  4  1  0  0  0  0
  3 25  1  0  0  0  0
  5 26  1  0  0  0  0
 17 27  1  0  0  0  0
 19 28  1  0  0  0  0
 21 29  1  0  0  0  0
 22 30  1  0  0  0  0
M  END
> <Chemgauss4>
-6.910117

$$$$
