
 OpenBabel07202414123D

 64 66  0  0  1  0  0  0  0  0999 V2000
    5.2140   -0.9564   -9.6871 C   0  0  0  0  0  0  0  0  0  0  0  0
    4.2168   -2.1040   -9.3982 C   0  0  0  0  0  0  0  0  0  0  0  0
    2.8701   -1.7045  -10.0291 C   0  0  0  0  0  0  0  0  0  0  0  0
    4.7588   -3.3617  -10.1155 C   0  0  0  0  0  0  0  0  0  0  0  0
    4.0570   -2.4234   -7.9017 C   0  0  0  0  0  0  0  0  0  0  0  0
    4.8183   -1.7952   -6.9185 C   0  0  0  0  0  0  0  0  0  0  0  0
    4.8152   -2.2448   -5.5850 C   0  0  0  0  0  0  0  0  0  0  0  0
    4.0415   -3.3306   -5.1445 C   0  0  0  0  0  0  0  0  0  0  0  0
    4.1968   -3.9266   -3.7993 N   0  0  0  0  0  0  0  0  0  0  0  0
    3.7276   -5.3499   -3.6270 C   0  0  3  0  0  0  0  0  0  0  0  0
    4.9117   -6.3709   -3.4220 C   0  0  0  0  0  0  0  0  0  0  0  0
    5.6342   -6.3840   -2.4238 O   0  0  0  0  0  0  0  0  0  0  0  0
    5.0388   -7.3501   -4.3934 N   0  0  0  0  0  0  0  0  0  0  0  0
    6.0180   -8.4290   -4.2267 C   0  0  0  0  0  0  0  0  0  0  0  0
    5.5233   -9.5490   -3.2966 C   0  0  0  0  0  0  0  0  0  0  0  0
    6.5264  -10.6631   -3.1333 C   0  0  0  0  0  0  0  0  0  0  0  0
    7.5056  -10.6036   -2.1302 C   0  0  0  0  0  0  0  0  0  0  0  0
    8.4253  -11.6449   -1.9636 C   0  0  0  0  0  0  0  0  0  0  0  0
    8.3826  -12.7576   -2.8039 C   0  0  0  0  0  0  0  0  0  0  0  0
    7.4166  -12.8111   -3.8028 C   0  0  0  0  0  0  0  0  0  0  0  0
    7.3698  -13.8759   -4.6149 F   0  0  0  0  0  0  0  0  0  0  0  0
    6.4991  -11.7796   -3.9778 C   0  0  0  0  0  0  0  0  0  0  0  0
    2.6168   -5.6075   -2.6043 C   0  0  0  0  0  0  0  0  0  0  0  0
    2.1638   -6.9214   -2.4229 C   0  0  0  0  0  0  0  0  0  0  0  0
    1.3235   -7.3210   -1.4427 N   0  0  0  0  0  0  0  0  0  0  0  0
    0.9000   -6.3664   -0.5853 C   0  0  0  0  0  0  0  0  0  0  0  0
    1.2117   -5.0241   -0.7249 C   0  0  0  0  0  0  0  0  0  0  0  0
    0.6417   -3.8712    0.4106 Cl  0  0  0  0  0  0  0  0  0  0  0  0
    2.0443   -4.6349   -1.7746 C   0  0  0  0  0  0  0  0  0  0  0  0
    4.8947   -3.2079   -2.7978 C   0  0  0  0  0  0  0  0  0  0  0  0
    5.2690   -2.0374   -2.9044 O   0  0  0  0  0  0  0  0  0  0  0  0
    5.1869   -3.8437   -1.4805 C   0  0  0  0  0  0  0  0  0  0  0  0
    6.2091   -3.4002   -0.7330 C   0  0  0  0  0  0  0  0  0  0  0  0
    3.1502   -3.8376   -6.1040 C   0  0  0  0  0  0  0  0  0  0  0  0
    3.1757   -3.4165   -7.4518 C   0  0  0  0  0  0  0  0  0  0  0  0
    5.3009   -0.7671  -10.7643 H   0  0  0  0  0  0  0  0  0  0  0  0
    6.2212   -1.1939   -9.3236 H   0  0  0  0  0  0  0  0  0  0  0  0
    4.8960   -0.0188   -9.2172 H   0  0  0  0  0  0  0  0  0  0  0  0
    2.9828   -1.5148  -11.1046 H   0  0  0  0  0  0  0  0  0  0  0  0
    2.4740   -0.7904   -9.5722 H   0  0  0  0  0  0  0  0  0  0  0  0
    2.1111   -2.4866   -9.9222 H   0  0  0  0  0  0  0  0  0  0  0  0
    4.8292   -3.2017  -11.1981 H   0  0  0  0  0  0  0  0  0  0  0  0
    4.1200   -4.2381   -9.9589 H   0  0  0  0  0  0  0  0  0  0  0  0
    5.7617   -3.6205   -9.7542 H   0  0  0  0  0  0  0  0  0  0  0  0
    5.4781   -0.9635   -7.1521 H   0  0  0  0  0  0  0  0  0  0  0  0
    5.5055   -1.7119   -4.9410 H   0  0  0  0  0  0  0  0  0  0  0  0
    3.2764   -5.6788   -4.5638 H   0  0  0  0  0  0  0  0  0  0  0  0
    4.6508   -7.2004   -5.3122 H   0  0  0  0  0  0  0  0  0  0  0  0
    6.9504   -7.9994   -3.8519 H   0  0  0  0  0  0  0  0  0  0  0  0
    6.2172   -8.8305   -5.2324 H   0  0  0  0  0  0  0  0  0  0  0  0
    4.5808   -9.9596   -3.6795 H   0  0  0  0  0  0  0  0  0  0  0  0
    5.2743   -9.1387   -2.3063 H   0  0  0  0  0  0  0  0  0  0  0  0
    7.5521   -9.7469   -1.4574 H   0  0  0  0  0  0  0  0  0  0  0  0
    9.1730  -11.5907   -1.1749 H   0  0  0  0  0  0  0  0  0  0  0  0
    9.0853  -13.5780   -2.6849 H   0  0  0  0  0  0  0  0  0  0  0  0
    5.7586  -11.8693   -4.7695 H   0  0  0  0  0  0  0  0  0  0  0  0
    2.4909   -7.7343   -3.0687 H   0  0  0  0  0  0  0  0  0  0  0  0
    0.2948   -6.7263    0.2419 H   0  0  0  0  0  0  0  0  0  0  0  0
    2.2893   -3.5814   -1.8872 H   0  0  0  0  0  0  0  0  0  0  0  0
    4.5764   -4.6418   -1.0934 H   0  0  0  0  0  0  0  0  0  0  0  0
    6.8619   -2.6017   -1.0736 H   0  0  0  0  0  0  0  0  0  0  0  0
    6.4160   -3.8382    0.2371 H   0  0  0  0  0  0  0  0  0  0  0  0
    2.3862   -4.5679   -5.8589 H   0  0  0  0  0  0  0  0  0  0  0  0
    2.5017   -3.9064   -8.1523 H   0  0  0  0  0  0  0  0  0  0  0  0
  1  2  1  0  0  0  0
  1 36  1  0  0  0  0
  1 37  1  0  0  0  0
  1 38  1  0  0  0  0
  2  3  1  0  0  0  0
  2  4  1  0  0  0  0
  2  5  1  0  0  0  0
  3 39  1  0  0  0  0
  3 40  1  0  0  0  0
  3 41  1  0  0  0  0
  4 42  1  0  0  0  0
  4 43  1  0  0  0  0
  4 44  1  0  0  0  0
  5  6  1  0  0  0  0
  5 35  2  0  0  0  0
  6  7  2  0  0  0  0
  6 45  1  0  0  0  0
  7  8  1  0  0  0  0
  7 46  1  0  0  0  0
  8  9  1  0  0  0  0
  8 34  2  0  0  0  0
  9 10  1  0  0  0  0
  9 30  1  0  0  0  0
 10 11  1  0  0  0  0
 10 23  1  0  0  0  0
 10 47  1  0  0  0  0
 11 12  2  0  0  0  0
 11 13  1  0  0  0  0
 13 14  1  0  0  0  0
 13 48  1  0  0  0  0
 14 15  1  0  0  0  0
 14 49  1  0  0  0  0
 14 50  1  0  0  0  0
 15 16  1  0  0  0  0
 15 51  1  0  0  0  0
 15 52  1  0  0  0  0
 16 17  1  0  0  0  0
 16 22  2  0  0  0  0
 17 18  2  0  0  0  0
 17 53  1  0  0  0  0
 18 19  1  0  0  0  0
 18 54  1  0  0  0  0
 19 20  2  0  0  0  0
 19 55  1  0  0  0  0
 20 21  1  0  0  0  0
 20 22  1  0  0  0  0
 22 56  1  0  0  0  0
 23 24  1  0  0  0  0
 23 29  2  0  0  0  0
 24 25  2  0  0  0  0
 24 57  1  0  0  0  0
 25 26  1  0  0  0  0
 26 27  2  0  0  0  0
 26 58  1  0  0  0  0
 27 28  1  0  0  0  0
 27 29  1  0  0  0  0
 29 59  1  0  0  0  0
 30 31  2  0  0  0  0
 30 32  1  0  0  0  0
 32 33  2  0  0  0  0
 32 60  1  0  0  0  0
 33 61  1  0  0  0  0
 33 62  1  0  0  0  0
 34 35  1  0  0  0  0
 34 63  1  0  0  0  0
 35 64  1  0  0  0  0
M  END
$$$$
