stable:False satoms:19 tatoms:24 sratio:0.7916666666666666
  -OEChem-07092417363D

 24 22  0     1  0  0  0  0  0999 V2000
    7.2304   -3.9374   25.5963 H   0  0  0  0  0  0  0  0  0  0  0  0
    8.6508   -2.9595   26.0677 H   0  0  0  0  0  0  0  0  0  0  0  0
    8.8710   -4.5626   25.3585 H   0  0  0  0  0  0  0  0  0  0  0  0
    8.2606   -3.6976   25.4531 C   0  5  0  0  0  0  0  0  0  0  0  0
    7.3859   -2.5614   23.7593 H   0  0  0  0  0  0  0  0  0  0  0  0
    9.3976   -1.9611   23.8137 N   0  3  0  0  0  0  0  0  0  0  0  0
    8.6932   -3.6586   23.1800 H   0  0  0  0  0  0  0  0  0  0  0  0
    8.9700   -0.4297   21.8919 C   0  3  0  0  0  0  0  0  0  0  0  0
   11.0525   -0.5986   22.9449 C   0  0  3  0  0  0  0  0  0  0  0  0
   12.2223    0.1921   24.2965 H   0  0  0  0  0  0  0  0  0  0  0  0
   12.0463   -1.3896   24.4873 H   0  0  0  0  0  0  0  0  0  0  0  0
   11.5588   -0.2827   21.8129 O   0  0  0  0  0  0  0  0  0  0  0  0
   11.7428   -0.6287   23.9314 N   0  0  0  0  0  0  0  0  0  0  0  0
    9.1810    0.6128   21.5156 H   0  0  0  0  0  0  0  0  0  0  0  0
    9.4151   -1.0840   22.6871 C   0  0  1  0  0  0  0  0  0  0  0  0
   10.8825    0.0076   21.1491 H   0  0  0  0  0  0  0  0  0  0  0  0
    8.4409   -2.7941   23.7584 C   0  3  0  0  0  0  0  0  0  0  0  0
    8.0472   -1.1502   21.7427 O   0  0  0  0  0  0  0  0  0  0  0  0
    7.7076   -0.1623   19.6989 F   0  0  0  0  0  0  0  0  0  0  0  0
    6.3876    0.8271   18.1588 H   0  0  0  0  0  0  0  0  0  0  0  0
    5.9439    0.8979   19.0270 N   0  0  0  0  0  0  0  0  0  0  0  0
    5.2160    1.4967   19.2855 H   0  0  0  0  0  0  0  0  0  0  0  0
    6.5029    0.3273   20.1036 C   0  0  0  0  0  0  0  0  0  0  0  0
    5.7771    0.2065   21.5765 S   0  0  0  0  0  0  0  0  0  0  0  0
 20 21  1  0  0  0  0
 21 22  1  0  0  0  0
 21 23  1  0  0  0  0
 19 23  1  0  0  0  0
 23 24  2  0  0  0  0
 12 16  1  0  0  0  0
  8 14  1  0  0  0  0
  8 18  1  0  0  0  0
 15 18  1  0  0  0  0
  9 12  1  0  0  0  0
  8 15  1  0  0  0  0
  9 15  1  0  0  0  0
  6 15  1  0  0  0  0
  9 13  1  0  0  0  0
  7 17  1  0  0  0  0
  5 17  1  0  0  0  0
  6 17  1  0  0  0  0
 10 13  1  0  0  0  0
 11 13  1  0  0  0  0
  3  4  1  0  0  0  0
  1  4  1  0  0  0  0
  2  4  1  0  0  0  0
M  CHG  4   4  -1   6   1   8   1  17   1
M  END
> <Shapegauss>
-137.895935

$$$$
