
 OpenBabel07202414193D

 37 39  0  0  0  0  0  0  0  0999 V2000
    3.0070    0.9358    0.3201 O   0  0  0  0  0  0  0  0  0  0  0  0
    2.2875   -0.0698   -0.2272 C   0  0  0  0  0  0  0  0  0  0  0  0
    1.1268    0.0420   -0.5730 O   0  0  0  0  0  0  0  0  0  0  0  0
    3.0790   -1.3091   -0.4245 C   0  0  0  0  0  0  0  0  0  0  0  0
    2.7917   -2.1182   -1.5224 C   0  0  0  0  0  0  0  0  0  0  0  0
    3.5581   -3.2595   -1.7526 C   0  0  0  0  0  0  0  0  0  0  0  0
    4.6276   -3.5908   -0.8980 C   0  0  0  0  0  0  0  0  0  0  0  0
    5.3988   -4.7311   -1.1225 C   0  0  0  0  0  0  0  0  0  0  0  0
    6.4182   -5.1353   -0.3359 N   0  0  0  0  0  0  0  0  0  0  0  0
    6.7047   -4.3491    0.7216 C   0  0  0  0  0  0  0  0  0  0  0  0
    6.0402   -3.1642    1.0399 C   0  0  0  0  0  0  0  0  0  0  0  0
    6.5177   -2.4465    2.1714 N   0  0  0  0  0  0  0  0  0  0  0  0
    6.7690   -1.0809    2.1808 C   0  0  0  0  0  0  0  0  0  0  0  0
    6.5724   -0.3143    1.2403 O   0  0  0  0  0  0  0  0  0  0  0  0
    7.3323   -0.5857    3.5064 C   0  0  0  0  0  0  0  0  0  0  0  0
    8.8298   -0.7384    3.6653 C   0  0  0  0  0  0  0  0  0  0  0  0
    9.7176   -0.1739    2.7386 C   0  0  0  0  0  0  0  0  0  0  0  0
   11.1024   -0.2348    2.9481 C   0  0  0  0  0  0  0  0  0  0  0  0
   11.6135   -0.8612    4.0837 C   0  0  0  0  0  0  0  0  0  0  0  0
   10.7394   -1.4259    5.0072 C   0  0  0  0  0  0  0  0  0  0  0  0
   11.3630   -2.1825    6.4231 Cl  0  0  0  0  0  0  0  0  0  0  0  0
    9.3590   -1.3663    4.8059 C   0  0  0  0  0  0  0  0  0  0  0  0
    4.9414   -2.7829    0.2242 C   0  0  0  0  0  0  0  0  0  0  0  0
    4.0978   -1.6740    0.4673 C   0  0  0  0  0  0  0  0  0  0  0  0
    3.9729    0.7825    0.3651 H   0  0  0  0  0  0  0  0  0  0  0  0
    1.9775   -1.8626   -2.1976 H   0  0  0  0  0  0  0  0  0  0  0  0
    3.3166   -3.8870   -2.6102 H   0  0  0  0  0  0  0  0  0  0  0  0
    5.2070   -5.3834   -1.9719 H   0  0  0  0  0  0  0  0  0  0  0  0
    7.5544   -4.6899    1.3062 H   0  0  0  0  0  0  0  0  0  0  0  0
    7.0862   -2.9793    2.8218 H   0  0  0  0  0  0  0  0  0  0  0  0
    6.8072   -1.1091    4.3152 H   0  0  0  0  0  0  0  0  0  0  0  0
    7.0717    0.4739    3.6140 H   0  0  0  0  0  0  0  0  0  0  0  0
    9.3453    0.3476    1.8588 H   0  0  0  0  0  0  0  0  0  0  0  0
   11.7812    0.2219    2.2308 H   0  0  0  0  0  0  0  0  0  0  0  0
   12.6878   -0.8930    4.2481 H   0  0  0  0  0  0  0  0  0  0  0  0
    8.6956   -1.7878    5.5582 H   0  0  0  0  0  0  0  0  0  0  0  0
    4.2314   -1.0907    1.3746 H   0  0  0  0  0  0  0  0  0  0  0  0
  1  2  1  0  0  0  0
  1 25  1  0  0  0  0
  2  3  2  0  0  0  0
  2  4  1  0  0  0  0
  4  5  1  0  0  0  0
  4 24  2  0  0  0  0
  5  6  2  0  0  0  0
  5 26  1  0  0  0  0
  6  7  1  0  0  0  0
  6 27  1  0  0  0  0
  7  8  1  0  0  0  0
  7 23  2  0  0  0  0
  8  9  2  0  0  0  0
  8 28  1  0  0  0  0
  9 10  1  0  0  0  0
 10 11  2  0  0  0  0
 10 29  1  0  0  0  0
 11 12  1  0  0  0  0
 11 23  1  0  0  0  0
 12 13  1  0  0  0  0
 12 30  1  0  0  0  0
 13 14  2  0  0  0  0
 13 15  1  0  0  0  0
 15 16  1  0  0  0  0
 15 31  1  0  0  0  0
 15 32  1  0  0  0  0
 16 17  1  0  0  0  0
 16 22  2  0  0  0  0
 17 18  2  0  0  0  0
 17 33  1  0  0  0  0
 18 19  1  0  0  0  0
 18 34  1  0  0  0  0
 19 20  2  0  0  0  0
 19 35  1  0  0  0  0
 20 21  1  0  0  0  0
 20 22  1  0  0  0  0
 22 36  1  0  0  0  0
 23 24  1  0  0  0  0
 24 37  1  0  0  0  0
M  END
$$$$
