
 OpenBabel07202414133D

 49 52  0  0  1  0  0  0  0  0999 V2000
    1.9547    1.8095   -1.1288 C   0  0  0  0  0  0  0  0  0  0  0  0
    3.0052    0.8700   -0.5535 C   0  0  0  0  0  0  0  0  0  0  0  0
    3.5912   -0.0293   -1.6431 C   0  0  0  0  0  0  0  0  0  0  0  0
    4.5651   -0.9144   -1.0885 O   0  0  0  0  0  0  0  0  0  0  0  0
    5.1319   -1.8266   -1.9509 C   0  0  0  0  0  0  0  0  0  0  0  0
    4.8737   -1.8342   -3.3308 C   0  0  0  0  0  0  0  0  0  0  0  0
    5.5303   -2.7549   -4.1523 C   0  0  0  0  0  0  0  0  0  0  0  0
    5.2305   -2.7520   -5.8445 Cl  0  0  0  0  0  0  0  0  0  0  0  0
    6.4078   -3.6690   -3.6095 C   0  0  0  0  0  0  0  0  0  0  0  0
    6.6241   -3.7425   -2.2309 C   0  0  0  0  0  0  0  0  0  0  0  0
    6.0131   -2.7839   -1.4055 C   0  0  0  0  0  0  0  0  0  0  0  0
    6.3041   -2.6718   -0.0652 O   0  0  0  0  0  0  0  0  0  0  0  0
    7.1152   -3.6951    0.5201 C   0  0  0  0  0  0  0  0  0  0  0  0
    8.2080   -4.2061   -0.4068 C   0  0  0  0  0  0  0  0  0  0  0  0
    7.5515   -4.7987   -1.6544 C   0  0  3  0  0  0  0  0  0  0  0  0
    6.9218   -6.2075   -1.3789 C   0  0  0  0  0  0  0  0  0  0  0  0
    7.3003   -6.9089   -0.4363 O   0  0  0  0  0  0  0  0  0  0  0  0
    6.0774   -6.6516   -2.4047 N   0  0  0  0  0  0  0  0  0  0  0  0
    6.0947   -8.0097   -2.8122 C   0  0  0  0  0  0  0  0  0  0  0  0
    5.8057   -9.0444   -1.9344 C   0  0  0  0  0  0  0  0  0  0  0  0
    6.0351  -10.3466   -2.2172 N   0  0  0  0  0  0  0  0  0  0  0  0
    6.4654  -10.6216   -3.4630 C   0  0  0  0  0  0  0  0  0  0  0  0
    6.5314   -9.6952   -4.5001 C   0  0  0  0  0  0  0  0  0  0  0  0
    6.7161  -10.0799   -5.8461 C   0  0  0  0  0  0  0  0  0  0  0  0
    6.8505   -9.1281   -6.8534 C   0  0  0  0  0  0  0  0  0  0  0  0
    6.8896   -7.7826   -6.5129 C   0  0  0  0  0  0  0  0  0  0  0  0
    6.6795   -7.3952   -5.1896 C   0  0  0  0  0  0  0  0  0  0  0  0
    6.4196   -8.3267   -4.1669 C   0  0  0  0  0  0  0  0  0  0  0  0
    1.5347    2.4405   -0.3435 H   0  0  0  0  0  0  0  0  0  0  0  0
    1.1367    1.2474   -1.5879 H   0  0  0  0  0  0  0  0  0  0  0  0
    2.3902    2.4611   -1.8926 H   0  0  0  0  0  0  0  0  0  0  0  0
    2.5639    0.2516    0.2370 H   0  0  0  0  0  0  0  0  0  0  0  0
    3.8081    1.4480   -0.0799 H   0  0  0  0  0  0  0  0  0  0  0  0
    4.0584    0.6094   -2.4042 H   0  0  0  0  0  0  0  0  0  0  0  0
    2.7739   -0.6090   -2.0898 H   0  0  0  0  0  0  0  0  0  0  0  0
    4.1972   -1.1328   -3.7961 H   0  0  0  0  0  0  0  0  0  0  0  0
    6.9518   -4.3351   -4.2823 H   0  0  0  0  0  0  0  0  0  0  0  0
    6.4616   -4.5045    0.8649 H   0  0  0  0  0  0  0  0  0  0  0  0
    7.5825   -3.2620    1.4130 H   0  0  0  0  0  0  0  0  0  0  0  0
    8.8438   -4.9377    0.1085 H   0  0  0  0  0  0  0  0  0  0  0  0
    8.8529   -3.3688   -0.7067 H   0  0  0  0  0  0  0  0  0  0  0  0
    8.3512   -4.9860   -2.3746 H   0  0  0  0  0  0  0  0  0  0  0  0
    5.9361   -5.9915   -3.1478 H   0  0  0  0  0  0  0  0  0  0  0  0
    5.3689   -8.8542   -0.9622 H   0  0  0  0  0  0  0  0  0  0  0  0
    6.7910  -11.6544   -3.6167 H   0  0  0  0  0  0  0  0  0  0  0  0
    6.7085  -11.1392   -6.1195 H   0  0  0  0  0  0  0  0  0  0  0  0
    6.9434   -9.4349   -7.8930 H   0  0  0  0  0  0  0  0  0  0  0  0
    7.0641   -7.0297   -7.2821 H   0  0  0  0  0  0  0  0  0  0  0  0
    6.7313   -6.3438   -4.9848 H   0  0  0  0  0  0  0  0  0  0  0  0
  1  2  1  0  0  0  0
  1 29  1  0  0  0  0
  1 30  1  0  0  0  0
  1 31  1  0  0  0  0
  2  3  1  0  0  0  0
  2 32  1  0  0  0  0
  2 33  1  0  0  0  0
  3  4  1  0  0  0  0
  3 34  1  0  0  0  0
  3 35  1  0  0  0  0
  4  5  1  0  0  0  0
  5  6  1  0  0  0  0
  5 11  2  0  0  0  0
  6  7  2  0  0  0  0
  6 36  1  0  0  0  0
  7  8  1  0  0  0  0
  7  9  1  0  0  0  0
  9 10  2  0  0  0  0
  9 37  1  0  0  0  0
 10 11  1  0  0  0  0
 10 15  1  0  0  0  0
 11 12  1  0  0  0  0
 12 13  1  0  0  0  0
 13 14  1  0  0  0  0
 13 38  1  0  0  0  0
 13 39  1  0  0  0  0
 14 15  1  0  0  0  0
 14 40  1  0  0  0  0
 14 41  1  0  0  0  0
 15 16  1  0  0  0  0
 15 42  1  0  0  0  0
 16 17  2  0  0  0  0
 16 18  1  0  0  0  0
 18 19  1  0  0  0  0
 18 43  1  0  0  0  0
 19 20  1  0  0  0  0
 19 28  2  0  0  0  0
 20 21  2  0  0  0  0
 20 44  1  0  0  0  0
 21 22  1  0  0  0  0
 22 23  2  0  0  0  0
 22 45  1  0  0  0  0
 23 24  1  0  0  0  0
 23 28  1  0  0  0  0
 24 25  2  0  0  0  0
 24 46  1  0  0  0  0
 25 26  1  0  0  0  0
 25 47  1  0  0  0  0
 26 27  2  0  0  0  0
 26 48  1  0  0  0  0
 27 28  1  0  0  0  0
 27 49  1  0  0  0  0
M  END
$$$$
