
 OpenBabel07202414203D

 16 17  0  0  0  0  0  0  0  0999 V2000
    1.9688    1.0656    0.0012 C   0  0  0  0  0  0  0  0  0  0  0  0
    0.6667    1.5733   -0.0010 C   0  0  0  0  0  0  0  0  0  0  0  0
   -0.3666    0.6558   -0.0012 C   0  0  0  0  0  0  0  0  0  0  0  0
   -0.1523   -0.7205   -0.0012 C   0  0  0  0  0  0  0  0  0  0  0  0
    1.1321   -1.2292   -0.0001 C   0  0  0  0  0  0  0  0  0  0  0  0
    2.2010   -0.3258    0.0011 C   0  0  0  0  0  0  0  0  0  0  0  0
    1.4607   -3.0871   -0.0003 Br  0  0  0  0  0  0  0  0  0  0  0  0
   -1.3601   -1.4204   -0.0014 N   0  0  0  0  0  0  0  0  0  0  0  0
   -2.4366   -0.5584   -0.0009 C   0  0  0  0  0  0  0  0  0  0  0  0
   -3.6152   -0.8318    0.0001 O   0  0  0  0  0  0  0  0  0  0  0  0
   -1.8164    0.8670   -0.0014 C   0  0  0  0  0  0  0  0  0  0  0  0
   -2.4001    1.9256   -0.0016 O   0  0  0  0  0  0  0  0  0  0  0  0
    2.8157    1.7501    0.0022 H   0  0  0  0  0  0  0  0  0  0  0  0
    0.4719    2.6415   -0.0004 H   0  0  0  0  0  0  0  0  0  0  0  0
    3.2274   -0.6884    0.0022 H   0  0  0  0  0  0  0  0  0  0  0  0
   -1.4528   -2.4267   -0.0005 H   0  0  0  0  0  0  0  0  0  0  0  0
  1  2  1  0  0  0  0
  1  6  2  0  0  0  0
  1 13  1  0  0  0  0
  2  3  2  0  0  0  0
  2 14  1  0  0  0  0
  3  4  1  0  0  0  0
  3 11  1  0  0  0  0
  4  5  2  0  0  0  0
  4  8  1  0  0  0  0
  5  6  1  0  0  0  0
  5  7  1  0  0  0  0
  6 15  1  0  0  0  0
  8  9  1  0  0  0  0
  8 16  1  0  0  0  0
  9 10  2  0  0  0  0
  9 11  1  0  0  0  0
 11 12  2  0  0  0  0
M  END
$$$$
