
 OpenBabel07202414173D

 75 81  0  0  1  0  0  0  0  0999 V2000
    1.5819    1.0620    0.8380 Cl  0  0  0  0  0  0  0  0  0  0  0  0
    3.2338    0.6989    0.5110 C   0  0  0  0  0  0  0  0  0  0  0  0
    4.1019    1.7188    0.1352 C   0  0  0  0  0  0  0  0  0  0  0  0
    5.4448    1.4268   -0.0769 C   0  0  0  0  0  0  0  0  0  0  0  0
    5.9179    0.1237    0.0926 C   0  0  0  0  0  0  0  0  0  0  0  0
    5.0417   -0.9311    0.3948 C   0  0  0  0  0  0  0  0  0  0  0  0
    3.6925   -0.6124    0.6393 C   0  0  0  0  0  0  0  0  0  0  0  0
    5.5572   -2.3661    0.5262 C   0  0  3  0  0  0  0  0  0  0  0  0
    4.9017   -3.3272   -0.5193 C   0  0  0  0  0  0  0  0  0  0  0  0
    3.4327   -3.5416   -0.5502 N   0  0  0  0  0  0  0  0  0  0  0  0
    3.1971   -4.5884   -1.5558 C   0  0  0  0  0  0  0  0  0  0  0  0
    1.7857   -4.9725   -1.9295 C   0  0  0  0  0  0  0  0  0  0  0  0
    1.3632   -6.2478   -1.7444 C   0  0  0  0  0  0  0  0  0  0  0  0
    1.5605   -6.9681   -0.5560 N   0  0  0  0  0  0  0  0  0  0  0  0
    1.1708   -8.3964   -0.4752 C   0  0  0  0  0  0  0  0  0  0  0  0
   -0.1303   -8.5147    0.3193 C   0  0  0  0  0  0  0  0  0  0  0  0
    0.0920   -8.0794    1.6691 O   0  0  0  0  0  0  0  0  0  0  0  0
    0.4891   -6.6971    1.6896 C   0  0  0  0  0  0  0  0  0  0  0  0
    1.7093   -6.3834    0.7951 C   0  0  0  0  0  0  0  0  0  0  0  0
    1.0560   -7.0066   -2.8562 N   0  0  0  0  0  0  0  0  0  0  0  0
    1.3073   -6.5209   -4.0271 C   0  0  0  0  0  0  0  0  0  0  0  0
    1.5499   -7.4599   -5.1531 C   0  0  0  0  0  0  0  0  0  0  0  0
    1.8890   -6.9666   -6.3500 C   0  0  0  0  0  0  0  0  0  0  0  0
    1.8358   -5.5400   -6.5936 C   0  0  0  0  0  0  0  0  0  0  0  0
    1.6222   -4.6984   -5.5748 C   0  0  0  0  0  0  0  0  0  0  0  0
    1.4529   -5.1785   -4.2866 N   0  0  0  0  0  0  0  0  0  0  0  0
    1.3950   -4.3223   -3.2113 C   0  0  0  0  0  0  0  0  0  0  0  0
    1.2072   -3.1085   -3.2619 O   0  0  0  0  0  0  0  0  0  0  0  0
    5.4010   -2.9494    1.9630 C   0  0  0  0  0  0  0  0  0  0  0  0
    5.3418   -4.1621    2.1561 O   0  0  0  0  0  0  0  0  0  0  0  0
    5.4602   -2.0092    2.9823 N   0  0  0  0  0  0  0  0  0  0  0  0
    5.1248   -2.1879    4.3524 C   0  0  0  0  0  0  0  0  0  0  0  0
    4.7236   -3.4131    4.8836 C   0  0  0  0  0  0  0  0  0  0  0  0
    4.1830   -3.5723    6.1146 N   0  0  0  0  0  0  0  0  0  0  0  0
    4.0868   -2.4665    6.8793 C   0  0  0  0  0  0  0  0  0  0  0  0
    4.5831   -1.2147    6.5225 C   0  0  0  0  0  0  0  0  0  0  0  0
    4.5680   -0.1436    7.4352 C   0  0  0  0  0  0  0  0  0  0  0  0
    5.0930    1.0971    7.0852 C   0  0  0  0  0  0  0  0  0  0  0  0
    5.6068    1.2887    5.8104 C   0  0  0  0  0  0  0  0  0  0  0  0
    5.6133    0.2343    4.8910 C   0  0  0  0  0  0  0  0  0  0  0  0
    5.1154   -1.0547    5.2214 C   0  0  0  0  0  0  0  0  0  0  0  0
    7.0758   -2.4081    0.1794 C   0  0  0  0  0  0  0  0  0  0  0  0
    7.7922   -1.1623    0.6456 C   0  0  0  0  0  0  0  0  0  0  0  0
    7.2729   -0.0194   -0.0315 O   0  0  0  0  0  0  0  0  0  0  0  0
    3.7453    2.7370    0.0217 H   0  0  0  0  0  0  0  0  0  0  0  0
    6.1341    2.2239   -0.3461 H   0  0  0  0  0  0  0  0  0  0  0  0
    2.9911   -1.3830    0.9543 H   0  0  0  0  0  0  0  0  0  0  0  0
    5.3838   -4.3090   -0.4022 H   0  0  0  0  0  0  0  0  0  0  0  0
    5.1807   -2.9637   -1.5196 H   0  0  0  0  0  0  0  0  0  0  0  0
    2.9756   -2.6924   -0.8893 H   0  0  0  0  0  0  0  0  0  0  0  0
    3.7434   -5.4961   -1.2680 H   0  0  0  0  0  0  0  0  0  0  0  0
    3.6856   -4.2614   -2.4882 H   0  0  0  0  0  0  0  0  0  0  0  0
    1.9715   -8.9399    0.0399 H   0  0  0  0  0  0  0  0  0  0  0  0
    1.0514   -8.8679   -1.4557 H   0  0  0  0  0  0  0  0  0  0  0  0
   -0.4600   -9.5573    0.3510 H   0  0  0  0  0  0  0  0  0  0  0  0
   -0.9374   -7.9204   -0.1275 H   0  0  0  0  0  0  0  0  0  0  0  0
    0.7323   -6.4525    2.7293 H   0  0  0  0  0  0  0  0  0  0  0  0
   -0.3729   -6.0868    1.3992 H   0  0  0  0  0  0  0  0  0  0  0  0
    2.6061   -6.8246    1.2464 H   0  0  0  0  0  0  0  0  0  0  0  0
    1.8524   -5.3009    0.7760 H   0  0  0  0  0  0  0  0  0  0  0  0
    1.5923   -8.5150   -4.9123 H   0  0  0  0  0  0  0  0  0  0  0  0
    2.2153   -7.6244   -7.1480 H   0  0  0  0  0  0  0  0  0  0  0  0
    2.0118   -5.1847   -7.6020 H   0  0  0  0  0  0  0  0  0  0  0  0
    1.6019   -3.6238   -5.7128 H   0  0  0  0  0  0  0  0  0  0  0  0
    5.5560   -1.0470    2.6967 H   0  0  0  0  0  0  0  0  0  0  0  0
    4.8012   -4.3430    4.3311 H   0  0  0  0  0  0  0  0  0  0  0  0
    3.5879   -2.6248    7.8325 H   0  0  0  0  0  0  0  0  0  0  0  0
    4.1726   -0.2810    8.4400 H   0  0  0  0  0  0  0  0  0  0  0  0
    5.1097    1.9076    7.8095 H   0  0  0  0  0  0  0  0  0  0  0  0
    6.0179    2.2557    5.5303 H   0  0  0  0  0  0  0  0  0  0  0  0
    6.0547    0.4389    3.9200 H   0  0  0  0  0  0  0  0  0  0  0  0
    7.2042   -2.4552   -0.9121 H   0  0  0  0  0  0  0  0  0  0  0  0
    7.5547   -3.3037    0.5911 H   0  0  0  0  0  0  0  0  0  0  0  0
    8.8539   -1.2330    0.3861 H   0  0  0  0  0  0  0  0  0  0  0  0
    7.7354   -1.0179    1.7299 H   0  0  0  0  0  0  0  0  0  0  0  0
  1  2  1  0  0  0  0
  2  3  1  0  0  0  0
  2  7  2  0  0  0  0
  3  4  2  0  0  0  0
  3 45  1  0  0  0  0
  4  5  1  0  0  0  0
  4 46  1  0  0  0  0
  5  6  2  0  0  0  0
  5 44  1  0  0  0  0
  6  7  1  0  0  0  0
  6  8  1  0  0  0  0
  7 47  1  0  0  0  0
  8  9  1  0  0  0  0
  8 29  1  0  0  0  0
  8 42  1  0  0  0  0
  9 10  1  0  0  0  0
  9 48  1  0  0  0  0
  9 49  1  0  0  0  0
 10 11  1  0  0  0  0
 10 50  1  0  0  0  0
 11 12  1  0  0  0  0
 11 51  1  0  0  0  0
 11 52  1  0  0  0  0
 12 13  2  0  0  0  0
 12 27  1  0  0  0  0
 13 14  1  0  0  0  0
 13 20  1  0  0  0  0
 14 15  1  0  0  0  0
 14 19  1  0  0  0  0
 15 16  1  0  0  0  0
 15 53  1  0  0  0  0
 15 54  1  0  0  0  0
 16 17  1  0  0  0  0
 16 55  1  0  0  0  0
 16 56  1  0  0  0  0
 17 18  1  0  0  0  0
 18 19  1  0  0  0  0
 18 57  1  0  0  0  0
 18 58  1  0  0  0  0
 19 59  1  0  0  0  0
 19 60  1  0  0  0  0
 20 21  2  0  0  0  0
 21 22  1  0  0  0  0
 21 26  1  0  0  0  0
 22 23  2  0  0  0  0
 22 61  1  0  0  0  0
 23 24  1  0  0  0  0
 23 62  1  0  0  0  0
 24 25  2  0  0  0  0
 24 63  1  0  0  0  0
 25 26  1  0  0  0  0
 25 64  1  0  0  0  0
 26 27  1  0  0  0  0
 27 28  2  0  0  0  0
 29 30  2  0  0  0  0
 29 31  1  0  0  0  0
 31 32  1  0  0  0  0
 31 65  1  0  0  0  0
 32 33  1  0  0  0  0
 32 41  2  0  0  0  0
 33 34  2  0  0  0  0
 33 66  1  0  0  0  0
 34 35  1  0  0  0  0
 35 36  2  0  0  0  0
 35 67  1  0  0  0  0
 36 37  1  0  0  0  0
 36 41  1  0  0  0  0
 37 38  2  0  0  0  0
 37 68  1  0  0  0  0
 38 39  1  0  0  0  0
 38 69  1  0  0  0  0
 39 40  2  0  0  0  0
 39 70  1  0  0  0  0
 40 41  1  0  0  0  0
 40 71  1  0  0  0  0
 42 43  1  0  0  0  0
 42 72  1  0  0  0  0
 42 73  1  0  0  0  0
 43 44  1  0  0  0  0
 43 74  1  0  0  0  0
 43 75  1  0  0  0  0
M  END
$$$$
