
 OpenBabel07202414153D

 40 43  0  0  1  0  0  0  0  0999 V2000
    0.9771    0.2512   -0.0694 C   0  0  0  0  0  0  0  0  0  0  0  0
    2.4951    0.0770   -0.1139 C   0  0  2  0  0  0  0  0  0  0  0  0
    3.0328    1.1439   -0.8994 O   0  0  0  0  0  0  0  0  0  0  0  0
    4.4582    1.1784   -0.8918 C   0  0  0  0  0  0  0  0  0  0  0  0
    5.0487   -0.1065   -1.4552 C   0  0  0  0  0  0  0  0  0  0  0  0
    4.5043   -1.3404   -0.7343 C   0  0  0  0  0  0  0  0  0  0  0  0
    2.9788   -1.3043   -0.6180 C   0  0  1  0  0  0  0  0  0  0  0  0
    2.4712   -2.3720    0.2216 N   0  0  0  0  0  0  0  0  0  0  0  0
    1.4349   -3.0581   -0.3851 C   0  0  0  0  0  0  0  0  0  0  0  0
    0.7575   -3.8769    0.2112 O   0  0  0  0  0  0  0  0  0  0  0  0
    1.3681   -2.6589   -1.6927 N   0  0  0  0  0  0  0  0  0  0  0  0
    0.5414   -3.2389   -2.6722 C   0  0  0  0  0  0  0  0  0  0  0  0
    1.1281   -3.8128   -3.8042 C   0  0  0  0  0  0  0  0  0  0  0  0
    0.4424   -4.4294   -4.7895 N   0  0  0  0  0  0  0  0  0  0  0  0
   -0.9019   -4.4374   -4.6649 C   0  0  0  0  0  0  0  0  0  0  0  0
   -1.6089   -3.8511   -3.6086 C   0  0  0  0  0  0  0  0  0  0  0  0
   -3.0158   -3.8416   -3.5806 C   0  0  0  0  0  0  0  0  0  0  0  0
   -3.7024   -3.2093   -2.5447 C   0  0  0  0  0  0  0  0  0  0  0  0
   -2.9954   -2.5873   -1.5241 C   0  0  0  0  0  0  0  0  0  0  0  0
   -1.5995   -2.5993   -1.5394 C   0  0  0  0  0  0  0  0  0  0  0  0
   -0.8700   -3.2370   -2.5729 C   0  0  0  0  0  0  0  0  0  0  0  0
    2.3238   -1.7074   -1.9567 C   0  0  0  0  0  0  0  0  0  0  0  0
    2.5741   -1.2124   -3.0469 O   0  0  0  0  0  0  0  0  0  0  0  0
    0.7237    1.2499    0.3032 H   0  0  0  0  0  0  0  0  0  0  0  0
    0.5020   -0.4823    0.5906 H   0  0  0  0  0  0  0  0  0  0  0  0
    0.5330    0.1743   -1.0669 H   0  0  0  0  0  0  0  0  0  0  0  0
    2.8530    0.2141    0.9172 H   0  0  0  0  0  0  0  0  0  0  0  0
    4.8102    1.3610    0.1295 H   0  0  0  0  0  0  0  0  0  0  0  0
    4.7701    2.0298   -1.5056 H   0  0  0  0  0  0  0  0  0  0  0  0
    6.1414   -0.0812   -1.3845 H   0  0  0  0  0  0  0  0  0  0  0  0
    4.8029   -0.1748   -2.5208 H   0  0  0  0  0  0  0  0  0  0  0  0
    4.9450   -1.3826    0.2705 H   0  0  0  0  0  0  0  0  0  0  0  0
    4.8386   -2.2452   -1.2572 H   0  0  0  0  0  0  0  0  0  0  0  0
    2.6208   -2.4696    1.2190 H   0  0  0  0  0  0  0  0  0  0  0  0
    2.2068   -3.8266   -3.9367 H   0  0  0  0  0  0  0  0  0  0  0  0
   -1.4230   -4.9312   -5.4803 H   0  0  0  0  0  0  0  0  0  0  0  0
   -3.5852   -4.3131   -4.3785 H   0  0  0  0  0  0  0  0  0  0  0  0
   -4.7894   -3.1971   -2.5394 H   0  0  0  0  0  0  0  0  0  0  0  0
   -3.5237   -2.0832   -0.7201 H   0  0  0  0  0  0  0  0  0  0  0  0
   -1.0876   -2.0869   -0.7310 H   0  0  0  0  0  0  0  0  0  0  0  0
  1  2  1  0  0  0  0
  1 24  1  0  0  0  0
  1 25  1  0  0  0  0
  1 26  1  0  0  0  0
  2  3  1  0  0  0  0
  2  7  1  0  0  0  0
  2 27  1  1  0  0  0
  3  4  1  0  0  0  0
  4  5  1  0  0  0  0
  4 28  1  0  0  0  0
  4 29  1  0  0  0  0
  5  6  1  0  0  0  0
  5 30  1  0  0  0  0
  5 31  1  0  0  0  0
  6  7  1  0  0  0  0
  6 32  1  0  0  0  0
  6 33  1  0  0  0  0
  7  8  1  0  0  0  0
  7 22  1  6  0  0  0
  8  9  1  0  0  0  0
  8 34  1  0  0  0  0
  9 10  2  0  0  0  0
  9 11  1  0  0  0  0
 11 12  1  0  0  0  0
 11 22  1  0  0  0  0
 12 13  1  0  0  0  0
 12 21  2  0  0  0  0
 13 14  2  0  0  0  0
 13 35  1  0  0  0  0
 14 15  1  0  0  0  0
 15 16  2  0  0  0  0
 15 36  1  0  0  0  0
 16 17  1  0  0  0  0
 16 21  1  0  0  0  0
 17 18  2  0  0  0  0
 17 37  1  0  0  0  0
 18 19  1  0  0  0  0
 18 38  1  0  0  0  0
 19 20  2  0  0  0  0
 19 39  1  0  0  0  0
 20 21  1  0  0  0  0
 20 40  1  0  0  0  0
 22 23  2  0  0  0  0
M  END
$$$$
