
 OpenBabel07202414203D

 26 27  0  0  0  0  0  0  0  0999 V2000
    0.1456   -0.4096    1.1076 C   0  0  0  0  0  0  0  0  0  0  0  0
    0.7691    0.8418    1.0751 C   0  0  0  0  0  0  0  0  0  0  0  0
    1.5478    1.2303   -0.0275 C   0  0  0  0  0  0  0  0  0  0  0  0
    1.7110    0.3240   -1.0850 C   0  0  0  0  0  0  0  0  0  0  0  0
    1.0807   -0.9233   -1.0492 C   0  0  0  0  0  0  0  0  0  0  0  0
    0.2966   -1.2929    0.0401 C   0  0  0  0  0  0  0  0  0  0  0  0
    1.2787   -2.0145   -2.3657 Cl  0  0  0  0  0  0  0  0  0  0  0  0
    2.2550    2.5660   -0.0452 C   0  0  0  0  0  0  0  0  0  0  0  0
    1.3367    3.7604    0.1360 C   0  0  0  0  0  0  0  0  0  0  0  0
    1.0971    4.1658    1.2791 O   0  0  0  0  0  0  0  0  0  0  0  0
    0.8205    4.3014   -1.0266 N   0  0  0  0  0  0  0  0  0  0  0  0
   -0.0060    5.4210   -1.0267 C   0  0  0  0  0  0  0  0  0  0  0  0
   -0.1699    6.3345   -0.0129 C   0  0  0  0  0  0  0  0  0  0  0  0
   -1.1634    7.1794   -0.4049 N   0  0  0  0  0  0  0  0  0  0  0  0
   -1.5827    6.9586   -1.6624 N   0  0  0  0  0  0  0  0  0  0  0  0
   -0.8682    5.8871   -2.0445 C   0  0  0  0  0  0  0  0  0  0  0  0
   -0.4544   -0.6952    1.9682 H   0  0  0  0  0  0  0  0  0  0  0  0
    0.6473    1.5105    1.9276 H   0  0  0  0  0  0  0  0  0  0  0  0
    2.3394    0.5775   -1.9352 H   0  0  0  0  0  0  0  0  0  0  0  0
   -0.1910   -2.2634    0.0673 H   0  0  0  0  0  0  0  0  0  0  0  0
    2.8492    2.6988   -0.9553 H   0  0  0  0  0  0  0  0  0  0  0  0
    2.9703    2.5862    0.7878 H   0  0  0  0  0  0  0  0  0  0  0  0
    0.8871    3.7803   -1.8922 H   0  0  0  0  0  0  0  0  0  0  0  0
    0.2953    6.4355    0.9566 H   0  0  0  0  0  0  0  0  0  0  0  0
   -1.5992    7.9194    0.1349 H   0  0  0  0  0  0  0  0  0  0  0  0
   -1.0468    5.4861   -3.0311 H   0  0  0  0  0  0  0  0  0  0  0  0
  1  2  1  0  0  0  0
  1  6  2  0  0  0  0
  1 17  1  0  0  0  0
  2  3  2  0  0  0  0
  2 18  1  0  0  0  0
  3  4  1  0  0  0  0
  3  8  1  0  0  0  0
  4  5  2  0  0  0  0
  4 19  1  0  0  0  0
  5  6  1  0  0  0  0
  5  7  1  0  0  0  0
  6 20  1  0  0  0  0
  8  9  1  0  0  0  0
  8 21  1  0  0  0  0
  8 22  1  0  0  0  0
  9 10  2  0  0  0  0
  9 11  1  0  0  0  0
 11 12  1  0  0  0  0
 11 23  1  0  0  0  0
 12 13  2  0  0  0  0
 12 16  1  0  0  0  0
 13 14  1  0  0  0  0
 13 24  1  0  0  0  0
 14 15  1  0  0  0  0
 14 25  1  0  0  0  0
 15 16  2  0  0  0  0
 16 26  1  0  0  0  0
M  END
$$$$
