
 OpenBabel07202414133D

 54 57  0  0  0  0  0  0  0  0999 V2000
    1.9564   -1.4206   -0.8838 C   0  0  0  0  0  0  0  0  0  0  0  0
    1.7742   -0.7016    0.3756 N   0  0  0  0  0  0  0  0  0  0  0  0
    0.4048   -0.3074    0.7058 C   0  0  0  0  0  0  0  0  0  0  0  0
    2.7172   -0.8364    1.3959 C   0  0  0  0  0  0  0  0  0  0  0  0
    2.5127   -0.3071    2.6748 C   0  0  0  0  0  0  0  0  0  0  0  0
    3.4412   -0.5018    3.7031 C   0  0  0  0  0  0  0  0  0  0  0  0
    4.6007   -1.2148    3.4432 C   0  0  0  0  0  0  0  0  0  0  0  0
    5.4806   -1.4610    4.5243 N   0  0  0  0  0  0  0  0  0  0  0  0
    6.7222   -0.7044    4.5969 C   0  0  0  0  0  0  0  0  0  0  0  0
    6.8558    0.5527    3.7779 C   0  0  0  0  0  0  0  0  0  0  0  0
    7.6022    0.5224    2.5905 C   0  0  0  0  0  0  0  0  0  0  0  0
    7.7245    1.6588    1.8005 C   0  0  0  0  0  0  0  0  0  0  0  0
    7.1009    2.8444    2.1831 C   0  0  0  0  0  0  0  0  0  0  0  0
    6.3710    2.8895    3.3698 C   0  0  0  0  0  0  0  0  0  0  0  0
    5.6096    4.3555    3.8466 Cl  0  0  0  0  0  0  0  0  0  0  0  0
    6.2512    1.7540    4.1726 C   0  0  0  0  0  0  0  0  0  0  0  0
    5.3171   -2.6799    5.1886 C   0  0  0  0  0  0  0  0  0  0  0  0
    4.3428   -3.4212    5.0133 O   0  0  0  0  0  0  0  0  0  0  0  0
    6.3690   -3.0979    6.2254 C   0  0  0  0  0  0  0  0  0  0  0  0
    7.4841   -3.9448    5.6508 C   0  0  0  0  0  0  0  0  0  0  0  0
    7.1507   -5.2050    5.1452 C   0  0  0  0  0  0  0  0  0  0  0  0
    8.0159   -6.0396    4.5352 N   0  0  0  0  0  0  0  0  0  0  0  0
    9.2721   -5.5808    4.3640 C   0  0  0  0  0  0  0  0  0  0  0  0
    9.7315   -4.3420    4.8087 C   0  0  0  0  0  0  0  0  0  0  0  0
   11.0416   -3.9094    4.5321 C   0  0  0  0  0  0  0  0  0  0  0  0
   11.4958   -2.6763    4.9918 C   0  0  0  0  0  0  0  0  0  0  0  0
   10.6655   -1.8920    5.7800 C   0  0  0  0  0  0  0  0  0  0  0  0
    9.3628   -2.3158    6.0608 C   0  0  0  0  0  0  0  0  0  0  0  0
    8.8369   -3.5204    5.5314 C   0  0  0  0  0  0  0  0  0  0  0  0
    4.9007   -1.6827    2.2142 N   0  0  0  0  0  0  0  0  0  0  0  0
    3.9539   -1.4854    1.2459 C   0  0  0  0  0  0  0  0  0  0  0  0
    1.0770   -1.3307   -1.5340 H   0  0  0  0  0  0  0  0  0  0  0  0
    2.1212   -2.4905   -0.7180 H   0  0  0  0  0  0  0  0  0  0  0  0
    2.7994   -1.0010   -1.4424 H   0  0  0  0  0  0  0  0  0  0  0  0
   -0.2508   -0.3334   -0.1721 H   0  0  0  0  0  0  0  0  0  0  0  0
    0.3775    0.7240    1.0751 H   0  0  0  0  0  0  0  0  0  0  0  0
   -0.0326   -0.9756    1.4560 H   0  0  0  0  0  0  0  0  0  0  0  0
    1.6194    0.2605    2.9117 H   0  0  0  0  0  0  0  0  0  0  0  0
    3.2467   -0.1026    4.6907 H   0  0  0  0  0  0  0  0  0  0  0  0
    7.5403   -1.3782    4.3345 H   0  0  0  0  0  0  0  0  0  0  0  0
    6.8689   -0.4216    5.6483 H   0  0  0  0  0  0  0  0  0  0  0  0
    8.0841   -0.4040    2.2737 H   0  0  0  0  0  0  0  0  0  0  0  0
    8.2949    1.6160    0.8766 H   0  0  0  0  0  0  0  0  0  0  0  0
    7.1854    3.7239    1.5509 H   0  0  0  0  0  0  0  0  0  0  0  0
    5.6832    1.8053    5.0967 H   0  0  0  0  0  0  0  0  0  0  0  0
    5.8468   -3.6949    6.9866 H   0  0  0  0  0  0  0  0  0  0  0  0
    6.7253   -2.2290    6.7790 H   0  0  0  0  0  0  0  0  0  0  0  0
    6.1327   -5.5871    5.2087 H   0  0  0  0  0  0  0  0  0  0  0  0
    9.9282   -6.2669    3.8340 H   0  0  0  0  0  0  0  0  0  0  0  0
   11.7107   -4.5268    3.9358 H   0  0  0  0  0  0  0  0  0  0  0  0
   12.4985   -2.3368    4.7453 H   0  0  0  0  0  0  0  0  0  0  0  0
   11.0252   -0.9432    6.1711 H   0  0  0  0  0  0  0  0  0  0  0  0
    8.7619   -1.6736    6.6977 H   0  0  0  0  0  0  0  0  0  0  0  0
    4.2439   -1.9157    0.2921 H   0  0  0  0  0  0  0  0  0  0  0  0
  1  2  1  0  0  0  0
  1 32  1  0  0  0  0
  1 33  1  0  0  0  0
  1 34  1  0  0  0  0
  2  3  1  0  0  0  0
  2  4  1  0  0  0  0
  3 35  1  0  0  0  0
  3 36  1  0  0  0  0
  3 37  1  0  0  0  0
  4  5  1  0  0  0  0
  4 31  2  0  0  0  0
  5  6  2  0  0  0  0
  5 38  1  0  0  0  0
  6  7  1  0  0  0  0
  6 39  1  0  0  0  0
  7  8  1  0  0  0  0
  7 30  2  0  0  0  0
  8  9  1  0  0  0  0
  8 17  1  0  0  0  0
  9 10  1  0  0  0  0
  9 40  1  0  0  0  0
  9 41  1  0  0  0  0
 10 11  1  0  0  0  0
 10 16  2  0  0  0  0
 11 12  2  0  0  0  0
 11 42  1  0  0  0  0
 12 13  1  0  0  0  0
 12 43  1  0  0  0  0
 13 14  2  0  0  0  0
 13 44  1  0  0  0  0
 14 15  1  0  0  0  0
 14 16  1  0  0  0  0
 16 45  1  0  0  0  0
 17 18  2  0  0  0  0
 17 19  1  0  0  0  0
 19 20  1  0  0  0  0
 19 46  1  0  0  0  0
 19 47  1  0  0  0  0
 20 21  1  0  0  0  0
 20 29  2  0  0  0  0
 21 22  2  0  0  0  0
 21 48  1  0  0  0  0
 22 23  1  0  0  0  0
 23 24  2  0  0  0  0
 23 49  1  0  0  0  0
 24 25  1  0  0  0  0
 24 29  1  0  0  0  0
 25 26  2  0  0  0  0
 25 50  1  0  0  0  0
 26 27  1  0  0  0  0
 26 51  1  0  0  0  0
 27 28  2  0  0  0  0
 27 52  1  0  0  0  0
 28 29  1  0  0  0  0
 28 53  1  0  0  0  0
 30 31  1  0  0  0  0
 31 54  1  0  0  0  0
M  END
$$$$
