
 OpenBabel07202414203D

 41 45  0  0  1  0  0  0  0  0999 V2000
    1.6557   -0.1145    4.0384 C   0  0  0  0  0  0  0  0  0  0  0  0
    2.0461    1.1940    3.7931 C   0  0  0  0  0  0  0  0  0  0  0  0
    1.8876    1.7465    2.5163 C   0  0  0  0  0  0  0  0  0  0  0  0
    1.3040    1.0228    1.4447 C   0  0  0  0  0  0  0  0  0  0  0  0
    0.9767   -0.3311    1.7152 C   0  0  0  0  0  0  0  0  0  0  0  0
    1.1364   -0.8778    2.9994 C   0  0  0  0  0  0  0  0  0  0  0  0
    0.5005   -1.1237    0.6746 C   0  0  0  0  0  0  0  0  0  0  0  0
    0.3455   -0.7048   -0.5962 N   0  0  0  0  0  0  0  0  0  0  0  0
    0.6324    0.5897   -0.8366 C   0  0  0  0  0  0  0  0  0  0  0  0
    1.0661    1.5178    0.1263 C   0  0  0  0  0  0  0  0  0  0  0  0
    1.1218    2.8873   -0.2608 N   0  0  0  0  0  0  0  0  0  0  0  0
    0.6790    3.9612    0.4887 C   0  0  0  0  0  0  0  0  0  0  0  0
    0.3350    3.9867    1.6631 O   0  0  0  0  0  0  0  0  0  0  0  0
    0.5883    5.1925   -0.4362 C   0  0  3  0  0  0  0  0  0  0  0  0
   -0.8422    5.7236   -0.3835 C   0  0  0  0  0  0  0  0  0  0  0  0
   -0.9284    7.0141   -1.1694 C   0  0  0  0  0  0  0  0  0  0  0  0
   -0.0617    8.0235   -0.6510 O   0  0  0  0  0  0  0  0  0  0  0  0
    1.2112    7.6232   -0.3494 C   0  0  0  0  0  0  0  0  0  0  0  0
    1.5923    6.2860   -0.1728 C   0  0  0  0  0  0  0  0  0  0  0  0
    2.9386    6.0026    0.1260 C   0  0  0  0  0  0  0  0  0  0  0  0
    3.8684    7.0359    0.2456 C   0  0  0  0  0  0  0  0  0  0  0  0
    3.4774    8.3596    0.0751 C   0  0  0  0  0  0  0  0  0  0  0  0
    2.1447    8.6522   -0.2128 C   0  0  0  0  0  0  0  0  0  0  0  0
    5.5146    6.6647    0.5776 Cl  0  0  0  0  0  0  0  0  0  0  0  0
    0.8989    4.5845   -1.7030 N   0  0  0  0  0  0  0  0  0  0  0  0
    1.3333    3.2926   -1.5557 C   0  0  0  0  0  0  0  0  0  0  0  0
    1.8500    2.6801   -2.4767 O   0  0  0  0  0  0  0  0  0  0  0  0
    1.7689   -0.5444    5.0302 H   0  0  0  0  0  0  0  0  0  0  0  0
    2.4726    1.7935    4.5933 H   0  0  0  0  0  0  0  0  0  0  0  0
    2.2428    2.7638    2.3741 H   0  0  0  0  0  0  0  0  0  0  0  0
    0.8595   -1.9119    3.1968 H   0  0  0  0  0  0  0  0  0  0  0  0
    0.2309   -2.1654    0.8332 H   0  0  0  0  0  0  0  0  0  0  0  0
    0.4322    0.8748   -1.8648 H   0  0  0  0  0  0  0  0  0  0  0  0
   -1.1236    5.9312    0.6587 H   0  0  0  0  0  0  0  0  0  0  0  0
   -1.5589    4.9882   -0.7695 H   0  0  0  0  0  0  0  0  0  0  0  0
   -1.9499    7.4056   -1.1111 H   0  0  0  0  0  0  0  0  0  0  0  0
   -0.7056    6.8599   -2.2319 H   0  0  0  0  0  0  0  0  0  0  0  0
    3.2814    4.9765    0.2398 H   0  0  0  0  0  0  0  0  0  0  0  0
    4.2020    9.1652    0.1545 H   0  0  0  0  0  0  0  0  0  0  0  0
    1.8353    9.6849   -0.3548 H   0  0  0  0  0  0  0  0  0  0  0  0
    1.1306    5.0903   -2.5490 H   0  0  0  0  0  0  0  0  0  0  0  0
  1  2  1  0  0  0  0
  1  6  2  0  0  0  0
  1 28  1  0  0  0  0
  2  3  2  0  0  0  0
  2 29  1  0  0  0  0
  3  4  1  0  0  0  0
  3 30  1  0  0  0  0
  4  5  1  0  0  0  0
  4 10  2  0  0  0  0
  5  6  1  0  0  0  0
  5  7  2  0  0  0  0
  6 31  1  0  0  0  0
  7  8  1  0  0  0  0
  7 32  1  0  0  0  0
  8  9  2  0  0  0  0
  9 10  1  0  0  0  0
  9 33  1  0  0  0  0
 10 11  1  0  0  0  0
 11 12  1  0  0  0  0
 11 26  1  0  0  0  0
 12 13  2  0  0  0  0
 12 14  1  0  0  0  0
 14 15  1  0  0  0  0
 14 19  1  0  0  0  0
 14 25  1  0  0  0  0
 15 16  1  0  0  0  0
 15 34  1  0  0  0  0
 15 35  1  0  0  0  0
 16 17  1  0  0  0  0
 16 36  1  0  0  0  0
 16 37  1  0  0  0  0
 17 18  1  0  0  0  0
 18 19  1  0  0  0  0
 18 23  2  0  0  0  0
 19 20  2  0  0  0  0
 20 21  1  0  0  0  0
 20 38  1  0  0  0  0
 21 22  2  0  0  0  0
 21 24  1  0  0  0  0
 22 23  1  0  0  0  0
 22 39  1  0  0  0  0
 23 40  1  0  0  0  0
 25 26  1  0  0  0  0
 25 41  1  0  0  0  0
 26 27  2  0  0  0  0
M  END
$$$$
