
 OpenBabel07202414143D

 58 62  0  0  1  0  0  0  0  0999 V2000
    1.9962    0.2698    3.2444 C   0  0  0  0  0  0  0  0  0  0  0  0
    2.7973   -0.6010    2.4296 N   0  0  0  0  0  0  0  0  0  0  0  0
    3.3100   -0.1766    1.2270 C   0  0  0  0  0  0  0  0  0  0  0  0
    3.0196    0.8993    0.7116 O   0  0  0  0  0  0  0  0  0  0  0  0
    4.2579   -1.1703    0.5487 C   0  0  0  0  0  0  0  0  0  0  0  0
    5.0561   -1.9847    1.5085 N   0  0  0  0  0  0  0  0  0  0  0  0
    5.8851   -2.9430    0.7469 C   0  0  0  0  0  0  0  0  0  0  0  0
    7.0707   -2.3086    0.0387 C   0  0  0  0  0  0  0  0  0  0  0  0
    7.6363   -2.9868   -1.0530 C   0  0  0  0  0  0  0  0  0  0  0  0
    8.7421   -2.4606   -1.7184 C   0  0  0  0  0  0  0  0  0  0  0  0
    9.2955   -1.2579   -1.2908 C   0  0  0  0  0  0  0  0  0  0  0  0
   10.6593   -0.6074   -2.1130 Cl  0  0  0  0  0  0  0  0  0  0  0  0
    8.7555   -0.5745   -0.2004 C   0  0  0  0  0  0  0  0  0  0  0  0
    7.6421   -1.0912    0.4858 C   0  0  0  0  0  0  0  0  0  0  0  0
    7.0429   -0.3523    1.6825 C   0  0  2  0  0  0  0  0  0  0  0  0
    6.4232    1.0177    1.3124 C   0  0  0  0  0  0  0  0  0  0  0  0
    7.3049    2.0750    1.9309 C   0  0  0  0  0  0  0  0  0  0  0  0
    8.0379    1.3882    2.9585 N   0  0  0  0  0  0  0  0  0  0  0  0
    9.0114    2.1008    3.6877 C   0  0  0  0  0  0  0  0  0  0  0  0
   10.3582    2.0627    3.3310 C   0  0  0  0  0  0  0  0  0  0  0  0
   11.3193    2.7998    3.9327 N   0  0  0  0  0  0  0  0  0  0  0  0
   10.9201    3.5886    4.9542 C   0  0  0  0  0  0  0  0  0  0  0  0
    9.6050    3.6873    5.4072 C   0  0  0  0  0  0  0  0  0  0  0  0
    8.6255    2.9072    4.7688 C   0  0  0  0  0  0  0  0  0  0  0  0
    7.1920    2.9204    5.2497 C   0  0  0  0  0  0  0  0  0  0  0  0
    7.0288    3.4886    6.6565 C   0  0  0  0  0  0  0  0  0  0  0  0
    7.7947    4.7978    6.7812 C   0  0  0  0  0  0  0  0  0  0  0  0
    9.2910    4.5503    6.5994 C   0  0  0  0  0  0  0  0  0  0  0  0
    8.1089    0.0194    2.7208 C   0  0  0  0  0  0  0  0  0  0  0  0
    8.8676   -0.7736    3.2671 O   0  0  0  0  0  0  0  0  0  0  0  0
    5.9816   -1.2347    2.3948 C   0  0  0  0  0  0  0  0  0  0  0  0
    1.8184   -0.2136    4.2061 H   0  0  0  0  0  0  0  0  0  0  0  0
    1.0488    0.4628    2.7346 H   0  0  0  0  0  0  0  0  0  0  0  0
    2.5223    1.2193    3.3952 H   0  0  0  0  0  0  0  0  0  0  0  0
    3.1691   -1.4678    2.7992 H   0  0  0  0  0  0  0  0  0  0  0  0
    4.8831   -0.6189   -0.1557 H   0  0  0  0  0  0  0  0  0  0  0  0
    3.6156   -1.8374   -0.0432 H   0  0  0  0  0  0  0  0  0  0  0  0
    5.2539   -3.4757    0.0235 H   0  0  0  0  0  0  0  0  0  0  0  0
    6.2672   -3.7097    1.4338 H   0  0  0  0  0  0  0  0  0  0  0  0
    7.2174   -3.9336   -1.3900 H   0  0  0  0  0  0  0  0  0  0  0  0
    9.1686   -2.9951   -2.5628 H   0  0  0  0  0  0  0  0  0  0  0  0
    9.2193    0.3561    0.1163 H   0  0  0  0  0  0  0  0  0  0  0  0
    5.4377    1.1355    1.7701 H   0  0  0  0  0  0  0  0  0  0  0  0
    6.2991    1.1788    0.2367 H   0  0  0  0  0  0  0  0  0  0  0  0
    6.7059    2.8882    2.3560 H   0  0  0  0  0  0  0  0  0  0  0  0
    7.9981    2.4904    1.1917 H   0  0  0  0  0  0  0  0  0  0  0  0
   10.7095    1.4478    2.5074 H   0  0  0  0  0  0  0  0  0  0  0  0
   11.7202    4.1528    5.4280 H   0  0  0  0  0  0  0  0  0  0  0  0
    6.7869    1.9008    5.2478 H   0  0  0  0  0  0  0  0  0  0  0  0
    6.5955    3.5206    4.5530 H   0  0  0  0  0  0  0  0  0  0  0  0
    7.4012    2.7689    7.3967 H   0  0  0  0  0  0  0  0  0  0  0  0
    5.9652    3.6455    6.8669 H   0  0  0  0  0  0  0  0  0  0  0  0
    7.6105    5.2531    7.7606 H   0  0  0  0  0  0  0  0  0  0  0  0
    7.4366    5.5059    6.0230 H   0  0  0  0  0  0  0  0  0  0  0  0
    9.6835    4.0497    7.4935 H   0  0  0  0  0  0  0  0  0  0  0  0
    9.8015    5.5160    6.5074 H   0  0  0  0  0  0  0  0  0  0  0  0
    5.4124   -0.6411    3.1204 H   0  0  0  0  0  0  0  0  0  0  0  0
    6.4915   -1.9772    3.0286 H   0  0  0  0  0  0  0  0  0  0  0  0
  1  2  1  0  0  0  0
  1 32  1  0  0  0  0
  1 33  1  0  0  0  0
  1 34  1  0  0  0  0
  2  3  1  0  0  0  0
  2 35  1  0  0  0  0
  3  4  2  0  0  0  0
  3  5  1  0  0  0  0
  5  6  1  0  0  0  0
  5 36  1  0  0  0  0
  5 37  1  0  0  0  0
  6  7  1  0  0  0  0
  6 31  1  0  0  0  0
  7  8  1  0  0  0  0
  7 38  1  0  0  0  0
  7 39  1  0  0  0  0
  8  9  1  0  0  0  0
  8 14  2  0  0  0  0
  9 10  2  0  0  0  0
  9 40  1  0  0  0  0
 10 11  1  0  0  0  0
 10 41  1  0  0  0  0
 11 12  1  0  0  0  0
 11 13  2  0  0  0  0
 13 14  1  0  0  0  0
 13 42  1  0  0  0  0
 15 14  1  6  0  0  0
 15 16  1  0  0  0  0
 15 29  1  0  0  0  0
 15 31  1  0  0  0  0
 16 17  1  0  0  0  0
 16 43  1  0  0  0  0
 16 44  1  0  0  0  0
 17 18  1  0  0  0  0
 17 45  1  0  0  0  0
 17 46  1  0  0  0  0
 18 19  1  0  0  0  0
 18 29  1  0  0  0  0
 19 20  1  0  0  0  0
 19 24  2  0  0  0  0
 20 21  2  0  0  0  0
 20 47  1  0  0  0  0
 21 22  1  0  0  0  0
 22 23  2  0  0  0  0
 22 48  1  0  0  0  0
 23 24  1  0  0  0  0
 23 28  1  0  0  0  0
 24 25  1  0  0  0  0
 25 26  1  0  0  0  0
 25 49  1  0  0  0  0
 25 50  1  0  0  0  0
 26 27  1  0  0  0  0
 26 51  1  0  0  0  0
 26 52  1  0  0  0  0
 27 28  1  0  0  0  0
 27 53  1  0  0  0  0
 27 54  1  0  0  0  0
 28 55  1  0  0  0  0
 28 56  1  0  0  0  0
 29 30  2  0  0  0  0
 31 57  1  0  0  0  0
 31 58  1  0  0  0  0
M  END
$$$$
