
 OpenBabel07202414153D

 63 65  0  0  1  0  0  0  0  0999 V2000
    8.5948   -3.7905   11.0791 C   0  0  0  0  0  0  0  0  0  0  0  0
    7.1654   -3.7913    9.9687 S   0  0  0  0  0  0  0  0  0  0  0  0
    7.4946   -2.2326    9.0807 C   0  0  0  0  0  0  0  0  0  0  0  0
    6.3992   -1.9736    8.0473 C   0  0  0  0  0  0  0  0  0  0  0  0
    6.5986   -0.6479    7.3004 C   0  0  0  0  0  0  0  0  0  0  0  0
    7.7812   -0.6275    6.4567 N   0  0  0  0  0  0  0  0  0  0  0  0
    7.7510   -1.0626    5.1475 C   0  0  0  0  0  0  0  0  0  0  0  0
    6.6968   -1.3844    4.5997 O   0  0  0  0  0  0  0  0  0  0  0  0
    9.1180   -1.2289    4.4218 C   0  0  3  0  0  0  0  0  0  0  0  0
    9.7918    0.0792    4.1092 N   0  0  0  0  0  0  0  0  0  0  0  0
   10.7044    0.8324    4.8807 C   0  0  0  0  0  0  0  0  0  0  0  0
   11.1793    1.8909    4.4746 O   0  0  0  0  0  0  0  0  0  0  0  0
   11.1879    0.3495    6.1711 C   0  0  0  0  0  0  0  0  0  0  0  0
   12.4723    0.5906    6.6232 C   0  0  0  0  0  0  0  0  0  0  0  0
   12.6231   -0.0128    7.8310 O   0  0  0  0  0  0  0  0  0  0  0  0
   11.4108   -0.5781    8.0611 C   0  0  0  0  0  0  0  0  0  0  0  0
   10.4954   -0.3697    7.1311 N   0  0  0  0  0  0  0  0  0  0  0  0
    9.4679    0.6410    2.8173 C   0  0  0  0  0  0  0  0  0  0  0  0
   10.4929    0.9055    1.9030 C   0  0  0  0  0  0  0  0  0  0  0  0
   10.2367    1.5743    0.6974 C   0  0  0  0  0  0  0  0  0  0  0  0
    8.9495    2.0195    0.3624 C   0  0  0  0  0  0  0  0  0  0  0  0
    8.6660    2.8184   -0.9272 C   0  0  0  0  0  0  0  0  0  0  0  0
    9.9170    3.0218   -1.8166 C   0  0  0  0  0  0  0  0  0  0  0  0
    7.6132    2.0861   -1.7853 C   0  0  0  0  0  0  0  0  0  0  0  0
    8.1303    4.2287   -0.5876 C   0  0  0  0  0  0  0  0  0  0  0  0
    7.9201    1.7122    1.2764 C   0  0  0  0  0  0  0  0  0  0  0  0
    8.1691    1.0191    2.4788 C   0  0  0  0  0  0  0  0  0  0  0  0
    9.9654   -2.3587    5.0147 C   0  0  0  0  0  0  0  0  0  0  0  0
    9.3769   -3.4025    5.7522 C   0  0  0  0  0  0  0  0  0  0  0  0
   10.1642   -4.3584    6.3887 C   0  0  0  0  0  0  0  0  0  0  0  0
   11.5334   -4.2765    6.2342 C   0  0  0  0  0  0  0  0  0  0  0  0
   12.1378   -3.3581    5.4528 N   0  0  0  0  0  0  0  0  0  0  0  0
   11.3413   -2.4484    4.8376 C   0  0  0  0  0  0  0  0  0  0  0  0
    8.5726   -4.6920   11.6971 H   0  0  0  0  0  0  0  0  0  0  0  0
    8.5686   -2.9184   11.7374 H   0  0  0  0  0  0  0  0  0  0  0  0
    9.5226   -3.7893   10.5016 H   0  0  0  0  0  0  0  0  0  0  0  0
    8.4705   -2.3130    8.5946 H   0  0  0  0  0  0  0  0  0  0  0  0
    7.5298   -1.4141    9.8071 H   0  0  0  0  0  0  0  0  0  0  0  0
    5.4250   -1.9316    8.5548 H   0  0  0  0  0  0  0  0  0  0  0  0
    6.3501   -2.8021    7.3295 H   0  0  0  0  0  0  0  0  0  0  0  0
    6.6822    0.1822    8.0069 H   0  0  0  0  0  0  0  0  0  0  0  0
    5.7159   -0.4663    6.6754 H   0  0  0  0  0  0  0  0  0  0  0  0
    8.6957   -0.4741    6.8867 H   0  0  0  0  0  0  0  0  0  0  0  0
    8.8418   -1.6444    3.4371 H   0  0  0  0  0  0  0  0  0  0  0  0
   13.3301    1.1066    6.2204 H   0  0  0  0  0  0  0  0  0  0  0  0
   11.3187   -1.1380    8.9798 H   0  0  0  0  0  0  0  0  0  0  0  0
   11.5166    0.6146    2.1238 H   0  0  0  0  0  0  0  0  0  0  0  0
   11.0877    1.7546    0.0464 H   0  0  0  0  0  0  0  0  0  0  0  0
   10.3426    2.0642   -2.1380 H   0  0  0  0  0  0  0  0  0  0  0  0
   10.6986    3.5842   -1.2909 H   0  0  0  0  0  0  0  0  0  0  0  0
    9.6737    3.5875   -2.7240 H   0  0  0  0  0  0  0  0  0  0  0  0
    7.9527    1.0795   -2.0531 H   0  0  0  0  0  0  0  0  0  0  0  0
    7.4176    2.6301   -2.7177 H   0  0  0  0  0  0  0  0  0  0  0  0
    6.6540    1.9872   -1.2664 H   0  0  0  0  0  0  0  0  0  0  0  0
    8.8638    4.8056   -0.0143 H   0  0  0  0  0  0  0  0  0  0  0  0
    7.2056    4.1916   -0.0038 H   0  0  0  0  0  0  0  0  0  0  0  0
    7.9095    4.7977   -1.5035 H   0  0  0  0  0  0  0  0  0  0  0  0
    6.8996    2.0372    1.0784 H   0  0  0  0  0  0  0  0  0  0  0  0
    7.3377    0.8592    3.1607 H   0  0  0  0  0  0  0  0  0  0  0  0
    8.2966   -3.4806    5.8607 H   0  0  0  0  0  0  0  0  0  0  0  0
    9.7146   -5.1388    6.9928 H   0  0  0  0  0  0  0  0  0  0  0  0
   12.1966   -4.9701    6.7408 H   0  0  0  0  0  0  0  0  0  0  0  0
   11.8858   -1.7483    4.2108 H   0  0  0  0  0  0  0  0  0  0  0  0
  1  2  1  0  0  0  0
  1 34  1  0  0  0  0
  1 35  1  0  0  0  0
  1 36  1  0  0  0  0
  2  3  1  0  0  0  0
  3  4  1  0  0  0  0
  3 37  1  0  0  0  0
  3 38  1  0  0  0  0
  4  5  1  0  0  0  0
  4 39  1  0  0  0  0
  4 40  1  0  0  0  0
  5  6  1  0  0  0  0
  5 41  1  0  0  0  0
  5 42  1  0  0  0  0
  6  7  1  0  0  0  0
  6 43  1  0  0  0  0
  7  8  2  0  0  0  0
  7  9  1  0  0  0  0
  9 10  1  0  0  0  0
  9 28  1  0  0  0  0
  9 44  1  0  0  0  0
 10 11  1  0  0  0  0
 10 18  1  0  0  0  0
 11 12  2  0  0  0  0
 11 13  1  0  0  0  0
 13 14  2  0  0  0  0
 13 17  1  0  0  0  0
 14 15  1  0  0  0  0
 14 45  1  0  0  0  0
 15 16  1  0  0  0  0
 16 17  2  0  0  0  0
 16 46  1  0  0  0  0
 18 19  1  0  0  0  0
 18 27  2  0  0  0  0
 19 20  2  0  0  0  0
 19 47  1  0  0  0  0
 20 21  1  0  0  0  0
 20 48  1  0  0  0  0
 21 22  1  0  0  0  0
 21 26  2  0  0  0  0
 22 23  1  0  0  0  0
 22 24  1  0  0  0  0
 22 25  1  0  0  0  0
 23 49  1  0  0  0  0
 23 50  1  0  0  0  0
 23 51  1  0  0  0  0
 24 52  1  0  0  0  0
 24 53  1  0  0  0  0
 24 54  1  0  0  0  0
 25 55  1  0  0  0  0
 25 56  1  0  0  0  0
 25 57  1  0  0  0  0
 26 27  1  0  0  0  0
 26 58  1  0  0  0  0
 27 59  1  0  0  0  0
 28 29  1  0  0  0  0
 28 33  2  0  0  0  0
 29 30  2  0  0  0  0
 29 60  1  0  0  0  0
 30 31  1  0  0  0  0
 30 61  1  0  0  0  0
 31 32  2  0  0  0  0
 31 62  1  0  0  0  0
 32 33  1  0  0  0  0
 33 63  1  0  0  0  0
M  END
$$$$
