
 OpenBabel07202414133D

 51 54  0  0  1  0  0  0  0  0999 V2000
    2.0796   -1.9613   -3.4168 C   0  0  0  0  0  0  0  0  0  0  0  0
    3.3618   -1.6716   -2.7374 N   0  0  0  0  0  0  0  0  0  0  0  0
    4.3951   -1.2626   -3.7190 C   0  0  0  0  0  0  0  0  0  0  0  0
    3.1890   -0.6876   -1.3713 S   0  0  0  0  0  0  0  0  0  0  0  0
    2.7925    0.6390   -1.8156 O   0  0  0  0  0  0  0  0  0  0  0  0
    2.4242   -1.4060   -0.3812 O   0  0  0  0  0  0  0  0  0  0  0  0
    4.7684   -0.5954   -0.8785 N   0  0  0  0  0  0  0  0  0  0  0  0
    5.3902   -1.7798   -0.2622 C   0  0  0  0  0  0  0  0  0  0  0  0
    6.8567   -1.8195   -0.6855 C   0  0  0  0  0  0  0  0  0  0  0  0
    7.5543   -0.4961   -0.4741 C   0  0  0  0  0  0  0  0  0  0  0  0
    8.9547   -0.4608   -0.4506 C   0  0  0  0  0  0  0  0  0  0  0  0
    9.6268    0.7541   -0.3306 C   0  0  0  0  0  0  0  0  0  0  0  0
    8.9034    1.9403   -0.2507 C   0  0  0  0  0  0  0  0  0  0  0  0
    9.7350    3.4421   -0.1381 Cl  0  0  0  0  0  0  0  0  0  0  0  0
    7.5106    1.9256   -0.2741 C   0  0  0  0  0  0  0  0  0  0  0  0
    6.8185    0.7071   -0.3826 C   0  0  0  0  0  0  0  0  0  0  0  0
    5.2884    0.7058   -0.4068 C   0  0  3  0  0  0  0  0  0  0  0  0
    4.7110    1.1339    0.9683 C   0  0  0  0  0  0  0  0  0  0  0  0
    5.0781    0.5840    2.0065 O   0  0  0  0  0  0  0  0  0  0  0  0
    3.7721    2.1684    0.9110 N   0  0  0  0  0  0  0  0  0  0  0  0
    3.0556    2.6770    2.0422 C   0  0  0  0  0  0  0  0  0  0  0  0
    3.4864    2.4666    3.3546 C   0  0  0  0  0  0  0  0  0  0  0  0
    2.7368    2.6885    4.4596 N   0  0  0  0  0  0  0  0  0  0  0  0
    1.4881    3.1463    4.2509 C   0  0  0  0  0  0  0  0  0  0  0  0
    0.9875    3.5260    3.0076 C   0  0  0  0  0  0  0  0  0  0  0  0
   -0.3040    4.0707    2.8901 C   0  0  0  0  0  0  0  0  0  0  0  0
   -0.7753    4.5171    1.6597 C   0  0  0  0  0  0  0  0  0  0  0  0
    0.0419    4.4284    0.5398 C   0  0  0  0  0  0  0  0  0  0  0  0
    1.3105    3.8437    0.6377 C   0  0  0  0  0  0  0  0  0  0  0  0
    1.8113    3.3477    1.8681 C   0  0  0  0  0  0  0  0  0  0  0  0
    2.2431   -2.6527   -4.2503 H   0  0  0  0  0  0  0  0  0  0  0  0
    1.6395   -1.0426   -3.8219 H   0  0  0  0  0  0  0  0  0  0  0  0
    1.3753   -2.4376   -2.7327 H   0  0  0  0  0  0  0  0  0  0  0  0
    4.4869   -2.0299   -4.4945 H   0  0  0  0  0  0  0  0  0  0  0  0
    5.3797   -1.1898   -3.2540 H   0  0  0  0  0  0  0  0  0  0  0  0
    4.1431   -0.3102   -4.1914 H   0  0  0  0  0  0  0  0  0  0  0  0
    4.9074   -2.7024   -0.6002 H   0  0  0  0  0  0  0  0  0  0  0  0
    5.2962   -1.7408    0.8296 H   0  0  0  0  0  0  0  0  0  0  0  0
    6.9208   -2.0585   -1.7546 H   0  0  0  0  0  0  0  0  0  0  0  0
    7.3705   -2.6187   -0.1400 H   0  0  0  0  0  0  0  0  0  0  0  0
    9.5281   -1.3823   -0.5305 H   0  0  0  0  0  0  0  0  0  0  0  0
   10.7130    0.7678   -0.3085 H   0  0  0  0  0  0  0  0  0  0  0  0
    6.9639    2.8639   -0.2116 H   0  0  0  0  0  0  0  0  0  0  0  0
    5.0195    1.4644   -1.1543 H   0  0  0  0  0  0  0  0  0  0  0  0
    3.3502    2.3373    0.0038 H   0  0  0  0  0  0  0  0  0  0  0  0
    4.4820    2.0994    3.5835 H   0  0  0  0  0  0  0  0  0  0  0  0
    0.8826    3.2178    5.1514 H   0  0  0  0  0  0  0  0  0  0  0  0
   -0.9479    4.1597    3.7637 H   0  0  0  0  0  0  0  0  0  0  0  0
   -1.7711    4.9462    1.5803 H   0  0  0  0  0  0  0  0  0  0  0  0
   -0.3086    4.8099   -0.4162 H   0  0  0  0  0  0  0  0  0  0  0  0
    1.9162    3.8158   -0.2639 H   0  0  0  0  0  0  0  0  0  0  0  0
  1  2  1  0  0  0  0
  1 31  1  0  0  0  0
  1 32  1  0  0  0  0
  1 33  1  0  0  0  0
  2  3  1  0  0  0  0
  2  4  1  0  0  0  0
  3 34  1  0  0  0  0
  3 35  1  0  0  0  0
  3 36  1  0  0  0  0
  4  5  2  0  0  0  0
  4  6  2  0  0  0  0
  4  7  1  0  0  0  0
  7  8  1  0  0  0  0
  7 17  1  0  0  0  0
  8  9  1  0  0  0  0
  8 37  1  0  0  0  0
  8 38  1  0  0  0  0
  9 10  1  0  0  0  0
  9 39  1  0  0  0  0
  9 40  1  0  0  0  0
 10 11  1  0  0  0  0
 10 16  2  0  0  0  0
 11 12  2  0  0  0  0
 11 41  1  0  0  0  0
 12 13  1  0  0  0  0
 12 42  1  0  0  0  0
 13 14  1  0  0  0  0
 13 15  2  0  0  0  0
 15 16  1  0  0  0  0
 15 43  1  0  0  0  0
 16 17  1  0  0  0  0
 17 18  1  0  0  0  0
 17 44  1  0  0  0  0
 18 19  2  0  0  0  0
 18 20  1  0  0  0  0
 20 21  1  0  0  0  0
 20 45  1  0  0  0  0
 21 22  1  0  0  0  0
 21 30  2  0  0  0  0
 22 23  2  0  0  0  0
 22 46  1  0  0  0  0
 23 24  1  0  0  0  0
 24 25  2  0  0  0  0
 24 47  1  0  0  0  0
 25 26  1  0  0  0  0
 25 30  1  0  0  0  0
 26 27  2  0  0  0  0
 26 48  1  0  0  0  0
 27 28  1  0  0  0  0
 27 49  1  0  0  0  0
 28 29  2  0  0  0  0
 28 50  1  0  0  0  0
 29 30  1  0  0  0  0
 29 51  1  0  0  0  0
M  END
$$$$
