
 OpenBabel07202414163D

 31 32  0  0  0  0  0  0  0  0999 V2000
    1.7239    2.4999    0.8872 C   0  0  0  0  0  0  0  0  0  0  0  0
    1.1057    1.4222    0.0417 C   0  0  0  0  0  0  0  0  0  0  0  0
    1.9276    0.3593   -0.3712 C   0  0  0  0  0  0  0  0  0  0  0  0
    1.3883   -0.6660   -1.1272 C   0  0  0  0  0  0  0  0  0  0  0  0
    0.0945   -0.7235   -1.4795 N   0  0  0  0  0  0  0  0  0  0  0  0
   -0.6900    0.3077   -1.0756 C   0  0  0  0  0  0  0  0  0  0  0  0
   -0.2510    1.4091   -0.3339 C   0  0  0  0  0  0  0  0  0  0  0  0
   -1.1097    2.4748    0.0423 N   0  0  0  0  0  0  0  0  0  0  0  0
   -2.3701    2.7177   -0.4842 C   0  0  0  0  0  0  0  0  0  0  0  0
   -2.9057    2.0797   -1.3872 O   0  0  0  0  0  0  0  0  0  0  0  0
   -3.0831    3.9081    0.1348 C   0  0  0  0  0  0  0  0  0  0  0  0
   -2.7938    5.2164   -0.5615 C   0  0  0  0  0  0  0  0  0  0  0  0
   -3.0110    5.3642   -1.9408 C   0  0  0  0  0  0  0  0  0  0  0  0
   -2.7810    6.5889   -2.5732 C   0  0  0  0  0  0  0  0  0  0  0  0
   -2.3402    7.6847   -1.8332 C   0  0  0  0  0  0  0  0  0  0  0  0
   -2.1349    7.5504   -0.4626 C   0  0  0  0  0  0  0  0  0  0  0  0
   -2.3611    6.3280    0.1744 C   0  0  0  0  0  0  0  0  0  0  0  0
   -1.6036    8.9036    0.4587 Cl  0  0  0  0  0  0  0  0  0  0  0  0
    2.8183    2.4783    0.8186 H   0  0  0  0  0  0  0  0  0  0  0  0
    1.4492    2.3569    1.9372 H   0  0  0  0  0  0  0  0  0  0  0  0
    1.4124    3.4946    0.5568 H   0  0  0  0  0  0  0  0  0  0  0  0
    2.9848    0.3301   -0.1163 H   0  0  0  0  0  0  0  0  0  0  0  0
    2.0015   -1.4923   -1.4760 H   0  0  0  0  0  0  0  0  0  0  0  0
   -1.7264    0.1831   -1.3706 H   0  0  0  0  0  0  0  0  0  0  0  0
   -0.7241    3.1844    0.6506 H   0  0  0  0  0  0  0  0  0  0  0  0
   -2.8255    3.9630    1.1990 H   0  0  0  0  0  0  0  0  0  0  0  0
   -4.1630    3.7155    0.0943 H   0  0  0  0  0  0  0  0  0  0  0  0
   -3.3693    4.5247   -2.5375 H   0  0  0  0  0  0  0  0  0  0  0  0
   -2.9518    6.6874   -3.6429 H   0  0  0  0  0  0  0  0  0  0  0  0
   -2.1666    8.6365   -2.3278 H   0  0  0  0  0  0  0  0  0  0  0  0
   -2.2121    6.2527    1.2489 H   0  0  0  0  0  0  0  0  0  0  0  0
  1  2  1  0  0  0  0
  1 19  1  0  0  0  0
  1 20  1  0  0  0  0
  1 21  1  0  0  0  0
  2  3  1  0  0  0  0
  2  7  2  0  0  0  0
  3  4  2  0  0  0  0
  3 22  1  0  0  0  0
  4  5  1  0  0  0  0
  4 23  1  0  0  0  0
  5  6  2  0  0  0  0
  6  7  1  0  0  0  0
  6 24  1  0  0  0  0
  7  8  1  0  0  0  0
  8  9  1  0  0  0  0
  8 25  1  0  0  0  0
  9 10  2  0  0  0  0
  9 11  1  0  0  0  0
 11 12  1  0  0  0  0
 11 26  1  0  0  0  0
 11 27  1  0  0  0  0
 12 13  1  0  0  0  0
 12 17  2  0  0  0  0
 13 14  2  0  0  0  0
 13 28  1  0  0  0  0
 14 15  1  0  0  0  0
 14 29  1  0  0  0  0
 15 16  2  0  0  0  0
 15 30  1  0  0  0  0
 16 17  1  0  0  0  0
 16 18  1  0  0  0  0
 17 31  1  0  0  0  0
M  END
$$$$
