
 OpenBabel07202414143D

 56 60  0  0  1  0  0  0  0  0999 V2000
    3.8076    0.1461   -1.2674 C   0  0  0  0  0  0  0  0  0  0  0  0
    3.2326   -0.5567   -0.1741 O   0  0  0  0  0  0  0  0  0  0  0  0
    3.5883   -0.0667    1.1392 C   0  0  3  0  0  0  0  0  0  0  0  0
    3.0259   -0.8620    2.3364 C   0  0  0  0  0  0  0  0  0  0  0  0
    2.7722    0.4308    3.0884 N   0  0  0  0  0  0  0  0  0  0  0  0
    3.8205    0.9938    4.3040 S   0  0  0  0  0  0  0  0  0  0  0  0
    5.1341    0.4722    4.0111 O   0  0  0  0  0  0  0  0  0  0  0  0
    3.5881    2.4119    4.4787 O   0  0  0  0  0  0  0  0  0  0  0  0
    3.2282    0.2013    5.6675 N   0  0  0  0  0  0  0  0  0  0  0  0
    3.1920   -1.2852    5.6067 C   0  0  0  0  0  0  0  0  0  0  0  0
    3.1030   -1.8820    7.0129 C   0  0  3  0  0  0  0  0  0  0  0  0
    4.4409   -1.7560    7.7636 C   0  0  0  0  0  0  0  0  0  0  0  0
    4.9713   -2.7527    8.2556 O   0  0  0  0  0  0  0  0  0  0  0  0
    4.9365   -0.4696    7.8058 N   0  0  0  0  0  0  0  0  0  0  0  0
    6.2208   -0.0271    8.2072 C   0  0  0  0  0  0  0  0  0  0  0  0
    7.2331   -0.9056    8.5874 C   0  0  0  0  0  0  0  0  0  0  0  0
    8.5209   -0.5442    8.7928 N   0  0  0  0  0  0  0  0  0  0  0  0
    8.8020    0.7701    8.6803 C   0  0  0  0  0  0  0  0  0  0  0  0
    7.8550    1.7647    8.4460 C   0  0  0  0  0  0  0  0  0  0  0  0
    8.2040    3.1270    8.5015 C   0  0  0  0  0  0  0  0  0  0  0  0
    7.2443    4.1168    8.3080 C   0  0  0  0  0  0  0  0  0  0  0  0
    5.9405    3.7554    8.0011 C   0  0  0  0  0  0  0  0  0  0  0  0
    5.5890    2.4041    7.9243 C   0  0  0  0  0  0  0  0  0  0  0  0
    6.5257    1.3669    8.1759 C   0  0  0  0  0  0  0  0  0  0  0  0
    1.9411   -1.2780    7.7734 C   0  0  0  0  0  0  0  0  0  0  0  0
    1.3095   -2.0198    8.7838 C   0  0  0  0  0  0  0  0  0  0  0  0
    0.2552   -1.4643    9.5050 C   0  0  0  0  0  0  0  0  0  0  0  0
   -0.5556   -2.4047   10.6957 Cl  0  0  0  0  0  0  0  0  0  0  0  0
   -0.1562   -0.1580    9.2574 C   0  0  0  0  0  0  0  0  0  0  0  0
    0.4552    0.5832    8.2440 C   0  0  0  0  0  0  0  0  0  0  0  0
    1.4851    0.0228    7.4708 C   0  0  0  0  0  0  0  0  0  0  0  0
    2.0308    0.8097    6.2891 C   0  0  0  0  0  0  0  0  0  0  0  0
    2.7563    1.0997    1.7267 C   0  0  0  0  0  0  0  0  0  0  0  0
    3.5572   -0.3818   -2.1914 H   0  0  0  0  0  0  0  0  0  0  0  0
    4.8967    0.1822   -1.1672 H   0  0  0  0  0  0  0  0  0  0  0  0
    3.4014    1.1597   -1.3126 H   0  0  0  0  0  0  0  0  0  0  0  0
    4.6723    0.0884    1.2246 H   0  0  0  0  0  0  0  0  0  0  0  0
    3.7377   -1.5397    2.8136 H   0  0  0  0  0  0  0  0  0  0  0  0
    2.0911   -1.4004    2.1421 H   0  0  0  0  0  0  0  0  0  0  0  0
    4.0904   -1.6694    5.1123 H   0  0  0  0  0  0  0  0  0  0  0  0
    2.3137   -1.5944    5.0219 H   0  0  0  0  0  0  0  0  0  0  0  0
    2.9151   -2.9584    6.8839 H   0  0  0  0  0  0  0  0  0  0  0  0
    4.3596    0.2268    7.3451 H   0  0  0  0  0  0  0  0  0  0  0  0
    7.0597   -1.9668    8.7264 H   0  0  0  0  0  0  0  0  0  0  0  0
    9.8545    1.0136    8.8051 H   0  0  0  0  0  0  0  0  0  0  0  0
    9.2242    3.4247    8.7357 H   0  0  0  0  0  0  0  0  0  0  0  0
    7.5125    5.1657    8.4032 H   0  0  0  0  0  0  0  0  0  0  0  0
    5.1869    4.5215    7.8348 H   0  0  0  0  0  0  0  0  0  0  0  0
    4.5506    2.1851    7.6996 H   0  0  0  0  0  0  0  0  0  0  0  0
    1.6307   -3.0380    8.9975 H   0  0  0  0  0  0  0  0  0  0  0  0
   -0.9636    0.2822    9.8368 H   0  0  0  0  0  0  0  0  0  0  0  0
    0.1106    1.5982    8.0518 H   0  0  0  0  0  0  0  0  0  0  0  0
    2.3131    1.8002    6.6674 H   0  0  0  0  0  0  0  0  0  0  0  0
    1.2337    0.9204    5.5474 H   0  0  0  0  0  0  0  0  0  0  0  0
    3.2397    2.0793    1.7037 H   0  0  0  0  0  0  0  0  0  0  0  0
    1.7378    1.1841    1.3322 H   0  0  0  0  0  0  0  0  0  0  0  0
  1  2  1  0  0  0  0
  1 34  1  0  0  0  0
  1 35  1  0  0  0  0
  1 36  1  0  0  0  0
  2  3  1  0  0  0  0
  3  4  1  0  0  0  0
  3 33  1  0  0  0  0
  3 37  1  0  0  0  0
  4  5  1  0  0  0  0
  4 38  1  0  0  0  0
  4 39  1  0  0  0  0
  5  6  1  0  0  0  0
  5 33  1  0  0  0  0
  6  7  2  0  0  0  0
  6  8  2  0  0  0  0
  6  9  1  0  0  0  0
  9 10  1  0  0  0  0
  9 32  1  0  0  0  0
 10 11  1  0  0  0  0
 10 40  1  0  0  0  0
 10 41  1  0  0  0  0
 11 12  1  0  0  0  0
 11 25  1  0  0  0  0
 11 42  1  0  0  0  0
 12 13  2  0  0  0  0
 12 14  1  0  0  0  0
 14 15  1  0  0  0  0
 14 43  1  0  0  0  0
 15 16  1  0  0  0  0
 15 24  2  0  0  0  0
 16 17  2  0  0  0  0
 16 44  1  0  0  0  0
 17 18  1  0  0  0  0
 18 19  2  0  0  0  0
 18 45  1  0  0  0  0
 19 20  1  0  0  0  0
 19 24  1  0  0  0  0
 20 21  2  0  0  0  0
 20 46  1  0  0  0  0
 21 22  1  0  0  0  0
 21 47  1  0  0  0  0
 22 23  2  0  0  0  0
 22 48  1  0  0  0  0
 23 24  1  0  0  0  0
 23 49  1  0  0  0  0
 25 26  1  0  0  0  0
 25 31  2  0  0  0  0
 26 27  2  0  0  0  0
 26 50  1  0  0  0  0
 27 28  1  0  0  0  0
 27 29  1  0  0  0  0
 29 30  2  0  0  0  0
 29 51  1  0  0  0  0
 30 31  1  0  0  0  0
 30 52  1  0  0  0  0
 31 32  1  0  0  0  0
 32 53  1  0  0  0  0
 32 54  1  0  0  0  0
 33 55  1  0  0  0  0
 33 56  1  0  0  0  0
M  END
$$$$
