
 OpenBabel07202414133D

 67 71  0  0  1  0  0  0  0  0999 V2000
    2.3713    4.8074    0.1410 C   0  0  0  0  0  0  0  0  0  0  0  0
    3.1963    3.5334    0.0603 C   0  0  0  0  0  0  0  0  0  0  0  0
    3.6431    3.1068    1.4403 C   0  0  0  0  0  0  0  0  0  0  0  0
    3.4081    3.7575    2.4515 O   0  0  0  0  0  0  0  0  0  0  0  0
    4.3794    1.9401    1.4614 N   0  0  0  0  0  0  0  0  0  0  0  0
    4.8783    1.4298    2.7277 C   0  0  0  0  0  0  0  0  0  0  0  0
    6.4096    1.3627    2.7775 C   0  0  1  0  0  0  0  0  0  0  0  0
    7.0620    2.7414    2.5821 C   0  0  0  0  0  0  0  0  0  0  0  0
    7.6468    3.0974    3.8489 N   0  0  0  0  0  0  0  0  0  0  0  0
    8.5649    4.1803    3.9298 C   0  0  0  0  0  0  0  0  0  0  0  0
    8.1238    5.5208    4.0083 C   0  0  0  0  0  0  0  0  0  0  0  0
    9.0905    6.5557    4.0062 C   0  0  0  0  0  0  0  0  0  0  0  0
   10.4372    6.1933    3.9261 C   0  0  0  0  0  0  0  0  0  0  0  0
   10.8869    4.9190    3.8654 N   0  0  0  0  0  0  0  0  0  0  0  0
    9.9434    3.9485    3.8905 C   0  0  0  0  0  0  0  0  0  0  0  0
    8.6930    7.9021    4.1017 C   0  0  0  0  0  0  0  0  0  0  0  0
    7.3449    8.2365    4.2143 C   0  0  0  0  0  0  0  0  0  0  0  0
    6.3845    7.2316    4.2396 C   0  0  0  0  0  0  0  0  0  0  0  0
    6.7677    5.8913    4.1421 C   0  0  0  0  0  0  0  0  0  0  0  0
    7.6289    2.0585    4.7663 C   0  0  0  0  0  0  0  0  0  0  0  0
    8.0932    2.0848    5.8963 O   0  0  0  0  0  0  0  0  0  0  0  0
    7.0152    0.8222    4.1120 C   0  0  2  0  0  0  0  0  0  0  0  0
    8.1767   -0.1540    3.8454 C   0  0  0  0  0  0  0  0  0  0  0  0
    7.6576   -1.4849    3.3091 C   0  0  0  0  0  0  0  0  0  0  0  0
    6.6391   -2.1208    4.2539 C   0  0  0  0  0  0  0  0  0  0  0  0
    5.5117   -1.1712    4.5696 N   0  0  0  0  0  0  0  0  0  0  0  0
    4.3591   -1.8676    5.6938 S   0  0  0  0  0  0  0  0  0  0  0  0
    4.7949   -3.2173    6.0003 O   0  0  0  0  0  0  0  0  0  0  0  0
    4.1625   -0.8846    6.7336 O   0  0  0  0  0  0  0  0  0  0  0  0
    2.8298   -1.9944    4.7261 C   0  0  0  0  0  0  0  0  0  0  0  0
    1.7799   -2.5440    5.6896 C   0  0  0  0  0  0  0  0  0  0  0  0
    1.4901   -1.7323    6.8523 C   0  0  0  0  0  0  0  0  0  0  0  0
    1.1925   -1.0910    7.7763 N   0  0  0  0  0  0  0  0  0  0  0  0
    0.5348   -3.2280    5.1171 C   0  0  0  0  0  0  0  0  0  0  0  0
    1.5817   -4.0513    5.8002 C   0  0  0  0  0  0  0  0  0  0  0  0
    6.0508    0.1508    5.1000 C   0  0  0  0  0  0  0  0  0  0  0  0
    2.0878    5.1522   -0.8567 H   0  0  0  0  0  0  0  0  0  0  0  0
    2.9328    5.6091    0.6351 H   0  0  0  0  0  0  0  0  0  0  0  0
    1.4582    4.6387    0.7222 H   0  0  0  0  0  0  0  0  0  0  0  0
    4.0861    3.7075   -0.5559 H   0  0  0  0  0  0  0  0  0  0  0  0
    2.6058    2.7320   -0.3939 H   0  0  0  0  0  0  0  0  0  0  0  0
    4.3018    1.3108    0.6712 H   0  0  0  0  0  0  0  0  0  0  0  0
    4.4352    0.4347    2.8240 H   0  0  0  0  0  0  0  0  0  0  0  0
    4.5024    2.0441    3.5501 H   0  0  0  0  0  0  0  0  0  0  0  0
    6.7200    0.7368    1.9318 H   0  0  0  0  0  0  0  0  0  0  0  0
    6.3531    3.5194    2.2877 H   0  0  0  0  0  0  0  0  0  0  0  0
    7.8488    2.6827    1.8202 H   0  0  0  0  0  0  0  0  0  0  0  0
   11.2213    6.9469    3.9215 H   0  0  0  0  0  0  0  0  0  0  0  0
   10.3457    2.9409    3.8358 H   0  0  0  0  0  0  0  0  0  0  0  0
    9.4345    8.6997    4.1072 H   0  0  0  0  0  0  0  0  0  0  0  0
    7.0455    9.2780    4.3013 H   0  0  0  0  0  0  0  0  0  0  0  0
    5.3332    7.4831    4.3517 H   0  0  0  0  0  0  0  0  0  0  0  0
    5.9932    5.1297    4.2074 H   0  0  0  0  0  0  0  0  0  0  0  0
    8.7278   -0.3397    4.7794 H   0  0  0  0  0  0  0  0  0  0  0  0
    8.9049    0.2825    3.1512 H   0  0  0  0  0  0  0  0  0  0  0  0
    8.5035   -2.1668    3.1648 H   0  0  0  0  0  0  0  0  0  0  0  0
    7.2013   -1.3422    2.3246 H   0  0  0  0  0  0  0  0  0  0  0  0
    7.1465   -2.4213    5.1800 H   0  0  0  0  0  0  0  0  0  0  0  0
    6.2334   -3.0155    3.7692 H   0  0  0  0  0  0  0  0  0  0  0  0
    3.0126   -2.6750    3.8846 H   0  0  0  0  0  0  0  0  0  0  0  0
    2.5510   -1.0044    4.3599 H   0  0  0  0  0  0  0  0  0  0  0  0
    0.4176   -3.3364    4.0480 H   0  0  0  0  0  0  0  0  0  0  0  0
   -0.4137   -3.1021    5.6409 H   0  0  0  0  0  0  0  0  0  0  0  0
    2.1625   -4.7233    5.1779 H   0  0  0  0  0  0  0  0  0  0  0  0
    1.3498   -4.4714    6.7759 H   0  0  0  0  0  0  0  0  0  0  0  0
    6.5657   -0.0509    6.0512 H   0  0  0  0  0  0  0  0  0  0  0  0
    5.2165    0.8251    5.3204 H   0  0  0  0  0  0  0  0  0  0  0  0
  1  2  1  0  0  0  0
  1 37  1  0  0  0  0
  1 38  1  0  0  0  0
  1 39  1  0  0  0  0
  2  3  1  0  0  0  0
  2 40  1  0  0  0  0
  2 41  1  0  0  0  0
  3  4  2  0  0  0  0
  3  5  1  0  0  0  0
  5  6  1  0  0  0  0
  5 42  1  0  0  0  0
  6  7  1  0  0  0  0
  6 43  1  0  0  0  0
  6 44  1  0  0  0  0
  7  8  1  0  0  0  0
  7 22  1  0  0  0  0
  7 45  1  6  0  0  0
  8  9  1  0  0  0  0
  8 46  1  0  0  0  0
  8 47  1  0  0  0  0
  9 10  1  0  0  0  0
  9 20  1  0  0  0  0
 10 11  2  0  0  0  0
 10 15  1  0  0  0  0
 11 12  1  0  0  0  0
 11 19  1  0  0  0  0
 12 13  2  0  0  0  0
 12 16  1  0  0  0  0
 13 14  1  0  0  0  0
 13 48  1  0  0  0  0
 14 15  2  0  0  0  0
 15 49  1  0  0  0  0
 16 17  2  0  0  0  0
 16 50  1  0  0  0  0
 17 18  1  0  0  0  0
 17 51  1  0  0  0  0
 18 19  2  0  0  0  0
 18 52  1  0  0  0  0
 19 53  1  0  0  0  0
 20 21  2  0  0  0  0
 22 20  1  1  0  0  0
 22 23  1  0  0  0  0
 22 36  1  0  0  0  0
 23 24  1  0  0  0  0
 23 54  1  0  0  0  0
 23 55  1  0  0  0  0
 24 25  1  0  0  0  0
 24 56  1  0  0  0  0
 24 57  1  0  0  0  0
 25 26  1  0  0  0  0
 25 58  1  0  0  0  0
 25 59  1  0  0  0  0
 26 27  1  0  0  0  0
 26 36  1  0  0  0  0
 27 28  2  0  0  0  0
 27 29  2  0  0  0  0
 27 30  1  0  0  0  0
 30 31  1  0  0  0  0
 30 60  1  0  0  0  0
 30 61  1  0  0  0  0
 31 32  1  0  0  0  0
 31 34  1  0  0  0  0
 31 35  1  0  0  0  0
 32 33  3  0  0  0  0
 34 35  1  0  0  0  0
 34 62  1  0  0  0  0
 34 63  1  0  0  0  0
 35 64  1  0  0  0  0
 35 65  1  0  0  0  0
 36 66  1  0  0  0  0
 36 67  1  0  0  0  0
M  END
$$$$
