
 OpenBabel07202414183D

 54 58  0  0  1  0  0  0  0  0999 V2000
    2.1546    0.0054   -2.8196 F   0  0  0  0  0  0  0  0  0  0  0  0
    2.7472   -0.0419   -1.6189 C   0  0  0  0  0  0  0  0  0  0  0  0
    2.5823    1.0159   -0.7382 C   0  0  0  0  0  0  0  0  0  0  0  0
    3.1522    0.9382    0.5289 C   0  0  0  0  0  0  0  0  0  0  0  0
    3.8850   -0.2022    0.9102 C   0  0  0  0  0  0  0  0  0  0  0  0
    4.3940   -0.3240    2.2027 C   0  0  0  0  0  0  0  0  0  0  0  0
    5.0691   -1.3958    2.6595 N   0  0  0  0  0  0  0  0  0  0  0  0
    5.2693   -2.4001    1.7751 C   0  0  0  0  0  0  0  0  0  0  0  0
    4.8394   -2.3936    0.4441 C   0  0  0  0  0  0  0  0  0  0  0  0
    5.1739   -3.4628   -0.4394 N   0  0  0  0  0  0  0  0  0  0  0  0
    5.2700   -4.7771   -0.0153 C   0  0  0  0  0  0  0  0  0  0  0  0
    4.8533   -5.1458    1.0844 O   0  0  0  0  0  0  0  0  0  0  0  0
    5.8004   -5.7990   -1.0276 C   0  0  3  0  0  0  0  0  0  0  0  0
    7.0098   -5.3584   -1.8910 C   0  0  0  0  0  0  0  0  0  0  0  0
    8.3113   -5.1873   -1.1407 N   0  0  0  0  0  0  0  0  0  0  0  0
    9.0741   -3.6855   -1.2831 S   0  0  0  0  0  0  0  0  0  0  0  0
    8.7937   -3.2131   -2.6208 O   0  0  0  0  0  0  0  0  0  0  0  0
    8.6847   -2.9158   -0.1236 O   0  0  0  0  0  0  0  0  0  0  0  0
   10.8295   -4.0849   -1.1546 C   0  0  0  0  0  0  0  0  0  0  0  0
   11.6187   -2.8062   -1.3895 C   0  0  0  0  0  0  0  0  0  0  0  0
   11.4923   -2.2055   -2.7023 C   0  0  0  0  0  0  0  0  0  0  0  0
   11.4773   -1.7177   -3.7582 N   0  0  0  0  0  0  0  0  0  0  0  0
   11.9920   -1.8852   -0.2310 C   0  0  0  0  0  0  0  0  0  0  0  0
   13.0366   -2.7868   -0.8105 C   0  0  0  0  0  0  0  0  0  0  0  0
    8.3212   -5.8588    0.1803 C   0  0  0  0  0  0  0  0  0  0  0  0
    7.5706   -7.1699    0.0838 C   0  0  0  0  0  0  0  0  0  0  0  0
    8.1641   -8.4123    0.2971 C   0  0  0  0  0  0  0  0  0  0  0  0
    7.4024   -9.5747    0.1513 C   0  0  0  0  0  0  0  0  0  0  0  0
    6.0374   -9.4910   -0.1356 C   0  0  0  0  0  0  0  0  0  0  0  0
    5.1048  -10.9323   -0.2595 Cl  0  0  0  0  0  0  0  0  0  0  0  0
    5.4412   -8.2587   -0.3928 C   0  0  0  0  0  0  0  0  0  0  0  0
    6.2357   -7.1090   -0.3711 C   0  0  0  0  0  0  0  0  0  0  0  0
    4.1015   -1.2683   -0.0007 C   0  0  0  0  0  0  0  0  0  0  0  0
    3.4993   -1.1632   -1.2742 C   0  0  0  0  0  0  0  0  0  0  0  0
    1.9944    1.8787   -1.0345 H   0  0  0  0  0  0  0  0  0  0  0  0
    3.0000    1.7602    1.2266 H   0  0  0  0  0  0  0  0  0  0  0  0
    4.2550    0.4635    2.9412 H   0  0  0  0  0  0  0  0  0  0  0  0
    5.8461   -3.2254    2.1812 H   0  0  0  0  0  0  0  0  0  0  0  0
    5.1972   -3.2483   -1.4269 H   0  0  0  0  0  0  0  0  0  0  0  0
    4.9680   -6.0135   -1.7120 H   0  0  0  0  0  0  0  0  0  0  0  0
    6.7581   -4.4780   -2.4845 H   0  0  0  0  0  0  0  0  0  0  0  0
    7.2154   -6.1565   -2.6239 H   0  0  0  0  0  0  0  0  0  0  0  0
   11.0698   -4.8324   -1.9163 H   0  0  0  0  0  0  0  0  0  0  0  0
   11.0120   -4.4944   -0.1559 H   0  0  0  0  0  0  0  0  0  0  0  0
   11.6331   -2.1021    0.7690 H   0  0  0  0  0  0  0  0  0  0  0  0
   12.1028   -0.8192   -0.4190 H   0  0  0  0  0  0  0  0  0  0  0  0
   13.3806   -3.6127   -0.1972 H   0  0  0  0  0  0  0  0  0  0  0  0
   13.8328   -2.3315   -1.3950 H   0  0  0  0  0  0  0  0  0  0  0  0
    7.8181   -5.2275    0.9253 H   0  0  0  0  0  0  0  0  0  0  0  0
    9.3416   -6.0255    0.5349 H   0  0  0  0  0  0  0  0  0  0  0  0
    9.2245   -8.4894    0.5215 H   0  0  0  0  0  0  0  0  0  0  0  0
    7.8798  -10.5460    0.2520 H   0  0  0  0  0  0  0  0  0  0  0  0
    4.3904   -8.2057   -0.6658 H   0  0  0  0  0  0  0  0  0  0  0  0
    3.5551   -1.9664   -2.0012 H   0  0  0  0  0  0  0  0  0  0  0  0
  1  2  1  0  0  0  0
  2  3  1  0  0  0  0
  2 34  2  0  0  0  0
  3  4  2  0  0  0  0
  3 35  1  0  0  0  0
  4  5  1  0  0  0  0
  4 36  1  0  0  0  0
  5  6  1  0  0  0  0
  5 33  2  0  0  0  0
  6  7  2  0  0  0  0
  6 37  1  0  0  0  0
  7  8  1  0  0  0  0
  8  9  2  0  0  0  0
  8 38  1  0  0  0  0
  9 10  1  0  0  0  0
  9 33  1  0  0  0  0
 10 11  1  0  0  0  0
 10 39  1  0  0  0  0
 11 12  2  0  0  0  0
 11 13  1  0  0  0  0
 13 14  1  0  0  0  0
 13 32  1  0  0  0  0
 13 40  1  0  0  0  0
 14 15  1  0  0  0  0
 14 41  1  0  0  0  0
 14 42  1  0  0  0  0
 15 16  1  0  0  0  0
 15 25  1  0  0  0  0
 16 17  2  0  0  0  0
 16 18  2  0  0  0  0
 16 19  1  0  0  0  0
 19 20  1  0  0  0  0
 19 43  1  0  0  0  0
 19 44  1  0  0  0  0
 20 21  1  0  0  0  0
 20 23  1  0  0  0  0
 20 24  1  0  0  0  0
 21 22  3  0  0  0  0
 23 24  1  0  0  0  0
 23 45  1  0  0  0  0
 23 46  1  0  0  0  0
 24 47  1  0  0  0  0
 24 48  1  0  0  0  0
 25 26  1  0  0  0  0
 25 49  1  0  0  0  0
 25 50  1  0  0  0  0
 26 27  1  0  0  0  0
 26 32  2  0  0  0  0
 27 28  2  0  0  0  0
 27 51  1  0  0  0  0
 28 29  1  0  0  0  0
 28 52  1  0  0  0  0
 29 30  1  0  0  0  0
 29 31  2  0  0  0  0
 31 32  1  0  0  0  0
 31 53  1  0  0  0  0
 33 34  1  0  0  0  0
 34 54  1  0  0  0  0
M  END
$$$$
