
 OpenBabel07202414133D

 57 60  0  0  0  0  0  0  0  0999 V2000
    2.0757   -6.1617    5.7215 C   0  0  0  0  0  0  0  0  0  0  0  0
    3.3285   -5.5306    5.1323 C   0  0  0  0  0  0  0  0  0  0  0  0
    3.2919   -4.0147    5.2381 C   0  0  0  0  0  0  0  0  0  0  0  0
    2.2993   -3.4181    5.6284 O   0  0  0  0  0  0  0  0  0  0  0  0
    4.4888   -3.4318    4.8474 N   0  0  0  0  0  0  0  0  0  0  0  0
    4.7774   -2.0473    4.8696 C   0  0  0  0  0  0  0  0  0  0  0  0
    3.7984   -1.0477    4.9034 C   0  0  0  0  0  0  0  0  0  0  0  0
    4.1676    0.3001    4.9874 C   0  0  0  0  0  0  0  0  0  0  0  0
    5.5139    0.6713    5.0385 C   0  0  0  0  0  0  0  0  0  0  0  0
    6.5041   -0.3100    5.0205 C   0  0  0  0  0  0  0  0  0  0  0  0
    7.8839   -0.0027    5.2542 N   0  0  0  0  0  0  0  0  0  0  0  0
    8.5269    1.1240    4.5711 C   0  0  0  0  0  0  0  0  0  0  0  0
    8.0789    1.5641    3.1945 C   0  0  0  0  0  0  0  0  0  0  0  0
    8.0058    2.9423    2.9179 C   0  0  0  0  0  0  0  0  0  0  0  0
    7.7973    3.4059    1.6166 C   0  0  0  0  0  0  0  0  0  0  0  0
    7.6564    2.4989    0.5711 C   0  0  0  0  0  0  0  0  0  0  0  0
    7.7084    1.1300    0.8302 C   0  0  0  0  0  0  0  0  0  0  0  0
    7.9199    0.6684    2.1332 C   0  0  0  0  0  0  0  0  0  0  0  0
    8.4870   -0.5984    6.3861 C   0  0  0  0  0  0  0  0  0  0  0  0
    7.9927   -1.5481    7.0073 O   0  0  0  0  0  0  0  0  0  0  0  0
    9.8049   -0.0210    6.9089 C   0  0  0  0  0  0  0  0  0  0  0  0
   11.0608   -0.6127    6.3093 C   0  0  0  0  0  0  0  0  0  0  0  0
   11.0324   -1.8750    5.7158 C   0  0  0  0  0  0  0  0  0  0  0  0
   12.0632   -2.4269    5.0456 N   0  0  0  0  0  0  0  0  0  0  0  0
   13.2198   -1.7334    5.0430 C   0  0  0  0  0  0  0  0  0  0  0  0
   13.4274   -0.5436    5.7365 C   0  0  0  0  0  0  0  0  0  0  0  0
   14.7058    0.0368    5.8242 C   0  0  0  0  0  0  0  0  0  0  0  0
   14.9078    1.1996    6.5629 C   0  0  0  0  0  0  0  0  0  0  0  0
   13.8269    1.8171    7.1793 C   0  0  0  0  0  0  0  0  0  0  0  0
   12.5484    1.2575    7.0806 C   0  0  0  0  0  0  0  0  0  0  0  0
   12.3174    0.0496    6.3793 C   0  0  0  0  0  0  0  0  0  0  0  0
    6.1234   -1.6630    4.8940 C   0  0  0  0  0  0  0  0  0  0  0  0
    2.0977   -7.2497    5.6077 H   0  0  0  0  0  0  0  0  0  0  0  0
    1.1738   -5.7844    5.2275 H   0  0  0  0  0  0  0  0  0  0  0  0
    1.9902   -5.9322    6.7886 H   0  0  0  0  0  0  0  0  0  0  0  0
    3.4144   -5.8044    4.0742 H   0  0  0  0  0  0  0  0  0  0  0  0
    4.2089   -5.9102    5.6617 H   0  0  0  0  0  0  0  0  0  0  0  0
    5.2825   -4.0508    4.7285 H   0  0  0  0  0  0  0  0  0  0  0  0
    2.7416   -1.2991    4.8740 H   0  0  0  0  0  0  0  0  0  0  0  0
    3.3840    1.0561    5.0283 H   0  0  0  0  0  0  0  0  0  0  0  0
    5.7583    1.7197    5.1724 H   0  0  0  0  0  0  0  0  0  0  0  0
    9.5769    0.8392    4.4320 H   0  0  0  0  0  0  0  0  0  0  0  0
    8.5217    1.9745    5.2602 H   0  0  0  0  0  0  0  0  0  0  0  0
    8.1498    3.6724    3.7118 H   0  0  0  0  0  0  0  0  0  0  0  0
    7.7729    4.4744    1.4183 H   0  0  0  0  0  0  0  0  0  0  0  0
    7.5337    2.8605   -0.4487 H   0  0  0  0  0  0  0  0  0  0  0  0
    7.6038    0.4233    0.0083 H   0  0  0  0  0  0  0  0  0  0  0  0
    7.9860   -0.4083    2.3016 H   0  0  0  0  0  0  0  0  0  0  0  0
    9.8293   -0.1916    7.9944 H   0  0  0  0  0  0  0  0  0  0  0  0
    9.7895    1.0663    6.7852 H   0  0  0  0  0  0  0  0  0  0  0  0
   10.1521   -2.5124    5.7626 H   0  0  0  0  0  0  0  0  0  0  0  0
   14.0150   -2.1937    4.4621 H   0  0  0  0  0  0  0  0  0  0  0  0
   15.5617   -0.4406    5.3507 H   0  0  0  0  0  0  0  0  0  0  0  0
   15.9077    1.6134    6.6674 H   0  0  0  0  0  0  0  0  0  0  0  0
   13.9795    2.7262    7.7565 H   0  0  0  0  0  0  0  0  0  0  0  0
   11.7408    1.7667    7.6006 H   0  0  0  0  0  0  0  0  0  0  0  0
    6.9008   -2.4237    4.8620 H   0  0  0  0  0  0  0  0  0  0  0  0
  1  2  1  0  0  0  0
  1 33  1  0  0  0  0
  1 34  1  0  0  0  0
  1 35  1  0  0  0  0
  2  3  1  0  0  0  0
  2 36  1  0  0  0  0
  2 37  1  0  0  0  0
  3  4  2  0  0  0  0
  3  5  1  0  0  0  0
  5  6  1  0  0  0  0
  5 38  1  0  0  0  0
  6  7  1  0  0  0  0
  6 32  2  0  0  0  0
  7  8  2  0  0  0  0
  7 39  1  0  0  0  0
  8  9  1  0  0  0  0
  8 40  1  0  0  0  0
  9 10  2  0  0  0  0
  9 41  1  0  0  0  0
 10 11  1  0  0  0  0
 10 32  1  0  0  0  0
 11 12  1  0  0  0  0
 11 19  1  0  0  0  0
 12 13  1  0  0  0  0
 12 42  1  0  0  0  0
 12 43  1  0  0  0  0
 13 14  1  0  0  0  0
 13 18  2  0  0  0  0
 14 15  2  0  0  0  0
 14 44  1  0  0  0  0
 15 16  1  0  0  0  0
 15 45  1  0  0  0  0
 16 17  2  0  0  0  0
 16 46  1  0  0  0  0
 17 18  1  0  0  0  0
 17 47  1  0  0  0  0
 18 48  1  0  0  0  0
 19 20  2  0  0  0  0
 19 21  1  0  0  0  0
 21 22  1  0  0  0  0
 21 49  1  0  0  0  0
 21 50  1  0  0  0  0
 22 23  1  0  0  0  0
 22 31  2  0  0  0  0
 23 24  2  0  0  0  0
 23 51  1  0  0  0  0
 24 25  1  0  0  0  0
 25 26  2  0  0  0  0
 25 52  1  0  0  0  0
 26 27  1  0  0  0  0
 26 31  1  0  0  0  0
 27 28  2  0  0  0  0
 27 53  1  0  0  0  0
 28 29  1  0  0  0  0
 28 54  1  0  0  0  0
 29 30  2  0  0  0  0
 29 55  1  0  0  0  0
 30 31  1  0  0  0  0
 30 56  1  0  0  0  0
 32 57  1  0  0  0  0
M  END
$$$$
