
 OpenBabel07202414153D

 57 60  0  0  1  0  0  0  0  0999 V2000
    0.8880    3.5848    2.2162 C   0  0  0  0  0  0  0  0  0  0  0  0
    2.3042    3.6050    2.0955 O   0  0  0  0  0  0  0  0  0  0  0  0
    2.7035    3.6373    0.7273 C   0  0  0  0  0  0  0  0  0  0  0  0
    4.2216    3.6760    0.6673 C   0  0  0  0  0  0  0  0  0  0  0  0
    4.7134    3.7201   -0.7786 C   0  0  0  0  0  0  0  0  0  0  0  0
    6.1712    3.6245   -0.7494 N   0  0  0  0  0  0  0  0  0  0  0  0
    6.7703    3.7053   -2.0894 C   0  0  0  0  0  0  0  0  0  0  0  0
    8.3575    3.7399   -2.1531 C   0  0  3  0  0  0  0  0  0  0  0  0
    8.9711    2.4700   -1.5299 C   0  0  0  0  0  0  0  0  0  0  0  0
    9.0009    2.5132   -0.0035 C   0  0  0  0  0  0  0  0  0  0  0  0
    9.6713    3.6539    0.5110 O   0  0  0  0  0  0  0  0  0  0  0  0
    9.4271    4.8392   -0.1216 C   0  0  0  0  0  0  0  0  0  0  0  0
    8.8769    4.9635   -1.4063 C   0  0  0  0  0  0  0  0  0  0  0  0
    8.7747    6.2528   -1.9640 C   0  0  0  0  0  0  0  0  0  0  0  0
    9.2241    7.3714   -1.2588 C   0  0  0  0  0  0  0  0  0  0  0  0
    9.7411    7.2368    0.0246 C   0  0  0  0  0  0  0  0  0  0  0  0
    9.8366    5.9692    0.5931 C   0  0  0  0  0  0  0  0  0  0  0  0
    9.1533    8.9266   -1.9902 Cl  0  0  0  0  0  0  0  0  0  0  0  0
    8.6954    3.7724   -3.6817 C   0  0  0  0  0  0  0  0  0  0  0  0
    7.7738    3.6388   -4.4914 O   0  0  0  0  0  0  0  0  0  0  0  0
   10.0220    3.9571   -4.0793 N   0  0  0  0  0  0  0  0  0  0  0  0
   10.4199    4.0987   -5.4621 C   0  0  0  0  0  0  0  0  0  0  0  0
    9.5858    3.6879   -6.5107 C   0  0  0  0  0  0  0  0  0  0  0  0
    9.7775    3.9461   -7.8247 N   0  0  0  0  0  0  0  0  0  0  0  0
   10.8725    4.6576   -8.1329 C   0  0  0  0  0  0  0  0  0  0  0  0
   11.8381    5.0426   -7.2158 C   0  0  0  0  0  0  0  0  0  0  0  0
   11.6534    4.7175   -5.8414 C   0  0  0  0  0  0  0  0  0  0  0  0
   12.7263    5.0393   -4.9742 C   0  0  0  0  0  0  0  0  0  0  0  0
   13.8843    5.6888   -5.4435 C   0  0  0  0  0  0  0  0  0  0  0  0
   13.9933    6.0647   -6.7786 C   0  0  0  0  0  0  0  0  0  0  0  0
   12.9726    5.7414   -7.6643 C   0  0  0  0  0  0  0  0  0  0  0  0
    0.6296    3.5779    3.2781 H   0  0  0  0  0  0  0  0  0  0  0  0
    0.4813    2.6828    1.7491 H   0  0  0  0  0  0  0  0  0  0  0  0
    0.4537    4.4767    1.7544 H   0  0  0  0  0  0  0  0  0  0  0  0
    2.2818    4.5262    0.2445 H   0  0  0  0  0  0  0  0  0  0  0  0
    2.3292    2.7409    0.2199 H   0  0  0  0  0  0  0  0  0  0  0  0
    4.6235    2.7977    1.1906 H   0  0  0  0  0  0  0  0  0  0  0  0
    4.5925    4.5473    1.2233 H   0  0  0  0  0  0  0  0  0  0  0  0
    4.3850    4.6492   -1.2560 H   0  0  0  0  0  0  0  0  0  0  0  0
    4.2938    2.8758   -1.3399 H   0  0  0  0  0  0  0  0  0  0  0  0
    6.3810    2.7119   -0.3520 H   0  0  0  0  0  0  0  0  0  0  0  0
    6.3812    4.6043   -2.5896 H   0  0  0  0  0  0  0  0  0  0  0  0
    6.4092    2.8423   -2.6657 H   0  0  0  0  0  0  0  0  0  0  0  0
   10.0106    2.3650   -1.8666 H   0  0  0  0  0  0  0  0  0  0  0  0
    8.4419    1.5725   -1.8724 H   0  0  0  0  0  0  0  0  0  0  0  0
    9.5391    1.6323    0.3603 H   0  0  0  0  0  0  0  0  0  0  0  0
    8.0218    2.4442    0.4698 H   0  0  0  0  0  0  0  0  0  0  0  0
    8.3436    6.3952   -2.9534 H   0  0  0  0  0  0  0  0  0  0  0  0
   10.0749    8.1057    0.5843 H   0  0  0  0  0  0  0  0  0  0  0  0
   10.2319    5.8555    1.6000 H   0  0  0  0  0  0  0  0  0  0  0  0
   10.6795    4.2727   -3.3764 H   0  0  0  0  0  0  0  0  0  0  0  0
    8.6921    3.0934   -6.3444 H   0  0  0  0  0  0  0  0  0  0  0  0
   10.9631    4.8940   -9.1923 H   0  0  0  0  0  0  0  0  0  0  0  0
   12.7055    4.7550   -3.9280 H   0  0  0  0  0  0  0  0  0  0  0  0
   14.7056    5.8970   -4.7625 H   0  0  0  0  0  0  0  0  0  0  0  0
   14.8785    6.5833   -7.1356 H   0  0  0  0  0  0  0  0  0  0  0  0
   13.0749    6.0202   -8.7092 H   0  0  0  0  0  0  0  0  0  0  0  0
  1  2  1  0  0  0  0
  1 32  1  0  0  0  0
  1 33  1  0  0  0  0
  1 34  1  0  0  0  0
  2  3  1  0  0  0  0
  3  4  1  0  0  0  0
  3 35  1  0  0  0  0
  3 36  1  0  0  0  0
  4  5  1  0  0  0  0
  4 37  1  0  0  0  0
  4 38  1  0  0  0  0
  5  6  1  0  0  0  0
  5 39  1  0  0  0  0
  5 40  1  0  0  0  0
  6  7  1  0  0  0  0
  6 41  1  0  0  0  0
  7  8  1  0  0  0  0
  7 42  1  0  0  0  0
  7 43  1  0  0  0  0
  8  9  1  0  0  0  0
  8 13  1  0  0  0  0
  8 19  1  0  0  0  0
  9 10  1  0  0  0  0
  9 44  1  0  0  0  0
  9 45  1  0  0  0  0
 10 11  1  0  0  0  0
 10 46  1  0  0  0  0
 10 47  1  0  0  0  0
 11 12  1  0  0  0  0
 12 13  1  0  0  0  0
 12 17  2  0  0  0  0
 13 14  2  0  0  0  0
 14 15  1  0  0  0  0
 14 48  1  0  0  0  0
 15 16  2  0  0  0  0
 15 18  1  0  0  0  0
 16 17  1  0  0  0  0
 16 49  1  0  0  0  0
 17 50  1  0  0  0  0
 19 20  2  0  0  0  0
 19 21  1  0  0  0  0
 21 22  1  0  0  0  0
 21 51  1  0  0  0  0
 22 23  1  0  0  0  0
 22 27  2  0  0  0  0
 23 24  2  0  0  0  0
 23 52  1  0  0  0  0
 24 25  1  0  0  0  0
 25 26  2  0  0  0  0
 25 53  1  0  0  0  0
 26 27  1  0  0  0  0
 26 31  1  0  0  0  0
 27 28  1  0  0  0  0
 28 29  2  0  0  0  0
 28 54  1  0  0  0  0
 29 30  1  0  0  0  0
 29 55  1  0  0  0  0
 30 31  2  0  0  0  0
 30 56  1  0  0  0  0
 31 57  1  0  0  0  0
M  END
$$$$
