
 OpenBabel07202414203D

 34 36  0  0  1  0  0  0  0  0999 V2000
   -0.2642   -3.4572   -2.8240 C   0  0  0  0  0  0  0  0  0  0  0  0
   -1.4575   -2.7365   -3.0185 C   0  0  0  0  0  0  0  0  0  0  0  0
   -1.7477   -1.6115   -2.2422 C   0  0  0  0  0  0  0  0  0  0  0  0
   -0.8228   -1.2451   -1.2875 C   0  0  0  0  0  0  0  0  0  0  0  0
    0.3629   -1.9511   -1.0814 C   0  0  0  0  0  0  0  0  0  0  0  0
    0.6594   -3.0629   -1.8515 C   0  0  0  0  0  0  0  0  0  0  0  0
    1.1633   -1.2873    0.0056 C   0  0  3  0  0  0  0  0  0  0  0  0
    0.1899   -0.1577    0.4574 C   0  0  0  0  0  0  0  0  0  0  0  0
    0.3188    0.5859    1.4174 O   0  0  0  0  0  0  0  0  0  0  0  0
   -0.9090   -0.1870   -0.3967 N   0  0  0  0  0  0  0  0  0  0  0  0
    1.4939   -2.1797    1.0978 N   0  0  0  0  0  0  0  0  0  0  0  0
    2.6560   -2.9135    1.0824 C   0  0  0  0  0  0  0  0  0  0  0  0
    3.4528   -2.8884    0.1467 O   0  0  0  0  0  0  0  0  0  0  0  0
    2.8803   -3.7774    2.3097 C   0  0  0  0  0  0  0  0  0  0  0  0
    3.6127   -3.0555    3.4126 C   0  0  0  0  0  0  0  0  0  0  0  0
    4.9103   -2.5631    3.2043 C   0  0  0  0  0  0  0  0  0  0  0  0
    5.5875   -1.8881    4.2220 C   0  0  0  0  0  0  0  0  0  0  0  0
    4.9787   -1.7043    5.4626 C   0  0  0  0  0  0  0  0  0  0  0  0
    3.6974   -2.2040    5.6821 C   0  0  0  0  0  0  0  0  0  0  0  0
    3.0148   -2.8787    4.6687 C   0  0  0  0  0  0  0  0  0  0  0  0
    2.9467   -1.9877    7.2157 Cl  0  0  0  0  0  0  0  0  0  0  0  0
   -0.0563   -4.3290   -3.4396 H   0  0  0  0  0  0  0  0  0  0  0  0
   -2.1588   -3.0614   -3.7842 H   0  0  0  0  0  0  0  0  0  0  0  0
   -2.6669   -1.0567   -2.3923 H   0  0  0  0  0  0  0  0  0  0  0  0
    1.5849   -3.6132   -1.7097 H   0  0  0  0  0  0  0  0  0  0  0  0
    2.0633   -0.8219   -0.4119 H   0  0  0  0  0  0  0  0  0  0  0  0
   -1.6893    0.4464   -0.3091 H   0  0  0  0  0  0  0  0  0  0  0  0
    0.9660   -2.0903    1.9574 H   0  0  0  0  0  0  0  0  0  0  0  0
    3.4532   -4.6633    2.0087 H   0  0  0  0  0  0  0  0  0  0  0  0
    1.9111   -4.1502    2.6620 H   0  0  0  0  0  0  0  0  0  0  0  0
    5.4013   -2.6975    2.2404 H   0  0  0  0  0  0  0  0  0  0  0  0
    6.5889   -1.5033    4.0445 H   0  0  0  0  0  0  0  0  0  0  0  0
    5.5067   -1.1737    6.2500 H   0  0  0  0  0  0  0  0  0  0  0  0
    2.0176   -3.2660    4.8630 H   0  0  0  0  0  0  0  0  0  0  0  0
  1  2  1  0  0  0  0
  1  6  2  0  0  0  0
  1 22  1  0  0  0  0
  2  3  2  0  0  0  0
  2 23  1  0  0  0  0
  3  4  1  0  0  0  0
  3 24  1  0  0  0  0
  4  5  2  0  0  0  0
  4 10  1  0  0  0  0
  5  6  1  0  0  0  0
  5  7  1  0  0  0  0
  6 25  1  0  0  0  0
  7  8  1  0  0  0  0
  7 11  1  0  0  0  0
  7 26  1  0  0  0  0
  8  9  2  0  0  0  0
  8 10  1  0  0  0  0
 10 27  1  0  0  0  0
 11 12  1  0  0  0  0
 11 28  1  0  0  0  0
 12 13  2  0  0  0  0
 12 14  1  0  0  0  0
 14 15  1  0  0  0  0
 14 29  1  0  0  0  0
 14 30  1  0  0  0  0
 15 16  1  0  0  0  0
 15 20  2  0  0  0  0
 16 17  2  0  0  0  0
 16 31  1  0  0  0  0
 17 18  1  0  0  0  0
 17 32  1  0  0  0  0
 18 19  2  0  0  0  0
 18 33  1  0  0  0  0
 19 20  1  0  0  0  0
 19 21  1  0  0  0  0
 20 34  1  0  0  0  0
M  END
$$$$
