
 OpenBabel07202414173D

 41 44  0  0  1  0  0  0  0  0999 V2000
    7.4277    2.1577    1.3384 Cl  0  0  0  0  0  0  0  0  0  0  0  0
    7.6311    0.6149    0.6060 C   0  0  0  0  0  0  0  0  0  0  0  0
    8.8683    0.2640    0.0676 C   0  0  0  0  0  0  0  0  0  0  0  0
    9.0528   -1.0062   -0.4819 C   0  0  0  0  0  0  0  0  0  0  0  0
    8.0016   -1.9295   -0.4775 C   0  0  0  0  0  0  0  0  0  0  0  0
    6.7462   -1.5743    0.0498 C   0  0  0  0  0  0  0  0  0  0  0  0
    6.5679   -0.2884    0.5875 C   0  0  0  0  0  0  0  0  0  0  0  0
    5.6234   -2.5888    0.1076 C   0  0  3  0  0  0  0  0  0  0  0  0
    5.4273   -3.1087    1.5288 C   0  0  0  0  0  0  0  0  0  0  0  0
    4.6518   -2.5148    2.2852 O   0  0  0  0  0  0  0  0  0  0  0  0
    6.1907   -4.1960    1.8819 N   0  0  0  0  0  0  0  0  0  0  0  0
    6.0956   -4.8203    3.1117 C   0  0  0  0  0  0  0  0  0  0  0  0
    5.3110   -4.5056    4.2459 C   0  0  0  0  0  0  0  0  0  0  0  0
    5.5296   -5.3435    5.2648 N   0  0  0  0  0  0  0  0  0  0  0  0
    6.4552   -6.1790    4.7828 N   0  0  0  0  0  0  0  0  0  0  0  0
    6.8367   -5.9156    3.4906 C   0  0  0  0  0  0  0  0  0  0  0  0
    7.8778   -6.7297    2.8052 C   0  0  0  0  0  0  0  0  0  0  0  0
    8.7599   -7.4677    3.8163 C   0  0  0  0  0  0  0  0  0  0  0  0
    7.9015   -8.1743    4.8689 C   0  0  0  0  0  0  0  0  0  0  0  0
    7.0787   -7.1585    5.6570 C   0  0  0  0  0  0  0  0  0  0  0  0
    5.8426   -3.7019   -0.9180 C   0  0  0  0  0  0  0  0  0  0  0  0
    7.2042   -4.2003   -0.8818 N   0  0  0  0  0  0  0  0  0  0  0  0
    8.2621   -3.3199   -0.9511 C   0  0  0  0  0  0  0  0  0  0  0  0
    9.3620   -3.6872   -1.3354 O   0  0  0  0  0  0  0  0  0  0  0  0
    9.7007    0.9623    0.0981 H   0  0  0  0  0  0  0  0  0  0  0  0
   10.0262   -1.2860   -0.8794 H   0  0  0  0  0  0  0  0  0  0  0  0
    5.6129   -0.0052    1.0296 H   0  0  0  0  0  0  0  0  0  0  0  0
    4.6782   -2.0972   -0.1618 H   0  0  0  0  0  0  0  0  0  0  0  0
    6.9049   -4.5382    1.2485 H   0  0  0  0  0  0  0  0  0  0  0  0
    4.6171   -3.6881    4.3837 H   0  0  0  0  0  0  0  0  0  0  0  0
    8.5064   -6.0834    2.1829 H   0  0  0  0  0  0  0  0  0  0  0  0
    7.3955   -7.4537    2.1366 H   0  0  0  0  0  0  0  0  0  0  0  0
    9.4253   -6.7500    4.3134 H   0  0  0  0  0  0  0  0  0  0  0  0
    9.3961   -8.1909    3.2952 H   0  0  0  0  0  0  0  0  0  0  0  0
    8.5326   -8.7484    5.5542 H   0  0  0  0  0  0  0  0  0  0  0  0
    7.2299   -8.8833    4.3695 H   0  0  0  0  0  0  0  0  0  0  0  0
    7.7187   -6.5875    6.3394 H   0  0  0  0  0  0  0  0  0  0  0  0
    6.2910   -7.6506    6.2346 H   0  0  0  0  0  0  0  0  0  0  0  0
    5.6844   -3.3084   -1.9300 H   0  0  0  0  0  0  0  0  0  0  0  0
    5.1670   -4.5513   -0.7736 H   0  0  0  0  0  0  0  0  0  0  0  0
    7.4135   -5.1111   -1.2784 H   0  0  0  0  0  0  0  0  0  0  0  0
  1  2  1  0  0  0  0
  2  3  1  0  0  0  0
  2  7  2  0  0  0  0
  3  4  2  0  0  0  0
  3 25  1  0  0  0  0
  4  5  1  0  0  0  0
  4 26  1  0  0  0  0
  5  6  2  0  0  0  0
  5 23  1  0  0  0  0
  6  7  1  0  0  0  0
  6  8  1  0  0  0  0
  7 27  1  0  0  0  0
  8  9  1  0  0  0  0
  8 21  1  0  0  0  0
  8 28  1  0  0  0  0
  9 10  2  0  0  0  0
  9 11  1  0  0  0  0
 11 12  1  0  0  0  0
 11 29  1  0  0  0  0
 12 13  1  0  0  0  0
 12 16  2  0  0  0  0
 13 14  2  0  0  0  0
 13 30  1  0  0  0  0
 14 15  1  0  0  0  0
 15 16  1  0  0  0  0
 15 20  1  0  0  0  0
 16 17  1  0  0  0  0
 17 18  1  0  0  0  0
 17 31  1  0  0  0  0
 17 32  1  0  0  0  0
 18 19  1  0  0  0  0
 18 33  1  0  0  0  0
 18 34  1  0  0  0  0
 19 20  1  0  0  0  0
 19 35  1  0  0  0  0
 19 36  1  0  0  0  0
 20 37  1  0  0  0  0
 20 38  1  0  0  0  0
 21 22  1  0  0  0  0
 21 39  1  0  0  0  0
 21 40  1  0  0  0  0
 22 23  1  0  0  0  0
 22 41  1  0  0  0  0
 23 24  2  0  0  0  0
M  END
$$$$
