
 OpenBabel07202414123D

 57 60  0  0  0  0  0  0  0  0999 V2000
    3.0173    0.6737   -0.5660 C   0  0  0  0  0  0  0  0  0  0  0  0
    3.8104    0.6059   -1.8747 C   0  0  0  0  0  0  0  0  0  0  0  0
    5.3051    0.7758   -1.6032 C   0  0  0  0  0  0  0  0  0  0  0  0
    3.5506   -0.7161   -2.5398 C   0  0  0  0  0  0  0  0  0  0  0  0
    3.8464   -1.8715   -1.9841 N   0  0  0  0  0  0  0  0  0  0  0  0
    3.3886   -2.9165   -2.7664 C   0  0  0  0  0  0  0  0  0  0  0  0
    3.5451   -4.3236   -2.2485 C   0  0  0  0  0  0  0  0  0  0  0  0
    2.3900   -4.9009   -1.5370 N   0  0  0  0  0  0  0  0  0  0  0  0
    1.7437   -4.0644   -0.5203 C   0  0  0  0  0  0  0  0  0  0  0  0
    2.1471   -6.2718   -1.5212 C   0  0  0  0  0  0  0  0  0  0  0  0
    3.0899   -7.2233   -1.9608 C   0  0  0  0  0  0  0  0  0  0  0  0
    2.8155   -8.6061   -1.9799 C   0  0  0  0  0  0  0  0  0  0  0  0
    3.8699   -9.6168   -2.3750 C   0  0  0  0  0  0  0  0  0  0  0  0
    4.4736   -9.4693   -3.7593 C   0  0  0  0  0  0  0  0  0  0  0  0
    5.6890   -9.5277   -3.9237 O   0  0  0  0  0  0  0  0  0  0  0  0
    3.5526   -9.3188   -4.7813 N   0  0  0  0  0  0  0  0  0  0  0  0
    3.9373   -9.2263   -6.1436 C   0  0  0  0  0  0  0  0  0  0  0  0
    4.8906  -10.0934   -6.6834 C   0  0  0  0  0  0  0  0  0  0  0  0
    5.2748  -10.0978   -7.9809 N   0  0  0  0  0  0  0  0  0  0  0  0
    4.7062   -9.1653   -8.7742 C   0  0  0  0  0  0  0  0  0  0  0  0
    3.7632   -8.2265   -8.3485 C   0  0  0  0  0  0  0  0  0  0  0  0
    3.2515   -7.2511   -9.2208 C   0  0  0  0  0  0  0  0  0  0  0  0
    2.3453   -6.2948   -8.7665 C   0  0  0  0  0  0  0  0  0  0  0  0
    1.9308   -6.3094   -7.4406 C   0  0  0  0  0  0  0  0  0  0  0  0
    2.4221   -7.2811   -6.5683 C   0  0  0  0  0  0  0  0  0  0  0  0
    3.3475   -8.2628   -6.9961 C   0  0  0  0  0  0  0  0  0  0  0  0
    1.5647   -9.0501   -1.5406 C   0  0  0  0  0  0  0  0  0  0  0  0
    0.6242   -8.1333   -1.0876 C   0  0  0  0  0  0  0  0  0  0  0  0
   -0.9076   -8.6881   -0.5321 Cl  0  0  0  0  0  0  0  0  0  0  0  0
    0.9101   -6.7692   -1.0770 C   0  0  0  0  0  0  0  0  0  0  0  0
    2.7834   -2.5266   -3.9466 C   0  0  0  0  0  0  0  0  0  0  0  0
    2.7774   -0.8164   -4.0693 S   0  0  0  0  0  0  0  0  0  0  0  0
    3.1930    1.6208   -0.0471 H   0  0  0  0  0  0  0  0  0  0  0  0
    3.2944   -0.1407    0.1147 H   0  0  0  0  0  0  0  0  0  0  0  0
    1.9419    0.5858   -0.7588 H   0  0  0  0  0  0  0  0  0  0  0  0
    3.4806    1.4313   -2.5207 H   0  0  0  0  0  0  0  0  0  0  0  0
    5.6937   -0.0248   -0.9610 H   0  0  0  0  0  0  0  0  0  0  0  0
    5.5069    1.7298   -1.1043 H   0  0  0  0  0  0  0  0  0  0  0  0
    5.8785    0.7545   -2.5365 H   0  0  0  0  0  0  0  0  0  0  0  0
    4.4212   -4.3576   -1.5882 H   0  0  0  0  0  0  0  0  0  0  0  0
    3.7889   -4.9321   -3.1275 H   0  0  0  0  0  0  0  0  0  0  0  0
    2.2391   -3.0986   -0.3826 H   0  0  0  0  0  0  0  0  0  0  0  0
    1.7488   -4.5485    0.4639 H   0  0  0  0  0  0  0  0  0  0  0  0
    0.7074   -3.8549   -0.8086 H   0  0  0  0  0  0  0  0  0  0  0  0
    4.0881   -6.9028   -2.2563 H   0  0  0  0  0  0  0  0  0  0  0  0
    3.4656  -10.6347   -2.3194 H   0  0  0  0  0  0  0  0  0  0  0  0
    4.6819   -9.5586   -1.6402 H   0  0  0  0  0  0  0  0  0  0  0  0
    2.6503   -8.9414   -4.5259 H   0  0  0  0  0  0  0  0  0  0  0  0
    5.3638  -10.8629   -6.0782 H   0  0  0  0  0  0  0  0  0  0  0  0
    5.0565   -9.1820   -9.8038 H   0  0  0  0  0  0  0  0  0  0  0  0
    3.5767   -7.2159  -10.2589 H   0  0  0  0  0  0  0  0  0  0  0  0
    1.9713   -5.5335   -9.4457 H   0  0  0  0  0  0  0  0  0  0  0  0
    1.2363   -5.5565   -7.0778 H   0  0  0  0  0  0  0  0  0  0  0  0
    2.0934   -7.2312   -5.5322 H   0  0  0  0  0  0  0  0  0  0  0  0
    1.3257  -10.1110   -1.5300 H   0  0  0  0  0  0  0  0  0  0  0  0
    0.1393   -6.0903   -0.7257 H   0  0  0  0  0  0  0  0  0  0  0  0
    2.3442   -3.1481   -4.7133 H   0  0  0  0  0  0  0  0  0  0  0  0
  1  2  1  0  0  0  0
  1 33  1  0  0  0  0
  1 34  1  0  0  0  0
  1 35  1  0  0  0  0
  2  3  1  0  0  0  0
  2  4  1  0  0  0  0
  2 36  1  0  0  0  0
  3 37  1  0  0  0  0
  3 38  1  0  0  0  0
  3 39  1  0  0  0  0
  4  5  2  0  0  0  0
  4 32  1  0  0  0  0
  5  6  1  0  0  0  0
  6  7  1  0  0  0  0
  6 31  2  0  0  0  0
  7  8  1  0  0  0  0
  7 40  1  0  0  0  0
  7 41  1  0  0  0  0
  8  9  1  0  0  0  0
  8 10  1  0  0  0  0
  9 42  1  0  0  0  0
  9 43  1  0  0  0  0
  9 44  1  0  0  0  0
 10 11  2  0  0  0  0
 10 30  1  0  0  0  0
 11 12  1  0  0  0  0
 11 45  1  0  0  0  0
 12 13  1  0  0  0  0
 12 27  2  0  0  0  0
 13 14  1  0  0  0  0
 13 46  1  0  0  0  0
 13 47  1  0  0  0  0
 14 15  2  0  0  0  0
 14 16  1  0  0  0  0
 16 17  1  0  0  0  0
 16 48  1  0  0  0  0
 17 18  2  0  0  0  0
 17 26  1  0  0  0  0
 18 19  1  0  0  0  0
 18 49  1  0  0  0  0
 19 20  2  0  0  0  0
 20 21  1  0  0  0  0
 20 50  1  0  0  0  0
 21 22  2  0  0  0  0
 21 26  1  0  0  0  0
 22 23  1  0  0  0  0
 22 51  1  0  0  0  0
 23 24  2  0  0  0  0
 23 52  1  0  0  0  0
 24 25  1  0  0  0  0
 24 53  1  0  0  0  0
 25 26  2  0  0  0  0
 25 54  1  0  0  0  0
 27 28  1  0  0  0  0
 27 55  1  0  0  0  0
 28 29  1  0  0  0  0
 28 30  2  0  0  0  0
 30 56  1  0  0  0  0
 31 32  1  0  0  0  0
 31 57  1  0  0  0  0
M  END
$$$$
