
 OpenBabel07202414143D

 68 71  0  0  1  0  0  0  0  0999 V2000
   11.1293   10.1513    4.3148 C   0  0  0  0  0  0  0  0  0  0  0  0
   10.9754    8.9423    3.5694 O   0  0  0  0  0  0  0  0  0  0  0  0
   11.7428    7.9114    4.0197 C   0  0  0  0  0  0  0  0  0  0  0  0
   12.4944    7.9525    4.9835 O   0  0  0  0  0  0  0  0  0  0  0  0
   11.5235    6.6896    3.1724 C   0  0  0  0  0  0  0  0  0  0  0  0
   10.4012    5.8542    3.7580 C   0  0  0  0  0  0  0  0  0  0  0  0
    9.9918    4.5117    2.5953 S   0  0  0  0  0  0  0  0  0  0  0  0
    8.8153    3.5812    3.5848 C   0  0  0  0  0  0  0  0  0  0  0  0
    9.3499    2.6595    4.5027 C   0  0  0  0  0  0  0  0  0  0  0  0
    8.5081    1.8940    5.3027 C   0  0  0  0  0  0  0  0  0  0  0  0
    9.1713    0.7271    6.3792 Cl  0  0  0  0  0  0  0  0  0  0  0  0
    7.1270    2.0527    5.2208 C   0  0  0  0  0  0  0  0  0  0  0  0
    6.5807    2.9491    4.2959 C   0  0  0  0  0  0  0  0  0  0  0  0
    7.4104    3.7217    3.4667 C   0  0  0  0  0  0  0  0  0  0  0  0
    6.7881    4.4815    2.4196 N   0  0  0  0  0  0  0  0  0  0  0  0
    6.1823    5.8169    2.7081 C   0  0  3  0  0  0  0  0  0  0  0  0
    4.6234    5.8858    2.5942 C   0  0  0  0  0  0  0  0  0  0  0  0
    3.8937    4.9088    2.7634 O   0  0  0  0  0  0  0  0  0  0  0  0
    4.1316    7.1810    2.3976 N   0  0  0  0  0  0  0  0  0  0  0  0
    2.7186    7.4985    2.4403 C   0  0  0  0  0  0  0  0  0  0  0  0
    2.0891    7.1559    3.7965 C   0  0  0  0  0  0  0  0  0  0  0  0
    0.6139    7.4348    3.8711 C   0  0  0  0  0  0  0  0  0  0  0  0
   -0.3074    6.4595    3.4588 C   0  0  0  0  0  0  0  0  0  0  0  0
   -1.6808    6.6825    3.5757 C   0  0  0  0  0  0  0  0  0  0  0  0
   -2.1468    7.8893    4.0968 C   0  0  0  0  0  0  0  0  0  0  0  0
   -1.2326    8.8597    4.4908 C   0  0  0  0  0  0  0  0  0  0  0  0
   -1.6829   10.0190    4.9939 F   0  0  0  0  0  0  0  0  0  0  0  0
    0.1387    8.6491    4.3788 C   0  0  0  0  0  0  0  0  0  0  0  0
    6.5402    6.4844    4.0356 C   0  0  0  0  0  0  0  0  0  0  0  0
    6.0809    6.0121    5.2732 C   0  0  0  0  0  0  0  0  0  0  0  0
    6.3488    6.7165    6.4409 C   0  0  0  0  0  0  0  0  0  0  0  0
    7.0292    7.9142    6.3340 C   0  0  0  0  0  0  0  0  0  0  0  0
    7.4610    8.4287    5.1635 N   0  0  0  0  0  0  0  0  0  0  0  0
    7.2060    7.7071    4.0488 C   0  0  0  0  0  0  0  0  0  0  0  0
    6.9634    3.9872    1.1018 C   0  0  0  0  0  0  0  0  0  0  0  0
    7.6310    2.9702    0.8699 O   0  0  0  0  0  0  0  0  0  0  0  0
    6.3496    4.6866   -0.0181 C   0  0  0  0  0  0  0  0  0  0  0  0
    6.7492    4.8267   -1.3380 C   0  0  0  0  0  0  0  0  0  0  0  0
    5.7126    5.5096   -2.0183 C   0  0  0  0  0  0  0  0  0  0  0  0
    4.7225    5.7127   -1.0939 C   0  0  0  0  0  0  0  0  0  0  0  0
    5.1012    5.2282    0.1126 O   0  0  0  0  0  0  0  0  0  0  0  0
   10.5409   10.9303    3.8217 H   0  0  0  0  0  0  0  0  0  0  0  0
   12.1774   10.4681    4.3246 H   0  0  0  0  0  0  0  0  0  0  0  0
   10.7529   10.0215    5.3337 H   0  0  0  0  0  0  0  0  0  0  0  0
   12.4645    6.1294    3.1341 H   0  0  0  0  0  0  0  0  0  0  0  0
   11.3067    7.0136    2.1463 H   0  0  0  0  0  0  0  0  0  0  0  0
    9.5111    6.4644    3.9023 H   0  0  0  0  0  0  0  0  0  0  0  0
   10.6869    5.4505    4.7352 H   0  0  0  0  0  0  0  0  0  0  0  0
   10.4280    2.5116    4.5719 H   0  0  0  0  0  0  0  0  0  0  0  0
    6.4675    1.4533    5.8493 H   0  0  0  0  0  0  0  0  0  0  0  0
    5.5015    3.0102    4.1990 H   0  0  0  0  0  0  0  0  0  0  0  0
    6.5668    6.4689    1.9120 H   0  0  0  0  0  0  0  0  0  0  0  0
    4.7691    7.9109    2.1057 H   0  0  0  0  0  0  0  0  0  0  0  0
    2.2195    6.9698    1.6182 H   0  0  0  0  0  0  0  0  0  0  0  0
    2.6247    8.5728    2.2496 H   0  0  0  0  0  0  0  0  0  0  0  0
    2.6122    7.7052    4.5913 H   0  0  0  0  0  0  0  0  0  0  0  0
    2.2414    6.0990    4.0403 H   0  0  0  0  0  0  0  0  0  0  0  0
    0.0441    5.5059    3.0652 H   0  0  0  0  0  0  0  0  0  0  0  0
   -2.3858    5.9131    3.2701 H   0  0  0  0  0  0  0  0  0  0  0  0
   -3.2085    8.0755    4.2029 H   0  0  0  0  0  0  0  0  0  0  0  0
    0.8188    9.4263    4.7123 H   0  0  0  0  0  0  0  0  0  0  0  0
    5.4795    5.1098    5.3413 H   0  0  0  0  0  0  0  0  0  0  0  0
    6.0143    6.3463    7.4037 H   0  0  0  0  0  0  0  0  0  0  0  0
    7.2378    8.5158    7.2155 H   0  0  0  0  0  0  0  0  0  0  0  0
    7.5627    8.1729    3.1315 H   0  0  0  0  0  0  0  0  0  0  0  0
    7.6828    4.4601   -1.7495 H   0  0  0  0  0  0  0  0  0  0  0  0
    5.6739    5.7868   -3.0619 H   0  0  0  0  0  0  0  0  0  0  0  0
    3.7289    6.1452   -1.1273 H   0  0  0  0  0  0  0  0  0  0  0  0
  1  2  1  0  0  0  0
  1 42  1  0  0  0  0
  1 43  1  0  0  0  0
  1 44  1  0  0  0  0
  2  3  1  0  0  0  0
  3  4  2  0  0  0  0
  3  5  1  0  0  0  0
  5  6  1  0  0  0  0
  5 45  1  0  0  0  0
  5 46  1  0  0  0  0
  6  7  1  0  0  0  0
  6 47  1  0  0  0  0
  6 48  1  0  0  0  0
  7  8  1  0  0  0  0
  8  9  1  0  0  0  0
  8 14  2  0  0  0  0
  9 10  2  0  0  0  0
  9 49  1  0  0  0  0
 10 11  1  0  0  0  0
 10 12  1  0  0  0  0
 12 13  2  0  0  0  0
 12 50  1  0  0  0  0
 13 14  1  0  0  0  0
 13 51  1  0  0  0  0
 14 15  1  0  0  0  0
 15 16  1  0  0  0  0
 15 35  1  0  0  0  0
 16 17  1  0  0  0  0
 16 29  1  0  0  0  0
 16 52  1  0  0  0  0
 17 18  2  0  0  0  0
 17 19  1  0  0  0  0
 19 20  1  0  0  0  0
 19 53  1  0  0  0  0
 20 21  1  0  0  0  0
 20 54  1  0  0  0  0
 20 55  1  0  0  0  0
 21 22  1  0  0  0  0
 21 56  1  0  0  0  0
 21 57  1  0  0  0  0
 22 23  1  0  0  0  0
 22 28  2  0  0  0  0
 23 24  2  0  0  0  0
 23 58  1  0  0  0  0
 24 25  1  0  0  0  0
 24 59  1  0  0  0  0
 25 26  2  0  0  0  0
 25 60  1  0  0  0  0
 26 27  1  0  0  0  0
 26 28  1  0  0  0  0
 28 61  1  0  0  0  0
 29 30  1  0  0  0  0
 29 34  2  0  0  0  0
 30 31  2  0  0  0  0
 30 62  1  0  0  0  0
 31 32  1  0  0  0  0
 31 63  1  0  0  0  0
 32 33  2  0  0  0  0
 32 64  1  0  0  0  0
 33 34  1  0  0  0  0
 34 65  1  0  0  0  0
 35 36  2  0  0  0  0
 35 37  1  0  0  0  0
 37 38  2  0  0  0  0
 37 41  1  0  0  0  0
 38 39  1  0  0  0  0
 38 66  1  0  0  0  0
 39 40  2  0  0  0  0
 39 67  1  0  0  0  0
 40 41  1  0  0  0  0
 40 68  1  0  0  0  0
M  END
$$$$
