
 OpenBabel07202414153D

 62 67  0  0  1  0  0  0  0  0999 V2000
   10.4431    7.0311   -0.4316 C   0  0  0  0  0  0  0  0  0  0  0  0
    9.4047    6.4687   -1.2247 O   0  0  0  0  0  0  0  0  0  0  0  0
    8.3170    6.0335   -0.5176 C   0  0  0  0  0  0  0  0  0  0  0  0
    7.8704    6.5866    0.6770 C   0  0  0  0  0  0  0  0  0  0  0  0
    6.7083    6.1023    1.2782 C   0  0  0  0  0  0  0  0  0  0  0  0
    5.9922    5.0397    0.7019 C   0  0  0  0  0  0  0  0  0  0  0  0
    4.8025    4.5667    1.2606 C   0  0  0  0  0  0  0  0  0  0  0  0
    4.0611    3.5559    0.7549 N   0  0  0  0  0  0  0  0  0  0  0  0
    4.5446    2.9654   -0.3599 C   0  0  0  0  0  0  0  0  0  0  0  0
    5.7160    3.3462   -1.0136 C   0  0  0  0  0  0  0  0  0  0  0  0
    6.1594    2.6392   -2.1565 N   0  0  0  0  0  0  0  0  0  0  0  0
    5.3200    2.3818   -3.2793 C   0  0  0  0  0  0  0  0  0  0  0  0
    6.1767    1.5808   -4.2479 C   0  0  0  0  0  0  0  0  0  0  0  0
    7.5143    1.2188   -3.5163 C   0  0  2  0  0  0  0  0  0  0  0  0
    8.7096    1.8715   -4.2660 C   0  0  0  0  0  0  0  0  0  0  0  0
   10.0585    1.2401   -4.0190 N   0  0  0  0  0  0  0  0  0  0  0  0
   10.8349    1.5345   -2.5157 S   0  0  0  0  0  0  0  0  0  0  0  0
   10.5673    2.9046   -2.1504 O   0  0  0  0  0  0  0  0  0  0  0  0
   10.5424    0.4056   -1.6597 O   0  0  0  0  0  0  0  0  0  0  0  0
   12.5937    1.4607   -2.9308 C   0  0  0  0  0  0  0  0  0  0  0  0
   13.3792    1.6758   -1.6428 C   0  0  0  0  0  0  0  0  0  0  0  0
   13.1983    0.6878   -0.6066 C   0  0  0  0  0  0  0  0  0  0  0  0
   13.1437   -0.1152    0.2367 N   0  0  0  0  0  0  0  0  0  0  0  0
   14.8332    2.1432   -1.7843 C   0  0  0  0  0  0  0  0  0  0  0  0
   13.8121    3.0766   -1.2108 C   0  0  0  0  0  0  0  0  0  0  0  0
   10.0174   -0.1833   -4.4227 C   0  0  0  0  0  0  0  0  0  0  0  0
    8.8502   -0.9486   -3.8342 C   0  0  0  0  0  0  0  0  0  0  0  0
    8.9673   -2.3447   -3.7238 C   0  0  0  0  0  0  0  0  0  0  0  0
    7.9367   -3.1029   -3.1729 C   0  0  0  0  0  0  0  0  0  0  0  0
    6.7805   -2.4727   -2.7281 C   0  0  0  0  0  0  0  0  0  0  0  0
    5.4990   -3.4098   -2.0680 Cl  0  0  0  0  0  0  0  0  0  0  0  0
    6.6491   -1.0854   -2.8294 C   0  0  0  0  0  0  0  0  0  0  0  0
    7.6704   -0.3010   -3.3953 C   0  0  0  0  0  0  0  0  0  0  0  0
    7.3475    1.9161   -2.1644 C   0  0  0  0  0  0  0  0  0  0  0  0
    8.1124    1.8301   -1.2178 O   0  0  0  0  0  0  0  0  0  0  0  0
    6.4545    4.4324   -0.4849 C   0  0  0  0  0  0  0  0  0  0  0  0
    7.6036    4.9841   -1.0982 C   0  0  0  0  0  0  0  0  0  0  0  0
   11.3056    7.2075   -1.0806 H   0  0  0  0  0  0  0  0  0  0  0  0
   10.7512    6.3421    0.3626 H   0  0  0  0  0  0  0  0  0  0  0  0
   10.1416    7.9986   -0.0188 H   0  0  0  0  0  0  0  0  0  0  0  0
    8.3883    7.4138    1.1491 H   0  0  0  0  0  0  0  0  0  0  0  0
    6.3627    6.5686    2.1981 H   0  0  0  0  0  0  0  0  0  0  0  0
    4.3879    5.0186    2.1590 H   0  0  0  0  0  0  0  0  0  0  0  0
    3.9623    2.1130   -0.6956 H   0  0  0  0  0  0  0  0  0  0  0  0
    5.0174    3.3403   -3.7175 H   0  0  0  0  0  0  0  0  0  0  0  0
    4.4234    1.8300   -2.9799 H   0  0  0  0  0  0  0  0  0  0  0  0
    6.3482    2.1782   -5.1511 H   0  0  0  0  0  0  0  0  0  0  0  0
    5.6133    0.7025   -4.5874 H   0  0  0  0  0  0  0  0  0  0  0  0
    8.7582    2.9566   -4.1187 H   0  0  0  0  0  0  0  0  0  0  0  0
    8.5364    1.7451   -5.3475 H   0  0  0  0  0  0  0  0  0  0  0  0
   12.7943    2.2438   -3.6694 H   0  0  0  0  0  0  0  0  0  0  0  0
   12.8168    0.4786   -3.3531 H   0  0  0  0  0  0  0  0  0  0  0  0
   15.2334    2.3782   -2.7608 H   0  0  0  0  0  0  0  0  0  0  0  0
   15.5834    1.7389   -1.1005 H   0  0  0  0  0  0  0  0  0  0  0  0
   13.5412    3.9398   -1.8079 H   0  0  0  0  0  0  0  0  0  0  0  0
   13.8670    3.2935   -0.1467 H   0  0  0  0  0  0  0  0  0  0  0  0
   10.9650   -0.6661   -4.1571 H   0  0  0  0  0  0  0  0  0  0  0  0
    9.9488   -0.2306   -5.5175 H   0  0  0  0  0  0  0  0  0  0  0  0
    9.8789   -2.8487   -4.0397 H   0  0  0  0  0  0  0  0  0  0  0  0
    8.0506   -4.1797   -3.0775 H   0  0  0  0  0  0  0  0  0  0  0  0
    5.7366   -0.6233   -2.4522 H   0  0  0  0  0  0  0  0  0  0  0  0
    7.9683    4.5878   -2.0423 H   0  0  0  0  0  0  0  0  0  0  0  0
  1  2  1  0  0  0  0
  1 38  1  0  0  0  0
  1 39  1  0  0  0  0
  1 40  1  0  0  0  0
  2  3  1  0  0  0  0
  3  4  1  0  0  0  0
  3 37  2  0  0  0  0
  4  5  2  0  0  0  0
  4 41  1  0  0  0  0
  5  6  1  0  0  0  0
  5 42  1  0  0  0  0
  6  7  1  0  0  0  0
  6 36  2  0  0  0  0
  7  8  2  0  0  0  0
  7 43  1  0  0  0  0
  8  9  1  0  0  0  0
  9 10  2  0  0  0  0
  9 44  1  0  0  0  0
 10 11  1  0  0  0  0
 10 36  1  0  0  0  0
 11 12  1  0  0  0  0
 11 34  1  0  0  0  0
 12 13  1  0  0  0  0
 12 45  1  0  0  0  0
 12 46  1  0  0  0  0
 13 14  1  0  0  0  0
 13 47  1  0  0  0  0
 13 48  1  0  0  0  0
 14 15  1  0  0  0  0
 14 33  1  1  0  0  0
 14 34  1  0  0  0  0
 15 16  1  0  0  0  0
 15 49  1  0  0  0  0
 15 50  1  0  0  0  0
 16 17  1  0  0  0  0
 16 26  1  0  0  0  0
 17 18  2  0  0  0  0
 17 19  2  0  0  0  0
 17 20  1  0  0  0  0
 20 21  1  0  0  0  0
 20 51  1  0  0  0  0
 20 52  1  0  0  0  0
 21 22  1  0  0  0  0
 21 24  1  0  0  0  0
 21 25  1  0  0  0  0
 22 23  3  0  0  0  0
 24 25  1  0  0  0  0
 24 53  1  0  0  0  0
 24 54  1  0  0  0  0
 25 55  1  0  0  0  0
 25 56  1  0  0  0  0
 26 27  1  0  0  0  0
 26 57  1  0  0  0  0
 26 58  1  0  0  0  0
 27 28  1  0  0  0  0
 27 33  2  0  0  0  0
 28 29  2  0  0  0  0
 28 59  1  0  0  0  0
 29 30  1  0  0  0  0
 29 60  1  0  0  0  0
 30 31  1  0  0  0  0
 30 32  2  0  0  0  0
 32 33  1  0  0  0  0
 32 61  1  0  0  0  0
 34 35  2  0  0  0  0
 36 37  1  0  0  0  0
 37 62  1  0  0  0  0
M  END
$$$$
