
 OpenBabel07202414183D

 46 49  0  0  0  0  0  0  0  0999 V2000
   -2.0026   -1.7274    0.6396 F   0  0  0  0  0  0  0  0  0  0  0  0
   -3.2893   -2.1033    0.7145 C   0  0  0  0  0  0  0  0  0  0  0  0
   -3.5793   -3.3803    1.1947 C   0  0  0  0  0  0  0  0  0  0  0  0
   -4.9058   -3.7918    1.2778 C   0  0  0  0  0  0  0  0  0  0  0  0
   -5.3202   -5.5234    1.9065 Br  0  0  0  0  0  0  0  0  0  0  0  0
   -5.9324   -2.9392    0.8863 C   0  0  0  0  0  0  0  0  0  0  0  0
   -5.6215   -1.6658    0.4161 C   0  0  0  0  0  0  0  0  0  0  0  0
   -6.6390   -0.8948    0.0027 F   0  0  0  0  0  0  0  0  0  0  0  0
   -4.2971   -1.2108    0.3228 C   0  0  0  0  0  0  0  0  0  0  0  0
   -3.9508    0.0822   -0.1347 N   0  0  0  0  0  0  0  0  0  0  0  0
   -4.6944    1.2752   -0.0375 C   0  0  0  0  0  0  0  0  0  0  0  0
   -4.6394    2.2265   -1.0596 C   0  0  0  0  0  0  0  0  0  0  0  0
   -5.4189    3.3796   -0.9816 C   0  0  0  0  0  0  0  0  0  0  0  0
   -5.3625    4.5355   -2.2577 Cl  0  0  0  0  0  0  0  0  0  0  0  0
   -6.2610    3.6069    0.1080 C   0  0  0  0  0  0  0  0  0  0  0  0
   -6.3165    2.6762    1.1512 C   0  0  0  0  0  0  0  0  0  0  0  0
   -7.2598    2.8570    2.3140 C   0  0  0  0  0  0  0  0  0  0  0  0
   -6.6053    2.7561    3.6786 C   0  0  0  0  0  0  0  0  0  0  0  0
   -7.1247    2.0929    4.5793 O   0  0  0  0  0  0  0  0  0  0  0  0
   -5.4767    3.5348    3.8335 N   0  0  0  0  0  0  0  0  0  0  0  0
   -4.7259    3.6035    5.0314 C   0  0  0  0  0  0  0  0  0  0  0  0
   -4.5201    2.4739    5.8257 C   0  0  0  0  0  0  0  0  0  0  0  0
   -3.7788    2.4564    6.9563 N   0  0  0  0  0  0  0  0  0  0  0  0
   -3.2434    3.6362    7.3352 C   0  0  0  0  0  0  0  0  0  0  0  0
   -3.3981    4.8389    6.6428 C   0  0  0  0  0  0  0  0  0  0  0  0
   -2.8512    6.0444    7.1253 C   0  0  0  0  0  0  0  0  0  0  0  0
   -3.0591    7.2427    6.4469 C   0  0  0  0  0  0  0  0  0  0  0  0
   -3.8048    7.2538    5.2764 C   0  0  0  0  0  0  0  0  0  0  0  0
   -4.3400    6.0638    4.7779 C   0  0  0  0  0  0  0  0  0  0  0  0
   -4.1508    4.8295    5.4455 C   0  0  0  0  0  0  0  0  0  0  0  0
   -5.5212    1.5224    1.0656 C   0  0  0  0  0  0  0  0  0  0  0  0
   -2.7654   -4.0326    1.4970 H   0  0  0  0  0  0  0  0  0  0  0  0
   -6.9740   -3.2430    0.9296 H   0  0  0  0  0  0  0  0  0  0  0  0
   -3.2717    0.0530   -0.8899 H   0  0  0  0  0  0  0  0  0  0  0  0
   -4.0117    2.0620   -1.9291 H   0  0  0  0  0  0  0  0  0  0  0  0
   -6.8829    4.4984    0.1329 H   0  0  0  0  0  0  0  0  0  0  0  0
   -8.0292    2.0776    2.2466 H   0  0  0  0  0  0  0  0  0  0  0  0
   -7.7737    3.8242    2.2587 H   0  0  0  0  0  0  0  0  0  0  0  0
   -5.2987    4.2389    3.1280 H   0  0  0  0  0  0  0  0  0  0  0  0
   -4.9235    1.5031    5.5466 H   0  0  0  0  0  0  0  0  0  0  0  0
   -2.6727    3.5873    8.2605 H   0  0  0  0  0  0  0  0  0  0  0  0
   -2.2783    6.0548    8.0497 H   0  0  0  0  0  0  0  0  0  0  0  0
   -2.6521    8.1693    6.8414 H   0  0  0  0  0  0  0  0  0  0  0  0
   -3.9902    8.1907    4.7552 H   0  0  0  0  0  0  0  0  0  0  0  0
   -4.9439    6.1303    3.8788 H   0  0  0  0  0  0  0  0  0  0  0  0
   -5.5575    0.7954    1.8766 H   0  0  0  0  0  0  0  0  0  0  0  0
  1  2  1  0  0  0  0
  2  3  2  0  0  0  0
  2  9  1  0  0  0  0
  3  4  1  0  0  0  0
  3 32  1  0  0  0  0
  4  5  1  0  0  0  0
  4  6  2  0  0  0  0
  6  7  1  0  0  0  0
  6 33  1  0  0  0  0
  7  8  1  0  0  0  0
  7  9  2  0  0  0  0
  9 10  1  0  0  0  0
 10 11  1  0  0  0  0
 10 34  1  0  0  0  0
 11 12  2  0  0  0  0
 11 31  1  0  0  0  0
 12 13  1  0  0  0  0
 12 35  1  0  0  0  0
 13 14  1  0  0  0  0
 13 15  2  0  0  0  0
 15 16  1  0  0  0  0
 15 36  1  0  0  0  0
 16 17  1  0  0  0  0
 16 31  2  0  0  0  0
 17 18  1  0  0  0  0
 17 37  1  0  0  0  0
 17 38  1  0  0  0  0
 18 19  2  0  0  0  0
 18 20  1  0  0  0  0
 20 21  1  0  0  0  0
 20 39  1  0  0  0  0
 21 22  2  0  0  0  0
 21 30  1  0  0  0  0
 22 23  1  0  0  0  0
 22 40  1  0  0  0  0
 23 24  2  0  0  0  0
 24 25  1  0  0  0  0
 24 41  1  0  0  0  0
 25 26  2  0  0  0  0
 25 30  1  0  0  0  0
 26 27  1  0  0  0  0
 26 42  1  0  0  0  0
 27 28  2  0  0  0  0
 27 43  1  0  0  0  0
 28 29  1  0  0  0  0
 28 44  1  0  0  0  0
 29 30  2  0  0  0  0
 29 45  1  0  0  0  0
 31 46  1  0  0  0  0
M  END
$$$$
