
 OpenBabel07202414203D

 56 60  0  0  0  0  0  0  0  0999 V2000
    9.9700   -5.5987   -5.3361 O   0  5  0  0  0  0  0  0  0  0  0  0
    9.2699   -4.8291   -4.6633 N   0  3  0  0  0  0  0  0  0  0  0  0
    8.9160   -3.6989   -5.0283 O   0  0  0  0  0  0  0  0  0  0  0  0
    8.8038   -5.2986   -3.3520 C   0  0  0  0  0  0  0  0  0  0  0  0
    9.1751   -6.5681   -2.8946 C   0  0  0  0  0  0  0  0  0  0  0  0
    8.6349   -7.0538   -1.6994 C   0  0  0  0  0  0  0  0  0  0  0  0
    7.6981   -6.2893   -0.9806 C   0  0  0  0  0  0  0  0  0  0  0  0
    7.0388   -6.8802    0.1405 N   0  0  0  0  0  0  0  0  0  0  0  0
    7.6432   -7.9123    0.7934 N   0  0  0  0  0  0  0  0  0  0  0  0
    6.8286   -8.1985    1.8061 C   0  0  0  0  0  0  0  0  0  0  0  0
    5.6525   -7.4314    1.7931 C   0  0  0  0  0  0  0  0  0  0  0  0
    4.5388   -7.5910    2.6715 C   0  0  0  0  0  0  0  0  0  0  0  0
    3.6460   -7.7521    3.4024 N   0  0  0  0  0  0  0  0  0  0  0  0
    5.7832   -6.5797    0.7007 C   0  0  0  0  0  0  0  0  0  0  0  0
    4.8813   -5.7241    0.1276 N   0  0  0  0  0  0  0  0  0  0  0  0
    4.0172   -4.8354    0.8104 C   0  0  0  0  0  0  0  0  0  0  0  0
    2.8139   -4.4302    0.1960 C   0  0  0  0  0  0  0  0  0  0  0  0
    1.9153   -3.5546    0.8333 C   0  0  0  0  0  0  0  0  0  0  0  0
    0.5807   -3.1097    0.2641 C   0  0  0  0  0  0  0  0  0  0  0  0
    0.3956   -3.0173   -1.2406 C   0  0  0  0  0  0  0  0  0  0  0  0
    1.1420   -3.5319   -2.0671 O   0  0  0  0  0  0  0  0  0  0  0  0
   -0.7543   -2.2911   -1.5772 N   0  0  0  0  0  0  0  0  0  0  0  0
   -1.0809   -2.1536   -2.9524 C   0  0  0  0  0  0  0  0  0  0  0  0
   -1.3741   -3.2856   -3.7071 C   0  0  0  0  0  0  0  0  0  0  0  0
   -1.6453   -3.2695   -5.0330 N   0  0  0  0  0  0  0  0  0  0  0  0
   -1.4379   -2.0897   -5.6544 C   0  0  0  0  0  0  0  0  0  0  0  0
   -0.9879   -0.9362   -5.0091 C   0  0  0  0  0  0  0  0  0  0  0  0
   -0.4454    0.1462   -5.7217 C   0  0  0  0  0  0  0  0  0  0  0  0
   -0.0418    1.3003   -5.0535 C   0  0  0  0  0  0  0  0  0  0  0  0
   -0.3032    1.4335   -3.6951 C   0  0  0  0  0  0  0  0  0  0  0  0
   -0.7763    0.3388   -2.9703 C   0  0  0  0  0  0  0  0  0  0  0  0
   -0.9929   -0.9071   -3.6020 C   0  0  0  0  0  0  0  0  0  0  0  0
    2.2206   -3.1415    2.1412 C   0  0  0  0  0  0  0  0  0  0  0  0
    3.3917   -3.5581    2.7673 C   0  0  0  0  0  0  0  0  0  0  0  0
    3.7375   -3.0340    4.3692 Cl  0  0  0  0  0  0  0  0  0  0  0  0
    4.2871   -4.3913    2.1080 C   0  0  0  0  0  0  0  0  0  0  0  0
    7.4125   -4.9817   -1.3952 C   0  0  0  0  0  0  0  0  0  0  0  0
    7.9584   -4.4866   -2.5844 C   0  0  0  0  0  0  0  0  0  0  0  0
    9.8539   -7.2002   -3.4645 H   0  0  0  0  0  0  0  0  0  0  0  0
    8.9094   -8.0567   -1.3718 H   0  0  0  0  0  0  0  0  0  0  0  0
    7.1053   -8.9888    2.4935 H   0  0  0  0  0  0  0  0  0  0  0  0
    4.9082   -5.5314   -0.8752 H   0  0  0  0  0  0  0  0  0  0  0  0
    2.5795   -4.8292   -0.7898 H   0  0  0  0  0  0  0  0  0  0  0  0
    0.3665   -2.1100    0.6675 H   0  0  0  0  0  0  0  0  0  0  0  0
   -0.1921   -3.7926    0.6368 H   0  0  0  0  0  0  0  0  0  0  0  0
   -0.9207   -1.4811   -0.9966 H   0  0  0  0  0  0  0  0  0  0  0  0
   -1.3590   -4.2839   -3.2717 H   0  0  0  0  0  0  0  0  0  0  0  0
   -1.6386   -2.0959   -6.7223 H   0  0  0  0  0  0  0  0  0  0  0  0
   -0.2468    0.0524   -6.7882 H   0  0  0  0  0  0  0  0  0  0  0  0
    0.4697    2.0925   -5.5936 H   0  0  0  0  0  0  0  0  0  0  0  0
   -0.0847    2.3701   -3.1885 H   0  0  0  0  0  0  0  0  0  0  0  0
   -0.9372    0.4613   -1.9042 H   0  0  0  0  0  0  0  0  0  0  0  0
    1.5330   -2.4979    2.6861 H   0  0  0  0  0  0  0  0  0  0  0  0
    5.2053   -4.6766    2.6113 H   0  0  0  0  0  0  0  0  0  0  0  0
    6.7921   -4.3157   -0.8001 H   0  0  0  0  0  0  0  0  0  0  0  0
    7.7036   -3.4774   -2.9037 H   0  0  0  0  0  0  0  0  0  0  0  0
  1  2  1  0  0  0  0
  2  3  2  0  0  0  0
  2  4  1  0  0  0  0
  4  5  2  0  0  0  0
  4 38  1  0  0  0  0
  5  6  1  0  0  0  0
  5 39  1  0  0  0  0
  6  7  2  0  0  0  0
  6 40  1  0  0  0  0
  7  8  1  0  0  0  0
  7 37  1  0  0  0  0
  8  9  1  0  0  0  0
  8 14  1  0  0  0  0
  9 10  2  0  0  0  0
 10 11  1  0  0  0  0
 10 41  1  0  0  0  0
 11 12  1  0  0  0  0
 11 14  2  0  0  0  0
 12 13  3  0  0  0  0
 14 15  1  0  0  0  0
 15 16  1  0  0  0  0
 15 42  1  0  0  0  0
 16 17  2  0  0  0  0
 16 36  1  0  0  0  0
 17 18  1  0  0  0  0
 17 43  1  0  0  0  0
 18 19  1  0  0  0  0
 18 33  2  0  0  0  0
 19 20  1  0  0  0  0
 19 44  1  0  0  0  0
 19 45  1  0  0  0  0
 20 21  2  0  0  0  0
 20 22  1  0  0  0  0
 22 23  1  0  0  0  0
 22 46  1  0  0  0  0
 23 24  2  0  0  0  0
 23 32  1  0  0  0  0
 24 25  1  0  0  0  0
 24 47  1  0  0  0  0
 25 26  2  0  0  0  0
 26 27  1  0  0  0  0
 26 48  1  0  0  0  0
 27 28  2  0  0  0  0
 27 32  1  0  0  0  0
 28 29  1  0  0  0  0
 28 49  1  0  0  0  0
 29 30  2  0  0  0  0
 29 50  1  0  0  0  0
 30 31  1  0  0  0  0
 30 51  1  0  0  0  0
 31 32  2  0  0  0  0
 31 52  1  0  0  0  0
 33 34  1  0  0  0  0
 33 53  1  0  0  0  0
 34 35  1  0  0  0  0
 34 36  2  0  0  0  0
 36 54  1  0  0  0  0
 37 38  2  0  0  0  0
 37 55  1  0  0  0  0
 38 56  1  0  0  0  0
M  CHG  2   1  -1   2   1
M  END
$$$$
