
 OpenBabel07202414173D

 67 72  0  0  1  0  0  0  0  0999 V2000
    0.7424    0.3640    0.0637 Cl  0  0  0  0  0  0  0  0  0  0  0  0
    2.4590    0.2536    0.0166 C   0  0  0  0  0  0  0  0  0  0  0  0
    3.2258    1.4089    0.0192 C   0  0  0  0  0  0  0  0  0  0  0  0
    4.6135    1.3055   -0.0236 C   0  0  0  0  0  0  0  0  0  0  0  0
    5.2393    0.0448   -0.0356 C   0  0  0  0  0  0  0  0  0  0  0  0
    4.4670   -1.1436   -0.0214 C   0  0  0  0  0  0  0  0  0  0  0  0
    3.0655   -1.0038   -0.0164 C   0  0  0  0  0  0  0  0  0  0  0  0
    5.1447   -2.5357    0.0226 C   0  0  3  0  0  0  0  0  0  0  0  0
    6.6758   -2.4245   -0.1123 C   0  0  0  0  0  0  0  0  0  0  0  0
    7.2860   -1.2250    0.5421 N   0  0  0  0  0  0  0  0  0  0  0  0
    7.4629   -1.1260    2.2161 S   0  0  0  0  0  0  0  0  0  0  0  0
    8.2023    0.0801    2.5063 O   0  0  0  0  0  0  0  0  0  0  0  0
    6.1649   -1.2794    2.8279 O   0  0  0  0  0  0  0  0  0  0  0  0
    8.5159   -2.5370    2.6407 C   0  0  0  0  0  0  0  0  0  0  0  0
    9.9697   -2.4635    2.1435 C   0  0  0  0  0  0  0  0  0  0  0  0
   10.0070   -2.4426    0.6241 C   0  0  0  0  0  0  0  0  0  0  0  0
   10.0380   -2.4253   -0.6363 N   0  0  0  0  0  0  0  0  0  0  0  0
   10.7900   -3.7453    2.5168 C   0  0  0  0  0  0  0  0  0  0  0  0
   11.2168   -3.8942    3.9719 C   0  0  0  0  0  0  0  0  0  0  0  0
   12.1558   -2.5095    4.5583 S   0  0  0  0  0  0  0  0  0  0  0  0
   12.1822   -2.5668    6.0077 O   0  0  0  0  0  0  0  0  0  0  0  0
   13.3822   -2.4345    3.7856 O   0  0  0  0  0  0  0  0  0  0  0  0
   11.1087   -1.1471    4.0778 C   0  0  0  0  0  0  0  0  0  0  0  0
   10.8035   -1.2199    2.5919 C   0  0  0  0  0  0  0  0  0  0  0  0
    6.7480    0.0043   -0.0786 C   0  0  0  0  0  0  0  0  0  0  0  0
    4.5909   -3.4821   -1.0804 C   0  0  0  0  0  0  0  0  0  0  0  0
    3.6301   -4.4405   -0.3707 C   0  0  0  0  0  0  0  0  0  0  0  0
    3.4765   -3.9197    0.9604 N   0  0  0  0  0  0  0  0  0  0  0  0
    2.5796   -4.5142    1.9077 C   0  0  0  0  0  0  0  0  0  0  0  0
    2.9669   -4.6783    3.2420 C   0  0  0  0  0  0  0  0  0  0  0  0
    2.2751   -5.3708    4.1761 N   0  0  0  0  0  0  0  0  0  0  0  0
    1.0729   -5.8399    3.8022 C   0  0  0  0  0  0  0  0  0  0  0  0
    0.4758   -5.5727    2.5800 C   0  0  0  0  0  0  0  0  0  0  0  0
   -0.8714   -5.9282    2.3685 C   0  0  0  0  0  0  0  0  0  0  0  0
   -1.5161   -5.6101    1.1787 C   0  0  0  0  0  0  0  0  0  0  0  0
   -0.8161   -4.9462    0.1871 C   0  0  0  0  0  0  0  0  0  0  0  0
    0.5201   -4.5798    0.3979 C   0  0  0  0  0  0  0  0  0  0  0  0
    1.2280   -4.8905    1.5840 C   0  0  0  0  0  0  0  0  0  0  0  0
    4.7439   -3.3715    1.2516 C   0  0  0  0  0  0  0  0  0  0  0  0
    5.4803   -3.6837    2.1784 O   0  0  0  0  0  0  0  0  0  0  0  0
    2.7564    2.3870    0.0632 H   0  0  0  0  0  0  0  0  0  0  0  0
    5.2095    2.2168   -0.0221 H   0  0  0  0  0  0  0  0  0  0  0  0
    2.4148   -1.8714   -0.0173 H   0  0  0  0  0  0  0  0  0  0  0  0
    6.9195   -2.3253   -1.1837 H   0  0  0  0  0  0  0  0  0  0  0  0
    7.1903   -3.3378    0.1981 H   0  0  0  0  0  0  0  0  0  0  0  0
    8.0206   -3.4331    2.2540 H   0  0  0  0  0  0  0  0  0  0  0  0
    8.4832   -2.6071    3.7325 H   0  0  0  0  0  0  0  0  0  0  0  0
   11.7096   -3.7571    1.9092 H   0  0  0  0  0  0  0  0  0  0  0  0
   10.2357   -4.6433    2.2133 H   0  0  0  0  0  0  0  0  0  0  0  0
   11.8713   -4.7684    4.0743 H   0  0  0  0  0  0  0  0  0  0  0  0
   10.3575   -4.0267    4.6310 H   0  0  0  0  0  0  0  0  0  0  0  0
   11.6573   -0.2321    4.3141 H   0  0  0  0  0  0  0  0  0  0  0  0
   10.2072   -1.1806    4.6939 H   0  0  0  0  0  0  0  0  0  0  0  0
   11.7603   -1.2270    2.0487 H   0  0  0  0  0  0  0  0  0  0  0  0
   10.3505   -0.2848    2.2709 H   0  0  0  0  0  0  0  0  0  0  0  0
    7.0746    0.0471   -1.1263 H   0  0  0  0  0  0  0  0  0  0  0  0
    7.1761    0.8942    0.3974 H   0  0  0  0  0  0  0  0  0  0  0  0
    5.3808   -4.0726   -1.5577 H   0  0  0  0  0  0  0  0  0  0  0  0
    4.0754   -2.9377   -1.8785 H   0  0  0  0  0  0  0  0  0  0  0  0
    4.1128   -5.4238   -0.2706 H   0  0  0  0  0  0  0  0  0  0  0  0
    2.7197   -4.5803   -0.9428 H   0  0  0  0  0  0  0  0  0  0  0  0
    3.8853   -4.2582    3.6380 H   0  0  0  0  0  0  0  0  0  0  0  0
    0.5709   -6.4375    4.5603 H   0  0  0  0  0  0  0  0  0  0  0  0
   -1.4438   -6.4104    3.1592 H   0  0  0  0  0  0  0  0  0  0  0  0
   -2.5678   -5.8466    1.0449 H   0  0  0  0  0  0  0  0  0  0  0  0
   -1.3139   -4.6748   -0.7427 H   0  0  0  0  0  0  0  0  0  0  0  0
    0.9681   -3.9701   -0.3787 H   0  0  0  0  0  0  0  0  0  0  0  0
  1  2  1  0  0  0  0
  2  3  1  0  0  0  0
  2  7  2  0  0  0  0
  3  4  2  0  0  0  0
  3 41  1  0  0  0  0
  4  5  1  0  0  0  0
  4 42  1  0  0  0  0
  5  6  2  0  0  0  0
  5 25  1  0  0  0  0
  6  7  1  0  0  0  0
  6  8  1  0  0  0  0
  7 43  1  0  0  0  0
  8  9  1  0  0  0  0
  8 26  1  0  0  0  0
  8 39  1  0  0  0  0
  9 10  1  0  0  0  0
  9 44  1  0  0  0  0
  9 45  1  0  0  0  0
 10 11  1  0  0  0  0
 10 25  1  0  0  0  0
 11 12  2  0  0  0  0
 11 13  2  0  0  0  0
 11 14  1  0  0  0  0
 14 15  1  0  0  0  0
 14 46  1  0  0  0  0
 14 47  1  0  0  0  0
 15 16  1  0  0  0  0
 15 18  1  0  0  0  0
 15 24  1  0  0  0  0
 16 17  3  0  0  0  0
 18 19  1  0  0  0  0
 18 48  1  0  0  0  0
 18 49  1  0  0  0  0
 19 20  1  0  0  0  0
 19 50  1  0  0  0  0
 19 51  1  0  0  0  0
 20 21  2  0  0  0  0
 20 22  2  0  0  0  0
 20 23  1  0  0  0  0
 23 24  1  0  0  0  0
 23 52  1  0  0  0  0
 23 53  1  0  0  0  0
 24 54  1  0  0  0  0
 24 55  1  0  0  0  0
 25 56  1  0  0  0  0
 25 57  1  0  0  0  0
 26 27  1  0  0  0  0
 26 58  1  0  0  0  0
 26 59  1  0  0  0  0
 27 28  1  0  0  0  0
 27 60  1  0  0  0  0
 27 61  1  0  0  0  0
 28 29  1  0  0  0  0
 28 39  1  0  0  0  0
 29 30  1  0  0  0  0
 29 38  2  0  0  0  0
 30 31  2  0  0  0  0
 30 62  1  0  0  0  0
 31 32  1  0  0  0  0
 32 33  2  0  0  0  0
 32 63  1  0  0  0  0
 33 34  1  0  0  0  0
 33 38  1  0  0  0  0
 34 35  2  0  0  0  0
 34 64  1  0  0  0  0
 35 36  1  0  0  0  0
 35 65  1  0  0  0  0
 36 37  2  0  0  0  0
 36 66  1  0  0  0  0
 37 38  1  0  0  0  0
 37 67  1  0  0  0  0
 39 40  2  0  0  0  0
M  END
$$$$
