
 OpenBabel07202414193D

 59 63  0  0  0  0  0  0  0  0999 V2000
    1.2675   -0.6262   -0.6803 O   0  0  0  0  0  0  0  0  0  0  0  0
    2.4293   -0.3286   -0.3792 C   0  0  0  0  0  0  0  0  0  0  0  0
    3.1924    0.6774   -1.2363 C   0  0  0  0  0  0  0  0  0  0  0  0
    3.5321    1.9565   -0.5421 C   0  0  0  0  0  0  0  0  0  0  0  0
    4.5755    2.6798   -0.9819 N   0  0  0  0  0  0  0  0  0  0  0  0
    4.6088    3.7423   -0.1621 N   0  0  0  0  0  0  0  0  0  0  0  0
    3.6421    3.7356    0.8067 C   0  0  0  0  0  0  0  0  0  0  0  0
    3.3667    4.6265    1.8491 C   0  0  0  0  0  0  0  0  0  0  0  0
    2.2881    4.3179    2.6838 C   0  0  0  0  0  0  0  0  0  0  0  0
    1.5092    3.1854    2.4613 C   0  0  0  0  0  0  0  0  0  0  0  0
    1.7903    2.3250    1.3937 C   0  0  0  0  0  0  0  0  0  0  0  0
    2.8950    2.5922    0.5641 C   0  0  0  0  0  0  0  0  0  0  0  0
    3.0614   -0.8730    0.7419 N   0  0  0  0  0  0  0  0  0  0  0  0
    2.3327   -1.8487    1.5674 C   0  0  0  0  0  0  0  0  0  0  0  0
    1.4656   -1.2148    2.6357 C   0  0  0  0  0  0  0  0  0  0  0  0
    0.1138   -0.9284    2.3848 C   0  0  0  0  0  0  0  0  0  0  0  0
   -0.6817   -0.3233    3.3603 C   0  0  0  0  0  0  0  0  0  0  0  0
   -0.1398    0.0007    4.6014 C   0  0  0  0  0  0  0  0  0  0  0  0
    1.1957   -0.2944    4.8722 C   0  0  0  0  0  0  0  0  0  0  0  0
    1.9924   -0.8991    3.8967 C   0  0  0  0  0  0  0  0  0  0  0  0
    4.4709   -0.9020    0.8545 C   0  0  0  0  0  0  0  0  0  0  0  0
    5.0980   -0.1647    1.8566 C   0  0  0  0  0  0  0  0  0  0  0  0
    6.4915   -0.1816    1.9631 C   0  0  0  0  0  0  0  0  0  0  0  0
    7.2662   -0.9833    1.1119 C   0  0  0  0  0  0  0  0  0  0  0  0
    8.6916   -1.0222    1.2354 N   0  0  0  0  0  0  0  0  0  0  0  0
    9.3640    0.2390    1.5532 C   0  0  0  0  0  0  0  0  0  0  0  0
   10.8587    0.2105    1.2832 C   0  0  0  0  0  0  0  0  0  0  0  0
   11.4486   -0.9704    2.0249 C   0  0  0  0  0  0  0  0  0  0  0  0
   10.8490   -2.2523    1.4813 C   0  0  0  0  0  0  0  0  0  0  0  0
    9.3345   -2.2591    1.3393 C   0  0  0  0  0  0  0  0  0  0  0  0
    8.7581   -3.3481    1.2766 O   0  0  0  0  0  0  0  0  0  0  0  0
    6.6203   -1.7433    0.1285 C   0  0  0  0  0  0  0  0  0  0  0  0
    5.2310   -1.6899   -0.0133 C   0  0  0  0  0  0  0  0  0  0  0  0
    2.5585    0.9201   -2.0995 H   0  0  0  0  0  0  0  0  0  0  0  0
    4.0871    0.2022   -1.6513 H   0  0  0  0  0  0  0  0  0  0  0  0
    5.3248    4.4449   -0.3146 H   0  0  0  0  0  0  0  0  0  0  0  0
    3.9658    5.5162    2.0164 H   0  0  0  0  0  0  0  0  0  0  0  0
    2.0477    4.9738    3.5170 H   0  0  0  0  0  0  0  0  0  0  0  0
    0.6745    2.9562    3.1190 H   0  0  0  0  0  0  0  0  0  0  0  0
    1.1598    1.4575    1.2310 H   0  0  0  0  0  0  0  0  0  0  0  0
    3.0403   -2.5391    2.0462 H   0  0  0  0  0  0  0  0  0  0  0  0
    1.7094   -2.4723    0.9139 H   0  0  0  0  0  0  0  0  0  0  0  0
   -0.3253   -1.1685    1.4177 H   0  0  0  0  0  0  0  0  0  0  0  0
   -1.7248   -0.1012    3.1477 H   0  0  0  0  0  0  0  0  0  0  0  0
   -0.7572    0.4772    5.3583 H   0  0  0  0  0  0  0  0  0  0  0  0
    1.6160   -0.0542    5.8454 H   0  0  0  0  0  0  0  0  0  0  0  0
    3.0299   -1.1297    4.1305 H   0  0  0  0  0  0  0  0  0  0  0  0
    4.5145    0.4449    2.5415 H   0  0  0  0  0  0  0  0  0  0  0  0
    6.9494    0.3984    2.7575 H   0  0  0  0  0  0  0  0  0  0  0  0
    9.1941    0.4602    2.6127 H   0  0  0  0  0  0  0  0  0  0  0  0
    8.9143    1.0386    0.9510 H   0  0  0  0  0  0  0  0  0  0  0  0
   11.3183    1.1446    1.6236 H   0  0  0  0  0  0  0  0  0  0  0  0
   11.0557    0.1187    0.2080 H   0  0  0  0  0  0  0  0  0  0  0  0
   11.2370   -0.8804    3.0980 H   0  0  0  0  0  0  0  0  0  0  0  0
   12.5378   -0.9885    1.9114 H   0  0  0  0  0  0  0  0  0  0  0  0
   11.1276   -3.0775    2.1477 H   0  0  0  0  0  0  0  0  0  0  0  0
   11.2658   -2.4699    0.4912 H   0  0  0  0  0  0  0  0  0  0  0  0
    7.1951   -2.3649   -0.5545 H   0  0  0  0  0  0  0  0  0  0  0  0
    4.7526   -2.2766   -0.7931 H   0  0  0  0  0  0  0  0  0  0  0  0
  1  2  2  0  0  0  0
  2  3  1  0  0  0  0
  2 13  1  0  0  0  0
  3  4  1  0  0  0  0
  3 34  1  0  0  0  0
  3 35  1  0  0  0  0
  4  5  2  0  0  0  0
  4 12  1  0  0  0  0
  5  6  1  0  0  0  0
  6  7  1  0  0  0  0
  6 36  1  0  0  0  0
  7  8  1  0  0  0  0
  7 12  2  0  0  0  0
  8  9  2  0  0  0  0
  8 37  1  0  0  0  0
  9 10  1  0  0  0  0
  9 38  1  0  0  0  0
 10 11  2  0  0  0  0
 10 39  1  0  0  0  0
 11 12  1  0  0  0  0
 11 40  1  0  0  0  0
 13 14  1  0  0  0  0
 13 21  1  0  0  0  0
 14 15  1  0  0  0  0
 14 41  1  0  0  0  0
 14 42  1  0  0  0  0
 15 16  1  0  0  0  0
 15 20  2  0  0  0  0
 16 17  2  0  0  0  0
 16 43  1  0  0  0  0
 17 18  1  0  0  0  0
 17 44  1  0  0  0  0
 18 19  2  0  0  0  0
 18 45  1  0  0  0  0
 19 20  1  0  0  0  0
 19 46  1  0  0  0  0
 20 47  1  0  0  0  0
 21 22  1  0  0  0  0
 21 33  2  0  0  0  0
 22 23  2  0  0  0  0
 22 48  1  0  0  0  0
 23 24  1  0  0  0  0
 23 49  1  0  0  0  0
 24 25  1  0  0  0  0
 24 32  2  0  0  0  0
 25 26  1  0  0  0  0
 25 30  1  0  0  0  0
 26 27  1  0  0  0  0
 26 50  1  0  0  0  0
 26 51  1  0  0  0  0
 27 28  1  0  0  0  0
 27 52  1  0  0  0  0
 27 53  1  0  0  0  0
 28 29  1  0  0  0  0
 28 54  1  0  0  0  0
 28 55  1  0  0  0  0
 29 30  1  0  0  0  0
 29 56  1  0  0  0  0
 29 57  1  0  0  0  0
 30 31  2  0  0  0  0
 32 33  1  0  0  0  0
 32 58  1  0  0  0  0
 33 59  1  0  0  0  0
M  END
$$$$
