
 OpenBabel07202414193D

 34 35  0  0  0  0  0  0  0  0999 V2000
   -2.3283   -7.6479   -0.5754 F   0  0  0  0  0  0  0  0  0  0  0  0
   -1.8879   -6.5018   -1.1089 C   0  0  0  0  0  0  0  0  0  0  0  0
   -1.1064   -6.5433   -2.2616 C   0  0  0  0  0  0  0  0  0  0  0  0
   -0.6300   -5.3563   -2.8165 C   0  0  0  0  0  0  0  0  0  0  0  0
   -0.9289   -4.1325   -2.2081 C   0  0  0  0  0  0  0  0  0  0  0  0
   -1.7080   -4.1073   -1.0430 C   0  0  0  0  0  0  0  0  0  0  0  0
   -1.9333   -2.5834   -0.1482 S   0  0  0  0  0  0  0  0  0  0  0  0
   -1.3962   -2.8158    1.1735 O   0  0  0  0  0  0  0  0  0  0  0  0
   -1.4439   -1.5027   -0.9769 O   0  0  0  0  0  0  0  0  0  0  0  0
   -3.6257   -2.4252   -0.0170 N   0  0  0  0  0  0  0  0  0  0  0  0
   -4.3583   -1.8906   -1.1996 C   0  0  0  0  0  0  0  0  0  0  0  0
   -4.2110   -0.3612   -1.3383 C   0  0  0  0  0  0  0  0  0  0  0  0
   -4.3592    0.4070   -0.0917 N   0  0  0  0  0  0  0  0  0  0  0  0
   -4.3688    1.8081   -0.0697 C   0  0  0  0  0  0  0  0  0  0  0  0
   -4.4089    2.4339    0.9958 O   0  0  0  0  0  0  0  0  0  0  0  0
   -4.2770    2.5655   -1.3836 C   0  0  0  0  0  0  0  0  0  0  0  0
   -5.8947    2.8062   -2.0583 Cl  0  0  0  0  0  0  0  0  0  0  0  0
   -3.9242   -0.2288    1.1597 C   0  0  0  0  0  0  0  0  0  0  0  0
   -4.1185   -1.7450    1.2200 C   0  0  0  0  0  0  0  0  0  0  0  0
   -2.1946   -5.2945   -0.4896 C   0  0  0  0  0  0  0  0  0  0  0  0
   -0.8619   -7.5033   -2.7095 H   0  0  0  0  0  0  0  0  0  0  0  0
   -0.0001   -5.3872   -3.7040 H   0  0  0  0  0  0  0  0  0  0  0  0
   -0.5170   -3.2159   -2.6247 H   0  0  0  0  0  0  0  0  0  0  0  0
   -5.4199   -2.1388   -1.0670 H   0  0  0  0  0  0  0  0  0  0  0  0
   -4.0381   -2.3966   -2.1155 H   0  0  0  0  0  0  0  0  0  0  0  0
   -4.9659   -0.0045   -2.0476 H   0  0  0  0  0  0  0  0  0  0  0  0
   -3.2375   -0.1076   -1.7644 H   0  0  0  0  0  0  0  0  0  0  0  0
   -3.6451    2.0555   -2.1132 H   0  0  0  0  0  0  0  0  0  0  0  0
   -3.8256    3.5454   -1.1949 H   0  0  0  0  0  0  0  0  0  0  0  0
   -4.4642    0.2295    1.9978 H   0  0  0  0  0  0  0  0  0  0  0  0
   -2.8643    0.0209    1.2893 H   0  0  0  0  0  0  0  0  0  0  0  0
   -5.1861   -1.9760    1.3254 H   0  0  0  0  0  0  0  0  0  0  0  0
   -3.6362   -2.1606    2.1109 H   0  0  0  0  0  0  0  0  0  0  0  0
   -2.7718   -5.2957    0.4291 H   0  0  0  0  0  0  0  0  0  0  0  0
  1  2  1  0  0  0  0
  2  3  1  0  0  0  0
  2 20  2  0  0  0  0
  3  4  2  0  0  0  0
  3 21  1  0  0  0  0
  4  5  1  0  0  0  0
  4 22  1  0  0  0  0
  5  6  2  0  0  0  0
  5 23  1  0  0  0  0
  6  7  1  0  0  0  0
  6 20  1  0  0  0  0
  7  8  2  0  0  0  0
  7  9  2  0  0  0  0
  7 10  1  0  0  0  0
 10 11  1  0  0  0  0
 10 19  1  0  0  0  0
 11 12  1  0  0  0  0
 11 24  1  0  0  0  0
 11 25  1  0  0  0  0
 12 13  1  0  0  0  0
 12 26  1  0  0  0  0
 12 27  1  0  0  0  0
 13 14  1  0  0  0  0
 13 18  1  0  0  0  0
 14 15  2  0  0  0  0
 14 16  1  0  0  0  0
 16 17  1  0  0  0  0
 16 28  1  0  0  0  0
 16 29  1  0  0  0  0
 18 19  1  0  0  0  0
 18 30  1  0  0  0  0
 18 31  1  0  0  0  0
 19 32  1  0  0  0  0
 19 33  1  0  0  0  0
 20 34  1  0  0  0  0
M  END
$$$$
