
 OpenBabel07202414153D

 62 66  0  0  1  0  0  0  0  0999 V2000
    4.8703   -0.2796    0.9008 C   0  0  0  0  0  0  0  0  0  0  0  0
    5.8367    0.8639    1.8511 S   0  0  0  0  0  0  0  0  0  0  0  0
    5.2889    0.9102    3.1935 O   0  0  0  0  0  0  0  0  0  0  0  0
    7.2383    0.5604    1.6323 O   0  0  0  0  0  0  0  0  0  0  0  0
    5.5069    2.4350    1.0869 C   0  0  0  0  0  0  0  0  0  0  0  0
    4.4482    3.2104    1.5498 C   0  0  0  0  0  0  0  0  0  0  0  0
    4.2050    4.4605    0.9742 C   0  0  0  0  0  0  0  0  0  0  0  0
    5.0023    4.9757   -0.0756 C   0  0  0  0  0  0  0  0  0  0  0  0
    4.8036    6.2381   -0.7003 C   0  0  0  0  0  0  0  0  0  0  0  0
    3.7054    7.1142   -0.4258 N   0  0  0  0  0  0  0  0  0  0  0  0
    2.3892    6.6918   -0.4993 C   0  0  0  0  0  0  0  0  0  0  0  0
    2.0616    5.5361   -0.7761 O   0  0  0  0  0  0  0  0  0  0  0  0
    1.2904    7.7253   -0.2202 C   0  0  3  0  0  0  0  0  0  0  0  0
    1.4026    9.0441   -0.9877 C   0  0  0  0  0  0  0  0  0  0  0  0
    2.0145   10.1132   -0.2071 N   0  0  0  0  0  0  0  0  0  0  0  0
    3.1649   10.8516   -0.7175 C   0  0  0  0  0  0  0  0  0  0  0  0
    3.0151   11.5158   -2.0757 C   0  0  0  0  0  0  0  0  0  0  0  0
    3.7071   11.1608   -3.0289 O   0  0  0  0  0  0  0  0  0  0  0  0
    2.1185   12.5588   -2.1386 N   0  0  0  0  0  0  0  0  0  0  0  0
    2.0448   13.3956   -3.3480 C   0  0  0  0  0  0  0  0  0  0  0  0
    1.0319   14.5604   -3.3118 C   0  0  0  0  0  0  0  0  0  0  0  0
    0.7148   14.2258   -4.7869 C   0  0  0  0  0  0  0  0  0  0  0  0
    1.1896   12.7910   -4.4856 C   0  0  0  0  0  0  0  0  0  0  0  0
    1.5490   10.3925    1.0679 C   0  0  0  0  0  0  0  0  0  0  0  0
    1.7214   11.4716    1.6213 O   0  0  0  0  0  0  0  0  0  0  0  0
    0.9512    9.2385    1.8028 C   0  0  0  0  0  0  0  0  0  0  0  0
    0.4946    9.4408    3.1133 C   0  0  0  0  0  0  0  0  0  0  0  0
    0.0939    8.3537    3.8923 C   0  0  0  0  0  0  0  0  0  0  0  0
    0.1652    7.0653    3.3679 C   0  0  0  0  0  0  0  0  0  0  0  0
   -0.2807    5.7206    4.3428 Cl  0  0  0  0  0  0  0  0  0  0  0  0
    0.5871    6.8561    2.0535 C   0  0  0  0  0  0  0  0  0  0  0  0
    0.9689    7.9428    1.2471 C   0  0  0  0  0  0  0  0  0  0  0  0
    5.7617    6.6626   -1.6232 C   0  0  0  0  0  0  0  0  0  0  0  0
    6.8291    5.9338   -2.0170 N   0  0  0  0  0  0  0  0  0  0  0  0
    6.9666    4.7154   -1.4519 C   0  0  0  0  0  0  0  0  0  0  0  0
    6.1098    4.1853   -0.4876 C   0  0  0  0  0  0  0  0  0  0  0  0
    6.3489    2.9223    0.0873 C   0  0  0  0  0  0  0  0  0  0  0  0
    4.9892   -1.2714    1.3440 H   0  0  0  0  0  0  0  0  0  0  0  0
    5.2357   -0.2882   -0.1276 H   0  0  0  0  0  0  0  0  0  0  0  0
    3.8207    0.0172    0.9396 H   0  0  0  0  0  0  0  0  0  0  0  0
    3.8146    2.8662    2.3648 H   0  0  0  0  0  0  0  0  0  0  0  0
    3.3818    5.0467    1.3751 H   0  0  0  0  0  0  0  0  0  0  0  0
    3.8660    8.0875   -0.6446 H   0  0  0  0  0  0  0  0  0  0  0  0
    0.3894    7.2497   -0.6414 H   0  0  0  0  0  0  0  0  0  0  0  0
    0.3812    9.3991   -1.1950 H   0  0  0  0  0  0  0  0  0  0  0  0
    1.9021    8.9302   -1.9540 H   0  0  0  0  0  0  0  0  0  0  0  0
    3.9846   10.1305   -0.7957 H   0  0  0  0  0  0  0  0  0  0  0  0
    3.4937   11.6089    0.0021 H   0  0  0  0  0  0  0  0  0  0  0  0
    1.5931   12.7852   -1.2988 H   0  0  0  0  0  0  0  0  0  0  0  0
    3.0409   13.7228   -3.6764 H   0  0  0  0  0  0  0  0  0  0  0  0
    1.4603   15.5531   -3.1458 H   0  0  0  0  0  0  0  0  0  0  0  0
    0.1833   14.4184   -2.6338 H   0  0  0  0  0  0  0  0  0  0  0  0
    1.3488   14.7538   -5.5091 H   0  0  0  0  0  0  0  0  0  0  0  0
   -0.3305   14.3274   -5.0874 H   0  0  0  0  0  0  0  0  0  0  0  0
    1.7498   12.2995   -5.2855 H   0  0  0  0  0  0  0  0  0  0  0  0
    0.3878   12.1233   -4.1489 H   0  0  0  0  0  0  0  0  0  0  0  0
    0.4687   10.4427    3.5395 H   0  0  0  0  0  0  0  0  0  0  0  0
   -0.2530    8.5173    4.9099 H   0  0  0  0  0  0  0  0  0  0  0  0
    0.6068    5.8426    1.6543 H   0  0  0  0  0  0  0  0  0  0  0  0
    5.6766    7.6205   -2.1296 H   0  0  0  0  0  0  0  0  0  0  0  0
    7.8361    4.1597   -1.7993 H   0  0  0  0  0  0  0  0  0  0  0  0
    7.2084    2.3304   -0.2345 H   0  0  0  0  0  0  0  0  0  0  0  0
  1  2  1  0  0  0  0
  1 38  1  0  0  0  0
  1 39  1  0  0  0  0
  1 40  1  0  0  0  0
  2  3  2  0  0  0  0
  2  4  2  0  0  0  0
  2  5  1  0  0  0  0
  5  6  1  0  0  0  0
  5 37  2  0  0  0  0
  6  7  2  0  0  0  0
  6 41  1  0  0  0  0
  7  8  1  0  0  0  0
  7 42  1  0  0  0  0
  8  9  1  0  0  0  0
  8 36  2  0  0  0  0
  9 10  1  0  0  0  0
  9 33  2  0  0  0  0
 10 11  1  0  0  0  0
 10 43  1  0  0  0  0
 11 12  2  0  0  0  0
 11 13  1  0  0  0  0
 13 14  1  0  0  0  0
 13 32  1  0  0  0  0
 13 44  1  0  0  0  0
 14 15  1  0  0  0  0
 14 45  1  0  0  0  0
 14 46  1  0  0  0  0
 15 16  1  0  0  0  0
 15 24  1  0  0  0  0
 16 17  1  0  0  0  0
 16 47  1  0  0  0  0
 16 48  1  0  0  0  0
 17 18  2  0  0  0  0
 17 19  1  0  0  0  0
 19 20  1  0  0  0  0
 19 49  1  0  0  0  0
 20 21  1  0  0  0  0
 20 23  1  0  0  0  0
 20 50  1  0  0  0  0
 21 22  1  0  0  0  0
 21 51  1  0  0  0  0
 21 52  1  0  0  0  0
 22 23  1  0  0  0  0
 22 53  1  0  0  0  0
 22 54  1  0  0  0  0
 23 55  1  0  0  0  0
 23 56  1  0  0  0  0
 24 25  2  0  0  0  0
 24 26  1  0  0  0  0
 26 27  1  0  0  0  0
 26 32  2  0  0  0  0
 27 28  2  0  0  0  0
 27 57  1  0  0  0  0
 28 29  1  0  0  0  0
 28 58  1  0  0  0  0
 29 30  1  0  0  0  0
 29 31  2  0  0  0  0
 31 32  1  0  0  0  0
 31 59  1  0  0  0  0
 33 34  1  0  0  0  0
 33 60  1  0  0  0  0
 34 35  2  0  0  0  0
 35 36  1  0  0  0  0
 35 61  1  0  0  0  0
 36 37  1  0  0  0  0
 37 62  1  0  0  0  0
M  END
$$$$
