
 OpenBabel07202414143D

 42 45  0  0  1  0  0  0  0  0999 V2000
    1.0791   -0.0272    0.2892 C   0  0  0  0  0  0  0  0  0  0  0  0
    2.4666   -0.1334   -0.1267 N   0  0  0  0  0  0  0  0  0  0  0  0
    3.1196   -1.4365   -0.1599 C   0  0  0  0  0  0  0  0  0  0  0  0
    3.8018   -1.6918   -1.5036 C   0  0  1  0  0  0  0  0  0  0  0  0
    2.7712   -2.1125   -2.5535 C   0  0  0  0  0  0  0  0  0  0  0  0
    2.8383   -3.2305   -3.0585 O   0  0  0  0  0  0  0  0  0  0  0  0
    1.8165   -1.1556   -2.8474 N   0  0  0  0  0  0  0  0  0  0  0  0
    0.7743   -1.2418   -3.8048 C   0  0  0  0  0  0  0  0  0  0  0  0
    0.4342   -2.4408   -4.4316 C   0  0  0  0  0  0  0  0  0  0  0  0
   -0.4478   -2.5508   -5.4500 N   0  0  0  0  0  0  0  0  0  0  0  0
   -1.0534   -1.4135   -5.8431 C   0  0  0  0  0  0  0  0  0  0  0  0
   -0.8924   -0.1753   -5.2238 C   0  0  0  0  0  0  0  0  0  0  0  0
   -1.6513    0.9368   -5.6322 C   0  0  0  0  0  0  0  0  0  0  0  0
   -1.5093    2.1680   -4.9990 C   0  0  0  0  0  0  0  0  0  0  0  0
   -0.5848    2.3081   -3.9740 C   0  0  0  0  0  0  0  0  0  0  0  0
    0.1884    1.2132   -3.5728 C   0  0  0  0  0  0  0  0  0  0  0  0
    0.0473   -0.0687   -4.1714 C   0  0  0  0  0  0  0  0  0  0  0  0
    4.6330   -0.4871   -1.9033 C   0  0  0  0  0  0  0  0  0  0  0  0
    5.6838   -0.6319   -2.8247 C   0  0  0  0  0  0  0  0  0  0  0  0
    6.4289    0.4814   -3.2184 C   0  0  0  0  0  0  0  0  0  0  0  0
    7.7030    0.2950   -4.3568 Cl  0  0  0  0  0  0  0  0  0  0  0  0
    6.1441    1.7426   -2.7036 C   0  0  0  0  0  0  0  0  0  0  0  0
    5.1028    1.9030   -1.7863 C   0  0  0  0  0  0  0  0  0  0  0  0
    4.3449    0.7913   -1.3825 C   0  0  0  0  0  0  0  0  0  0  0  0
    3.1391    1.0189   -0.5319 C   0  0  0  0  0  0  0  0  0  0  0  0
    2.7124    2.1437   -0.3471 O   0  0  0  0  0  0  0  0  0  0  0  0
    0.6914   -0.9934    0.6304 H   0  0  0  0  0  0  0  0  0  0  0  0
    0.4929    0.2996   -0.5768 H   0  0  0  0  0  0  0  0  0  0  0  0
    0.9780    0.7217    1.0749 H   0  0  0  0  0  0  0  0  0  0  0  0
    2.3975   -2.2317    0.0729 H   0  0  0  0  0  0  0  0  0  0  0  0
    3.8708   -1.4287    0.6381 H   0  0  0  0  0  0  0  0  0  0  0  0
    4.4785   -2.5446   -1.3670 H   0  0  0  0  0  0  0  0  0  0  0  0
    1.9485   -0.2519   -2.4173 H   0  0  0  0  0  0  0  0  0  0  0  0
    0.8541   -3.3938   -4.1269 H   0  0  0  0  0  0  0  0  0  0  0  0
   -1.7069   -1.5331   -6.7038 H   0  0  0  0  0  0  0  0  0  0  0  0
   -2.3774    0.8423   -6.4374 H   0  0  0  0  0  0  0  0  0  0  0  0
   -2.1208    3.0135   -5.3036 H   0  0  0  0  0  0  0  0  0  0  0  0
   -0.4630    3.2683   -3.4774 H   0  0  0  0  0  0  0  0  0  0  0  0
    0.8905    1.3927   -2.7638 H   0  0  0  0  0  0  0  0  0  0  0  0
    5.9149   -1.6080   -3.2466 H   0  0  0  0  0  0  0  0  0  0  0  0
    6.7080    2.6129   -3.0252 H   0  0  0  0  0  0  0  0  0  0  0  0
    4.8648    2.8930   -1.4069 H   0  0  0  0  0  0  0  0  0  0  0  0
  1  2  1  0  0  0  0
  1 27  1  0  0  0  0
  1 28  1  0  0  0  0
  1 29  1  0  0  0  0
  2  3  1  0  0  0  0
  2 25  1  0  0  0  0
  3  4  1  0  0  0  0
  3 30  1  0  0  0  0
  3 31  1  0  0  0  0
  4  5  1  0  0  0  0
  4 18  1  0  0  0  0
  4 32  1  1  0  0  0
  5  6  2  0  0  0  0
  5  7  1  0  0  0  0
  7  8  1  0  0  0  0
  7 33  1  0  0  0  0
  8  9  1  0  0  0  0
  8 17  2  0  0  0  0
  9 10  2  0  0  0  0
  9 34  1  0  0  0  0
 10 11  1  0  0  0  0
 11 12  2  0  0  0  0
 11 35  1  0  0  0  0
 12 13  1  0  0  0  0
 12 17  1  0  0  0  0
 13 14  2  0  0  0  0
 13 36  1  0  0  0  0
 14 15  1  0  0  0  0
 14 37  1  0  0  0  0
 15 16  2  0  0  0  0
 15 38  1  0  0  0  0
 16 17  1  0  0  0  0
 16 39  1  0  0  0  0
 18 19  1  0  0  0  0
 18 24  2  0  0  0  0
 19 20  2  0  0  0  0
 19 40  1  0  0  0  0
 20 21  1  0  0  0  0
 20 22  1  0  0  0  0
 22 23  2  0  0  0  0
 22 41  1  0  0  0  0
 23 24  1  0  0  0  0
 23 42  1  0  0  0  0
 24 25  1  0  0  0  0
 25 26  2  0  0  0  0
M  END
$$$$
