
 OpenBabel07202414153D

 47 50  0  0  1  0  0  0  0  0999 V2000
    3.7774    1.3452    5.4138 C   0  0  0  0  0  0  0  0  0  0  0  0
    4.3399    1.4850    4.1079 O   0  0  0  0  0  0  0  0  0  0  0  0
    4.9057    0.3453    3.5989 C   0  0  0  0  0  0  0  0  0  0  0  0
    5.6243   -0.5410    4.4261 C   0  0  0  0  0  0  0  0  0  0  0  0
    6.1990   -1.7031    3.9173 C   0  0  0  0  0  0  0  0  0  0  0  0
    6.0926   -1.9962    2.5632 C   0  0  0  0  0  0  0  0  0  0  0  0
    5.4031   -1.1127    1.7314 C   0  0  0  0  0  0  0  0  0  0  0  0
    4.7938    0.0508    2.2303 C   0  0  0  0  0  0  0  0  0  0  0  0
    4.0743    0.7031    1.2618 O   0  0  0  0  0  0  0  0  0  0  0  0
    3.7147    2.0757    1.4139 C   0  0  3  0  0  0  0  0  0  0  0  0
    2.3795    2.2199    2.1373 C   0  0  0  0  0  0  0  0  0  0  0  0
    1.3207    2.2154    1.0523 C   0  0  0  0  0  0  0  0  0  0  0  0
    1.9657    2.7158   -0.1334 N   0  0  0  0  0  0  0  0  0  0  0  0
    3.4223    2.6354    0.0065 C   0  0  0  0  0  0  0  0  0  0  0  0
    1.4364    3.1001   -1.3419 C   0  0  0  0  0  0  0  0  0  0  0  0
    2.2212    3.3585   -2.2635 O   0  0  0  0  0  0  0  0  0  0  0  0
   -0.0349    3.3925   -1.5398 C   0  0  0  0  0  0  0  0  0  0  0  0
   -0.1966    4.2423   -2.5760 C   0  0  0  0  0  0  0  0  0  0  0  0
   -1.0759    5.4252   -2.3955 C   0  0  0  0  0  0  0  0  0  0  0  0
   -1.0493    6.3462   -3.2109 O   0  0  0  0  0  0  0  0  0  0  0  0
   -1.8178    5.4759   -1.2557 N   0  0  0  0  0  0  0  0  0  0  0  0
   -2.0116    4.3561   -0.4366 C   0  0  0  0  0  0  0  0  0  0  0  0
   -1.1917    3.2366   -0.6288 C   0  0  0  0  0  0  0  0  0  0  0  0
   -1.6015    2.0280   -0.0615 C   0  0  0  0  0  0  0  0  0  0  0  0
   -2.7402    1.9860    0.7626 C   0  0  0  0  0  0  0  0  0  0  0  0
   -3.4695    3.1478    1.0324 C   0  0  0  0  0  0  0  0  0  0  0  0
   -3.1007    4.3443    0.4313 C   0  0  0  0  0  0  0  0  0  0  0  0
    3.1370    2.2126    5.5996 H   0  0  0  0  0  0  0  0  0  0  0  0
    4.5560    1.3435    6.1830 H   0  0  0  0  0  0  0  0  0  0  0  0
    3.1526    0.4469    5.4870 H   0  0  0  0  0  0  0  0  0  0  0  0
    5.7562   -0.3332    5.4866 H   0  0  0  0  0  0  0  0  0  0  0  0
    6.7256   -2.3827    4.5837 H   0  0  0  0  0  0  0  0  0  0  0  0
    6.5654   -2.8850    2.1551 H   0  0  0  0  0  0  0  0  0  0  0  0
    5.3294   -1.3341    0.6695 H   0  0  0  0  0  0  0  0  0  0  0  0
    4.5344    2.6432    1.8711 H   0  0  0  0  0  0  0  0  0  0  0  0
    2.3562    3.1889    2.6590 H   0  0  0  0  0  0  0  0  0  0  0  0
    2.1726    1.4301    2.8580 H   0  0  0  0  0  0  0  0  0  0  0  0
    0.4756    2.8347    1.3482 H   0  0  0  0  0  0  0  0  0  0  0  0
    0.9947    1.1930    0.8377 H   0  0  0  0  0  0  0  0  0  0  0  0
    3.8317    3.6429   -0.1180 H   0  0  0  0  0  0  0  0  0  0  0  0
    3.8182    1.9919   -0.7874 H   0  0  0  0  0  0  0  0  0  0  0  0
    0.5292    4.3793   -3.3694 H   0  0  0  0  0  0  0  0  0  0  0  0
   -2.3749    6.3067   -1.1415 H   0  0  0  0  0  0  0  0  0  0  0  0
   -1.0749    1.1009   -0.2769 H   0  0  0  0  0  0  0  0  0  0  0  0
   -3.0734    1.0389    1.1885 H   0  0  0  0  0  0  0  0  0  0  0  0
   -4.3528    3.1098    1.6659 H   0  0  0  0  0  0  0  0  0  0  0  0
   -3.7129    5.2323    0.5786 H   0  0  0  0  0  0  0  0  0  0  0  0
  1  2  1  0  0  0  0
  1 28  1  0  0  0  0
  1 29  1  0  0  0  0
  1 30  1  0  0  0  0
  2  3  1  0  0  0  0
  3  4  1  0  0  0  0
  3  8  2  0  0  0  0
  4  5  2  0  0  0  0
  4 31  1  0  0  0  0
  5  6  1  0  0  0  0
  5 32  1  0  0  0  0
  6  7  2  0  0  0  0
  6 33  1  0  0  0  0
  7  8  1  0  0  0  0
  7 34  1  0  0  0  0
  8  9  1  0  0  0  0
  9 10  1  0  0  0  0
 10 11  1  0  0  0  0
 10 14  1  0  0  0  0
 10 35  1  0  0  0  0
 11 12  1  0  0  0  0
 11 36  1  0  0  0  0
 11 37  1  0  0  0  0
 12 13  1  0  0  0  0
 12 38  1  0  0  0  0
 12 39  1  0  0  0  0
 13 14  1  0  0  0  0
 13 15  1  0  0  0  0
 14 40  1  0  0  0  0
 14 41  1  0  0  0  0
 15 16  2  0  0  0  0
 15 17  1  0  0  0  0
 17 18  2  0  0  0  0
 17 23  1  0  0  0  0
 18 19  1  0  0  0  0
 18 42  1  0  0  0  0
 19 20  2  0  0  0  0
 19 21  1  0  0  0  0
 21 22  1  0  0  0  0
 21 43  1  0  0  0  0
 22 23  1  0  0  0  0
 22 27  2  0  0  0  0
 23 24  2  0  0  0  0
 24 25  1  0  0  0  0
 24 44  1  0  0  0  0
 25 26  2  0  0  0  0
 25 45  1  0  0  0  0
 26 27  1  0  0  0  0
 26 46  1  0  0  0  0
 27 47  1  0  0  0  0
M  END
$$$$
