
 OpenBabel07202414143D

 49 52  0  0  1  0  0  0  0  0999 V2000
    8.1092   -1.0906   -0.9268 C   0  0  0  0  0  0  0  0  0  0  0  0
    7.0317   -0.1335   -0.9437 N   0  0  0  0  0  0  0  0  0  0  0  0
    5.7327   -0.5422   -1.1390 C   0  0  0  0  0  0  0  0  0  0  0  0
    5.4133   -1.7177   -1.3025 O   0  0  0  0  0  0  0  0  0  0  0  0
    4.6919    0.5713   -1.0867 C   0  0  0  0  0  0  0  0  0  0  0  0
    4.7489    1.5331   -2.1883 N   0  0  0  0  0  0  0  0  0  0  0  0
    4.3357    1.1066   -3.5201 C   0  0  0  0  0  0  0  0  0  0  0  0
    3.4863    2.1704   -4.2152 C   0  0  3  0  0  0  0  0  0  0  0  0
    2.0213    2.0309   -3.7804 C   0  0  0  0  0  0  0  0  0  0  0  0
    1.2460    1.3654   -4.4621 O   0  0  0  0  0  0  0  0  0  0  0  0
    1.7035    2.6463   -2.5867 N   0  0  0  0  0  0  0  0  0  0  0  0
    0.4165    2.7988   -1.9999 C   0  0  0  0  0  0  0  0  0  0  0  0
   -0.7478    2.2837   -2.5679 C   0  0  0  0  0  0  0  0  0  0  0  0
   -2.0010    2.5521   -2.1307 N   0  0  0  0  0  0  0  0  0  0  0  0
   -2.1079    3.3436   -1.0460 C   0  0  0  0  0  0  0  0  0  0  0  0
   -1.0252    3.8406   -0.3254 C   0  0  0  0  0  0  0  0  0  0  0  0
   -1.2160    4.5893    0.8516 C   0  0  0  0  0  0  0  0  0  0  0  0
   -0.1257    5.0374    1.5769 C   0  0  0  0  0  0  0  0  0  0  0  0
   -0.3211    5.7149    2.7161 F   0  0  0  0  0  0  0  0  0  0  0  0
    1.1661    4.7815    1.1518 C   0  0  0  0  0  0  0  0  0  0  0  0
    1.3674    4.0553   -0.0266 C   0  0  0  0  0  0  0  0  0  0  0  0
    0.2855    3.5593   -0.8014 C   0  0  0  0  0  0  0  0  0  0  0  0
    4.0775    3.5564   -4.0202 C   0  0  0  0  0  0  0  0  0  0  0  0
    3.6440    4.6225   -4.8271 C   0  0  0  0  0  0  0  0  0  0  0  0
    4.1564    5.9061   -4.6296 C   0  0  0  0  0  0  0  0  0  0  0  0
    3.5867    7.2086   -5.5967 Cl  0  0  0  0  0  0  0  0  0  0  0  0
    5.1116    6.1437   -3.6435 C   0  0  0  0  0  0  0  0  0  0  0  0
    5.5529    5.0933   -2.8358 C   0  0  0  0  0  0  0  0  0  0  0  0
    5.0350    3.8029   -3.0136 C   0  0  0  0  0  0  0  0  0  0  0  0
    5.3965    2.7420   -2.0232 C   0  0  0  0  0  0  0  0  0  0  0  0
    6.1328    2.9852   -1.0747 O   0  0  0  0  0  0  0  0  0  0  0  0
    9.0136   -0.6047   -0.5516 H   0  0  0  0  0  0  0  0  0  0  0  0
    8.2728   -1.4531   -1.9458 H   0  0  0  0  0  0  0  0  0  0  0  0
    7.8458   -1.9338   -0.2846 H   0  0  0  0  0  0  0  0  0  0  0  0
    7.2278    0.8646   -0.8896 H   0  0  0  0  0  0  0  0  0  0  0  0
    4.8063    1.1000   -0.1327 H   0  0  0  0  0  0  0  0  0  0  0  0
    3.6920    0.1237   -1.0864 H   0  0  0  0  0  0  0  0  0  0  0  0
    3.8088    0.1491   -3.4590 H   0  0  0  0  0  0  0  0  0  0  0  0
    5.2613    0.9459   -4.0952 H   0  0  0  0  0  0  0  0  0  0  0  0
    3.5026    1.9571   -5.2949 H   0  0  0  0  0  0  0  0  0  0  0  0
    2.4505    3.1571   -2.1385 H   0  0  0  0  0  0  0  0  0  0  0  0
   -0.7345    1.6251   -3.4324 H   0  0  0  0  0  0  0  0  0  0  0  0
   -3.1304    3.5688   -0.7560 H   0  0  0  0  0  0  0  0  0  0  0  0
   -2.2141    4.8062    1.2233 H   0  0  0  0  0  0  0  0  0  0  0  0
    2.0022    5.1345    1.7373 H   0  0  0  0  0  0  0  0  0  0  0  0
    2.4007    3.8588   -0.3007 H   0  0  0  0  0  0  0  0  0  0  0  0
    2.8941    4.4580   -5.5994 H   0  0  0  0  0  0  0  0  0  0  0  0
    5.5019    7.1460   -3.4849 H   0  0  0  0  0  0  0  0  0  0  0  0
    6.2784    5.2922   -2.0486 H   0  0  0  0  0  0  0  0  0  0  0  0
  1  2  1  0  0  0  0
  1 32  1  0  0  0  0
  1 33  1  0  0  0  0
  1 34  1  0  0  0  0
  2  3  1  0  0  0  0
  2 35  1  0  0  0  0
  3  4  2  0  0  0  0
  3  5  1  0  0  0  0
  5  6  1  0  0  0  0
  5 36  1  0  0  0  0
  5 37  1  0  0  0  0
  6  7  1  0  0  0  0
  6 30  1  0  0  0  0
  7  8  1  0  0  0  0
  7 38  1  0  0  0  0
  7 39  1  0  0  0  0
  8  9  1  0  0  0  0
  8 23  1  0  0  0  0
  8 40  1  0  0  0  0
  9 10  2  0  0  0  0
  9 11  1  0  0  0  0
 11 12  1  0  0  0  0
 11 41  1  0  0  0  0
 12 13  1  0  0  0  0
 12 22  2  0  0  0  0
 13 14  2  0  0  0  0
 13 42  1  0  0  0  0
 14 15  1  0  0  0  0
 15 16  2  0  0  0  0
 15 43  1  0  0  0  0
 16 17  1  0  0  0  0
 16 22  1  0  0  0  0
 17 18  2  0  0  0  0
 17 44  1  0  0  0  0
 18 19  1  0  0  0  0
 18 20  1  0  0  0  0
 20 21  2  0  0  0  0
 20 45  1  0  0  0  0
 21 22  1  0  0  0  0
 21 46  1  0  0  0  0
 23 24  1  0  0  0  0
 23 29  2  0  0  0  0
 24 25  2  0  0  0  0
 24 47  1  0  0  0  0
 25 26  1  0  0  0  0
 25 27  1  0  0  0  0
 27 28  2  0  0  0  0
 27 48  1  0  0  0  0
 28 29  1  0  0  0  0
 28 49  1  0  0  0  0
 29 30  1  0  0  0  0
 30 31  2  0  0  0  0
M  END
$$$$
