
 OpenBabel07202414133D

 46 49  0  0  0  0  0  0  0  0999 V2000
    1.2537    0.0404   -0.8056 C   0  0  0  0  0  0  0  0  0  0  0  0
    2.6832   -0.0338   -0.4059 C   0  0  0  0  0  0  0  0  0  0  0  0
    3.4115   -1.1212   -0.6870 N   0  0  0  0  0  0  0  0  0  0  0  0
    4.6061   -0.9095   -0.0616 N   0  0  0  0  0  0  0  0  0  0  0  0
    5.5778   -1.9493   -0.0088 C   0  0  0  0  0  0  0  0  0  0  0  0
    5.5899   -2.9357   -1.0080 C   0  0  0  0  0  0  0  0  0  0  0  0
    6.5848   -3.9077   -0.9868 C   0  0  0  0  0  0  0  0  0  0  0  0
    6.6367   -5.1044   -2.2246 Cl  0  0  0  0  0  0  0  0  0  0  0  0
    7.5564   -3.9192    0.0181 C   0  0  0  0  0  0  0  0  0  0  0  0
    7.5360   -2.9605    1.0425 C   0  0  0  0  0  0  0  0  0  0  0  0
    8.5465   -3.0498    2.1665 C   0  0  0  0  0  0  0  0  0  0  0  0
    8.8674   -1.7393    2.8660 C   0  0  0  0  0  0  0  0  0  0  0  0
    8.4036   -1.4719    3.9717 O   0  0  0  0  0  0  0  0  0  0  0  0
    9.6685   -0.8863    2.1253 N   0  0  0  0  0  0  0  0  0  0  0  0
   10.1299    0.3619    2.6150 C   0  0  0  0  0  0  0  0  0  0  0  0
   10.5639    0.5062    3.9355 C   0  0  0  0  0  0  0  0  0  0  0  0
   11.0814    1.6430    4.4517 N   0  0  0  0  0  0  0  0  0  0  0  0
   11.1403    2.7059    3.6221 C   0  0  0  0  0  0  0  0  0  0  0  0
   10.7071    2.6988    2.2959 C   0  0  0  0  0  0  0  0  0  0  0  0
   10.7495    3.8625    1.5033 C   0  0  0  0  0  0  0  0  0  0  0  0
   10.2648    3.8520    0.1979 C   0  0  0  0  0  0  0  0  0  0  0  0
    9.7447    2.6802   -0.3366 C   0  0  0  0  0  0  0  0  0  0  0  0
    9.7156    1.5140    0.4314 C   0  0  0  0  0  0  0  0  0  0  0  0
   10.1955    1.4918    1.7614 C   0  0  0  0  0  0  0  0  0  0  0  0
    6.5142   -1.9997    1.0341 C   0  0  0  0  0  0  0  0  0  0  0  0
    4.6975    0.3935    0.4479 C   0  0  0  0  0  0  0  0  0  0  0  0
    5.8115    0.9659    0.9756 N   0  0  0  0  0  0  0  0  0  0  0  0
    3.4520    0.9380    0.2530 C   0  0  0  0  0  0  0  0  0  0  0  0
    2.8799    2.6611    0.7214 Br  0  0  0  0  0  0  0  0  0  0  0  0
    0.8856   -0.9231   -1.1705 H   0  0  0  0  0  0  0  0  0  0  0  0
    1.1123    0.7842   -1.5957 H   0  0  0  0  0  0  0  0  0  0  0  0
    0.6347    0.3268    0.0522 H   0  0  0  0  0  0  0  0  0  0  0  0
    4.8505   -2.9299   -1.8053 H   0  0  0  0  0  0  0  0  0  0  0  0
    8.3182   -4.6966    0.0116 H   0  0  0  0  0  0  0  0  0  0  0  0
    9.4912   -3.4577    1.7873 H   0  0  0  0  0  0  0  0  0  0  0  0
    8.1709   -3.7501    2.9218 H   0  0  0  0  0  0  0  0  0  0  0  0
    9.7079   -1.0450    1.1272 H   0  0  0  0  0  0  0  0  0  0  0  0
   10.5473   -0.3285    4.6320 H   0  0  0  0  0  0  0  0  0  0  0  0
   11.5459    3.6049    4.0795 H   0  0  0  0  0  0  0  0  0  0  0  0
   11.1427    4.7913    1.9120 H   0  0  0  0  0  0  0  0  0  0  0  0
   10.2831    4.7611   -0.3967 H   0  0  0  0  0  0  0  0  0  0  0  0
    9.3457    2.6743   -1.3490 H   0  0  0  0  0  0  0  0  0  0  0  0
    9.2785    0.6316   -0.0254 H   0  0  0  0  0  0  0  0  0  0  0  0
    6.4105   -1.3277    1.8845 H   0  0  0  0  0  0  0  0  0  0  0  0
    6.7407    0.5592    0.9389 H   0  0  0  0  0  0  0  0  0  0  0  0
    5.8032    1.9335    1.2935 H   0  0  0  0  0  0  0  0  0  0  0  0
  1  2  1  0  0  0  0
  1 30  1  0  0  0  0
  1 31  1  0  0  0  0
  1 32  1  0  0  0  0
  2  3  2  0  0  0  0
  2 28  1  0  0  0  0
  3  4  1  0  0  0  0
  4  5  1  0  0  0  0
  4 26  1  0  0  0  0
  5  6  2  0  0  0  0
  5 25  1  0  0  0  0
  6  7  1  0  0  0  0
  6 33  1  0  0  0  0
  7  8  1  0  0  0  0
  7  9  2  0  0  0  0
  9 10  1  0  0  0  0
  9 34  1  0  0  0  0
 10 11  1  0  0  0  0
 10 25  2  0  0  0  0
 11 12  1  0  0  0  0
 11 35  1  0  0  0  0
 11 36  1  0  0  0  0
 12 13  2  0  0  0  0
 12 14  1  0  0  0  0
 14 15  1  0  0  0  0
 14 37  1  0  0  0  0
 15 16  2  0  0  0  0
 15 24  1  0  0  0  0
 16 17  1  0  0  0  0
 16 38  1  0  0  0  0
 17 18  2  0  0  0  0
 18 19  1  0  0  0  0
 18 39  1  0  0  0  0
 19 20  2  0  0  0  0
 19 24  1  0  0  0  0
 20 21  1  0  0  0  0
 20 40  1  0  0  0  0
 21 22  2  0  0  0  0
 21 41  1  0  0  0  0
 22 23  1  0  0  0  0
 22 42  1  0  0  0  0
 23 24  2  0  0  0  0
 23 43  1  0  0  0  0
 25 44  1  0  0  0  0
 26 27  1  0  0  0  0
 26 28  2  0  0  0  0
 27 45  1  0  0  0  0
 27 46  1  0  0  0  0
 28 29  1  0  0  0  0
M  END
$$$$
