
 OpenBabel07202414183D

 57 62  0  0  1  0  0  0  0  0999 V2000
    1.0127   -0.1390    0.2707 Cl  0  0  0  0  0  0  0  0  0  0  0  0
    2.7318   -0.0923    0.2707 C   0  0  0  0  0  0  0  0  0  0  0  0
    3.4534   -1.2755    0.1711 C   0  0  0  0  0  0  0  0  0  0  0  0
    4.8443   -1.2285    0.1301 C   0  0  0  0  0  0  0  0  0  0  0  0
    5.5264    0.0011    0.1785 C   0  0  0  0  0  0  0  0  0  0  0  0
    4.7971    1.2101    0.2645 C   0  0  0  0  0  0  0  0  0  0  0  0
    3.3900    1.1374    0.3318 C   0  0  0  0  0  0  0  0  0  0  0  0
    5.5130    2.5644    0.2270 C   0  0  1  0  0  0  0  0  0  0  0  0
    7.0364    2.4247   -0.0324 C   0  0  0  0  0  0  0  0  0  0  0  0
    7.6779    1.2196    0.5862 N   0  0  0  0  0  0  0  0  0  0  0  0
    7.9988    1.2838    2.2642 S   0  0  0  0  0  0  0  0  0  0  0  0
    8.4129    2.6407    2.5509 O   0  0  0  0  0  0  0  0  0  0  0  0
    6.8954    0.6327    2.9319 O   0  0  0  0  0  0  0  0  0  0  0  0
    9.4592    0.2539    2.4435 C   0  0  0  0  0  0  0  0  0  0  0  0
    9.7628    0.1975    3.9329 C   0  0  0  0  0  0  0  0  0  0  0  0
    8.8497   -0.5850    4.7353 C   0  0  0  0  0  0  0  0  0  0  0  0
    8.1728   -1.2676    5.3991 N   0  0  0  0  0  0  0  0  0  0  0  0
   11.2307    0.0550    4.3318 C   0  0  0  0  0  0  0  0  0  0  0  0
   10.5115    1.3388    4.5975 C   0  0  0  0  0  0  0  0  0  0  0  0
    7.0362   -0.0193    0.0937 C   0  0  0  0  0  0  0  0  0  0  0  0
    4.8889    3.4588   -0.8792 C   0  0  0  0  0  0  0  0  0  0  0  0
    4.0382    4.4464   -0.1304 C   0  0  0  0  0  0  0  0  0  0  0  0
    3.1070    5.0650   -0.6172 O   0  0  0  0  0  0  0  0  0  0  0  0
    4.5568    4.5369    1.1251 N   0  0  0  0  0  0  0  0  0  0  0  0
    4.3105    5.5884    2.0285 C   0  0  0  0  0  0  0  0  0  0  0  0
    3.0350    5.8394    2.5205 C   0  0  0  0  0  0  0  0  0  0  0  0
    2.7605    6.7887    3.4441 N   0  0  0  0  0  0  0  0  0  0  0  0
    3.7751    7.6180    3.7783 C   0  0  0  0  0  0  0  0  0  0  0  0
    5.0360    7.5950    3.1819 C   0  0  0  0  0  0  0  0  0  0  0  0
    5.9475    8.6579    3.3219 C   0  0  0  0  0  0  0  0  0  0  0  0
    7.1643    8.6416    2.6421 C   0  0  0  0  0  0  0  0  0  0  0  0
    7.5432    7.5072    1.9371 C   0  0  0  0  0  0  0  0  0  0  0  0
    6.6614    6.4324    1.8264 C   0  0  0  0  0  0  0  0  0  0  0  0
    5.3503    6.4973    2.3560 C   0  0  0  0  0  0  0  0  0  0  0  0
    5.2876    3.4289    1.4678 C   0  0  0  0  0  0  0  0  0  0  0  0
    5.6434    3.1610    2.6039 O   0  0  0  0  0  0  0  0  0  0  0  0
    2.9405   -2.2316    0.1304 H   0  0  0  0  0  0  0  0  0  0  0  0
    5.3978   -2.1650    0.0656 H   0  0  0  0  0  0  0  0  0  0  0  0
    2.7810    2.0350    0.4055 H   0  0  0  0  0  0  0  0  0  0  0  0
    7.5903    3.3278    0.2475 H   0  0  0  0  0  0  0  0  0  0  0  0
    7.2057    2.3192   -1.1155 H   0  0  0  0  0  0  0  0  0  0  0  0
   10.2657    0.7355    1.8801 H   0  0  0  0  0  0  0  0  0  0  0  0
    9.2621   -0.7408    2.0433 H   0  0  0  0  0  0  0  0  0  0  0  0
   11.9930    0.0521    3.5617 H   0  0  0  0  0  0  0  0  0  0  0  0
   11.4838   -0.5628    5.1883 H   0  0  0  0  0  0  0  0  0  0  0  0
   10.7890    2.2109    4.0105 H   0  0  0  0  0  0  0  0  0  0  0  0
   10.2749    1.5887    5.6321 H   0  0  0  0  0  0  0  0  0  0  0  0
    7.4393   -0.8881    0.6254 H   0  0  0  0  0  0  0  0  0  0  0  0
    7.3195   -0.1488   -0.9596 H   0  0  0  0  0  0  0  0  0  0  0  0
    4.2925    2.9090   -1.6131 H   0  0  0  0  0  0  0  0  0  0  0  0
    5.6460    4.0452   -1.4145 H   0  0  0  0  0  0  0  0  0  0  0  0
    2.1736    5.2650    2.1944 H   0  0  0  0  0  0  0  0  0  0  0  0
    3.5279    8.3518    4.5422 H   0  0  0  0  0  0  0  0  0  0  0  0
    5.6766    9.5430    3.8942 H   0  0  0  0  0  0  0  0  0  0  0  0
    7.8148    9.5119    2.6617 H   0  0  0  0  0  0  0  0  0  0  0  0
    8.5119    7.4641    1.4465 H   0  0  0  0  0  0  0  0  0  0  0  0
    7.0036    5.5586    1.2816 H   0  0  0  0  0  0  0  0  0  0  0  0
  1  2  1  0  0  0  0
  2  3  1  0  0  0  0
  2  7  2  0  0  0  0
  3  4  2  0  0  0  0
  3 37  1  0  0  0  0
  4  5  1  0  0  0  0
  4 38  1  0  0  0  0
  5  6  2  0  0  0  0
  5 20  1  0  0  0  0
  6  7  1  0  0  0  0
  7 39  1  0  0  0  0
  8  6  1  1  0  0  0
  8  9  1  0  0  0  0
  8 21  1  0  0  0  0
  8 35  1  0  0  0  0
  9 10  1  0  0  0  0
  9 40  1  0  0  0  0
  9 41  1  0  0  0  0
 10 11  1  0  0  0  0
 10 20  1  0  0  0  0
 11 12  2  0  0  0  0
 11 13  2  0  0  0  0
 11 14  1  0  0  0  0
 14 15  1  0  0  0  0
 14 42  1  0  0  0  0
 14 43  1  0  0  0  0
 15 16  1  0  0  0  0
 15 18  1  0  0  0  0
 15 19  1  0  0  0  0
 16 17  3  0  0  0  0
 18 19  1  0  0  0  0
 18 44  1  0  0  0  0
 18 45  1  0  0  0  0
 19 46  1  0  0  0  0
 19 47  1  0  0  0  0
 20 48  1  0  0  0  0
 20 49  1  0  0  0  0
 21 22  1  0  0  0  0
 21 50  1  0  0  0  0
 21 51  1  0  0  0  0
 22 23  2  0  0  0  0
 22 24  1  0  0  0  0
 24 25  1  0  0  0  0
 24 35  1  0  0  0  0
 25 26  1  0  0  0  0
 25 34  2  0  0  0  0
 26 27  2  0  0  0  0
 26 52  1  0  0  0  0
 27 28  1  0  0  0  0
 28 29  2  0  0  0  0
 28 53  1  0  0  0  0
 29 30  1  0  0  0  0
 29 34  1  0  0  0  0
 30 31  2  0  0  0  0
 30 54  1  0  0  0  0
 31 32  1  0  0  0  0
 31 55  1  0  0  0  0
 32 33  2  0  0  0  0
 32 56  1  0  0  0  0
 33 34  1  0  0  0  0
 33 57  1  0  0  0  0
 35 36  2  0  0  0  0
M  END
$$$$
