
 OpenBabel07202414163D

 58 60  0  0  1  0  0  0  0  0999 V2000
   -1.3258   -2.2733   -1.3241 C   0  0  0  0  0  0  0  0  0  0  0  0
   -0.7014   -0.9883   -0.8745 C   0  0  0  0  0  0  0  0  0  0  0  0
    0.6313   -0.9365   -0.4907 C   0  0  0  0  0  0  0  0  0  0  0  0
    1.2213    0.1588    0.0301 N   0  0  0  0  0  0  0  0  0  0  0  0
    0.4518    1.2601    0.1833 C   0  0  0  0  0  0  0  0  0  0  0  0
   -0.8927    1.3353   -0.1839 C   0  0  0  0  0  0  0  0  0  0  0  0
   -1.7278    2.5881    0.0407 C   0  0  3  0  0  0  0  0  0  0  0  0
   -2.4050    2.7613    1.3850 N   0  0  0  0  0  0  0  0  0  0  0  0
   -2.6005    1.8355    2.4175 C   0  0  0  0  0  0  0  0  0  0  0  0
   -3.3620    2.0168    3.3729 O   0  0  0  0  0  0  0  0  0  0  0  0
   -1.9103    0.5305    2.3883 C   0  0  0  0  0  0  0  0  0  0  0  0
   -2.6335   -0.5980    2.4096 C   0  0  0  0  0  0  0  0  0  0  0  0
   -3.1291    4.0039    1.5454 C   0  0  0  0  0  0  0  0  0  0  0  0
   -2.9765    4.7492    2.7237 C   0  0  0  0  0  0  0  0  0  0  0  0
   -3.7009    5.9256    2.9338 C   0  0  0  0  0  0  0  0  0  0  0  0
   -4.6064    6.3831    1.9701 C   0  0  0  0  0  0  0  0  0  0  0  0
   -5.4187    7.6361    2.1977 C   0  0  0  0  0  0  0  0  0  0  0  0
   -5.1461    8.2638    3.3750 F   0  0  0  0  0  0  0  0  0  0  0  0
   -5.2145    8.5672    1.2235 F   0  0  0  0  0  0  0  0  0  0  0  0
   -6.7592    7.3950    2.2040 F   0  0  0  0  0  0  0  0  0  0  0  0
   -4.7582    5.6428    0.7868 C   0  0  0  0  0  0  0  0  0  0  0  0
   -4.0200    4.4705    0.5705 C   0  0  0  0  0  0  0  0  0  0  0  0
   -0.8424    3.8504   -0.2857 C   0  0  0  0  0  0  0  0  0  0  0  0
   -0.1043    4.3691    0.5533 O   0  0  0  0  0  0  0  0  0  0  0  0
   -0.8664    4.2990   -1.6031 N   0  0  0  0  0  0  0  0  0  0  0  0
   -0.0244    5.4295   -1.9894 C   0  0  0  0  0  0  0  0  0  0  0  0
   -0.1069    5.7924   -3.4763 C   0  0  0  0  0  0  0  0  0  0  0  0
    0.8243    6.9259   -3.8506 C   0  0  0  0  0  0  0  0  0  0  0  0
    2.1411    6.6659   -4.2613 C   0  0  0  0  0  0  0  0  0  0  0  0
    3.0083    7.7107   -4.6071 C   0  0  0  0  0  0  0  0  0  0  0  0
    2.5668    9.0311   -4.5429 C   0  0  0  0  0  0  0  0  0  0  0  0
    1.2666    9.2933   -4.1301 C   0  0  0  0  0  0  0  0  0  0  0  0
    0.8413   10.5628   -4.0675 F   0  0  0  0  0  0  0  0  0  0  0  0
    0.3966    8.2604   -3.7827 C   0  0  0  0  0  0  0  0  0  0  0  0
   -1.4633    0.1788   -0.7359 C   0  0  0  0  0  0  0  0  0  0  0  0
   -0.5670   -3.0188   -1.5857 H   0  0  0  0  0  0  0  0  0  0  0  0
   -1.9538   -2.1137   -2.2053 H   0  0  0  0  0  0  0  0  0  0  0  0
   -1.9407   -2.6855   -0.5161 H   0  0  0  0  0  0  0  0  0  0  0  0
    1.2825   -1.8036   -0.5762 H   0  0  0  0  0  0  0  0  0  0  0  0
    0.9677    2.0894    0.6639 H   0  0  0  0  0  0  0  0  0  0  0  0
   -2.5336    2.5569   -0.7032 H   0  0  0  0  0  0  0  0  0  0  0  0
   -0.8304    0.5173    2.4290 H   0  0  0  0  0  0  0  0  0  0  0  0
   -3.7195   -0.5768    2.4263 H   0  0  0  0  0  0  0  0  0  0  0  0
   -2.1456   -1.5666    2.4244 H   0  0  0  0  0  0  0  0  0  0  0  0
   -2.2843    4.4164    3.4956 H   0  0  0  0  0  0  0  0  0  0  0  0
   -3.5596    6.4723    3.8653 H   0  0  0  0  0  0  0  0  0  0  0  0
   -5.4773    5.9670    0.0353 H   0  0  0  0  0  0  0  0  0  0  0  0
   -4.2203    3.9015   -0.3313 H   0  0  0  0  0  0  0  0  0  0  0  0
   -1.6292    4.0238   -2.2085 H   0  0  0  0  0  0  0  0  0  0  0  0
    1.0081    5.1732   -1.7212 H   0  0  0  0  0  0  0  0  0  0  0  0
   -0.3162    6.2862   -1.3706 H   0  0  0  0  0  0  0  0  0  0  0  0
   -1.1370    6.0673   -3.7379 H   0  0  0  0  0  0  0  0  0  0  0  0
    0.1265    4.9155   -4.0944 H   0  0  0  0  0  0  0  0  0  0  0  0
    2.5070    5.6424   -4.3195 H   0  0  0  0  0  0  0  0  0  0  0  0
    4.0259    7.4884   -4.9254 H   0  0  0  0  0  0  0  0  0  0  0  0
    3.2255    9.8523   -4.8089 H   0  0  0  0  0  0  0  0  0  0  0  0
   -0.6104    8.5149   -3.4651 H   0  0  0  0  0  0  0  0  0  0  0  0
   -2.5177    0.1584   -1.0030 H   0  0  0  0  0  0  0  0  0  0  0  0
  1  2  1  0  0  0  0
  1 36  1  0  0  0  0
  1 37  1  0  0  0  0
  1 38  1  0  0  0  0
  2  3  1  0  0  0  0
  2 35  2  0  0  0  0
  3  4  2  0  0  0  0
  3 39  1  0  0  0  0
  4  5  1  0  0  0  0
  5  6  2  0  0  0  0
  5 40  1  0  0  0  0
  6  7  1  0  0  0  0
  6 35  1  0  0  0  0
  7  8  1  0  0  0  0
  7 23  1  0  0  0  0
  7 41  1  0  0  0  0
  8  9  1  0  0  0  0
  8 13  1  0  0  0  0
  9 10  2  0  0  0  0
  9 11  1  0  0  0  0
 11 12  2  0  0  0  0
 11 42  1  0  0  0  0
 12 43  1  0  0  0  0
 12 44  1  0  0  0  0
 13 14  1  0  0  0  0
 13 22  2  0  0  0  0
 14 15  2  0  0  0  0
 14 45  1  0  0  0  0
 15 16  1  0  0  0  0
 15 46  1  0  0  0  0
 16 17  1  0  0  0  0
 16 21  2  0  0  0  0
 17 18  1  0  0  0  0
 17 19  1  0  0  0  0
 17 20  1  0  0  0  0
 21 22  1  0  0  0  0
 21 47  1  0  0  0  0
 22 48  1  0  0  0  0
 23 24  2  0  0  0  0
 23 25  1  0  0  0  0
 25 26  1  0  0  0  0
 25 49  1  0  0  0  0
 26 27  1  0  0  0  0
 26 50  1  0  0  0  0
 26 51  1  0  0  0  0
 27 28  1  0  0  0  0
 27 52  1  0  0  0  0
 27 53  1  0  0  0  0
 28 29  1  0  0  0  0
 28 34  2  0  0  0  0
 29 30  2  0  0  0  0
 29 54  1  0  0  0  0
 30 31  1  0  0  0  0
 30 55  1  0  0  0  0
 31 32  2  0  0  0  0
 31 56  1  0  0  0  0
 32 33  1  0  0  0  0
 32 34  1  0  0  0  0
 34 57  1  0  0  0  0
 35 58  1  0  0  0  0
M  END
$$$$
