
 OpenBabel07202414133D

 44 46  0  0  0  0  0  0  0  0999 V2000
    1.3666   -0.5439   -0.0675 C   0  0  0  0  0  0  0  0  0  0  0  0
    2.8269   -0.1937    0.2380 C   0  0  0  0  0  0  0  0  0  0  0  0
    3.1234   -0.3683    1.7317 C   0  0  0  0  0  0  0  0  0  0  0  0
    2.2455   -0.7898    2.4826 O   0  0  0  0  0  0  0  0  0  0  0  0
    4.4144    0.0040    2.1292 N   0  0  0  0  0  0  0  0  0  0  0  0
    4.9134   -0.1179    3.4663 C   0  0  0  0  0  0  0  0  0  0  0  0
    4.2847   -0.8979    4.4516 C   0  0  0  0  0  0  0  0  0  0  0  0
    4.7381   -0.9380    5.7988 C   0  0  0  0  0  0  0  0  0  0  0  0
    5.8371   -0.2221    6.2536 C   0  0  0  0  0  0  0  0  0  0  0  0
    6.5124    0.4921    5.2191 C   0  0  0  0  0  0  0  0  0  0  0  0
    6.0579    0.5427    3.8645 C   0  0  0  0  0  0  0  0  0  0  0  0
    6.2372   -0.2102    7.6915 N   0  0  0  0  0  0  0  0  0  0  0  0
    7.4430    0.5567    8.0343 C   0  0  0  0  0  0  0  0  0  0  0  0
    5.5095   -0.9162    8.7896 C   0  0  0  0  0  0  0  0  0  0  0  0
    4.4939   -1.5992    8.6234 O   0  0  0  0  0  0  0  0  0  0  0  0
    6.0769   -0.7071   10.1986 C   0  0  0  0  0  0  0  0  0  0  0  0
    5.8037   -1.4838   11.4501 N   0  0  0  0  0  0  0  0  0  0  0  0
    4.7222   -1.8486   12.2643 C   0  0  0  0  0  0  0  0  0  0  0  0
    3.3287   -2.0660   12.1496 C   0  0  0  0  0  0  0  0  0  0  0  0
    2.6024   -2.4688   13.3121 C   0  0  0  0  0  0  0  0  0  0  0  0
    3.2106   -2.6380   14.5559 C   0  0  0  0  0  0  0  0  0  0  0  0
    4.5788   -2.4331   14.6697 C   0  0  0  0  0  0  0  0  0  0  0  0
    5.3172   -2.0616   13.5269 C   0  0  0  0  0  0  0  0  0  0  0  0
    6.6553   -1.8602   13.4481 N   0  0  0  0  0  0  0  0  0  0  0  0
    6.9485   -1.5573   12.2042 N   0  0  0  0  0  0  0  0  0  0  0  0
    1.1388   -0.4348   -1.1323 H   0  0  0  0  0  0  0  0  0  0  0  0
    0.6826    0.1054    0.4921 H   0  0  0  0  0  0  0  0  0  0  0  0
    1.1410   -1.5779    0.2201 H   0  0  0  0  0  0  0  0  0  0  0  0
    3.0176    0.8412   -0.0648 H   0  0  0  0  0  0  0  0  0  0  0  0
    3.4797   -0.8552   -0.3415 H   0  0  0  0  0  0  0  0  0  0  0  0
    4.9884    0.5139    1.4619 H   0  0  0  0  0  0  0  0  0  0  0  0
    3.4263   -1.5108    4.2066 H   0  0  0  0  0  0  0  0  0  0  0  0
    4.1551   -1.5771    6.4575 H   0  0  0  0  0  0  0  0  0  0  0  0
    7.4196    1.0664    5.3940 H   0  0  0  0  0  0  0  0  0  0  0  0
    6.6249    1.1394    3.1494 H   0  0  0  0  0  0  0  0  0  0  0  0
    7.8437    1.1763    7.2329 H   0  0  0  0  0  0  0  0  0  0  0  0
    8.2340   -0.1369    8.3349 H   0  0  0  0  0  0  0  0  0  0  0  0
    7.2225    1.2404    8.8563 H   0  0  0  0  0  0  0  0  0  0  0  0
    5.9598    0.3417   10.4896 H   0  0  0  0  0  0  0  0  0  0  0  0
    7.1440   -0.9226   10.0558 H   0  0  0  0  0  0  0  0  0  0  0  0
    2.8037   -1.9832   11.2044 H   0  0  0  0  0  0  0  0  0  0  0  0
    1.5303   -2.6679   13.2464 H   0  0  0  0  0  0  0  0  0  0  0  0
    2.6324   -2.9403   15.4305 H   0  0  0  0  0  0  0  0  0  0  0  0
    5.0860   -2.5758   15.6246 H   0  0  0  0  0  0  0  0  0  0  0  0
  1  2  1  0  0  0  0
  1 26  1  0  0  0  0
  1 27  1  0  0  0  0
  1 28  1  0  0  0  0
  2  3  1  0  0  0  0
  2 29  1  0  0  0  0
  2 30  1  0  0  0  0
  3  4  2  0  0  0  0
  3  5  1  0  0  0  0
  5  6  1  0  0  0  0
  5 31  1  0  0  0  0
  6  7  1  0  0  0  0
  6 11  2  0  0  0  0
  7  8  2  0  0  0  0
  7 32  1  0  0  0  0
  8  9  1  0  0  0  0
  8 33  1  0  0  0  0
  9 10  2  0  0  0  0
  9 12  1  0  0  0  0
 10 11  1  0  0  0  0
 10 34  1  0  0  0  0
 11 35  1  0  0  0  0
 12 13  1  0  0  0  0
 12 14  1  0  0  0  0
 13 36  1  0  0  0  0
 13 37  1  0  0  0  0
 13 38  1  0  0  0  0
 14 15  2  0  0  0  0
 14 16  1  0  0  0  0
 16 17  1  0  0  0  0
 16 39  1  0  0  0  0
 16 40  1  0  0  0  0
 17 18  1  0  0  0  0
 17 25  1  0  0  0  0
 18 19  1  0  0  0  0
 18 23  2  0  0  0  0
 19 20  2  0  0  0  0
 19 41  1  0  0  0  0
 20 21  1  0  0  0  0
 20 42  1  0  0  0  0
 21 22  2  0  0  0  0
 21 43  1  0  0  0  0
 22 23  1  0  0  0  0
 22 44  1  0  0  0  0
 23 24  1  0  0  0  0
 24 25  2  0  0  0  0
M  END
$$$$
