
 OpenBabel07202414203D

 65 70  0  0  1  0  0  0  0  0999 V2000
    0.3703    1.0750   -4.9185 O   0  0  0  0  0  0  0  0  0  0  0  0
   -0.2946    1.5821   -3.7301 C   0  0  0  0  0  0  0  0  0  0  0  0
    0.4686    1.2242   -2.4480 C   0  0  0  0  0  0  0  0  0  0  0  0
    1.8094    1.7674   -2.5337 N   0  0  0  0  0  0  0  0  0  0  0  0
    2.8589    1.0443   -3.0592 C   0  0  0  0  0  0  0  0  0  0  0  0
    2.7097   -0.0927   -3.5052 O   0  0  0  0  0  0  0  0  0  0  0  0
    4.2004    1.7981   -3.0642 C   0  0  0  0  0  0  0  0  0  0  0  0
    4.6953    2.0096   -4.4299 N   0  0  0  0  0  0  0  0  0  0  0  0
    6.0075    2.6564   -4.4709 C   0  0  0  0  0  0  0  0  0  0  0  0
    5.9907    4.1721   -4.5234 C   0  0  0  0  0  0  0  0  0  0  0  0
    7.1902    4.8594   -4.2594 C   0  0  0  0  0  0  0  0  0  0  0  0
    7.2674    6.2466   -4.3930 C   0  0  0  0  0  0  0  0  0  0  0  0
    6.1450    6.9619   -4.7875 C   0  0  0  0  0  0  0  0  0  0  0  0
    6.2372    8.6663   -5.0013 Cl  0  0  0  0  0  0  0  0  0  0  0  0
    4.9463    6.3026   -5.0418 C   0  0  0  0  0  0  0  0  0  0  0  0
    4.8540    4.9002   -4.9341 C   0  0  0  0  0  0  0  0  0  0  0  0
    3.5380    4.1824   -5.2491 C   0  0  3  0  0  0  0  0  0  0  0  0
    2.9748    4.6106   -6.6211 C   0  0  0  0  0  0  0  0  0  0  0  0
    1.7466    5.4436   -6.3622 C   0  0  0  0  0  0  0  0  0  0  0  0
    1.5531    5.5153   -4.9380 N   0  0  0  0  0  0  0  0  0  0  0  0
    0.8522    6.6438   -4.3727 C   0  0  0  0  0  0  0  0  0  0  0  0
    1.2741    7.1847   -3.1558 C   0  0  0  0  0  0  0  0  0  0  0  0
    1.0467    8.4638   -2.7736 N   0  0  0  0  0  0  0  0  0  0  0  0
    0.2753    9.2112   -3.5872 C   0  0  0  0  0  0  0  0  0  0  0  0
   -0.4188    8.7134   -4.6846 C   0  0  0  0  0  0  0  0  0  0  0  0
   -1.3673    9.5043   -5.3661 C   0  0  0  0  0  0  0  0  0  0  0  0
   -2.0899    8.9911   -6.4364 C   0  0  0  0  0  0  0  0  0  0  0  0
   -1.8595    7.6875   -6.8525 C   0  0  0  0  0  0  0  0  0  0  0  0
   -0.9166    6.9056   -6.1828 C   0  0  0  0  0  0  0  0  0  0  0  0
   -0.1407    7.3852   -5.0933 C   0  0  0  0  0  0  0  0  0  0  0  0
    2.4482    4.6611   -4.2580 C   0  0  0  0  0  0  0  0  0  0  0  0
    2.4136    4.4088   -3.0532 O   0  0  0  0  0  0  0  0  0  0  0  0
    3.7533    2.6501   -5.3466 C   0  0  0  0  0  0  0  0  0  0  0  0
   -1.8196    1.2661   -3.6671 C   0  0  0  0  0  0  0  0  0  0  0  0
   -2.0699    2.6167   -4.3635 C   0  0  0  0  0  0  0  0  0  0  0  0
   -0.7091    3.0769   -3.8265 C   0  0  0  0  0  0  0  0  0  0  0  0
    0.8243    0.2548   -4.6336 H   0  0  0  0  0  0  0  0  0  0  0  0
    0.5186    0.1381   -2.3160 H   0  0  0  0  0  0  0  0  0  0  0  0
   -0.0024    1.6592   -1.5609 H   0  0  0  0  0  0  0  0  0  0  0  0
    1.9274    2.7813   -2.4680 H   0  0  0  0  0  0  0  0  0  0  0  0
    4.8996    1.1503   -2.5192 H   0  0  0  0  0  0  0  0  0  0  0  0
    4.1341    2.7323   -2.5046 H   0  0  0  0  0  0  0  0  0  0  0  0
    6.5254    2.3146   -5.3774 H   0  0  0  0  0  0  0  0  0  0  0  0
    6.6263    2.3174   -3.6295 H   0  0  0  0  0  0  0  0  0  0  0  0
    8.0836    4.3107   -3.9666 H   0  0  0  0  0  0  0  0  0  0  0  0
    8.2062    6.7590   -4.2006 H   0  0  0  0  0  0  0  0  0  0  0  0
    4.0831    6.8944   -5.3406 H   0  0  0  0  0  0  0  0  0  0  0  0
    2.6663    3.7493   -7.2286 H   0  0  0  0  0  0  0  0  0  0  0  0
    3.7007    5.1540   -7.2364 H   0  0  0  0  0  0  0  0  0  0  0  0
    0.8908    4.9291   -6.8042 H   0  0  0  0  0  0  0  0  0  0  0  0
    1.8610    6.4412   -6.7973 H   0  0  0  0  0  0  0  0  0  0  0  0
    1.8841    6.6313   -2.4493 H   0  0  0  0  0  0  0  0  0  0  0  0
    0.2215   10.2640   -3.3134 H   0  0  0  0  0  0  0  0  0  0  0  0
   -1.5788   10.5193   -5.0280 H   0  0  0  0  0  0  0  0  0  0  0  0
   -2.8464    9.5940   -6.9256 H   0  0  0  0  0  0  0  0  0  0  0  0
   -2.4261    7.2707   -7.6795 H   0  0  0  0  0  0  0  0  0  0  0  0
   -0.8434    5.8679   -6.4941 H   0  0  0  0  0  0  0  0  0  0  0  0
    4.1751    2.4373   -6.3430 H   0  0  0  0  0  0  0  0  0  0  0  0
    2.7916    2.1276   -5.3584 H   0  0  0  0  0  0  0  0  0  0  0  0
   -2.2345    1.2121   -2.6539 H   0  0  0  0  0  0  0  0  0  0  0  0
   -2.1528    0.3916   -4.2324 H   0  0  0  0  0  0  0  0  0  0  0  0
   -2.9309    3.1914   -4.0150 H   0  0  0  0  0  0  0  0  0  0  0  0
   -2.1017    2.5536   -5.4576 H   0  0  0  0  0  0  0  0  0  0  0  0
   -0.7566    3.6058   -2.8680 H   0  0  0  0  0  0  0  0  0  0  0  0
   -0.1397    3.6691   -4.5389 H   0  0  0  0  0  0  0  0  0  0  0  0
  1  2  1  0  0  0  0
  1 37  1  0  0  0  0
  2  3  1  0  0  0  0
  2 34  1  0  0  0  0
  2 36  1  0  0  0  0
  3  4  1  0  0  0  0
  3 38  1  0  0  0  0
  3 39  1  0  0  0  0
  4  5  1  0  0  0  0
  4 40  1  0  0  0  0
  5  6  2  0  0  0  0
  5  7  1  0  0  0  0
  7  8  1  0  0  0  0
  7 41  1  0  0  0  0
  7 42  1  0  0  0  0
  8  9  1  0  0  0  0
  8 33  1  0  0  0  0
  9 10  1  0  0  0  0
  9 43  1  0  0  0  0
  9 44  1  0  0  0  0
 10 11  1  0  0  0  0
 10 16  2  0  0  0  0
 11 12  2  0  0  0  0
 11 45  1  0  0  0  0
 12 13  1  0  0  0  0
 12 46  1  0  0  0  0
 13 14  1  0  0  0  0
 13 15  2  0  0  0  0
 15 16  1  0  0  0  0
 15 47  1  0  0  0  0
 16 17  1  0  0  0  0
 17 18  1  0  0  0  0
 17 31  1  0  0  0  0
 17 33  1  0  0  0  0
 18 19  1  0  0  0  0
 18 48  1  0  0  0  0
 18 49  1  0  0  0  0
 19 20  1  0  0  0  0
 19 50  1  0  0  0  0
 19 51  1  0  0  0  0
 20 21  1  0  0  0  0
 20 31  1  0  0  0  0
 21 22  1  0  0  0  0
 21 30  2  0  0  0  0
 22 23  2  0  0  0  0
 22 52  1  0  0  0  0
 23 24  1  0  0  0  0
 24 25  2  0  0  0  0
 24 53  1  0  0  0  0
 25 26  1  0  0  0  0
 25 30  1  0  0  0  0
 26 27  2  0  0  0  0
 26 54  1  0  0  0  0
 27 28  1  0  0  0  0
 27 55  1  0  0  0  0
 28 29  2  0  0  0  0
 28 56  1  0  0  0  0
 29 30  1  0  0  0  0
 29 57  1  0  0  0  0
 31 32  2  0  0  0  0
 33 58  1  0  0  0  0
 33 59  1  0  0  0  0
 34 35  1  0  0  0  0
 34 60  1  0  0  0  0
 34 61  1  0  0  0  0
 35 36  1  0  0  0  0
 35 62  1  0  0  0  0
 35 63  1  0  0  0  0
 36 64  1  0  0  0  0
 36 65  1  0  0  0  0
M  END
$$$$
