
 OpenBabel07202414173D

 57 61  0  0  1  0  0  0  0  0999 V2000
    0.9223   -0.0019    0.0420 Cl  0  0  0  0  0  0  0  0  0  0  0  0
    2.6365   -0.1089   -0.0321 C   0  0  0  0  0  0  0  0  0  0  0  0
    3.3969    1.0558   -0.0414 C   0  0  0  0  0  0  0  0  0  0  0  0
    4.7846    0.9669   -0.0749 C   0  0  0  0  0  0  0  0  0  0  0  0
    5.4162   -0.2872   -0.1154 C   0  0  0  0  0  0  0  0  0  0  0  0
    4.6479   -1.4668   -0.1860 C   0  0  0  0  0  0  0  0  0  0  0  0
    3.2496   -1.3608   -0.0940 C   0  0  0  0  0  0  0  0  0  0  0  0
    5.3340   -2.8399   -0.3363 C   0  0  1  0  0  0  0  0  0  0  0  0
    4.6957   -3.7532   -1.4369 C   0  0  0  0  0  0  0  0  0  0  0  0
    4.6458   -4.9795   -1.3283 O   0  0  0  0  0  0  0  0  0  0  0  0
    4.2314   -3.0223   -2.5140 N   0  0  0  0  0  0  0  0  0  0  0  0
    3.6792   -3.4357   -3.7485 C   0  0  0  0  0  0  0  0  0  0  0  0
    3.4563   -4.7609   -4.1021 C   0  0  0  0  0  0  0  0  0  0  0  0
    3.3173   -5.1651   -5.3869 N   0  0  0  0  0  0  0  0  0  0  0  0
    3.2885   -4.1969   -6.3314 C   0  0  0  0  0  0  0  0  0  0  0  0
    3.1935   -2.8338   -6.0604 C   0  0  0  0  0  0  0  0  0  0  0  0
    2.8810   -1.8842   -7.0576 C   0  0  0  0  0  0  0  0  0  0  0  0
    2.8393   -0.5237   -6.7599 C   0  0  0  0  0  0  0  0  0  0  0  0
    3.1492   -0.0960   -5.4779 C   0  0  0  0  0  0  0  0  0  0  0  0
    3.4312   -1.0317   -4.4805 C   0  0  0  0  0  0  0  0  0  0  0  0
    3.4353   -2.4295   -4.7338 C   0  0  0  0  0  0  0  0  0  0  0  0
    6.8579   -2.6792   -0.6086 C   0  0  0  0  0  0  0  0  0  0  0  0
    7.4576   -1.6463    0.2794 N   0  0  0  0  0  0  0  0  0  0  0  0
    8.9314   -1.5456    0.1580 C   0  0  0  0  0  0  0  0  0  0  0  0
    9.6596   -2.8307    0.5116 C   0  0  0  0  0  0  0  0  0  0  0  0
   10.4505   -3.3087   -0.2959 O   0  0  0  0  0  0  0  0  0  0  0  0
    9.3678   -3.3217    1.7734 N   0  0  0  0  0  0  0  0  0  0  0  0
    9.8963   -4.5046    2.3262 C   0  0  0  0  0  0  0  0  0  0  0  0
   10.9498   -5.2174    1.7579 C   0  0  0  0  0  0  0  0  0  0  0  0
   11.3345   -6.4690    2.2466 C   0  0  0  0  0  0  0  0  0  0  0  0
   10.6832   -7.0070    3.3484 C   0  0  0  0  0  0  0  0  0  0  0  0
    9.6730   -6.2797    3.9791 C   0  0  0  0  0  0  0  0  0  0  0  0
    9.2826   -5.0349    3.4651 C   0  0  0  0  0  0  0  0  0  0  0  0
    6.9216   -0.3278   -0.1089 C   0  0  0  0  0  0  0  0  0  0  0  0
    2.9196    2.0312   -0.0019 H   0  0  0  0  0  0  0  0  0  0  0  0
    5.3762    1.8811   -0.0518 H   0  0  0  0  0  0  0  0  0  0  0  0
    2.6329   -2.2580   -0.0901 H   0  0  0  0  0  0  0  0  0  0  0  0
    5.1985   -3.3474    0.6258 H   0  0  0  0  0  0  0  0  0  0  0  0
    4.4531   -2.0411   -2.4770 H   0  0  0  0  0  0  0  0  0  0  0  0
    3.4178   -5.5656   -3.3734 H   0  0  0  0  0  0  0  0  0  0  0  0
    3.3853   -4.5559   -7.3533 H   0  0  0  0  0  0  0  0  0  0  0  0
    2.6221   -2.2079   -8.0641 H   0  0  0  0  0  0  0  0  0  0  0  0
    2.5616    0.2002   -7.5218 H   0  0  0  0  0  0  0  0  0  0  0  0
    3.1506    0.9642   -5.2383 H   0  0  0  0  0  0  0  0  0  0  0  0
    3.6091   -0.6349   -3.4861 H   0  0  0  0  0  0  0  0  0  0  0  0
    7.0435   -2.4306   -1.6638 H   0  0  0  0  0  0  0  0  0  0  0  0
    7.3287   -3.6539   -0.4341 H   0  0  0  0  0  0  0  0  0  0  0  0
    9.3103   -0.7692    0.8382 H   0  0  0  0  0  0  0  0  0  0  0  0
    9.2266   -1.2611   -0.8599 H   0  0  0  0  0  0  0  0  0  0  0  0
    8.5905   -2.8765    2.2523 H   0  0  0  0  0  0  0  0  0  0  0  0
   11.4966   -4.8339    0.9024 H   0  0  0  0  0  0  0  0  0  0  0  0
   12.1334   -7.0139    1.7520 H   0  0  0  0  0  0  0  0  0  0  0  0
   10.9654   -7.9900    3.7143 H   0  0  0  0  0  0  0  0  0  0  0  0
    9.1752   -6.7014    4.8489 H   0  0  0  0  0  0  0  0  0  0  0  0
    8.4700   -4.5021    3.9731 H   0  0  0  0  0  0  0  0  0  0  0  0
    7.2780   -0.0265   -1.1046 H   0  0  0  0  0  0  0  0  0  0  0  0
    7.2798    0.4175    0.6141 H   0  0  0  0  0  0  0  0  0  0  0  0
  1  2  1  0  0  0  0
  2  3  1  0  0  0  0
  2  7  2  0  0  0  0
  3  4  2  0  0  0  0
  3 35  1  0  0  0  0
  4  5  1  0  0  0  0
  4 36  1  0  0  0  0
  5  6  2  0  0  0  0
  5 34  1  0  0  0  0
  6  7  1  0  0  0  0
  6  8  1  0  0  0  0
  7 37  1  0  0  0  0
  8 22  1  0  0  0  0
  8  9  1  0  0  0  0
  8 38  1  1  0  0  0
  9 10  2  0  0  0  0
  9 11  1  0  0  0  0
 11 12  1  0  0  0  0
 11 39  1  0  0  0  0
 12 13  1  0  0  0  0
 12 21  2  0  0  0  0
 13 14  2  0  0  0  0
 13 40  1  0  0  0  0
 14 15  1  0  0  0  0
 15 16  2  0  0  0  0
 15 41  1  0  0  0  0
 16 17  1  0  0  0  0
 16 21  1  0  0  0  0
 17 18  2  0  0  0  0
 17 42  1  0  0  0  0
 18 19  1  0  0  0  0
 18 43  1  0  0  0  0
 19 20  2  0  0  0  0
 19 44  1  0  0  0  0
 20 21  1  0  0  0  0
 20 45  1  0  0  0  0
 22 23  1  0  0  0  0
 22 46  1  0  0  0  0
 22 47  1  0  0  0  0
 23 24  1  0  0  0  0
 23 34  1  0  0  0  0
 24 25  1  0  0  0  0
 24 48  1  0  0  0  0
 24 49  1  0  0  0  0
 25 26  2  0  0  0  0
 25 27  1  0  0  0  0
 27 28  1  0  0  0  0
 27 50  1  0  0  0  0
 28 29  1  0  0  0  0
 28 33  2  0  0  0  0
 29 30  2  0  0  0  0
 29 51  1  0  0  0  0
 30 31  1  0  0  0  0
 30 52  1  0  0  0  0
 31 32  2  0  0  0  0
 31 53  1  0  0  0  0
 32 33  1  0  0  0  0
 32 54  1  0  0  0  0
 33 55  1  0  0  0  0
 34 56  1  0  0  0  0
 34 57  1  0  0  0  0
M  END
$$$$
