
 OpenBabel07202414143D

 62 66  0  0  0  0  0  0  0  0999 V2000
    5.0599   -2.6943   -1.4370 C   0  0  0  0  0  0  0  0  0  0  0  0
    3.9554   -3.0073   -0.5909 O   0  0  0  0  0  0  0  0  0  0  0  0
    3.8543   -2.2667    0.5674 C   0  0  0  0  0  0  0  0  0  0  0  0
    2.5707   -2.0977    1.1497 C   0  0  0  0  0  0  0  0  0  0  0  0
    1.3901   -2.5605    0.6005 N   0  0  0  0  0  0  0  0  0  0  0  0
    1.1509   -2.6918   -0.8515 C   0  0  0  0  0  0  0  0  0  0  0  0
   -0.1593   -1.9765   -1.2648 C   0  0  0  0  0  0  0  0  0  0  0  0
   -1.2923   -2.2709   -0.3659 N   0  0  0  0  0  0  0  0  0  0  0  0
   -2.4975   -2.7645   -0.8137 C   0  0  0  0  0  0  0  0  0  0  0  0
   -2.5547   -3.7370   -1.8288 C   0  0  0  0  0  0  0  0  0  0  0  0
   -3.7695   -4.1934   -2.3579 C   0  0  0  0  0  0  0  0  0  0  0  0
   -3.8246   -5.2302   -3.4617 C   0  0  0  0  0  0  0  0  0  0  0  0
   -2.6816   -5.2221   -4.4706 C   0  0  0  0  0  0  0  0  0  0  0  0
   -2.1242   -6.2698   -4.8035 O   0  0  0  0  0  0  0  0  0  0  0  0
   -2.3797   -3.9756   -4.9921 N   0  0  0  0  0  0  0  0  0  0  0  0
   -1.3144   -3.7823   -5.9026 C   0  0  0  0  0  0  0  0  0  0  0  0
   -0.2707   -2.9398   -5.5306 C   0  0  0  0  0  0  0  0  0  0  0  0
    0.7622   -2.5836   -6.3245 N   0  0  0  0  0  0  0  0  0  0  0  0
    0.6667   -2.9831   -7.6119 C   0  0  0  0  0  0  0  0  0  0  0  0
   -0.4082   -3.6992   -8.1417 C   0  0  0  0  0  0  0  0  0  0  0  0
   -0.5755   -3.8390   -9.5280 C   0  0  0  0  0  0  0  0  0  0  0  0
   -1.6458   -4.5650  -10.0432 C   0  0  0  0  0  0  0  0  0  0  0  0
   -2.4977   -5.2388   -9.1774 C   0  0  0  0  0  0  0  0  0  0  0  0
   -2.3652   -5.0678   -7.7973 C   0  0  0  0  0  0  0  0  0  0  0  0
   -1.3700   -4.2251   -7.2501 C   0  0  0  0  0  0  0  0  0  0  0  0
   -4.9629   -3.7209   -1.7978 C   0  0  0  0  0  0  0  0  0  0  0  0
   -4.9289   -2.7910   -0.7597 C   0  0  0  0  0  0  0  0  0  0  0  0
   -6.4023   -2.2181   -0.0804 Cl  0  0  0  0  0  0  0  0  0  0  0  0
   -3.7103   -2.3137   -0.2785 C   0  0  0  0  0  0  0  0  0  0  0  0
   -1.0113   -2.1569    1.0734 C   0  0  0  0  0  0  0  0  0  0  0  0
    0.2417   -2.9895    1.4223 C   0  0  0  0  0  0  0  0  0  0  0  0
    2.5277   -1.3914    2.3717 C   0  0  0  0  0  0  0  0  0  0  0  0
    3.6729   -0.8994    3.0045 C   0  0  0  0  0  0  0  0  0  0  0  0
    4.9141   -1.0960    2.4263 C   0  0  0  0  0  0  0  0  0  0  0  0
    5.0059   -1.7766    1.2156 C   0  0  0  0  0  0  0  0  0  0  0  0
    4.9029   -3.1962   -2.3965 H   0  0  0  0  0  0  0  0  0  0  0  0
    5.9975   -3.0771   -1.0221 H   0  0  0  0  0  0  0  0  0  0  0  0
    5.1245   -1.6170   -1.6294 H   0  0  0  0  0  0  0  0  0  0  0  0
    1.0876   -3.7598   -1.1041 H   0  0  0  0  0  0  0  0  0  0  0  0
    1.9472   -2.2475   -1.4582 H   0  0  0  0  0  0  0  0  0  0  0  0
   -0.3879   -2.2215   -2.3058 H   0  0  0  0  0  0  0  0  0  0  0  0
    0.0103   -0.8931   -1.2416 H   0  0  0  0  0  0  0  0  0  0  0  0
   -1.6173   -4.1555   -2.1894 H   0  0  0  0  0  0  0  0  0  0  0  0
   -4.7472   -5.1043   -4.0426 H   0  0  0  0  0  0  0  0  0  0  0  0
   -3.8589   -6.2215   -2.9927 H   0  0  0  0  0  0  0  0  0  0  0  0
   -2.5416   -3.2130   -4.3451 H   0  0  0  0  0  0  0  0  0  0  0  0
   -0.2310   -2.4972   -4.5409 H   0  0  0  0  0  0  0  0  0  0  0  0
    1.5033   -2.6821   -8.2360 H   0  0  0  0  0  0  0  0  0  0  0  0
    0.0910   -3.3219  -10.2151 H   0  0  0  0  0  0  0  0  0  0  0  0
   -1.8101   -4.6081  -11.1167 H   0  0  0  0  0  0  0  0  0  0  0  0
   -3.2883   -5.8713   -9.5723 H   0  0  0  0  0  0  0  0  0  0  0  0
   -3.0598   -5.5953   -7.1470 H   0  0  0  0  0  0  0  0  0  0  0  0
   -5.9227   -4.0804   -2.1606 H   0  0  0  0  0  0  0  0  0  0  0  0
   -3.7086   -1.5590    0.5034 H   0  0  0  0  0  0  0  0  0  0  0  0
   -1.8456   -2.5115    1.6872 H   0  0  0  0  0  0  0  0  0  0  0  0
   -0.8424   -1.0999    1.3228 H   0  0  0  0  0  0  0  0  0  0  0  0
    0.0386   -4.0456    1.2015 H   0  0  0  0  0  0  0  0  0  0  0  0
    0.4350   -2.9431    2.4982 H   0  0  0  0  0  0  0  0  0  0  0  0
    1.5759   -1.1813    2.8511 H   0  0  0  0  0  0  0  0  0  0  0  0
    3.5843   -0.3678    3.9471 H   0  0  0  0  0  0  0  0  0  0  0  0
    5.8119   -0.7309    2.9171 H   0  0  0  0  0  0  0  0  0  0  0  0
    5.9977   -1.9395    0.8099 H   0  0  0  0  0  0  0  0  0  0  0  0
  1  2  1  0  0  0  0
  1 36  1  0  0  0  0
  1 37  1  0  0  0  0
  1 38  1  0  0  0  0
  2  3  1  0  0  0  0
  3  4  2  0  0  0  0
  3 35  1  0  0  0  0
  4  5  1  0  0  0  0
  4 32  1  0  0  0  0
  5  6  1  0  0  0  0
  5 31  1  0  0  0  0
  6  7  1  0  0  0  0
  6 39  1  0  0  0  0
  6 40  1  0  0  0  0
  7  8  1  0  0  0  0
  7 41  1  0  0  0  0
  7 42  1  0  0  0  0
  8  9  1  0  0  0  0
  8 30  1  0  0  0  0
  9 10  2  0  0  0  0
  9 29  1  0  0  0  0
 10 11  1  0  0  0  0
 10 43  1  0  0  0  0
 11 12  1  0  0  0  0
 11 26  2  0  0  0  0
 12 13  1  0  0  0  0
 12 44  1  0  0  0  0
 12 45  1  0  0  0  0
 13 14  2  0  0  0  0
 13 15  1  0  0  0  0
 15 16  1  0  0  0  0
 15 46  1  0  0  0  0
 16 17  2  0  0  0  0
 16 25  1  0  0  0  0
 17 18  1  0  0  0  0
 17 47  1  0  0  0  0
 18 19  2  0  0  0  0
 19 20  1  0  0  0  0
 19 48  1  0  0  0  0
 20 21  2  0  0  0  0
 20 25  1  0  0  0  0
 21 22  1  0  0  0  0
 21 49  1  0  0  0  0
 22 23  2  0  0  0  0
 22 50  1  0  0  0  0
 23 24  1  0  0  0  0
 23 51  1  0  0  0  0
 24 25  2  0  0  0  0
 24 52  1  0  0  0  0
 26 27  1  0  0  0  0
 26 53  1  0  0  0  0
 27 28  1  0  0  0  0
 27 29  2  0  0  0  0
 29 54  1  0  0  0  0
 30 31  1  0  0  0  0
 30 55  1  0  0  0  0
 30 56  1  0  0  0  0
 31 57  1  0  0  0  0
 31 58  1  0  0  0  0
 32 33  2  0  0  0  0
 32 59  1  0  0  0  0
 33 34  1  0  0  0  0
 33 60  1  0  0  0  0
 34 35  2  0  0  0  0
 34 61  1  0  0  0  0
 35 62  1  0  0  0  0
M  END
$$$$
