
 OpenBabel07202414183D

 37 39  0  0  0  0  0  0  0  0999 V2000
   -2.6648   -3.1500    4.9160 F   0  0  0  0  0  0  0  0  0  0  0  0
   -1.9398   -4.1039    4.2667 C   0  0  0  0  0  0  0  0  0  0  0  0
   -2.3320   -5.2947    4.7998 F   0  0  0  0  0  0  0  0  0  0  0  0
   -2.3920   -4.1045    2.9818 F   0  0  0  0  0  0  0  0  0  0  0  0
   -0.4471   -3.8987    4.3539 C   0  0  0  0  0  0  0  0  0  0  0  0
    0.0914   -2.7722    4.9868 C   0  0  0  0  0  0  0  0  0  0  0  0
    1.4745   -2.5853    5.0488 C   0  0  0  0  0  0  0  0  0  0  0  0
    2.3538   -3.5283    4.4949 C   0  0  0  0  0  0  0  0  0  0  0  0
    3.8518   -3.3177    4.4922 C   0  0  0  0  0  0  0  0  0  0  0  0
    4.3933   -2.5844    5.7129 C   0  0  0  0  0  0  0  0  0  0  0  0
    4.4931   -1.3607    5.7154 O   0  0  0  0  0  0  0  0  0  0  0  0
    4.7218   -3.4288    6.7599 N   0  0  0  0  0  0  0  0  0  0  0  0
    5.1598   -3.0580    8.0609 C   0  0  0  0  0  0  0  0  0  0  0  0
    5.2861   -1.7263    8.4630 C   0  0  0  0  0  0  0  0  0  0  0  0
    5.5841   -1.3244    9.7211 N   0  0  0  0  0  0  0  0  0  0  0  0
    5.8280   -2.2959   10.6201 C   0  0  0  0  0  0  0  0  0  0  0  0
    5.8442   -3.6568   10.3252 C   0  0  0  0  0  0  0  0  0  0  0  0
    6.2392   -4.5947   11.2956 C   0  0  0  0  0  0  0  0  0  0  0  0
    6.2886   -5.9519   10.9937 C   0  0  0  0  0  0  0  0  0  0  0  0
    5.8971   -6.3882    9.7359 C   0  0  0  0  0  0  0  0  0  0  0  0
    5.4879   -5.4643    8.7678 C   0  0  0  0  0  0  0  0  0  0  0  0
    5.4779   -4.0667    9.0197 C   0  0  0  0  0  0  0  0  0  0  0  0
    1.8125   -4.6498    3.8499 C   0  0  0  0  0  0  0  0  0  0  0  0
    0.4268   -4.8361    3.7849 C   0  0  0  0  0  0  0  0  0  0  0  0
   -0.5627   -2.0221    5.4290 H   0  0  0  0  0  0  0  0  0  0  0  0
    1.8530   -1.6824    5.5267 H   0  0  0  0  0  0  0  0  0  0  0  0
    4.1291   -2.7427    3.6003 H   0  0  0  0  0  0  0  0  0  0  0  0
    4.3686   -4.2820    4.4113 H   0  0  0  0  0  0  0  0  0  0  0  0
    4.5582   -4.4125    6.6028 H   0  0  0  0  0  0  0  0  0  0  0  0
    5.1473   -0.8937    7.7826 H   0  0  0  0  0  0  0  0  0  0  0  0
    6.0328   -1.9321   11.6242 H   0  0  0  0  0  0  0  0  0  0  0  0
    6.5449   -4.2663   12.2875 H   0  0  0  0  0  0  0  0  0  0  0  0
    6.6380   -6.6642   11.7368 H   0  0  0  0  0  0  0  0  0  0  0  0
    5.9236   -7.4490    9.4977 H   0  0  0  0  0  0  0  0  0  0  0  0
    5.2068   -5.8676    7.8003 H   0  0  0  0  0  0  0  0  0  0  0  0
    2.4646   -5.3848    3.3750 H   0  0  0  0  0  0  0  0  0  0  0  0
    0.0302   -5.7109    3.2721 H   0  0  0  0  0  0  0  0  0  0  0  0
  1  2  1  0  0  0  0
  2  3  1  0  0  0  0
  2  4  1  0  0  0  0
  2  5  1  0  0  0  0
  5  6  1  0  0  0  0
  5 24  2  0  0  0  0
  6  7  2  0  0  0  0
  6 25  1  0  0  0  0
  7  8  1  0  0  0  0
  7 26  1  0  0  0  0
  8  9  1  0  0  0  0
  8 23  2  0  0  0  0
  9 10  1  0  0  0  0
  9 27  1  0  0  0  0
  9 28  1  0  0  0  0
 10 11  2  0  0  0  0
 10 12  1  0  0  0  0
 12 13  1  0  0  0  0
 12 29  1  0  0  0  0
 13 14  1  0  0  0  0
 13 22  2  0  0  0  0
 14 15  2  0  0  0  0
 14 30  1  0  0  0  0
 15 16  1  0  0  0  0
 16 17  2  0  0  0  0
 16 31  1  0  0  0  0
 17 18  1  0  0  0  0
 17 22  1  0  0  0  0
 18 19  2  0  0  0  0
 18 32  1  0  0  0  0
 19 20  1  0  0  0  0
 19 33  1  0  0  0  0
 20 21  2  0  0  0  0
 20 34  1  0  0  0  0
 21 22  1  0  0  0  0
 21 35  1  0  0  0  0
 23 24  1  0  0  0  0
 23 36  1  0  0  0  0
 24 37  1  0  0  0  0
M  END
$$$$
