
 OpenBabel07202414183D

 54 57  0  0  1  0  0  0  0  0999 V2000
   10.1380   -5.1472    2.6977 C   0  0  0  0  0  0  0  0  0  0  0  0
    8.7986   -4.8134    3.1033 N   0  0  0  0  0  0  0  0  0  0  0  0
    8.3857   -5.0165    4.3702 C   0  0  0  0  0  0  0  0  0  0  0  0
    9.1083   -5.4259    5.2696 O   0  0  0  0  0  0  0  0  0  0  0  0
    6.9959   -4.6267    4.6484 C   0  0  0  0  0  0  0  0  0  0  0  0
    6.3527   -3.8743    3.7463 C   0  0  0  0  0  0  0  0  0  0  0  0
    6.7273   -3.9217    2.4119 N   0  0  0  0  0  0  0  0  0  0  0  0
    5.7408   -3.5267    1.3493 C   0  0  0  0  0  0  0  0  0  0  0  0
    4.8267   -4.6352    0.7595 C   0  0  0  0  0  0  0  0  0  0  0  0
    4.0231   -5.3372    1.3536 O   0  0  0  0  0  0  0  0  0  0  0  0
    4.7942   -4.9189   -0.5570 N   0  0  0  0  0  0  0  0  0  0  0  0
    3.8032   -5.9970   -0.9260 C   0  0  3  0  0  0  0  0  0  0  0  0
    3.1724   -5.8466   -2.4390 C   0  0  0  0  0  0  0  0  0  0  0  0
    3.8685   -5.3223   -3.3085 O   0  0  0  0  0  0  0  0  0  0  0  0
    1.9183   -6.2504   -2.8122 N   0  0  0  0  0  0  0  0  0  0  0  0
    0.8494   -6.9115   -1.9979 C   0  0  0  0  0  0  0  0  0  0  0  0
    0.7038   -6.9461   -0.5740 C   0  0  0  0  0  0  0  0  0  0  0  0
   -0.4162   -7.7643   -0.2473 N   0  0  0  0  0  0  0  0  0  0  0  0
   -1.2807   -8.3084   -1.1223 C   0  0  0  0  0  0  0  0  0  0  0  0
   -1.1976   -8.2098   -2.4713 C   0  0  0  0  0  0  0  0  0  0  0  0
   -2.2510   -8.7041   -3.2526 C   0  0  0  0  0  0  0  0  0  0  0  0
   -2.3371   -8.4133   -4.5854 C   0  0  0  0  0  0  0  0  0  0  0  0
   -1.2130   -7.9437   -5.1828 C   0  0  0  0  0  0  0  0  0  0  0  0
   -0.1021   -7.5493   -4.4207 C   0  0  0  0  0  0  0  0  0  0  0  0
   -0.1083   -7.5453   -2.9835 C   0  0  0  0  0  0  0  0  0  0  0  0
    4.5037   -7.3489   -0.8564 C   0  0  0  0  0  0  0  0  0  0  0  0
    5.6108   -7.6029   -1.6637 C   0  0  0  0  0  0  0  0  0  0  0  0
    6.3999   -8.7031   -1.4168 C   0  0  0  0  0  0  0  0  0  0  0  0
    5.8295   -9.7915   -0.7792 C   0  0  0  0  0  0  0  0  0  0  0  0
    4.6031   -9.6483   -0.1427 C   0  0  0  0  0  0  0  0  0  0  0  0
    3.8458  -11.0200    0.5599 Cl  0  0  0  0  0  0  0  0  0  0  0  0
    4.0124   -8.3913   -0.0569 C   0  0  0  0  0  0  0  0  0  0  0  0
    7.9571   -4.4708    2.0961 C   0  0  0  0  0  0  0  0  0  0  0  0
    8.4301   -4.6595    0.9914 O   0  0  0  0  0  0  0  0  0  0  0  0
   10.7568   -5.5119    3.5074 H   0  0  0  0  0  0  0  0  0  0  0  0
   10.5892   -4.3047    2.1632 H   0  0  0  0  0  0  0  0  0  0  0  0
   10.0400   -5.9279    1.9691 H   0  0  0  0  0  0  0  0  0  0  0  0
    6.6435   -4.8701    5.6371 H   0  0  0  0  0  0  0  0  0  0  0  0
    5.4868   -3.2799    4.0223 H   0  0  0  0  0  0  0  0  0  0  0  0
    6.3029   -3.0700    0.5258 H   0  0  0  0  0  0  0  0  0  0  0  0
    5.0780   -2.7483    1.7691 H   0  0  0  0  0  0  0  0  0  0  0  0
    5.6213   -4.7215   -1.1042 H   0  0  0  0  0  0  0  0  0  0  0  0
    2.9902   -6.0457   -0.1596 H   0  0  0  0  0  0  0  0  0  0  0  0
    1.7306   -6.1140   -3.8011 H   0  0  0  0  0  0  0  0  0  0  0  0
    0.5602   -6.9958    0.5633 H   0  0  0  0  0  0  0  0  0  0  0  0
   -2.1084   -8.7754   -0.6192 H   0  0  0  0  0  0  0  0  0  0  0  0
   -3.0723   -9.2377   -2.8090 H   0  0  0  0  0  0  0  0  0  0  0  0
   -3.2592   -8.5459   -5.1366 H   0  0  0  0  0  0  0  0  0  0  0  0
   -1.2926   -7.8895   -6.2536 H   0  0  0  0  0  0  0  0  0  0  0  0
    0.7297   -7.1936   -5.0015 H   0  0  0  0  0  0  0  0  0  0  0  0
    5.8638   -6.9573   -2.4981 H   0  0  0  0  0  0  0  0  0  0  0  0
    7.4289   -8.7131   -1.7514 H   0  0  0  0  0  0  0  0  0  0  0  0
    6.3360  -10.7481   -0.8056 H   0  0  0  0  0  0  0  0  0  0  0  0
    3.1269   -8.2501    0.5570 H   0  0  0  0  0  0  0  0  0  0  0  0
  1  2  1  0  0  0  0
  1 35  1  0  0  0  0
  1 36  1  0  0  0  0
  1 37  1  0  0  0  0
  2  3  1  0  0  0  0
  2 33  1  0  0  0  0
  3  4  2  0  0  0  0
  3  5  1  0  0  0  0
  5  6  2  0  0  0  0
  5 38  1  0  0  0  0
  6  7  1  0  0  0  0
  6 39  1  0  0  0  0
  7  8  1  0  0  0  0
  7 33  1  0  0  0  0
  8  9  1  0  0  0  0
  8 40  1  0  0  0  0
  8 41  1  0  0  0  0
  9 10  2  0  0  0  0
  9 11  1  0  0  0  0
 11 12  1  0  0  0  0
 11 42  1  0  0  0  0
 12 13  1  0  0  0  0
 12 26  1  0  0  0  0
 12 43  1  0  0  0  0
 13 14  2  0  0  0  0
 13 15  1  0  0  0  0
 15 16  1  0  0  0  0
 15 44  1  0  0  0  0
 16 17  1  0  0  0  0
 16 25  2  0  0  0  0
 17 18  2  0  0  0  0
 17 45  1  0  0  0  0
 18 19  1  0  0  0  0
 19 20  2  0  0  0  0
 19 46  1  0  0  0  0
 20 21  1  0  0  0  0
 20 25  1  0  0  0  0
 21 22  2  0  0  0  0
 21 47  1  0  0  0  0
 22 23  1  0  0  0  0
 22 48  1  0  0  0  0
 23 24  2  0  0  0  0
 23 49  1  0  0  0  0
 24 25  1  0  0  0  0
 24 50  1  0  0  0  0
 26 27  1  0  0  0  0
 26 32  2  0  0  0  0
 27 28  2  0  0  0  0
 27 51  1  0  0  0  0
 28 29  1  0  0  0  0
 28 52  1  0  0  0  0
 29 30  2  0  0  0  0
 29 53  1  0  0  0  0
 30 31  1  0  0  0  0
 30 32  1  0  0  0  0
 32 54  1  0  0  0  0
 33 34  2  0  0  0  0
M  END
$$$$
