
 OpenBabel07202414153D

 50 53  0  0  1  0  0  0  0  0999 V2000
    1.0978    0.1521    0.6070 C   0  0  0  0  0  0  0  0  0  0  0  0
    2.4634    0.0629    0.2147 O   0  0  0  0  0  0  0  0  0  0  0  0
    2.9191    1.3064   -0.3164 C   0  0  0  0  0  0  0  0  0  0  0  0
    4.4064    1.2198   -0.6965 C   0  0  0  0  0  0  0  0  0  0  0  0
    4.8885    2.3916   -1.4373 N   0  0  0  0  0  0  0  0  0  0  0  0
    6.2896    2.2501   -1.8579 C   0  0  0  0  0  0  0  0  0  0  0  0
    6.6335    3.2740   -2.9477 C   0  0  0  0  0  0  0  0  0  0  0  0
    6.0361    4.6441   -2.7231 C   0  0  0  0  0  0  0  0  0  0  0  0
    6.3957    5.6984   -3.5753 C   0  0  0  0  0  0  0  0  0  0  0  0
    5.7762    6.9430   -3.4613 C   0  0  0  0  0  0  0  0  0  0  0  0
    4.7901    7.1364   -2.5000 C   0  0  0  0  0  0  0  0  0  0  0  0
    3.9913    8.6556   -2.3799 Cl  0  0  0  0  0  0  0  0  0  0  0  0
    4.4268    6.1021   -1.6405 C   0  0  0  0  0  0  0  0  0  0  0  0
    5.0479    4.8460   -1.7403 C   0  0  0  0  0  0  0  0  0  0  0  0
    4.6375    3.7158   -0.8057 C   0  0  3  0  0  0  0  0  0  0  0  0
    5.2925    3.8929    0.6077 C   0  0  0  0  0  0  0  0  0  0  0  0
    6.3819    3.4056    0.8981 O   0  0  0  0  0  0  0  0  0  0  0  0
    4.5257    4.6630    1.4860 N   0  0  0  0  0  0  0  0  0  0  0  0
    4.8322    4.9653    2.8468 C   0  0  0  0  0  0  0  0  0  0  0  0
    5.9984    4.5131    3.4725 C   0  0  0  0  0  0  0  0  0  0  0  0
    6.2715    4.6425    4.7913 N   0  0  0  0  0  0  0  0  0  0  0  0
    5.3623    5.2993    5.5317 C   0  0  0  0  0  0  0  0  0  0  0  0
    4.2165    5.8993    5.0178 C   0  0  0  0  0  0  0  0  0  0  0  0
    3.3877    6.6626    5.8567 C   0  0  0  0  0  0  0  0  0  0  0  0
    2.2634    7.3039    5.3474 C   0  0  0  0  0  0  0  0  0  0  0  0
    1.9457    7.1616    4.0037 C   0  0  0  0  0  0  0  0  0  0  0  0
    2.7553    6.3861    3.1640 C   0  0  0  0  0  0  0  0  0  0  0  0
    3.9275    5.7369    3.6395 C   0  0  0  0  0  0  0  0  0  0  0  0
    0.7874   -0.8133    1.0132 H   0  0  0  0  0  0  0  0  0  0  0  0
    0.4661    0.3917   -0.2545 H   0  0  0  0  0  0  0  0  0  0  0  0
    0.9745    0.9148    1.3829 H   0  0  0  0  0  0  0  0  0  0  0  0
    2.7724    2.0812    0.4438 H   0  0  0  0  0  0  0  0  0  0  0  0
    2.3217    1.5552   -1.2021 H   0  0  0  0  0  0  0  0  0  0  0  0
    4.5226    0.3331   -1.3359 H   0  0  0  0  0  0  0  0  0  0  0  0
    5.0080    1.0192    0.1981 H   0  0  0  0  0  0  0  0  0  0  0  0
    6.4718    1.2502   -2.2721 H   0  0  0  0  0  0  0  0  0  0  0  0
    6.9911    2.3486   -1.0240 H   0  0  0  0  0  0  0  0  0  0  0  0
    6.2484    2.9003   -3.9056 H   0  0  0  0  0  0  0  0  0  0  0  0
    7.7237    3.3537   -3.0354 H   0  0  0  0  0  0  0  0  0  0  0  0
    7.1464    5.5456   -4.3477 H   0  0  0  0  0  0  0  0  0  0  0  0
    6.0550    7.7478   -4.1355 H   0  0  0  0  0  0  0  0  0  0  0  0
    3.6438    6.2750   -0.9082 H   0  0  0  0  0  0  0  0  0  0  0  0
    3.5508    3.8079   -0.6904 H   0  0  0  0  0  0  0  0  0  0  0  0
    3.6287    4.9805    1.1506 H   0  0  0  0  0  0  0  0  0  0  0  0
    6.7963    4.0130    2.9373 H   0  0  0  0  0  0  0  0  0  0  0  0
    5.5994    5.3434    6.5915 H   0  0  0  0  0  0  0  0  0  0  0  0
    3.6294    6.7854    6.9111 H   0  0  0  0  0  0  0  0  0  0  0  0
    1.6499    7.9228    5.9965 H   0  0  0  0  0  0  0  0  0  0  0  0
    1.0719    7.6701    3.6016 H   0  0  0  0  0  0  0  0  0  0  0  0
    2.4649    6.3316    2.1205 H   0  0  0  0  0  0  0  0  0  0  0  0
  1  2  1  0  0  0  0
  1 29  1  0  0  0  0
  1 30  1  0  0  0  0
  1 31  1  0  0  0  0
  2  3  1  0  0  0  0
  3  4  1  0  0  0  0
  3 32  1  0  0  0  0
  3 33  1  0  0  0  0
  4  5  1  0  0  0  0
  4 34  1  0  0  0  0
  4 35  1  0  0  0  0
  5  6  1  0  0  0  0
  5 15  1  0  0  0  0
  6  7  1  0  0  0  0
  6 36  1  0  0  0  0
  6 37  1  0  0  0  0
  7  8  1  0  0  0  0
  7 38  1  0  0  0  0
  7 39  1  0  0  0  0
  8  9  1  0  0  0  0
  8 14  2  0  0  0  0
  9 10  2  0  0  0  0
  9 40  1  0  0  0  0
 10 11  1  0  0  0  0
 10 41  1  0  0  0  0
 11 12  1  0  0  0  0
 11 13  2  0  0  0  0
 13 14  1  0  0  0  0
 13 42  1  0  0  0  0
 14 15  1  0  0  0  0
 15 16  1  0  0  0  0
 15 43  1  0  0  0  0
 16 17  2  0  0  0  0
 16 18  1  0  0  0  0
 18 19  1  0  0  0  0
 18 44  1  0  0  0  0
 19 20  1  0  0  0  0
 19 28  2  0  0  0  0
 20 21  2  0  0  0  0
 20 45  1  0  0  0  0
 21 22  1  0  0  0  0
 22 23  2  0  0  0  0
 22 46  1  0  0  0  0
 23 24  1  0  0  0  0
 23 28  1  0  0  0  0
 24 25  2  0  0  0  0
 24 47  1  0  0  0  0
 25 26  1  0  0  0  0
 25 48  1  0  0  0  0
 26 27  2  0  0  0  0
 26 49  1  0  0  0  0
 27 28  1  0  0  0  0
 27 50  1  0  0  0  0
M  END
$$$$
