
 OpenBabel07202414183D

 34 36  0  0  0  0  0  0  0  0999 V2000
    1.0210   -0.1691   -0.1049 C   0  0  0  0  0  0  0  0  0  0  0  0
    2.4637   -0.2128   -0.0931 N   0  0  0  0  0  0  0  0  0  0  0  0
    3.1139    0.9692   -0.1057 N   0  0  0  0  0  0  0  0  0  0  0  0
    4.3983    0.6277   -0.0954 C   0  0  0  0  0  0  0  0  0  0  0  0
    4.5815   -0.7675   -0.0778 C   0  0  0  0  0  0  0  0  0  0  0  0
    5.6995   -1.5980   -0.0632 C   0  0  0  0  0  0  0  0  0  0  0  0
    5.5494   -2.9363   -0.0501 N   0  0  0  0  0  0  0  0  0  0  0  0
    4.2918   -3.4467   -0.0508 C   0  0  0  0  0  0  0  0  0  0  0  0
    3.0938   -2.7179   -0.0638 C   0  0  0  0  0  0  0  0  0  0  0  0
    1.8112   -3.3189   -0.0538 N   0  0  0  0  0  0  0  0  0  0  0  0
    1.5488   -4.6839   -0.0717 C   0  0  0  0  0  0  0  0  0  0  0  0
    2.3856   -5.5804   -0.1307 O   0  0  0  0  0  0  0  0  0  0  0  0
    0.0691   -5.0296    0.0204 C   0  0  0  0  0  0  0  0  0  0  0  0
   -0.3987   -5.1265    1.4520 C   0  0  0  0  0  0  0  0  0  0  0  0
    0.1677   -6.0729    2.3223 C   0  0  0  0  0  0  0  0  0  0  0  0
   -0.2207   -6.1340    3.6621 C   0  0  0  0  0  0  0  0  0  0  0  0
   -1.1876   -5.2540    4.1449 C   0  0  0  0  0  0  0  0  0  0  0  0
   -1.7731   -4.3304    3.2808 C   0  0  0  0  0  0  0  0  0  0  0  0
   -2.9706   -3.2453    3.8730 Cl  0  0  0  0  0  0  0  0  0  0  0  0
   -1.3895   -4.2653    1.9403 C   0  0  0  0  0  0  0  0  0  0  0  0
    3.2900   -1.3183   -0.0757 C   0  0  0  0  0  0  0  0  0  0  0  0
    0.6869    0.8739   -0.1282 H   0  0  0  0  0  0  0  0  0  0  0  0
    0.6503   -0.6452    0.8049 H   0  0  0  0  0  0  0  0  0  0  0  0
    0.6651   -0.6809   -1.0010 H   0  0  0  0  0  0  0  0  0  0  0  0
    5.1527    1.4050   -0.1044 H   0  0  0  0  0  0  0  0  0  0  0  0
    6.7185   -1.2273   -0.0651 H   0  0  0  0  0  0  0  0  0  0  0  0
    4.3028   -4.5318   -0.0289 H   0  0  0  0  0  0  0  0  0  0  0  0
    1.0109   -2.7091    0.0007 H   0  0  0  0  0  0  0  0  0  0  0  0
   -0.0936   -5.9907   -0.4839 H   0  0  0  0  0  0  0  0  0  0  0  0
   -0.5145   -4.2905   -0.5413 H   0  0  0  0  0  0  0  0  0  0  0  0
    0.9312   -6.7633    1.9618 H   0  0  0  0  0  0  0  0  0  0  0  0
    0.2411   -6.8594    4.3284 H   0  0  0  0  0  0  0  0  0  0  0  0
   -1.4787   -5.2944    5.1906 H   0  0  0  0  0  0  0  0  0  0  0  0
   -1.8633   -3.5404    1.2835 H   0  0  0  0  0  0  0  0  0  0  0  0
  1  2  1  0  0  0  0
  1 22  1  0  0  0  0
  1 23  1  0  0  0  0
  1 24  1  0  0  0  0
  2  3  1  0  0  0  0
  2 21  1  0  0  0  0
  3  4  2  0  0  0  0
  4  5  1  0  0  0  0
  4 25  1  0  0  0  0
  5  6  1  0  0  0  0
  5 21  2  0  0  0  0
  6  7  2  0  0  0  0
  6 26  1  0  0  0  0
  7  8  1  0  0  0  0
  8  9  2  0  0  0  0
  8 27  1  0  0  0  0
  9 10  1  0  0  0  0
  9 21  1  0  0  0  0
 10 11  1  0  0  0  0
 10 28  1  0  0  0  0
 11 12  2  0  0  0  0
 11 13  1  0  0  0  0
 13 14  1  0  0  0  0
 13 29  1  0  0  0  0
 13 30  1  0  0  0  0
 14 15  1  0  0  0  0
 14 20  2  0  0  0  0
 15 16  2  0  0  0  0
 15 31  1  0  0  0  0
 16 17  1  0  0  0  0
 16 32  1  0  0  0  0
 17 18  2  0  0  0  0
 17 33  1  0  0  0  0
 18 19  1  0  0  0  0
 18 20  1  0  0  0  0
 20 34  1  0  0  0  0
M  END
$$$$
