
 OpenBabel07202414193D

 64 68  0  0  1  0  0  0  0  0999 V2000
   -0.0531   -4.6650    3.0355 F   0  0  0  0  0  0  0  0  0  0  0  0
   -0.4869   -4.3499    1.8078 C   0  0  0  0  0  0  0  0  0  0  0  0
   -0.0115   -5.0553    0.7119 C   0  0  0  0  0  0  0  0  0  0  0  0
   -0.4727   -4.7315   -0.5611 C   0  0  0  0  0  0  0  0  0  0  0  0
   -1.4049   -3.7046   -0.7298 C   0  0  0  0  0  0  0  0  0  0  0  0
   -1.9108   -3.0073    0.3774 C   0  0  0  0  0  0  0  0  0  0  0  0
   -2.9094   -1.8799    0.2460 C   0  0  0  0  0  0  0  0  0  0  0  0
   -3.9419   -2.0056   -0.8838 C   0  0  0  0  0  0  0  0  0  0  0  0
   -4.7637   -3.2025   -0.8299 N   0  0  0  0  0  0  0  0  0  0  0  0
   -5.6539   -3.4285    0.2132 C   0  0  0  0  0  0  0  0  0  0  0  0
   -5.7492   -2.6439    1.1527 O   0  0  0  0  0  0  0  0  0  0  0  0
   -6.4982   -4.7258    0.0715 C   0  0  3  0  0  0  0  0  0  0  0  0
   -6.2714   -5.5944    1.2690 N   0  0  0  0  0  0  0  0  0  0  0  0
   -6.8822   -5.5295    2.5397 C   0  0  0  0  0  0  0  0  0  0  0  0
   -6.5671   -6.3232    3.4334 O   0  0  0  0  0  0  0  0  0  0  0  0
   -8.0042   -4.6329    2.7987 C   0  0  0  0  0  0  0  0  0  0  0  0
   -9.0084   -4.9102    3.7066 C   0  0  0  0  0  0  0  0  0  0  0  0
   -9.9131   -3.8958    3.6794 O   0  0  0  0  0  0  0  0  0  0  0  0
   -9.3999   -3.0379    2.7590 C   0  0  0  0  0  0  0  0  0  0  0  0
   -8.2709   -3.4190    2.2067 N   0  0  0  0  0  0  0  0  0  0  0  0
   -5.1032   -6.4265    1.1716 C   0  0  0  0  0  0  0  0  0  0  0  0
   -5.0768   -7.4867    0.2624 C   0  0  0  0  0  0  0  0  0  0  0  0
   -3.9724   -8.3439    0.2052 C   0  0  0  0  0  0  0  0  0  0  0  0
   -2.8510   -8.1316    1.0234 C   0  0  0  0  0  0  0  0  0  0  0  0
   -1.6638   -9.0701    0.9958 C   0  0  0  0  0  0  0  0  0  0  0  0
   -1.0351   -9.1517   -0.3195 N   0  0  0  0  0  0  0  0  0  0  0  0
   -1.3143  -10.0636   -1.3037 C   0  0  0  0  0  0  0  0  0  0  0  0
   -0.4314   -9.8096   -2.3260 C   0  0  0  0  0  0  0  0  0  0  0  0
    0.3609   -8.7481   -1.8558 C   0  0  0  0  0  0  0  0  0  0  0  0
    0.0063   -8.3488   -0.6321 N   0  0  0  0  0  0  0  0  0  0  0  0
   -2.8811   -7.0584    1.9273 C   0  0  0  0  0  0  0  0  0  0  0  0
   -3.9997   -6.2178    2.0041 C   0  0  0  0  0  0  0  0  0  0  0  0
   -7.9149   -4.4870   -0.4447 C   0  0  0  0  0  0  0  0  0  0  0  0
   -8.1897   -3.4381   -1.3425 C   0  0  0  0  0  0  0  0  0  0  0  0
   -9.4769   -3.2366   -1.8360 C   0  0  0  0  0  0  0  0  0  0  0  0
  -10.4726   -4.1013   -1.4277 C   0  0  0  0  0  0  0  0  0  0  0  0
  -10.2567   -5.1455   -0.6026 N   0  0  0  0  0  0  0  0  0  0  0  0
   -8.9904   -5.3198   -0.1455 C   0  0  0  0  0  0  0  0  0  0  0  0
   -1.4254   -3.3347    1.6532 C   0  0  0  0  0  0  0  0  0  0  0  0
    0.7033   -5.8601    0.8506 H   0  0  0  0  0  0  0  0  0  0  0  0
   -0.1075   -5.2881   -1.4210 H   0  0  0  0  0  0  0  0  0  0  0  0
   -1.7264   -3.4650   -1.7394 H   0  0  0  0  0  0  0  0  0  0  0  0
   -2.3468   -0.9488    0.1041 H   0  0  0  0  0  0  0  0  0  0  0  0
   -3.4432   -1.7715    1.1977 H   0  0  0  0  0  0  0  0  0  0  0  0
   -3.4549   -1.9924   -1.8653 H   0  0  0  0  0  0  0  0  0  0  0  0
   -4.6165   -1.1425   -0.8488 H   0  0  0  0  0  0  0  0  0  0  0  0
   -4.5157   -3.9721   -1.4421 H   0  0  0  0  0  0  0  0  0  0  0  0
   -6.0587   -5.2788   -0.7744 H   0  0  0  0  0  0  0  0  0  0  0  0
   -9.2190   -5.7352    4.3726 H   0  0  0  0  0  0  0  0  0  0  0  0
   -9.9686   -2.1395    2.5658 H   0  0  0  0  0  0  0  0  0  0  0  0
   -5.9382   -7.6977   -0.3653 H   0  0  0  0  0  0  0  0  0  0  0  0
   -4.0062   -9.1928   -0.4703 H   0  0  0  0  0  0  0  0  0  0  0  0
   -1.9801  -10.0815    1.2766 H   0  0  0  0  0  0  0  0  0  0  0  0
   -0.8846   -8.7630    1.7041 H   0  0  0  0  0  0  0  0  0  0  0  0
   -2.1007  -10.7970   -1.1948 H   0  0  0  0  0  0  0  0  0  0  0  0
   -0.3590  -10.3275   -3.2716 H   0  0  0  0  0  0  0  0  0  0  0  0
    1.1867   -8.2537   -2.3512 H   0  0  0  0  0  0  0  0  0  0  0  0
   -2.0379   -6.8689    2.5876 H   0  0  0  0  0  0  0  0  0  0  0  0
   -3.9891   -5.3956    2.7181 H   0  0  0  0  0  0  0  0  0  0  0  0
   -7.4082   -2.7541   -1.6664 H   0  0  0  0  0  0  0  0  0  0  0  0
   -9.6937   -2.4226   -2.5193 H   0  0  0  0  0  0  0  0  0  0  0  0
  -11.4964   -3.9780   -1.7686 H   0  0  0  0  0  0  0  0  0  0  0  0
   -8.8843   -6.1771    0.5123 H   0  0  0  0  0  0  0  0  0  0  0  0
   -1.7789   -2.8119    2.5379 H   0  0  0  0  0  0  0  0  0  0  0  0
  1  2  1  0  0  0  0
  2  3  1  0  0  0  0
  2 39  2  0  0  0  0
  3  4  2  0  0  0  0
  3 40  1  0  0  0  0
  4  5  1  0  0  0  0
  4 41  1  0  0  0  0
  5  6  2  0  0  0  0
  5 42  1  0  0  0  0
  6  7  1  0  0  0  0
  6 39  1  0  0  0  0
  7  8  1  0  0  0  0
  7 43  1  0  0  0  0
  7 44  1  0  0  0  0
  8  9  1  0  0  0  0
  8 45  1  0  0  0  0
  8 46  1  0  0  0  0
  9 10  1  0  0  0  0
  9 47  1  0  0  0  0
 10 11  2  0  0  0  0
 10 12  1  0  0  0  0
 12 13  1  0  0  0  0
 12 33  1  0  0  0  0
 12 48  1  0  0  0  0
 13 14  1  0  0  0  0
 13 21  1  0  0  0  0
 14 15  2  0  0  0  0
 14 16  1  0  0  0  0
 16 17  2  0  0  0  0
 16 20  1  0  0  0  0
 17 18  1  0  0  0  0
 17 49  1  0  0  0  0
 18 19  1  0  0  0  0
 19 20  2  0  0  0  0
 19 50  1  0  0  0  0
 21 22  1  0  0  0  0
 21 32  2  0  0  0  0
 22 23  2  0  0  0  0
 22 51  1  0  0  0  0
 23 24  1  0  0  0  0
 23 52  1  0  0  0  0
 24 25  1  0  0  0  0
 24 31  2  0  0  0  0
 25 26  1  0  0  0  0
 25 53  1  0  0  0  0
 25 54  1  0  0  0  0
 26 27  1  0  0  0  0
 26 30  1  0  0  0  0
 27 28  2  0  0  0  0
 27 55  1  0  0  0  0
 28 29  1  0  0  0  0
 28 56  1  0  0  0  0
 29 30  2  0  0  0  0
 29 57  1  0  0  0  0
 31 32  1  0  0  0  0
 31 58  1  0  0  0  0
 32 59  1  0  0  0  0
 33 34  1  0  0  0  0
 33 38  2  0  0  0  0
 34 35  2  0  0  0  0
 34 60  1  0  0  0  0
 35 36  1  0  0  0  0
 35 61  1  0  0  0  0
 36 37  2  0  0  0  0
 36 62  1  0  0  0  0
 37 38  1  0  0  0  0
 38 63  1  0  0  0  0
 39 64  1  0  0  0  0
M  END
$$$$
