
 OpenBabel07202414143D

 50 53  0  0  1  0  0  0  0  0999 V2000
    6.5257   -1.9554   -2.4345 C   0  0  0  0  0  0  0  0  0  0  0  0
    6.1732   -1.6606   -1.0694 N   0  0  0  0  0  0  0  0  0  0  0  0
    4.9309   -1.1636   -0.7487 C   0  0  0  0  0  0  0  0  0  0  0  0
    4.1066   -0.8208   -1.5943 O   0  0  0  0  0  0  0  0  0  0  0  0
    4.6544   -1.0004    0.7508 C   0  0  0  0  0  0  0  0  0  0  0  0
    5.3126   -2.0340    1.6073 N   0  0  0  0  0  0  0  0  0  0  0  0
    4.7842   -3.3878    1.2956 C   0  0  0  0  0  0  0  0  0  0  0  0
    5.5193   -4.4689    2.1126 C   0  0  3  0  0  0  0  0  0  0  0  0
    6.9754   -4.6410    1.6397 C   0  0  0  0  0  0  0  0  0  0  0  0
    7.3946   -5.7422    1.2946 O   0  0  0  0  0  0  0  0  0  0  0  0
    7.7110   -3.4668    1.6490 N   0  0  0  0  0  0  0  0  0  0  0  0
    8.9907   -3.2217    1.0965 C   0  0  0  0  0  0  0  0  0  0  0  0
    9.7019   -4.1954    0.3974 C   0  0  0  0  0  0  0  0  0  0  0  0
   10.8368   -3.9601   -0.2999 N   0  0  0  0  0  0  0  0  0  0  0  0
   11.3302   -2.7077   -0.2506 C   0  0  0  0  0  0  0  0  0  0  0  0
   10.7802   -1.6753    0.5050 C   0  0  0  0  0  0  0  0  0  0  0  0
   11.4316   -0.4328    0.5960 C   0  0  0  0  0  0  0  0  0  0  0  0
   10.8969    0.5752    1.3842 C   0  0  0  0  0  0  0  0  0  0  0  0
   11.5616    1.7295    1.5212 F   0  0  0  0  0  0  0  0  0  0  0  0
    9.6983    0.3907    2.0491 C   0  0  0  0  0  0  0  0  0  0  0  0
    9.0335   -0.8366    1.9469 C   0  0  0  0  0  0  0  0  0  0  0  0
    9.5665   -1.9182    1.1917 C   0  0  0  0  0  0  0  0  0  0  0  0
    5.4313   -4.1580    3.5907 C   0  0  0  0  0  0  0  0  0  0  0  0
    5.4977   -5.1922    4.5370 C   0  0  0  0  0  0  0  0  0  0  0  0
    5.4065   -4.8998    5.8959 C   0  0  0  0  0  0  0  0  0  0  0  0
    5.4195   -6.1765    7.0486 Cl  0  0  0  0  0  0  0  0  0  0  0  0
    5.2820   -3.5819    6.3264 C   0  0  0  0  0  0  0  0  0  0  0  0
    5.2167   -2.5478    5.3903 C   0  0  0  0  0  0  0  0  0  0  0  0
    5.2715   -2.8248    4.0152 C   0  0  0  0  0  0  0  0  0  0  0  0
    5.0297   -1.6977    3.0268 C   0  0  0  0  0  0  0  0  0  0  0  0
    7.5294   -2.3849   -2.4563 H   0  0  0  0  0  0  0  0  0  0  0  0
    6.4981   -1.0331   -3.0210 H   0  0  0  0  0  0  0  0  0  0  0  0
    5.8055   -2.6671   -2.8489 H   0  0  0  0  0  0  0  0  0  0  0  0
    6.7264   -2.0541   -0.3177 H   0  0  0  0  0  0  0  0  0  0  0  0
    3.5669   -1.0186    0.8944 H   0  0  0  0  0  0  0  0  0  0  0  0
    5.0273   -0.0067    1.0263 H   0  0  0  0  0  0  0  0  0  0  0  0
    4.9168   -3.6232    0.2337 H   0  0  0  0  0  0  0  0  0  0  0  0
    3.7057   -3.4298    1.5018 H   0  0  0  0  0  0  0  0  0  0  0  0
    5.0047   -5.4205    1.9220 H   0  0  0  0  0  0  0  0  0  0  0  0
    7.1988   -2.6600    1.9910 H   0  0  0  0  0  0  0  0  0  0  0  0
    9.3786   -5.2294    0.3477 H   0  0  0  0  0  0  0  0  0  0  0  0
   12.2235   -2.5572   -0.8514 H   0  0  0  0  0  0  0  0  0  0  0  0
   12.3738   -0.2504    0.0874 H   0  0  0  0  0  0  0  0  0  0  0  0
    9.2968    1.1927    2.6610 H   0  0  0  0  0  0  0  0  0  0  0  0
    8.1100   -0.9409    2.5076 H   0  0  0  0  0  0  0  0  0  0  0  0
    5.5962   -6.2268    4.2129 H   0  0  0  0  0  0  0  0  0  0  0  0
    5.2135   -3.3558    7.3872 H   0  0  0  0  0  0  0  0  0  0  0  0
    5.0902   -1.5255    5.7424 H   0  0  0  0  0  0  0  0  0  0  0  0
    5.6752   -0.8546    3.3034 H   0  0  0  0  0  0  0  0  0  0  0  0
    3.9849   -1.3850    3.1489 H   0  0  0  0  0  0  0  0  0  0  0  0
  1  2  1  0  0  0  0
  1 31  1  0  0  0  0
  1 32  1  0  0  0  0
  1 33  1  0  0  0  0
  2  3  1  0  0  0  0
  2 34  1  0  0  0  0
  3  4  2  0  0  0  0
  3  5  1  0  0  0  0
  5  6  1  0  0  0  0
  5 35  1  0  0  0  0
  5 36  1  0  0  0  0
  6  7  1  0  0  0  0
  6 30  1  0  0  0  0
  7  8  1  0  0  0  0
  7 37  1  0  0  0  0
  7 38  1  0  0  0  0
  8  9  1  0  0  0  0
  8 23  1  0  0  0  0
  8 39  1  0  0  0  0
  9 10  2  0  0  0  0
  9 11  1  0  0  0  0
 11 12  1  0  0  0  0
 11 40  1  0  0  0  0
 12 13  1  0  0  0  0
 12 22  2  0  0  0  0
 13 14  2  0  0  0  0
 13 41  1  0  0  0  0
 14 15  1  0  0  0  0
 15 16  2  0  0  0  0
 15 42  1  0  0  0  0
 16 17  1  0  0  0  0
 16 22  1  0  0  0  0
 17 18  2  0  0  0  0
 17 43  1  0  0  0  0
 18 19  1  0  0  0  0
 18 20  1  0  0  0  0
 20 21  2  0  0  0  0
 20 44  1  0  0  0  0
 21 22  1  0  0  0  0
 21 45  1  0  0  0  0
 23 24  1  0  0  0  0
 23 29  2  0  0  0  0
 24 25  2  0  0  0  0
 24 46  1  0  0  0  0
 25 26  1  0  0  0  0
 25 27  1  0  0  0  0
 27 28  2  0  0  0  0
 27 47  1  0  0  0  0
 28 29  1  0  0  0  0
 28 48  1  0  0  0  0
 29 30  1  0  0  0  0
 30 49  1  0  0  0  0
 30 50  1  0  0  0  0
M  END
$$$$
