
 OpenBabel07202414173D

 34 35  0  0  0  0  0  0  0  0999 V2000
    0.8829   -0.5152   -0.3934 Cl  0  0  0  0  0  0  0  0  0  0  0  0
    2.6456   -0.6683   -0.5454 C   0  0  0  0  0  0  0  0  0  0  0  0
    3.2320    0.3745   -1.4890 C   0  0  0  0  0  0  0  0  0  0  0  0
    2.5279    1.1490   -2.1390 O   0  0  0  0  0  0  0  0  0  0  0  0
    4.6247    0.4282   -1.5728 N   0  0  0  0  0  0  0  0  0  0  0  0
    5.5439   -0.5570   -0.9817 C   0  0  0  0  0  0  0  0  0  0  0  0
    6.8682    0.0860   -0.5106 C   0  0  0  0  0  0  0  0  0  0  0  0
    7.4879    0.9401   -1.5721 N   0  0  0  0  0  0  0  0  0  0  0  0
    8.3458    0.1259   -2.8019 S   0  0  0  0  0  0  0  0  0  0  0  0
    7.7814   -1.1954   -2.9596 O   0  0  0  0  0  0  0  0  0  0  0  0
    8.4762    1.0203   -3.9321 O   0  0  0  0  0  0  0  0  0  0  0  0
    9.9722   -0.0677   -2.1054 C   0  0  0  0  0  0  0  0  0  0  0  0
   10.2865   -1.2165   -1.3702 C   0  0  0  0  0  0  0  0  0  0  0  0
   11.6013   -1.4283   -0.9481 C   0  0  0  0  0  0  0  0  0  0  0  0
   12.5969   -0.5061   -1.2775 C   0  0  0  0  0  0  0  0  0  0  0  0
   12.2762    0.6297   -2.0219 C   0  0  0  0  0  0  0  0  0  0  0  0
   13.5168    1.7385   -2.4598 Cl  0  0  0  0  0  0  0  0  0  0  0  0
   10.9669    0.8583   -2.4372 C   0  0  0  0  0  0  0  0  0  0  0  0
    6.5075    1.9702   -2.0470 C   0  0  0  0  0  0  0  0  0  0  0  0
    5.2289    1.3148   -2.5800 C   0  0  0  0  0  0  0  0  0  0  0  0
    2.8621   -1.6705   -0.9260 H   0  0  0  0  0  0  0  0  0  0  0  0
    3.0598   -0.5412    0.4568 H   0  0  0  0  0  0  0  0  0  0  0  0
    5.7124   -1.3216   -1.7457 H   0  0  0  0  0  0  0  0  0  0  0  0
    5.0801   -1.0662   -0.1343 H   0  0  0  0  0  0  0  0  0  0  0  0
    7.5695   -0.6764   -0.1611 H   0  0  0  0  0  0  0  0  0  0  0  0
    6.6602    0.7335    0.3519 H   0  0  0  0  0  0  0  0  0  0  0  0
    9.5272   -1.9631   -1.1508 H   0  0  0  0  0  0  0  0  0  0  0  0
   11.8571   -2.3227   -0.3849 H   0  0  0  0  0  0  0  0  0  0  0  0
   13.6233   -0.6862   -0.9662 H   0  0  0  0  0  0  0  0  0  0  0  0
   10.7323    1.7322   -3.0405 H   0  0  0  0  0  0  0  0  0  0  0  0
    6.9616    2.6245   -2.7970 H   0  0  0  0  0  0  0  0  0  0  0  0
    6.2616    2.6146   -1.1927 H   0  0  0  0  0  0  0  0  0  0  0  0
    5.4420    0.7009   -3.4635 H   0  0  0  0  0  0  0  0  0  0  0  0
    4.5257    2.0952   -2.8872 H   0  0  0  0  0  0  0  0  0  0  0  0
  1  2  1  0  0  0  0
  2  3  1  0  0  0  0
  2 21  1  0  0  0  0
  2 22  1  0  0  0  0
  3  4  2  0  0  0  0
  3  5  1  0  0  0  0
  5  6  1  0  0  0  0
  5 20  1  0  0  0  0
  6  7  1  0  0  0  0
  6 23  1  0  0  0  0
  6 24  1  0  0  0  0
  7  8  1  0  0  0  0
  7 25  1  0  0  0  0
  7 26  1  0  0  0  0
  8  9  1  0  0  0  0
  8 19  1  0  0  0  0
  9 10  2  0  0  0  0
  9 11  2  0  0  0  0
  9 12  1  0  0  0  0
 12 13  1  0  0  0  0
 12 18  2  0  0  0  0
 13 14  2  0  0  0  0
 13 27  1  0  0  0  0
 14 15  1  0  0  0  0
 14 28  1  0  0  0  0
 15 16  2  0  0  0  0
 15 29  1  0  0  0  0
 16 17  1  0  0  0  0
 16 18  1  0  0  0  0
 18 30  1  0  0  0  0
 19 20  1  0  0  0  0
 19 31  1  0  0  0  0
 19 32  1  0  0  0  0
 20 33  1  0  0  0  0
 20 34  1  0  0  0  0
M  END
$$$$
