
 OpenBabel07202414133D

105105  0  0  1  0  0  0  0  0999 V2000
    9.5389   -1.3202    0.8959 C   0  0  0  0  0  0  0  0  0  0  0  0
    8.5729   -0.7427    1.9187 C   0  0  0  0  0  0  0  0  0  0  0  0
    8.1540    0.7109    1.6453 C   0  0  2  0  0  0  0  0  0  0  0  0
    7.3168    1.1893    2.7445 N   0  0  0  0  0  0  0  0  0  0  0  0
    7.8824    1.5990    3.9278 C   0  0  0  0  0  0  0  0  0  0  0  0
    9.0963    1.6662    4.1065 O   0  0  0  0  0  0  0  0  0  0  0  0
    6.8710    1.9721    4.9897 C   0  0  0  0  0  0  0  0  0  0  0  0
    7.3640    3.1589    5.8228 C   0  0  0  0  0  0  0  0  0  0  0  0
    7.6036    4.4184    4.9784 C   0  0  0  0  0  0  0  0  0  0  0  0
    6.3692    4.8741    4.3138 C   0  0  0  0  0  0  0  0  0  0  0  0
    5.3578    5.1979    3.7666 C   0  0  0  0  0  0  0  0  0  0  0  0
    7.3220    0.8874    0.3544 C   0  0  0  0  0  0  0  0  0  0  0  0
    6.7120   -0.0339   -0.1739 O   0  0  0  0  0  0  0  0  0  0  0  0
    7.2181    2.1849   -0.0974 N   0  0  0  0  0  0  0  0  0  0  0  0
    6.6260    2.6502   -1.3749 C   0  0  2  0  0  0  0  0  0  0  0  0
    5.0669    2.5075   -1.4656 C   0  0  0  0  0  0  0  0  0  0  0  0
    4.3637    3.4582   -1.8293 O   0  0  0  0  0  0  0  0  0  0  0  0
    4.5199    1.2706   -1.2153 N   0  0  0  0  0  0  0  0  0  0  0  0
    3.0830    0.9759   -1.1595 C   0  0  1  0  0  0  0  0  0  0  0  0
    2.6473   -0.0465   -2.2329 C   0  0  0  0  0  0  0  0  0  0  0  0
    3.1309   -1.5034   -2.0222 C   0  0  0  0  0  0  0  0  0  0  0  0
    2.4533   -2.4389   -3.0249 C   0  0  0  0  0  0  0  0  0  0  0  0
    4.6309   -1.7054   -2.2001 C   0  0  0  0  0  0  0  0  0  0  0  0
    2.6325    0.4826    0.2500 C   0  0  0  0  0  0  0  0  0  0  0  0
    3.4347    0.2899    1.1593 O   0  0  0  0  0  0  0  0  0  0  0  0
    1.2730    0.2579    0.4005 N   0  0  0  0  0  0  0  0  0  0  0  0
    0.6669   -0.2564    1.6399 C   0  0  1  0  0  0  0  0  0  0  0  0
    0.8821    0.6794    2.8366 C   0  0  0  0  0  0  0  0  0  0  0  0
    0.2747    2.0677    2.6144 C   0  0  0  0  0  0  0  0  0  0  0  0
    0.5626    3.0154    3.7515 C   0  0  0  0  0  0  0  0  0  0  0  0
    0.0310    4.2645    3.5830 N   0  0  0  0  0  0  0  0  0  0  0  0
    1.2087    2.7360    4.7518 O   0  0  0  0  0  0  0  0  0  0  0  0
   -0.8398   -0.4750    1.4067 C   0  0  0  0  0  0  0  0  0  0  0  0
   -1.4597    0.2178    0.5900 O   0  0  0  0  0  0  0  0  0  0  0  0
   -1.5260   -1.5734    2.2114 C   0  0  0  0  0  0  0  0  0  0  0  0
   -2.8952   -1.2482    2.4678 O   0  0  0  0  0  0  0  0  0  0  0  0
   -3.1261   -0.5236    3.5892 C   0  0  0  0  0  0  0  0  0  0  0  0
   -2.2457   -0.1540    4.3502 O   0  0  0  0  0  0  0  0  0  0  0  0
   -4.5915   -0.2247    3.7615 C   0  0  0  0  0  0  0  0  0  0  0  0
   -4.9994    1.0028    4.3478 C   0  0  0  0  0  0  0  0  0  0  0  0
   -4.0746    2.1152    4.7722 C   0  0  0  0  0  0  0  0  0  0  0  0
   -6.3740    1.2523    4.5462 C   0  0  0  0  0  0  0  0  0  0  0  0
   -7.3378    0.3257    4.1694 C   0  0  0  0  0  0  0  0  0  0  0  0
   -6.9464   -0.8739    3.5911 C   0  0  0  0  0  0  0  0  0  0  0  0
   -5.5859   -1.1709    3.3817 C   0  0  0  0  0  0  0  0  0  0  0  0
   -5.2699   -2.5086    2.7646 C   0  0  0  0  0  0  0  0  0  0  0  0
    7.4615    2.2945   -2.6681 C   0  0  0  0  0  0  0  0  0  0  0  0
    7.0701    3.2462   -3.8274 C   0  0  0  0  0  0  0  0  0  0  0  0
    8.9730    2.5055   -2.3978 C   0  0  0  0  0  0  0  0  0  0  0  0
    7.2732    0.8589   -3.1769 C   0  0  0  0  0  0  0  0  0  0  0  0
    9.7447   -2.3692    1.1389 H   0  0  0  0  0  0  0  0  0  0  0  0
   10.4931   -0.7839    0.9059 H   0  0  0  0  0  0  0  0  0  0  0  0
    9.1297   -1.2873   -0.1167 H   0  0  0  0  0  0  0  0  0  0  0  0
    9.0580   -0.8039    2.9018 H   0  0  0  0  0  0  0  0  0  0  0  0
    7.6864   -1.3862    1.9784 H   0  0  0  0  0  0  0  0  0  0  0  0
    9.0462    1.3443    1.5782 H   0  0  0  0  0  0  0  0  0  0  0  0
    6.3348    0.9438    2.7307 H   0  0  0  0  0  0  0  0  0  0  0  0
    6.7138    1.0990    5.6330 H   0  0  0  0  0  0  0  0  0  0  0  0
    5.9070    2.2083    4.5258 H   0  0  0  0  0  0  0  0  0  0  0  0
    8.2962    2.8915    6.3289 H   0  0  0  0  0  0  0  0  0  0  0  0
    6.6280    3.3717    6.6069 H   0  0  0  0  0  0  0  0  0  0  0  0
    8.3740    4.2329    4.2243 H   0  0  0  0  0  0  0  0  0  0  0  0
    7.9893    5.2142    5.6250 H   0  0  0  0  0  0  0  0  0  0  0  0
    4.4410    5.4579    3.2803 H   0  0  0  0  0  0  0  0  0  0  0  0
    7.6387    2.9014    0.4845 H   0  0  0  0  0  0  0  0  0  0  0  0
    6.7484    3.7389   -1.2681 H   0  0  0  0  0  0  0  0  0  0  0  0
    5.1501    0.6023   -0.7642 H   0  0  0  0  0  0  0  0  0  0  0  0
    2.5390    1.9150   -1.3395 H   0  0  0  0  0  0  0  0  0  0  0  0
    2.9473    0.3099   -3.2249 H   0  0  0  0  0  0  0  0  0  0  0  0
    1.5479   -0.0675   -2.2477 H   0  0  0  0  0  0  0  0  0  0  0  0
    2.8478   -1.8289   -1.0133 H   0  0  0  0  0  0  0  0  0  0  0  0
    2.9104   -2.3382   -4.0157 H   0  0  0  0  0  0  0  0  0  0  0  0
    1.3834   -2.2398   -3.1196 H   0  0  0  0  0  0  0  0  0  0  0  0
    2.5823   -3.4787   -2.7042 H   0  0  0  0  0  0  0  0  0  0  0  0
    4.9455   -1.4489   -3.2164 H   0  0  0  0  0  0  0  0  0  0  0  0
    4.9033   -2.7472   -2.0060 H   0  0  0  0  0  0  0  0  0  0  0  0
    5.2176   -1.1206   -1.5090 H   0  0  0  0  0  0  0  0  0  0  0  0
    0.6327    0.4316   -0.3711 H   0  0  0  0  0  0  0  0  0  0  0  0
    1.1272   -1.2347    1.8275 H   0  0  0  0  0  0  0  0  0  0  0  0
    1.9536    0.7804    3.0406 H   0  0  0  0  0  0  0  0  0  0  0  0
    0.4517    0.2288    3.7396 H   0  0  0  0  0  0  0  0  0  0  0  0
   -0.8121    1.9949    2.5150 H   0  0  0  0  0  0  0  0  0  0  0  0
    0.6782    2.5165    1.7018 H   0  0  0  0  0  0  0  0  0  0  0  0
   -0.4205    4.5531    2.7269 H   0  0  0  0  0  0  0  0  0  0  0  0
    0.2168    4.9520    4.2979 H   0  0  0  0  0  0  0  0  0  0  0  0
   -0.9833   -1.7980    3.1361 H   0  0  0  0  0  0  0  0  0  0  0  0
   -1.5152   -2.4837    1.6012 H   0  0  0  0  0  0  0  0  0  0  0  0
   -3.0228    1.9459    4.5507 H   0  0  0  0  0  0  0  0  0  0  0  0
   -4.1678    2.2876    5.8505 H   0  0  0  0  0  0  0  0  0  0  0  0
   -4.3516    3.0357    4.2458 H   0  0  0  0  0  0  0  0  0  0  0  0
   -6.6995    2.1905    4.9945 H   0  0  0  0  0  0  0  0  0  0  0  0
   -8.3928    0.5401    4.3226 H   0  0  0  0  0  0  0  0  0  0  0  0
   -7.7168   -1.5874    3.3027 H   0  0  0  0  0  0  0  0  0  0  0  0
   -6.1756   -3.1014    2.5966 H   0  0  0  0  0  0  0  0  0  0  0  0
   -4.6179   -3.0904    3.4236 H   0  0  0  0  0  0  0  0  0  0  0  0
   -4.8092   -2.3804    1.7811 H   0  0  0  0  0  0  0  0  0  0  0  0
    7.2693    4.2935   -3.5731 H   0  0  0  0  0  0  0  0  0  0  0  0
    6.0097    3.1560   -4.0845 H   0  0  0  0  0  0  0  0  0  0  0  0
    7.6425    3.0225   -4.7373 H   0  0  0  0  0  0  0  0  0  0  0  0
    9.1843    3.5411   -2.1091 H   0  0  0  0  0  0  0  0  0  0  0  0
    9.5758    2.2816   -3.2864 H   0  0  0  0  0  0  0  0  0  0  0  0
    9.3346    1.8513   -1.5978 H   0  0  0  0  0  0  0  0  0  0  0  0
    6.2330    0.6605   -3.4479 H   0  0  0  0  0  0  0  0  0  0  0  0
    7.6001    0.1178   -2.4456 H   0  0  0  0  0  0  0  0  0  0  0  0
    7.8749    0.6864   -4.0800 H   0  0  0  0  0  0  0  0  0  0  0  0
  1  2  1  0  0  0  0
  1 51  1  0  0  0  0
  1 52  1  0  0  0  0
  1 53  1  0  0  0  0
  2 54  1  0  0  0  0
  2 55  1  0  0  0  0
  3 12  1  0  0  0  0
  3  4  1  0  0  0  0
  3  2  1  0  0  0  0
  3 56  1  6  0  0  0
  4  5  1  0  0  0  0
  4 57  1  0  0  0  0
  5  6  2  0  0  0  0
  5  7  1  0  0  0  0
  7  8  1  0  0  0  0
  7 58  1  0  0  0  0
  7 59  1  0  0  0  0
  8  9  1  0  0  0  0
  8 60  1  0  0  0  0
  8 61  1  0  0  0  0
  9 10  1  0  0  0  0
  9 62  1  0  0  0  0
  9 63  1  0  0  0  0
 10 11  3  0  0  0  0
 11 64  1  0  0  0  0
 12 13  2  0  0  0  0
 12 14  1  0  0  0  0
 14 65  1  0  0  0  0
 15 47  1  0  0  0  0
 15 16  1  0  0  0  0
 15 14  1  0  0  0  0
 15 66  1  1  0  0  0
 16 17  2  0  0  0  0
 16 18  1  0  0  0  0
 18 19  1  0  0  0  0
 18 67  1  0  0  0  0
 19 20  1  0  0  0  0
 19 24  1  0  0  0  0
 19 68  1  6  0  0  0
 20 21  1  0  0  0  0
 20 69  1  0  0  0  0
 20 70  1  0  0  0  0
 21 22  1  0  0  0  0
 21 23  1  0  0  0  0
 21 71  1  0  0  0  0
 22 72  1  0  0  0  0
 22 73  1  0  0  0  0
 22 74  1  0  0  0  0
 23 75  1  0  0  0  0
 23 76  1  0  0  0  0
 23 77  1  0  0  0  0
 24 25  2  0  0  0  0
 24 26  1  0  0  0  0
 26 27  1  0  0  0  0
 26 78  1  0  0  0  0
 27 28  1  0  0  0  0
 27 33  1  0  0  0  0
 27 79  1  1  0  0  0
 28 29  1  0  0  0  0
 28 80  1  0  0  0  0
 28 81  1  0  0  0  0
 29 30  1  0  0  0  0
 29 82  1  0  0  0  0
 29 83  1  0  0  0  0
 30 31  1  0  0  0  0
 30 32  2  0  0  0  0
 31 84  1  0  0  0  0
 31 85  1  0  0  0  0
 33 34  2  0  0  0  0
 33 35  1  0  0  0  0
 35 36  1  0  0  0  0
 35 86  1  0  0  0  0
 35 87  1  0  0  0  0
 36 37  1  0  0  0  0
 37 38  2  0  0  0  0
 37 39  1  0  0  0  0
 39 40  1  0  0  0  0
 39 45  2  0  0  0  0
 40 41  1  0  0  0  0
 40 42  2  0  0  0  0
 41 88  1  0  0  0  0
 41 89  1  0  0  0  0
 41 90  1  0  0  0  0
 42 43  1  0  0  0  0
 42 91  1  0  0  0  0
 43 44  2  0  0  0  0
 43 92  1  0  0  0  0
 44 45  1  0  0  0  0
 44 93  1  0  0  0  0
 45 46  1  0  0  0  0
 46 94  1  0  0  0  0
 46 95  1  0  0  0  0
 46 96  1  0  0  0  0
 47 48  1  0  0  0  0
 47 49  1  0  0  0  0
 47 50  1  0  0  0  0
 48 97  1  0  0  0  0
 48 98  1  0  0  0  0
 48 99  1  0  0  0  0
 49100  1  0  0  0  0
 49101  1  0  0  0  0
 49102  1  0  0  0  0
 50103  1  0  0  0  0
 50104  1  0  0  0  0
 50105  1  0  0  0  0
M  END
$$$$
