
 OpenBabel07202414193D

 46 49  0  0  0  0  0  0  0  0999 V2000
    1.1870   -0.2172   -0.1301 O   0  0  0  0  0  0  0  0  0  0  0  0
    2.4268   -0.1886   -0.1344 C   0  0  0  0  0  0  0  0  0  0  0  0
    3.1405   -1.2405    0.7257 C   0  0  0  0  0  0  0  0  0  0  0  0
    3.6806   -0.7155    2.0408 C   0  0  0  0  0  0  0  0  0  0  0  0
    2.8979    0.1769    2.7760 C   0  0  0  0  0  0  0  0  0  0  0  0
    3.2771    0.7738    3.9237 N   0  0  0  0  0  0  0  0  0  0  0  0
    4.4990    0.4450    4.3879 C   0  0  0  0  0  0  0  0  0  0  0  0
    5.3564   -0.4771    3.7888 C   0  0  0  0  0  0  0  0  0  0  0  0
    6.6109   -0.7751    4.3508 C   0  0  0  0  0  0  0  0  0  0  0  0
    7.4505   -1.7147    3.7595 C   0  0  0  0  0  0  0  0  0  0  0  0
    7.0335   -2.3817    2.6154 C   0  0  0  0  0  0  0  0  0  0  0  0
    5.7884   -2.0869    2.0472 C   0  0  0  0  0  0  0  0  0  0  0  0
    4.9289   -1.1061    2.5973 C   0  0  0  0  0  0  0  0  0  0  0  0
    3.1154    0.8001   -0.8428 N   0  0  0  0  0  0  0  0  0  0  0  0
    2.2890    1.7596   -1.5892 C   0  0  0  0  0  0  0  0  0  0  0  0
    2.0235    3.0957   -0.9166 C   0  0  0  0  0  0  0  0  0  0  0  0
    1.9737    3.2435    0.4755 C   0  0  0  0  0  0  0  0  0  0  0  0
    1.5786    4.4500    1.0601 C   0  0  0  0  0  0  0  0  0  0  0  0
    1.2253    5.5322    0.2574 C   0  0  0  0  0  0  0  0  0  0  0  0
    1.2965    5.4104   -1.1264 C   0  0  0  0  0  0  0  0  0  0  0  0
    0.8578    6.7423   -2.1244 Cl  0  0  0  0  0  0  0  0  0  0  0  0
    1.6955    4.2072   -1.7140 C   0  0  0  0  0  0  0  0  0  0  0  0
    4.5366    0.8829   -0.9802 C   0  0  0  0  0  0  0  0  0  0  0  0
    5.1544    2.0273   -1.4931 C   0  0  0  0  0  0  0  0  0  0  0  0
    6.5443    2.0765   -1.6343 C   0  0  0  0  0  0  0  0  0  0  0  0
    7.3034    0.9819   -1.2611 C   0  0  0  0  0  0  0  0  0  0  0  0
    6.6314   -0.1155   -0.7715 C   0  0  0  0  0  0  0  0  0  0  0  0
    5.2862   -0.1814   -0.6397 N   0  0  0  0  0  0  0  0  0  0  0  0
    3.8637   -1.7820    0.1145 H   0  0  0  0  0  0  0  0  0  0  0  0
    2.3927   -2.0063    0.9780 H   0  0  0  0  0  0  0  0  0  0  0  0
    1.8985    0.4553    2.4473 H   0  0  0  0  0  0  0  0  0  0  0  0
    4.7782    0.9566    5.3059 H   0  0  0  0  0  0  0  0  0  0  0  0
    6.9404   -0.2728    5.2581 H   0  0  0  0  0  0  0  0  0  0  0  0
    8.4210   -1.9320    4.1973 H   0  0  0  0  0  0  0  0  0  0  0  0
    7.6738   -3.1305    2.1582 H   0  0  0  0  0  0  0  0  0  0  0  0
    5.5033   -2.6373    1.1541 H   0  0  0  0  0  0  0  0  0  0  0  0
    1.3058    1.3189   -1.8016 H   0  0  0  0  0  0  0  0  0  0  0  0
    2.7391    1.9110   -2.5792 H   0  0  0  0  0  0  0  0  0  0  0  0
    2.2184    2.4140    1.1311 H   0  0  0  0  0  0  0  0  0  0  0  0
    1.5256    4.5323    2.1431 H   0  0  0  0  0  0  0  0  0  0  0  0
    0.8869    6.4570    0.7164 H   0  0  0  0  0  0  0  0  0  0  0  0
    1.7240    4.1299   -2.7987 H   0  0  0  0  0  0  0  0  0  0  0  0
    4.5999    2.9137   -1.7722 H   0  0  0  0  0  0  0  0  0  0  0  0
    7.0227    2.9700   -2.0227 H   0  0  0  0  0  0  0  0  0  0  0  0
    8.3835    0.9861   -1.3441 H   0  0  0  0  0  0  0  0  0  0  0  0
    7.1706   -1.0037   -0.4558 H   0  0  0  0  0  0  0  0  0  0  0  0
  1  2  2  0  0  0  0
  2  3  1  0  0  0  0
  2 14  1  0  0  0  0
  3  4  1  0  0  0  0
  3 29  1  0  0  0  0
  3 30  1  0  0  0  0
  4  5  1  0  0  0  0
  4 13  2  0  0  0  0
  5  6  2  0  0  0  0
  5 31  1  0  0  0  0
  6  7  1  0  0  0  0
  7  8  2  0  0  0  0
  7 32  1  0  0  0  0
  8  9  1  0  0  0  0
  8 13  1  0  0  0  0
  9 10  2  0  0  0  0
  9 33  1  0  0  0  0
 10 11  1  0  0  0  0
 10 34  1  0  0  0  0
 11 12  2  0  0  0  0
 11 35  1  0  0  0  0
 12 13  1  0  0  0  0
 12 36  1  0  0  0  0
 14 15  1  0  0  0  0
 14 23  1  0  0  0  0
 15 16  1  0  0  0  0
 15 37  1  0  0  0  0
 15 38  1  0  0  0  0
 16 17  1  0  0  0  0
 16 22  2  0  0  0  0
 17 18  2  0  0  0  0
 17 39  1  0  0  0  0
 18 19  1  0  0  0  0
 18 40  1  0  0  0  0
 19 20  2  0  0  0  0
 19 41  1  0  0  0  0
 20 21  1  0  0  0  0
 20 22  1  0  0  0  0
 22 42  1  0  0  0  0
 23 24  1  0  0  0  0
 23 28  2  0  0  0  0
 24 25  2  0  0  0  0
 24 43  1  0  0  0  0
 25 26  1  0  0  0  0
 25 44  1  0  0  0  0
 26 27  2  0  0  0  0
 26 45  1  0  0  0  0
 27 28  1  0  0  0  0
 27 46  1  0  0  0  0
M  END
$$$$
