
 OpenBabel07202414193D

 44 47  0  0  0  0  0  0  0  0999 V2000
    1.0192    0.1189    0.0595 O   0  0  0  0  0  0  0  0  0  0  0  0
    2.2370   -0.0185   -0.0786 C   0  0  0  0  0  0  0  0  0  0  0  0
    3.0407   -0.8608    0.9069 C   0  0  0  0  0  0  0  0  0  0  0  0
    2.2816   -2.0455    1.4633 C   0  0  0  0  0  0  0  0  0  0  0  0
    1.5041   -1.8608    2.6070 C   0  0  0  0  0  0  0  0  0  0  0  0
    0.8221   -2.8387    3.2365 N   0  0  0  0  0  0  0  0  0  0  0  0
    0.9035   -4.0704    2.6924 C   0  0  0  0  0  0  0  0  0  0  0  0
    1.6268   -4.3849    1.5417 C   0  0  0  0  0  0  0  0  0  0  0  0
    1.6750   -5.6989    1.0430 C   0  0  0  0  0  0  0  0  0  0  0  0
    2.4055   -5.9973   -0.1047 C   0  0  0  0  0  0  0  0  0  0  0  0
    3.0777   -4.9825   -0.7733 C   0  0  0  0  0  0  0  0  0  0  0  0
    3.0334   -3.6736   -0.2883 C   0  0  0  0  0  0  0  0  0  0  0  0
    2.3260   -3.3428    0.8912 C   0  0  0  0  0  0  0  0  0  0  0  0
    2.9545    0.6441   -1.0868 N   0  0  0  0  0  0  0  0  0  0  0  0
    2.2235    1.6081   -1.9175 C   0  0  0  0  0  0  0  0  0  0  0  0
    1.6353    1.0477   -3.1991 C   0  0  0  0  0  0  0  0  0  0  0  0
    0.6494    0.0469   -3.1770 C   0  0  0  0  0  0  0  0  0  0  0  0
   -0.0042   -0.3504   -4.3492 C   0  0  0  0  0  0  0  0  0  0  0  0
    0.3215    0.2445   -5.5645 C   0  0  0  0  0  0  0  0  0  0  0  0
    1.3132    1.2156   -5.5991 C   0  0  0  0  0  0  0  0  0  0  0  0
    1.6246    1.7965   -6.7657 F   0  0  0  0  0  0  0  0  0  0  0  0
    1.9696    1.6186   -4.4376 C   0  0  0  0  0  0  0  0  0  0  0  0
    4.3962    0.7734   -1.0459 C   0  0  0  0  0  0  0  0  0  0  0  0
    5.2444    0.9402   -2.2814 C   0  0  0  0  0  0  0  0  0  0  0  0
    5.2971   -0.3411   -1.5138 C   0  0  0  0  0  0  0  0  0  0  0  0
    3.3368   -0.1980    1.7305 H   0  0  0  0  0  0  0  0  0  0  0  0
    3.9759   -1.2205    0.4789 H   0  0  0  0  0  0  0  0  0  0  0  0
    1.4099   -0.8825    3.0715 H   0  0  0  0  0  0  0  0  0  0  0  0
    0.3446   -4.8328    3.2294 H   0  0  0  0  0  0  0  0  0  0  0  0
    1.1454   -6.5011    1.5524 H   0  0  0  0  0  0  0  0  0  0  0  0
    2.4463   -7.0179   -0.4762 H   0  0  0  0  0  0  0  0  0  0  0  0
    3.6410   -5.2073   -1.6764 H   0  0  0  0  0  0  0  0  0  0  0  0
    3.5622   -2.9124   -0.8525 H   0  0  0  0  0  0  0  0  0  0  0  0
    2.9014    2.4382   -2.1559 H   0  0  0  0  0  0  0  0  0  0  0  0
    1.4085    2.0565   -1.3374 H   0  0  0  0  0  0  0  0  0  0  0  0
    0.3461   -0.4102   -2.2371 H   0  0  0  0  0  0  0  0  0  0  0  0
   -0.7852   -1.1057   -4.3031 H   0  0  0  0  0  0  0  0  0  0  0  0
   -0.1978   -0.0317   -6.4764 H   0  0  0  0  0  0  0  0  0  0  0  0
    2.7164    2.4034   -4.5134 H   0  0  0  0  0  0  0  0  0  0  0  0
    4.7264    1.3458   -0.1791 H   0  0  0  0  0  0  0  0  0  0  0  0
    6.1051    1.5976   -2.2203 H   0  0  0  0  0  0  0  0  0  0  0  0
    4.7811    0.9097   -3.2597 H   0  0  0  0  0  0  0  0  0  0  0  0
    6.1820   -0.5525   -0.9239 H   0  0  0  0  0  0  0  0  0  0  0  0
    4.8520   -1.2127   -1.9780 H   0  0  0  0  0  0  0  0  0  0  0  0
  1  2  2  0  0  0  0
  2  3  1  0  0  0  0
  2 14  1  0  0  0  0
  3  4  1  0  0  0  0
  3 26  1  0  0  0  0
  3 27  1  0  0  0  0
  4  5  1  0  0  0  0
  4 13  2  0  0  0  0
  5  6  2  0  0  0  0
  5 28  1  0  0  0  0
  6  7  1  0  0  0  0
  7  8  2  0  0  0  0
  7 29  1  0  0  0  0
  8  9  1  0  0  0  0
  8 13  1  0  0  0  0
  9 10  2  0  0  0  0
  9 30  1  0  0  0  0
 10 11  1  0  0  0  0
 10 31  1  0  0  0  0
 11 12  2  0  0  0  0
 11 32  1  0  0  0  0
 12 13  1  0  0  0  0
 12 33  1  0  0  0  0
 14 15  1  0  0  0  0
 14 23  1  0  0  0  0
 15 16  1  0  0  0  0
 15 34  1  0  0  0  0
 15 35  1  0  0  0  0
 16 17  1  0  0  0  0
 16 22  2  0  0  0  0
 17 18  2  0  0  0  0
 17 36  1  0  0  0  0
 18 19  1  0  0  0  0
 18 37  1  0  0  0  0
 19 20  2  0  0  0  0
 19 38  1  0  0  0  0
 20 21  1  0  0  0  0
 20 22  1  0  0  0  0
 22 39  1  0  0  0  0
 23 24  1  0  0  0  0
 23 25  1  0  0  0  0
 23 40  1  0  0  0  0
 24 25  1  0  0  0  0
 24 41  1  0  0  0  0
 24 42  1  0  0  0  0
 25 43  1  0  0  0  0
 25 44  1  0  0  0  0
M  END
$$$$
