
 OpenBabel07202414123D

 46 48  0  0  0  0  0  0  0  0999 V2000
    3.6264    1.3232   -0.1591 C   0  0  0  0  0  0  0  0  0  0  0  0
    2.6714    0.1249   -0.0891 C   0  0  0  0  0  0  0  0  0  0  0  0
    2.2811   -0.3148   -1.5035 C   0  0  0  0  0  0  0  0  0  0  0  0
    3.1424   -1.0277    0.7156 N   0  0  0  0  0  0  0  0  0  0  0  0
    2.0892   -1.8989    1.2597 C   0  0  0  0  0  0  0  0  0  0  0  0
    1.8001   -1.7176    2.7352 C   0  0  0  0  0  0  0  0  0  0  0  0
    0.9577   -2.6459    3.3735 C   0  0  0  0  0  0  0  0  0  0  0  0
    0.6998   -2.5583    4.7432 C   0  0  0  0  0  0  0  0  0  0  0  0
    1.2725   -1.5345    5.4948 C   0  0  0  0  0  0  0  0  0  0  0  0
    2.0800   -0.5892    4.8669 C   0  0  0  0  0  0  0  0  0  0  0  0
    2.7779    0.6840    5.7903 Cl  0  0  0  0  0  0  0  0  0  0  0  0
    2.3372   -0.6699    3.4971 C   0  0  0  0  0  0  0  0  0  0  0  0
    4.4940   -1.3777    0.7360 C   0  0  0  0  0  0  0  0  0  0  0  0
    5.3622   -0.7272    0.1486 O   0  0  0  0  0  0  0  0  0  0  0  0
    4.9270   -2.6310    1.4937 C   0  0  0  0  0  0  0  0  0  0  0  0
    4.9634   -3.8738    0.6291 C   0  0  0  0  0  0  0  0  0  0  0  0
    5.3313   -3.7629   -0.7187 C   0  0  0  0  0  0  0  0  0  0  0  0
    5.3821   -4.7917   -1.5864 N   0  0  0  0  0  0  0  0  0  0  0  0
    5.0834   -6.0074   -1.0929 C   0  0  0  0  0  0  0  0  0  0  0  0
    4.7428   -6.2631    0.2355 C   0  0  0  0  0  0  0  0  0  0  0  0
    4.4687   -7.5697    0.6730 C   0  0  0  0  0  0  0  0  0  0  0  0
    4.1495   -7.8199    2.0043 C   0  0  0  0  0  0  0  0  0  0  0  0
    4.1066   -6.7679    2.9103 C   0  0  0  0  0  0  0  0  0  0  0  0
    4.3724   -5.4626    2.4819 C   0  0  0  0  0  0  0  0  0  0  0  0
    4.6912   -5.1733    1.1339 C   0  0  0  0  0  0  0  0  0  0  0  0
    3.0755    2.2283   -0.4359 H   0  0  0  0  0  0  0  0  0  0  0  0
    4.3965    1.1835   -0.9270 H   0  0  0  0  0  0  0  0  0  0  0  0
    4.1185    1.5093    0.8005 H   0  0  0  0  0  0  0  0  0  0  0  0
    1.7703    0.4955    0.4176 H   0  0  0  0  0  0  0  0  0  0  0  0
    3.0846   -0.8847   -1.9818 H   0  0  0  0  0  0  0  0  0  0  0  0
    2.0465    0.5485   -2.1354 H   0  0  0  0  0  0  0  0  0  0  0  0
    1.3927   -0.9550   -1.4818 H   0  0  0  0  0  0  0  0  0  0  0  0
    2.3740   -2.9410    1.0848 H   0  0  0  0  0  0  0  0  0  0  0  0
    1.1606   -1.7341    0.7003 H   0  0  0  0  0  0  0  0  0  0  0  0
    0.4995   -3.4546    2.8046 H   0  0  0  0  0  0  0  0  0  0  0  0
    0.0553   -3.2915    5.2229 H   0  0  0  0  0  0  0  0  0  0  0  0
    1.0855   -1.4765    6.5638 H   0  0  0  0  0  0  0  0  0  0  0  0
    2.9710    0.0827    3.0340 H   0  0  0  0  0  0  0  0  0  0  0  0
    4.2944   -2.7511    2.3734 H   0  0  0  0  0  0  0  0  0  0  0  0
    5.9375   -2.4501    1.8832 H   0  0  0  0  0  0  0  0  0  0  0  0
    5.6054   -2.8101   -1.1633 H   0  0  0  0  0  0  0  0  0  0  0  0
    5.1348   -6.8088   -1.8241 H   0  0  0  0  0  0  0  0  0  0  0  0
    4.5102   -8.4033   -0.0251 H   0  0  0  0  0  0  0  0  0  0  0  0
    3.9449   -8.8353    2.3330 H   0  0  0  0  0  0  0  0  0  0  0  0
    3.8708   -6.9602    3.9540 H   0  0  0  0  0  0  0  0  0  0  0  0
    4.3408   -4.6796    3.2362 H   0  0  0  0  0  0  0  0  0  0  0  0
  1  2  1  0  0  0  0
  1 26  1  0  0  0  0
  1 27  1  0  0  0  0
  1 28  1  0  0  0  0
  2  3  1  0  0  0  0
  2  4  1  0  0  0  0
  2 29  1  0  0  0  0
  3 30  1  0  0  0  0
  3 31  1  0  0  0  0
  3 32  1  0  0  0  0
  4  5  1  0  0  0  0
  4 13  1  0  0  0  0
  5  6  1  0  0  0  0
  5 33  1  0  0  0  0
  5 34  1  0  0  0  0
  6  7  1  0  0  0  0
  6 12  2  0  0  0  0
  7  8  2  0  0  0  0
  7 35  1  0  0  0  0
  8  9  1  0  0  0  0
  8 36  1  0  0  0  0
  9 10  2  0  0  0  0
  9 37  1  0  0  0  0
 10 11  1  0  0  0  0
 10 12  1  0  0  0  0
 12 38  1  0  0  0  0
 13 14  2  0  0  0  0
 13 15  1  0  0  0  0
 15 16  1  0  0  0  0
 15 39  1  0  0  0  0
 15 40  1  0  0  0  0
 16 17  1  0  0  0  0
 16 25  2  0  0  0  0
 17 18  2  0  0  0  0
 17 41  1  0  0  0  0
 18 19  1  0  0  0  0
 19 20  2  0  0  0  0
 19 42  1  0  0  0  0
 20 21  1  0  0  0  0
 20 25  1  0  0  0  0
 21 22  2  0  0  0  0
 21 43  1  0  0  0  0
 22 23  1  0  0  0  0
 22 44  1  0  0  0  0
 23 24  2  0  0  0  0
 23 45  1  0  0  0  0
 24 25  1  0  0  0  0
 24 46  1  0  0  0  0
M  END
$$$$
