
 OpenBabel07202414163D

 39 42  0  0  0  0  0  0  0  0999 V2000
    1.2593   -0.0531    0.4505 C   0  0  0  0  0  0  0  0  0  0  0  0
    2.7109    0.2630    0.1458 C   0  0  0  0  0  0  0  0  0  0  0  0
    3.4761   -0.7813    0.0144 N   0  0  0  0  0  0  0  0  0  0  0  0
    4.8219   -0.5766   -0.1009 C   0  0  0  0  0  0  0  0  0  0  0  0
    5.4192    0.6077   -0.0381 C   0  0  0  0  0  0  0  0  0  0  0  0
    6.8814    0.7232   -0.0482 C   0  0  0  0  0  0  0  0  0  0  0  0
    7.5918    0.6311    1.1575 C   0  0  0  0  0  0  0  0  0  0  0  0
    8.9838    0.7450    1.1640 C   0  0  0  0  0  0  0  0  0  0  0  0
    9.6695    0.9510   -0.0321 C   0  0  0  0  0  0  0  0  0  0  0  0
    8.9623    1.0400   -1.2304 C   0  0  0  0  0  0  0  0  0  0  0  0
    9.8128    1.2933   -2.7052 Cl  0  0  0  0  0  0  0  0  0  0  0  0
    7.5724    0.9244   -1.2457 C   0  0  0  0  0  0  0  0  0  0  0  0
    4.5483    1.8098    0.0725 C   0  0  0  0  0  0  0  0  0  0  0  0
    5.0812    2.9197    0.1053 O   0  0  0  0  0  0  0  0  0  0  0  0
    3.1729    1.5735    0.1013 N   0  0  0  0  0  0  0  0  0  0  0  0
    2.3237    2.7447    0.0715 C   0  0  0  0  0  0  0  0  0  0  0  0
    2.6173    3.8145    0.9305 C   0  0  0  0  0  0  0  0  0  0  0  0
    2.0048    5.0189    0.9221 N   0  0  0  0  0  0  0  0  0  0  0  0
    0.9867    5.1581    0.0562 C   0  0  0  0  0  0  0  0  0  0  0  0
    0.5062    4.1381   -0.7610 C   0  0  0  0  0  0  0  0  0  0  0  0
   -0.6812    4.3084   -1.4899 C   0  0  0  0  0  0  0  0  0  0  0  0
   -1.1531    3.2947   -2.3157 C   0  0  0  0  0  0  0  0  0  0  0  0
   -0.3669    2.1710   -2.5302 C   0  0  0  0  0  0  0  0  0  0  0  0
    0.8367    2.0158   -1.8368 C   0  0  0  0  0  0  0  0  0  0  0  0
    1.2371    2.9259   -0.8311 C   0  0  0  0  0  0  0  0  0  0  0  0
    1.2128   -1.0036    0.9977 H   0  0  0  0  0  0  0  0  0  0  0  0
    0.6966   -0.2105   -0.4712 H   0  0  0  0  0  0  0  0  0  0  0  0
    0.7833    0.7089    1.0689 H   0  0  0  0  0  0  0  0  0  0  0  0
    5.4110   -1.4864   -0.1892 H   0  0  0  0  0  0  0  0  0  0  0  0
    7.0684    0.4841    2.0982 H   0  0  0  0  0  0  0  0  0  0  0  0
    9.5296    0.6820    2.1020 H   0  0  0  0  0  0  0  0  0  0  0  0
   10.7520    1.0474   -0.0236 H   0  0  0  0  0  0  0  0  0  0  0  0
    7.0327    1.0045   -2.1859 H   0  0  0  0  0  0  0  0  0  0  0  0
    3.3874    3.7302    1.6950 H   0  0  0  0  0  0  0  0  0  0  0  0
    0.5518    6.1554    0.0313 H   0  0  0  0  0  0  0  0  0  0  0  0
   -1.2695    5.2180   -1.3822 H   0  0  0  0  0  0  0  0  0  0  0  0
   -2.1165    3.3943   -2.8083 H   0  0  0  0  0  0  0  0  0  0  0  0
   -0.6933    1.4048   -3.2289 H   0  0  0  0  0  0  0  0  0  0  0  0
    1.4480    1.1493   -2.0778 H   0  0  0  0  0  0  0  0  0  0  0  0
  1  2  1  0  0  0  0
  1 26  1  0  0  0  0
  1 27  1  0  0  0  0
  1 28  1  0  0  0  0
  2  3  2  0  0  0  0
  2 15  1  0  0  0  0
  3  4  1  0  0  0  0
  4  5  2  0  0  0  0
  4 29  1  0  0  0  0
  5  6  1  0  0  0  0
  5 13  1  0  0  0  0
  6  7  1  0  0  0  0
  6 12  2  0  0  0  0
  7  8  2  0  0  0  0
  7 30  1  0  0  0  0
  8  9  1  0  0  0  0
  8 31  1  0  0  0  0
  9 10  2  0  0  0  0
  9 32  1  0  0  0  0
 10 11  1  0  0  0  0
 10 12  1  0  0  0  0
 12 33  1  0  0  0  0
 13 14  2  0  0  0  0
 13 15  1  0  0  0  0
 15 16  1  0  0  0  0
 16 17  1  0  0  0  0
 16 25  2  0  0  0  0
 17 18  2  0  0  0  0
 17 34  1  0  0  0  0
 18 19  1  0  0  0  0
 19 20  2  0  0  0  0
 19 35  1  0  0  0  0
 20 21  1  0  0  0  0
 20 25  1  0  0  0  0
 21 22  2  0  0  0  0
 21 36  1  0  0  0  0
 22 23  1  0  0  0  0
 22 37  1  0  0  0  0
 23 24  2  0  0  0  0
 23 38  1  0  0  0  0
 24 25  1  0  0  0  0
 24 39  1  0  0  0  0
M  END
$$$$
