
 OpenBabel07202414173D

 53 57  0  0  1  0  0  0  0  0999 V2000
    1.0681   -0.0906   -0.1081 Cl  0  0  0  0  0  0  0  0  0  0  0  0
    2.7827   -0.1543    0.0123 C   0  0  0  0  0  0  0  0  0  0  0  0
    3.5221    1.0214   -0.0751 C   0  0  0  0  0  0  0  0  0  0  0  0
    4.9132    0.9911    0.0759 C   0  0  0  0  0  0  0  0  0  0  0  0
    5.6980    2.1230    0.0972 O   0  0  0  0  0  0  0  0  0  0  0  0
    5.0121    3.3453    0.3986 C   0  0  0  0  0  0  0  0  0  0  0  0
    5.9567    4.4363    0.8488 C   0  0  0  0  0  0  0  0  0  0  0  0
    7.2325    4.5863    0.2921 C   0  0  0  0  0  0  0  0  0  0  0  0
    8.0686    5.6252    0.7098 C   0  0  0  0  0  0  0  0  0  0  0  0
    7.6346    6.5312    1.6767 C   0  0  0  0  0  0  0  0  0  0  0  0
    6.3578    6.4097    2.2186 C   0  0  0  0  0  0  0  0  0  0  0  0
    5.5215    5.3734    1.8018 C   0  0  0  0  0  0  0  0  0  0  0  0
    5.5627   -0.2487    0.2408 C   0  0  0  0  0  0  0  0  0  0  0  0
    4.8126   -1.4324    0.3291 C   0  0  0  0  0  0  0  0  0  0  0  0
    3.4157   -1.3740    0.2266 C   0  0  0  0  0  0  0  0  0  0  0  0
    5.4824   -2.7569    0.6230 C   0  0  3  0  0  0  0  0  0  0  0  0
    5.3724   -3.1912    2.0977 C   0  0  0  0  0  0  0  0  0  0  0  0
    5.3592   -4.3862    2.3843 O   0  0  0  0  0  0  0  0  0  0  0  0
    5.3518   -2.1525    3.0107 N   0  0  0  0  0  0  0  0  0  0  0  0
    5.1023   -2.2107    4.4046 C   0  0  0  0  0  0  0  0  0  0  0  0
    4.8382   -3.4031    5.0779 C   0  0  0  0  0  0  0  0  0  0  0  0
    4.4457   -3.4795    6.3706 N   0  0  0  0  0  0  0  0  0  0  0  0
    4.3523   -2.3137    7.0414 C   0  0  0  0  0  0  0  0  0  0  0  0
    4.6866   -1.0667    6.5149 C   0  0  0  0  0  0  0  0  0  0  0  0
    4.6569    0.0897    7.3161 C   0  0  0  0  0  0  0  0  0  0  0  0
    5.0146    1.3296    6.7930 C   0  0  0  0  0  0  0  0  0  0  0  0
    5.3795    1.4322    5.4586 C   0  0  0  0  0  0  0  0  0  0  0  0
    5.4028    0.2909    4.6511 C   0  0  0  0  0  0  0  0  0  0  0  0
    5.0690   -0.9969    5.1554 C   0  0  0  0  0  0  0  0  0  0  0  0
    6.9358   -2.7006    0.1710 C   0  0  0  0  0  0  0  0  0  0  0  0
    7.5984   -1.4404    0.6978 C   0  0  0  0  0  0  0  0  0  0  0  0
    6.9286   -0.2300    0.3267 O   0  0  0  0  0  0  0  0  0  0  0  0
    2.9894    1.9496   -0.2525 H   0  0  0  0  0  0  0  0  0  0  0  0
    4.2976    3.1727    1.2141 H   0  0  0  0  0  0  0  0  0  0  0  0
    4.4811    3.6977   -0.4939 H   0  0  0  0  0  0  0  0  0  0  0  0
    7.5836    3.8922   -0.4687 H   0  0  0  0  0  0  0  0  0  0  0  0
    9.0607    5.7283    0.2778 H   0  0  0  0  0  0  0  0  0  0  0  0
    8.2887    7.3361    2.0021 H   0  0  0  0  0  0  0  0  0  0  0  0
    6.0116    7.1223    2.9628 H   0  0  0  0  0  0  0  0  0  0  0  0
    4.5228    5.3021    2.2281 H   0  0  0  0  0  0  0  0  0  0  0  0
    2.8207   -2.2810    0.3165 H   0  0  0  0  0  0  0  0  0  0  0  0
    4.9709   -3.5321    0.0337 H   0  0  0  0  0  0  0  0  0  0  0  0
    5.4132   -1.2209    2.6289 H   0  0  0  0  0  0  0  0  0  0  0  0
    4.9173   -4.3732    4.5997 H   0  0  0  0  0  0  0  0  0  0  0  0
    3.9934   -2.4163    8.0627 H   0  0  0  0  0  0  0  0  0  0  0  0
    4.3773    0.0247    8.3659 H   0  0  0  0  0  0  0  0  0  0  0  0
    5.0191    2.2107    7.4294 H   0  0  0  0  0  0  0  0  0  0  0  0
    5.6621    2.3969    5.0428 H   0  0  0  0  0  0  0  0  0  0  0  0
    5.7192    0.4363    3.6222 H   0  0  0  0  0  0  0  0  0  0  0  0
    6.9638   -2.6833   -0.9263 H   0  0  0  0  0  0  0  0  0  0  0  0
    7.4870   -3.5880    0.5006 H   0  0  0  0  0  0  0  0  0  0  0  0
    8.6179   -1.3821    0.3001 H   0  0  0  0  0  0  0  0  0  0  0  0
    7.6932   -1.4604    1.7887 H   0  0  0  0  0  0  0  0  0  0  0  0
  1  2  1  0  0  0  0
  2  3  1  0  0  0  0
  2 15  2  0  0  0  0
  3  4  2  0  0  0  0
  3 33  1  0  0  0  0
  4  5  1  0  0  0  0
  4 13  1  0  0  0  0
  5  6  1  0  0  0  0
  6  7  1  0  0  0  0
  6 34  1  0  0  0  0
  6 35  1  0  0  0  0
  7  8  1  0  0  0  0
  7 12  2  0  0  0  0
  8  9  2  0  0  0  0
  8 36  1  0  0  0  0
  9 10  1  0  0  0  0
  9 37  1  0  0  0  0
 10 11  2  0  0  0  0
 10 38  1  0  0  0  0
 11 12  1  0  0  0  0
 11 39  1  0  0  0  0
 12 40  1  0  0  0  0
 13 14  2  0  0  0  0
 13 32  1  0  0  0  0
 14 15  1  0  0  0  0
 14 16  1  0  0  0  0
 15 41  1  0  0  0  0
 16 17  1  0  0  0  0
 16 30  1  0  0  0  0
 16 42  1  0  0  0  0
 17 18  2  0  0  0  0
 17 19  1  0  0  0  0
 19 20  1  0  0  0  0
 19 43  1  0  0  0  0
 20 21  1  0  0  0  0
 20 29  2  0  0  0  0
 21 22  2  0  0  0  0
 21 44  1  0  0  0  0
 22 23  1  0  0  0  0
 23 24  2  0  0  0  0
 23 45  1  0  0  0  0
 24 25  1  0  0  0  0
 24 29  1  0  0  0  0
 25 26  2  0  0  0  0
 25 46  1  0  0  0  0
 26 27  1  0  0  0  0
 26 47  1  0  0  0  0
 27 28  2  0  0  0  0
 27 48  1  0  0  0  0
 28 29  1  0  0  0  0
 28 49  1  0  0  0  0
 30 31  1  0  0  0  0
 30 50  1  0  0  0  0
 30 51  1  0  0  0  0
 31 32  1  0  0  0  0
 31 52  1  0  0  0  0
 31 53  1  0  0  0  0
M  END
$$$$
