
 OpenBabel07202414183D

 64 68  0  0  0  0  0  0  0  0999 V2000
    6.6302    3.5527   -7.0006 F   0  0  0  0  0  0  0  0  0  0  0  0
    6.1874    2.5698   -6.1674 C   0  0  0  0  0  0  0  0  0  0  0  0
    5.2415    1.8864   -6.8745 F   0  0  0  0  0  0  0  0  0  0  0  0
    7.2337    1.7096   -6.0211 F   0  0  0  0  0  0  0  0  0  0  0  0
    5.6635    3.0837   -4.8517 C   0  0  0  0  0  0  0  0  0  0  0  0
    5.6498    4.4569   -4.5610 C   0  0  0  0  0  0  0  0  0  0  0  0
    5.0977    4.9313   -3.3654 C   0  0  0  0  0  0  0  0  0  0  0  0
    4.5286    4.0524   -2.4308 C   0  0  0  0  0  0  0  0  0  0  0  0
    3.9261    4.6103   -1.1450 C   0  0  0  0  0  0  0  0  0  0  0  0
    2.8616    3.7900   -0.5556 N   0  0  0  0  0  0  0  0  0  0  0  0
    1.6144    3.7553   -1.3521 C   0  0  0  0  0  0  0  0  0  0  0  0
    0.6721    4.9775   -1.2234 C   0  0  0  0  0  0  0  0  0  0  0  0
    0.4053    5.2842    0.1930 N   0  0  0  0  0  0  0  0  0  0  0  0
   -0.8371    5.7188    0.6251 C   0  0  0  0  0  0  0  0  0  0  0  0
   -1.0019    6.7837    1.5381 C   0  0  0  0  0  0  0  0  0  0  0  0
   -2.2642    7.1431    2.0587 C   0  0  0  0  0  0  0  0  0  0  0  0
   -2.4484    8.3334    2.9825 C   0  0  0  0  0  0  0  0  0  0  0  0
   -1.6401    8.3437    4.2723 C   0  0  0  0  0  0  0  0  0  0  0  0
   -1.0564    9.3606    4.6457 O   0  0  0  0  0  0  0  0  0  0  0  0
   -1.6826    7.1598    4.9897 N   0  0  0  0  0  0  0  0  0  0  0  0
   -0.9564    6.9831    6.2015 C   0  0  0  0  0  0  0  0  0  0  0  0
    0.0112    5.9835    6.2235 C   0  0  0  0  0  0  0  0  0  0  0  0
    0.7499    5.6587    7.3000 N   0  0  0  0  0  0  0  0  0  0  0  0
    0.4217    6.2818    8.4507 C   0  0  0  0  0  0  0  0  0  0  0  0
   -0.6204    7.2006    8.5853 C   0  0  0  0  0  0  0  0  0  0  0  0
   -1.0412    7.6266    9.8574 C   0  0  0  0  0  0  0  0  0  0  0  0
   -2.0750    8.5507    9.9898 C   0  0  0  0  0  0  0  0  0  0  0  0
   -2.6346    9.1167    8.8517 C   0  0  0  0  0  0  0  0  0  0  0  0
   -2.2519    8.6705    7.5800 C   0  0  0  0  0  0  0  0  0  0  0  0
   -1.2757    7.6532    7.4172 C   0  0  0  0  0  0  0  0  0  0  0  0
   -3.3890    6.4196    1.6436 C   0  0  0  0  0  0  0  0  0  0  0  0
   -3.2509    5.3846    0.7238 C   0  0  0  0  0  0  0  0  0  0  0  0
   -4.6399    4.4965    0.2263 Cl  0  0  0  0  0  0  0  0  0  0  0  0
   -1.9972    5.0460    0.2159 C   0  0  0  0  0  0  0  0  0  0  0  0
    1.5922    5.3968    1.0471 C   0  0  0  0  0  0  0  0  0  0  0  0
    2.5458    4.1891    0.8345 C   0  0  0  0  0  0  0  0  0  0  0  0
    4.6034    2.6746   -2.6919 C   0  0  0  0  0  0  0  0  0  0  0  0
    5.1504    2.1969   -3.8911 C   0  0  0  0  0  0  0  0  0  0  0  0
    6.0686    5.1684   -5.2708 H   0  0  0  0  0  0  0  0  0  0  0  0
    5.1141    6.0024   -3.1704 H   0  0  0  0  0  0  0  0  0  0  0  0
    3.5688    5.6341   -1.3217 H   0  0  0  0  0  0  0  0  0  0  0  0
    4.7659    4.6779   -0.4429 H   0  0  0  0  0  0  0  0  0  0  0  0
    1.0557    2.8694   -1.0215 H   0  0  0  0  0  0  0  0  0  0  0  0
    1.8286    3.5778   -2.4120 H   0  0  0  0  0  0  0  0  0  0  0  0
   -0.2441    4.7533   -1.7808 H   0  0  0  0  0  0  0  0  0  0  0  0
    1.1243    5.8525   -1.7062 H   0  0  0  0  0  0  0  0  0  0  0  0
   -0.1317    7.3711    1.8287 H   0  0  0  0  0  0  0  0  0  0  0  0
   -3.4994    8.4195    3.2829 H   0  0  0  0  0  0  0  0  0  0  0  0
   -2.2068    9.2399    2.4170 H   0  0  0  0  0  0  0  0  0  0  0  0
   -1.7462    6.3355    4.3989 H   0  0  0  0  0  0  0  0  0  0  0  0
    0.2366    5.4008    5.3355 H   0  0  0  0  0  0  0  0  0  0  0  0
    1.0358    6.0039    9.3032 H   0  0  0  0  0  0  0  0  0  0  0  0
   -0.6050    7.1936   10.7559 H   0  0  0  0  0  0  0  0  0  0  0  0
   -2.4343    8.8282   10.9769 H   0  0  0  0  0  0  0  0  0  0  0  0
   -3.3907    9.8926    8.9499 H   0  0  0  0  0  0  0  0  0  0  0  0
   -2.7133    9.1326    6.7148 H   0  0  0  0  0  0  0  0  0  0  0  0
   -4.3788    6.6666    2.0219 H   0  0  0  0  0  0  0  0  0  0  0  0
   -1.9245    4.2047   -0.4680 H   0  0  0  0  0  0  0  0  0  0  0  0
    1.2983    5.3836    2.1048 H   0  0  0  0  0  0  0  0  0  0  0  0
    2.1100    6.3422    0.8525 H   0  0  0  0  0  0  0  0  0  0  0  0
    2.0750    3.3158    1.3061 H   0  0  0  0  0  0  0  0  0  0  0  0
    3.4671    4.3585    1.4053 H   0  0  0  0  0  0  0  0  0  0  0  0
    4.2155    1.9590   -1.9656 H   0  0  0  0  0  0  0  0  0  0  0  0
    5.1641    1.1222   -4.0795 H   0  0  0  0  0  0  0  0  0  0  0  0
  1  2  1  0  0  0  0
  2  3  1  0  0  0  0
  2  4  1  0  0  0  0
  2  5  1  0  0  0  0
  5  6  2  0  0  0  0
  5 38  1  0  0  0  0
  6  7  1  0  0  0  0
  6 39  1  0  0  0  0
  7  8  2  0  0  0  0
  7 40  1  0  0  0  0
  8  9  1  0  0  0  0
  8 37  1  0  0  0  0
  9 10  1  0  0  0  0
  9 41  1  0  0  0  0
  9 42  1  0  0  0  0
 10 11  1  0  0  0  0
 10 36  1  0  0  0  0
 11 12  1  0  0  0  0
 11 43  1  0  0  0  0
 11 44  1  0  0  0  0
 12 13  1  0  0  0  0
 12 45  1  0  0  0  0
 12 46  1  0  0  0  0
 13 14  1  0  0  0  0
 13 35  1  0  0  0  0
 14 15  2  0  0  0  0
 14 34  1  0  0  0  0
 15 16  1  0  0  0  0
 15 47  1  0  0  0  0
 16 17  1  0  0  0  0
 16 31  2  0  0  0  0
 17 18  1  0  0  0  0
 17 48  1  0  0  0  0
 17 49  1  0  0  0  0
 18 19  2  0  0  0  0
 18 20  1  0  0  0  0
 20 21  1  0  0  0  0
 20 50  1  0  0  0  0
 21 22  2  0  0  0  0
 21 30  1  0  0  0  0
 22 23  1  0  0  0  0
 22 51  1  0  0  0  0
 23 24  2  0  0  0  0
 24 25  1  0  0  0  0
 24 52  1  0  0  0  0
 25 26  2  0  0  0  0
 25 30  1  0  0  0  0
 26 27  1  0  0  0  0
 26 53  1  0  0  0  0
 27 28  2  0  0  0  0
 27 54  1  0  0  0  0
 28 29  1  0  0  0  0
 28 55  1  0  0  0  0
 29 30  2  0  0  0  0
 29 56  1  0  0  0  0
 31 32  1  0  0  0  0
 31 57  1  0  0  0  0
 32 33  1  0  0  0  0
 32 34  2  0  0  0  0
 34 58  1  0  0  0  0
 35 36  1  0  0  0  0
 35 59  1  0  0  0  0
 35 60  1  0  0  0  0
 36 61  1  0  0  0  0
 36 62  1  0  0  0  0
 37 38  2  0  0  0  0
 37 63  1  0  0  0  0
 38 64  1  0  0  0  0
M  END
$$$$
