
 OpenBabel07202414183D

 48 50  0  0  0  0  0  0  0  0999 V2000
    4.2034   -4.7802    2.1414 C   0  0  0  0  0  0  0  0  0  0  0  0
    3.4819   -4.2817    0.9851 N   0  0  0  0  0  0  0  0  0  0  0  0
    2.1128   -4.1024    1.0406 C   0  0  0  0  0  0  0  0  0  0  0  0
    1.4092   -3.5326    0.0472 C   0  0  0  0  0  0  0  0  0  0  0  0
    2.1354   -3.0374   -1.1420 C   0  0  0  0  0  0  0  0  0  0  0  0
    1.4962   -2.3714   -2.2025 C   0  0  0  0  0  0  0  0  0  0  0  0
    2.2006   -2.0266   -3.3581 C   0  0  0  0  0  0  0  0  0  0  0  0
    3.5491   -2.3508   -3.4831 C   0  0  0  0  0  0  0  0  0  0  0  0
    4.2032   -2.9982   -2.4385 C   0  0  0  0  0  0  0  0  0  0  0  0
    3.5055   -3.3267   -1.2688 C   0  0  0  0  0  0  0  0  0  0  0  0
    4.2319   -3.9765   -0.1522 C   0  0  0  0  0  0  0  0  0  0  0  0
    5.4331   -4.2073   -0.2464 O   0  0  0  0  0  0  0  0  0  0  0  0
    0.0415   -3.4014    0.1030 N   0  0  0  0  0  0  0  0  0  0  0  0
   -0.9002   -4.3356    0.4296 C   0  0  0  0  0  0  0  0  0  0  0  0
   -2.0815   -4.0060    0.5168 O   0  0  0  0  0  0  0  0  0  0  0  0
   -0.4542   -5.6188    0.5447 N   0  0  0  0  0  0  0  0  0  0  0  0
   -1.3947   -6.7136    0.6995 C   0  0  0  0  0  0  0  0  0  0  0  0
   -0.8429   -7.9273    1.4127 C   0  0  0  0  0  0  0  0  0  0  0  0
    0.5216   -7.9656    1.7909 C   0  0  0  0  0  0  0  0  0  0  0  0
    1.0563   -9.0251    2.5311 C   0  0  0  0  0  0  0  0  0  0  0  0
    0.2286  -10.0757    2.8974 C   0  0  0  0  0  0  0  0  0  0  0  0
   -1.1146  -10.0680    2.5273 C   0  0  0  0  0  0  0  0  0  0  0  0
   -1.6581   -9.0139    1.7789 C   0  0  0  0  0  0  0  0  0  0  0  0
   -3.0099   -9.1369    1.6019 O   0  0  0  0  0  0  0  0  0  0  0  0
   -3.5670   -8.7539    0.3534 C   0  0  0  0  0  0  0  0  0  0  0  0
    2.3517   -9.1353    2.9580 O   0  0  0  0  0  0  0  0  0  0  0  0
    3.2038   -8.0336    2.6863 C   0  0  0  0  0  0  0  0  0  0  0  0
    3.5350   -4.9649    2.9869 H   0  0  0  0  0  0  0  0  0  0  0  0
    4.9501   -4.0364    2.4385 H   0  0  0  0  0  0  0  0  0  0  0  0
    4.7249   -5.7013    1.8680 H   0  0  0  0  0  0  0  0  0  0  0  0
    1.6193   -4.4265    1.9548 H   0  0  0  0  0  0  0  0  0  0  0  0
    0.4400   -2.1237   -2.1643 H   0  0  0  0  0  0  0  0  0  0  0  0
    1.6893   -1.5147   -4.1707 H   0  0  0  0  0  0  0  0  0  0  0  0
    4.0900   -2.0993   -4.3911 H   0  0  0  0  0  0  0  0  0  0  0  0
    5.2573   -3.2498   -2.5348 H   0  0  0  0  0  0  0  0  0  0  0  0
   -0.3794   -2.5613   -0.2741 H   0  0  0  0  0  0  0  0  0  0  0  0
    0.3463   -5.8217   -0.0354 H   0  0  0  0  0  0  0  0  0  0  0  0
   -1.6862   -6.9888   -0.3189 H   0  0  0  0  0  0  0  0  0  0  0  0
   -2.2681   -6.3443    1.2457 H   0  0  0  0  0  0  0  0  0  0  0  0
    1.1629   -7.1353    1.5267 H   0  0  0  0  0  0  0  0  0  0  0  0
    0.6241  -10.8956    3.4903 H   0  0  0  0  0  0  0  0  0  0  0  0
   -1.7545  -10.8905    2.8412 H   0  0  0  0  0  0  0  0  0  0  0  0
   -4.5031   -9.3063    0.2226 H   0  0  0  0  0  0  0  0  0  0  0  0
   -2.9146   -8.9963   -0.4913 H   0  0  0  0  0  0  0  0  0  0  0  0
   -3.8305   -7.6931    0.3648 H   0  0  0  0  0  0  0  0  0  0  0  0
    4.1893   -8.2470    3.1112 H   0  0  0  0  0  0  0  0  0  0  0  0
    2.8259   -7.1267    3.1676 H   0  0  0  0  0  0  0  0  0  0  0  0
    3.3308   -7.8883    1.6081 H   0  0  0  0  0  0  0  0  0  0  0  0
  1  2  1  0  0  0  0
  1 28  1  0  0  0  0
  1 29  1  0  0  0  0
  1 30  1  0  0  0  0
  2  3  1  0  0  0  0
  2 11  1  0  0  0  0
  3  4  2  0  0  0  0
  3 31  1  0  0  0  0
  4  5  1  0  0  0  0
  4 13  1  0  0  0  0
  5  6  1  0  0  0  0
  5 10  2  0  0  0  0
  6  7  2  0  0  0  0
  6 32  1  0  0  0  0
  7  8  1  0  0  0  0
  7 33  1  0  0  0  0
  8  9  2  0  0  0  0
  8 34  1  0  0  0  0
  9 10  1  0  0  0  0
  9 35  1  0  0  0  0
 10 11  1  0  0  0  0
 11 12  2  0  0  0  0
 13 14  1  0  0  0  0
 13 36  1  0  0  0  0
 14 15  2  0  0  0  0
 14 16  1  0  0  0  0
 16 17  1  0  0  0  0
 16 37  1  0  0  0  0
 17 18  1  0  0  0  0
 17 38  1  0  0  0  0
 17 39  1  0  0  0  0
 18 19  1  0  0  0  0
 18 23  2  0  0  0  0
 19 20  2  0  0  0  0
 19 40  1  0  0  0  0
 20 21  1  0  0  0  0
 20 26  1  0  0  0  0
 21 22  2  0  0  0  0
 21 41  1  0  0  0  0
 22 23  1  0  0  0  0
 22 42  1  0  0  0  0
 23 24  1  0  0  0  0
 24 25  1  0  0  0  0
 25 43  1  0  0  0  0
 25 44  1  0  0  0  0
 25 45  1  0  0  0  0
 26 27  1  0  0  0  0
 27 46  1  0  0  0  0
 27 47  1  0  0  0  0
 27 48  1  0  0  0  0
M  END
$$$$
