
 OpenBabel07202414113D

 55 57  0  0  1  0  0  0  0  0999 V2000
    5.9885   -2.0396    2.5350 C   0  0  0  0  0  0  0  0  0  0  0  0
    5.8333   -0.7954    2.0660 C   0  0  0  0  0  0  0  0  0  0  0  0
    4.8640   -0.4682    0.9627 C   0  0  0  0  0  0  0  0  0  0  0  0
    4.3659   -1.4152    0.3547 O   0  0  0  0  0  0  0  0  0  0  0  0
    4.6195    0.8924    0.6651 N   0  0  0  0  0  0  0  0  0  0  0  0
    3.5511    1.2775   -0.2651 C   0  0  0  0  0  0  0  0  0  0  0  0
    2.4561    0.4402   -0.5364 C   0  0  0  0  0  0  0  0  0  0  0  0
    1.3991    0.8362   -1.3782 C   0  0  0  0  0  0  0  0  0  0  0  0
    1.3920    2.0981   -1.9778 C   0  0  0  0  0  0  0  0  0  0  0  0
    2.4724    2.9467   -1.7224 C   0  0  0  0  0  0  0  0  0  0  0  0
    3.5354    2.5370   -0.8974 C   0  0  0  0  0  0  0  0  0  0  0  0
    0.2646    2.5471   -2.8780 C   0  0  0  0  0  0  0  0  0  0  0  0
   -0.7031    1.6056   -3.0568 F   0  0  0  0  0  0  0  0  0  0  0  0
   -0.3749    3.6517   -2.4011 F   0  0  0  0  0  0  0  0  0  0  0  0
    0.6968    2.8792   -4.1264 F   0  0  0  0  0  0  0  0  0  0  0  0
    5.2734    2.0154    1.4163 C   0  0  3  0  0  0  0  0  0  0  0  0
    4.9437    2.0516    2.9169 C   0  0  0  0  0  0  0  0  0  0  0  0
    3.9672    1.2323    3.5104 C   0  0  0  0  0  0  0  0  0  0  0  0
    3.7585    1.2597    4.8856 C   0  0  0  0  0  0  0  0  0  0  0  0
    4.4772    2.1693    5.6339 C   0  0  0  0  0  0  0  0  0  0  0  0
    5.3609    3.0358    5.1012 N   0  0  0  0  0  0  0  0  0  0  0  0
    5.5685    2.9650    3.7652 C   0  0  0  0  0  0  0  0  0  0  0  0
    6.7918    2.2372    1.0615 C   0  0  0  0  0  0  0  0  0  0  0  0
    7.3429    3.3145    1.3018 O   0  0  0  0  0  0  0  0  0  0  0  0
    7.5319    1.1647    0.5907 N   0  0  0  0  0  0  0  0  0  0  0  0
    8.9725    1.2936    0.3924 C   0  0  0  0  0  0  0  0  0  0  0  0
    9.6757   -0.0407    0.1276 C   0  0  0  0  0  0  0  0  0  0  0  0
   11.1562    0.1522   -0.1207 C   0  0  0  0  0  0  0  0  0  0  0  0
   11.6285    0.4115   -1.4180 C   0  0  0  0  0  0  0  0  0  0  0  0
   12.9911    0.6288   -1.6501 C   0  0  0  0  0  0  0  0  0  0  0  0
   13.8956    0.5881   -0.5903 C   0  0  0  0  0  0  0  0  0  0  0  0
   13.4307    0.3248    0.6956 C   0  0  0  0  0  0  0  0  0  0  0  0
   12.0730    0.1051    0.9350 C   0  0  0  0  0  0  0  0  0  0  0  0
   14.2999    0.2858    1.7126 F   0  0  0  0  0  0  0  0  0  0  0  0
    6.6939   -2.2318    3.3385 H   0  0  0  0  0  0  0  0  0  0  0  0
    5.4207   -2.8788    2.1470 H   0  0  0  0  0  0  0  0  0  0  0  0
    6.4343   -0.0247    2.5240 H   0  0  0  0  0  0  0  0  0  0  0  0
    2.3602   -0.5392   -0.0754 H   0  0  0  0  0  0  0  0  0  0  0  0
    0.5756    0.1428   -1.5499 H   0  0  0  0  0  0  0  0  0  0  0  0
    2.4982    3.9404   -2.1703 H   0  0  0  0  0  0  0  0  0  0  0  0
    4.3535    3.2461   -0.7998 H   0  0  0  0  0  0  0  0  0  0  0  0
    4.8170    2.9545    1.0904 H   0  0  0  0  0  0  0  0  0  0  0  0
    3.3713    0.5353    2.9257 H   0  0  0  0  0  0  0  0  0  0  0  0
    3.0540    0.5831    5.3566 H   0  0  0  0  0  0  0  0  0  0  0  0
    4.3522    2.2338    6.7101 H   0  0  0  0  0  0  0  0  0  0  0  0
    6.2753    3.7062    3.3994 H   0  0  0  0  0  0  0  0  0  0  0  0
    7.0475    0.4400    0.0734 H   0  0  0  0  0  0  0  0  0  0  0  0
    9.3955    1.7630    1.2899 H   0  0  0  0  0  0  0  0  0  0  0  0
    9.1266    1.9876   -0.4409 H   0  0  0  0  0  0  0  0  0  0  0  0
    9.2254   -0.5430   -0.7385 H   0  0  0  0  0  0  0  0  0  0  0  0
    9.5303   -0.7278    0.9721 H   0  0  0  0  0  0  0  0  0  0  0  0
   10.9360    0.4525   -2.2582 H   0  0  0  0  0  0  0  0  0  0  0  0
   13.3471    0.8334   -2.6569 H   0  0  0  0  0  0  0  0  0  0  0  0
   14.9551    0.7584   -0.7551 H   0  0  0  0  0  0  0  0  0  0  0  0
   11.7570   -0.0907    1.9559 H   0  0  0  0  0  0  0  0  0  0  0  0
  1  2  2  0  0  0  0
  1 35  1  0  0  0  0
  1 36  1  0  0  0  0
  2  3  1  0  0  0  0
  2 37  1  0  0  0  0
  3  4  2  0  0  0  0
  3  5  1  0  0  0  0
  5  6  1  0  0  0  0
  5 16  1  0  0  0  0
  6  7  1  0  0  0  0
  6 11  2  0  0  0  0
  7  8  2  0  0  0  0
  7 38  1  0  0  0  0
  8  9  1  0  0  0  0
  8 39  1  0  0  0  0
  9 10  2  0  0  0  0
  9 12  1  0  0  0  0
 10 11  1  0  0  0  0
 10 40  1  0  0  0  0
 11 41  1  0  0  0  0
 12 13  1  0  0  0  0
 12 14  1  0  0  0  0
 12 15  1  0  0  0  0
 16 17  1  0  0  0  0
 16 23  1  0  0  0  0
 16 42  1  0  0  0  0
 17 18  1  0  0  0  0
 17 22  2  0  0  0  0
 18 19  2  0  0  0  0
 18 43  1  0  0  0  0
 19 20  1  0  0  0  0
 19 44  1  0  0  0  0
 20 21  2  0  0  0  0
 20 45  1  0  0  0  0
 21 22  1  0  0  0  0
 22 46  1  0  0  0  0
 23 24  2  0  0  0  0
 23 25  1  0  0  0  0
 25 26  1  0  0  0  0
 25 47  1  0  0  0  0
 26 27  1  0  0  0  0
 26 48  1  0  0  0  0
 26 49  1  0  0  0  0
 27 28  1  0  0  0  0
 27 50  1  0  0  0  0
 27 51  1  0  0  0  0
 28 29  1  0  0  0  0
 28 33  2  0  0  0  0
 29 30  2  0  0  0  0
 29 52  1  0  0  0  0
 30 31  1  0  0  0  0
 30 53  1  0  0  0  0
 31 32  2  0  0  0  0
 31 54  1  0  0  0  0
 32 33  1  0  0  0  0
 32 34  1  0  0  0  0
 33 55  1  0  0  0  0
M  END
$$$$
