
 OpenBabel07202414203D

 31 32  0  0  0  0  0  0  0  0999 V2000
    0.3360   -1.1658    0.4405 C   0  0  0  0  0  0  0  0  0  0  0  0
    0.0241    0.0408   -0.2509 C   0  0  0  0  0  0  0  0  0  0  0  0
    0.0948    1.1586    0.5647 C   0  0  0  0  0  0  0  0  0  0  0  0
    0.5431    0.7287    2.1604 S   0  0  0  0  0  0  0  0  0  0  0  0
    0.6343   -0.9334    1.7642 C   0  0  0  0  0  0  0  0  0  0  0  0
   -0.2649    2.8827    0.2432 S   0  0  0  0  0  0  0  0  0  0  0  0
   -1.1500    2.8259   -0.9006 O   0  0  0  0  0  0  0  0  0  0  0  0
   -0.7006    3.4507    1.5002 O   0  0  0  0  0  0  0  0  0  0  0  0
    1.1262    3.6957   -0.2460 N   0  0  0  0  0  0  0  0  0  0  0  0
    1.6863    3.4455   -1.5877 C   0  0  0  0  0  0  0  0  0  0  0  0
    2.7261    2.3255   -1.5449 C   0  0  0  0  0  0  0  0  0  0  0  0
    3.7512    2.5179   -0.5108 N   0  0  0  0  0  0  0  0  0  0  0  0
    3.2983    3.0269    0.7942 C   0  0  0  0  0  0  0  0  0  0  0  0
    2.1683    4.0616    0.7383 C   0  0  0  0  0  0  0  0  0  0  0  0
    4.9654    1.8264   -0.5132 C   0  0  0  0  0  0  0  0  0  0  0  0
    5.7342    1.8719    0.4514 O   0  0  0  0  0  0  0  0  0  0  0  0
    5.3200    0.9783   -1.7221 C   0  0  0  0  0  0  0  0  0  0  0  0
    6.0162    2.0018   -2.9888 Cl  0  0  0  0  0  0  0  0  0  0  0  0
    0.3199   -2.1551   -0.0020 H   0  0  0  0  0  0  0  0  0  0  0  0
   -0.2685    0.0934   -1.2933 H   0  0  0  0  0  0  0  0  0  0  0  0
    0.8866   -1.6612    2.5246 H   0  0  0  0  0  0  0  0  0  0  0  0
    2.1600    4.3741   -1.9319 H   0  0  0  0  0  0  0  0  0  0  0  0
    0.9028    3.2179   -2.3160 H   0  0  0  0  0  0  0  0  0  0  0  0
    3.1954    2.2547   -2.5291 H   0  0  0  0  0  0  0  0  0  0  0  0
    2.2511    1.3614   -1.3444 H   0  0  0  0  0  0  0  0  0  0  0  0
    4.1495    3.4625    1.3310 H   0  0  0  0  0  0  0  0  0  0  0  0
    2.9811    2.1546    1.3713 H   0  0  0  0  0  0  0  0  0  0  0  0
    2.5815    5.0309    0.4296 H   0  0  0  0  0  0  0  0  0  0  0  0
    1.7440    4.2209    1.7343 H   0  0  0  0  0  0  0  0  0  0  0  0
    4.4515    0.4407   -2.1110 H   0  0  0  0  0  0  0  0  0  0  0  0
    6.0637    0.2310   -1.4291 H   0  0  0  0  0  0  0  0  0  0  0  0
  1  2  1  0  0  0  0
  1  5  2  0  0  0  0
  1 19  1  0  0  0  0
  2  3  2  0  0  0  0
  2 20  1  0  0  0  0
  3  4  1  0  0  0  0
  3  6  1  0  0  0  0
  4  5  1  0  0  0  0
  5 21  1  0  0  0  0
  6  7  2  0  0  0  0
  6  8  2  0  0  0  0
  6  9  1  0  0  0  0
  9 10  1  0  0  0  0
  9 14  1  0  0  0  0
 10 11  1  0  0  0  0
 10 22  1  0  0  0  0
 10 23  1  0  0  0  0
 11 12  1  0  0  0  0
 11 24  1  0  0  0  0
 11 25  1  0  0  0  0
 12 13  1  0  0  0  0
 12 15  1  0  0  0  0
 13 14  1  0  0  0  0
 13 26  1  0  0  0  0
 13 27  1  0  0  0  0
 14 28  1  0  0  0  0
 14 29  1  0  0  0  0
 15 16  2  0  0  0  0
 15 17  1  0  0  0  0
 17 18  1  0  0  0  0
 17 30  1  0  0  0  0
 17 31  1  0  0  0  0
M  END
$$$$
