
 OpenBabel07202414133D

 52 55  0  0  1  0  0  0  0  0999 V2000
    6.1694   -4.9150    5.0318 C   0  0  0  0  0  0  0  0  0  0  0  0
    5.0268   -4.8294    4.0509 C   0  0  0  0  0  0  0  0  0  0  0  0
    5.3767   -4.0704    2.8718 N   0  0  0  0  0  0  0  0  0  0  0  0
    4.4582   -3.9454    1.8504 C   0  0  0  0  0  0  0  0  0  0  0  0
    3.3543   -4.4859    1.8704 O   0  0  0  0  0  0  0  0  0  0  0  0
    4.8338   -2.9571    0.7489 C   0  0  0  0  0  0  0  0  0  0  0  0
    6.2539   -2.8747    0.4052 N   0  0  0  0  0  0  0  0  0  0  0  0
    6.8551   -3.9265   -0.4063 C   0  0  0  0  0  0  0  0  0  0  0  0
    7.6195   -3.3381   -1.5896 C   0  0  3  0  0  0  0  0  0  0  0  0
    6.6242   -2.9833   -2.7009 C   0  0  0  0  0  0  0  0  0  0  0  0
    6.3939   -3.7942   -3.5936 O   0  0  0  0  0  0  0  0  0  0  0  0
    6.0025   -1.7572   -2.5507 N   0  0  0  0  0  0  0  0  0  0  0  0
    5.1534   -1.0942   -3.4694 C   0  0  0  0  0  0  0  0  0  0  0  0
    4.7728   -1.6477   -4.6906 C   0  0  0  0  0  0  0  0  0  0  0  0
    4.1027   -0.9822   -5.6603 N   0  0  0  0  0  0  0  0  0  0  0  0
    3.7591    0.2924   -5.3927 C   0  0  0  0  0  0  0  0  0  0  0  0
    3.9822    0.9280   -4.1735 C   0  0  0  0  0  0  0  0  0  0  0  0
    3.4962    2.2259   -3.9403 C   0  0  0  0  0  0  0  0  0  0  0  0
    3.6940    2.8326   -2.7095 C   0  0  0  0  0  0  0  0  0  0  0  0
    3.1873    4.0509   -2.4827 F   0  0  0  0  0  0  0  0  0  0  0  0
    4.3955    2.1867   -1.7059 C   0  0  0  0  0  0  0  0  0  0  0  0
    4.8960    0.9018   -1.9326 C   0  0  0  0  0  0  0  0  0  0  0  0
    4.6988    0.2286   -3.1707 C   0  0  0  0  0  0  0  0  0  0  0  0
    8.4946   -2.1784   -1.1366 C   0  0  0  0  0  0  0  0  0  0  0  0
    9.5285   -1.7139   -1.9665 C   0  0  0  0  0  0  0  0  0  0  0  0
   10.2882   -0.6061   -1.5861 C   0  0  0  0  0  0  0  0  0  0  0  0
   11.5285   -0.0256   -2.6262 Cl  0  0  0  0  0  0  0  0  0  0  0  0
   10.0372    0.0461   -0.3802 C   0  0  0  0  0  0  0  0  0  0  0  0
    9.0167   -0.4087    0.4573 C   0  0  0  0  0  0  0  0  0  0  0  0
    8.2428   -1.5144    0.0840 C   0  0  0  0  0  0  0  0  0  0  0  0
    7.0435   -1.8595    0.9079 C   0  0  0  0  0  0  0  0  0  0  0  0
    6.7360   -1.1998    1.8925 O   0  0  0  0  0  0  0  0  0  0  0  0
    5.8924   -5.5446    5.8856 H   0  0  0  0  0  0  0  0  0  0  0  0
    6.4300   -3.9210    5.4137 H   0  0  0  0  0  0  0  0  0  0  0  0
    7.0637   -5.3406    4.5650 H   0  0  0  0  0  0  0  0  0  0  0  0
    4.1543   -4.3582    4.5144 H   0  0  0  0  0  0  0  0  0  0  0  0
    4.7262   -5.8346    3.7239 H   0  0  0  0  0  0  0  0  0  0  0  0
    6.0422   -3.3038    2.9584 H   0  0  0  0  0  0  0  0  0  0  0  0
    4.4843   -1.9661    1.0604 H   0  0  0  0  0  0  0  0  0  0  0  0
    4.2951   -3.2292   -0.1641 H   0  0  0  0  0  0  0  0  0  0  0  0
    6.0870   -4.6389   -0.7287 H   0  0  0  0  0  0  0  0  0  0  0  0
    7.5543   -4.4657    0.2475 H   0  0  0  0  0  0  0  0  0  0  0  0
    8.2785   -4.1178   -1.9959 H   0  0  0  0  0  0  0  0  0  0  0  0
    6.2728   -1.2200   -1.7420 H   0  0  0  0  0  0  0  0  0  0  0  0
    4.9937   -2.6751   -4.9589 H   0  0  0  0  0  0  0  0  0  0  0  0
    3.2715    0.8049   -6.2180 H   0  0  0  0  0  0  0  0  0  0  0  0
    2.9370    2.7639   -4.7008 H   0  0  0  0  0  0  0  0  0  0  0  0
    4.5363    2.6766   -0.7475 H   0  0  0  0  0  0  0  0  0  0  0  0
    5.4131    0.4317   -1.1024 H   0  0  0  0  0  0  0  0  0  0  0  0
    9.7293   -2.1994   -2.9208 H   0  0  0  0  0  0  0  0  0  0  0  0
   10.6179    0.9206   -0.0954 H   0  0  0  0  0  0  0  0  0  0  0  0
    8.8058    0.1250    1.3829 H   0  0  0  0  0  0  0  0  0  0  0  0
  1  2  1  0  0  0  0
  1 33  1  0  0  0  0
  1 34  1  0  0  0  0
  1 35  1  0  0  0  0
  2  3  1  0  0  0  0
  2 36  1  0  0  0  0
  2 37  1  0  0  0  0
  3  4  1  0  0  0  0
  3 38  1  0  0  0  0
  4  5  2  0  0  0  0
  4  6  1  0  0  0  0
  6  7  1  0  0  0  0
  6 39  1  0  0  0  0
  6 40  1  0  0  0  0
  7  8  1  0  0  0  0
  7 31  1  0  0  0  0
  8  9  1  0  0  0  0
  8 41  1  0  0  0  0
  8 42  1  0  0  0  0
  9 10  1  0  0  0  0
  9 24  1  0  0  0  0
  9 43  1  0  0  0  0
 10 11  2  0  0  0  0
 10 12  1  0  0  0  0
 12 13  1  0  0  0  0
 12 44  1  0  0  0  0
 13 14  1  0  0  0  0
 13 23  2  0  0  0  0
 14 15  2  0  0  0  0
 14 45  1  0  0  0  0
 15 16  1  0  0  0  0
 16 17  2  0  0  0  0
 16 46  1  0  0  0  0
 17 18  1  0  0  0  0
 17 23  1  0  0  0  0
 18 19  2  0  0  0  0
 18 47  1  0  0  0  0
 19 20  1  0  0  0  0
 19 21  1  0  0  0  0
 21 22  2  0  0  0  0
 21 48  1  0  0  0  0
 22 23  1  0  0  0  0
 22 49  1  0  0  0  0
 24 25  1  0  0  0  0
 24 30  2  0  0  0  0
 25 26  2  0  0  0  0
 25 50  1  0  0  0  0
 26 27  1  0  0  0  0
 26 28  1  0  0  0  0
 28 29  2  0  0  0  0
 28 51  1  0  0  0  0
 29 30  1  0  0  0  0
 29 52  1  0  0  0  0
 30 31  1  0  0  0  0
 31 32  2  0  0  0  0
M  END
$$$$
