
 OpenBabel07202414153D

 46 47  0  0  1  0  0  0  0  0999 V2000
    1.0110   -0.3291   -0.3282 C   0  0  0  0  0  0  0  0  0  0  0  0
    2.5024   -0.0614   -0.0976 C   0  0  1  0  0  0  0  0  0  0  0  0
    3.2542   -1.2959    0.0856 N   0  0  0  0  0  0  0  0  0  0  0  0
    2.9947   -2.1294    1.1599 C   0  0  0  0  0  0  0  0  0  0  0  0
    2.0924   -1.9600    1.9722 O   0  0  0  0  0  0  0  0  0  0  0  0
    3.9229   -3.3382    1.2291 C   0  0  0  0  0  0  0  0  0  0  0  0
    5.2840   -2.9779    1.2913 O   0  0  0  0  0  0  0  0  0  0  0  0
    5.7776   -2.2026    2.6316 S   0  0  0  0  0  0  0  0  0  0  0  0
    7.4130   -2.0754    2.3649 N   0  0  0  0  0  0  0  0  0  0  0  0
    5.2582   -0.8610    2.5793 O   0  0  0  0  0  0  0  0  0  0  0  0
    5.6012   -3.0893    3.7576 O   0  0  0  0  0  0  0  0  0  0  0  0
    3.0205    0.7708   -1.2664 C   0  0  0  0  0  0  0  0  0  0  0  0
    3.5548    0.2018   -2.4287 C   0  0  0  0  0  0  0  0  0  0  0  0
    3.9093    1.0124   -3.5049 C   0  0  0  0  0  0  0  0  0  0  0  0
    4.5591    0.3001   -4.9321 Cl  0  0  0  0  0  0  0  0  0  0  0  0
    3.7250    2.3946   -3.4525 C   0  0  0  0  0  0  0  0  0  0  0  0
    3.1768    3.0074   -2.3149 C   0  0  0  0  0  0  0  0  0  0  0  0
    2.9286    4.4682   -2.2640 C   0  0  0  0  0  0  0  0  0  0  0  0
    2.5742    5.1942   -3.4194 C   0  0  0  0  0  0  0  0  0  0  0  0
    2.3220    6.5686   -3.3729 C   0  0  0  0  0  0  0  0  0  0  0  0
    2.3966    7.2350   -2.1517 C   0  0  0  0  0  0  0  0  0  0  0  0
    2.0205    8.9580   -2.0676 S   0  0  0  0  0  0  0  0  0  0  0  0
    0.3781    8.9052   -1.7325 N   0  0  0  0  0  0  0  0  0  0  0  0
    2.6528    9.5266   -0.8996 O   0  0  0  0  0  0  0  0  0  0  0  0
    2.1460    9.5399   -3.3822 O   0  0  0  0  0  0  0  0  0  0  0  0
    2.7575    6.5537   -0.9918 C   0  0  0  0  0  0  0  0  0  0  0  0
    3.0228    5.1836   -1.0541 C   0  0  0  0  0  0  0  0  0  0  0  0
    2.8419    2.1693   -1.2312 C   0  0  0  0  0  0  0  0  0  0  0  0
    0.5535   -0.8660    0.5066 H   0  0  0  0  0  0  0  0  0  0  0  0
    0.8554   -0.9341   -1.2289 H   0  0  0  0  0  0  0  0  0  0  0  0
    0.4541    0.6064   -0.4490 H   0  0  0  0  0  0  0  0  0  0  0  0
    2.6322    0.5133    0.8293 H   0  0  0  0  0  0  0  0  0  0  0  0
    4.2104   -1.3012   -0.2454 H   0  0  0  0  0  0  0  0  0  0  0  0
    3.7607   -3.9337    0.3239 H   0  0  0  0  0  0  0  0  0  0  0  0
    3.6440   -3.9641    2.0837 H   0  0  0  0  0  0  0  0  0  0  0  0
    7.6238   -1.4366    1.5996 H   0  0  0  0  0  0  0  0  0  0  0  0
    7.8686   -2.9867    2.3140 H   0  0  0  0  0  0  0  0  0  0  0  0
    3.6691   -0.8761   -2.5166 H   0  0  0  0  0  0  0  0  0  0  0  0
    4.0110    2.9920   -4.3150 H   0  0  0  0  0  0  0  0  0  0  0  0
    2.4672    4.6936   -4.3802 H   0  0  0  0  0  0  0  0  0  0  0  0
    2.0501    7.0988   -4.2827 H   0  0  0  0  0  0  0  0  0  0  0  0
    0.1903    9.3115   -0.8162 H   0  0  0  0  0  0  0  0  0  0  0  0
   -0.1525    9.3217   -2.4971 H   0  0  0  0  0  0  0  0  0  0  0  0
    2.8240    7.0723   -0.0380 H   0  0  0  0  0  0  0  0  0  0  0  0
    3.3078    4.6807   -0.1322 H   0  0  0  0  0  0  0  0  0  0  0  0
    2.3829    2.6023   -0.3421 H   0  0  0  0  0  0  0  0  0  0  0  0
  1  2  1  0  0  0  0
  1 29  1  0  0  0  0
  1 30  1  0  0  0  0
  1 31  1  0  0  0  0
  2  3  1  0  0  0  0
  2 12  1  0  0  0  0
  2 32  1  1  0  0  0
  3  4  1  0  0  0  0
  3 33  1  0  0  0  0
  4  5  2  0  0  0  0
  4  6  1  0  0  0  0
  6  7  1  0  0  0  0
  6 34  1  0  0  0  0
  6 35  1  0  0  0  0
  7  8  1  0  0  0  0
  8  9  1  0  0  0  0
  8 10  2  0  0  0  0
  8 11  2  0  0  0  0
  9 36  1  0  0  0  0
  9 37  1  0  0  0  0
 12 13  1  0  0  0  0
 12 28  2  0  0  0  0
 13 14  2  0  0  0  0
 13 38  1  0  0  0  0
 14 15  1  0  0  0  0
 14 16  1  0  0  0  0
 16 17  2  0  0  0  0
 16 39  1  0  0  0  0
 17 18  1  0  0  0  0
 17 28  1  0  0  0  0
 18 19  1  0  0  0  0
 18 27  2  0  0  0  0
 19 20  2  0  0  0  0
 19 40  1  0  0  0  0
 20 21  1  0  0  0  0
 20 41  1  0  0  0  0
 21 22  1  0  0  0  0
 21 26  2  0  0  0  0
 22 23  1  0  0  0  0
 22 24  2  0  0  0  0
 22 25  2  0  0  0  0
 23 42  1  0  0  0  0
 23 43  1  0  0  0  0
 26 27  1  0  0  0  0
 26 44  1  0  0  0  0
 27 45  1  0  0  0  0
 28 46  1  0  0  0  0
M  END
$$$$
