
 OpenBabel07202414193D

 45 48  0  0  1  0  0  0  0  0999 V2000
    1.3216    0.5262    0.1923 O   0  0  0  0  0  0  0  0  0  0  0  0
    2.4557    0.1040   -0.0382 C   0  0  0  0  0  0  0  0  0  0  0  0
    3.0877   -0.9428    0.8650 C   0  0  0  0  0  0  0  0  0  0  0  0
    2.9796   -2.3756    0.3927 C   0  0  0  0  0  0  0  0  0  0  0  0
    1.8603   -2.7915   -0.3324 C   0  0  0  0  0  0  0  0  0  0  0  0
    1.6597   -4.0482   -0.7826 N   0  0  0  0  0  0  0  0  0  0  0  0
    2.6026   -4.9605   -0.4664 C   0  0  0  0  0  0  0  0  0  0  0  0
    3.7510   -4.6868    0.2785 C   0  0  0  0  0  0  0  0  0  0  0  0
    4.6770   -5.6997    0.5861 C   0  0  0  0  0  0  0  0  0  0  0  0
    5.8140   -5.4175    1.3398 C   0  0  0  0  0  0  0  0  0  0  0  0
    6.0331   -4.1232    1.7909 C   0  0  0  0  0  0  0  0  0  0  0  0
    5.1159   -3.1107    1.4911 C   0  0  0  0  0  0  0  0  0  0  0  0
    3.9515   -3.3603    0.7260 C   0  0  0  0  0  0  0  0  0  0  0  0
    3.2084    0.5617   -1.0995 N   0  0  0  0  0  0  0  0  0  0  0  0
    2.7312    1.6262   -1.9639 C   0  0  0  0  0  0  0  0  0  0  0  0
    3.2923    1.2576   -3.3278 C   0  0  0  0  0  0  0  0  0  0  0  0
    4.6527    0.6236   -3.0058 C   0  0  1  0  0  0  0  0  0  0  0  0
    5.9326    1.9351   -2.8471 S   0  0  0  0  0  0  0  0  0  0  0  0
    7.4244    0.9736   -2.6465 C   0  0  0  0  0  0  0  0  0  0  0  0
    7.8209    0.0032   -3.5738 C   0  0  0  0  0  0  0  0  0  0  0  0
    9.0361   -0.6722   -3.4177 C   0  0  0  0  0  0  0  0  0  0  0  0
    9.8666   -0.3747   -2.3380 C   0  0  0  0  0  0  0  0  0  0  0  0
    9.4764    0.5948   -1.4175 C   0  0  0  0  0  0  0  0  0  0  0  0
   10.5067    0.9761   -0.0927 Cl  0  0  0  0  0  0  0  0  0  0  0  0
    8.2642    1.2688   -1.5672 C   0  0  0  0  0  0  0  0  0  0  0  0
    4.3737   -0.1023   -1.6811 C   0  0  0  0  0  0  0  0  0  0  0  0
    2.6064   -0.8693    1.8474 H   0  0  0  0  0  0  0  0  0  0  0  0
    4.1284   -0.6399    1.0082 H   0  0  0  0  0  0  0  0  0  0  0  0
    1.0535   -2.1044   -0.5857 H   0  0  0  0  0  0  0  0  0  0  0  0
    2.3965   -5.9606   -0.8353 H   0  0  0  0  0  0  0  0  0  0  0  0
    4.5126   -6.7209    0.2468 H   0  0  0  0  0  0  0  0  0  0  0  0
    6.5223   -6.2069    1.5782 H   0  0  0  0  0  0  0  0  0  0  0  0
    6.9155   -3.8965    2.3845 H   0  0  0  0  0  0  0  0  0  0  0  0
    5.3305   -2.1200    1.8824 H   0  0  0  0  0  0  0  0  0  0  0  0
    3.1585    2.5670   -1.5965 H   0  0  0  0  0  0  0  0  0  0  0  0
    1.6417    1.7141   -1.9586 H   0  0  0  0  0  0  0  0  0  0  0  0
    3.3289    2.1043   -4.0198 H   0  0  0  0  0  0  0  0  0  0  0  0
    2.6424    0.4940   -3.7757 H   0  0  0  0  0  0  0  0  0  0  0  0
    4.9493   -0.0718   -3.7958 H   0  0  0  0  0  0  0  0  0  0  0  0
    7.2099   -0.2192   -4.4452 H   0  0  0  0  0  0  0  0  0  0  0  0
    9.3440   -1.4166   -4.1486 H   0  0  0  0  0  0  0  0  0  0  0  0
   10.8182   -0.8889   -2.2275 H   0  0  0  0  0  0  0  0  0  0  0  0
    7.9833    2.0344   -0.8480 H   0  0  0  0  0  0  0  0  0  0  0  0
    5.2072   -0.1003   -0.9730 H   0  0  0  0  0  0  0  0  0  0  0  0
    4.0932   -1.1410   -1.8828 H   0  0  0  0  0  0  0  0  0  0  0  0
  1  2  2  0  0  0  0
  2  3  1  0  0  0  0
  2 14  1  0  0  0  0
  3  4  1  0  0  0  0
  3 27  1  0  0  0  0
  3 28  1  0  0  0  0
  4  5  1  0  0  0  0
  4 13  2  0  0  0  0
  5  6  2  0  0  0  0
  5 29  1  0  0  0  0
  6  7  1  0  0  0  0
  7  8  2  0  0  0  0
  7 30  1  0  0  0  0
  8  9  1  0  0  0  0
  8 13  1  0  0  0  0
  9 10  2  0  0  0  0
  9 31  1  0  0  0  0
 10 11  1  0  0  0  0
 10 32  1  0  0  0  0
 11 12  2  0  0  0  0
 11 33  1  0  0  0  0
 12 13  1  0  0  0  0
 12 34  1  0  0  0  0
 14 15  1  0  0  0  0
 14 26  1  0  0  0  0
 15 16  1  0  0  0  0
 15 35  1  0  0  0  0
 15 36  1  0  0  0  0
 16 17  1  0  0  0  0
 16 37  1  0  0  0  0
 16 38  1  0  0  0  0
 17 18  1  0  0  0  0
 17 26  1  0  0  0  0
 17 39  1  6  0  0  0
 18 19  1  0  0  0  0
 19 20  1  0  0  0  0
 19 25  2  0  0  0  0
 20 21  2  0  0  0  0
 20 40  1  0  0  0  0
 21 22  1  0  0  0  0
 21 41  1  0  0  0  0
 22 23  2  0  0  0  0
 22 42  1  0  0  0  0
 23 24  1  0  0  0  0
 23 25  1  0  0  0  0
 25 43  1  0  0  0  0
 26 44  1  0  0  0  0
 26 45  1  0  0  0  0
M  END
$$$$
