
 OpenBabel07202414133D

 79 84  0  0  1  0  0  0  0  0999 V2000
   -0.1141   -1.7682   -3.5860 C   0  0  0  0  0  0  0  0  0  0  0  0
    1.3897   -1.6817   -3.3502 C   0  0  0  0  0  0  0  0  0  0  0  0
    1.9899   -0.3909   -3.7308 N   0  0  0  0  0  0  0  0  0  0  0  0
    1.3644    0.7761   -3.0916 C   0  0  0  0  0  0  0  0  0  0  0  0
    1.5593    0.8949   -1.5836 C   0  0  0  0  0  0  0  0  0  0  0  0
    3.4492   -0.4532   -3.5309 C   0  0  0  0  0  0  0  0  0  0  0  0
    4.2118    0.7882   -4.0095 C   0  0  0  0  0  0  0  0  0  0  0  0
    5.5968    0.5480   -3.7768 O   0  0  0  0  0  0  0  0  0  0  0  0
    6.4579    1.2633   -4.5525 C   0  0  0  0  0  0  0  0  0  0  0  0
    6.1964    2.4749   -5.1783 C   0  0  0  0  0  0  0  0  0  0  0  0
    7.2031    3.0998   -5.9151 C   0  0  0  0  0  0  0  0  0  0  0  0
    8.4744    2.5119   -6.0304 C   0  0  0  0  0  0  0  0  0  0  0  0
    9.5184    3.1542   -6.6954 C   0  0  0  0  0  0  0  0  0  0  0  0
   10.7771    2.6774   -6.7717 N   0  0  0  0  0  0  0  0  0  0  0  0
   10.9970    1.4737   -6.1952 C   0  0  0  0  0  0  0  0  0  0  0  0
   10.0147    0.6903   -5.5739 C   0  0  0  0  0  0  0  0  0  0  0  0
   10.3665   -0.6342   -5.2297 N   0  0  0  0  0  0  0  0  0  0  0  0
    9.5641   -1.8142   -5.2839 C   0  0  0  0  0  0  0  0  0  0  0  0
   10.5790   -2.9623   -5.1964 C   0  0  0  0  0  0  0  0  0  0  0  0
   11.9273   -2.3087   -4.7445 C   0  0  3  0  0  0  0  0  0  0  0  0
   12.4942   -2.9819   -3.4813 C   0  0  0  0  0  0  0  0  0  0  0  0
   13.9516   -2.7546   -3.2482 N   0  0  0  0  0  0  0  0  0  0  0  0
   14.5574   -1.2523   -2.7098 S   0  0  0  0  0  0  0  0  0  0  0  0
   15.9534   -1.5087   -2.4032 O   0  0  0  0  0  0  0  0  0  0  0  0
   14.2373   -0.2556   -3.7056 O   0  0  0  0  0  0  0  0  0  0  0  0
   13.7110   -0.9455   -1.1381 C   0  0  0  0  0  0  0  0  0  0  0  0
   14.0353    0.4933   -0.7662 C   0  0  0  0  0  0  0  0  0  0  0  0
   15.4386    0.8224   -0.6494 C   0  0  0  0  0  0  0  0  0  0  0  0
   16.5453    1.1096   -0.5007 N   0  0  0  0  0  0  0  0  0  0  0  0
   13.0472    1.5622   -1.1892 C   0  0  0  0  0  0  0  0  0  0  0  0
   13.1681    1.2269    0.2629 C   0  0  0  0  0  0  0  0  0  0  0  0
   14.7370   -3.2859   -4.3933 C   0  0  0  0  0  0  0  0  0  0  0  0
   14.2577   -2.7664   -5.7290 C   0  0  0  0  0  0  0  0  0  0  0  0
   15.1632   -2.7660   -6.8069 C   0  0  0  0  0  0  0  0  0  0  0  0
   14.7777   -2.3064   -8.0642 C   0  0  0  0  0  0  0  0  0  0  0  0
   13.4821   -1.8500   -8.2541 C   0  0  0  0  0  0  0  0  0  0  0  0
   12.9865   -1.2903   -9.8036 Cl  0  0  0  0  0  0  0  0  0  0  0  0
   12.5704   -1.8500   -7.1979 C   0  0  0  0  0  0  0  0  0  0  0  0
   12.9340   -2.3076   -5.9136 C   0  0  0  0  0  0  0  0  0  0  0  0
   11.4271   -0.9138   -4.3867 C   0  0  0  0  0  0  0  0  0  0  0  0
   11.7011   -0.2453   -3.4042 O   0  0  0  0  0  0  0  0  0  0  0  0
    8.7356    1.2545   -5.4374 C   0  0  0  0  0  0  0  0  0  0  0  0
    7.7153    0.6812   -4.6650 C   0  0  0  0  0  0  0  0  0  0  0  0
   -0.4491   -2.8046   -3.4752 H   0  0  0  0  0  0  0  0  0  0  0  0
   -0.3793   -1.4352   -4.5946 H   0  0  0  0  0  0  0  0  0  0  0  0
   -0.6704   -1.1672   -2.8598 H   0  0  0  0  0  0  0  0  0  0  0  0
    1.8526   -2.4706   -3.9571 H   0  0  0  0  0  0  0  0  0  0  0  0
    1.6042   -1.9271   -2.3031 H   0  0  0  0  0  0  0  0  0  0  0  0
    0.2937    0.7944   -3.3202 H   0  0  0  0  0  0  0  0  0  0  0  0
    1.7384    1.6916   -3.5666 H   0  0  0  0  0  0  0  0  0  0  0  0
    1.2916   -0.0273   -1.0608 H   0  0  0  0  0  0  0  0  0  0  0  0
    0.9223    1.6937   -1.1912 H   0  0  0  0  0  0  0  0  0  0  0  0
    2.5947    1.1462   -1.3324 H   0  0  0  0  0  0  0  0  0  0  0  0
    3.8516   -1.3090   -4.0922 H   0  0  0  0  0  0  0  0  0  0  0  0
    3.7034   -0.6568   -2.4819 H   0  0  0  0  0  0  0  0  0  0  0  0
    3.9275    1.6780   -3.4395 H   0  0  0  0  0  0  0  0  0  0  0  0
    4.0043    0.9405   -5.0757 H   0  0  0  0  0  0  0  0  0  0  0  0
    5.2358    2.9703   -5.0815 H   0  0  0  0  0  0  0  0  0  0  0  0
    6.9971    4.0629   -6.3780 H   0  0  0  0  0  0  0  0  0  0  0  0
    9.3739    4.1167   -7.1799 H   0  0  0  0  0  0  0  0  0  0  0  0
   12.0181    1.1150   -6.3092 H   0  0  0  0  0  0  0  0  0  0  0  0
    8.9350   -1.8534   -6.1757 H   0  0  0  0  0  0  0  0  0  0  0  0
    8.9469   -1.8723   -4.3817 H   0  0  0  0  0  0  0  0  0  0  0  0
   10.6571   -3.4662   -6.1670 H   0  0  0  0  0  0  0  0  0  0  0  0
   10.2214   -3.7204   -4.4893 H   0  0  0  0  0  0  0  0  0  0  0  0
   12.3814   -4.0717   -3.5885 H   0  0  0  0  0  0  0  0  0  0  0  0
   11.9248   -2.7372   -2.5796 H   0  0  0  0  0  0  0  0  0  0  0  0
   14.1085   -1.6532   -0.4069 H   0  0  0  0  0  0  0  0  0  0  0  0
   12.6368   -1.1037   -1.2509 H   0  0  0  0  0  0  0  0  0  0  0  0
   12.1113    1.2892   -1.6619 H   0  0  0  0  0  0  0  0  0  0  0  0
   13.4527    2.4929   -1.5729 H   0  0  0  0  0  0  0  0  0  0  0  0
   12.3426    0.7126    0.7395 H   0  0  0  0  0  0  0  0  0  0  0  0
   13.6228    1.9876    0.8931 H   0  0  0  0  0  0  0  0  0  0  0  0
   14.6612   -4.3805   -4.3879 H   0  0  0  0  0  0  0  0  0  0  0  0
   15.8018   -3.0626   -4.2650 H   0  0  0  0  0  0  0  0  0  0  0  0
   16.1864   -3.1106   -6.6648 H   0  0  0  0  0  0  0  0  0  0  0  0
   15.4917   -2.3023   -8.8832 H   0  0  0  0  0  0  0  0  0  0  0  0
   11.5669   -1.4851   -7.3997 H   0  0  0  0  0  0  0  0  0  0  0  0
    7.8902   -0.2109   -4.0799 H   0  0  0  0  0  0  0  0  0  0  0  0
  1  2  1  0  0  0  0
  1 44  1  0  0  0  0
  1 45  1  0  0  0  0
  1 46  1  0  0  0  0
  2  3  1  0  0  0  0
  2 47  1  0  0  0  0
  2 48  1  0  0  0  0
  3  4  1  0  0  0  0
  3  6  1  0  0  0  0
  4  5  1  0  0  0  0
  4 49  1  0  0  0  0
  4 50  1  0  0  0  0
  5 51  1  0  0  0  0
  5 52  1  0  0  0  0
  5 53  1  0  0  0  0
  6  7  1  0  0  0  0
  6 54  1  0  0  0  0
  6 55  1  0  0  0  0
  7  8  1  0  0  0  0
  7 56  1  0  0  0  0
  7 57  1  0  0  0  0
  8  9  1  0  0  0  0
  9 10  1  0  0  0  0
  9 43  2  0  0  0  0
 10 11  2  0  0  0  0
 10 58  1  0  0  0  0
 11 12  1  0  0  0  0
 11 59  1  0  0  0  0
 12 13  1  0  0  0  0
 12 42  2  0  0  0  0
 13 14  2  0  0  0  0
 13 60  1  0  0  0  0
 14 15  1  0  0  0  0
 15 16  2  0  0  0  0
 15 61  1  0  0  0  0
 16 17  1  0  0  0  0
 16 42  1  0  0  0  0
 17 18  1  0  0  0  0
 17 40  1  0  0  0  0
 18 19  1  0  0  0  0
 18 62  1  0  0  0  0
 18 63  1  0  0  0  0
 19 20  1  0  0  0  0
 19 64  1  0  0  0  0
 19 65  1  0  0  0  0
 20 21  1  0  0  0  0
 20 39  1  0  0  0  0
 20 40  1  0  0  0  0
 21 22  1  0  0  0  0
 21 66  1  0  0  0  0
 21 67  1  0  0  0  0
 22 23  1  0  0  0  0
 22 32  1  0  0  0  0
 23 24  2  0  0  0  0
 23 25  2  0  0  0  0
 23 26  1  0  0  0  0
 26 27  1  0  0  0  0
 26 68  1  0  0  0  0
 26 69  1  0  0  0  0
 27 28  1  0  0  0  0
 27 30  1  0  0  0  0
 27 31  1  0  0  0  0
 28 29  3  0  0  0  0
 30 31  1  0  0  0  0
 30 70  1  0  0  0  0
 30 71  1  0  0  0  0
 31 72  1  0  0  0  0
 31 73  1  0  0  0  0
 32 33  1  0  0  0  0
 32 74  1  0  0  0  0
 32 75  1  0  0  0  0
 33 34  1  0  0  0  0
 33 39  2  0  0  0  0
 34 35  2  0  0  0  0
 34 76  1  0  0  0  0
 35 36  1  0  0  0  0
 35 77  1  0  0  0  0
 36 37  1  0  0  0  0
 36 38  2  0  0  0  0
 38 39  1  0  0  0  0
 38 78  1  0  0  0  0
 40 41  2  0  0  0  0
 42 43  1  0  0  0  0
 43 79  1  0  0  0  0
M  END
$$$$
