
 OpenBabel07202414123D

 59 63  0  0  1  0  0  0  0  0999 V2000
    8.0605    0.5175    2.0369 C   0  0  0  0  0  0  0  0  0  0  0  0
    6.7704    0.1579    1.2902 C   0  0  0  0  0  0  0  0  0  0  0  0
    5.6441   -0.0169    2.3108 C   0  0  0  0  0  0  0  0  0  0  0  0
    6.4953    1.2373    0.2326 C   0  0  0  0  0  0  0  0  0  0  0  0
    5.0433    0.9386   -0.7755 S   0  0  0  0  0  0  0  0  0  0  0  0
    5.2104   -0.3690   -1.3826 O   0  0  0  0  0  0  0  0  0  0  0  0
    3.8854    1.3015    0.0050 O   0  0  0  0  0  0  0  0  0  0  0  0
    5.2317    2.0968   -1.9935 N   0  0  0  0  0  0  0  0  0  0  0  0
    5.0885    3.5093   -1.6155 C   0  0  0  0  0  0  0  0  0  0  0  0
    3.7325    4.1031   -1.9011 C   0  0  0  0  0  0  0  0  0  0  0  0
    3.4237    5.3416   -1.3054 C   0  0  0  0  0  0  0  0  0  0  0  0
    2.2070    5.9709   -1.5510 C   0  0  0  0  0  0  0  0  0  0  0  0
    1.2799    5.3547   -2.3794 C   0  0  0  0  0  0  0  0  0  0  0  0
   -0.2128    6.1401   -2.7195 Cl  0  0  0  0  0  0  0  0  0  0  0  0
    1.5657    4.1221   -2.9716 C   0  0  0  0  0  0  0  0  0  0  0  0
    2.8096    3.4868   -2.7733 C   0  0  0  0  0  0  0  0  0  0  0  0
    3.1806    2.1965   -3.5315 C   0  0  3  0  0  0  0  0  0  0  0  0
    2.9611    2.3948   -5.0479 C   0  0  0  0  0  0  0  0  0  0  0  0
    1.6626    1.7004   -5.4023 C   0  0  0  0  0  0  0  0  0  0  0  0
    1.2539    0.9483   -4.2487 N   0  0  0  0  0  0  0  0  0  0  0  0
   -0.1340    0.6005   -4.0192 C   0  0  0  0  0  0  0  0  0  0  0  0
   -0.6093    0.4740   -2.7084 C   0  0  0  0  0  0  0  0  0  0  0  0
   -1.9114    0.5593   -2.3440 N   0  0  0  0  0  0  0  0  0  0  0  0
   -2.8059    0.7051   -3.3369 C   0  0  0  0  0  0  0  0  0  0  0  0
   -2.4910    0.6291   -4.6879 C   0  0  0  0  0  0  0  0  0  0  0  0
   -3.5148    0.6092   -5.6557 C   0  0  0  0  0  0  0  0  0  0  0  0
   -3.2200    0.4449   -7.0049 C   0  0  0  0  0  0  0  0  0  0  0  0
   -1.8960    0.3132   -7.3972 C   0  0  0  0  0  0  0  0  0  0  0  0
   -0.8760    0.3607   -6.4411 C   0  0  0  0  0  0  0  0  0  0  0  0
   -1.1208    0.5457   -5.0552 C   0  0  0  0  0  0  0  0  0  0  0  0
    2.2179    1.0355   -3.2277 C   0  0  0  0  0  0  0  0  0  0  0  0
    2.2559    0.3394   -2.2220 O   0  0  0  0  0  0  0  0  0  0  0  0
    4.6620    1.8002   -3.3289 C   0  0  0  0  0  0  0  0  0  0  0  0
    8.3391   -0.2728    2.7413 H   0  0  0  0  0  0  0  0  0  0  0  0
    7.9382    1.4471    2.6055 H   0  0  0  0  0  0  0  0  0  0  0  0
    8.8928    0.6570    1.3398 H   0  0  0  0  0  0  0  0  0  0  0  0
    6.9212   -0.8034    0.7843 H   0  0  0  0  0  0  0  0  0  0  0  0
    5.4701    0.9043    2.8770 H   0  0  0  0  0  0  0  0  0  0  0  0
    5.8999   -0.8061    3.0276 H   0  0  0  0  0  0  0  0  0  0  0  0
    4.7049   -0.3142    1.8378 H   0  0  0  0  0  0  0  0  0  0  0  0
    7.3413    1.2825   -0.4617 H   0  0  0  0  0  0  0  0  0  0  0  0
    6.3780    2.2158    0.7108 H   0  0  0  0  0  0  0  0  0  0  0  0
    5.8393    4.0822   -2.1763 H   0  0  0  0  0  0  0  0  0  0  0  0
    5.3286    3.6534   -0.5568 H   0  0  0  0  0  0  0  0  0  0  0  0
    4.1416    5.8288   -0.6464 H   0  0  0  0  0  0  0  0  0  0  0  0
    1.9923    6.9334   -1.0970 H   0  0  0  0  0  0  0  0  0  0  0  0
    0.8060    3.6784   -3.6091 H   0  0  0  0  0  0  0  0  0  0  0  0
    3.7659    1.9367   -5.6366 H   0  0  0  0  0  0  0  0  0  0  0  0
    2.9355    3.4486   -5.3491 H   0  0  0  0  0  0  0  0  0  0  0  0
    1.8650    1.0061   -6.2218 H   0  0  0  0  0  0  0  0  0  0  0  0
    0.8990    2.4260   -5.6995 H   0  0  0  0  0  0  0  0  0  0  0  0
    0.0488    0.3442   -1.8553 H   0  0  0  0  0  0  0  0  0  0  0  0
   -3.8274    0.8589   -2.9978 H   0  0  0  0  0  0  0  0  0  0  0  0
   -4.5591    0.6786   -5.3554 H   0  0  0  0  0  0  0  0  0  0  0  0
   -4.0184    0.3862   -7.7391 H   0  0  0  0  0  0  0  0  0  0  0  0
   -1.6534    0.1479   -8.4428 H   0  0  0  0  0  0  0  0  0  0  0  0
    0.1280    0.1737   -6.8031 H   0  0  0  0  0  0  0  0  0  0  0  0
    5.2800    2.3899   -4.0247 H   0  0  0  0  0  0  0  0  0  0  0  0
    4.8472    0.7582   -3.6111 H   0  0  0  0  0  0  0  0  0  0  0  0
  1  2  1  0  0  0  0
  1 34  1  0  0  0  0
  1 35  1  0  0  0  0
  1 36  1  0  0  0  0
  2  3  1  0  0  0  0
  2  4  1  0  0  0  0
  2 37  1  0  0  0  0
  3 38  1  0  0  0  0
  3 39  1  0  0  0  0
  3 40  1  0  0  0  0
  4  5  1  0  0  0  0
  4 41  1  0  0  0  0
  4 42  1  0  0  0  0
  5  6  2  0  0  0  0
  5  7  2  0  0  0  0
  5  8  1  0  0  0  0
  8  9  1  0  0  0  0
  8 33  1  0  0  0  0
  9 10  1  0  0  0  0
  9 43  1  0  0  0  0
  9 44  1  0  0  0  0
 10 11  1  0  0  0  0
 10 16  2  0  0  0  0
 11 12  2  0  0  0  0
 11 45  1  0  0  0  0
 12 13  1  0  0  0  0
 12 46  1  0  0  0  0
 13 14  1  0  0  0  0
 13 15  2  0  0  0  0
 15 16  1  0  0  0  0
 15 47  1  0  0  0  0
 16 17  1  0  0  0  0
 17 18  1  0  0  0  0
 17 31  1  0  0  0  0
 17 33  1  0  0  0  0
 18 19  1  0  0  0  0
 18 48  1  0  0  0  0
 18 49  1  0  0  0  0
 19 20  1  0  0  0  0
 19 50  1  0  0  0  0
 19 51  1  0  0  0  0
 20 21  1  0  0  0  0
 20 31  1  0  0  0  0
 21 22  1  0  0  0  0
 21 30  2  0  0  0  0
 22 23  2  0  0  0  0
 22 52  1  0  0  0  0
 23 24  1  0  0  0  0
 24 25  2  0  0  0  0
 24 53  1  0  0  0  0
 25 26  1  0  0  0  0
 25 30  1  0  0  0  0
 26 27  2  0  0  0  0
 26 54  1  0  0  0  0
 27 28  1  0  0  0  0
 27 55  1  0  0  0  0
 28 29  2  0  0  0  0
 28 56  1  0  0  0  0
 29 30  1  0  0  0  0
 29 57  1  0  0  0  0
 31 32  2  0  0  0  0
 33 58  1  0  0  0  0
 33 59  1  0  0  0  0
M  END
$$$$
