
 OpenBabel07202414183D

 34 36  0  0  0  0  0  0  0  0999 V2000
    0.5242   -6.4840   -3.4035 F   0  0  0  0  0  0  0  0  0  0  0  0
    0.3050   -5.1879   -3.1466 C   0  0  0  0  0  0  0  0  0  0  0  0
   -0.4226   -4.4215   -4.0483 C   0  0  0  0  0  0  0  0  0  0  0  0
   -0.6496   -3.0757   -3.7620 C   0  0  0  0  0  0  0  0  0  0  0  0
   -0.1221   -2.5124   -2.5943 C   0  0  0  0  0  0  0  0  0  0  0  0
   -0.3800   -1.2203   -2.3430 F   0  0  0  0  0  0  0  0  0  0  0  0
    0.6276   -3.2651   -1.6890 C   0  0  0  0  0  0  0  0  0  0  0  0
    1.1811   -2.6535   -0.4261 C   0  0  0  0  0  0  0  0  0  0  0  0
    2.7013   -2.5734   -0.3700 C   0  0  0  0  0  0  0  0  0  0  0  0
    3.2990   -1.5288   -0.6142 O   0  0  0  0  0  0  0  0  0  0  0  0
    3.3157   -3.7721   -0.0472 N   0  0  0  0  0  0  0  0  0  0  0  0
    4.7216   -3.9210    0.0341 C   0  0  0  0  0  0  0  0  0  0  0  0
    5.4978   -3.0129    0.7549 C   0  0  0  0  0  0  0  0  0  0  0  0
    6.8336   -3.1276    0.9367 N   0  0  0  0  0  0  0  0  0  0  0  0
    7.4303   -4.1800    0.3350 C   0  0  0  0  0  0  0  0  0  0  0  0
    6.7688   -5.1374   -0.4378 C   0  0  0  0  0  0  0  0  0  0  0  0
    7.4668   -6.1777   -1.0794 C   0  0  0  0  0  0  0  0  0  0  0  0
    6.7961   -7.0961   -1.8849 C   0  0  0  0  0  0  0  0  0  0  0  0
    5.4216   -6.9948   -2.0474 C   0  0  0  0  0  0  0  0  0  0  0  0
    4.7184   -5.9754   -1.4034 C   0  0  0  0  0  0  0  0  0  0  0  0
    5.3683   -5.0202   -0.5844 C   0  0  0  0  0  0  0  0  0  0  0  0
    0.8049   -4.6190   -1.9783 C   0  0  0  0  0  0  0  0  0  0  0  0
    1.4549   -5.3971   -1.0992 F   0  0  0  0  0  0  0  0  0  0  0  0
   -0.8160   -4.8767   -4.9509 H   0  0  0  0  0  0  0  0  0  0  0  0
   -1.2398   -2.4616   -4.4360 H   0  0  0  0  0  0  0  0  0  0  0  0
    0.8199   -3.2157    0.4423 H   0  0  0  0  0  0  0  0  0  0  0  0
    0.8041   -1.6306   -0.2961 H   0  0  0  0  0  0  0  0  0  0  0  0
    2.7813   -4.6128   -0.2329 H   0  0  0  0  0  0  0  0  0  0  0  0
    5.0486   -2.1626    1.2612 H   0  0  0  0  0  0  0  0  0  0  0  0
    8.5071   -4.2252    0.4856 H   0  0  0  0  0  0  0  0  0  0  0  0
    8.5469   -6.2619   -0.9758 H   0  0  0  0  0  0  0  0  0  0  0  0
    7.3470   -7.8810   -2.3965 H   0  0  0  0  0  0  0  0  0  0  0  0
    4.8912   -7.6951   -2.6879 H   0  0  0  0  0  0  0  0  0  0  0  0
    3.6521   -5.9227   -1.5917 H   0  0  0  0  0  0  0  0  0  0  0  0
  1  2  1  0  0  0  0
  2  3  1  0  0  0  0
  2 22  2  0  0  0  0
  3  4  2  0  0  0  0
  3 24  1  0  0  0  0
  4  5  1  0  0  0  0
  4 25  1  0  0  0  0
  5  6  1  0  0  0  0
  5  7  2  0  0  0  0
  7  8  1  0  0  0  0
  7 22  1  0  0  0  0
  8  9  1  0  0  0  0
  8 26  1  0  0  0  0
  8 27  1  0  0  0  0
  9 10  2  0  0  0  0
  9 11  1  0  0  0  0
 11 12  1  0  0  0  0
 11 28  1  0  0  0  0
 12 13  1  0  0  0  0
 12 21  2  0  0  0  0
 13 14  2  0  0  0  0
 13 29  1  0  0  0  0
 14 15  1  0  0  0  0
 15 16  2  0  0  0  0
 15 30  1  0  0  0  0
 16 17  1  0  0  0  0
 16 21  1  0  0  0  0
 17 18  2  0  0  0  0
 17 31  1  0  0  0  0
 18 19  1  0  0  0  0
 18 32  1  0  0  0  0
 19 20  2  0  0  0  0
 19 33  1  0  0  0  0
 20 21  1  0  0  0  0
 20 34  1  0  0  0  0
 22 23  1  0  0  0  0
M  END
$$$$
