
 OpenBabel07202414183D

 47 50  0  0  0  0  0  0  0  0999 V2000
    5.9309   -0.4229   -1.0347 F   0  0  0  0  0  0  0  0  0  0  0  0
    5.2673   -1.5147   -0.5714 C   0  0  0  0  0  0  0  0  0  0  0  0
    4.2758   -1.7392   -1.4850 F   0  0  0  0  0  0  0  0  0  0  0  0
    6.1409   -2.5543   -0.7203 F   0  0  0  0  0  0  0  0  0  0  0  0
    4.7264   -1.4197    0.8391 C   0  0  0  0  0  0  0  0  0  0  0  0
    4.9120   -0.3465    1.6842 C   0  0  0  0  0  0  0  0  0  0  0  0
    5.8437    1.2408    1.2858 Br  0  0  0  0  0  0  0  0  0  0  0  0
    4.3293   -0.4676    2.9308 C   0  0  0  0  0  0  0  0  0  0  0  0
    3.6078   -1.5345    3.3417 N   0  0  0  0  0  0  0  0  0  0  0  0
    3.4476   -2.5276    2.4645 C   0  0  0  0  0  0  0  0  0  0  0  0
    2.6092   -3.5742    2.8475 N   0  0  0  0  0  0  0  0  0  0  0  0
    1.9366   -4.5222    2.0567 C   0  0  0  0  0  0  0  0  0  0  0  0
    2.3645   -4.8979    0.7776 C   0  0  0  0  0  0  0  0  0  0  0  0
    1.6280   -5.7912    0.0021 C   0  0  0  0  0  0  0  0  0  0  0  0
    2.1738   -6.2002   -1.5772 Cl  0  0  0  0  0  0  0  0  0  0  0  0
    0.4531   -6.3526    0.4947 C   0  0  0  0  0  0  0  0  0  0  0  0
    0.0191   -6.0311    1.7842 C   0  0  0  0  0  0  0  0  0  0  0  0
   -1.2090   -6.6994    2.3514 C   0  0  0  0  0  0  0  0  0  0  0  0
   -2.2972   -5.7584    2.8331 C   0  0  0  0  0  0  0  0  0  0  0  0
   -2.8663   -5.9613    3.9047 O   0  0  0  0  0  0  0  0  0  0  0  0
   -2.6572   -4.7706    1.9351 N   0  0  0  0  0  0  0  0  0  0  0  0
   -3.6682   -3.8135    2.2008 C   0  0  0  0  0  0  0  0  0  0  0  0
   -3.8298   -3.2632    3.4739 C   0  0  0  0  0  0  0  0  0  0  0  0
   -4.7358   -2.3105    3.7904 N   0  0  0  0  0  0  0  0  0  0  0  0
   -5.5495   -1.9049    2.7930 C   0  0  0  0  0  0  0  0  0  0  0  0
   -5.5090   -2.3963    1.4863 C   0  0  0  0  0  0  0  0  0  0  0  0
   -6.4243   -1.9594    0.5124 C   0  0  0  0  0  0  0  0  0  0  0  0
   -6.4076   -2.4979   -0.7700 C   0  0  0  0  0  0  0  0  0  0  0  0
   -5.4735   -3.4717   -1.0985 C   0  0  0  0  0  0  0  0  0  0  0  0
   -4.5468   -3.9018   -0.1455 C   0  0  0  0  0  0  0  0  0  0  0  0
   -4.5365   -3.3763    1.1674 C   0  0  0  0  0  0  0  0  0  0  0  0
    0.7701   -5.1251    2.5571 C   0  0  0  0  0  0  0  0  0  0  0  0
    3.9982   -2.4998    1.2462 N   0  0  0  0  0  0  0  0  0  0  0  0
    4.4105    0.3247    3.6722 H   0  0  0  0  0  0  0  0  0  0  0  0
    2.1960   -3.3477    3.7421 H   0  0  0  0  0  0  0  0  0  0  0  0
    3.2880   -4.5076    0.3615 H   0  0  0  0  0  0  0  0  0  0  0  0
   -0.0944   -7.0628   -0.1194 H   0  0  0  0  0  0  0  0  0  0  0  0
   -0.8921   -7.3153    3.2016 H   0  0  0  0  0  0  0  0  0  0  0  0
   -1.6582   -7.3762    1.6151 H   0  0  0  0  0  0  0  0  0  0  0  0
   -2.3448   -4.8709    0.9782 H   0  0  0  0  0  0  0  0  0  0  0  0
   -3.1809   -3.5452    4.2989 H   0  0  0  0  0  0  0  0  0  0  0  0
   -6.2774   -1.1553    3.0934 H   0  0  0  0  0  0  0  0  0  0  0  0
   -7.1762   -1.2121    0.7622 H   0  0  0  0  0  0  0  0  0  0  0  0
   -7.1333   -2.1675   -1.5087 H   0  0  0  0  0  0  0  0  0  0  0  0
   -5.4725   -3.9120   -2.0924 H   0  0  0  0  0  0  0  0  0  0  0  0
   -3.8601   -4.6891   -0.4393 H   0  0  0  0  0  0  0  0  0  0  0  0
    0.4300   -4.8743    3.5614 H   0  0  0  0  0  0  0  0  0  0  0  0
  1  2  1  0  0  0  0
  2  3  1  0  0  0  0
  2  4  1  0  0  0  0
  2  5  1  0  0  0  0
  5  6  2  0  0  0  0
  5 33  1  0  0  0  0
  6  7  1  0  0  0  0
  6  8  1  0  0  0  0
  8  9  2  0  0  0  0
  8 34  1  0  0  0  0
  9 10  1  0  0  0  0
 10 11  1  0  0  0  0
 10 33  2  0  0  0  0
 11 12  1  0  0  0  0
 11 35  1  0  0  0  0
 12 13  2  0  0  0  0
 12 32  1  0  0  0  0
 13 14  1  0  0  0  0
 13 36  1  0  0  0  0
 14 15  1  0  0  0  0
 14 16  2  0  0  0  0
 16 17  1  0  0  0  0
 16 37  1  0  0  0  0
 17 18  1  0  0  0  0
 17 32  2  0  0  0  0
 18 19  1  0  0  0  0
 18 38  1  0  0  0  0
 18 39  1  0  0  0  0
 19 20  2  0  0  0  0
 19 21  1  0  0  0  0
 21 22  1  0  0  0  0
 21 40  1  0  0  0  0
 22 23  2  0  0  0  0
 22 31  1  0  0  0  0
 23 24  1  0  0  0  0
 23 41  1  0  0  0  0
 24 25  2  0  0  0  0
 25 26  1  0  0  0  0
 25 42  1  0  0  0  0
 26 27  2  0  0  0  0
 26 31  1  0  0  0  0
 27 28  1  0  0  0  0
 27 43  1  0  0  0  0
 28 29  2  0  0  0  0
 28 44  1  0  0  0  0
 29 30  1  0  0  0  0
 29 45  1  0  0  0  0
 30 31  2  0  0  0  0
 30 46  1  0  0  0  0
 32 47  1  0  0  0  0
M  END
$$$$
