
 OpenBabel07202414163D

 39 41  0  0  0  0  0  0  0  0999 V2000
   -2.6988    2.0464   -4.7533 C   0  0  0  0  0  0  0  0  0  0  0  0
   -1.7722    1.2402   -3.8878 C   0  0  0  0  0  0  0  0  0  0  0  0
   -1.0607    0.1877   -4.4914 C   0  0  0  0  0  0  0  0  0  0  0  0
   -0.1829   -0.5656   -3.7342 C   0  0  0  0  0  0  0  0  0  0  0  0
    0.0593   -0.3340   -2.4328 N   0  0  0  0  0  0  0  0  0  0  0  0
   -0.6345    0.6821   -1.8603 C   0  0  0  0  0  0  0  0  0  0  0  0
   -1.5697    1.4880   -2.5173 C   0  0  0  0  0  0  0  0  0  0  0  0
   -2.2870    2.5222   -1.8569 N   0  0  0  0  0  0  0  0  0  0  0  0
   -2.4011    2.6592   -0.4795 C   0  0  0  0  0  0  0  0  0  0  0  0
   -1.9544    1.8842    0.3583 O   0  0  0  0  0  0  0  0  0  0  0  0
   -3.1950    3.8776   -0.0381 C   0  0  0  0  0  0  0  0  0  0  0  0
   -4.6746    3.6149    0.1125 C   0  0  0  0  0  0  0  0  0  0  0  0
   -5.1471    2.6007    0.9687 C   0  0  0  0  0  0  0  0  0  0  0  0
   -6.5220    2.3531    1.1788 C   0  0  0  0  0  0  0  0  0  0  0  0
   -7.4156    3.1948    0.4870 C   0  0  0  0  0  0  0  0  0  0  0  0
   -6.9647    4.2122   -0.3555 C   0  0  0  0  0  0  0  0  0  0  0  0
   -5.6030    4.4264   -0.5435 C   0  0  0  0  0  0  0  0  0  0  0  0
   -8.1030    5.2279   -1.1532 Cl  0  0  0  0  0  0  0  0  0  0  0  0
   -7.0491    1.2397    2.1796 C   0  0  0  0  0  0  0  0  0  0  0  0
   -6.2292   -0.0374    2.4436 C   0  0  0  0  0  0  0  0  0  0  0  0
   -7.4268   -0.8548    2.3665 O   0  0  0  0  0  0  0  0  0  0  0  0
   -8.1173    0.2359    1.7043 C   0  0  0  0  0  0  0  0  0  0  0  0
   -2.9160    1.5247   -5.6927 H   0  0  0  0  0  0  0  0  0  0  0  0
   -2.2399    3.0086   -5.0019 H   0  0  0  0  0  0  0  0  0  0  0  0
   -3.6608    2.2123   -4.2594 H   0  0  0  0  0  0  0  0  0  0  0  0
   -1.1931   -0.0533   -5.5419 H   0  0  0  0  0  0  0  0  0  0  0  0
    0.3657   -1.3984   -4.1653 H   0  0  0  0  0  0  0  0  0  0  0  0
   -0.3698    0.8322   -0.8187 H   0  0  0  0  0  0  0  0  0  0  0  0
   -2.8681    3.1183   -2.4302 H   0  0  0  0  0  0  0  0  0  0  0  0
   -3.0091    4.6996   -0.7421 H   0  0  0  0  0  0  0  0  0  0  0  0
   -2.7940    4.2111    0.9260 H   0  0  0  0  0  0  0  0  0  0  0  0
   -4.4209    1.9870    1.5069 H   0  0  0  0  0  0  0  0  0  0  0  0
   -8.4867    3.0599    0.6280 H   0  0  0  0  0  0  0  0  0  0  0  0
   -5.2721    5.2394   -1.1850 H   0  0  0  0  0  0  0  0  0  0  0  0
   -7.3513    1.7086    3.1284 H   0  0  0  0  0  0  0  0  0  0  0  0
   -5.7591   -0.0915    3.4296 H   0  0  0  0  0  0  0  0  0  0  0  0
   -5.5101   -0.3304    1.6724 H   0  0  0  0  0  0  0  0  0  0  0  0
   -9.1200    0.3926    2.1118 H   0  0  0  0  0  0  0  0  0  0  0  0
   -8.1786    0.0609    0.6252 H   0  0  0  0  0  0  0  0  0  0  0  0
  1  2  1  0  0  0  0
  1 23  1  0  0  0  0
  1 24  1  0  0  0  0
  1 25  1  0  0  0  0
  2  3  1  0  0  0  0
  2  7  2  0  0  0  0
  3  4  2  0  0  0  0
  3 26  1  0  0  0  0
  4  5  1  0  0  0  0
  4 27  1  0  0  0  0
  5  6  2  0  0  0  0
  6  7  1  0  0  0  0
  6 28  1  0  0  0  0
  7  8  1  0  0  0  0
  8  9  1  0  0  0  0
  8 29  1  0  0  0  0
  9 10  2  0  0  0  0
  9 11  1  0  0  0  0
 11 12  1  0  0  0  0
 11 30  1  0  0  0  0
 11 31  1  0  0  0  0
 12 13  1  0  0  0  0
 12 17  2  0  0  0  0
 13 14  2  0  0  0  0
 13 32  1  0  0  0  0
 14 15  1  0  0  0  0
 14 19  1  0  0  0  0
 15 16  2  0  0  0  0
 15 33  1  0  0  0  0
 16 17  1  0  0  0  0
 16 18  1  0  0  0  0
 17 34  1  0  0  0  0
 19 20  1  0  0  0  0
 19 22  1  0  0  0  0
 19 35  1  0  0  0  0
 20 21  1  0  0  0  0
 20 36  1  0  0  0  0
 20 37  1  0  0  0  0
 21 22  1  0  0  0  0
 22 38  1  0  0  0  0
 22 39  1  0  0  0  0
M  END
$$$$
