
 OpenBabel07202414143D

 54 58  0  0  1  0  0  0  0  0999 V2000
    5.7169    3.2896   -1.2860 C   0  0  0  0  0  0  0  0  0  0  0  0
    5.6769    1.8559   -1.3845 N   0  0  0  0  0  0  0  0  0  0  0  0
    4.6099    1.1760   -0.8502 C   0  0  0  0  0  0  0  0  0  0  0  0
    3.7959    1.6947   -0.0878 O   0  0  0  0  0  0  0  0  0  0  0  0
    4.5156   -0.2873   -1.2231 C   0  0  0  0  0  0  0  0  0  0  0  0
    4.8292   -0.6038   -2.6438 N   0  0  0  0  0  0  0  0  0  0  0  0
    4.6728   -2.0613   -2.7728 C   0  0  0  0  0  0  0  0  0  0  0  0
    3.2107   -2.4687   -2.9077 C   0  0  0  0  0  0  0  0  0  0  0  0
    2.1787   -1.5883   -3.4022 C   0  0  0  0  0  0  0  0  0  0  0  0
    0.8970   -2.1298   -3.4573 C   0  0  0  0  0  0  0  0  0  0  0  0
    0.6537   -3.5049   -3.1234 C   0  0  0  0  0  0  0  0  0  0  0  0
   -0.9436   -4.1275   -3.2400 Cl  0  0  0  0  0  0  0  0  0  0  0  0
    1.6532   -4.3237   -2.6194 C   0  0  0  0  0  0  0  0  0  0  0  0
    2.9349   -3.8089   -2.5296 C   0  0  0  0  0  0  0  0  0  0  0  0
    2.4298   -0.0592   -3.7502 C   0  0  2  0  0  0  0  0  0  0  0  0
    1.8150    0.9447   -2.7531 C   0  0  0  0  0  0  0  0  0  0  0  0
    0.7777    1.8877   -3.4573 C   0  0  0  0  0  0  0  0  0  0  0  0
    0.6922    1.5372   -4.8501 N   0  0  0  0  0  0  0  0  0  0  0  0
   -0.2940    2.1778   -5.9391 C   0  0  0  0  0  0  0  0  0  0  0  0
   -1.5798    3.0325   -5.8395 C   0  0  0  0  0  0  0  0  0  0  0  0
   -2.2139    4.1966   -6.6671 C   0  0  0  0  0  0  0  0  0  0  0  0
   -3.6208    4.6125   -6.6857 C   0  0  0  0  0  0  0  0  0  0  0  0
   -4.4672    3.9707   -5.8216 C   0  0  0  0  0  0  0  0  0  0  0  0
   -3.9367    2.8076   -5.2725 C   0  0  0  0  0  0  0  0  0  0  0  0
   -2.6881    2.2573   -5.7504 C   0  0  0  0  0  0  0  0  0  0  0  0
   -2.6648    1.5118   -6.9530 C   0  0  0  0  0  0  0  0  0  0  0  0
   -1.5426    1.1809   -7.6751 N   0  0  0  0  0  0  0  0  0  0  0  0
   -0.3481    1.4564   -7.1033 C   0  0  0  0  0  0  0  0  0  0  0  0
    1.7190    0.4976   -5.1043 C   0  0  0  0  0  0  0  0  0  0  0  0
    2.0372    0.0767   -6.2120 O   0  0  0  0  0  0  0  0  0  0  0  0
    4.0216    0.0430   -3.7469 C   0  0  0  0  0  0  0  0  0  0  0  0
    6.6897    3.6561   -1.6106 H   0  0  0  0  0  0  0  0  0  0  0  0
    5.5241    3.5960   -0.2537 H   0  0  0  0  0  0  0  0  0  0  0  0
    4.9398    3.7015   -1.9365 H   0  0  0  0  0  0  0  0  0  0  0  0
    6.2493    1.3611   -2.0623 H   0  0  0  0  0  0  0  0  0  0  0  0
    3.5259   -0.6506   -0.9273 H   0  0  0  0  0  0  0  0  0  0  0  0
    5.2461   -0.7930   -0.5699 H   0  0  0  0  0  0  0  0  0  0  0  0
    5.1187   -2.5611   -1.8907 H   0  0  0  0  0  0  0  0  0  0  0  0
    5.2576   -2.4500   -3.6177 H   0  0  0  0  0  0  0  0  0  0  0  0
    0.0496   -1.5562   -3.8587 H   0  0  0  0  0  0  0  0  0  0  0  0
    1.4458   -5.3569   -2.3292 H   0  0  0  0  0  0  0  0  0  0  0  0
    3.7326   -4.4579   -2.1686 H   0  0  0  0  0  0  0  0  0  0  0  0
    2.6045    1.5937   -2.3620 H   0  0  0  0  0  0  0  0  0  0  0  0
    1.3800    0.4382   -1.8854 H   0  0  0  0  0  0  0  0  0  0  0  0
    1.1427    2.9195   -3.3702 H   0  0  0  0  0  0  0  0  0  0  0  0
   -0.1928    1.8090   -2.9633 H   0  0  0  0  0  0  0  0  0  0  0  0
   -1.6863    4.5619   -7.5598 H   0  0  0  0  0  0  0  0  0  0  0  0
   -4.0567    5.3356   -7.3891 H   0  0  0  0  0  0  0  0  0  0  0  0
   -5.4946    4.2943   -5.6262 H   0  0  0  0  0  0  0  0  0  0  0  0
   -4.4915    2.3048   -4.4845 H   0  0  0  0  0  0  0  0  0  0  0  0
   -3.5797    1.4229   -7.5512 H   0  0  0  0  0  0  0  0  0  0  0  0
    0.4985    0.9535   -7.5472 H   0  0  0  0  0  0  0  0  0  0  0  0
    4.3532    1.0816   -3.8385 H   0  0  0  0  0  0  0  0  0  0  0  0
    4.3904   -0.4266   -4.6758 H   0  0  0  0  0  0  0  0  0  0  0  0
  1  2  1  0  0  0  0
  1 32  1  0  0  0  0
  1 33  1  0  0  0  0
  1 34  1  0  0  0  0
  2  3  1  0  0  0  0
  2 35  1  0  0  0  0
  3  4  2  0  0  0  0
  3  5  1  0  0  0  0
  5  6  1  0  0  0  0
  5 36  1  0  0  0  0
  5 37  1  0  0  0  0
  6  7  1  0  0  0  0
  6 31  1  0  0  0  0
  7  8  1  0  0  0  0
  7 38  1  0  0  0  0
  7 39  1  0  0  0  0
  8  9  2  0  0  0  0
  8 14  1  0  0  0  0
  9 10  1  0  0  0  0
 10 11  2  0  0  0  0
 10 40  1  0  0  0  0
 11 12  1  0  0  0  0
 11 13  1  0  0  0  0
 13 14  2  0  0  0  0
 13 41  1  0  0  0  0
 14 42  1  0  0  0  0
 15  9  1  1  0  0  0
 15 16  1  0  0  0  0
 15 29  1  0  0  0  0
 15 31  1  0  0  0  0
 16 17  1  0  0  0  0
 16 43  1  0  0  0  0
 16 44  1  0  0  0  0
 17 18  1  0  0  0  0
 17 45  1  0  0  0  0
 17 46  1  0  0  0  0
 18 19  1  0  0  0  0
 18 29  1  0  0  0  0
 19 20  2  0  0  0  0
 19 28  1  0  0  0  0
 20 21  1  0  0  0  0
 20 25  1  0  0  0  0
 21 22  2  0  0  0  0
 21 47  1  0  0  0  0
 22 23  1  0  0  0  0
 22 48  1  0  0  0  0
 23 24  2  0  0  0  0
 23 49  1  0  0  0  0
 24 25  1  0  0  0  0
 24 50  1  0  0  0  0
 25 26  2  0  0  0  0
 26 27  1  0  0  0  0
 26 51  1  0  0  0  0
 27 28  2  0  0  0  0
 28 52  1  0  0  0  0
 29 30  2  0  0  0  0
 31 53  1  0  0  0  0
 31 54  1  0  0  0  0
M  END
$$$$
