
 OpenBabel07202414143D

 38 40  0  0  1  0  0  0  0  0999 V2000
    3.9516    1.3696   -3.1027 C   0  0  0  0  0  0  0  0  0  0  0  0
    3.0088    0.5232   -2.4521 O   0  0  0  0  0  0  0  0  0  0  0  0
    2.9218    0.7705   -1.0440 C   0  0  3  0  0  0  0  0  0  0  0  0
    2.4007    2.2008   -0.7846 C   0  0  0  0  0  0  0  0  0  0  0  0
    3.1372    3.0695   -0.3175 O   0  0  0  0  0  0  0  0  0  0  0  0
    1.0845    2.4118   -1.1609 N   0  0  0  0  0  0  0  0  0  0  0  0
    0.4549    3.6696   -1.0300 C   0  0  0  0  0  0  0  0  0  0  0  0
    1.0758    4.8336   -1.4883 C   0  0  0  0  0  0  0  0  0  0  0  0
    0.5178    6.0629   -1.4440 N   0  0  0  0  0  0  0  0  0  0  0  0
   -0.7056    6.1416   -0.8792 C   0  0  0  0  0  0  0  0  0  0  0  0
   -1.4157    5.0549   -0.3617 C   0  0  0  0  0  0  0  0  0  0  0  0
   -2.6616    5.2195    0.2675 C   0  0  0  0  0  0  0  0  0  0  0  0
   -3.3265    4.1284    0.8258 C   0  0  0  0  0  0  0  0  0  0  0  0
   -2.7603    2.8620    0.7545 C   0  0  0  0  0  0  0  0  0  0  0  0
   -1.5301    2.6837    0.1204 C   0  0  0  0  0  0  0  0  0  0  0  0
   -0.8286    3.7731   -0.4490 C   0  0  0  0  0  0  0  0  0  0  0  0
    2.0825   -0.3252   -0.3791 C   0  0  0  0  0  0  0  0  0  0  0  0
    1.6317   -1.4403   -1.1061 C   0  0  0  0  0  0  0  0  0  0  0  0
    0.9406   -2.4824   -0.4808 C   0  0  0  0  0  0  0  0  0  0  0  0
    0.6846   -2.4326    0.8890 C   0  0  0  0  0  0  0  0  0  0  0  0
   -0.1461   -3.7703    1.5998 Cl  0  0  0  0  0  0  0  0  0  0  0  0
    1.1122   -1.3290    1.6305 C   0  0  0  0  0  0  0  0  0  0  0  0
    0.8236   -1.1920    3.3289 Cl  0  0  0  0  0  0  0  0  0  0  0  0
    1.8104   -0.2847    1.0008 C   0  0  0  0  0  0  0  0  0  0  0  0
    4.1042    0.9900   -4.1159 H   0  0  0  0  0  0  0  0  0  0  0  0
    4.9130    1.3684   -2.5800 H   0  0  0  0  0  0  0  0  0  0  0  0
    3.5590    2.3880   -3.1782 H   0  0  0  0  0  0  0  0  0  0  0  0
    3.9287    0.6917   -0.6118 H   0  0  0  0  0  0  0  0  0  0  0  0
    0.4953    1.5912   -1.2201 H   0  0  0  0  0  0  0  0  0  0  0  0
    2.0553    4.8047   -1.9589 H   0  0  0  0  0  0  0  0  0  0  0  0
   -1.1127    7.1496   -0.8374 H   0  0  0  0  0  0  0  0  0  0  0  0
   -3.1118    6.2065    0.3476 H   0  0  0  0  0  0  0  0  0  0  0  0
   -4.2781    4.2713    1.3317 H   0  0  0  0  0  0  0  0  0  0  0  0
   -3.2652    2.0119    1.2072 H   0  0  0  0  0  0  0  0  0  0  0  0
   -1.1105    1.6818    0.1183 H   0  0  0  0  0  0  0  0  0  0  0  0
    1.8349   -1.5245   -2.1735 H   0  0  0  0  0  0  0  0  0  0  0  0
    0.6212   -3.3387   -1.0713 H   0  0  0  0  0  0  0  0  0  0  0  0
    2.1582    0.5559    1.6023 H   0  0  0  0  0  0  0  0  0  0  0  0
  1  2  1  0  0  0  0
  1 25  1  0  0  0  0
  1 26  1  0  0  0  0
  1 27  1  0  0  0  0
  2  3  1  0  0  0  0
  3  4  1  0  0  0  0
  3 17  1  0  0  0  0
  3 28  1  0  0  0  0
  4  5  2  0  0  0  0
  4  6  1  0  0  0  0
  6  7  1  0  0  0  0
  6 29  1  0  0  0  0
  7  8  1  0  0  0  0
  7 16  2  0  0  0  0
  8  9  2  0  0  0  0
  8 30  1  0  0  0  0
  9 10  1  0  0  0  0
 10 11  2  0  0  0  0
 10 31  1  0  0  0  0
 11 12  1  0  0  0  0
 11 16  1  0  0  0  0
 12 13  2  0  0  0  0
 12 32  1  0  0  0  0
 13 14  1  0  0  0  0
 13 33  1  0  0  0  0
 14 15  2  0  0  0  0
 14 34  1  0  0  0  0
 15 16  1  0  0  0  0
 15 35  1  0  0  0  0
 17 18  1  0  0  0  0
 17 24  2  0  0  0  0
 18 19  2  0  0  0  0
 18 36  1  0  0  0  0
 19 20  1  0  0  0  0
 19 37  1  0  0  0  0
 20 21  1  0  0  0  0
 20 22  2  0  0  0  0
 22 23  1  0  0  0  0
 22 24  1  0  0  0  0
 24 38  1  0  0  0  0
M  END
$$$$
