
 OpenBabel07202414193D

 44 46  0  0  0  0  0  0  0  0999 V2000
    2.0586   -2.0896    0.9858 N   0  0  0  0  0  0  0  0  0  0  0  0
    2.9507   -1.3262    1.6581 C   0  0  0  0  0  0  0  0  0  0  0  0
    2.6583   -0.8699    2.7594 O   0  0  0  0  0  0  0  0  0  0  0  0
    4.2691   -1.0650    0.9960 C   0  0  0  0  0  0  0  0  0  0  0  0
    5.1298   -0.3169    1.7144 C   0  0  0  0  0  0  0  0  0  0  0  0
    4.5234   -1.4285   -0.4481 C   0  0  0  0  0  0  0  0  0  0  0  0
    5.1591   -2.7590   -0.5956 N   0  0  0  0  0  0  0  0  0  0  0  0
    4.3468   -3.8695   -0.9128 C   0  0  0  0  0  0  0  0  0  0  0  0
    3.1202   -3.7592   -0.9360 O   0  0  0  0  0  0  0  0  0  0  0  0
    5.0164   -5.0496   -1.2081 N   0  0  0  0  0  0  0  0  0  0  0  0
    4.4665   -6.2867   -1.6500 C   0  0  0  0  0  0  0  0  0  0  0  0
    3.1941   -6.3682   -2.2147 C   0  0  0  0  0  0  0  0  0  0  0  0
    2.6466   -7.4984   -2.7213 N   0  0  0  0  0  0  0  0  0  0  0  0
    3.3947   -8.6160   -2.6569 C   0  0  0  0  0  0  0  0  0  0  0  0
    4.6772   -8.6805   -2.1085 C   0  0  0  0  0  0  0  0  0  0  0  0
    5.3748   -9.9044   -2.0718 C   0  0  0  0  0  0  0  0  0  0  0  0
    6.6326   -9.9910   -1.4903 C   0  0  0  0  0  0  0  0  0  0  0  0
    7.2071   -8.8532   -0.9401 C   0  0  0  0  0  0  0  0  0  0  0  0
    6.5285   -7.6249   -0.9884 C   0  0  0  0  0  0  0  0  0  0  0  0
    5.2404   -7.4920   -1.5797 C   0  0  0  0  0  0  0  0  0  0  0  0
    6.5817   -2.8029   -0.6313 C   0  0  0  0  0  0  0  0  0  0  0  0
    7.2743   -3.6808    0.2133 C   0  0  0  0  0  0  0  0  0  0  0  0
    8.6486   -3.8645    0.0639 C   0  0  0  0  0  0  0  0  0  0  0  0
    9.3445   -3.1413   -0.9036 C   0  0  0  0  0  0  0  0  0  0  0  0
    8.6656   -2.2266   -1.7068 C   0  0  0  0  0  0  0  0  0  0  0  0
    9.5270   -1.3395   -2.9036 Cl  0  0  0  0  0  0  0  0  0  0  0  0
    7.2890   -2.0514   -1.5756 C   0  0  0  0  0  0  0  0  0  0  0  0
    1.1944   -2.3094    1.4606 H   0  0  0  0  0  0  0  0  0  0  0  0
    2.2864   -2.6600    0.1729 H   0  0  0  0  0  0  0  0  0  0  0  0
    4.8959    0.0132    2.7254 H   0  0  0  0  0  0  0  0  0  0  0  0
    6.0793    0.0168    1.3118 H   0  0  0  0  0  0  0  0  0  0  0  0
    5.1690   -0.6604   -0.8914 H   0  0  0  0  0  0  0  0  0  0  0  0
    3.5996   -1.3810   -1.0350 H   0  0  0  0  0  0  0  0  0  0  0  0
    6.0132   -5.0571   -1.0936 H   0  0  0  0  0  0  0  0  0  0  0  0
    2.5571   -5.4983   -2.3329 H   0  0  0  0  0  0  0  0  0  0  0  0
    2.9212   -9.4989   -3.0740 H   0  0  0  0  0  0  0  0  0  0  0  0
    4.9305  -10.8059   -2.4916 H   0  0  0  0  0  0  0  0  0  0  0  0
    7.1565  -10.9447   -1.4547 H   0  0  0  0  0  0  0  0  0  0  0  0
    8.1821   -8.9215   -0.4617 H   0  0  0  0  0  0  0  0  0  0  0  0
    7.0199   -6.7744   -0.5240 H   0  0  0  0  0  0  0  0  0  0  0  0
    6.7383   -4.2456    0.9748 H   0  0  0  0  0  0  0  0  0  0  0  0
    9.1739   -4.5787    0.6934 H   0  0  0  0  0  0  0  0  0  0  0  0
   10.4131   -3.2959   -1.0294 H   0  0  0  0  0  0  0  0  0  0  0  0
    6.7740   -1.3798   -2.2574 H   0  0  0  0  0  0  0  0  0  0  0  0
  1  2  1  0  0  0  0
  1 28  1  0  0  0  0
  1 29  1  0  0  0  0
  2  3  2  0  0  0  0
  2  4  1  0  0  0  0
  4  5  2  0  0  0  0
  4  6  1  0  0  0  0
  5 30  1  0  0  0  0
  5 31  1  0  0  0  0
  6  7  1  0  0  0  0
  6 32  1  0  0  0  0
  6 33  1  0  0  0  0
  7  8  1  0  0  0  0
  7 21  1  0  0  0  0
  8  9  2  0  0  0  0
  8 10  1  0  0  0  0
 10 11  1  0  0  0  0
 10 34  1  0  0  0  0
 11 12  1  0  0  0  0
 11 20  2  0  0  0  0
 12 13  2  0  0  0  0
 12 35  1  0  0  0  0
 13 14  1  0  0  0  0
 14 15  2  0  0  0  0
 14 36  1  0  0  0  0
 15 16  1  0  0  0  0
 15 20  1  0  0  0  0
 16 17  2  0  0  0  0
 16 37  1  0  0  0  0
 17 18  1  0  0  0  0
 17 38  1  0  0  0  0
 18 19  2  0  0  0  0
 18 39  1  0  0  0  0
 19 20  1  0  0  0  0
 19 40  1  0  0  0  0
 21 22  1  0  0  0  0
 21 27  2  0  0  0  0
 22 23  2  0  0  0  0
 22 41  1  0  0  0  0
 23 24  1  0  0  0  0
 23 42  1  0  0  0  0
 24 25  2  0  0  0  0
 24 43  1  0  0  0  0
 25 26  1  0  0  0  0
 25 27  1  0  0  0  0
 27 44  1  0  0  0  0
M  END
$$$$
