
 OpenBabel07202414153D

 38 40  0  0  0  0  0  0  0  0999 V2000
    9.4894   -2.4873   -1.3691 C   0  0  0  0  0  0  0  0  0  0  0  0
    8.8672   -1.3350   -1.9279 O   0  0  0  0  0  0  0  0  0  0  0  0
    8.3838   -0.4093   -1.0423 C   0  0  0  0  0  0  0  0  0  0  0  0
    8.4482   -0.5033    0.3483 C   0  0  0  0  0  0  0  0  0  0  0  0
    7.9093    0.5089    1.1436 C   0  0  0  0  0  0  0  0  0  0  0  0
    7.3142    1.6234    0.5548 C   0  0  0  0  0  0  0  0  0  0  0  0
    7.2603    1.7471   -0.8405 C   0  0  0  0  0  0  0  0  0  0  0  0
    6.6265    2.9651   -1.4710 C   0  0  0  0  0  0  0  0  0  0  0  0
    7.2797    4.2695   -1.0278 C   0  0  0  0  0  0  0  0  0  0  0  0
    6.8085    4.9268   -0.1034 O   0  0  0  0  0  0  0  0  0  0  0  0
    8.4229    4.5754   -1.7487 N   0  0  0  0  0  0  0  0  0  0  0  0
    9.2920    5.6821   -1.5481 C   0  0  0  0  0  0  0  0  0  0  0  0
    9.0014    6.7165   -0.6544 C   0  0  0  0  0  0  0  0  0  0  0  0
    9.8353    7.7418   -0.3633 N   0  0  0  0  0  0  0  0  0  0  0  0
   11.0009    7.7799   -1.0366 C   0  0  0  0  0  0  0  0  0  0  0  0
   11.3680    6.8703   -2.0277 C   0  0  0  0  0  0  0  0  0  0  0  0
   12.5519    7.0602   -2.7635 C   0  0  0  0  0  0  0  0  0  0  0  0
   12.9135    6.1661   -3.7662 C   0  0  0  0  0  0  0  0  0  0  0  0
   12.1207    5.0531   -4.0105 C   0  0  0  0  0  0  0  0  0  0  0  0
   10.9481    4.8498   -3.2735 C   0  0  0  0  0  0  0  0  0  0  0  0
   10.5110    5.7688   -2.2820 C   0  0  0  0  0  0  0  0  0  0  0  0
    7.7850    0.7129   -1.6289 C   0  0  0  0  0  0  0  0  0  0  0  0
    9.8495   -3.1100   -2.1936 H   0  0  0  0  0  0  0  0  0  0  0  0
    8.7726   -3.0808   -0.7913 H   0  0  0  0  0  0  0  0  0  0  0  0
   10.3572   -2.2130   -0.7597 H   0  0  0  0  0  0  0  0  0  0  0  0
    8.9085   -1.3498    0.8460 H   0  0  0  0  0  0  0  0  0  0  0  0
    7.9533    0.4286    2.2274 H   0  0  0  0  0  0  0  0  0  0  0  0
    6.8939    2.3974    1.1959 H   0  0  0  0  0  0  0  0  0  0  0  0
    5.5634    3.0014   -1.2040 H   0  0  0  0  0  0  0  0  0  0  0  0
    6.6645    2.9051   -2.5655 H   0  0  0  0  0  0  0  0  0  0  0  0
    8.7271    3.8739   -2.4097 H   0  0  0  0  0  0  0  0  0  0  0  0
    8.0572    6.7800   -0.1253 H   0  0  0  0  0  0  0  0  0  0  0  0
   11.6555    8.5986   -0.7467 H   0  0  0  0  0  0  0  0  0  0  0  0
   13.1871    7.9243   -2.5769 H   0  0  0  0  0  0  0  0  0  0  0  0
   13.8098    6.3400   -4.3562 H   0  0  0  0  0  0  0  0  0  0  0  0
   12.4110    4.3365   -4.7755 H   0  0  0  0  0  0  0  0  0  0  0  0
   10.3745    3.9612   -3.5085 H   0  0  0  0  0  0  0  0  0  0  0  0
    7.7279    0.7648   -2.7142 H   0  0  0  0  0  0  0  0  0  0  0  0
  1  2  1  0  0  0  0
  1 23  1  0  0  0  0
  1 24  1  0  0  0  0
  1 25  1  0  0  0  0
  2  3  1  0  0  0  0
  3  4  1  0  0  0  0
  3 22  2  0  0  0  0
  4  5  2  0  0  0  0
  4 26  1  0  0  0  0
  5  6  1  0  0  0  0
  5 27  1  0  0  0  0
  6  7  2  0  0  0  0
  6 28  1  0  0  0  0
  7  8  1  0  0  0  0
  7 22  1  0  0  0  0
  8  9  1  0  0  0  0
  8 29  1  0  0  0  0
  8 30  1  0  0  0  0
  9 10  2  0  0  0  0
  9 11  1  0  0  0  0
 11 12  1  0  0  0  0
 11 31  1  0  0  0  0
 12 13  1  0  0  0  0
 12 21  2  0  0  0  0
 13 14  2  0  0  0  0
 13 32  1  0  0  0  0
 14 15  1  0  0  0  0
 15 16  2  0  0  0  0
 15 33  1  0  0  0  0
 16 17  1  0  0  0  0
 16 21  1  0  0  0  0
 17 18  2  0  0  0  0
 17 34  1  0  0  0  0
 18 19  1  0  0  0  0
 18 35  1  0  0  0  0
 19 20  2  0  0  0  0
 19 36  1  0  0  0  0
 20 21  1  0  0  0  0
 20 37  1  0  0  0  0
 22 38  1  0  0  0  0
M  END
$$$$
