
 OpenBabel07202414173D

 60 64  0  0  1  0  0  0  0  0999 V2000
    0.8466   -0.1126   -0.0316 Cl  0  0  0  0  0  0  0  0  0  0  0  0
    2.5617   -0.1197    0.1089 C   0  0  0  0  0  0  0  0  0  0  0  0
    3.2634    1.0737   -0.0301 C   0  0  0  0  0  0  0  0  0  0  0  0
    4.6535    1.0652    0.0491 C   0  0  0  0  0  0  0  0  0  0  0  0
    5.3501   -0.1326    0.2767 C   0  0  0  0  0  0  0  0  0  0  0  0
    4.6400   -1.3348    0.4411 C   0  0  0  0  0  0  0  0  0  0  0  0
    3.2372   -1.3174    0.3483 C   0  0  0  0  0  0  0  0  0  0  0  0
    5.3895   -2.6312    0.7294 C   0  0  3  0  0  0  0  0  0  0  0  0
    5.2851   -3.0350    2.2285 C   0  0  0  0  0  0  0  0  0  0  0  0
    4.2881   -2.7515    2.8944 O   0  0  0  0  0  0  0  0  0  0  0  0
    6.3111   -3.8310    2.6972 N   0  0  0  0  0  0  0  0  0  0  0  0
    6.5003   -4.3548    4.0028 C   0  0  0  0  0  0  0  0  0  0  0  0
    5.6233   -4.1292    5.0612 C   0  0  0  0  0  0  0  0  0  0  0  0
    5.9109   -4.4067    6.3552 N   0  0  0  0  0  0  0  0  0  0  0  0
    7.0934   -5.0088    6.5964 C   0  0  0  0  0  0  0  0  0  0  0  0
    7.9692   -5.4523    5.6068 C   0  0  0  0  0  0  0  0  0  0  0  0
    9.0963   -6.2348    5.9220 C   0  0  0  0  0  0  0  0  0  0  0  0
    9.9515   -6.6914    4.9214 C   0  0  0  0  0  0  0  0  0  0  0  0
    9.7127   -6.3389    3.6015 C   0  0  0  0  0  0  0  0  0  0  0  0
    8.6009   -5.5567    3.2796 C   0  0  0  0  0  0  0  0  0  0  0  0
    7.6835   -5.1058    4.2681 C   0  0  0  0  0  0  0  0  0  0  0  0
    6.8078   -2.5350    0.1257 C   0  0  0  0  0  0  0  0  0  0  0  0
    7.5511   -1.3397    0.6465 N   0  0  0  0  0  0  0  0  0  0  0  0
    9.2223   -1.3321    0.2345 S   0  0  0  0  0  0  0  0  0  0  0  0
    9.7571   -2.5830    0.7573 O   0  0  0  0  0  0  0  0  0  0  0  0
    9.3161   -1.0270   -1.1787 O   0  0  0  0  0  0  0  0  0  0  0  0
    9.8790    0.0466    1.1898 C   0  0  0  0  0  0  0  0  0  0  0  0
   11.3397    0.4109    0.8583 C   0  0  0  0  0  0  0  0  0  0  0  0
   12.3312   -0.7103    1.1936 C   0  0  0  0  0  0  0  0  0  0  0  0
   13.7751   -0.2458    1.0342 C   0  0  0  0  0  0  0  0  0  0  0  0
   14.0244    0.9068    1.8345 O   0  0  0  0  0  0  0  0  0  0  0  0
   13.2239    2.0149    1.4338 C   0  0  0  0  0  0  0  0  0  0  0  0
   11.7438    1.6938    1.6147 C   0  0  0  0  0  0  0  0  0  0  0  0
    6.8572   -0.0844    0.2494 C   0  0  0  0  0  0  0  0  0  0  0  0
    2.7395    2.0081   -0.2096 H   0  0  0  0  0  0  0  0  0  0  0  0
    5.1957    2.0010   -0.0770 H   0  0  0  0  0  0  0  0  0  0  0  0
    2.6684   -2.2364    0.4745 H   0  0  0  0  0  0  0  0  0  0  0  0
    4.8783   -3.4417    0.1884 H   0  0  0  0  0  0  0  0  0  0  0  0
    7.1342   -3.8981    2.1224 H   0  0  0  0  0  0  0  0  0  0  0  0
    4.6406   -3.6905    4.9252 H   0  0  0  0  0  0  0  0  0  0  0  0
    7.3239   -5.1392    7.6510 H   0  0  0  0  0  0  0  0  0  0  0  0
    9.2947   -6.5243    6.9519 H   0  0  0  0  0  0  0  0  0  0  0  0
   10.7969   -7.3278    5.1702 H   0  0  0  0  0  0  0  0  0  0  0  0
   10.3801   -6.6798    2.8135 H   0  0  0  0  0  0  0  0  0  0  0  0
    8.4538   -5.3419    2.2251 H   0  0  0  0  0  0  0  0  0  0  0  0
    6.7352   -2.4563   -0.9669 H   0  0  0  0  0  0  0  0  0  0  0  0
    7.3752   -3.4491    0.3200 H   0  0  0  0  0  0  0  0  0  0  0  0
    9.7561   -0.2020    2.2492 H   0  0  0  0  0  0  0  0  0  0  0  0
    9.2587    0.9148    0.9535 H   0  0  0  0  0  0  0  0  0  0  0  0
   11.4145    0.6191   -0.2180 H   0  0  0  0  0  0  0  0  0  0  0  0
   12.1686   -1.5791    0.5472 H   0  0  0  0  0  0  0  0  0  0  0  0
   12.1724   -1.0285    2.2311 H   0  0  0  0  0  0  0  0  0  0  0  0
   14.0108   -0.0221   -0.0130 H   0  0  0  0  0  0  0  0  0  0  0  0
   14.4574   -1.0354    1.3646 H   0  0  0  0  0  0  0  0  0  0  0  0
   13.4550    2.2815    0.3965 H   0  0  0  0  0  0  0  0  0  0  0  0
   13.5004    2.8687    2.0621 H   0  0  0  0  0  0  0  0  0  0  0  0
   11.1398    2.5448    1.2806 H   0  0  0  0  0  0  0  0  0  0  0  0
   11.5473    1.5524    2.6850 H   0  0  0  0  0  0  0  0  0  0  0  0
    7.1446    0.1860   -0.7716 H   0  0  0  0  0  0  0  0  0  0  0  0
    7.1661    0.7096    0.9364 H   0  0  0  0  0  0  0  0  0  0  0  0
  1  2  1  0  0  0  0
  2  3  1  0  0  0  0
  2  7  2  0  0  0  0
  3  4  2  0  0  0  0
  3 35  1  0  0  0  0
  4  5  1  0  0  0  0
  4 36  1  0  0  0  0
  5  6  2  0  0  0  0
  5 34  1  0  0  0  0
  6  7  1  0  0  0  0
  6  8  1  0  0  0  0
  7 37  1  0  0  0  0
  8  9  1  0  0  0  0
  8 22  1  0  0  0  0
  8 38  1  0  0  0  0
  9 10  2  0  0  0  0
  9 11  1  0  0  0  0
 11 12  1  0  0  0  0
 11 39  1  0  0  0  0
 12 13  1  0  0  0  0
 12 21  2  0  0  0  0
 13 14  2  0  0  0  0
 13 40  1  0  0  0  0
 14 15  1  0  0  0  0
 15 16  2  0  0  0  0
 15 41  1  0  0  0  0
 16 17  1  0  0  0  0
 16 21  1  0  0  0  0
 17 18  2  0  0  0  0
 17 42  1  0  0  0  0
 18 19  1  0  0  0  0
 18 43  1  0  0  0  0
 19 20  2  0  0  0  0
 19 44  1  0  0  0  0
 20 21  1  0  0  0  0
 20 45  1  0  0  0  0
 22 23  1  0  0  0  0
 22 46  1  0  0  0  0
 22 47  1  0  0  0  0
 23 24  1  0  0  0  0
 23 34  1  0  0  0  0
 24 25  2  0  0  0  0
 24 26  2  0  0  0  0
 24 27  1  0  0  0  0
 27 28  1  0  0  0  0
 27 48  1  0  0  0  0
 27 49  1  0  0  0  0
 28 29  1  0  0  0  0
 28 33  1  0  0  0  0
 28 50  1  0  0  0  0
 29 30  1  0  0  0  0
 29 51  1  0  0  0  0
 29 52  1  0  0  0  0
 30 31  1  0  0  0  0
 30 53  1  0  0  0  0
 30 54  1  0  0  0  0
 31 32  1  0  0  0  0
 32 33  1  0  0  0  0
 32 55  1  0  0  0  0
 32 56  1  0  0  0  0
 33 57  1  0  0  0  0
 33 58  1  0  0  0  0
 34 59  1  0  0  0  0
 34 60  1  0  0  0  0
M  END
$$$$
