
 OpenBabel07202414183D

 63 67  0  0  1  0  0  0  0  0999 V2000
    0.8533   -0.0363   -0.1338 Cl  0  0  0  0  0  0  0  0  0  0  0  0
    2.5682   -0.0273    0.0104 C   0  0  0  0  0  0  0  0  0  0  0  0
    3.2650    1.1801   -0.1006 C   0  0  0  0  0  0  0  0  0  0  0  0
    4.6560    1.1867    0.0020 C   0  0  0  0  0  0  0  0  0  0  0  0
    5.3669   -0.0034    0.2213 C   0  0  0  0  0  0  0  0  0  0  0  0
    4.6607   -1.2144    0.3336 C   0  0  0  0  0  0  0  0  0  0  0  0
    3.2602   -1.2132    0.2276 C   0  0  0  0  0  0  0  0  0  0  0  0
    5.4040   -2.5120    0.6083 C   0  0  2  0  0  0  0  0  0  0  0  0
    5.2813   -2.9518    2.0823 C   0  0  0  0  0  0  0  0  0  0  0  0
    4.7299   -2.2503    2.9262 O   0  0  0  0  0  0  0  0  0  0  0  0
    5.7967   -4.2169    2.3321 N   0  0  0  0  0  0  0  0  0  0  0  0
    5.9188   -4.8563    3.5992 C   0  0  0  0  0  0  0  0  0  0  0  0
    5.4145   -4.3061    4.7790 C   0  0  0  0  0  0  0  0  0  0  0  0
    5.6826   -4.7736    6.0203 N   0  0  0  0  0  0  0  0  0  0  0  0
    6.4339   -5.8885    6.0939 C   0  0  0  0  0  0  0  0  0  0  0  0
    6.8638   -6.6215    4.9904 C   0  0  0  0  0  0  0  0  0  0  0  0
    7.5096   -7.8598    5.1569 C   0  0  0  0  0  0  0  0  0  0  0  0
    7.9212   -8.6012    4.0535 C   0  0  0  0  0  0  0  0  0  0  0  0
    7.7260   -8.0954    2.7764 C   0  0  0  0  0  0  0  0  0  0  0  0
    7.0908   -6.8616    2.6004 C   0  0  0  0  0  0  0  0  0  0  0  0
    6.6197   -6.0948    3.6993 C   0  0  0  0  0  0  0  0  0  0  0  0
    6.8654   -2.4122    0.1321 C   0  0  0  0  0  0  0  0  0  0  0  0
    7.5595   -1.2089    0.6975 N   0  0  0  0  0  0  0  0  0  0  0  0
    9.2595   -1.1997    0.4477 S   0  0  0  0  0  0  0  0  0  0  0  0
    9.7040   -2.5718    0.5665 O   0  0  0  0  0  0  0  0  0  0  0  0
    9.5243   -0.4250   -0.7363 O   0  0  0  0  0  0  0  0  0  0  0  0
    9.8859   -0.3388    1.9033 C   0  0  0  0  0  0  0  0  0  0  0  0
   11.4310   -0.0704    1.9006 C   0  0  0  0  0  0  0  0  0  0  0  0
   11.7301    0.8853    0.7571 C   0  0  0  0  0  0  0  0  0  0  0  0
   11.9782    1.6782   -0.1915 N   0  0  0  0  0  0  0  0  0  0  0  0
   12.3081   -1.3357    1.7308 C   0  0  0  0  0  0  0  0  0  0  0  0
   12.1938   -2.3382    2.8749 C   0  0  0  0  0  0  0  0  0  0  0  0
   12.7193   -1.6219    4.4184 S   0  0  0  0  0  0  0  0  0  0  0  0
   12.2918   -2.4985    5.4905 O   0  0  0  0  0  0  0  0  0  0  0  0
   14.1012   -1.2168    4.2812 O   0  0  0  0  0  0  0  0  0  0  0  0
   11.7213   -0.1519    4.4867 C   0  0  0  0  0  0  0  0  0  0  0  0
   11.8353    0.6726    3.2095 C   0  0  0  0  0  0  0  0  0  0  0  0
    6.8840    0.0496    0.2360 C   0  0  0  0  0  0  0  0  0  0  0  0
    2.7261    2.1063   -0.2680 H   0  0  0  0  0  0  0  0  0  0  0  0
    5.1812    2.1348   -0.1046 H   0  0  0  0  0  0  0  0  0  0  0  0
    2.6988   -2.1439    0.3242 H   0  0  0  0  0  0  0  0  0  0  0  0
    4.9216   -3.3007    0.0128 H   0  0  0  0  0  0  0  0  0  0  0  0
    6.2492   -4.6867    1.5642 H   0  0  0  0  0  0  0  0  0  0  0  0
    4.7551   -3.4449    4.7895 H   0  0  0  0  0  0  0  0  0  0  0  0
    6.6817   -6.1940    7.1078 H   0  0  0  0  0  0  0  0  0  0  0  0
    7.6667   -8.2702    6.1529 H   0  0  0  0  0  0  0  0  0  0  0  0
    8.3863   -9.5740    4.1917 H   0  0  0  0  0  0  0  0  0  0  0  0
    8.0543   -8.6657    1.9107 H   0  0  0  0  0  0  0  0  0  0  0  0
    6.9449   -6.5360    1.5757 H   0  0  0  0  0  0  0  0  0  0  0  0
    6.8908   -2.3501   -0.9644 H   0  0  0  0  0  0  0  0  0  0  0  0
    7.4045   -3.3190    0.4187 H   0  0  0  0  0  0  0  0  0  0  0  0
    9.5988   -0.9652    2.7537 H   0  0  0  0  0  0  0  0  0  0  0  0
    9.3381    0.6076    1.9700 H   0  0  0  0  0  0  0  0  0  0  0  0
   13.3601   -1.0294    1.6408 H   0  0  0  0  0  0  0  0  0  0  0  0
   12.0854   -1.8399    0.7842 H   0  0  0  0  0  0  0  0  0  0  0  0
   12.8358   -3.2058    2.6925 H   0  0  0  0  0  0  0  0  0  0  0  0
   11.1689   -2.6948    3.0081 H   0  0  0  0  0  0  0  0  0  0  0  0
   12.0715    0.4277    5.3461 H   0  0  0  0  0  0  0  0  0  0  0  0
   10.6901   -0.4578    4.6826 H   0  0  0  0  0  0  0  0  0  0  0  0
   12.8733    1.0232    3.1149 H   0  0  0  0  0  0  0  0  0  0  0  0
   11.2264    1.5792    3.3247 H   0  0  0  0  0  0  0  0  0  0  0  0
    7.1839    0.2677   -0.7960 H   0  0  0  0  0  0  0  0  0  0  0  0
    7.2022    0.8687    0.8863 H   0  0  0  0  0  0  0  0  0  0  0  0
  1  2  1  0  0  0  0
  2  3  1  0  0  0  0
  2  7  2  0  0  0  0
  3  4  2  0  0  0  0
  3 39  1  0  0  0  0
  4  5  1  0  0  0  0
  4 40  1  0  0  0  0
  5  6  2  0  0  0  0
  5 38  1  0  0  0  0
  6  7  1  0  0  0  0
  6  8  1  0  0  0  0
  7 41  1  0  0  0  0
  8  9  1  0  0  0  0
  8 22  1  0  0  0  0
  8 42  1  6  0  0  0
  9 10  2  0  0  0  0
  9 11  1  0  0  0  0
 11 12  1  0  0  0  0
 11 43  1  0  0  0  0
 12 13  1  0  0  0  0
 12 21  2  0  0  0  0
 13 14  2  0  0  0  0
 13 44  1  0  0  0  0
 14 15  1  0  0  0  0
 15 16  2  0  0  0  0
 15 45  1  0  0  0  0
 16 17  1  0  0  0  0
 16 21  1  0  0  0  0
 17 18  2  0  0  0  0
 17 46  1  0  0  0  0
 18 19  1  0  0  0  0
 18 47  1  0  0  0  0
 19 20  2  0  0  0  0
 19 48  1  0  0  0  0
 20 21  1  0  0  0  0
 20 49  1  0  0  0  0
 22 23  1  0  0  0  0
 22 50  1  0  0  0  0
 22 51  1  0  0  0  0
 23 24  1  0  0  0  0
 23 38  1  0  0  0  0
 24 25  2  0  0  0  0
 24 26  2  0  0  0  0
 24 27  1  0  0  0  0
 27 28  1  0  0  0  0
 27 52  1  0  0  0  0
 27 53  1  0  0  0  0
 28 29  1  0  0  0  0
 28 31  1  0  0  0  0
 28 37  1  0  0  0  0
 29 30  3  0  0  0  0
 31 32  1  0  0  0  0
 31 54  1  0  0  0  0
 31 55  1  0  0  0  0
 32 33  1  0  0  0  0
 32 56  1  0  0  0  0
 32 57  1  0  0  0  0
 33 34  2  0  0  0  0
 33 35  2  0  0  0  0
 33 36  1  0  0  0  0
 36 37  1  0  0  0  0
 36 58  1  0  0  0  0
 36 59  1  0  0  0  0
 37 60  1  0  0  0  0
 37 61  1  0  0  0  0
 38 62  1  0  0  0  0
 38 63  1  0  0  0  0
M  END
$$$$
