
 OpenBabel07202414133D

 45 49  0  0  0  0  0  0  0  0999 V2000
    0.9946   -0.4336   -0.3592 C   0  0  0  0  0  0  0  0  0  0  0  0
    2.3765   -0.3624    0.0892 N   0  0  0  0  0  0  0  0  0  0  0  0
    3.2953   -1.3156   -0.3504 C   0  0  0  0  0  0  0  0  0  0  0  0
    2.9851   -2.4459   -0.7077 O   0  0  0  0  0  0  0  0  0  0  0  0
    4.5276   -0.7219   -0.4517 N   0  0  0  0  0  0  0  0  0  0  0  0
    5.6684   -1.4074   -0.9550 C   0  0  0  0  0  0  0  0  0  0  0  0
    6.3313   -0.9538   -2.0960 C   0  0  0  0  0  0  0  0  0  0  0  0
    7.4842   -1.4706   -2.5781 N   0  0  0  0  0  0  0  0  0  0  0  0
    8.0345   -2.4742   -1.8653 C   0  0  0  0  0  0  0  0  0  0  0  0
    7.4794   -3.0257   -0.7110 C   0  0  0  0  0  0  0  0  0  0  0  0
    8.1437   -4.0489   -0.0107 C   0  0  0  0  0  0  0  0  0  0  0  0
    7.5910   -4.5970    1.1429 C   0  0  0  0  0  0  0  0  0  0  0  0
    6.3685   -4.1293    1.6045 C   0  0  0  0  0  0  0  0  0  0  0  0
    5.7096   -3.0973    0.9269 C   0  0  0  0  0  0  0  0  0  0  0  0
    6.2430   -2.5092   -0.2484 C   0  0  0  0  0  0  0  0  0  0  0  0
    4.3682    0.6483   -0.4401 C   0  0  0  0  0  0  0  0  0  0  0  0
    5.1033    1.4472   -1.0131 O   0  0  0  0  0  0  0  0  0  0  0  0
    3.0002    1.0068    0.4838 C   0  0  0  0  0  0  0  0  0  0  0  0
    2.2742    0.9174    1.9611 C   0  0  0  0  0  0  0  0  0  0  0  0
    3.0862    1.9589    2.5733 N   0  0  0  0  0  0  0  0  0  0  0  0
    3.4191    2.0664    4.2451 S   0  0  0  0  0  0  0  0  0  0  0  0
    3.4468    0.7122    4.7549 O   0  0  0  0  0  0  0  0  0  0  0  0
    4.5780    2.9251    4.3731 O   0  0  0  0  0  0  0  0  0  0  0  0
    2.1018    2.9208    5.1418 C   0  0  0  0  0  0  0  0  0  0  0  0
    0.7622    2.2336    5.1447 C   0  0  0  0  0  0  0  0  0  0  0  0
    0.9696    3.4823    4.3316 C   0  0  0  0  0  0  0  0  0  0  0  0
    4.1280    1.4884    1.6523 C   0  0  0  0  0  0  0  0  0  0  0  0
    0.7018   -1.4670   -0.5585 H   0  0  0  0  0  0  0  0  0  0  0  0
    0.8938    0.1480   -1.2818 H   0  0  0  0  0  0  0  0  0  0  0  0
    0.3263   -0.0174    0.3982 H   0  0  0  0  0  0  0  0  0  0  0  0
    5.9337   -0.1419   -2.7002 H   0  0  0  0  0  0  0  0  0  0  0  0
    8.9836   -2.8331   -2.2587 H   0  0  0  0  0  0  0  0  0  0  0  0
    9.1078   -4.4190   -0.3556 H   0  0  0  0  0  0  0  0  0  0  0  0
    8.1133   -5.3854    1.6788 H   0  0  0  0  0  0  0  0  0  0  0  0
    5.9238   -4.5611    2.4981 H   0  0  0  0  0  0  0  0  0  0  0  0
    4.7600   -2.7658    1.3372 H   0  0  0  0  0  0  0  0  0  0  0  0
    2.3707   -0.0548    2.4729 H   0  0  0  0  0  0  0  0  0  0  0  0
    1.2137    1.1883    1.9726 H   0  0  0  0  0  0  0  0  0  0  0  0
    2.4093    3.4276    6.0452 H   0  0  0  0  0  0  0  0  0  0  0  0
    0.1700    2.3090    6.0524 H   0  0  0  0  0  0  0  0  0  0  0  0
    0.6426    1.2901    4.6272 H   0  0  0  0  0  0  0  0  0  0  0  0
    0.5217    4.4041    4.6885 H   0  0  0  0  0  0  0  0  0  0  0  0
    0.9728    3.3942    3.2536 H   0  0  0  0  0  0  0  0  0  0  0  0
    4.7567    0.6902    2.0702 H   0  0  0  0  0  0  0  0  0  0  0  0
    4.7713    2.3321    1.3687 H   0  0  0  0  0  0  0  0  0  0  0  0
  1  2  1  0  0  0  0
  1 28  1  0  0  0  0
  1 29  1  0  0  0  0
  1 30  1  0  0  0  0
  2  3  1  0  0  0  0
  2 18  1  0  0  0  0
  3  4  2  0  0  0  0
  3  5  1  0  0  0  0
  5  6  1  0  0  0  0
  5 16  1  0  0  0  0
  6  7  1  0  0  0  0
  6 15  2  0  0  0  0
  7  8  2  0  0  0  0
  7 31  1  0  0  0  0
  8  9  1  0  0  0  0
  9 10  2  0  0  0  0
  9 32  1  0  0  0  0
 10 11  1  0  0  0  0
 10 15  1  0  0  0  0
 11 12  2  0  0  0  0
 11 33  1  0  0  0  0
 12 13  1  0  0  0  0
 12 34  1  0  0  0  0
 13 14  2  0  0  0  0
 13 35  1  0  0  0  0
 14 15  1  0  0  0  0
 14 36  1  0  0  0  0
 16 17  2  0  0  0  0
 16 18  1  0  0  0  0
 18 19  1  0  0  0  0
 18 27  1  0  0  0  0
 19 20  1  0  0  0  0
 19 37  1  0  0  0  0
 19 38  1  0  0  0  0
 20 21  1  0  0  0  0
 20 27  1  0  0  0  0
 21 22  2  0  0  0  0
 21 23  2  0  0  0  0
 21 24  1  0  0  0  0
 24 25  1  0  0  0  0
 24 26  1  0  0  0  0
 24 39  1  0  0  0  0
 25 26  1  0  0  0  0
 25 40  1  0  0  0  0
 25 41  1  0  0  0  0
 26 42  1  0  0  0  0
 26 43  1  0  0  0  0
 27 44  1  0  0  0  0
 27 45  1  0  0  0  0
M  END
$$$$
