
 OpenBabel07202414133D

 37 39  0  0  0  0  0  0  0  0999 V2000
    1.0262    0.1741   -0.0892 C   0  0  0  0  0  0  0  0  0  0  0  0
    2.4721   -0.0356   -0.1575 N   0  0  0  0  0  0  0  0  0  0  0  0
    3.2387    0.7529   -1.0260 C   0  0  0  0  0  0  0  0  0  0  0  0
    2.7289    1.5993   -1.7628 O   0  0  0  0  0  0  0  0  0  0  0  0
    4.7494    0.5026   -1.0175 C   0  0  0  0  0  0  0  0  0  0  0  0
    5.4256    0.6815   -2.3548 C   0  0  0  0  0  0  0  0  0  0  0  0
    5.9297    1.9321   -2.7360 C   0  0  0  0  0  0  0  0  0  0  0  0
    6.5944    2.0841   -3.9534 C   0  0  0  0  0  0  0  0  0  0  0  0
    6.7539    0.9927   -4.8044 C   0  0  0  0  0  0  0  0  0  0  0  0
    6.2431   -0.2502   -4.4383 C   0  0  0  0  0  0  0  0  0  0  0  0
    6.4467   -1.6011   -5.4840 Cl  0  0  0  0  0  0  0  0  0  0  0  0
    5.5777   -0.4104   -3.2236 C   0  0  0  0  0  0  0  0  0  0  0  0
    3.0414   -0.7226    0.9541 C   0  0  0  0  0  0  0  0  0  0  0  0
    3.7605   -0.0082    1.9161 C   0  0  0  0  0  0  0  0  0  0  0  0
    4.3486   -0.5610    2.9959 N   0  0  0  0  0  0  0  0  0  0  0  0
    4.1953   -1.8958    3.1402 C   0  0  0  0  0  0  0  0  0  0  0  0
    3.4909   -2.7185    2.2566 C   0  0  0  0  0  0  0  0  0  0  0  0
    3.3771   -4.1026    2.4732 C   0  0  0  0  0  0  0  0  0  0  0  0
    2.7051   -4.9123    1.5588 C   0  0  0  0  0  0  0  0  0  0  0  0
    2.1541   -4.3503    0.4134 C   0  0  0  0  0  0  0  0  0  0  0  0
    2.2585   -2.9760    0.1906 C   0  0  0  0  0  0  0  0  0  0  0  0
    2.9047   -2.1232    1.1163 C   0  0  0  0  0  0  0  0  0  0  0  0
    0.6693    0.7978   -0.9125 H   0  0  0  0  0  0  0  0  0  0  0  0
    0.7810    0.6752    0.8535 H   0  0  0  0  0  0  0  0  0  0  0  0
    0.5016   -0.7839   -0.1334 H   0  0  0  0  0  0  0  0  0  0  0  0
    4.9762   -0.5127   -0.6745 H   0  0  0  0  0  0  0  0  0  0  0  0
    5.1973    1.1921   -0.2923 H   0  0  0  0  0  0  0  0  0  0  0  0
    5.8100    2.7949   -2.0829 H   0  0  0  0  0  0  0  0  0  0  0  0
    6.9883    3.0582   -4.2363 H   0  0  0  0  0  0  0  0  0  0  0  0
    7.2775    1.1168   -5.7490 H   0  0  0  0  0  0  0  0  0  0  0  0
    5.1906   -1.3884   -2.9469 H   0  0  0  0  0  0  0  0  0  0  0  0
    3.8764    1.0701    1.8454 H   0  0  0  0  0  0  0  0  0  0  0  0
    4.6837   -2.3065    4.0206 H   0  0  0  0  0  0  0  0  0  0  0  0
    3.8194   -4.5616    3.3552 H   0  0  0  0  0  0  0  0  0  0  0  0
    2.6217   -5.9818    1.7362 H   0  0  0  0  0  0  0  0  0  0  0  0
    1.6489   -4.9818   -0.3138 H   0  0  0  0  0  0  0  0  0  0  0  0
    1.8395   -2.5751   -0.7301 H   0  0  0  0  0  0  0  0  0  0  0  0
  1  2  1  0  0  0  0
  1 23  1  0  0  0  0
  1 24  1  0  0  0  0
  1 25  1  0  0  0  0
  2  3  1  0  0  0  0
  2 13  1  0  0  0  0
  3  4  2  0  0  0  0
  3  5  1  0  0  0  0
  5  6  1  0  0  0  0
  5 26  1  0  0  0  0
  5 27  1  0  0  0  0
  6  7  1  0  0  0  0
  6 12  2  0  0  0  0
  7  8  2  0  0  0  0
  7 28  1  0  0  0  0
  8  9  1  0  0  0  0
  8 29  1  0  0  0  0
  9 10  2  0  0  0  0
  9 30  1  0  0  0  0
 10 11  1  0  0  0  0
 10 12  1  0  0  0  0
 12 31  1  0  0  0  0
 13 14  1  0  0  0  0
 13 22  2  0  0  0  0
 14 15  2  0  0  0  0
 14 32  1  0  0  0  0
 15 16  1  0  0  0  0
 16 17  2  0  0  0  0
 16 33  1  0  0  0  0
 17 18  1  0  0  0  0
 17 22  1  0  0  0  0
 18 19  2  0  0  0  0
 18 34  1  0  0  0  0
 19 20  1  0  0  0  0
 19 35  1  0  0  0  0
 20 21  2  0  0  0  0
 20 36  1  0  0  0  0
 21 22  1  0  0  0  0
 21 37  1  0  0  0  0
M  END
$$$$
