
 OpenBabel07202414143D

 55 58  0  0  1  0  0  0  0  0999 V2000
    0.2931    1.3658   -3.0203 C   0  0  0  0  0  0  0  0  0  0  0  0
    1.6743    0.9617   -2.7938 N   0  0  0  0  0  0  0  0  0  0  0  0
    1.7964    0.0689   -1.6354 C   0  0  0  0  0  0  0  0  0  0  0  0
    3.2722   -0.3151   -1.3901 C   0  0  3  0  0  0  0  0  0  0  0  0
    3.4235   -1.3540   -0.2642 C   0  0  0  0  0  0  0  0  0  0  0  0
    3.2346   -0.7571    1.1299 C   0  0  0  0  0  0  0  0  0  0  0  0
    4.0062    0.5447    1.3608 C   0  0  0  0  0  0  0  0  0  0  0  0
    3.8603    1.4743    0.2472 N   0  0  0  0  0  0  0  0  0  0  0  0
    4.1563    0.8976   -1.0716 C   0  0  0  0  0  0  0  0  0  0  0  0
    3.6501    2.8542    0.3602 C   0  0  0  0  0  0  0  0  0  0  0  0
    3.3824    3.5070   -0.6584 O   0  0  0  0  0  0  0  0  0  0  0  0
    3.8821    3.5691    1.7624 C   0  0  1  0  0  0  0  0  0  0  0  0
    5.3795    3.9204    1.9255 C   0  0  0  0  0  0  0  0  0  0  0  0
    6.0112    4.7881    1.0189 C   0  0  0  0  0  0  0  0  0  0  0  0
    7.0987    5.5569    1.4362 C   0  0  0  0  0  0  0  0  0  0  0  0
    7.5969    5.4200    2.7307 C   0  0  0  0  0  0  0  0  0  0  0  0
    7.0728    4.4497    3.5806 C   0  0  0  0  0  0  0  0  0  0  0  0
    5.9863    3.6797    3.1710 C   0  0  0  0  0  0  0  0  0  0  0  0
    3.0716    4.7892    2.1154 N   0  0  0  0  0  0  0  0  0  0  0  0
    2.7916    5.8073    1.1201 C   0  0  0  0  0  0  0  0  0  0  0  0
    3.5908    6.9788    1.5781 C   0  0  0  0  0  0  0  0  0  0  0  0
    4.1118    8.0191    0.8404 C   0  0  0  0  0  0  0  0  0  0  0  0
    4.9042    8.9565    1.4995 C   0  0  0  0  0  0  0  0  0  0  0  0
    5.1419    8.8446    2.8856 C   0  0  0  0  0  0  0  0  0  0  0  0
    4.6280    7.7656    3.6188 C   0  0  0  0  0  0  0  0  0  0  0  0
    3.8558    6.8447    2.9338 C   0  0  0  0  0  0  0  0  0  0  0  0
    3.4307    5.4554    3.3248 C   0  0  0  0  0  0  0  0  0  0  0  0
    3.5463    4.9726    4.4381 O   0  0  0  0  0  0  0  0  0  0  0  0
    0.2489    1.9868   -3.9207 H   0  0  0  0  0  0  0  0  0  0  0  0
   -0.0871    1.9621   -2.1847 H   0  0  0  0  0  0  0  0  0  0  0  0
   -0.3598    0.5029   -3.1798 H   0  0  0  0  0  0  0  0  0  0  0  0
    2.2098    1.8149   -2.6161 H   0  0  0  0  0  0  0  0  0  0  0  0
    1.2221   -0.8467   -1.8263 H   0  0  0  0  0  0  0  0  0  0  0  0
    1.3722    0.5438   -0.7433 H   0  0  0  0  0  0  0  0  0  0  0  0
    3.6462   -0.7838   -2.3125 H   0  0  0  0  0  0  0  0  0  0  0  0
    4.4279   -1.7937   -0.3234 H   0  0  0  0  0  0  0  0  0  0  0  0
    2.7185   -2.1825   -0.4072 H   0  0  0  0  0  0  0  0  0  0  0  0
    3.5422   -1.4898    1.8853 H   0  0  0  0  0  0  0  0  0  0  0  0
    2.1659   -0.5725    1.2907 H   0  0  0  0  0  0  0  0  0  0  0  0
    5.0763    0.3520    1.4807 H   0  0  0  0  0  0  0  0  0  0  0  0
    3.6361    0.9772    2.2877 H   0  0  0  0  0  0  0  0  0  0  0  0
    5.2055    0.5736   -1.0386 H   0  0  0  0  0  0  0  0  0  0  0  0
    4.1146    1.6483   -1.8669 H   0  0  0  0  0  0  0  0  0  0  0  0
    3.6134    2.8649    2.5518 H   0  0  0  0  0  0  0  0  0  0  0  0
    5.5752    4.9883    0.0419 H   0  0  0  0  0  0  0  0  0  0  0  0
    7.4958    6.3294    0.7824 H   0  0  0  0  0  0  0  0  0  0  0  0
    8.3675    6.0957    3.0913 H   0  0  0  0  0  0  0  0  0  0  0  0
    7.4421    4.3561    4.5986 H   0  0  0  0  0  0  0  0  0  0  0  0
    5.5110    3.0220    3.8973 H   0  0  0  0  0  0  0  0  0  0  0  0
    1.7280    6.0592    1.2200 H   0  0  0  0  0  0  0  0  0  0  0  0
    3.0068    5.5262    0.1005 H   0  0  0  0  0  0  0  0  0  0  0  0
    3.9603    8.0707   -0.2330 H   0  0  0  0  0  0  0  0  0  0  0  0
    5.3606    9.7642    0.9384 H   0  0  0  0  0  0  0  0  0  0  0  0
    5.7710    9.5865    3.3744 H   0  0  0  0  0  0  0  0  0  0  0  0
    4.8818    7.6306    4.6679 H   0  0  0  0  0  0  0  0  0  0  0  0
  1  2  1  0  0  0  0
  1 29  1  0  0  0  0
  1 30  1  0  0  0  0
  1 31  1  0  0  0  0
  2  3  1  0  0  0  0
  2 32  1  0  0  0  0
  3  4  1  0  0  0  0
  3 33  1  0  0  0  0
  3 34  1  0  0  0  0
  4  5  1  0  0  0  0
  4  9  1  0  0  0  0
  4 35  1  0  0  0  0
  5  6  1  0  0  0  0
  5 36  1  0  0  0  0
  5 37  1  0  0  0  0
  6  7  1  0  0  0  0
  6 38  1  0  0  0  0
  6 39  1  0  0  0  0
  7  8  1  0  0  0  0
  7 40  1  0  0  0  0
  7 41  1  0  0  0  0
  8  9  1  0  0  0  0
  8 10  1  0  0  0  0
  9 42  1  0  0  0  0
  9 43  1  0  0  0  0
 10 11  2  0  0  0  0
 10 12  1  0  0  0  0
 12 13  1  0  0  0  0
 12 19  1  0  0  0  0
 12 44  1  1  0  0  0
 13 14  1  0  0  0  0
 13 18  2  0  0  0  0
 14 15  2  0  0  0  0
 14 45  1  0  0  0  0
 15 16  1  0  0  0  0
 15 46  1  0  0  0  0
 16 17  2  0  0  0  0
 16 47  1  0  0  0  0
 17 18  1  0  0  0  0
 17 48  1  0  0  0  0
 18 49  1  0  0  0  0
 19 20  1  0  0  0  0
 19 27  1  0  0  0  0
 20 21  1  0  0  0  0
 20 50  1  0  0  0  0
 20 51  1  0  0  0  0
 21 22  1  0  0  0  0
 21 26  2  0  0  0  0
 22 23  2  0  0  0  0
 22 52  1  0  0  0  0
 23 24  1  0  0  0  0
 23 53  1  0  0  0  0
 24 25  2  0  0  0  0
 24 54  1  0  0  0  0
 25 26  1  0  0  0  0
 25 55  1  0  0  0  0
 26 27  1  0  0  0  0
 27 28  2  0  0  0  0
M  END
$$$$
