
 OpenBabel07202414163D

 34 36  0  0  0  0  0  0  0  0999 V2000
    1.2104   -0.2126   -1.1814 C   0  0  0  0  0  0  0  0  0  0  0  0
    2.5450    0.0259   -0.5263 C   0  0  0  0  0  0  0  0  0  0  0  0
    3.3949   -1.1750   -0.4287 C   0  0  0  0  0  0  0  0  0  0  0  0
    4.6427   -1.0735    0.0579 C   0  0  0  0  0  0  0  0  0  0  0  0
    5.1047    0.1757    0.4454 N   0  0  0  0  0  0  0  0  0  0  0  0
    6.3026    0.5619    0.9784 C   0  0  0  0  0  0  0  0  0  0  0  0
    6.3076    1.8615    1.1763 N   0  0  0  0  0  0  0  0  0  0  0  0
    5.0850    2.3544    0.7785 N   0  0  0  0  0  0  0  0  0  0  0  0
    4.3610    1.3343    0.3518 C   0  0  0  0  0  0  0  0  0  0  0  0
    3.0154    1.2377   -0.1194 C   0  0  0  0  0  0  0  0  0  0  0  0
    2.3240    2.4364   -0.1213 N   0  0  0  0  0  0  0  0  0  0  0  0
    1.0487    2.6091    0.3935 C   0  0  0  0  0  0  0  0  0  0  0  0
    0.3840    1.7296    0.9336 O   0  0  0  0  0  0  0  0  0  0  0  0
    0.5256    4.0335    0.2690 C   0  0  0  0  0  0  0  0  0  0  0  0
    0.9186    5.0012    1.3649 C   0  0  0  0  0  0  0  0  0  0  0  0
    1.2059    4.5938    2.6755 C   0  0  0  0  0  0  0  0  0  0  0  0
    1.5061    5.5360    3.6677 C   0  0  0  0  0  0  0  0  0  0  0  0
    1.5034    6.8984    3.3714 C   0  0  0  0  0  0  0  0  0  0  0  0
    1.1936    7.3151    2.0813 C   0  0  0  0  0  0  0  0  0  0  0  0
    1.1554    8.9966    1.7116 Cl  0  0  0  0  0  0  0  0  0  0  0  0
    0.8995    6.3804    1.0860 C   0  0  0  0  0  0  0  0  0  0  0  0
    1.2425   -1.0785   -1.8548 H   0  0  0  0  0  0  0  0  0  0  0  0
    0.9083    0.6394   -1.7990 H   0  0  0  0  0  0  0  0  0  0  0  0
    0.4380   -0.4122   -0.4339 H   0  0  0  0  0  0  0  0  0  0  0  0
    3.0002   -2.1344   -0.7494 H   0  0  0  0  0  0  0  0  0  0  0  0
    5.3112   -1.9170    0.1608 H   0  0  0  0  0  0  0  0  0  0  0  0
    7.1083   -0.1223    1.1958 H   0  0  0  0  0  0  0  0  0  0  0  0
    2.9193    3.2586   -0.0299 H   0  0  0  0  0  0  0  0  0  0  0  0
   -0.5696    3.9783    0.2299 H   0  0  0  0  0  0  0  0  0  0  0  0
    0.8561    4.4244   -0.7023 H   0  0  0  0  0  0  0  0  0  0  0  0
    1.1897    3.5405    2.9519 H   0  0  0  0  0  0  0  0  0  0  0  0
    1.7323    5.2038    4.6785 H   0  0  0  0  0  0  0  0  0  0  0  0
    1.7315    7.6231    4.1488 H   0  0  0  0  0  0  0  0  0  0  0  0
    0.6408    6.7317    0.0894 H   0  0  0  0  0  0  0  0  0  0  0  0
  1  2  1  0  0  0  0
  1 22  1  0  0  0  0
  1 23  1  0  0  0  0
  1 24  1  0  0  0  0
  2  3  1  0  0  0  0
  2 10  2  0  0  0  0
  3  4  2  0  0  0  0
  3 25  1  0  0  0  0
  4  5  1  0  0  0  0
  4 26  1  0  0  0  0
  5  6  1  0  0  0  0
  5  9  1  0  0  0  0
  6  7  2  0  0  0  0
  6 27  1  0  0  0  0
  7  8  1  0  0  0  0
  8  9  2  0  0  0  0
  9 10  1  0  0  0  0
 10 11  1  0  0  0  0
 11 12  1  0  0  0  0
 11 28  1  0  0  0  0
 12 13  2  0  0  0  0
 12 14  1  0  0  0  0
 14 15  1  0  0  0  0
 14 29  1  0  0  0  0
 14 30  1  0  0  0  0
 15 16  1  0  0  0  0
 15 21  2  0  0  0  0
 16 17  2  0  0  0  0
 16 31  1  0  0  0  0
 17 18  1  0  0  0  0
 17 32  1  0  0  0  0
 18 19  2  0  0  0  0
 18 33  1  0  0  0  0
 19 20  1  0  0  0  0
 19 21  1  0  0  0  0
 21 34  1  0  0  0  0
M  END
$$$$
