
 OpenBabel07202414133D

 50 52  0  0  0  0  0  0  0  0999 V2000
    3.7750   -6.5433    1.5852 C   0  0  0  0  0  0  0  0  0  0  0  0
    3.2714   -5.1285    1.3599 C   0  0  0  0  0  0  0  0  0  0  0  0
    4.2969   -4.1512    1.6404 N   0  0  0  0  0  0  0  0  0  0  0  0
    5.2955   -3.8191    0.7700 C   0  0  0  0  0  0  0  0  0  0  0  0
    5.3159   -4.2096   -0.3942 O   0  0  0  0  0  0  0  0  0  0  0  0
    6.3835   -2.9444    1.3326 C   0  0  0  0  0  0  0  0  0  0  0  0
    7.3661   -2.6057    0.4757 C   0  0  0  0  0  0  0  0  0  0  0  0
    6.3081   -2.3712    2.7314 C   0  0  0  0  0  0  0  0  0  0  0  0
    6.7085   -3.3493    3.7713 N   0  0  0  0  0  0  0  0  0  0  0  0
    5.7239   -4.0041    4.5238 C   0  0  0  0  0  0  0  0  0  0  0  0
    4.5298   -3.8306    4.2707 O   0  0  0  0  0  0  0  0  0  0  0  0
    6.1675   -4.7905    5.5699 N   0  0  0  0  0  0  0  0  0  0  0  0
    5.3844   -5.6953    6.3485 C   0  0  0  0  0  0  0  0  0  0  0  0
    4.1246   -6.1294    5.9272 C   0  0  0  0  0  0  0  0  0  0  0  0
    3.3524   -7.0307    6.5782 N   0  0  0  0  0  0  0  0  0  0  0  0
    3.8564   -7.5373    7.7191 C   0  0  0  0  0  0  0  0  0  0  0  0
    5.0939   -7.1949    8.2569 C   0  0  0  0  0  0  0  0  0  0  0  0
    5.5285   -7.7824    9.4594 C   0  0  0  0  0  0  0  0  0  0  0  0
    6.7479   -7.4260   10.0241 C   0  0  0  0  0  0  0  0  0  0  0  0
    7.5415   -6.4799    9.3899 C   0  0  0  0  0  0  0  0  0  0  0  0
    7.1259   -5.9011    8.1816 C   0  0  0  0  0  0  0  0  0  0  0  0
    5.8905   -6.2421    7.5696 C   0  0  0  0  0  0  0  0  0  0  0  0
    8.0992   -3.5334    3.9777 C   0  0  0  0  0  0  0  0  0  0  0  0
    8.6707   -4.8063    3.8600 C   0  0  0  0  0  0  0  0  0  0  0  0
   10.0294   -4.9868    4.1179 C   0  0  0  0  0  0  0  0  0  0  0  0
   10.8155   -3.8996    4.5007 C   0  0  0  0  0  0  0  0  0  0  0  0
   10.2438   -2.6339    4.6169 C   0  0  0  0  0  0  0  0  0  0  0  0
   11.2033   -1.2985    5.1220 Cl  0  0  0  0  0  0  0  0  0  0  0  0
    8.8914   -2.4438    4.3504 C   0  0  0  0  0  0  0  0  0  0  0  0
    2.9631   -7.2624    1.4425 H   0  0  0  0  0  0  0  0  0  0  0  0
    4.1649   -6.6657    2.6017 H   0  0  0  0  0  0  0  0  0  0  0  0
    4.5832   -6.7914    0.8901 H   0  0  0  0  0  0  0  0  0  0  0  0
    2.4485   -4.9183    2.0514 H   0  0  0  0  0  0  0  0  0  0  0  0
    2.9111   -5.0007    0.3356 H   0  0  0  0  0  0  0  0  0  0  0  0
    4.3345   -3.8555    2.6096 H   0  0  0  0  0  0  0  0  0  0  0  0
    7.3861   -2.9704   -0.5515 H   0  0  0  0  0  0  0  0  0  0  0  0
    8.1775   -1.9416    0.7568 H   0  0  0  0  0  0  0  0  0  0  0  0
    5.3009   -1.9890    2.9293 H   0  0  0  0  0  0  0  0  0  0  0  0
    6.9558   -1.4889    2.8021 H   0  0  0  0  0  0  0  0  0  0  0  0
    7.1075   -4.6187    5.8874 H   0  0  0  0  0  0  0  0  0  0  0  0
    3.6726   -5.7868    5.0028 H   0  0  0  0  0  0  0  0  0  0  0  0
    3.2049   -8.2544    8.2137 H   0  0  0  0  0  0  0  0  0  0  0  0
    4.9117   -8.5216    9.9685 H   0  0  0  0  0  0  0  0  0  0  0  0
    7.0699   -7.8794   10.9591 H   0  0  0  0  0  0  0  0  0  0  0  0
    8.4874   -6.1846    9.8387 H   0  0  0  0  0  0  0  0  0  0  0  0
    7.7850   -5.1594    7.7411 H   0  0  0  0  0  0  0  0  0  0  0  0
    8.0670   -5.6561    3.5449 H   0  0  0  0  0  0  0  0  0  0  0  0
   10.4777   -5.9734    4.0163 H   0  0  0  0  0  0  0  0  0  0  0  0
   11.8721   -4.0439    4.7096 H   0  0  0  0  0  0  0  0  0  0  0  0
    8.4522   -1.4593    4.4873 H   0  0  0  0  0  0  0  0  0  0  0  0
  1  2  1  0  0  0  0
  1 30  1  0  0  0  0
  1 31  1  0  0  0  0
  1 32  1  0  0  0  0
  2  3  1  0  0  0  0
  2 33  1  0  0  0  0
  2 34  1  0  0  0  0
  3  4  1  0  0  0  0
  3 35  1  0  0  0  0
  4  5  2  0  0  0  0
  4  6  1  0  0  0  0
  6  7  2  0  0  0  0
  6  8  1  0  0  0  0
  7 36  1  0  0  0  0
  7 37  1  0  0  0  0
  8  9  1  0  0  0  0
  8 38  1  0  0  0  0
  8 39  1  0  0  0  0
  9 10  1  0  0  0  0
  9 23  1  0  0  0  0
 10 11  2  0  0  0  0
 10 12  1  0  0  0  0
 12 13  1  0  0  0  0
 12 40  1  0  0  0  0
 13 14  1  0  0  0  0
 13 22  2  0  0  0  0
 14 15  2  0  0  0  0
 14 41  1  0  0  0  0
 15 16  1  0  0  0  0
 16 17  2  0  0  0  0
 16 42  1  0  0  0  0
 17 18  1  0  0  0  0
 17 22  1  0  0  0  0
 18 19  2  0  0  0  0
 18 43  1  0  0  0  0
 19 20  1  0  0  0  0
 19 44  1  0  0  0  0
 20 21  2  0  0  0  0
 20 45  1  0  0  0  0
 21 22  1  0  0  0  0
 21 46  1  0  0  0  0
 23 24  1  0  0  0  0
 23 29  2  0  0  0  0
 24 25  2  0  0  0  0
 24 47  1  0  0  0  0
 25 26  1  0  0  0  0
 25 48  1  0  0  0  0
 26 27  2  0  0  0  0
 26 49  1  0  0  0  0
 27 28  1  0  0  0  0
 27 29  1  0  0  0  0
 29 50  1  0  0  0  0
M  END
$$$$
