
 OpenBabel07202414203D

 45 48  0  0  1  0  0  0  0  0999 V2000
    2.1792    1.4965    6.3379 C   0  0  0  0  0  0  0  0  0  0  0  0
    1.9492    2.8009    5.9188 C   0  0  0  0  0  0  0  0  0  0  0  0
    1.5785    3.0620    4.5913 C   0  0  0  0  0  0  0  0  0  0  0  0
    1.4292    2.0252    3.6314 C   0  0  0  0  0  0  0  0  0  0  0  0
    1.6761    0.7054    4.0942 C   0  0  0  0  0  0  0  0  0  0  0  0
    2.0413    0.4541    5.4289 C   0  0  0  0  0  0  0  0  0  0  0  0
    1.5439   -0.3509    3.1975 C   0  0  0  0  0  0  0  0  0  0  0  0
    1.2095   -0.2163    1.9026 N   0  0  0  0  0  0  0  0  0  0  0  0
    0.9673    1.0429    1.4725 C   0  0  0  0  0  0  0  0  0  0  0  0
    1.0419    2.1930    2.2660 C   0  0  0  0  0  0  0  0  0  0  0  0
    0.7602    3.4911    1.7325 N   0  0  0  0  0  0  0  0  0  0  0  0
    0.1314    3.7490    0.5196 C   0  0  0  0  0  0  0  0  0  0  0  0
   -0.3470    2.8968   -0.2253 O   0  0  0  0  0  0  0  0  0  0  0  0
    0.0582    5.2252    0.1412 C   0  0  0  0  0  0  0  0  0  0  0  0
   -1.3650    5.7221    0.0078 C   0  0  0  0  0  0  0  0  0  0  0  0
   -1.9956    6.3789    1.0767 C   0  0  0  0  0  0  0  0  0  0  0  0
   -3.3394    6.7813    0.9942 C   0  0  0  0  0  0  0  0  0  0  0  0
   -4.0514    6.5275   -0.1863 C   0  0  0  0  0  0  0  0  0  0  0  0
   -3.4285    5.8805   -1.2571 C   0  0  0  0  0  0  0  0  0  0  0  0
   -2.0956    5.4810   -1.1652 C   0  0  0  0  0  0  0  0  0  0  0  0
   -4.3223    5.5502   -2.6921 Cl  0  0  0  0  0  0  0  0  0  0  0  0
   -4.0130    7.4341    2.1797 C   0  0  0  0  0  0  0  0  0  0  0  0
   -4.0110    8.9555    2.0618 C   0  0  3  0  0  0  0  0  0  0  0  0
   -2.6931    9.7650    2.1667 C   0  0  0  0  0  0  0  0  0  0  0  0
   -3.1768   10.1228    3.5762 C   0  0  0  0  0  0  0  0  0  0  0  0
   -2.7024   10.5756    4.5902 O   0  0  0  0  0  0  0  0  0  0  0  0
   -4.4053    9.5900    3.3402 N   0  0  0  0  0  0  0  0  0  0  0  0
    2.4620    1.2898    7.3662 H   0  0  0  0  0  0  0  0  0  0  0  0
    2.0552    3.6194    6.6266 H   0  0  0  0  0  0  0  0  0  0  0  0
    1.4056    4.1010    4.3267 H   0  0  0  0  0  0  0  0  0  0  0  0
    2.2204   -0.5646    5.7695 H   0  0  0  0  0  0  0  0  0  0  0  0
    1.7110   -1.3800    3.5076 H   0  0  0  0  0  0  0  0  0  0  0  0
    0.7331    1.0796    0.4145 H   0  0  0  0  0  0  0  0  0  0  0  0
    0.9578    4.2808    2.3297 H   0  0  0  0  0  0  0  0  0  0  0  0
    0.5796    5.3413   -0.8182 H   0  0  0  0  0  0  0  0  0  0  0  0
    0.6103    5.8451    0.8561 H   0  0  0  0  0  0  0  0  0  0  0  0
   -1.4415    6.5600    1.9945 H   0  0  0  0  0  0  0  0  0  0  0  0
   -5.1013    6.8025   -0.2702 H   0  0  0  0  0  0  0  0  0  0  0  0
   -1.6336    4.9549   -2.0000 H   0  0  0  0  0  0  0  0  0  0  0  0
   -3.5185    7.1036    3.1015 H   0  0  0  0  0  0  0  0  0  0  0  0
   -5.0463    7.0680    2.2441 H   0  0  0  0  0  0  0  0  0  0  0  0
   -4.6635    9.3094    1.2527 H   0  0  0  0  0  0  0  0  0  0  0  0
   -2.6196   10.6265    1.4967 H   0  0  0  0  0  0  0  0  0  0  0  0
   -1.7615    9.1962    2.1552 H   0  0  0  0  0  0  0  0  0  0  0  0
   -4.8993    9.1976    4.1312 H   0  0  0  0  0  0  0  0  0  0  0  0
  1  2  1  0  0  0  0
  1  6  2  0  0  0  0
  1 28  1  0  0  0  0
  2  3  2  0  0  0  0
  2 29  1  0  0  0  0
  3  4  1  0  0  0  0
  3 30  1  0  0  0  0
  4  5  1  0  0  0  0
  4 10  2  0  0  0  0
  5  6  1  0  0  0  0
  5  7  2  0  0  0  0
  6 31  1  0  0  0  0
  7  8  1  0  0  0  0
  7 32  1  0  0  0  0
  8  9  2  0  0  0  0
  9 10  1  0  0  0  0
  9 33  1  0  0  0  0
 10 11  1  0  0  0  0
 11 12  1  0  0  0  0
 11 34  1  0  0  0  0
 12 13  2  0  0  0  0
 12 14  1  0  0  0  0
 14 15  1  0  0  0  0
 14 35  1  0  0  0  0
 14 36  1  0  0  0  0
 15 16  1  0  0  0  0
 15 20  2  0  0  0  0
 16 17  2  0  0  0  0
 16 37  1  0  0  0  0
 17 18  1  0  0  0  0
 17 22  1  0  0  0  0
 18 19  2  0  0  0  0
 18 38  1  0  0  0  0
 19 20  1  0  0  0  0
 19 21  1  0  0  0  0
 20 39  1  0  0  0  0
 22 23  1  0  0  0  0
 22 40  1  0  0  0  0
 22 41  1  0  0  0  0
 23 24  1  0  0  0  0
 23 27  1  0  0  0  0
 23 42  1  0  0  0  0
 24 25  1  0  0  0  0
 24 43  1  0  0  0  0
 24 44  1  0  0  0  0
 25 26  2  0  0  0  0
 25 27  1  0  0  0  0
 27 45  1  0  0  0  0
M  END
$$$$
