
 OpenBabel07202414133D

 44 45  0  0  0  0  0  0  0  0999 V2000
    1.2781   -0.9939    2.2151 C   0  0  0  0  0  0  0  0  0  0  0  0
    2.7889   -1.1392    2.1449 C   0  0  0  0  0  0  0  0  0  0  0  0
    3.2347   -1.8320    0.8563 C   0  0  0  0  0  0  0  0  0  0  0  0
    4.7561   -1.9386    0.7948 C   0  0  0  0  0  0  0  0  0  0  0  0
    5.1474   -2.5787   -0.4278 O   0  0  0  0  0  0  0  0  0  0  0  0
    6.4908   -2.8346   -0.5685 C   0  0  0  0  0  0  0  0  0  0  0  0
    7.4740   -2.3610    0.3141 C   0  0  0  0  0  0  0  0  0  0  0  0
    8.8223   -2.6503    0.1019 C   0  0  0  0  0  0  0  0  0  0  0  0
    9.2040   -3.3937   -1.0067 C   0  0  0  0  0  0  0  0  0  0  0  0
   10.8697   -3.7384   -1.2651 Cl  0  0  0  0  0  0  0  0  0  0  0  0
    8.2441   -3.8662   -1.9010 C   0  0  0  0  0  0  0  0  0  0  0  0
    6.8758   -3.6185   -1.6773 C   0  0  0  0  0  0  0  0  0  0  0  0
    5.8662   -4.2458   -2.6160 C   0  0  0  0  0  0  0  0  0  0  0  0
    5.6183   -3.4729   -3.8986 C   0  0  0  0  0  0  0  0  0  0  0  0
    6.1130   -3.8132   -4.9645 O   0  0  0  0  0  0  0  0  0  0  0  0
    4.7992   -2.3694   -3.7169 N   0  0  0  0  0  0  0  0  0  0  0  0
    4.3715   -1.5276   -4.7660 C   0  0  0  0  0  0  0  0  0  0  0  0
    4.0161   -2.0189   -6.0251 C   0  0  0  0  0  0  0  0  0  0  0  0
    3.5661   -1.2497   -7.0485 N   0  0  0  0  0  0  0  0  0  0  0  0
    3.4991    0.0761   -6.8174 C   0  0  0  0  0  0  0  0  0  0  0  0
    3.8420    0.6653   -5.6096 C   0  0  0  0  0  0  0  0  0  0  0  0
    4.2743   -0.1472   -4.5511 C   0  0  0  0  0  0  0  0  0  0  0  0
    4.7497    0.4856   -3.2750 C   0  0  0  0  0  0  0  0  0  0  0  0
    0.9815   -0.5936    3.1897 H   0  0  0  0  0  0  0  0  0  0  0  0
    0.7812   -1.9595    2.0785 H   0  0  0  0  0  0  0  0  0  0  0  0
    0.9174   -0.3068    1.4431 H   0  0  0  0  0  0  0  0  0  0  0  0
    3.1348   -1.7138    3.0127 H   0  0  0  0  0  0  0  0  0  0  0  0
    3.2474   -0.1450    2.2156 H   0  0  0  0  0  0  0  0  0  0  0  0
    2.8680   -1.2839   -0.0196 H   0  0  0  0  0  0  0  0  0  0  0  0
    2.7976   -2.8361    0.7947 H   0  0  0  0  0  0  0  0  0  0  0  0
    5.1035   -2.5260    1.6550 H   0  0  0  0  0  0  0  0  0  0  0  0
    5.1821   -0.9285    0.8321 H   0  0  0  0  0  0  0  0  0  0  0  0
    7.2283   -1.7729    1.1926 H   0  0  0  0  0  0  0  0  0  0  0  0
    9.5657   -2.2892    0.8080 H   0  0  0  0  0  0  0  0  0  0  0  0
    8.5570   -4.4546   -2.7602 H   0  0  0  0  0  0  0  0  0  0  0  0
    4.9103   -4.4196   -2.1103 H   0  0  0  0  0  0  0  0  0  0  0  0
    6.2208   -5.2443   -2.9036 H   0  0  0  0  0  0  0  0  0  0  0  0
    4.7511   -2.0110   -2.7697 H   0  0  0  0  0  0  0  0  0  0  0  0
    4.0436   -3.0820   -6.2508 H   0  0  0  0  0  0  0  0  0  0  0  0
    3.1624    0.6762   -7.6584 H   0  0  0  0  0  0  0  0  0  0  0  0
    3.7948    1.7455   -5.5092 H   0  0  0  0  0  0  0  0  0  0  0  0
    4.5711    1.5643   -3.2697 H   0  0  0  0  0  0  0  0  0  0  0  0
    5.8282    0.3224   -3.1653 H   0  0  0  0  0  0  0  0  0  0  0  0
    4.2283    0.0596   -2.4134 H   0  0  0  0  0  0  0  0  0  0  0  0
  1  2  1  0  0  0  0
  1 24  1  0  0  0  0
  1 25  1  0  0  0  0
  1 26  1  0  0  0  0
  2  3  1  0  0  0  0
  2 27  1  0  0  0  0
  2 28  1  0  0  0  0
  3  4  1  0  0  0  0
  3 29  1  0  0  0  0
  3 30  1  0  0  0  0
  4  5  1  0  0  0  0
  4 31  1  0  0  0  0
  4 32  1  0  0  0  0
  5  6  1  0  0  0  0
  6  7  1  0  0  0  0
  6 12  2  0  0  0  0
  7  8  2  0  0  0  0
  7 33  1  0  0  0  0
  8  9  1  0  0  0  0
  8 34  1  0  0  0  0
  9 10  1  0  0  0  0
  9 11  2  0  0  0  0
 11 12  1  0  0  0  0
 11 35  1  0  0  0  0
 12 13  1  0  0  0  0
 13 14  1  0  0  0  0
 13 36  1  0  0  0  0
 13 37  1  0  0  0  0
 14 15  2  0  0  0  0
 14 16  1  0  0  0  0
 16 17  1  0  0  0  0
 16 38  1  0  0  0  0
 17 18  1  0  0  0  0
 17 22  2  0  0  0  0
 18 19  2  0  0  0  0
 18 39  1  0  0  0  0
 19 20  1  0  0  0  0
 20 21  2  0  0  0  0
 20 40  1  0  0  0  0
 21 22  1  0  0  0  0
 21 41  1  0  0  0  0
 22 23  1  0  0  0  0
 23 42  1  0  0  0  0
 23 43  1  0  0  0  0
 23 44  1  0  0  0  0
M  END
$$$$
