
 OpenBabel07202414123D

 61 64  0  0  1  0  0  0  0  0999 V2000
    6.4672    6.8998    2.1724 C   0  0  0  0  0  0  0  0  0  0  0  0
    5.1933    6.2546    1.6407 C   0  0  0  0  0  0  0  0  0  0  0  0
    4.3070    7.2866    0.9481 C   0  0  0  0  0  0  0  0  0  0  0  0
    5.4905    5.1362    0.7629 N   0  0  0  0  0  0  0  0  0  0  0  0
    4.6061    4.0732    0.6838 C   0  0  0  0  0  0  0  0  0  0  0  0
    3.5705    4.0253    1.3435 O   0  0  0  0  0  0  0  0  0  0  0  0
    4.9006    3.0080   -0.3637 C   0  0  0  0  0  0  0  0  0  0  0  0
    6.3026    2.7082   -0.6402 N   0  0  0  0  0  0  0  0  0  0  0  0
    7.0225    1.7913    0.2359 C   0  0  0  0  0  0  0  0  0  0  0  0
    7.6621    0.6649   -0.5671 C   0  0  3  0  0  0  0  0  0  0  0  0
    6.6535   -0.4243   -0.9889 C   0  0  0  0  0  0  0  0  0  0  0  0
    6.7595   -1.5565   -0.5237 O   0  0  0  0  0  0  0  0  0  0  0  0
    5.6881   -0.0333   -1.9038 N   0  0  0  0  0  0  0  0  0  0  0  0
    4.7130   -0.8746   -2.5203 C   0  0  0  0  0  0  0  0  0  0  0  0
    4.3928   -2.1442   -2.0284 C   0  0  0  0  0  0  0  0  0  0  0  0
    3.6055   -3.0415   -2.6679 N   0  0  0  0  0  0  0  0  0  0  0  0
    3.0833   -2.6564   -3.8464 C   0  0  0  0  0  0  0  0  0  0  0  0
    3.2215   -1.3794   -4.3881 C   0  0  0  0  0  0  0  0  0  0  0  0
    2.5538   -1.0357   -5.5785 C   0  0  0  0  0  0  0  0  0  0  0  0
    2.6674    0.2565   -6.0947 C   0  0  0  0  0  0  0  0  0  0  0  0
    1.8037    0.6822   -7.5894 S   0  0  0  0  0  0  0  0  0  0  0  0
    0.2443    1.3015   -7.0097 C   0  0  0  0  0  0  0  0  0  0  0  0
    2.5253    1.7793   -8.2089 O   0  0  0  0  0  0  0  0  0  0  0  0
    1.5601   -0.5524   -8.2993 O   0  0  0  0  0  0  0  0  0  0  0  0
    3.4795    1.1942   -5.4651 C   0  0  0  0  0  0  0  0  0  0  0  0
    4.1541    0.8466   -4.2874 C   0  0  0  0  0  0  0  0  0  0  0  0
    4.0452   -0.4463   -3.7071 C   0  0  0  0  0  0  0  0  0  0  0  0
    8.4520    1.2584   -1.7185 C   0  0  0  0  0  0  0  0  0  0  0  0
    9.5205    0.5440   -2.2816 C   0  0  0  0  0  0  0  0  0  0  0  0
   10.2550    1.0982   -3.3308 C   0  0  0  0  0  0  0  0  0  0  0  0
   11.5597    0.2125   -4.0156 Cl  0  0  0  0  0  0  0  0  0  0  0  0
    9.9397    2.3613   -3.8291 C   0  0  0  0  0  0  0  0  0  0  0  0
    8.8815    3.0852   -3.2764 C   0  0  0  0  0  0  0  0  0  0  0  0
    8.1392    2.5412   -2.2228 C   0  0  0  0  0  0  0  0  0  0  0  0
    6.9499    3.2896   -1.7135 C   0  0  0  0  0  0  0  0  0  0  0  0
    6.5291    4.2868   -2.2843 O   0  0  0  0  0  0  0  0  0  0  0  0
    6.2267    7.5920    2.9882 H   0  0  0  0  0  0  0  0  0  0  0  0
    6.9938    7.4636    1.3955 H   0  0  0  0  0  0  0  0  0  0  0  0
    7.1548    6.1449    2.5680 H   0  0  0  0  0  0  0  0  0  0  0  0
    4.6425    5.8627    2.5050 H   0  0  0  0  0  0  0  0  0  0  0  0
    4.7814    7.6743    0.0382 H   0  0  0  0  0  0  0  0  0  0  0  0
    4.0942    8.1315    1.6096 H   0  0  0  0  0  0  0  0  0  0  0  0
    3.3468    6.8432    0.6496 H   0  0  0  0  0  0  0  0  0  0  0  0
    6.0940    5.2838   -0.0476 H   0  0  0  0  0  0  0  0  0  0  0  0
    4.4123    3.3152   -1.2923 H   0  0  0  0  0  0  0  0  0  0  0  0
    4.4307    2.0743   -0.0338 H   0  0  0  0  0  0  0  0  0  0  0  0
    6.3695    1.4234    1.0336 H   0  0  0  0  0  0  0  0  0  0  0  0
    7.8180    2.3850    0.7097 H   0  0  0  0  0  0  0  0  0  0  0  0
    8.3749    0.1640    0.1060 H   0  0  0  0  0  0  0  0  0  0  0  0
    5.8249    0.8710   -2.3271 H   0  0  0  0  0  0  0  0  0  0  0  0
    4.7544   -2.5044   -1.0705 H   0  0  0  0  0  0  0  0  0  0  0  0
    2.5213   -3.4338   -4.3626 H   0  0  0  0  0  0  0  0  0  0  0  0
    1.9419   -1.7717   -6.0948 H   0  0  0  0  0  0  0  0  0  0  0  0
    0.4101    2.2144   -6.4355 H   0  0  0  0  0  0  0  0  0  0  0  0
   -0.2403    0.5398   -6.3964 H   0  0  0  0  0  0  0  0  0  0  0  0
   -0.3770    1.5215   -7.8814 H   0  0  0  0  0  0  0  0  0  0  0  0
    3.6012    2.1948   -5.8776 H   0  0  0  0  0  0  0  0  0  0  0  0
    4.7586    1.6244   -3.8272 H   0  0  0  0  0  0  0  0  0  0  0  0
    9.7833   -0.4423   -1.9009 H   0  0  0  0  0  0  0  0  0  0  0  0
   10.5084    2.7850   -4.6541 H   0  0  0  0  0  0  0  0  0  0  0  0
    8.6308    4.0643   -3.6810 H   0  0  0  0  0  0  0  0  0  0  0  0
  1  2  1  0  0  0  0
  1 37  1  0  0  0  0
  1 38  1  0  0  0  0
  1 39  1  0  0  0  0
  2  3  1  0  0  0  0
  2  4  1  0  0  0  0
  2 40  1  0  0  0  0
  3 41  1  0  0  0  0
  3 42  1  0  0  0  0
  3 43  1  0  0  0  0
  4  5  1  0  0  0  0
  4 44  1  0  0  0  0
  5  6  2  0  0  0  0
  5  7  1  0  0  0  0
  7  8  1  0  0  0  0
  7 45  1  0  0  0  0
  7 46  1  0  0  0  0
  8  9  1  0  0  0  0
  8 35  1  0  0  0  0
  9 10  1  0  0  0  0
  9 47  1  0  0  0  0
  9 48  1  0  0  0  0
 10 11  1  0  0  0  0
 10 28  1  0  0  0  0
 10 49  1  0  0  0  0
 11 12  2  0  0  0  0
 11 13  1  0  0  0  0
 13 14  1  0  0  0  0
 13 50  1  0  0  0  0
 14 15  1  0  0  0  0
 14 27  2  0  0  0  0
 15 16  2  0  0  0  0
 15 51  1  0  0  0  0
 16 17  1  0  0  0  0
 17 18  2  0  0  0  0
 17 52  1  0  0  0  0
 18 19  1  0  0  0  0
 18 27  1  0  0  0  0
 19 20  2  0  0  0  0
 19 53  1  0  0  0  0
 20 21  1  0  0  0  0
 20 25  1  0  0  0  0
 21 22  1  0  0  0  0
 21 23  2  0  0  0  0
 21 24  2  0  0  0  0
 22 54  1  0  0  0  0
 22 55  1  0  0  0  0
 22 56  1  0  0  0  0
 25 26  2  0  0  0  0
 25 57  1  0  0  0  0
 26 27  1  0  0  0  0
 26 58  1  0  0  0  0
 28 29  1  0  0  0  0
 28 34  2  0  0  0  0
 29 30  2  0  0  0  0
 29 59  1  0  0  0  0
 30 31  1  0  0  0  0
 30 32  1  0  0  0  0
 32 33  2  0  0  0  0
 32 60  1  0  0  0  0
 33 34  1  0  0  0  0
 33 61  1  0  0  0  0
 34 35  1  0  0  0  0
 35 36  2  0  0  0  0
M  END
$$$$
