
 OpenBabel07202414123D

 74 77  0  0  1  0  0  0  0  0999 V2000
    4.6606   -8.4262  -10.2750 C   0  0  0  0  0  0  0  0  0  0  0  0
    4.3702   -8.5397   -8.7714 C   0  0  0  0  0  0  0  0  0  0  0  0
    2.8633   -8.6452   -8.4858 C   0  0  0  0  0  0  0  0  0  0  0  0
    5.0341   -9.8355   -8.2689 C   0  0  0  0  0  0  0  0  0  0  0  0
    4.9725   -7.4350   -8.0254 O   0  0  0  0  0  0  0  0  0  0  0  0
    4.5894   -6.1605   -8.3212 C   0  0  0  0  0  0  0  0  0  0  0  0
    3.7981   -5.8504   -9.1930 O   0  0  0  0  0  0  0  0  0  0  0  0
    5.1772   -5.2577   -7.4821 N   0  0  0  0  0  0  0  0  0  0  0  0
    4.8806   -3.8284   -7.5552 C   0  0  3  0  0  0  0  0  0  0  0  0
    3.4000   -3.5775   -7.1723 C   0  0  0  0  0  0  0  0  0  0  0  0
    2.9456   -2.1321   -7.3220 C   0  0  0  0  0  0  0  0  0  0  0  0
    1.5543   -2.0332   -7.0320 O   0  0  0  0  0  0  0  0  0  0  0  0
    5.8521   -2.9865   -6.6790 C   0  0  0  0  0  0  0  0  0  0  0  0
    7.2686   -3.1654   -7.0557 N   0  0  0  0  0  0  0  0  0  0  0  0
    8.1342   -2.2203   -6.3117 C   0  0  0  0  0  0  0  0  0  0  0  0
    9.6648   -2.3198   -6.6716 C   0  0  3  0  0  0  0  0  0  0  0  0
    9.8735   -1.8507   -8.1471 C   0  0  0  0  0  0  0  0  0  0  0  0
    8.9259   -1.4465   -8.8203 O   0  0  0  0  0  0  0  0  0  0  0  0
   11.1795   -1.9256   -8.6151 N   0  0  0  0  0  0  0  0  0  0  0  0
   11.6267   -1.7717   -9.9643 C   0  0  0  0  0  0  0  0  0  0  0  0
   10.7704   -1.4565  -11.0186 C   0  0  0  0  0  0  0  0  0  0  0  0
   11.1148   -1.4842  -12.3290 N   0  0  0  0  0  0  0  0  0  0  0  0
   12.3963   -1.7859  -12.6103 C   0  0  0  0  0  0  0  0  0  0  0  0
   13.3846   -1.9874  -11.6507 C   0  0  0  0  0  0  0  0  0  0  0  0
   14.7268   -2.1665  -12.0317 C   0  0  0  0  0  0  0  0  0  0  0  0
   15.7192   -2.3456  -11.0731 C   0  0  0  0  0  0  0  0  0  0  0  0
   15.3741   -2.3762   -9.7288 C   0  0  0  0  0  0  0  0  0  0  0  0
   14.0376   -2.2093   -9.3400 C   0  0  0  0  0  0  0  0  0  0  0  0
   13.0021   -1.9923  -10.2852 C   0  0  0  0  0  0  0  0  0  0  0  0
   10.1653   -3.7740   -6.5093 C   0  0  0  0  0  0  0  0  0  0  0  0
   10.1877   -4.1593   -5.0403 C   0  0  0  0  0  0  0  0  0  0  0  0
   11.1004   -3.3504   -4.2986 O   0  0  0  0  0  0  0  0  0  0  0  0
   11.0442   -2.0075   -4.5495 C   0  0  0  0  0  0  0  0  0  0  0  0
   11.6877   -1.2064   -3.6005 C   0  0  0  0  0  0  0  0  0  0  0  0
   11.7133    0.1787   -3.7479 C   0  0  0  0  0  0  0  0  0  0  0  0
   11.1015    0.7586   -4.8543 C   0  0  0  0  0  0  0  0  0  0  0  0
   11.1257    2.4688   -5.0398 Cl  0  0  0  0  0  0  0  0  0  0  0  0
   10.4609   -0.0352   -5.8111 C   0  0  0  0  0  0  0  0  0  0  0  0
   10.4242   -1.4365   -5.6727 C   0  0  0  0  0  0  0  0  0  0  0  0
    4.2746   -9.2935  -10.8212 H   0  0  0  0  0  0  0  0  0  0  0  0
    5.7392   -8.3534  -10.4534 H   0  0  0  0  0  0  0  0  0  0  0  0
    4.2097   -7.5397  -10.7269 H   0  0  0  0  0  0  0  0  0  0  0  0
    2.4038   -9.4506   -9.0698 H   0  0  0  0  0  0  0  0  0  0  0  0
    2.3263   -7.7217   -8.7173 H   0  0  0  0  0  0  0  0  0  0  0  0
    2.6814   -8.8486   -7.4239 H   0  0  0  0  0  0  0  0  0  0  0  0
    4.6246  -10.7166   -8.7782 H   0  0  0  0  0  0  0  0  0  0  0  0
    4.8882   -9.9663   -7.1910 H   0  0  0  0  0  0  0  0  0  0  0  0
    6.1161   -9.8153   -8.4397 H   0  0  0  0  0  0  0  0  0  0  0  0
    5.8984   -5.5922   -6.8561 H   0  0  0  0  0  0  0  0  0  0  0  0
    5.0156   -3.5417   -8.6059 H   0  0  0  0  0  0  0  0  0  0  0  0
    3.2098   -3.9206   -6.1470 H   0  0  0  0  0  0  0  0  0  0  0  0
    2.7367   -4.1929   -7.7932 H   0  0  0  0  0  0  0  0  0  0  0  0
    3.1127   -1.7589   -8.3373 H   0  0  0  0  0  0  0  0  0  0  0  0
    3.4619   -1.4761   -6.6186 H   0  0  0  0  0  0  0  0  0  0  0  0
    1.0736   -2.4792   -7.7518 H   0  0  0  0  0  0  0  0  0  0  0  0
    5.7250   -3.2654   -5.6260 H   0  0  0  0  0  0  0  0  0  0  0  0
    5.5967   -1.9267   -6.7835 H   0  0  0  0  0  0  0  0  0  0  0  0
    7.3577   -2.9284   -8.0534 H   0  0  0  0  0  0  0  0  0  0  0  0
    7.9941   -2.4007   -5.2382 H   0  0  0  0  0  0  0  0  0  0  0  0
    7.7881   -1.1925   -6.4904 H   0  0  0  0  0  0  0  0  0  0  0  0
   11.8781   -2.2140   -7.9462 H   0  0  0  0  0  0  0  0  0  0  0  0
    9.7383   -1.1620  -10.8674 H   0  0  0  0  0  0  0  0  0  0  0  0
   12.6167   -1.8556  -13.6733 H   0  0  0  0  0  0  0  0  0  0  0  0
   15.0136   -2.1356  -13.0821 H   0  0  0  0  0  0  0  0  0  0  0  0
   16.7595   -2.4477  -11.3737 H   0  0  0  0  0  0  0  0  0  0  0  0
   16.1433   -2.5184   -8.9758 H   0  0  0  0  0  0  0  0  0  0  0  0
   13.8394   -2.2182   -8.2742 H   0  0  0  0  0  0  0  0  0  0  0  0
   11.1874   -3.8801   -6.8932 H   0  0  0  0  0  0  0  0  0  0  0  0
    9.5502   -4.4769   -7.0813 H   0  0  0  0  0  0  0  0  0  0  0  0
   10.5299   -5.1951   -4.9415 H   0  0  0  0  0  0  0  0  0  0  0  0
    9.2006   -4.1129   -4.5680 H   0  0  0  0  0  0  0  0  0  0  0  0
   12.1582   -1.6658   -2.7339 H   0  0  0  0  0  0  0  0  0  0  0  0
   12.1997    0.7940   -2.9957 H   0  0  0  0  0  0  0  0  0  0  0  0
    9.9821    0.4521   -6.6590 H   0  0  0  0  0  0  0  0  0  0  0  0
  1  2  1  0  0  0  0
  1 40  1  0  0  0  0
  1 41  1  0  0  0  0
  1 42  1  0  0  0  0
  2  3  1  0  0  0  0
  2  4  1  0  0  0  0
  2  5  1  0  0  0  0
  3 43  1  0  0  0  0
  3 44  1  0  0  0  0
  3 45  1  0  0  0  0
  4 46  1  0  0  0  0
  4 47  1  0  0  0  0
  4 48  1  0  0  0  0
  5  6  1  0  0  0  0
  6  7  2  0  0  0  0
  6  8  1  0  0  0  0
  8  9  1  0  0  0  0
  8 49  1  0  0  0  0
  9 10  1  0  0  0  0
  9 13  1  0  0  0  0
  9 50  1  0  0  0  0
 10 11  1  0  0  0  0
 10 51  1  0  0  0  0
 10 52  1  0  0  0  0
 11 12  1  0  0  0  0
 11 53  1  0  0  0  0
 11 54  1  0  0  0  0
 12 55  1  0  0  0  0
 13 14  1  0  0  0  0
 13 56  1  0  0  0  0
 13 57  1  0  0  0  0
 14 15  1  0  0  0  0
 14 58  1  0  0  0  0
 15 16  1  0  0  0  0
 15 59  1  0  0  0  0
 15 60  1  0  0  0  0
 16 17  1  0  0  0  0
 16 30  1  0  0  0  0
 16 39  1  0  0  0  0
 17 18  2  0  0  0  0
 17 19  1  0  0  0  0
 19 20  1  0  0  0  0
 19 61  1  0  0  0  0
 20 21  1  0  0  0  0
 20 29  2  0  0  0  0
 21 22  2  0  0  0  0
 21 62  1  0  0  0  0
 22 23  1  0  0  0  0
 23 24  2  0  0  0  0
 23 63  1  0  0  0  0
 24 25  1  0  0  0  0
 24 29  1  0  0  0  0
 25 26  2  0  0  0  0
 25 64  1  0  0  0  0
 26 27  1  0  0  0  0
 26 65  1  0  0  0  0
 27 28  2  0  0  0  0
 27 66  1  0  0  0  0
 28 29  1  0  0  0  0
 28 67  1  0  0  0  0
 30 31  1  0  0  0  0
 30 68  1  0  0  0  0
 30 69  1  0  0  0  0
 31 32  1  0  0  0  0
 31 70  1  0  0  0  0
 31 71  1  0  0  0  0
 32 33  1  0  0  0  0
 33 34  1  0  0  0  0
 33 39  2  0  0  0  0
 34 35  2  0  0  0  0
 34 72  1  0  0  0  0
 35 36  1  0  0  0  0
 35 73  1  0  0  0  0
 36 37  1  0  0  0  0
 36 38  2  0  0  0  0
 38 39  1  0  0  0  0
 38 74  1  0  0  0  0
M  END
$$$$
