
 OpenBabel07202414133D

 45 47  0  0  0  0  0  0  0  0999 V2000
    0.8276    0.4222    2.0867 C   0  0  0  0  0  0  0  0  0  0  0  0
    2.1347   -0.3275    2.2573 C   0  0  0  0  0  0  0  0  0  0  0  0
    3.5073    0.6187    1.6136 S   0  0  0  0  0  0  0  0  0  0  0  0
    3.2740    0.8391    0.1910 O   0  0  0  0  0  0  0  0  0  0  0  0
    3.7790    1.7265    2.4931 O   0  0  0  0  0  0  0  0  0  0  0  0
    4.7859   -0.5094    1.7347 N   0  0  0  0  0  0  0  0  0  0  0  0
    5.5483   -0.4961    2.9540 C   0  0  0  0  0  0  0  0  0  0  0  0
    5.1664   -1.2361    4.0681 C   0  0  0  0  0  0  0  0  0  0  0  0
    5.9414   -1.1636    5.2267 C   0  0  0  0  0  0  0  0  0  0  0  0
    7.0622   -0.3023    5.3066 C   0  0  0  0  0  0  0  0  0  0  0  0
    7.8270   -0.2289    6.4663 C   0  0  0  0  0  0  0  0  0  0  0  0
    8.9118    0.5641    6.6210 N   0  0  0  0  0  0  0  0  0  0  0  0
    9.2277    1.3474    5.5712 C   0  0  0  0  0  0  0  0  0  0  0  0
    8.5583    1.3783    4.3529 C   0  0  0  0  0  0  0  0  0  0  0  0
    8.9970    2.2710    3.3216 N   0  0  0  0  0  0  0  0  0  0  0  0
   10.2651    2.8630    3.3060 C   0  0  0  0  0  0  0  0  0  0  0  0
   11.1736    2.6476    4.0870 O   0  0  0  0  0  0  0  0  0  0  0  0
   10.4925    3.7938    2.1181 C   0  0  0  0  0  0  0  0  0  0  0  0
   11.0410    3.0591    0.9099 C   0  0  0  0  0  0  0  0  0  0  0  0
   12.2499    2.3486    0.9847 C   0  0  0  0  0  0  0  0  0  0  0  0
   12.8077    1.7678   -0.1576 C   0  0  0  0  0  0  0  0  0  0  0  0
   12.1742    1.9024   -1.3911 C   0  0  0  0  0  0  0  0  0  0  0  0
   10.9706    2.5989   -1.4712 C   0  0  0  0  0  0  0  0  0  0  0  0
   10.2202    2.8290   -3.0036 Cl  0  0  0  0  0  0  0  0  0  0  0  0
   10.3925    3.1574   -0.3297 C   0  0  0  0  0  0  0  0  0  0  0  0
    7.4396    0.4990    4.1964 C   0  0  0  0  0  0  0  0  0  0  0  0
    6.6823    0.3290    3.0158 C   0  0  0  0  0  0  0  0  0  0  0  0
   -0.0048   -0.1596    2.4922 H   0  0  0  0  0  0  0  0  0  0  0  0
    0.6235    0.6215    1.0300 H   0  0  0  0  0  0  0  0  0  0  0  0
    0.8569    1.3854    2.6065 H   0  0  0  0  0  0  0  0  0  0  0  0
    2.1050   -1.2800    1.7215 H   0  0  0  0  0  0  0  0  0  0  0  0
    2.3309   -0.5085    3.3173 H   0  0  0  0  0  0  0  0  0  0  0  0
    5.3791   -0.3930    0.9130 H   0  0  0  0  0  0  0  0  0  0  0  0
    4.3102   -1.9059    4.0437 H   0  0  0  0  0  0  0  0  0  0  0  0
    5.6651   -1.7775    6.0857 H   0  0  0  0  0  0  0  0  0  0  0  0
    7.5998   -0.8192    7.3443 H   0  0  0  0  0  0  0  0  0  0  0  0
   10.0829    1.9822    5.7702 H   0  0  0  0  0  0  0  0  0  0  0  0
    8.4771    2.2969    2.4646 H   0  0  0  0  0  0  0  0  0  0  0  0
   11.1985    4.5835    2.4018 H   0  0  0  0  0  0  0  0  0  0  0  0
    9.5527    4.2887    1.8821 H   0  0  0  0  0  0  0  0  0  0  0  0
   12.7837    2.2627    1.9311 H   0  0  0  0  0  0  0  0  0  0  0  0
   13.7556    1.2384   -0.0891 H   0  0  0  0  0  0  0  0  0  0  0  0
   12.6316    1.4815   -2.2822 H   0  0  0  0  0  0  0  0  0  0  0  0
    9.4561    3.7022   -0.4185 H   0  0  0  0  0  0  0  0  0  0  0  0
    6.9909    0.8177    2.0973 H   0  0  0  0  0  0  0  0  0  0  0  0
  1  2  1  0  0  0  0
  1 28  1  0  0  0  0
  1 29  1  0  0  0  0
  1 30  1  0  0  0  0
  2  3  1  0  0  0  0
  2 31  1  0  0  0  0
  2 32  1  0  0  0  0
  3  4  2  0  0  0  0
  3  5  2  0  0  0  0
  3  6  1  0  0  0  0
  6  7  1  0  0  0  0
  6 33  1  0  0  0  0
  7  8  1  0  0  0  0
  7 27  2  0  0  0  0
  8  9  2  0  0  0  0
  8 34  1  0  0  0  0
  9 10  1  0  0  0  0
  9 35  1  0  0  0  0
 10 11  1  0  0  0  0
 10 26  2  0  0  0  0
 11 12  2  0  0  0  0
 11 36  1  0  0  0  0
 12 13  1  0  0  0  0
 13 14  2  0  0  0  0
 13 37  1  0  0  0  0
 14 15  1  0  0  0  0
 14 26  1  0  0  0  0
 15 16  1  0  0  0  0
 15 38  1  0  0  0  0
 16 17  2  0  0  0  0
 16 18  1  0  0  0  0
 18 19  1  0  0  0  0
 18 39  1  0  0  0  0
 18 40  1  0  0  0  0
 19 20  1  0  0  0  0
 19 25  2  0  0  0  0
 20 21  2  0  0  0  0
 20 41  1  0  0  0  0
 21 22  1  0  0  0  0
 21 42  1  0  0  0  0
 22 23  2  0  0  0  0
 22 43  1  0  0  0  0
 23 24  1  0  0  0  0
 23 25  1  0  0  0  0
 25 44  1  0  0  0  0
 26 27  1  0  0  0  0
 27 45  1  0  0  0  0
M  END
$$$$
