
 OpenBabel07202414153D

 47 50  0  0  1  0  0  0  0  0999 V2000
    0.9771    0.0190    0.1325 C   0  0  0  0  0  0  0  0  0  0  0  0
    2.5303    0.0544    0.0944 C   0  0  2  0  0  0  0  0  0  0  0  0
    2.9456    0.7196   -1.2416 C   0  0  0  0  0  0  0  0  0  0  0  0
    2.0750    1.0657   -2.0416 O   0  0  0  0  0  0  0  0  0  0  0  0
    4.3052    0.8710   -1.4748 N   0  0  0  0  0  0  0  0  0  0  0  0
    4.8340    1.5054   -2.6355 C   0  0  0  0  0  0  0  0  0  0  0  0
    4.0694    2.4018   -3.3965 C   0  0  0  0  0  0  0  0  0  0  0  0
    4.4697    2.9969   -4.5430 N   0  0  0  0  0  0  0  0  0  0  0  0
    5.7020    2.6905   -4.9687 C   0  0  0  0  0  0  0  0  0  0  0  0
    6.5819    1.8600   -4.2782 C   0  0  0  0  0  0  0  0  0  0  0  0
    6.1468    1.2497   -3.0773 C   0  0  0  0  0  0  0  0  0  0  0  0
    7.1059    0.3662   -2.3073 C   0  0  0  0  0  0  0  0  0  0  0  0
    8.2729   -0.1525   -3.1519 C   0  0  0  0  0  0  0  0  0  0  0  0
    8.9227    0.9899   -3.9186 C   0  0  0  0  0  0  0  0  0  0  0  0
    7.9226    1.5796   -4.9025 C   0  0  0  0  0  0  0  0  0  0  0  0
    3.0410   -1.4033    0.0643 C   0  0  0  0  0  0  0  0  0  0  0  0
    2.7443   -2.0688    1.3500 N   0  0  0  0  0  0  0  0  0  0  0  0
    3.6818   -1.4933    2.6342 S   0  0  0  0  0  0  0  0  0  0  0  0
    3.0520   -1.9399    3.8545 O   0  0  0  0  0  0  0  0  0  0  0  0
    5.0534   -1.7942    2.3058 O   0  0  0  0  0  0  0  0  0  0  0  0
    3.4956    0.2634    2.4887 C   0  0  0  0  0  0  0  0  0  0  0  0
    3.8775    1.0323    3.5979 C   0  0  0  0  0  0  0  0  0  0  0  0
    3.7810    2.4217    3.5486 C   0  0  0  0  0  0  0  0  0  0  0  0
    3.2896    3.0355    2.4014 C   0  0  0  0  0  0  0  0  0  0  0  0
    3.1651    4.7497    2.3362 Cl  0  0  0  0  0  0  0  0  0  0  0  0
    2.8955    2.2710    1.2999 C   0  0  0  0  0  0  0  0  0  0  0  0
    3.0064    0.8629    1.3101 C   0  0  0  0  0  0  0  0  0  0  0  0
    0.5773   -0.5442   -0.7209 H   0  0  0  0  0  0  0  0  0  0  0  0
    0.5488    1.0275    0.0740 H   0  0  0  0  0  0  0  0  0  0  0  0
    0.5939   -0.4456    1.0466 H   0  0  0  0  0  0  0  0  0  0  0  0
    4.9670    0.4075   -0.8636 H   0  0  0  0  0  0  0  0  0  0  0  0
    3.0760    2.7171   -3.0951 H   0  0  0  0  0  0  0  0  0  0  0  0
    5.9764    3.1445   -5.9174 H   0  0  0  0  0  0  0  0  0  0  0  0
    6.5850   -0.5045   -1.8955 H   0  0  0  0  0  0  0  0  0  0  0  0
    7.5036    0.9486   -1.4659 H   0  0  0  0  0  0  0  0  0  0  0  0
    7.9095   -0.9094   -3.8594 H   0  0  0  0  0  0  0  0  0  0  0  0
    9.0109   -0.6428   -2.5079 H   0  0  0  0  0  0  0  0  0  0  0  0
    9.8057    0.6346   -4.4610 H   0  0  0  0  0  0  0  0  0  0  0  0
    9.2614    1.7634   -3.2181 H   0  0  0  0  0  0  0  0  0  0  0  0
    7.7671    0.8748   -5.7296 H   0  0  0  0  0  0  0  0  0  0  0  0
    8.3396    2.5000   -5.3285 H   0  0  0  0  0  0  0  0  0  0  0  0
    4.1168   -1.4750   -0.1392 H   0  0  0  0  0  0  0  0  0  0  0  0
    2.5531   -1.9678   -0.7376 H   0  0  0  0  0  0  0  0  0  0  0  0
    2.8127   -3.0883    1.3146 H   0  0  0  0  0  0  0  0  0  0  0  0
    4.2537    0.5516    4.5004 H   0  0  0  0  0  0  0  0  0  0  0  0
    4.0842    3.0176    4.4064 H   0  0  0  0  0  0  0  0  0  0  0  0
    2.4887    2.7873    0.4299 H   0  0  0  0  0  0  0  0  0  0  0  0
  1  2  1  0  0  0  0
  1 28  1  0  0  0  0
  1 29  1  0  0  0  0
  1 30  1  0  0  0  0
  2  3  1  6  0  0  0
  2 16  1  0  0  0  0
  2 27  1  0  0  0  0
  3  4  2  0  0  0  0
  3  5  1  0  0  0  0
  5  6  1  0  0  0  0
  5 31  1  0  0  0  0
  6  7  1  0  0  0  0
  6 11  2  0  0  0  0
  7  8  2  0  0  0  0
  7 32  1  0  0  0  0
  8  9  1  0  0  0  0
  9 10  2  0  0  0  0
  9 33  1  0  0  0  0
 10 11  1  0  0  0  0
 10 15  1  0  0  0  0
 11 12  1  0  0  0  0
 12 13  1  0  0  0  0
 12 34  1  0  0  0  0
 12 35  1  0  0  0  0
 13 14  1  0  0  0  0
 13 36  1  0  0  0  0
 13 37  1  0  0  0  0
 14 15  1  0  0  0  0
 14 38  1  0  0  0  0
 14 39  1  0  0  0  0
 15 40  1  0  0  0  0
 15 41  1  0  0  0  0
 16 17  1  0  0  0  0
 16 42  1  0  0  0  0
 16 43  1  0  0  0  0
 17 18  1  0  0  0  0
 17 44  1  0  0  0  0
 18 19  2  0  0  0  0
 18 20  2  0  0  0  0
 18 21  1  0  0  0  0
 21 22  1  0  0  0  0
 21 27  2  0  0  0  0
 22 23  2  0  0  0  0
 22 45  1  0  0  0  0
 23 24  1  0  0  0  0
 23 46  1  0  0  0  0
 24 25  1  0  0  0  0
 24 26  2  0  0  0  0
 26 27  1  0  0  0  0
 26 47  1  0  0  0  0
M  END
$$$$
