
 OpenBabel07202414193D

 49 51  0  0  0  0  0  0  0  0999 V2000
    1.0426   -0.3947    0.4721 O   0  0  0  0  0  0  0  0  0  0  0  0
    2.2379   -0.1911    0.2260 C   0  0  0  0  0  0  0  0  0  0  0  0
    2.8843   -1.0179   -0.8803 C   0  0  0  0  0  0  0  0  0  0  0  0
    2.8898   -0.3815   -2.2575 C   0  0  0  0  0  0  0  0  0  0  0  0
    2.2067    0.8117   -2.4983 C   0  0  0  0  0  0  0  0  0  0  0  0
    2.2316    1.4922   -3.6611 N   0  0  0  0  0  0  0  0  0  0  0  0
    2.9590    0.9485   -4.6578 C   0  0  0  0  0  0  0  0  0  0  0  0
    3.6667   -0.2476   -4.5613 C   0  0  0  0  0  0  0  0  0  0  0  0
    4.4074   -0.7425   -5.6511 C   0  0  0  0  0  0  0  0  0  0  0  0
    5.1232   -1.9313   -5.5389 C   0  0  0  0  0  0  0  0  0  0  0  0
    5.1099   -2.6338   -4.3415 C   0  0  0  0  0  0  0  0  0  0  0  0
    4.3749   -2.1479   -3.2533 C   0  0  0  0  0  0  0  0  0  0  0  0
    3.6396   -0.9400   -3.3336 C   0  0  0  0  0  0  0  0  0  0  0  0
    2.9551    0.8200    0.8948 N   0  0  0  0  0  0  0  0  0  0  0  0
    2.1767    1.5527    1.9283 C   0  0  0  0  0  0  0  0  0  0  0  0
    2.5484    3.0178    2.1519 C   0  0  0  0  0  0  0  0  0  0  0  0
    1.6374    3.6827    3.1662 C   0  0  0  0  0  0  0  0  0  0  0  0
    0.6374    2.8847    3.5882 F   0  0  0  0  0  0  0  0  0  0  0  0
    2.3448    4.0542    4.2602 F   0  0  0  0  0  0  0  0  0  0  0  0
    1.0831    4.8033    2.6529 F   0  0  0  0  0  0  0  0  0  0  0  0
    4.4395    0.9119    0.9523 C   0  0  0  0  0  0  0  0  0  0  0  0
    5.1059    1.2538   -0.3893 C   0  0  0  0  0  0  0  0  0  0  0  0
    6.6229    1.3591   -0.2854 C   0  0  0  0  0  0  0  0  0  0  0  0
    7.2143    0.1146    0.3691 C   0  0  0  0  0  0  0  0  0  0  0  0
    6.6077   -0.1275    1.7478 C   0  0  0  0  0  0  0  0  0  0  0  0
    5.0884   -0.2772    1.6793 C   0  0  0  0  0  0  0  0  0  0  0  0
    2.3252   -1.9612   -0.9406 H   0  0  0  0  0  0  0  0  0  0  0  0
    3.8959   -1.2977   -0.5897 H   0  0  0  0  0  0  0  0  0  0  0  0
    1.6119    1.3026   -1.7286 H   0  0  0  0  0  0  0  0  0  0  0  0
    2.9564    1.5300   -5.5763 H   0  0  0  0  0  0  0  0  0  0  0  0
    4.4297   -0.1994   -6.5930 H   0  0  0  0  0  0  0  0  0  0  0  0
    5.6926   -2.3060   -6.3861 H   0  0  0  0  0  0  0  0  0  0  0  0
    5.6681   -3.5611   -4.2488 H   0  0  0  0  0  0  0  0  0  0  0  0
    4.3889   -2.7341   -2.3366 H   0  0  0  0  0  0  0  0  0  0  0  0
    2.2683    0.9832    2.8605 H   0  0  0  0  0  0  0  0  0  0  0  0
    1.1174    1.5336    1.6439 H   0  0  0  0  0  0  0  0  0  0  0  0
    2.5092    3.5600    1.2004 H   0  0  0  0  0  0  0  0  0  0  0  0
    3.5722    3.1143    2.5238 H   0  0  0  0  0  0  0  0  0  0  0  0
    4.6737    1.7727    1.5821 H   0  0  0  0  0  0  0  0  0  0  0  0
    4.6912    2.1898   -0.7850 H   0  0  0  0  0  0  0  0  0  0  0  0
    4.9190    0.4913   -1.1370 H   0  0  0  0  0  0  0  0  0  0  0  0
    6.8954    2.2523    0.2882 H   0  0  0  0  0  0  0  0  0  0  0  0
    7.0457    1.4807   -1.2902 H   0  0  0  0  0  0  0  0  0  0  0  0
    8.2994    0.2285    0.4570 H   0  0  0  0  0  0  0  0  0  0  0  0
    7.0334   -0.7588   -0.2694 H   0  0  0  0  0  0  0  0  0  0  0  0
    6.8615    0.7108    2.4085 H   0  0  0  0  0  0  0  0  0  0  0  0
    7.0454   -1.0280    2.1921 H   0  0  0  0  0  0  0  0  0  0  0  0
    4.6860   -0.3500    2.6975 H   0  0  0  0  0  0  0  0  0  0  0  0
    4.8507   -1.2287    1.1980 H   0  0  0  0  0  0  0  0  0  0  0  0
  1  2  2  0  0  0  0
  2  3  1  0  0  0  0
  2 14  1  0  0  0  0
  3  4  1  0  0  0  0
  3 27  1  0  0  0  0
  3 28  1  0  0  0  0
  4  5  1  0  0  0  0
  4 13  2  0  0  0  0
  5  6  2  0  0  0  0
  5 29  1  0  0  0  0
  6  7  1  0  0  0  0
  7  8  2  0  0  0  0
  7 30  1  0  0  0  0
  8  9  1  0  0  0  0
  8 13  1  0  0  0  0
  9 10  2  0  0  0  0
  9 31  1  0  0  0  0
 10 11  1  0  0  0  0
 10 32  1  0  0  0  0
 11 12  2  0  0  0  0
 11 33  1  0  0  0  0
 12 13  1  0  0  0  0
 12 34  1  0  0  0  0
 14 15  1  0  0  0  0
 14 21  1  0  0  0  0
 15 16  1  0  0  0  0
 15 35  1  0  0  0  0
 15 36  1  0  0  0  0
 16 17  1  0  0  0  0
 16 37  1  0  0  0  0
 16 38  1  0  0  0  0
 17 18  1  0  0  0  0
 17 19  1  0  0  0  0
 17 20  1  0  0  0  0
 21 22  1  0  0  0  0
 21 26  1  0  0  0  0
 21 39  1  0  0  0  0
 22 23  1  0  0  0  0
 22 40  1  0  0  0  0
 22 41  1  0  0  0  0
 23 24  1  0  0  0  0
 23 42  1  0  0  0  0
 23 43  1  0  0  0  0
 24 25  1  0  0  0  0
 24 44  1  0  0  0  0
 24 45  1  0  0  0  0
 25 26  1  0  0  0  0
 25 46  1  0  0  0  0
 25 47  1  0  0  0  0
 26 48  1  0  0  0  0
 26 49  1  0  0  0  0
M  END
$$$$
