
 OpenBabel07202414193D

 45 48  0  0  1  0  0  0  0  0999 V2000
    1.8075   -0.3184    1.4932 O   0  0  0  0  0  0  0  0  0  0  0  0
    2.4342   -0.0265    0.4649 C   0  0  0  0  0  0  0  0  0  0  0  0
    2.6860   -1.1393   -0.5540 C   0  0  0  0  0  0  0  0  0  0  0  0
    1.5754   -1.3219   -1.5644 C   0  0  0  0  0  0  0  0  0  0  0  0
    0.2982   -1.6416   -1.0956 C   0  0  0  0  0  0  0  0  0  0  0  0
   -0.7919   -1.8127   -1.8739 N   0  0  0  0  0  0  0  0  0  0  0  0
   -0.6170   -1.6281   -3.1989 C   0  0  0  0  0  0  0  0  0  0  0  0
    0.5977   -1.3116   -3.7980 C   0  0  0  0  0  0  0  0  0  0  0  0
    0.6928   -1.0985   -5.1885 C   0  0  0  0  0  0  0  0  0  0  0  0
    1.9124   -0.7932   -5.7784 C   0  0  0  0  0  0  0  0  0  0  0  0
    3.0598   -0.7490   -4.9997 C   0  0  0  0  0  0  0  0  0  0  0  0
    2.9761   -0.9653   -3.6182 C   0  0  0  0  0  0  0  0  0  0  0  0
    1.7393   -1.1921   -2.9717 C   0  0  0  0  0  0  0  0  0  0  0  0
    2.9041    1.2769    0.2514 N   0  0  0  0  0  0  0  0  0  0  0  0
    2.7090    2.2324    1.3491 C   0  0  0  0  0  0  0  0  0  0  0  0
    3.8801    2.2334    2.3296 C   0  0  0  0  0  0  0  0  0  0  0  0
    4.9160    3.3222    2.0805 C   0  0  0  0  0  0  0  0  0  0  0  0
    5.6948    3.4698    0.4428 S   0  0  0  0  0  0  0  0  0  0  0  0
    5.2717    1.8830   -0.3690 C   0  0  0  0  0  0  0  0  0  0  0  0
    3.8097    1.6799   -0.8411 C   0  0  2  0  0  0  0  0  0  0  0  0
    3.2732    2.8480   -1.6549 C   0  0  0  0  0  0  0  0  0  0  0  0
    1.8957    2.8758   -2.2717 C   0  0  0  0  0  0  0  0  0  0  0  0
    3.0972    2.6815   -3.1486 C   0  0  0  0  0  0  0  0  0  0  0  0
    2.7559   -2.0760    0.0180 H   0  0  0  0  0  0  0  0  0  0  0  0
    3.6805   -1.0494   -0.9905 H   0  0  0  0  0  0  0  0  0  0  0  0
    0.1069   -1.7813   -0.0324 H   0  0  0  0  0  0  0  0  0  0  0  0
   -1.5214   -1.7524   -3.7889 H   0  0  0  0  0  0  0  0  0  0  0  0
   -0.1948   -1.1581   -5.8144 H   0  0  0  0  0  0  0  0  0  0  0  0
    1.9705   -0.5980   -6.8463 H   0  0  0  0  0  0  0  0  0  0  0  0
    4.0210   -0.5283   -5.4564 H   0  0  0  0  0  0  0  0  0  0  0  0
    3.9054   -0.9256   -3.0611 H   0  0  0  0  0  0  0  0  0  0  0  0
    1.8099    1.9470    1.9042 H   0  0  0  0  0  0  0  0  0  0  0  0
    2.5015    3.2290    0.9420 H   0  0  0  0  0  0  0  0  0  0  0  0
    4.3682    1.2524    2.3733 H   0  0  0  0  0  0  0  0  0  0  0  0
    3.4808    2.4119    3.3377 H   0  0  0  0  0  0  0  0  0  0  0  0
    5.7296    3.2070    2.8033 H   0  0  0  0  0  0  0  0  0  0  0  0
    4.4620    4.2990    2.2921 H   0  0  0  0  0  0  0  0  0  0  0  0
    5.5993    1.0583    0.2729 H   0  0  0  0  0  0  0  0  0  0  0  0
    5.9120    1.8568   -1.2588 H   0  0  0  0  0  0  0  0  0  0  0  0
    3.8621    0.8415   -1.5325 H   0  0  0  0  0  0  0  0  0  0  0  0
    3.6427    3.8101   -1.3169 H   0  0  0  0  0  0  0  0  0  0  0  0
    1.3892    3.8321   -2.3412 H   0  0  0  0  0  0  0  0  0  0  0  0
    1.2267    2.0355   -2.1161 H   0  0  0  0  0  0  0  0  0  0  0  0
    3.4042    3.4941   -3.7922 H   0  0  0  0  0  0  0  0  0  0  0  0
    3.2208    1.7112   -3.6011 H   0  0  0  0  0  0  0  0  0  0  0  0
  1  2  2  0  0  0  0
  2  3  1  0  0  0  0
  2 14  1  0  0  0  0
  3  4  1  0  0  0  0
  3 24  1  0  0  0  0
  3 25  1  0  0  0  0
  4  5  1  0  0  0  0
  4 13  2  0  0  0  0
  5  6  2  0  0  0  0
  5 26  1  0  0  0  0
  6  7  1  0  0  0  0
  7  8  2  0  0  0  0
  7 27  1  0  0  0  0
  8  9  1  0  0  0  0
  8 13  1  0  0  0  0
  9 10  2  0  0  0  0
  9 28  1  0  0  0  0
 10 11  1  0  0  0  0
 10 29  1  0  0  0  0
 11 12  2  0  0  0  0
 11 30  1  0  0  0  0
 12 13  1  0  0  0  0
 12 31  1  0  0  0  0
 14 15  1  0  0  0  0
 14 20  1  0  0  0  0
 15 16  1  0  0  0  0
 15 32  1  0  0  0  0
 15 33  1  0  0  0  0
 16 17  1  0  0  0  0
 16 34  1  0  0  0  0
 16 35  1  0  0  0  0
 17 18  1  0  0  0  0
 17 36  1  0  0  0  0
 17 37  1  0  0  0  0
 18 19  1  0  0  0  0
 19 20  1  0  0  0  0
 19 38  1  0  0  0  0
 19 39  1  0  0  0  0
 20 21  1  0  0  0  0
 20 40  1  6  0  0  0
 21 22  1  0  0  0  0
 21 23  1  0  0  0  0
 21 41  1  0  0  0  0
 22 23  1  0  0  0  0
 22 42  1  0  0  0  0
 22 43  1  0  0  0  0
 23 44  1  0  0  0  0
 23 45  1  0  0  0  0
M  END
$$$$
