
 OpenBabel07202414123D

 64 65  0  0  1  0  0  0  0  0999 V2000
    7.3546   -0.7217    0.0974 C   0  0  0  0  0  0  0  0  0  0  0  0
    6.4862   -1.7440   -0.6406 C   0  0  0  0  0  0  0  0  0  0  0  0
    6.6566   -3.1255   -0.0119 C   0  0  0  0  0  0  0  0  0  0  0  0
    4.9906   -1.3706   -0.6683 C   0  0  0  0  0  0  0  0  0  0  0  0
    4.6471   -0.0683   -1.4110 C   0  0  2  0  0  0  0  0  0  0  0  0
    3.1999    0.1931   -1.3904 N   0  0  0  0  0  0  0  0  0  0  0  0
    2.4893    0.4855   -0.2662 C   0  0  0  0  0  0  0  0  0  0  0  0
    2.9564    0.5408    0.8536 O   0  0  0  0  0  0  0  0  0  0  0  0
    1.1737    0.6433   -0.5826 O   0  0  0  0  0  0  0  0  0  0  0  0
    0.2556    0.6378    0.5270 C   0  0  0  0  0  0  0  0  0  0  0  0
   -0.6160    1.8756    0.6031 C   0  0  0  0  0  0  0  0  0  0  0  0
   -1.0147    2.5805   -0.5390 C   0  0  0  0  0  0  0  0  0  0  0  0
   -1.8888    3.6705   -0.4337 C   0  0  0  0  0  0  0  0  0  0  0  0
   -2.3861    4.0572    0.8088 C   0  0  0  0  0  0  0  0  0  0  0  0
   -2.0092    3.3603    1.9512 C   0  0  0  0  0  0  0  0  0  0  0  0
   -1.1352    2.2728    1.8484 C   0  0  0  0  0  0  0  0  0  0  0  0
    5.0895   -0.1972   -2.8925 C   0  0  0  0  0  0  0  0  0  0  0  0
    4.3198   -0.5841   -3.7727 O   0  0  0  0  0  0  0  0  0  0  0  0
    6.4168    0.1115   -3.1501 N   0  0  0  0  0  0  0  0  0  0  0  0
    7.0024    0.2145   -4.4997 C   0  0  1  0  0  0  0  0  0  0  0  0
    6.1985    1.2101   -5.3746 C   0  0  0  0  0  0  0  0  0  0  0  0
    6.2825    2.6880   -4.9831 C   0  0  3  0  0  0  0  0  0  0  0  0
    5.5713    3.5942   -6.0033 C   0  0  0  0  0  0  0  0  0  0  0  0
    5.3509    4.8775   -5.2238 C   0  0  0  0  0  0  0  0  0  0  0  0
    5.0988    4.4011   -3.9020 N   0  0  0  0  0  0  0  0  0  0  0  0
    5.5935    3.1330   -3.6981 C   0  0  0  0  0  0  0  0  0  0  0  0
    5.5572    2.5713   -2.6202 O   0  0  0  0  0  0  0  0  0  0  0  0
    8.5298    0.5135   -4.4016 C   0  0  3  0  0  0  0  0  0  0  0  0
    9.1489   -0.4517   -3.5028 O   0  0  0  0  0  0  0  0  0  0  0  0
    9.3173    0.5559   -6.0584 S   0  0  0  0  0  0  0  0  0  0  0  0
   10.8385    0.8232   -5.5827 O   0  0  0  0  0  0  0  0  0  0  0  0
    9.3185   -0.7809   -6.6099 O   0  0  0  0  0  0  0  0  0  0  0  0
    8.8937    1.7139   -6.8099 O   0  0  0  0  0  0  0  0  0  0  0  0
    8.4101   -0.8809   -0.1517 H   0  0  0  0  0  0  0  0  0  0  0  0
    7.2489   -0.8150    1.1826 H   0  0  0  0  0  0  0  0  0  0  0  0
    7.1173    0.3106   -0.1709 H   0  0  0  0  0  0  0  0  0  0  0  0
    6.8529   -1.8314   -1.6681 H   0  0  0  0  0  0  0  0  0  0  0  0
    6.3572   -3.1214    1.0409 H   0  0  0  0  0  0  0  0  0  0  0  0
    7.7002   -3.4491   -0.0745 H   0  0  0  0  0  0  0  0  0  0  0  0
    6.0438   -3.8657   -0.5379 H   0  0  0  0  0  0  0  0  0  0  0  0
    4.6208   -1.3226    0.3629 H   0  0  0  0  0  0  0  0  0  0  0  0
    4.4361   -2.1882   -1.1492 H   0  0  0  0  0  0  0  0  0  0  0  0
    5.1274    0.7903   -0.9356 H   0  0  0  0  0  0  0  0  0  0  0  0
    2.7035    0.1699   -2.2728 H   0  0  0  0  0  0  0  0  0  0  0  0
    0.7640    0.4879    1.4845 H   0  0  0  0  0  0  0  0  0  0  0  0
   -0.4063   -0.2246    0.3787 H   0  0  0  0  0  0  0  0  0  0  0  0
   -0.6551    2.2819   -1.5189 H   0  0  0  0  0  0  0  0  0  0  0  0
   -2.1923    4.2078   -1.3300 H   0  0  0  0  0  0  0  0  0  0  0  0
   -3.0723    4.8993    0.8855 H   0  0  0  0  0  0  0  0  0  0  0  0
   -2.4020    3.6492    2.9218 H   0  0  0  0  0  0  0  0  0  0  0  0
   -0.8660    1.7300    2.7535 H   0  0  0  0  0  0  0  0  0  0  0  0
    6.9502    0.5085   -2.3845 H   0  0  0  0  0  0  0  0  0  0  0  0
    6.8802   -0.7871   -4.9324 H   0  0  0  0  0  0  0  0  0  0  0  0
    5.1462    0.9092   -5.4074 H   0  0  0  0  0  0  0  0  0  0  0  0
    6.5338    1.0998   -6.4128 H   0  0  0  0  0  0  0  0  0  0  0  0
    7.3283    3.0032   -4.9025 H   0  0  0  0  0  0  0  0  0  0  0  0
    4.5996    3.1643   -6.2827 H   0  0  0  0  0  0  0  0  0  0  0  0
    6.1525    3.7484   -6.9150 H   0  0  0  0  0  0  0  0  0  0  0  0
    4.4981    5.4603   -5.5757 H   0  0  0  0  0  0  0  0  0  0  0  0
    6.2511    5.5004   -5.2004 H   0  0  0  0  0  0  0  0  0  0  0  0
    4.6633    4.9154   -3.1444 H   0  0  0  0  0  0  0  0  0  0  0  0
    8.7051    1.4976   -3.9556 H   0  0  0  0  0  0  0  0  0  0  0  0
    9.2205   -1.2864   -4.0051 H   0  0  0  0  0  0  0  0  0  0  0  0
   11.3662    0.0075   -5.7198 H   0  0  0  0  0  0  0  0  0  0  0  0
  1  2  1  0  0  0  0
  1 34  1  0  0  0  0
  1 35  1  0  0  0  0
  1 36  1  0  0  0  0
  2  3  1  0  0  0  0
  2  4  1  0  0  0  0
  2 37  1  0  0  0  0
  3 38  1  0  0  0  0
  3 39  1  0  0  0  0
  3 40  1  0  0  0  0
  4 41  1  0  0  0  0
  4 42  1  0  0  0  0
  5 17  1  0  0  0  0
  5  6  1  0  0  0  0
  5  4  1  0  0  0  0
  5 43  1  1  0  0  0
  6  7  1  0  0  0  0
  6 44  1  0  0  0  0
  7  8  2  0  0  0  0
  7  9  1  0  0  0  0
  9 10  1  0  0  0  0
 10 11  1  0  0  0  0
 10 45  1  0  0  0  0
 10 46  1  0  0  0  0
 11 12  1  0  0  0  0
 11 16  2  0  0  0  0
 12 13  2  0  0  0  0
 12 47  1  0  0  0  0
 13 14  1  0  0  0  0
 13 48  1  0  0  0  0
 14 15  2  0  0  0  0
 14 49  1  0  0  0  0
 15 16  1  0  0  0  0
 15 50  1  0  0  0  0
 16 51  1  0  0  0  0
 17 18  2  0  0  0  0
 17 19  1  0  0  0  0
 19 20  1  0  0  0  0
 19 52  1  0  0  0  0
 20 21  1  0  0  0  0
 20 28  1  0  0  0  0
 20 53  1  6  0  0  0
 21 22  1  0  0  0  0
 21 54  1  0  0  0  0
 21 55  1  0  0  0  0
 22 23  1  0  0  0  0
 22 26  1  0  0  0  0
 22 56  1  0  0  0  0
 23 24  1  0  0  0  0
 23 57  1  0  0  0  0
 23 58  1  0  0  0  0
 24 25  1  0  0  0  0
 24 59  1  0  0  0  0
 24 60  1  0  0  0  0
 25 26  1  0  0  0  0
 25 61  1  0  0  0  0
 26 27  2  0  0  0  0
 28 29  1  0  0  0  0
 28 30  1  0  0  0  0
 28 62  1  0  0  0  0
 29 63  1  0  0  0  0
 30 31  1  0  0  0  0
 30 32  2  0  0  0  0
 30 33  2  0  0  0  0
 31 64  1  0  0  0  0
M  END
$$$$
