
 OpenBabel07202414123D

 65 69  0  0  1  0  0  0  0  0999 V2000
    2.5687   -0.0638    0.4538 C   0  0  0  0  0  0  0  0  0  0  0  0
    3.2957   -1.3356    0.0051 C   0  0  0  0  0  0  0  0  0  0  0  0
    3.6650   -1.3577   -1.4944 C   0  0  0  0  0  0  0  0  0  0  0  0
    4.7222    0.0087   -1.9904 S   0  0  0  0  0  0  0  0  0  0  0  0
    4.0569    1.2504   -1.6654 O   0  0  0  0  0  0  0  0  0  0  0  0
    6.0696   -0.2624   -1.5478 O   0  0  0  0  0  0  0  0  0  0  0  0
    4.7106   -0.0670   -3.7107 N   0  0  0  0  0  0  0  0  0  0  0  0
    5.4188   -1.2526   -4.2985 C   0  0  0  0  0  0  0  0  0  0  0  0
    5.2824   -1.2730   -5.8279 C   0  0  3  0  0  0  0  0  0  0  0  0
    3.9060   -1.7368   -6.3359 C   0  0  0  0  0  0  0  0  0  0  0  0
    3.8441   -2.3800   -7.3827 O   0  0  0  0  0  0  0  0  0  0  0  0
    2.8119   -1.3525   -5.5728 N   0  0  0  0  0  0  0  0  0  0  0  0
    1.4323   -1.5643   -5.8808 C   0  0  0  0  0  0  0  0  0  0  0  0
    1.0161   -2.1877   -7.0587 C   0  0  0  0  0  0  0  0  0  0  0  0
   -0.2703   -2.2669   -7.4768 N   0  0  0  0  0  0  0  0  0  0  0  0
   -1.2085   -1.7649   -6.6564 C   0  0  0  0  0  0  0  0  0  0  0  0
   -0.9532   -1.2625   -5.3866 C   0  0  0  0  0  0  0  0  0  0  0  0
   -2.0064   -0.9020   -4.5334 C   0  0  0  0  0  0  0  0  0  0  0  0
   -1.7457   -0.4226   -3.2495 C   0  0  0  0  0  0  0  0  0  0  0  0
   -3.0910    0.0883   -2.1997 S   0  0  0  0  0  0  0  0  0  0  0  0
   -3.5437   -1.3604   -1.2832 C   0  0  0  0  0  0  0  0  0  0  0  0
   -2.5595    1.0567   -1.2636 O   0  0  0  0  0  0  0  0  0  0  0  0
   -4.1992    0.4274   -3.0728 O   0  0  0  0  0  0  0  0  0  0  0  0
   -0.4336   -0.2133   -2.8434 C   0  0  0  0  0  0  0  0  0  0  0  0
    0.6170   -0.5331   -3.7158 C   0  0  0  0  0  0  0  0  0  0  0  0
    0.4044   -1.1171   -4.9901 C   0  0  0  0  0  0  0  0  0  0  0  0
    5.7093    0.0389   -6.4558 C   0  0  0  0  0  0  0  0  0  0  0  0
    6.1776    0.0771   -7.7813 C   0  0  0  0  0  0  0  0  0  0  0  0
    6.5866    1.2827   -8.3523 C   0  0  0  0  0  0  0  0  0  0  0  0
    7.2026    1.3079   -9.9584 Cl  0  0  0  0  0  0  0  0  0  0  0  0
    6.5172    2.4656   -7.6239 C   0  0  0  0  0  0  0  0  0  0  0  0
    6.0563    2.4360   -6.3070 C   0  0  0  0  0  0  0  0  0  0  0  0
    5.6598    1.2258   -5.7099 C   0  0  0  0  0  0  0  0  0  0  0  0
    5.2895    1.2260   -4.2454 C   0  0  0  0  0  0  0  0  0  0  0  0
    2.4277   -2.5732    0.3908 C   0  0  0  0  0  0  0  0  0  0  0  0
    3.8103   -3.3850    1.1211 S   0  0  0  0  0  0  0  0  0  0  0  0
    3.5482   -3.7450    2.4945 O   0  0  0  0  0  0  0  0  0  0  0  0
    4.4361   -4.2795    0.1718 O   0  0  0  0  0  0  0  0  0  0  0  0
    4.4407   -1.7462    0.9767 C   0  0  0  0  0  0  0  0  0  0  0  0
    1.7494    0.1864   -0.2281 H   0  0  0  0  0  0  0  0  0  0  0  0
    3.2490    0.7892    0.5181 H   0  0  0  0  0  0  0  0  0  0  0  0
    2.1409   -0.1773    1.4565 H   0  0  0  0  0  0  0  0  0  0  0  0
    2.7584   -1.3013   -2.0883 H   0  0  0  0  0  0  0  0  0  0  0  0
    4.1867   -2.2815   -1.7590 H   0  0  0  0  0  0  0  0  0  0  0  0
    4.9909   -2.1723   -3.8880 H   0  0  0  0  0  0  0  0  0  0  0  0
    6.4799   -1.2121   -4.0238 H   0  0  0  0  0  0  0  0  0  0  0  0
    5.9876   -2.0469   -6.1670 H   0  0  0  0  0  0  0  0  0  0  0  0
    3.0207   -0.7458   -4.7873 H   0  0  0  0  0  0  0  0  0  0  0  0
    1.7030   -2.6525   -7.7546 H   0  0  0  0  0  0  0  0  0  0  0  0
   -2.2165   -1.7839   -7.0639 H   0  0  0  0  0  0  0  0  0  0  0  0
   -3.0428   -1.0032   -4.8681 H   0  0  0  0  0  0  0  0  0  0  0  0
   -2.7186   -1.6476   -0.6312 H   0  0  0  0  0  0  0  0  0  0  0  0
   -3.7969   -2.1669   -1.9746 H   0  0  0  0  0  0  0  0  0  0  0  0
   -4.4188   -1.1104   -0.6796 H   0  0  0  0  0  0  0  0  0  0  0  0
   -0.2130    0.2282   -1.8728 H   0  0  0  0  0  0  0  0  0  0  0  0
    1.6175   -0.2920   -3.3859 H   0  0  0  0  0  0  0  0  0  0  0  0
    6.2374   -0.8388   -8.3673 H   0  0  0  0  0  0  0  0  0  0  0  0
    6.8327    3.4065   -8.0670 H   0  0  0  0  0  0  0  0  0  0  0  0
    6.0292    3.3658   -5.7400 H   0  0  0  0  0  0  0  0  0  0  0  0
    4.5478    2.0178   -4.0859 H   0  0  0  0  0  0  0  0  0  0  0  0
    6.2034    1.4717   -3.6886 H   0  0  0  0  0  0  0  0  0  0  0  0
    1.9935   -3.1290   -0.4488 H   0  0  0  0  0  0  0  0  0  0  0  0
    1.6326   -2.3925    1.1205 H   0  0  0  0  0  0  0  0  0  0  0  0
    5.4534   -1.7262    0.5632 H   0  0  0  0  0  0  0  0  0  0  0  0
    4.4487   -1.2251    1.9379 H   0  0  0  0  0  0  0  0  0  0  0  0
  1  2  1  0  0  0  0
  1 40  1  0  0  0  0
  1 41  1  0  0  0  0
  1 42  1  0  0  0  0
  2  3  1  0  0  0  0
  2 35  1  0  0  0  0
  2 39  1  0  0  0  0
  3  4  1  0  0  0  0
  3 43  1  0  0  0  0
  3 44  1  0  0  0  0
  4  5  2  0  0  0  0
  4  6  2  0  0  0  0
  4  7  1  0  0  0  0
  7  8  1  0  0  0  0
  7 34  1  0  0  0  0
  8  9  1  0  0  0  0
  8 45  1  0  0  0  0
  8 46  1  0  0  0  0
  9 10  1  0  0  0  0
  9 27  1  0  0  0  0
  9 47  1  0  0  0  0
 10 11  2  0  0  0  0
 10 12  1  0  0  0  0
 12 13  1  0  0  0  0
 12 48  1  0  0  0  0
 13 14  1  0  0  0  0
 13 26  2  0  0  0  0
 14 15  2  0  0  0  0
 14 49  1  0  0  0  0
 15 16  1  0  0  0  0
 16 17  2  0  0  0  0
 16 50  1  0  0  0  0
 17 18  1  0  0  0  0
 17 26  1  0  0  0  0
 18 19  2  0  0  0  0
 18 51  1  0  0  0  0
 19 20  1  0  0  0  0
 19 24  1  0  0  0  0
 20 21  1  0  0  0  0
 20 22  2  0  0  0  0
 20 23  2  0  0  0  0
 21 52  1  0  0  0  0
 21 53  1  0  0  0  0
 21 54  1  0  0  0  0
 24 25  2  0  0  0  0
 24 55  1  0  0  0  0
 25 26  1  0  0  0  0
 25 56  1  0  0  0  0
 27 28  1  0  0  0  0
 27 33  2  0  0  0  0
 28 29  2  0  0  0  0
 28 57  1  0  0  0  0
 29 30  1  0  0  0  0
 29 31  1  0  0  0  0
 31 32  2  0  0  0  0
 31 58  1  0  0  0  0
 32 33  1  0  0  0  0
 32 59  1  0  0  0  0
 33 34  1  0  0  0  0
 34 60  1  0  0  0  0
 34 61  1  0  0  0  0
 35 36  1  0  0  0  0
 35 62  1  0  0  0  0
 35 63  1  0  0  0  0
 36 37  2  0  0  0  0
 36 38  2  0  0  0  0
 36 39  1  0  0  0  0
 39 64  1  0  0  0  0
 39 65  1  0  0  0  0
M  END
$$$$
