
 OpenBabel07202414183D

 46 50  0  0  1  0  0  0  0  0999 V2000
    1.8450   -0.1935   -1.9823 Cl  0  0  0  0  0  0  0  0  0  0  0  0
    3.3668   -0.0921   -1.1746 C   0  0  0  0  0  0  0  0  0  0  0  0
    4.1617    1.0201   -1.2744 C   0  0  0  0  0  0  0  0  0  0  0  0
    5.4373    1.0112   -0.6887 C   0  0  0  0  0  0  0  0  0  0  0  0
    5.8843   -0.0943    0.0529 C   0  0  0  0  0  0  0  0  0  0  0  0
    5.0265   -1.1342    0.3353 C   0  0  0  0  0  0  0  0  0  0  0  0
    3.8068   -1.1739   -0.4191 C   0  0  0  0  0  0  0  0  0  0  0  0
    5.4644   -2.3530    1.1841 C   0  0  1  0  0  0  0  0  0  0  0  0
    6.6657   -2.7154    0.2810 C   0  0  0  0  0  0  0  0  0  0  0  0
    7.7090   -1.5355    0.4682 C   0  0  0  0  0  0  0  0  0  0  0  0
    7.2046   -0.1832    0.3668 O   0  0  0  0  0  0  0  0  0  0  0  0
    6.1298   -2.6386    2.6506 C   0  0  0  0  0  0  0  0  0  0  0  0
    5.2823   -3.5603    3.5783 C   0  0  0  0  0  0  0  0  0  0  0  0
    3.8519   -3.0355    3.7657 C   0  0  0  0  0  0  0  0  0  0  0  0
    3.3845   -2.3530    2.5643 N   0  0  0  0  0  0  0  0  0  0  0  0
    3.3050   -0.8805    2.7420 C   0  0  0  0  0  0  0  0  0  0  0  0
    4.3467   -0.1076    3.2793 C   0  0  0  0  0  0  0  0  0  0  0  0
    4.2997    1.1744    3.7084 N   0  0  0  0  0  0  0  0  0  0  0  0
    3.1408    1.8068    3.5180 C   0  0  0  0  0  0  0  0  0  0  0  0
    2.0627    1.2338    2.8692 C   0  0  0  0  0  0  0  0  0  0  0  0
    0.9633    2.0413    2.5848 C   0  0  0  0  0  0  0  0  0  0  0  0
   -0.1331    1.5209    1.9166 C   0  0  0  0  0  0  0  0  0  0  0  0
   -0.1543    0.1645    1.6052 C   0  0  0  0  0  0  0  0  0  0  0  0
    0.9460   -0.6616    1.8900 C   0  0  0  0  0  0  0  0  0  0  0  0
    2.1104   -0.1487    2.4978 C   0  0  0  0  0  0  0  0  0  0  0  0
    4.0964   -3.0027    1.4686 C   0  0  0  0  0  0  0  0  0  0  0  0
    3.7508   -4.0739    0.9803 O   0  0  0  0  0  0  0  0  0  0  0  0
    3.8275    1.8763   -1.8539 H   0  0  0  0  0  0  0  0  0  0  0  0
    6.1025    1.8522   -0.8622 H   0  0  0  0  0  0  0  0  0  0  0  0
    3.1734   -2.0608   -0.4353 H   0  0  0  0  0  0  0  0  0  0  0  0
    6.4078   -2.8135   -0.7743 H   0  0  0  0  0  0  0  0  0  0  0  0
    7.1523   -3.6614    0.5546 H   0  0  0  0  0  0  0  0  0  0  0  0
    8.5306   -1.6365   -0.2476 H   0  0  0  0  0  0  0  0  0  0  0  0
    8.1737   -1.5822    1.4610 H   0  0  0  0  0  0  0  0  0  0  0  0
    6.4821   -1.7598    3.1785 H   0  0  0  0  0  0  0  0  0  0  0  0
    7.0620   -3.2129    2.5475 H   0  0  0  0  0  0  0  0  0  0  0  0
    5.7656   -3.7312    4.5450 H   0  0  0  0  0  0  0  0  0  0  0  0
    5.2330   -4.5562    3.1083 H   0  0  0  0  0  0  0  0  0  0  0  0
    3.8000   -2.3723    4.6384 H   0  0  0  0  0  0  0  0  0  0  0  0
    3.1672   -3.8676    3.9572 H   0  0  0  0  0  0  0  0  0  0  0  0
    5.3513   -0.4524    3.3745 H   0  0  0  0  0  0  0  0  0  0  0  0
    3.1210    2.8218    3.9073 H   0  0  0  0  0  0  0  0  0  0  0  0
    0.9722    3.1076    2.8404 H   0  0  0  0  0  0  0  0  0  0  0  0
   -0.9589    2.1703    1.6439 H   0  0  0  0  0  0  0  0  0  0  0  0
   -1.0162   -0.2480    1.0805 H   0  0  0  0  0  0  0  0  0  0  0  0
    0.8973   -1.7127    1.6079 H   0  0  0  0  0  0  0  0  0  0  0  0
  1  2  1  0  0  0  0
  2  3  1  0  0  0  0
  2  7  2  0  0  0  0
  3  4  2  0  0  0  0
  3 28  1  0  0  0  0
  4  5  1  0  0  0  0
  4 29  1  0  0  0  0
  5  6  2  0  0  0  0
  5 11  1  0  0  0  0
  6  7  1  0  0  0  0
  7 30  1  0  0  0  0
  8  6  1  6  0  0  0
  8  9  1  0  0  0  0
  8 12  1  0  0  0  0
  8 26  1  0  0  0  0
  9 10  1  0  0  0  0
  9 31  1  0  0  0  0
  9 32  1  0  0  0  0
 10 11  1  0  0  0  0
 10 33  1  0  0  0  0
 10 34  1  0  0  0  0
 12 13  1  0  0  0  0
 12 35  1  0  0  0  0
 12 36  1  0  0  0  0
 13 14  1  0  0  0  0
 13 37  1  0  0  0  0
 13 38  1  0  0  0  0
 14 15  1  0  0  0  0
 14 39  1  0  0  0  0
 14 40  1  0  0  0  0
 15 16  1  0  0  0  0
 15 26  1  0  0  0  0
 16 17  1  0  0  0  0
 16 25  2  0  0  0  0
 17 18  2  0  0  0  0
 17 41  1  0  0  0  0
 18 19  1  0  0  0  0
 19 20  2  0  0  0  0
 19 42  1  0  0  0  0
 20 21  1  0  0  0  0
 20 25  1  0  0  0  0
 21 22  2  0  0  0  0
 21 43  1  0  0  0  0
 22 23  1  0  0  0  0
 22 44  1  0  0  0  0
 23 24  2  0  0  0  0
 23 45  1  0  0  0  0
 24 25  1  0  0  0  0
 24 46  1  0  0  0  0
 26 27  2  0  0  0  0
M  END
$$$$
