
 OpenBabel07202414183D

 39 42  0  0  1  0  0  0  0  0999 V2000
    2.5594  -12.8950    0.3023 F   0  0  0  0  0  0  0  0  0  0  0  0
    1.6941  -11.9036    0.0571 C   0  0  0  0  0  0  0  0  0  0  0  0
    0.3536  -12.2004   -0.1296 C   0  0  0  0  0  0  0  0  0  0  0  0
   -0.5271  -11.1558   -0.3732 C   0  0  0  0  0  0  0  0  0  0  0  0
   -0.0689   -9.8232   -0.4291 C   0  0  0  0  0  0  0  0  0  0  0  0
   -0.9701   -8.7883   -0.6665 C   0  0  0  0  0  0  0  0  0  0  0  0
   -0.6307   -7.4921   -0.7464 N   0  0  0  0  0  0  0  0  0  0  0  0
    0.6854   -7.1903   -0.5978 C   0  0  0  0  0  0  0  0  0  0  0  0
    1.7049   -8.1201   -0.3656 C   0  0  0  0  0  0  0  0  0  0  0  0
    3.0914   -7.7455   -0.2277 N   0  0  0  0  0  0  0  0  0  0  0  0
    3.6407   -6.4729   -0.3478 C   0  0  0  0  0  0  0  0  0  0  0  0
    2.9683   -5.4750   -0.6186 O   0  0  0  0  0  0  0  0  0  0  0  0
    5.1735   -6.2806   -0.0732 C   0  0  2  0  0  0  0  0  0  0  0  0
    6.0881   -7.4731   -0.4275 C   0  0  0  0  0  0  0  0  0  0  0  0
    7.3313   -7.6389    0.4498 C   0  0  0  0  0  0  0  0  0  0  0  0
    7.7724   -6.4488    1.0807 O   0  0  0  0  0  0  0  0  0  0  0  0
    6.7722   -5.9096    1.8393 C   0  0  0  0  0  0  0  0  0  0  0  0
    7.1141   -5.4849    3.1234 C   0  0  0  0  0  0  0  0  0  0  0  0
    6.1817   -4.7904    3.8850 C   0  0  0  0  0  0  0  0  0  0  0  0
    4.9591   -4.4486    3.3126 C   0  0  0  0  0  0  0  0  0  0  0  0
    3.8588   -3.4649    4.1979 Cl  0  0  0  0  0  0  0  0  0  0  0  0
    4.6194   -4.8895    2.0272 C   0  0  0  0  0  0  0  0  0  0  0  0
    5.4943   -5.7110    1.3018 C   0  0  0  0  0  0  0  0  0  0  0  0
    1.3084   -9.4928   -0.2658 C   0  0  0  0  0  0  0  0  0  0  0  0
    2.1700  -10.5909   -0.0097 C   0  0  0  0  0  0  0  0  0  0  0  0
    0.0134  -13.2318   -0.0835 H   0  0  0  0  0  0  0  0  0  0  0  0
   -1.5869  -11.3896   -0.5136 H   0  0  0  0  0  0  0  0  0  0  0  0
   -2.0361   -8.9840   -0.7927 H   0  0  0  0  0  0  0  0  0  0  0  0
    0.8692   -6.1245   -0.6817 H   0  0  0  0  0  0  0  0  0  0  0  0
    3.7225   -8.5093   -0.0604 H   0  0  0  0  0  0  0  0  0  0  0  0
    5.4618   -5.4838   -0.7788 H   0  0  0  0  0  0  0  0  0  0  0  0
    6.4168   -7.3432   -1.4674 H   0  0  0  0  0  0  0  0  0  0  0  0
    5.5760   -8.4370   -0.4267 H   0  0  0  0  0  0  0  0  0  0  0  0
    8.1649   -8.0057   -0.1611 H   0  0  0  0  0  0  0  0  0  0  0  0
    7.1678   -8.3966    1.2264 H   0  0  0  0  0  0  0  0  0  0  0  0
    8.1007   -5.7000    3.5255 H   0  0  0  0  0  0  0  0  0  0  0  0
    6.4261   -4.4884    4.8995 H   0  0  0  0  0  0  0  0  0  0  0  0
    3.6747   -4.5629    1.5975 H   0  0  0  0  0  0  0  0  0  0  0  0
    3.2313  -10.4546    0.1607 H   0  0  0  0  0  0  0  0  0  0  0  0
  1  2  1  0  0  0  0
  2  3  1  0  0  0  0
  2 25  2  0  0  0  0
  3  4  2  0  0  0  0
  3 26  1  0  0  0  0
  4  5  1  0  0  0  0
  4 27  1  0  0  0  0
  5  6  1  0  0  0  0
  5 24  2  0  0  0  0
  6  7  2  0  0  0  0
  6 28  1  0  0  0  0
  7  8  1  0  0  0  0
  8  9  2  0  0  0  0
  8 29  1  0  0  0  0
  9 10  1  0  0  0  0
  9 24  1  0  0  0  0
 10 11  1  0  0  0  0
 10 30  1  0  0  0  0
 11 12  2  0  0  0  0
 13 14  1  0  0  0  0
 13 23  1  0  0  0  0
 13 11  1  0  0  0  0
 13 31  1  6  0  0  0
 14 15  1  0  0  0  0
 14 32  1  0  0  0  0
 14 33  1  0  0  0  0
 15 16  1  0  0  0  0
 15 34  1  0  0  0  0
 15 35  1  0  0  0  0
 16 17  1  0  0  0  0
 17 18  1  0  0  0  0
 17 23  2  0  0  0  0
 18 19  2  0  0  0  0
 18 36  1  0  0  0  0
 19 20  1  0  0  0  0
 19 37  1  0  0  0  0
 20 21  1  0  0  0  0
 20 22  2  0  0  0  0
 22 23  1  0  0  0  0
 22 38  1  0  0  0  0
 24 25  1  0  0  0  0
 25 39  1  0  0  0  0
M  END
$$$$
