
 OpenBabel07202414193D

 43 46  0  0  1  0  0  0  0  0999 V2000
    1.2122    0.5054   -0.4097 O   0  0  0  0  0  0  0  0  0  0  0  0
    2.3389    0.0880   -0.1403 C   0  0  0  0  0  0  0  0  0  0  0  0
    3.0180    0.4910    1.1611 C   0  0  0  0  0  0  0  0  0  0  0  0
    2.7539   -0.4483    2.3146 C   0  0  0  0  0  0  0  0  0  0  0  0
    1.4290   -0.6356    2.7204 C   0  0  0  0  0  0  0  0  0  0  0  0
    1.0445   -1.4379    3.7336 N   0  0  0  0  0  0  0  0  0  0  0  0
    2.0262   -2.0931    4.3868 C   0  0  0  0  0  0  0  0  0  0  0  0
    3.3844   -1.9896    4.0902 C   0  0  0  0  0  0  0  0  0  0  0  0
    4.3447   -2.7107    4.8238 C   0  0  0  0  0  0  0  0  0  0  0  0
    5.6998   -2.6021    4.5239 C   0  0  0  0  0  0  0  0  0  0  0  0
    6.1079   -1.7672    3.4937 C   0  0  0  0  0  0  0  0  0  0  0  0
    5.1610   -1.0416    2.7634 C   0  0  0  0  0  0  0  0  0  0  0  0
    3.7725   -1.1376    3.0304 C   0  0  0  0  0  0  0  0  0  0  0  0
    3.0450   -0.7255   -1.0030 N   0  0  0  0  0  0  0  0  0  0  0  0
    2.5154   -1.0818   -2.3067 C   0  0  0  0  0  0  0  0  0  0  0  0
    3.0866   -2.4631   -2.5820 C   0  0  0  0  0  0  0  0  0  0  0  0
    4.4479   -2.4579   -1.8717 C   0  0  1  0  0  0  0  0  0  0  0  0
    5.5728   -2.0538   -2.7983 C   0  0  0  0  0  0  0  0  0  0  0  0
    5.9903   -0.7291   -2.9841 C   0  0  0  0  0  0  0  0  0  0  0  0
    7.0300   -0.4444   -3.8598 C   0  0  0  0  0  0  0  0  0  0  0  0
    7.6226   -1.4894   -4.5413 C   0  0  0  0  0  0  0  0  0  0  0  0
    7.2499   -2.7783   -4.4017 N   0  0  0  0  0  0  0  0  0  0  0  0
    6.2370   -3.0281   -3.5419 C   0  0  0  0  0  0  0  0  0  0  0  0
    4.2072   -1.5370   -0.6643 C   0  0  0  0  0  0  0  0  0  0  0  0
    2.6411    1.4872    1.4308 H   0  0  0  0  0  0  0  0  0  0  0  0
    4.0799    0.6491    0.9677 H   0  0  0  0  0  0  0  0  0  0  0  0
    0.6071   -0.1224    2.2234 H   0  0  0  0  0  0  0  0  0  0  0  0
    1.6742   -2.7312    5.1938 H   0  0  0  0  0  0  0  0  0  0  0  0
    4.0392   -3.3645    5.6384 H   0  0  0  0  0  0  0  0  0  0  0  0
    6.4332   -3.1637    5.0966 H   0  0  0  0  0  0  0  0  0  0  0  0
    7.1651   -1.6739    3.2562 H   0  0  0  0  0  0  0  0  0  0  0  0
    5.5414   -0.3971    1.9772 H   0  0  0  0  0  0  0  0  0  0  0  0
    2.8910   -0.3463   -3.0283 H   0  0  0  0  0  0  0  0  0  0  0  0
    1.4227   -1.0647   -2.3287 H   0  0  0  0  0  0  0  0  0  0  0  0
    3.1324   -2.6879   -3.6522 H   0  0  0  0  0  0  0  0  0  0  0  0
    2.4377   -3.2115   -2.1084 H   0  0  0  0  0  0  0  0  0  0  0  0
    4.6798   -3.4629   -1.4942 H   0  0  0  0  0  0  0  0  0  0  0  0
    5.5147    0.0905   -2.4531 H   0  0  0  0  0  0  0  0  0  0  0  0
    7.3689    0.5769   -4.0098 H   0  0  0  0  0  0  0  0  0  0  0  0
    8.4365   -1.3148   -5.2388 H   0  0  0  0  0  0  0  0  0  0  0  0
    5.9676   -4.0796   -3.4643 H   0  0  0  0  0  0  0  0  0  0  0  0
    5.0577   -0.8962   -0.4131 H   0  0  0  0  0  0  0  0  0  0  0  0
    3.9492   -2.1307    0.2168 H   0  0  0  0  0  0  0  0  0  0  0  0
  1  2  2  0  0  0  0
  2  3  1  0  0  0  0
  2 14  1  0  0  0  0
  3  4  1  0  0  0  0
  3 25  1  0  0  0  0
  3 26  1  0  0  0  0
  4  5  1  0  0  0  0
  4 13  2  0  0  0  0
  5  6  2  0  0  0  0
  5 27  1  0  0  0  0
  6  7  1  0  0  0  0
  7  8  2  0  0  0  0
  7 28  1  0  0  0  0
  8  9  1  0  0  0  0
  8 13  1  0  0  0  0
  9 10  2  0  0  0  0
  9 29  1  0  0  0  0
 10 11  1  0  0  0  0
 10 30  1  0  0  0  0
 11 12  2  0  0  0  0
 11 31  1  0  0  0  0
 12 13  1  0  0  0  0
 12 32  1  0  0  0  0
 14 15  1  0  0  0  0
 14 24  1  0  0  0  0
 15 16  1  0  0  0  0
 15 33  1  0  0  0  0
 15 34  1  0  0  0  0
 16 17  1  0  0  0  0
 16 35  1  0  0  0  0
 16 36  1  0  0  0  0
 17 18  1  0  0  0  0
 17 24  1  0  0  0  0
 17 37  1  1  0  0  0
 18 19  1  0  0  0  0
 18 23  2  0  0  0  0
 19 20  2  0  0  0  0
 19 38  1  0  0  0  0
 20 21  1  0  0  0  0
 20 39  1  0  0  0  0
 21 22  2  0  0  0  0
 21 40  1  0  0  0  0
 22 23  1  0  0  0  0
 23 41  1  0  0  0  0
 24 42  1  0  0  0  0
 24 43  1  0  0  0  0
M  END
$$$$
