
 OpenBabel07202414153D

 40 43  0  0  1  0  0  0  0  0999 V2000
    2.8710    0.9600   -0.1170 C   0  0  0  0  0  0  0  0  0  0  0  0
    2.1631   -0.2161    0.2745 O   0  0  0  0  0  0  0  0  0  0  0  0
    3.0229   -1.3396    0.5031 C   0  0  2  0  0  0  0  0  0  0  0  0
    3.5358   -1.9444   -0.8186 C   0  0  0  0  0  0  0  0  0  0  0  0
    2.5745   -2.9077   -1.5155 C   0  0  0  0  0  0  0  0  0  0  0  0
    1.8439   -3.7118   -0.5651 N   0  0  0  0  0  0  0  0  0  0  0  0
    1.2242   -3.0975    0.5712 C   0  0  2  0  0  0  0  0  0  0  0  0
    2.2658   -2.3500    1.3806 C   0  0  0  0  0  0  0  0  0  0  0  0
    0.6392   -4.3315    1.2596 C   0  0  0  0  0  0  0  0  0  0  0  0
    0.1865   -4.3175    2.3977 O   0  0  0  0  0  0  0  0  0  0  0  0
    0.7446   -5.4019    0.3940 N   0  0  0  0  0  0  0  0  0  0  0  0
    0.3886   -6.7423    0.7090 C   0  0  0  0  0  0  0  0  0  0  0  0
    1.3154   -7.7595    0.4551 C   0  0  0  0  0  0  0  0  0  0  0  0
    1.1566   -9.0595    0.7928 N   0  0  0  0  0  0  0  0  0  0  0  0
   -0.0046   -9.3813    1.3944 C   0  0  0  0  0  0  0  0  0  0  0  0
   -1.0403   -8.4798    1.6523 C   0  0  0  0  0  0  0  0  0  0  0  0
   -2.2450   -8.9244    2.2260 C   0  0  0  0  0  0  0  0  0  0  0  0
   -3.3036   -8.0420    2.4273 C   0  0  0  0  0  0  0  0  0  0  0  0
   -3.1634   -6.7113    2.0548 C   0  0  0  0  0  0  0  0  0  0  0  0
   -1.9629   -6.2588    1.4982 C   0  0  0  0  0  0  0  0  0  0  0  0
   -0.8523   -7.1223    1.2982 C   0  0  0  0  0  0  0  0  0  0  0  0
    1.5003   -5.0436   -0.7027 C   0  0  0  0  0  0  0  0  0  0  0  0
    1.8312   -5.7437   -1.6481 O   0  0  0  0  0  0  0  0  0  0  0  0
    2.2398    1.8294    0.0863 H   0  0  0  0  0  0  0  0  0  0  0  0
    3.0784    0.9320   -1.1897 H   0  0  0  0  0  0  0  0  0  0  0  0
    3.8061    1.0798    0.4410 H   0  0  0  0  0  0  0  0  0  0  0  0
    3.8839   -0.9927    1.0893 H   0  0  0  0  0  0  0  0  0  0  0  0
    4.4598   -2.4914   -0.5947 H   0  0  0  0  0  0  0  0  0  0  0  0
    3.8044   -1.1609   -1.5358 H   0  0  0  0  0  0  0  0  0  0  0  0
    3.1324   -3.5649   -2.1917 H   0  0  0  0  0  0  0  0  0  0  0  0
    1.8377   -2.3654   -2.1163 H   0  0  0  0  0  0  0  0  0  0  0  0
    0.4058   -2.4547    0.2302 H   0  0  0  0  0  0  0  0  0  0  0  0
    2.9852   -3.0594    1.8084 H   0  0  0  0  0  0  0  0  0  0  0  0
    1.7784   -1.8395    2.2205 H   0  0  0  0  0  0  0  0  0  0  0  0
    2.2775   -7.5529   -0.0061 H   0  0  0  0  0  0  0  0  0  0  0  0
   -0.0944  -10.4331    1.6550 H   0  0  0  0  0  0  0  0  0  0  0  0
   -2.3749   -9.9693    2.5029 H   0  0  0  0  0  0  0  0  0  0  0  0
   -4.2351   -8.3945    2.8593 H   0  0  0  0  0  0  0  0  0  0  0  0
   -3.9918   -6.0200    2.1904 H   0  0  0  0  0  0  0  0  0  0  0  0
   -1.9133   -5.2128    1.2062 H   0  0  0  0  0  0  0  0  0  0  0  0
  1  2  1  0  0  0  0
  1 24  1  0  0  0  0
  1 25  1  0  0  0  0
  1 26  1  0  0  0  0
  2  3  1  0  0  0  0
  3  4  1  0  0  0  0
  3  8  1  0  0  0  0
  3 27  1  1  0  0  0
  4  5  1  0  0  0  0
  4 28  1  0  0  0  0
  4 29  1  0  0  0  0
  5  6  1  0  0  0  0
  5 30  1  0  0  0  0
  5 31  1  0  0  0  0
  6  7  1  0  0  0  0
  6 22  1  0  0  0  0
  7  8  1  0  0  0  0
  7  9  1  0  0  0  0
  7 32  1  6  0  0  0
  8 33  1  0  0  0  0
  8 34  1  0  0  0  0
  9 10  2  0  0  0  0
  9 11  1  0  0  0  0
 11 12  1  0  0  0  0
 11 22  1  0  0  0  0
 12 13  1  0  0  0  0
 12 21  2  0  0  0  0
 13 14  2  0  0  0  0
 13 35  1  0  0  0  0
 14 15  1  0  0  0  0
 15 16  2  0  0  0  0
 15 36  1  0  0  0  0
 16 17  1  0  0  0  0
 16 21  1  0  0  0  0
 17 18  2  0  0  0  0
 17 37  1  0  0  0  0
 18 19  1  0  0  0  0
 18 38  1  0  0  0  0
 19 20  2  0  0  0  0
 19 39  1  0  0  0  0
 20 21  1  0  0  0  0
 20 40  1  0  0  0  0
 22 23  2  0  0  0  0
M  END
$$$$
