
 OpenBabel07202414123D

 59 63  0  0  1  0  0  0  0  0999 V2000
    2.3774   -0.1583    0.4086 C   0  0  0  0  0  0  0  0  0  0  0  0
    3.2579   -1.3872    0.1521 C   0  0  0  0  0  0  0  0  0  0  0  0
    3.6488   -1.4360   -1.3533 C   0  0  0  0  0  0  0  0  0  0  0  0
    4.6183    0.0471   -1.8067 S   0  0  0  0  0  0  0  0  0  0  0  0
    3.8266    1.2367   -1.5842 O   0  0  0  0  0  0  0  0  0  0  0  0
    5.9292   -0.0880   -1.2109 O   0  0  0  0  0  0  0  0  0  0  0  0
    4.8325   -0.0148   -3.4805 N   0  0  0  0  0  0  0  0  0  0  0  0
    5.6697   -1.1344   -3.9621 C   0  0  0  0  0  0  0  0  0  0  0  0
    5.6190   -1.2506   -5.4822 C   0  0  3  0  0  0  0  0  0  0  0  0
    4.2617   -1.6586   -6.0456 C   0  0  0  0  0  0  0  0  0  0  0  0
    3.6272   -0.9417   -6.8356 O   0  0  0  0  0  0  0  0  0  0  0  0
    3.6198   -2.7974   -5.7161 N   0  0  0  0  0  0  0  0  0  0  0  0
    3.7789   -3.9279   -4.8948 C   0  0  0  0  0  0  0  0  0  0  0  0
    4.9803   -4.4058   -4.3381 C   0  0  0  0  0  0  0  0  0  0  0  0
    5.0568   -5.4960   -3.5388 N   0  0  0  0  0  0  0  0  0  0  0  0
    3.8984   -6.1086   -3.2414 C   0  0  0  0  0  0  0  0  0  0  0  0
    2.6471   -5.6930   -3.6805 C   0  0  0  0  0  0  0  0  0  0  0  0
    1.5413   -6.3597   -3.1474 C   0  0  0  0  0  0  0  0  0  0  0  0
    0.2527   -5.8874   -3.3411 C   0  0  0  0  0  0  0  0  0  0  0  0
    0.0558   -4.8971   -4.2815 C   0  0  0  0  0  0  0  0  0  0  0  0
    1.1586   -4.3127   -4.9249 C   0  0  0  0  0  0  0  0  0  0  0  0
    0.7402   -3.2358   -6.2237 Cl  0  0  0  0  0  0  0  0  0  0  0  0
    2.5299   -4.6023   -4.5700 C   0  0  0  0  0  0  0  0  0  0  0  0
    6.0307    0.0772   -6.1080 C   0  0  0  0  0  0  0  0  0  0  0  0
    6.4390    0.0989   -7.4496 C   0  0  0  0  0  0  0  0  0  0  0  0
    6.6547    1.3119   -8.0918 C   0  0  0  0  0  0  0  0  0  0  0  0
    7.1096    1.3191   -9.7495 Cl  0  0  0  0  0  0  0  0  0  0  0  0
    6.4867    2.5115   -7.4057 C   0  0  0  0  0  0  0  0  0  0  0  0
    6.0892    2.5001   -6.0671 C   0  0  0  0  0  0  0  0  0  0  0  0
    5.8382    1.2854   -5.4128 C   0  0  0  0  0  0  0  0  0  0  0  0
    5.3945    1.2951   -3.9678 C   0  0  0  0  0  0  0  0  0  0  0  0
    2.5673   -2.6827    0.7156 C   0  0  0  0  0  0  0  0  0  0  0  0
    4.0857   -3.2479    1.4224 S   0  0  0  0  0  0  0  0  0  0  0  0
    3.9273   -3.5944    2.8188 O   0  0  0  0  0  0  0  0  0  0  0  0
    4.8231   -4.0682    0.4865 O   0  0  0  0  0  0  0  0  0  0  0  0
    4.4181   -1.5278    1.2049 C   0  0  0  0  0  0  0  0  0  0  0  0
    1.6055   -0.0736   -0.3660 H   0  0  0  0  0  0  0  0  0  0  0  0
    2.9778    0.7531    0.4021 H   0  0  0  0  0  0  0  0  0  0  0  0
    1.8927   -0.1693    1.3855 H   0  0  0  0  0  0  0  0  0  0  0  0
    2.7513   -1.4510   -1.9832 H   0  0  0  0  0  0  0  0  0  0  0  0
    4.2571   -2.3157   -1.5780 H   0  0  0  0  0  0  0  0  0  0  0  0
    5.3364   -2.0493   -3.4835 H   0  0  0  0  0  0  0  0  0  0  0  0
    6.7055   -0.9604   -3.6408 H   0  0  0  0  0  0  0  0  0  0  0  0
    6.3321   -2.0178   -5.7988 H   0  0  0  0  0  0  0  0  0  0  0  0
    2.7060   -2.7382   -6.1676 H   0  0  0  0  0  0  0  0  0  0  0  0
    5.9776   -3.9853   -4.4546 H   0  0  0  0  0  0  0  0  0  0  0  0
    4.0009   -6.9437   -2.5563 H   0  0  0  0  0  0  0  0  0  0  0  0
    1.6770   -7.2484   -2.5318 H   0  0  0  0  0  0  0  0  0  0  0  0
   -0.5742   -6.3161   -2.7873 H   0  0  0  0  0  0  0  0  0  0  0  0
   -0.9620   -4.5996   -4.5209 H   0  0  0  0  0  0  0  0  0  0  0  0
    6.5164   -0.8318   -8.0067 H   0  0  0  0  0  0  0  0  0  0  0  0
    6.6500    3.4583   -7.9117 H   0  0  0  0  0  0  0  0  0  0  0  0
    5.9539    3.4456   -5.5445 H   0  0  0  0  0  0  0  0  0  0  0  0
    4.6373    2.0787   -3.8367 H   0  0  0  0  0  0  0  0  0  0  0  0
    6.2754    1.5537   -3.3650 H   0  0  0  0  0  0  0  0  0  0  0  0
    2.1493   -3.3792   -0.0153 H   0  0  0  0  0  0  0  0  0  0  0  0
    1.8214   -2.5169    1.5029 H   0  0  0  0  0  0  0  0  0  0  0  0
    5.4369   -1.3454    0.8604 H   0  0  0  0  0  0  0  0  0  0  0  0
    4.2679   -0.9782    2.1406 H   0  0  0  0  0  0  0  0  0  0  0  0
  1  2  1  0  0  0  0
  1 37  1  0  0  0  0
  1 38  1  0  0  0  0
  1 39  1  0  0  0  0
  2  3  1  0  0  0  0
  2 32  1  0  0  0  0
  2 36  1  0  0  0  0
  3  4  1  0  0  0  0
  3 40  1  0  0  0  0
  3 41  1  0  0  0  0
  4  5  2  0  0  0  0
  4  6  2  0  0  0  0
  4  7  1  0  0  0  0
  7  8  1  0  0  0  0
  7 31  1  0  0  0  0
  8  9  1  0  0  0  0
  8 42  1  0  0  0  0
  8 43  1  0  0  0  0
  9 10  1  0  0  0  0
  9 24  1  0  0  0  0
  9 44  1  0  0  0  0
 10 11  2  0  0  0  0
 10 12  1  0  0  0  0
 12 13  1  0  0  0  0
 12 45  1  0  0  0  0
 13 14  1  0  0  0  0
 13 23  2  0  0  0  0
 14 15  2  0  0  0  0
 14 46  1  0  0  0  0
 15 16  1  0  0  0  0
 16 17  2  0  0  0  0
 16 47  1  0  0  0  0
 17 18  1  0  0  0  0
 17 23  1  0  0  0  0
 18 19  2  0  0  0  0
 18 48  1  0  0  0  0
 19 20  1  0  0  0  0
 19 49  1  0  0  0  0
 20 21  2  0  0  0  0
 20 50  1  0  0  0  0
 21 22  1  0  0  0  0
 21 23  1  0  0  0  0
 24 25  1  0  0  0  0
 24 30  2  0  0  0  0
 25 26  2  0  0  0  0
 25 51  1  0  0  0  0
 26 27  1  0  0  0  0
 26 28  1  0  0  0  0
 28 29  2  0  0  0  0
 28 52  1  0  0  0  0
 29 30  1  0  0  0  0
 29 53  1  0  0  0  0
 30 31  1  0  0  0  0
 31 54  1  0  0  0  0
 31 55  1  0  0  0  0
 32 33  1  0  0  0  0
 32 56  1  0  0  0  0
 32 57  1  0  0  0  0
 33 34  2  0  0  0  0
 33 35  2  0  0  0  0
 33 36  1  0  0  0  0
 36 58  1  0  0  0  0
 36 59  1  0  0  0  0
M  END
$$$$
