
 OpenBabel07202414193D

 50 53  0  0  1  0  0  0  0  0999 V2000
    1.4574   -0.6999    1.1695 O   0  0  0  0  0  0  0  0  0  0  0  0
    2.3889   -0.2877    0.4705 C   0  0  0  0  0  0  0  0  0  0  0  0
    2.7601   -1.0612   -0.7886 C   0  0  0  0  0  0  0  0  0  0  0  0
    2.0423   -0.5756   -2.0301 C   0  0  0  0  0  0  0  0  0  0  0  0
    0.7216   -0.1238   -1.9330 C   0  0  0  0  0  0  0  0  0  0  0  0
   -0.0090    0.3490   -2.9630 N   0  0  0  0  0  0  0  0  0  0  0  0
    0.5909    0.3576   -4.1696 C   0  0  0  0  0  0  0  0  0  0  0  0
    1.8863   -0.0951   -4.4110 C   0  0  0  0  0  0  0  0  0  0  0  0
    2.4359   -0.0566   -5.7051 C   0  0  0  0  0  0  0  0  0  0  0  0
    3.7246   -0.5267   -5.9420 C   0  0  0  0  0  0  0  0  0  0  0  0
    4.4673   -1.0527   -4.8936 C   0  0  0  0  0  0  0  0  0  0  0  0
    3.9300   -1.0911   -3.6026 C   0  0  0  0  0  0  0  0  0  0  0  0
    2.6339   -0.5971   -3.3215 C   0  0  0  0  0  0  0  0  0  0  0  0
    3.0772    0.8856    0.7777 N   0  0  0  0  0  0  0  0  0  0  0  0
    4.1830    1.4385   -0.0043 C   0  0  0  0  0  0  0  0  0  0  0  0
    5.5383    0.9911    0.5349 C   0  0  0  0  0  0  0  0  0  0  0  0
    5.9449    1.5193    1.9114 C   0  0  0  0  0  0  0  0  0  0  0  0
    4.8734    1.5802    3.0027 C   0  0  0  0  0  0  0  0  0  0  0  0
    3.6386    2.4737    2.7231 C   0  0  1  0  0  0  0  0  0  0  0  0
    3.9148    3.9179    2.2860 C   0  0  0  0  0  0  0  0  0  0  0  0
    3.0230    4.6400    1.4727 C   0  0  0  0  0  0  0  0  0  0  0  0
    3.2332    5.9909    1.1743 C   0  0  0  0  0  0  0  0  0  0  0  0
    4.3420    6.6556    1.6824 C   0  0  0  0  0  0  0  0  0  0  0  0
    5.2407    5.9682    2.4891 C   0  0  0  0  0  0  0  0  0  0  0  0
    5.0206    4.6215    2.7988 C   0  0  0  0  0  0  0  0  0  0  0  0
    2.5924    1.6548    1.9267 C   0  0  0  0  0  0  0  0  0  0  0  0
    2.4947   -2.1137   -0.6257 H   0  0  0  0  0  0  0  0  0  0  0  0
    3.8466   -1.0465   -0.8944 H   0  0  0  0  0  0  0  0  0  0  0  0
    0.1840   -0.1243   -0.9863 H   0  0  0  0  0  0  0  0  0  0  0  0
   -0.0316    0.7461   -4.9713 H   0  0  0  0  0  0  0  0  0  0  0  0
    1.8594    0.3416   -6.5374 H   0  0  0  0  0  0  0  0  0  0  0  0
    4.1432   -0.4886   -6.9445 H   0  0  0  0  0  0  0  0  0  0  0  0
    5.4683   -1.4365   -5.0749 H   0  0  0  0  0  0  0  0  0  0  0  0
    4.5469   -1.5268   -2.8224 H   0  0  0  0  0  0  0  0  0  0  0  0
    4.1005    2.5265   -0.0510 H   0  0  0  0  0  0  0  0  0  0  0  0
    4.1009    1.1026   -1.0410 H   0  0  0  0  0  0  0  0  0  0  0  0
    6.3117    1.3091   -0.1770 H   0  0  0  0  0  0  0  0  0  0  0  0
    5.5782   -0.1044    0.5551 H   0  0  0  0  0  0  0  0  0  0  0  0
    6.4048    2.5048    1.7879 H   0  0  0  0  0  0  0  0  0  0  0  0
    6.7556    0.8766    2.2822 H   0  0  0  0  0  0  0  0  0  0  0  0
    5.3557    1.9279    3.9259 H   0  0  0  0  0  0  0  0  0  0  0  0
    4.5387    0.5586    3.2305 H   0  0  0  0  0  0  0  0  0  0  0  0
    3.1586    2.6219    3.7040 H   0  0  0  0  0  0  0  0  0  0  0  0
    2.1297    4.1848    1.0564 H   0  0  0  0  0  0  0  0  0  0  0  0
    2.5165    6.5243    0.5543 H   0  0  0  0  0  0  0  0  0  0  0  0
    4.4967    7.7080    1.4613 H   0  0  0  0  0  0  0  0  0  0  0  0
    6.1074    6.4833    2.8953 H   0  0  0  0  0  0  0  0  0  0  0  0
    5.7312    4.1359    3.4633 H   0  0  0  0  0  0  0  0  0  0  0  0
    1.7552    2.2611    1.5705 H   0  0  0  0  0  0  0  0  0  0  0  0
    2.1397    0.9510    2.6375 H   0  0  0  0  0  0  0  0  0  0  0  0
  1  2  2  0  0  0  0
  2  3  1  0  0  0  0
  2 14  1  0  0  0  0
  3  4  1  0  0  0  0
  3 27  1  0  0  0  0
  3 28  1  0  0  0  0
  4  5  1  0  0  0  0
  4 13  2  0  0  0  0
  5  6  2  0  0  0  0
  5 29  1  0  0  0  0
  6  7  1  0  0  0  0
  7  8  2  0  0  0  0
  7 30  1  0  0  0  0
  8  9  1  0  0  0  0
  8 13  1  0  0  0  0
  9 10  2  0  0  0  0
  9 31  1  0  0  0  0
 10 11  1  0  0  0  0
 10 32  1  0  0  0  0
 11 12  2  0  0  0  0
 11 33  1  0  0  0  0
 12 13  1  0  0  0  0
 12 34  1  0  0  0  0
 14 15  1  0  0  0  0
 14 26  1  0  0  0  0
 15 16  1  0  0  0  0
 15 35  1  0  0  0  0
 15 36  1  0  0  0  0
 16 17  1  0  0  0  0
 16 37  1  0  0  0  0
 16 38  1  0  0  0  0
 17 18  1  0  0  0  0
 17 39  1  0  0  0  0
 17 40  1  0  0  0  0
 18 19  1  0  0  0  0
 18 41  1  0  0  0  0
 18 42  1  0  0  0  0
 19 20  1  0  0  0  0
 19 26  1  0  0  0  0
 19 43  1  1  0  0  0
 20 21  1  0  0  0  0
 20 25  2  0  0  0  0
 21 22  2  0  0  0  0
 21 44  1  0  0  0  0
 22 23  1  0  0  0  0
 22 45  1  0  0  0  0
 23 24  2  0  0  0  0
 23 46  1  0  0  0  0
 24 25  1  0  0  0  0
 24 47  1  0  0  0  0
 25 48  1  0  0  0  0
 26 49  1  0  0  0  0
 26 50  1  0  0  0  0
M  END
$$$$
