
 OpenBabel07202414193D

 44 47  0  0  1  0  0  0  0  0999 V2000
    2.8872    0.1478   -0.8517 O   0  0  0  0  0  0  0  0  0  0  0  0
    2.4069   -0.3843    0.1513 C   0  0  0  0  0  0  0  0  0  0  0  0
    1.2787   -1.4056    0.0502 C   0  0  0  0  0  0  0  0  0  0  0  0
    0.2189   -1.0936   -0.9815 C   0  0  0  0  0  0  0  0  0  0  0  0
    0.3687   -1.6194   -2.2651 C   0  0  0  0  0  0  0  0  0  0  0  0
   -0.5499   -1.5150   -3.2464 N   0  0  0  0  0  0  0  0  0  0  0  0
   -1.6785   -0.8407   -2.9405 C   0  0  0  0  0  0  0  0  0  0  0  0
   -1.9409   -0.2471   -1.7065 C   0  0  0  0  0  0  0  0  0  0  0  0
   -3.1524    0.4278   -1.4603 C   0  0  0  0  0  0  0  0  0  0  0  0
   -3.3993    1.0209   -0.2252 C   0  0  0  0  0  0  0  0  0  0  0  0
   -2.4311    0.9571    0.7711 C   0  0  0  0  0  0  0  0  0  0  0  0
   -1.2290    0.2854    0.5385 C   0  0  0  0  0  0  0  0  0  0  0  0
   -0.9581   -0.3519   -0.6976 C   0  0  0  0  0  0  0  0  0  0  0  0
    2.8981   -0.1153    1.4201 N   0  0  0  0  0  0  0  0  0  0  0  0
    2.5865   -0.8441    2.6394 C   0  0  0  0  0  0  0  0  0  0  0  0
    3.1048    0.0532    3.7443 C   0  0  0  0  0  0  0  0  0  0  0  0
    4.3715    0.6369    3.1333 C   0  0  0  0  0  0  0  0  0  0  0  0
    4.0298    0.7953    1.6380 C   0  0  2  0  0  0  0  0  0  0  0  0
    3.7941    2.2385    1.2648 C   0  0  0  0  0  0  0  0  0  0  0  0
    4.8996    3.0368    0.9415 C   0  0  0  0  0  0  0  0  0  0  0  0
    6.1374    2.5299    1.0460 F   0  0  0  0  0  0  0  0  0  0  0  0
    4.7603    4.3591    0.5229 C   0  0  0  0  0  0  0  0  0  0  0  0
    3.4885    4.9184    0.4233 C   0  0  0  0  0  0  0  0  0  0  0  0
    2.3756    4.1574    0.7816 C   0  0  0  0  0  0  0  0  0  0  0  0
    0.8081    4.8657    0.6912 Cl  0  0  0  0  0  0  0  0  0  0  0  0
    2.5318    2.8366    1.2151 C   0  0  0  0  0  0  0  0  0  0  0  0
    1.4488    2.1449    1.6056 F   0  0  0  0  0  0  0  0  0  0  0  0
    0.7687   -1.5611    1.0017 H   0  0  0  0  0  0  0  0  0  0  0  0
    1.7462   -2.3718   -0.1760 H   0  0  0  0  0  0  0  0  0  0  0  0
    1.2570   -2.1817   -2.5416 H   0  0  0  0  0  0  0  0  0  0  0  0
   -2.3986   -0.7879   -3.7533 H   0  0  0  0  0  0  0  0  0  0  0  0
   -3.9145    0.4911   -2.2357 H   0  0  0  0  0  0  0  0  0  0  0  0
   -4.3384    1.5338   -0.0432 H   0  0  0  0  0  0  0  0  0  0  0  0
   -2.6090    1.4350    1.7318 H   0  0  0  0  0  0  0  0  0  0  0  0
   -0.4946    0.2769    1.3400 H   0  0  0  0  0  0  0  0  0  0  0  0
    3.1328   -1.7943    2.6033 H   0  0  0  0  0  0  0  0  0  0  0  0
    1.5219   -1.0457    2.7566 H   0  0  0  0  0  0  0  0  0  0  0  0
    3.2848   -0.4887    4.6764 H   0  0  0  0  0  0  0  0  0  0  0  0
    2.3816    0.8530    3.9433 H   0  0  0  0  0  0  0  0  0  0  0  0
    5.1881   -0.0868    3.2487 H   0  0  0  0  0  0  0  0  0  0  0  0
    4.6757    1.5633    3.6310 H   0  0  0  0  0  0  0  0  0  0  0  0
    4.8608    0.4113    1.0307 H   0  0  0  0  0  0  0  0  0  0  0  0
    5.6436    4.9384    0.2693 H   0  0  0  0  0  0  0  0  0  0  0  0
    3.3714    5.9415    0.0753 H   0  0  0  0  0  0  0  0  0  0  0  0
  1  2  2  0  0  0  0
  2  3  1  0  0  0  0
  2 14  1  0  0  0  0
  3  4  1  0  0  0  0
  3 28  1  0  0  0  0
  3 29  1  0  0  0  0
  4  5  1  0  0  0  0
  4 13  2  0  0  0  0
  5  6  2  0  0  0  0
  5 30  1  0  0  0  0
  6  7  1  0  0  0  0
  7  8  2  0  0  0  0
  7 31  1  0  0  0  0
  8  9  1  0  0  0  0
  8 13  1  0  0  0  0
  9 10  2  0  0  0  0
  9 32  1  0  0  0  0
 10 11  1  0  0  0  0
 10 33  1  0  0  0  0
 11 12  2  0  0  0  0
 11 34  1  0  0  0  0
 12 13  1  0  0  0  0
 12 35  1  0  0  0  0
 14 15  1  0  0  0  0
 14 18  1  0  0  0  0
 15 16  1  0  0  0  0
 15 36  1  0  0  0  0
 15 37  1  0  0  0  0
 16 17  1  0  0  0  0
 16 38  1  0  0  0  0
 16 39  1  0  0  0  0
 17 18  1  0  0  0  0
 17 40  1  0  0  0  0
 17 41  1  0  0  0  0
 18 19  1  0  0  0  0
 18 42  1  6  0  0  0
 19 20  1  0  0  0  0
 19 26  2  0  0  0  0
 20 21  1  0  0  0  0
 20 22  2  0  0  0  0
 22 23  1  0  0  0  0
 22 43  1  0  0  0  0
 23 24  2  0  0  0  0
 23 44  1  0  0  0  0
 24 25  1  0  0  0  0
 24 26  1  0  0  0  0
 26 27  1  0  0  0  0
M  END
$$$$
