
 OpenBabel07202414153D

 79 83  0  0  1  0  0  0  0  0999 V2000
    2.4325   -0.2492   -1.3074 C   0  0  0  0  0  0  0  0  0  0  0  0
    2.0644   -0.2455    0.0763 O   0  0  0  0  0  0  0  0  0  0  0  0
    2.9475   -0.8545    0.9392 C   0  0  0  0  0  0  0  0  0  0  0  0
    4.1989   -1.3251    0.5498 C   0  0  0  0  0  0  0  0  0  0  0  0
    5.0438   -1.9508    1.4705 C   0  0  0  0  0  0  0  0  0  0  0  0
    4.7176   -2.0701    2.8180 C   0  0  0  0  0  0  0  0  0  0  0  0
    5.5903   -2.7271    3.7605 N   0  0  0  0  0  0  0  0  0  0  0  0
    6.9537   -2.1638    4.0399 C   0  0  3  0  0  0  0  0  0  0  0  0
    7.7264   -1.3778    2.9298 C   0  0  0  0  0  0  0  0  0  0  0  0
    8.2163   -0.2605    3.1014 O   0  0  0  0  0  0  0  0  0  0  0  0
    8.0062   -2.0821    1.7752 N   0  0  0  0  0  0  0  0  0  0  0  0
    8.8264   -1.4785    0.7439 C   0  0  0  0  0  0  0  0  0  0  0  0
   10.2961   -1.6688    1.0999 C   0  0  0  0  0  0  0  0  0  0  0  0
   11.2276   -1.1009    0.0733 C   0  0  0  0  0  0  0  0  0  0  0  0
   11.6555    0.2314    0.1622 C   0  0  0  0  0  0  0  0  0  0  0  0
   12.5739    0.7404   -0.7549 C   0  0  0  0  0  0  0  0  0  0  0  0
   13.0636   -0.0760   -1.7746 C   0  0  0  0  0  0  0  0  0  0  0  0
   12.6164   -1.3886   -1.8745 C   0  0  0  0  0  0  0  0  0  0  0  0
   13.0846   -2.1739   -2.8540 F   0  0  0  0  0  0  0  0  0  0  0  0
   11.7026   -1.9064   -0.9684 C   0  0  0  0  0  0  0  0  0  0  0  0
    7.0858   -1.3637    5.3384 C   0  0  0  0  0  0  0  0  0  0  0  0
    6.0870   -0.5511    5.8735 C   0  0  0  0  0  0  0  0  0  0  0  0
    6.3772    0.2501    6.9789 C   0  0  0  0  0  0  0  0  0  0  0  0
    7.6520    0.2101    7.5220 C   0  0  0  0  0  0  0  0  0  0  0  0
    8.6375   -0.5840    7.0602 N   0  0  0  0  0  0  0  0  0  0  0  0
    8.3321   -1.3332    5.9775 C   0  0  0  0  0  0  0  0  0  0  0  0
    5.0996   -3.9116    4.3805 C   0  0  0  0  0  0  0  0  0  0  0  0
    4.0365   -4.4274    4.0045 O   0  0  0  0  0  0  0  0  0  0  0  0
    5.8875   -4.6056    5.4041 C   0  0  0  0  0  0  0  0  0  0  0  0
    5.8607   -5.9290    5.8056 C   0  0  0  0  0  0  0  0  0  0  0  0
    6.7975   -6.0792    6.8585 C   0  0  0  0  0  0  0  0  0  0  0  0
    7.3210   -4.8287    7.0671 C   0  0  0  0  0  0  0  0  0  0  0  0
    6.7786   -3.9431    6.1981 O   0  0  0  0  0  0  0  0  0  0  0  0
    3.4376   -1.6428    3.1951 C   0  0  0  0  0  0  0  0  0  0  0  0
    2.5542   -1.0185    2.2851 C   0  0  0  0  0  0  0  0  0  0  0  0
    1.2512   -0.5935    2.6703 N   0  0  0  0  0  0  0  0  0  0  0  0
    0.8023   -0.4554    3.9723 C   0  0  0  0  0  0  0  0  0  0  0  0
    1.5330   -0.4870    4.9615 O   0  0  0  0  0  0  0  0  0  0  0  0
   -0.7051   -0.1945    4.1233 C   0  0  0  0  0  0  0  0  0  0  0  0
   -1.0315   -0.0194    5.6222 C   0  0  0  0  0  0  0  0  0  0  0  0
   -2.5202    0.1391    5.9003 C   0  0  0  0  0  0  0  0  0  0  0  0
   -3.3158   -1.0180    5.3129 C   0  0  0  0  0  0  0  0  0  0  0  0
   -3.0421   -1.1664    3.8203 C   0  0  0  0  0  0  0  0  0  0  0  0
   -1.5492   -1.3290    3.5223 C   0  0  0  0  0  0  0  0  0  0  0  0
    1.6374    0.2369   -1.8804 H   0  0  0  0  0  0  0  0  0  0  0  0
    2.5312   -1.2747   -1.6830 H   0  0  0  0  0  0  0  0  0  0  0  0
    3.3535    0.3199   -1.4831 H   0  0  0  0  0  0  0  0  0  0  0  0
    4.5575   -1.2508   -0.4721 H   0  0  0  0  0  0  0  0  0  0  0  0
    5.9203   -2.4142    1.0504 H   0  0  0  0  0  0  0  0  0  0  0  0
    7.5863   -3.0558    4.1645 H   0  0  0  0  0  0  0  0  0  0  0  0
    7.7725   -3.0653    1.7129 H   0  0  0  0  0  0  0  0  0  0  0  0
    8.5759   -0.4143    0.6563 H   0  0  0  0  0  0  0  0  0  0  0  0
    8.5685   -1.9555   -0.2076 H   0  0  0  0  0  0  0  0  0  0  0  0
   10.4983   -2.7390    1.2302 H   0  0  0  0  0  0  0  0  0  0  0  0
   10.5142   -1.2157    2.0752 H   0  0  0  0  0  0  0  0  0  0  0  0
   11.2848    0.8738    0.9625 H   0  0  0  0  0  0  0  0  0  0  0  0
   12.9168    1.7681   -0.6661 H   0  0  0  0  0  0  0  0  0  0  0  0
   13.7911    0.2988   -2.4842 H   0  0  0  0  0  0  0  0  0  0  0  0
   11.3826   -2.9390   -1.0688 H   0  0  0  0  0  0  0  0  0  0  0  0
    5.0970   -0.5044    5.4322 H   0  0  0  0  0  0  0  0  0  0  0  0
    5.6259    0.9121    7.3952 H   0  0  0  0  0  0  0  0  0  0  0  0
    7.9269    0.8443    8.3597 H   0  0  0  0  0  0  0  0  0  0  0  0
    9.1683   -1.9292    5.6108 H   0  0  0  0  0  0  0  0  0  0  0  0
    5.2234   -6.6981    5.3776 H   0  0  0  0  0  0  0  0  0  0  0  0
    7.0462   -6.9765    7.4071 H   0  0  0  0  0  0  0  0  0  0  0  0
    8.0453   -4.4225    7.7606 H   0  0  0  0  0  0  0  0  0  0  0  0
    3.1238   -1.8329    4.2168 H   0  0  0  0  0  0  0  0  0  0  0  0
    0.6634   -0.2668    1.9095 H   0  0  0  0  0  0  0  0  0  0  0  0
   -0.9348    0.7446    3.6031 H   0  0  0  0  0  0  0  0  0  0  0  0
   -0.4956    0.8516    6.0198 H   0  0  0  0  0  0  0  0  0  0  0  0
   -0.6646   -0.8898    6.1841 H   0  0  0  0  0  0  0  0  0  0  0  0
   -2.8743    1.0865    5.4785 H   0  0  0  0  0  0  0  0  0  0  0  0
   -2.6862    0.1877    6.9831 H   0  0  0  0  0  0  0  0  0  0  0  0
   -4.3858   -0.8527    5.4825 H   0  0  0  0  0  0  0  0  0  0  0  0
   -3.0511   -1.9486    5.8304 H   0  0  0  0  0  0  0  0  0  0  0  0
   -3.4249   -0.2835    3.2935 H   0  0  0  0  0  0  0  0  0  0  0  0
   -3.5925   -2.0315    3.4333 H   0  0  0  0  0  0  0  0  0  0  0  0
   -1.4091   -1.3730    2.4361 H   0  0  0  0  0  0  0  0  0  0  0  0
   -1.2069   -2.2947    3.9162 H   0  0  0  0  0  0  0  0  0  0  0  0
  1  2  1  0  0  0  0
  1 45  1  0  0  0  0
  1 46  1  0  0  0  0
  1 47  1  0  0  0  0
  2  3  1  0  0  0  0
  3  4  1  0  0  0  0
  3 35  2  0  0  0  0
  4  5  2  0  0  0  0
  4 48  1  0  0  0  0
  5  6  1  0  0  0  0
  5 49  1  0  0  0  0
  6  7  1  0  0  0  0
  6 34  2  0  0  0  0
  7  8  1  0  0  0  0
  7 27  1  0  0  0  0
  8  9  1  0  0  0  0
  8 21  1  0  0  0  0
  8 50  1  0  0  0  0
  9 10  2  0  0  0  0
  9 11  1  0  0  0  0
 11 12  1  0  0  0  0
 11 51  1  0  0  0  0
 12 13  1  0  0  0  0
 12 52  1  0  0  0  0
 12 53  1  0  0  0  0
 13 14  1  0  0  0  0
 13 54  1  0  0  0  0
 13 55  1  0  0  0  0
 14 15  1  0  0  0  0
 14 20  2  0  0  0  0
 15 16  2  0  0  0  0
 15 56  1  0  0  0  0
 16 17  1  0  0  0  0
 16 57  1  0  0  0  0
 17 18  2  0  0  0  0
 17 58  1  0  0  0  0
 18 19  1  0  0  0  0
 18 20  1  0  0  0  0
 20 59  1  0  0  0  0
 21 22  1  0  0  0  0
 21 26  2  0  0  0  0
 22 23  2  0  0  0  0
 22 60  1  0  0  0  0
 23 24  1  0  0  0  0
 23 61  1  0  0  0  0
 24 25  2  0  0  0  0
 24 62  1  0  0  0  0
 25 26  1  0  0  0  0
 26 63  1  0  0  0  0
 27 28  2  0  0  0  0
 27 29  1  0  0  0  0
 29 30  2  0  0  0  0
 29 33  1  0  0  0  0
 30 31  1  0  0  0  0
 30 64  1  0  0  0  0
 31 32  2  0  0  0  0
 31 65  1  0  0  0  0
 32 33  1  0  0  0  0
 32 66  1  0  0  0  0
 34 35  1  0  0  0  0
 34 67  1  0  0  0  0
 35 36  1  0  0  0  0
 36 37  1  0  0  0  0
 36 68  1  0  0  0  0
 37 38  2  0  0  0  0
 37 39  1  0  0  0  0
 39 40  1  0  0  0  0
 39 44  1  0  0  0  0
 39 69  1  0  0  0  0
 40 41  1  0  0  0  0
 40 70  1  0  0  0  0
 40 71  1  0  0  0  0
 41 42  1  0  0  0  0
 41 72  1  0  0  0  0
 41 73  1  0  0  0  0
 42 43  1  0  0  0  0
 42 74  1  0  0  0  0
 42 75  1  0  0  0  0
 43 44  1  0  0  0  0
 43 76  1  0  0  0  0
 43 77  1  0  0  0  0
 44 78  1  0  0  0  0
 44 79  1  0  0  0  0
M  END
$$$$
