
 OpenBabel07202414143D

 55 58  0  0  1  0  0  0  0  0999 V2000
    1.5012   -0.1446    3.1383 C   0  0  0  0  0  0  0  0  0  0  0  0
    2.6552    0.5390    2.6147 N   0  0  0  0  0  0  0  0  0  0  0  0
    3.4109   -0.0241    1.6142 C   0  0  0  0  0  0  0  0  0  0  0  0
    3.1711   -1.1367    1.1462 O   0  0  0  0  0  0  0  0  0  0  0  0
    4.4686    0.8855    0.9809 C   0  0  0  0  0  0  0  0  0  0  0  0
    5.1154    1.9033    1.8245 N   0  0  0  0  0  0  0  0  0  0  0  0
    6.5386    1.7624    2.1268 C   0  0  0  0  0  0  0  0  0  0  0  0
    7.3679    2.8509    1.4434 C   0  0  3  0  0  0  0  0  0  0  0  0
    7.4706    2.5594   -0.0592 C   0  0  0  0  0  0  0  0  0  0  0  0
    8.4070    1.8881   -0.4883 O   0  0  0  0  0  0  0  0  0  0  0  0
    6.4142    3.0288   -0.8178 N   0  0  0  0  0  0  0  0  0  0  0  0
    6.1049    2.7550   -2.1708 C   0  0  0  0  0  0  0  0  0  0  0  0
    6.8315    1.8582   -2.9494 C   0  0  0  0  0  0  0  0  0  0  0  0
    6.4440    1.4281   -4.1718 N   0  0  0  0  0  0  0  0  0  0  0  0
    5.3285    1.9814   -4.6864 C   0  0  0  0  0  0  0  0  0  0  0  0
    4.6250    3.0218   -4.0866 C   0  0  0  0  0  0  0  0  0  0  0  0
    3.6396    3.7245   -4.7976 C   0  0  0  0  0  0  0  0  0  0  0  0
    3.0535    4.8501   -4.2227 C   0  0  0  0  0  0  0  0  0  0  0  0
    2.1551    5.9926   -5.2425 S   0  0  0  0  0  0  0  0  0  0  0  0
    3.4313    7.1643   -5.6742 C   0  0  0  0  0  0  0  0  0  0  0  0
    1.7495    5.2930   -6.4448 O   0  0  0  0  0  0  0  0  0  0  0  0
    1.1863    6.6634   -4.3963 O   0  0  0  0  0  0  0  0  0  0  0  0
    3.2885    5.1783   -2.8931 C   0  0  0  0  0  0  0  0  0  0  0  0
    4.2356    4.4509   -2.1722 C   0  0  0  0  0  0  0  0  0  0  0  0
    4.9867    3.4030   -2.7718 C   0  0  0  0  0  0  0  0  0  0  0  0
    6.7719    4.2080    1.7748 C   0  0  0  0  0  0  0  0  0  0  0  0
    7.5657    5.3617    1.7040 C   0  0  0  0  0  0  0  0  0  0  0  0
    6.9941    6.6158    1.9121 C   0  0  0  0  0  0  0  0  0  0  0  0
    7.9671    8.0277    1.7940 Cl  0  0  0  0  0  0  0  0  0  0  0  0
    5.6314    6.7371    2.1831 C   0  0  0  0  0  0  0  0  0  0  0  0
    4.8321    5.5942    2.2656 C   0  0  0  0  0  0  0  0  0  0  0  0
    5.3973    4.3281    2.0742 C   0  0  0  0  0  0  0  0  0  0  0  0
    4.4921    3.1361    1.9815 C   0  0  0  0  0  0  0  0  0  0  0  0
    3.2766    3.2783    1.9352 O   0  0  0  0  0  0  0  0  0  0  0  0
    0.8946    0.5673    3.7018 H   0  0  0  0  0  0  0  0  0  0  0  0
    1.8382   -0.9511    3.7948 H   0  0  0  0  0  0  0  0  0  0  0  0
    0.9107   -0.5683    2.3202 H   0  0  0  0  0  0  0  0  0  0  0  0
    2.7262    1.5477    2.7356 H   0  0  0  0  0  0  0  0  0  0  0  0
    3.9847    1.4023    0.1433 H   0  0  0  0  0  0  0  0  0  0  0  0
    5.2466    0.2372    0.5621 H   0  0  0  0  0  0  0  0  0  0  0  0
    6.8867    0.7549    1.8741 H   0  0  0  0  0  0  0  0  0  0  0  0
    6.6318    1.8719    3.2164 H   0  0  0  0  0  0  0  0  0  0  0  0
    8.3882    2.8144    1.8491 H   0  0  0  0  0  0  0  0  0  0  0  0
    5.7189    3.5706   -0.3314 H   0  0  0  0  0  0  0  0  0  0  0  0
    7.7699    1.4248   -2.6207 H   0  0  0  0  0  0  0  0  0  0  0  0
    5.0292    1.5739   -5.6495 H   0  0  0  0  0  0  0  0  0  0  0  0
    3.4092    3.4551   -5.8277 H   0  0  0  0  0  0  0  0  0  0  0  0
    4.2126    6.6486   -6.2378 H   0  0  0  0  0  0  0  0  0  0  0  0
    3.8453    7.5954   -4.7593 H   0  0  0  0  0  0  0  0  0  0  0  0
    2.9888    7.9523   -6.2851 H   0  0  0  0  0  0  0  0  0  0  0  0
    2.7922    6.0292   -2.4295 H   0  0  0  0  0  0  0  0  0  0  0  0
    4.4239    4.7846   -1.1560 H   0  0  0  0  0  0  0  0  0  0  0  0
    8.6283    5.2869    1.4679 H   0  0  0  0  0  0  0  0  0  0  0  0
    5.1838    7.7200    2.3137 H   0  0  0  0  0  0  0  0  0  0  0  0
    3.7626    5.7008    2.4438 H   0  0  0  0  0  0  0  0  0  0  0  0
  1  2  1  0  0  0  0
  1 35  1  0  0  0  0
  1 36  1  0  0  0  0
  1 37  1  0  0  0  0
  2  3  1  0  0  0  0
  2 38  1  0  0  0  0
  3  4  2  0  0  0  0
  3  5  1  0  0  0  0
  5  6  1  0  0  0  0
  5 39  1  0  0  0  0
  5 40  1  0  0  0  0
  6  7  1  0  0  0  0
  6 33  1  0  0  0  0
  7  8  1  0  0  0  0
  7 41  1  0  0  0  0
  7 42  1  0  0  0  0
  8  9  1  0  0  0  0
  8 26  1  0  0  0  0
  8 43  1  0  0  0  0
  9 10  2  0  0  0  0
  9 11  1  0  0  0  0
 11 12  1  0  0  0  0
 11 44  1  0  0  0  0
 12 13  1  0  0  0  0
 12 25  2  0  0  0  0
 13 14  2  0  0  0  0
 13 45  1  0  0  0  0
 14 15  1  0  0  0  0
 15 16  2  0  0  0  0
 15 46  1  0  0  0  0
 16 17  1  0  0  0  0
 16 25  1  0  0  0  0
 17 18  2  0  0  0  0
 17 47  1  0  0  0  0
 18 19  1  0  0  0  0
 18 23  1  0  0  0  0
 19 20  1  0  0  0  0
 19 21  2  0  0  0  0
 19 22  2  0  0  0  0
 20 48  1  0  0  0  0
 20 49  1  0  0  0  0
 20 50  1  0  0  0  0
 23 24  2  0  0  0  0
 23 51  1  0  0  0  0
 24 25  1  0  0  0  0
 24 52  1  0  0  0  0
 26 27  1  0  0  0  0
 26 32  2  0  0  0  0
 27 28  2  0  0  0  0
 27 53  1  0  0  0  0
 28 29  1  0  0  0  0
 28 30  1  0  0  0  0
 30 31  2  0  0  0  0
 30 54  1  0  0  0  0
 31 32  1  0  0  0  0
 31 55  1  0  0  0  0
 32 33  1  0  0  0  0
 33 34  2  0  0  0  0
M  END
$$$$
