
 OpenBabel07202414173D

 40 43  0  0  1  0  0  0  0  0999 V2000
    1.0430    0.0409   -0.1131 Cl  0  0  0  0  0  0  0  0  0  0  0  0
    2.7601   -0.0047   -0.0106 C   0  0  0  0  0  0  0  0  0  0  0  0
    3.4932    1.1667   -0.1705 C   0  0  0  0  0  0  0  0  0  0  0  0
    4.8864    1.1229   -0.1151 C   0  0  0  0  0  0  0  0  0  0  0  0
    5.5511   -0.0907    0.1186 C   0  0  0  0  0  0  0  0  0  0  0  0
    4.8101   -1.2717    0.3058 C   0  0  0  0  0  0  0  0  0  0  0  0
    3.4076   -1.2156    0.2274 C   0  0  0  0  0  0  0  0  0  0  0  0
    5.4896   -2.5938    0.6302 C   0  0  3  0  0  0  0  0  0  0  0  0
    5.3167   -3.0258    2.1204 C   0  0  0  0  0  0  0  0  0  0  0  0
    4.3358   -2.7142    2.7950 O   0  0  0  0  0  0  0  0  0  0  0  0
    6.3459   -3.8561    2.5462 N   0  0  0  0  0  0  0  0  0  0  0  0
    6.5898   -4.3529    3.8475 C   0  0  0  0  0  0  0  0  0  0  0  0
    5.7862   -4.0296    4.9445 C   0  0  0  0  0  0  0  0  0  0  0  0
    6.0862   -4.3196    6.2298 N   0  0  0  0  0  0  0  0  0  0  0  0
    7.2130   -5.0306    6.4392 C   0  0  0  0  0  0  0  0  0  0  0  0
    8.0225   -5.5369    5.4234 C   0  0  0  0  0  0  0  0  0  0  0  0
    9.0929   -6.3997    5.7204 C   0  0  0  0  0  0  0  0  0  0  0  0
    9.8767   -6.9321    4.6997 C   0  0  0  0  0  0  0  0  0  0  0  0
    9.6207   -6.5791    3.3833 C   0  0  0  0  0  0  0  0  0  0  0  0
    8.5681   -5.7081    3.0805 C   0  0  0  0  0  0  0  0  0  0  0  0
    7.7223   -5.1798    4.0894 C   0  0  0  0  0  0  0  0  0  0  0  0
    6.9363   -2.6280    0.2339 N   0  0  0  0  0  0  0  0  0  0  0  0
    7.6265   -1.4131    0.7015 C   0  0  0  0  0  0  0  0  0  0  0  0
    7.0565   -0.1335    0.0858 C   0  0  0  0  0  0  0  0  0  0  0  0
    2.9879    2.1129   -0.3441 H   0  0  0  0  0  0  0  0  0  0  0  0
    5.4515    2.0420   -0.2577 H   0  0  0  0  0  0  0  0  0  0  0  0
    2.8166   -2.1183    0.3735 H   0  0  0  0  0  0  0  0  0  0  0  0
    5.0012   -3.3801    0.0425 H   0  0  0  0  0  0  0  0  0  0  0  0
    7.0692   -3.9710    1.8414 H   0  0  0  0  0  0  0  0  0  0  0  0
    4.8473   -3.4973    4.8380 H   0  0  0  0  0  0  0  0  0  0  0  0
    7.4480   -5.1985    7.4873 H   0  0  0  0  0  0  0  0  0  0  0  0
    9.2985   -6.6919    6.7477 H   0  0  0  0  0  0  0  0  0  0  0  0
   10.6741   -7.6326    4.9335 H   0  0  0  0  0  0  0  0  0  0  0  0
   10.2284   -6.9912    2.5832 H   0  0  0  0  0  0  0  0  0  0  0  0
    8.3958   -5.4892    2.0305 H   0  0  0  0  0  0  0  0  0  0  0  0
    6.9537   -2.6177   -0.7884 H   0  0  0  0  0  0  0  0  0  0  0  0
    8.6862   -1.4912    0.4344 H   0  0  0  0  0  0  0  0  0  0  0  0
    7.5915   -1.3544    1.7971 H   0  0  0  0  0  0  0  0  0  0  0  0
    7.3719   -0.0617   -0.9645 H   0  0  0  0  0  0  0  0  0  0  0  0
    7.4693    0.7349    0.6167 H   0  0  0  0  0  0  0  0  0  0  0  0
  1  2  1  0  0  0  0
  2  3  1  0  0  0  0
  2  7  2  0  0  0  0
  3  4  2  0  0  0  0
  3 25  1  0  0  0  0
  4  5  1  0  0  0  0
  4 26  1  0  0  0  0
  5  6  2  0  0  0  0
  5 24  1  0  0  0  0
  6  7  1  0  0  0  0
  6  8  1  0  0  0  0
  7 27  1  0  0  0  0
  8  9  1  0  0  0  0
  8 22  1  0  0  0  0
  8 28  1  0  0  0  0
  9 10  2  0  0  0  0
  9 11  1  0  0  0  0
 11 12  1  0  0  0  0
 11 29  1  0  0  0  0
 12 13  1  0  0  0  0
 12 21  2  0  0  0  0
 13 14  2  0  0  0  0
 13 30  1  0  0  0  0
 14 15  1  0  0  0  0
 15 16  2  0  0  0  0
 15 31  1  0  0  0  0
 16 17  1  0  0  0  0
 16 21  1  0  0  0  0
 17 18  2  0  0  0  0
 17 32  1  0  0  0  0
 18 19  1  0  0  0  0
 18 33  1  0  0  0  0
 19 20  2  0  0  0  0
 19 34  1  0  0  0  0
 20 21  1  0  0  0  0
 20 35  1  0  0  0  0
 22 23  1  0  0  0  0
 22 36  1  0  0  0  0
 23 24  1  0  0  0  0
 23 37  1  0  0  0  0
 23 38  1  0  0  0  0
 24 39  1  0  0  0  0
 24 40  1  0  0  0  0
M  END
$$$$
