
 OpenBabel07202414153D

 41 42  0  0  0  0  0  0  0  0999 V2000
    2.5258   -2.8588    2.4475 C   0  0  0  0  0  0  0  0  0  0  0  0
    3.6711   -2.6223    1.6411 O   0  0  0  0  0  0  0  0  0  0  0  0
    3.3820   -1.7338    0.5648 C   0  0  0  0  0  0  0  0  0  0  0  0
    4.6525   -1.4823   -0.2032 C   0  0  0  0  0  0  0  0  0  0  0  0
    5.3000   -2.5274   -0.8737 C   0  0  0  0  0  0  0  0  0  0  0  0
    6.4919   -2.2861   -1.5552 C   0  0  0  0  0  0  0  0  0  0  0  0
    7.2903   -3.5874   -2.3528 Cl  0  0  0  0  0  0  0  0  0  0  0  0
    7.0554   -1.0070   -1.5865 C   0  0  0  0  0  0  0  0  0  0  0  0
    6.4235    0.0601   -0.9324 C   0  0  0  0  0  0  0  0  0  0  0  0
    7.0817    1.4335   -0.8874 C   0  0  0  0  0  0  0  0  0  0  0  0
    6.1174    2.5142   -0.7027 N   0  0  0  0  0  0  0  0  0  0  0  0
    5.3090    2.8631   -1.8756 C   0  0  0  0  0  0  0  0  0  0  0  0
    5.6557    4.1678   -2.6239 C   0  0  0  0  0  0  0  0  0  0  0  0
    6.0285    5.2654   -1.7316 N   0  0  0  0  0  0  0  0  0  0  0  0
    5.7642    6.6121   -1.9436 C   0  0  0  0  0  0  0  0  0  0  0  0
    6.1866    7.4893   -1.1847 O   0  0  0  0  0  0  0  0  0  0  0  0
    4.9323    7.0125   -3.1528 C   0  0  0  0  0  0  0  0  0  0  0  0
    3.2052    6.8823   -2.7735 Cl  0  0  0  0  0  0  0  0  0  0  0  0
    7.0022    4.9014   -0.7074 C   0  0  0  0  0  0  0  0  0  0  0  0
    6.5725    3.6598    0.0860 C   0  0  0  0  0  0  0  0  0  0  0  0
    5.2277   -0.2023   -0.2352 C   0  0  0  0  0  0  0  0  0  0  0  0
    2.8140   -3.5218    3.2676 H   0  0  0  0  0  0  0  0  0  0  0  0
    1.7399   -3.3460    1.8628 H   0  0  0  0  0  0  0  0  0  0  0  0
    2.1541   -1.9217    2.8730 H   0  0  0  0  0  0  0  0  0  0  0  0
    2.9800   -0.7939    0.9613 H   0  0  0  0  0  0  0  0  0  0  0  0
    2.6312   -2.1761   -0.1007 H   0  0  0  0  0  0  0  0  0  0  0  0
    4.8840   -3.5312   -0.8357 H   0  0  0  0  0  0  0  0  0  0  0  0
    7.9975   -0.8510   -2.1054 H   0  0  0  0  0  0  0  0  0  0  0  0
    7.6910    1.6044   -1.7827 H   0  0  0  0  0  0  0  0  0  0  0  0
    7.7717    1.3870   -0.0346 H   0  0  0  0  0  0  0  0  0  0  0  0
    4.2787    2.9658   -1.5109 H   0  0  0  0  0  0  0  0  0  0  0  0
    5.2769    2.0425   -2.6028 H   0  0  0  0  0  0  0  0  0  0  0  0
    4.8007    4.4435   -3.2440 H   0  0  0  0  0  0  0  0  0  0  0  0
    6.5099    4.0046   -3.2911 H   0  0  0  0  0  0  0  0  0  0  0  0
    5.1686    6.4084   -4.0315 H   0  0  0  0  0  0  0  0  0  0  0  0
    5.1511    8.0559   -3.4053 H   0  0  0  0  0  0  0  0  0  0  0  0
    7.1677    5.7288   -0.0091 H   0  0  0  0  0  0  0  0  0  0  0  0
    7.9526    4.7144   -1.2216 H   0  0  0  0  0  0  0  0  0  0  0  0
    5.7282    3.9524    0.7231 H   0  0  0  0  0  0  0  0  0  0  0  0
    7.3754    3.3789    0.7790 H   0  0  0  0  0  0  0  0  0  0  0  0
    4.7403    0.6083    0.3055 H   0  0  0  0  0  0  0  0  0  0  0  0
  1  2  1  0  0  0  0
  1 22  1  0  0  0  0
  1 23  1  0  0  0  0
  1 24  1  0  0  0  0
  2  3  1  0  0  0  0
  3  4  1  0  0  0  0
  3 25  1  0  0  0  0
  3 26  1  0  0  0  0
  4  5  1  0  0  0  0
  4 21  2  0  0  0  0
  5  6  2  0  0  0  0
  5 27  1  0  0  0  0
  6  7  1  0  0  0  0
  6  8  1  0  0  0  0
  8  9  2  0  0  0  0
  8 28  1  0  0  0  0
  9 10  1  0  0  0  0
  9 21  1  0  0  0  0
 10 11  1  0  0  0  0
 10 29  1  0  0  0  0
 10 30  1  0  0  0  0
 11 12  1  0  0  0  0
 11 20  1  0  0  0  0
 12 13  1  0  0  0  0
 12 31  1  0  0  0  0
 12 32  1  0  0  0  0
 13 14  1  0  0  0  0
 13 33  1  0  0  0  0
 13 34  1  0  0  0  0
 14 15  1  0  0  0  0
 14 19  1  0  0  0  0
 15 16  2  0  0  0  0
 15 17  1  0  0  0  0
 17 18  1  0  0  0  0
 17 35  1  0  0  0  0
 17 36  1  0  0  0  0
 19 20  1  0  0  0  0
 19 37  1  0  0  0  0
 19 38  1  0  0  0  0
 20 39  1  0  0  0  0
 20 40  1  0  0  0  0
 21 41  1  0  0  0  0
M  END
$$$$
