
 OpenBabel07202414193D

 51 55  0  0  0  0  0  0  0  0999 V2000
    0.9456    0.1826    0.1152 O   0  0  0  0  0  0  0  0  0  0  0  0
    2.1774    0.1336    0.0644 C   0  0  0  0  0  0  0  0  0  0  0  0
    2.9637   -0.8091    0.9815 C   0  0  0  0  0  0  0  0  0  0  0  0
    2.1400   -1.9967    1.4361 C   0  0  0  0  0  0  0  0  0  0  0  0
    2.1588   -3.1485    0.6420 C   0  0  0  0  0  0  0  0  0  0  0  0
    1.4174   -4.2503    0.8726 N   0  0  0  0  0  0  0  0  0  0  0  0
    0.5803   -4.1945    1.9304 C   0  0  0  0  0  0  0  0  0  0  0  0
    0.4588   -3.1043    2.7946 C   0  0  0  0  0  0  0  0  0  0  0  0
   -0.4610   -3.1136    3.8589 C   0  0  0  0  0  0  0  0  0  0  0  0
   -0.5682   -2.0189    4.7133 C   0  0  0  0  0  0  0  0  0  0  0  0
    0.2511   -0.9137    4.5204 C   0  0  0  0  0  0  0  0  0  0  0  0
    1.1586   -0.8905    3.4572 C   0  0  0  0  0  0  0  0  0  0  0  0
    1.2755   -1.9773    2.5603 C   0  0  0  0  0  0  0  0  0  0  0  0
    2.8861    0.9424   -0.8193 N   0  0  0  0  0  0  0  0  0  0  0  0
    2.1308    1.8460   -1.6964 C   0  0  0  0  0  0  0  0  0  0  0  0
    2.0318    3.2418   -1.1206 C   0  0  0  0  0  0  0  0  0  0  0  0
    2.9098    4.2522   -1.5358 C   0  0  0  0  0  0  0  0  0  0  0  0
    2.9182    5.5123   -0.9266 C   0  0  0  0  0  0  0  0  0  0  0  0
    2.0317    5.7226    0.1343 C   0  0  0  0  0  0  0  0  0  0  0  0
    1.8710    6.8140    0.9582 N   0  0  0  0  0  0  0  0  0  0  0  0
    0.9078    6.5595    1.8986 C   0  0  0  0  0  0  0  0  0  0  0  0
    0.3944    5.3081    1.6459 C   0  0  0  0  0  0  0  0  0  0  0  0
    1.1163    4.7578    0.5515 C   0  0  0  0  0  0  0  0  0  0  0  0
    1.0971    3.5123   -0.1040 C   0  0  0  0  0  0  0  0  0  0  0  0
    4.3445    1.0481   -0.8419 C   0  0  0  0  0  0  0  0  0  0  0  0
    4.9495   -0.0703   -1.6447 C   0  0  0  0  0  0  0  0  0  0  0  0
    4.4575   -0.7342   -2.7542 C   0  0  0  0  0  0  0  0  0  0  0  0
    5.3222   -1.7779   -3.1938 C   0  0  0  0  0  0  0  0  0  0  0  0
    6.4603   -1.8628   -2.4254 C   0  0  0  0  0  0  0  0  0  0  0  0
    6.4938   -0.6774   -1.1966 S   0  0  0  0  0  0  0  0  0  0  0  0
    3.3472   -0.2423    1.8362 H   0  0  0  0  0  0  0  0  0  0  0  0
    3.8405   -1.2048    0.4649 H   0  0  0  0  0  0  0  0  0  0  0  0
    2.7882   -3.2124   -0.2406 H   0  0  0  0  0  0  0  0  0  0  0  0
   -0.0220   -5.0887    2.0691 H   0  0  0  0  0  0  0  0  0  0  0  0
   -1.1101   -3.9719    4.0191 H   0  0  0  0  0  0  0  0  0  0  0  0
   -1.2923   -2.0277    5.5234 H   0  0  0  0  0  0  0  0  0  0  0  0
    0.1782   -0.0590    5.1880 H   0  0  0  0  0  0  0  0  0  0  0  0
    1.7683    0.0008    3.3371 H   0  0  0  0  0  0  0  0  0  0  0  0
    1.1208    1.4556   -1.8698 H   0  0  0  0  0  0  0  0  0  0  0  0
    2.6170    1.8659   -2.6792 H   0  0  0  0  0  0  0  0  0  0  0  0
    3.6229    4.0594   -2.3351 H   0  0  0  0  0  0  0  0  0  0  0  0
    3.6150    6.2804   -1.2459 H   0  0  0  0  0  0  0  0  0  0  0  0
    2.4182    7.6614    0.8996 H   0  0  0  0  0  0  0  0  0  0  0  0
    0.6732    7.2861    2.6645 H   0  0  0  0  0  0  0  0  0  0  0  0
   -0.3871    4.8181    2.2118 H   0  0  0  0  0  0  0  0  0  0  0  0
    0.3908    2.7477    0.2129 H   0  0  0  0  0  0  0  0  0  0  0  0
    4.7047    1.0313    0.1952 H   0  0  0  0  0  0  0  0  0  0  0  0
    4.6463    2.0054   -1.2776 H   0  0  0  0  0  0  0  0  0  0  0  0
    3.5064   -0.5027   -3.2192 H   0  0  0  0  0  0  0  0  0  0  0  0
    5.1162   -2.4370   -4.0287 H   0  0  0  0  0  0  0  0  0  0  0  0
    7.2790   -2.5621   -2.5294 H   0  0  0  0  0  0  0  0  0  0  0  0
  1  2  2  0  0  0  0
  2  3  1  0  0  0  0
  2 14  1  0  0  0  0
  3  4  1  0  0  0  0
  3 31  1  0  0  0  0
  3 32  1  0  0  0  0
  4  5  1  0  0  0  0
  4 13  2  0  0  0  0
  5  6  2  0  0  0  0
  5 33  1  0  0  0  0
  6  7  1  0  0  0  0
  7  8  2  0  0  0  0
  7 34  1  0  0  0  0
  8  9  1  0  0  0  0
  8 13  1  0  0  0  0
  9 10  2  0  0  0  0
  9 35  1  0  0  0  0
 10 11  1  0  0  0  0
 10 36  1  0  0  0  0
 11 12  2  0  0  0  0
 11 37  1  0  0  0  0
 12 13  1  0  0  0  0
 12 38  1  0  0  0  0
 14 15  1  0  0  0  0
 14 25  1  0  0  0  0
 15 16  1  0  0  0  0
 15 39  1  0  0  0  0
 15 40  1  0  0  0  0
 16 17  1  0  0  0  0
 16 24  2  0  0  0  0
 17 18  2  0  0  0  0
 17 41  1  0  0  0  0
 18 19  1  0  0  0  0
 18 42  1  0  0  0  0
 19 20  1  0  0  0  0
 19 23  2  0  0  0  0
 20 21  1  0  0  0  0
 20 43  1  0  0  0  0
 21 22  2  0  0  0  0
 21 44  1  0  0  0  0
 22 23  1  0  0  0  0
 22 45  1  0  0  0  0
 23 24  1  0  0  0  0
 24 46  1  0  0  0  0
 25 26  1  0  0  0  0
 25 47  1  0  0  0  0
 25 48  1  0  0  0  0
 26 27  2  0  0  0  0
 26 30  1  0  0  0  0
 27 28  1  0  0  0  0
 27 49  1  0  0  0  0
 28 29  2  0  0  0  0
 28 50  1  0  0  0  0
 29 30  1  0  0  0  0
 29 51  1  0  0  0  0
M  END
$$$$
