
 OpenBabel07202414173D

 63 67  0  0  1  0  0  0  0  0999 V2000
    0.8887   -0.0001    0.0041 Cl  0  0  0  0  0  0  0  0  0  0  0  0
    2.6000   -0.0850   -0.0701 C   0  0  0  0  0  0  0  0  0  0  0  0
    3.3589    1.0758   -0.0567 C   0  0  0  0  0  0  0  0  0  0  0  0
    4.7460    1.0045   -0.1035 C   0  0  0  0  0  0  0  0  0  0  0  0
    5.3951   -0.2440   -0.1800 C   0  0  0  0  0  0  0  0  0  0  0  0
    4.6282   -1.4201   -0.2765 C   0  0  0  0  0  0  0  0  0  0  0  0
    3.2280   -1.3378   -0.1692 C   0  0  0  0  0  0  0  0  0  0  0  0
    5.3082   -2.7723   -0.4922 C   0  0  1  0  0  0  0  0  0  0  0  0
    4.6927   -3.6075   -1.6533 C   0  0  0  0  0  0  0  0  0  0  0  0
    4.7566   -4.8251   -1.6520 O   0  0  0  0  0  0  0  0  0  0  0  0
    4.1489   -2.8385   -2.6726 N   0  0  0  0  0  0  0  0  0  0  0  0
    3.5687   -3.2409   -3.8983 C   0  0  0  0  0  0  0  0  0  0  0  0
    3.4699   -4.5674   -4.3021 C   0  0  0  0  0  0  0  0  0  0  0  0
    3.2743   -4.9412   -5.5877 N   0  0  0  0  0  0  0  0  0  0  0  0
    3.0377   -3.9527   -6.4770 C   0  0  0  0  0  0  0  0  0  0  0  0
    2.8131   -2.6224   -6.1294 C   0  0  0  0  0  0  0  0  0  0  0  0
    2.2863   -1.6933   -7.0491 C   0  0  0  0  0  0  0  0  0  0  0  0
    2.0834   -0.3655   -6.6825 C   0  0  0  0  0  0  0  0  0  0  0  0
    2.4535    0.0588   -5.4131 C   0  0  0  0  0  0  0  0  0  0  0  0
    2.9659   -0.8608   -4.4923 C   0  0  0  0  0  0  0  0  0  0  0  0
    3.1277   -2.2352   -4.8106 C   0  0  0  0  0  0  0  0  0  0  0  0
    6.8357   -2.6353   -0.7546 C   0  0  0  0  0  0  0  0  0  0  0  0
    7.4456   -1.6060    0.1033 N   0  0  0  0  0  0  0  0  0  0  0  0
    8.9259   -1.5927    0.0882 C   0  0  0  0  0  0  0  0  0  0  0  0
    9.5171   -1.2319   -1.2772 C   0  0  0  0  0  0  0  0  0  0  0  0
    9.6074   -0.0678   -1.6643 O   0  0  0  0  0  0  0  0  0  0  0  0
    9.8918   -2.3104   -2.0553 N   0  0  0  0  0  0  0  0  0  0  0  0
   10.2163   -2.1005   -3.4534 C   0  0  0  0  0  0  0  0  0  0  0  0
   11.0500   -3.2301   -4.0521 C   0  0  0  0  0  0  0  0  0  0  0  0
   11.4678   -2.8887   -5.4627 C   0  0  0  0  0  0  0  0  0  0  0  0
   12.6462   -2.1654   -5.6926 C   0  0  0  0  0  0  0  0  0  0  0  0
   13.0092   -1.7936   -6.9887 C   0  0  0  0  0  0  0  0  0  0  0  0
   12.1956   -2.1331   -8.0724 C   0  0  0  0  0  0  0  0  0  0  0  0
   12.7003   -1.6273   -9.6457 Cl  0  0  0  0  0  0  0  0  0  0  0  0
   11.0158   -2.8519   -7.8549 C   0  0  0  0  0  0  0  0  0  0  0  0
    9.9526   -3.2965   -9.1426 Cl  0  0  0  0  0  0  0  0  0  0  0  0
   10.6553   -3.2276   -6.5541 C   0  0  0  0  0  0  0  0  0  0  0  0
    6.9056   -0.2793   -0.2285 C   0  0  0  0  0  0  0  0  0  0  0  0
    2.8689    2.0478    0.0041 H   0  0  0  0  0  0  0  0  0  0  0  0
    5.3354    1.9179   -0.0776 H   0  0  0  0  0  0  0  0  0  0  0  0
    2.6211   -2.2393   -0.1806 H   0  0  0  0  0  0  0  0  0  0  0  0
    5.1589   -3.3456    0.4277 H   0  0  0  0  0  0  0  0  0  0  0  0
    4.3014   -1.8427   -2.5910 H   0  0  0  0  0  0  0  0  0  0  0  0
    3.5752   -5.3996   -3.6125 H   0  0  0  0  0  0  0  0  0  0  0  0
    3.0464   -4.2665   -7.5176 H   0  0  0  0  0  0  0  0  0  0  0  0
    1.9820   -2.0146   -8.0432 H   0  0  0  0  0  0  0  0  0  0  0  0
    1.6325    0.3357   -7.3807 H   0  0  0  0  0  0  0  0  0  0  0  0
    2.3255    1.0982   -5.1270 H   0  0  0  0  0  0  0  0  0  0  0  0
    3.1892   -0.4786   -3.4998 H   0  0  0  0  0  0  0  0  0  0  0  0
    7.0261   -2.4167   -1.8133 H   0  0  0  0  0  0  0  0  0  0  0  0
    7.3030   -3.6084   -0.5490 H   0  0  0  0  0  0  0  0  0  0  0  0
    9.3215   -2.5550    0.4295 H   0  0  0  0  0  0  0  0  0  0  0  0
    9.2980   -0.8501    0.8100 H   0  0  0  0  0  0  0  0  0  0  0  0
    9.6653   -3.2439   -1.7333 H   0  0  0  0  0  0  0  0  0  0  0  0
   10.7485   -1.1468   -3.5478 H   0  0  0  0  0  0  0  0  0  0  0  0
    9.2675   -1.9923   -3.9941 H   0  0  0  0  0  0  0  0  0  0  0  0
   10.4890   -4.1734   -4.0400 H   0  0  0  0  0  0  0  0  0  0  0  0
   11.9417   -3.4066   -3.4373 H   0  0  0  0  0  0  0  0  0  0  0  0
   13.2872   -1.8772   -4.8605 H   0  0  0  0  0  0  0  0  0  0  0  0
   13.9275   -1.2318   -7.1461 H   0  0  0  0  0  0  0  0  0  0  0  0
    9.7313   -3.7800   -6.3927 H   0  0  0  0  0  0  0  0  0  0  0  0
    7.2017    0.0490   -1.2305 H   0  0  0  0  0  0  0  0  0  0  0  0
    7.2838    0.4470    0.5014 H   0  0  0  0  0  0  0  0  0  0  0  0
  1  2  1  0  0  0  0
  2  3  1  0  0  0  0
  2  7  2  0  0  0  0
  3  4  2  0  0  0  0
  3 39  1  0  0  0  0
  4  5  1  0  0  0  0
  4 40  1  0  0  0  0
  5  6  2  0  0  0  0
  5 38  1  0  0  0  0
  6  7  1  0  0  0  0
  6  8  1  0  0  0  0
  7 41  1  0  0  0  0
  8 22  1  0  0  0  0
  8  9  1  0  0  0  0
  8 42  1  1  0  0  0
  9 10  2  0  0  0  0
  9 11  1  0  0  0  0
 11 12  1  0  0  0  0
 11 43  1  0  0  0  0
 12 13  1  0  0  0  0
 12 21  2  0  0  0  0
 13 14  2  0  0  0  0
 13 44  1  0  0  0  0
 14 15  1  0  0  0  0
 15 16  2  0  0  0  0
 15 45  1  0  0  0  0
 16 17  1  0  0  0  0
 16 21  1  0  0  0  0
 17 18  2  0  0  0  0
 17 46  1  0  0  0  0
 18 19  1  0  0  0  0
 18 47  1  0  0  0  0
 19 20  2  0  0  0  0
 19 48  1  0  0  0  0
 20 21  1  0  0  0  0
 20 49  1  0  0  0  0
 22 23  1  0  0  0  0
 22 50  1  0  0  0  0
 22 51  1  0  0  0  0
 23 24  1  0  0  0  0
 23 38  1  0  0  0  0
 24 25  1  0  0  0  0
 24 52  1  0  0  0  0
 24 53  1  0  0  0  0
 25 26  2  0  0  0  0
 25 27  1  0  0  0  0
 27 28  1  0  0  0  0
 27 54  1  0  0  0  0
 28 29  1  0  0  0  0
 28 55  1  0  0  0  0
 28 56  1  0  0  0  0
 29 30  1  0  0  0  0
 29 57  1  0  0  0  0
 29 58  1  0  0  0  0
 30 31  1  0  0  0  0
 30 37  2  0  0  0  0
 31 32  2  0  0  0  0
 31 59  1  0  0  0  0
 32 33  1  0  0  0  0
 32 60  1  0  0  0  0
 33 34  1  0  0  0  0
 33 35  2  0  0  0  0
 35 36  1  0  0  0  0
 35 37  1  0  0  0  0
 37 61  1  0  0  0  0
 38 62  1  0  0  0  0
 38 63  1  0  0  0  0
M  END
$$$$
