
 OpenBabel07202414123D

 62 65  0  0  1  0  0  0  0  0999 V2000
    3.6092    1.2215    0.2782 C   0  0  0  0  0  0  0  0  0  0  0  0
    2.4789    0.1880    0.0429 C   0  0  0  0  0  0  0  0  0  0  0  0
    1.1589    0.7992    0.5485 C   0  0  0  0  0  0  0  0  0  0  0  0
    2.3837   -0.0028   -1.4876 C   0  0  0  0  0  0  0  0  0  0  0  0
    2.7351   -1.1436    0.7738 C   0  0  0  0  0  0  0  0  0  0  0  0
    3.5578   -1.2091    1.8990 C   0  0  0  0  0  0  0  0  0  0  0  0
    3.8631   -2.4285    2.5273 C   0  0  0  0  0  0  0  0  0  0  0  0
    3.3281   -3.6542    2.1105 C   0  0  0  0  0  0  0  0  0  0  0  0
    3.7218   -4.9267    2.7366 N   0  0  0  0  0  0  0  0  0  0  0  0
    3.4872   -6.1971    1.9631 C   0  0  3  0  0  0  0  0  0  0  0  0
    4.8324   -6.8439    1.4985 C   0  0  0  0  0  0  0  0  0  0  0  0
    4.9615   -8.0199    1.1703 O   0  0  0  0  0  0  0  0  0  0  0  0
    5.8516   -5.9226    1.3010 N   0  0  0  0  0  0  0  0  0  0  0  0
    7.1749   -6.3153    0.8736 C   0  0  0  0  0  0  0  0  0  0  0  0
    8.1981   -5.3309    1.3615 C   0  0  0  0  0  0  0  0  0  0  0  0
    8.3684   -5.0743    2.7263 C   0  0  0  0  0  0  0  0  0  0  0  0
    9.3220   -4.1531    3.1477 C   0  0  0  0  0  0  0  0  0  0  0  0
   10.0871   -3.5184    2.1848 C   0  0  0  0  0  0  0  0  0  0  0  0
    9.9614   -3.7437    0.8589 N   0  0  0  0  0  0  0  0  0  0  0  0
    9.0253   -4.6473    0.4778 C   0  0  0  0  0  0  0  0  0  0  0  0
    2.3953   -7.1184    2.5062 C   0  0  0  0  0  0  0  0  0  0  0  0
    1.6753   -6.8671    3.6844 C   0  0  0  0  0  0  0  0  0  0  0  0
    0.6335   -7.7070    4.0739 C   0  0  0  0  0  0  0  0  0  0  0  0
    0.3075   -8.7698    3.2543 C   0  0  0  0  0  0  0  0  0  0  0  0
    0.9667   -9.0578    2.1148 N   0  0  0  0  0  0  0  0  0  0  0  0
    1.9969   -8.2426    1.7787 C   0  0  0  0  0  0  0  0  0  0  0  0
    4.3422   -4.9374    4.0265 C   0  0  0  0  0  0  0  0  0  0  0  0
    4.4404   -3.9285    4.7266 O   0  0  0  0  0  0  0  0  0  0  0  0
    4.8791   -6.1716    4.6209 C   0  0  0  0  0  0  0  0  0  0  0  0
    5.6070   -6.1989    5.7967 C   0  0  0  0  0  0  0  0  0  0  0  0
    5.8980   -7.4911    6.1055 O   0  0  0  0  0  0  0  0  0  0  0  0
    5.3232   -8.1962    5.0949 C   0  0  0  0  0  0  0  0  0  0  0  0
    4.7377   -7.4655    4.1782 N   0  0  0  0  0  0  0  0  0  0  0  0
    2.4296   -3.5724    1.0338 C   0  0  0  0  0  0  0  0  0  0  0  0
    2.1484   -2.3516    0.3755 C   0  0  0  0  0  0  0  0  0  0  0  0
    3.4653    2.1186   -0.3360 H   0  0  0  0  0  0  0  0  0  0  0  0
    4.5906    0.8028    0.0245 H   0  0  0  0  0  0  0  0  0  0  0  0
    3.6450    1.5638    1.3185 H   0  0  0  0  0  0  0  0  0  0  0  0
    0.9553    1.7588    0.0575 H   0  0  0  0  0  0  0  0  0  0  0  0
    1.1914    0.9823    1.6291 H   0  0  0  0  0  0  0  0  0  0  0  0
    0.3067    0.1399    0.3506 H   0  0  0  0  0  0  0  0  0  0  0  0
    2.2712    0.9613   -1.9997 H   0  0  0  0  0  0  0  0  0  0  0  0
    1.5214   -0.6110   -1.7782 H   0  0  0  0  0  0  0  0  0  0  0  0
    3.2849   -0.4851   -1.8843 H   0  0  0  0  0  0  0  0  0  0  0  0
    4.0089   -0.3152    2.3225 H   0  0  0  0  0  0  0  0  0  0  0  0
    4.5729   -2.3447    3.3425 H   0  0  0  0  0  0  0  0  0  0  0  0
    3.0897   -5.9166    0.9830 H   0  0  0  0  0  0  0  0  0  0  0  0
    5.6130   -4.9372    1.2732 H   0  0  0  0  0  0  0  0  0  0  0  0
    7.1626   -6.3688   -0.2209 H   0  0  0  0  0  0  0  0  0  0  0  0
    7.4120   -7.3156    1.2528 H   0  0  0  0  0  0  0  0  0  0  0  0
    7.7608   -5.5945    3.4624 H   0  0  0  0  0  0  0  0  0  0  0  0
    9.4659   -3.9375    4.2005 H   0  0  0  0  0  0  0  0  0  0  0  0
   10.8462   -2.7922    2.4625 H   0  0  0  0  0  0  0  0  0  0  0  0
    8.9620   -4.7977   -0.5953 H   0  0  0  0  0  0  0  0  0  0  0  0
    1.9060   -6.0213    4.3247 H   0  0  0  0  0  0  0  0  0  0  0  0
    0.0828   -7.5245    4.9900 H   0  0  0  0  0  0  0  0  0  0  0  0
   -0.5199   -9.4309    3.4957 H   0  0  0  0  0  0  0  0  0  0  0  0
    2.4960   -8.5311    0.8556 H   0  0  0  0  0  0  0  0  0  0  0  0
    5.9539   -5.4422    6.4865 H   0  0  0  0  0  0  0  0  0  0  0  0
    5.4068   -9.2746    5.1454 H   0  0  0  0  0  0  0  0  0  0  0  0
    1.8787   -4.4342    0.6664 H   0  0  0  0  0  0  0  0  0  0  0  0
    1.4494   -2.3776   -0.4582 H   0  0  0  0  0  0  0  0  0  0  0  0
  1  2  1  0  0  0  0
  1 36  1  0  0  0  0
  1 37  1  0  0  0  0
  1 38  1  0  0  0  0
  2  3  1  0  0  0  0
  2  4  1  0  0  0  0
  2  5  1  0  0  0  0
  3 39  1  0  0  0  0
  3 40  1  0  0  0  0
  3 41  1  0  0  0  0
  4 42  1  0  0  0  0
  4 43  1  0  0  0  0
  4 44  1  0  0  0  0
  5  6  1  0  0  0  0
  5 35  2  0  0  0  0
  6  7  2  0  0  0  0
  6 45  1  0  0  0  0
  7  8  1  0  0  0  0
  7 46  1  0  0  0  0
  8  9  1  0  0  0  0
  8 34  2  0  0  0  0
  9 10  1  0  0  0  0
  9 27  1  0  0  0  0
 10 11  1  0  0  0  0
 10 21  1  0  0  0  0
 10 47  1  0  0  0  0
 11 12  2  0  0  0  0
 11 13  1  0  0  0  0
 13 14  1  0  0  0  0
 13 48  1  0  0  0  0
 14 15  1  0  0  0  0
 14 49  1  0  0  0  0
 14 50  1  0  0  0  0
 15 16  1  0  0  0  0
 15 20  2  0  0  0  0
 16 17  2  0  0  0  0
 16 51  1  0  0  0  0
 17 18  1  0  0  0  0
 17 52  1  0  0  0  0
 18 19  2  0  0  0  0
 18 53  1  0  0  0  0
 19 20  1  0  0  0  0
 20 54  1  0  0  0  0
 21 22  1  0  0  0  0
 21 26  2  0  0  0  0
 22 23  2  0  0  0  0
 22 55  1  0  0  0  0
 23 24  1  0  0  0  0
 23 56  1  0  0  0  0
 24 25  2  0  0  0  0
 24 57  1  0  0  0  0
 25 26  1  0  0  0  0
 26 58  1  0  0  0  0
 27 28  2  0  0  0  0
 27 29  1  0  0  0  0
 29 30  2  0  0  0  0
 29 33  1  0  0  0  0
 30 31  1  0  0  0  0
 30 59  1  0  0  0  0
 31 32  1  0  0  0  0
 32 33  2  0  0  0  0
 32 60  1  0  0  0  0
 34 35  1  0  0  0  0
 34 61  1  0  0  0  0
 35 62  1  0  0  0  0
M  END
$$$$
