
 OpenBabel07202414163D

 52 56  0  0  1  0  0  0  0  0999 V2000
    4.1257   -3.0261   -2.7188 C   0  0  0  0  0  0  0  0  0  0  0  0
    4.3014   -3.8652   -1.5047 C   0  0  0  0  0  0  0  0  0  0  0  0
    5.0325   -4.9628   -1.4726 N   0  0  0  0  0  0  0  0  0  0  0  0
    4.9680   -5.4289   -0.1904 C   0  0  0  0  0  0  0  0  0  0  0  0
    4.1816   -4.6125    0.5809 C   0  0  0  0  0  0  0  0  0  0  0  0
    3.7413   -3.6234   -0.2677 N   0  0  0  0  0  0  0  0  0  0  0  0
    2.9981   -2.4546    0.1764 C   0  0  0  0  0  0  0  0  0  0  0  0
    1.4995   -2.5818    0.0295 C   0  0  0  0  0  0  0  0  0  0  0  0
    0.8737   -2.0563   -1.1040 C   0  0  0  0  0  0  0  0  0  0  0  0
   -0.5193   -1.9884   -1.1844 C   0  0  0  0  0  0  0  0  0  0  0  0
   -1.3505   -2.4485   -0.1431 C   0  0  0  0  0  0  0  0  0  0  0  0
   -2.7616   -2.2816   -0.1209 C   0  0  0  0  0  0  0  0  0  0  0  0
   -3.4335   -1.6968   -1.2244 N   0  0  0  0  0  0  0  0  0  0  0  0
   -4.3441   -0.6618   -1.0814 C   0  0  0  0  0  0  0  0  0  0  0  0
   -4.7292   -0.2332    0.0052 O   0  0  0  0  0  0  0  0  0  0  0  0
   -4.8928   -0.0584   -2.3856 C   0  0  3  0  0  0  0  0  0  0  0  0
   -6.2380   -0.6906   -2.7367 C   0  0  0  0  0  0  0  0  0  0  0  0
   -6.0281   -1.9868   -3.4991 C   0  0  0  0  0  0  0  0  0  0  0  0
   -5.3105   -1.7921   -4.7198 O   0  0  0  0  0  0  0  0  0  0  0  0
   -4.2047   -0.9945   -4.6347 C   0  0  0  0  0  0  0  0  0  0  0  0
   -3.3237   -1.0598   -5.7155 C   0  0  0  0  0  0  0  0  0  0  0  0
   -2.1600   -0.2893   -5.7222 C   0  0  0  0  0  0  0  0  0  0  0  0
   -1.8917    0.5608   -4.6530 C   0  0  0  0  0  0  0  0  0  0  0  0
   -0.4429    1.4866   -4.6370 Cl  0  0  0  0  0  0  0  0  0  0  0  0
   -2.7812    0.6518   -3.5824 C   0  0  0  0  0  0  0  0  0  0  0  0
   -3.9472   -0.1325   -3.5630 C   0  0  0  0  0  0  0  0  0  0  0  0
   -3.4641   -2.7159    1.0018 C   0  0  0  0  0  0  0  0  0  0  0  0
   -2.8932   -3.3362    2.0599 N   0  0  0  0  0  0  0  0  0  0  0  0
   -1.5468   -3.4779    2.0202 C   0  0  0  0  0  0  0  0  0  0  0  0
   -0.7235   -3.0361    0.9808 C   0  0  0  0  0  0  0  0  0  0  0  0
    0.6899   -3.1093    1.0486 C   0  0  0  0  0  0  0  0  0  0  0  0
    4.8866   -3.2885   -3.4650 H   0  0  0  0  0  0  0  0  0  0  0  0
    4.2358   -1.9602   -2.5063 H   0  0  0  0  0  0  0  0  0  0  0  0
    3.1473   -3.2062   -3.1727 H   0  0  0  0  0  0  0  0  0  0  0  0
    5.5026   -6.3193    0.1117 H   0  0  0  0  0  0  0  0  0  0  0  0
    3.9209   -4.6390    1.6273 H   0  0  0  0  0  0  0  0  0  0  0  0
    3.3706   -1.5834   -0.3726 H   0  0  0  0  0  0  0  0  0  0  0  0
    3.2521   -2.2725    1.2297 H   0  0  0  0  0  0  0  0  0  0  0  0
    1.4633   -1.6375   -1.9157 H   0  0  0  0  0  0  0  0  0  0  0  0
   -0.9344   -1.5009   -2.0647 H   0  0  0  0  0  0  0  0  0  0  0  0
   -2.9643   -1.7682   -2.1171 H   0  0  0  0  0  0  0  0  0  0  0  0
   -5.0693    1.0062   -2.1760 H   0  0  0  0  0  0  0  0  0  0  0  0
   -6.7964    0.0049   -3.3774 H   0  0  0  0  0  0  0  0  0  0  0  0
   -6.8422   -0.8687   -1.8402 H   0  0  0  0  0  0  0  0  0  0  0  0
   -7.0028   -2.4093   -3.7662 H   0  0  0  0  0  0  0  0  0  0  0  0
   -5.5087   -2.7397   -2.8955 H   0  0  0  0  0  0  0  0  0  0  0  0
   -3.5413   -1.7197   -6.5523 H   0  0  0  0  0  0  0  0  0  0  0  0
   -1.4736   -0.3571   -6.5622 H   0  0  0  0  0  0  0  0  0  0  0  0
   -2.5651    1.3309   -2.7591 H   0  0  0  0  0  0  0  0  0  0  0  0
   -4.5430   -2.6138    1.0684 H   0  0  0  0  0  0  0  0  0  0  0  0
   -1.1318   -3.9603    2.9034 H   0  0  0  0  0  0  0  0  0  0  0  0
    1.1580   -3.5303    1.9399 H   0  0  0  0  0  0  0  0  0  0  0  0
  1  2  1  0  0  0  0
  1 32  1  0  0  0  0
  1 33  1  0  0  0  0
  1 34  1  0  0  0  0
  2  3  2  0  0  0  0
  2  6  1  0  0  0  0
  3  4  1  0  0  0  0
  4  5  2  0  0  0  0
  4 35  1  0  0  0  0
  5  6  1  0  0  0  0
  5 36  1  0  0  0  0
  6  7  1  0  0  0  0
  7  8  1  0  0  0  0
  7 37  1  0  0  0  0
  7 38  1  0  0  0  0
  8  9  1  0  0  0  0
  8 31  2  0  0  0  0
  9 10  2  0  0  0  0
  9 39  1  0  0  0  0
 10 11  1  0  0  0  0
 10 40  1  0  0  0  0
 11 12  1  0  0  0  0
 11 30  2  0  0  0  0
 12 13  1  0  0  0  0
 12 27  2  0  0  0  0
 13 14  1  0  0  0  0
 13 41  1  0  0  0  0
 14 15  2  0  0  0  0
 14 16  1  0  0  0  0
 16 17  1  0  0  0  0
 16 26  1  0  0  0  0
 16 42  1  0  0  0  0
 17 18  1  0  0  0  0
 17 43  1  0  0  0  0
 17 44  1  0  0  0  0
 18 19  1  0  0  0  0
 18 45  1  0  0  0  0
 18 46  1  0  0  0  0
 19 20  1  0  0  0  0
 20 21  1  0  0  0  0
 20 26  2  0  0  0  0
 21 22  2  0  0  0  0
 21 47  1  0  0  0  0
 22 23  1  0  0  0  0
 22 48  1  0  0  0  0
 23 24  1  0  0  0  0
 23 25  2  0  0  0  0
 25 26  1  0  0  0  0
 25 49  1  0  0  0  0
 27 28  1  0  0  0  0
 27 50  1  0  0  0  0
 28 29  2  0  0  0  0
 29 30  1  0  0  0  0
 29 51  1  0  0  0  0
 30 31  1  0  0  0  0
 31 52  1  0  0  0  0
M  END
$$$$
