
 OpenBabel07202414153D

 44 45  0  0  0  0  0  0  0  0999 V2000
    6.8741    2.2990   -7.7136 C   0  0  0  0  0  0  0  0  0  0  0  0
    6.0703    2.5128   -6.5645 O   0  0  0  0  0  0  0  0  0  0  0  0
    4.7903    1.8817   -6.6097 C   0  0  0  0  0  0  0  0  0  0  0  0
    4.7962    0.3628   -6.3842 C   0  0  0  0  0  0  0  0  0  0  0  0
    5.2728   -0.3511   -5.1221 C   0  0  0  0  0  0  0  0  0  0  0  0
    5.0918   -1.7603   -5.1583 C   0  0  0  0  0  0  0  0  0  0  0  0
    5.5167   -2.6012   -4.1246 C   0  0  0  0  0  0  0  0  0  0  0  0
    6.1763   -2.0613   -3.0345 C   0  0  0  0  0  0  0  0  0  0  0  0
    6.7292   -3.0792   -1.7652 Cl  0  0  0  0  0  0  0  0  0  0  0  0
    6.3399   -0.6806   -2.9522 C   0  0  0  0  0  0  0  0  0  0  0  0
    5.8460    0.1912   -3.9584 C   0  0  0  0  0  0  0  0  0  0  0  0
    5.8419    1.6625   -3.5870 C   0  0  0  0  0  0  0  0  0  0  0  0
    5.0013    1.9389   -2.4190 N   0  0  0  0  0  0  0  0  0  0  0  0
    3.6188    1.4340   -2.4691 C   0  0  0  0  0  0  0  0  0  0  0  0
    2.5081    2.3884   -2.9209 C   0  0  0  0  0  0  0  0  0  0  0  0
    2.6380    3.7387   -2.3857 N   0  0  0  0  0  0  0  0  0  0  0  0
    1.4739    4.4963   -2.2824 C   0  0  0  0  0  0  0  0  0  0  0  0
    0.3527    3.9954   -2.4567 O   0  0  0  0  0  0  0  0  0  0  0  0
    1.5859    5.9715   -1.9748 C   0  0  0  0  0  0  0  0  0  0  0  0
    1.9254    6.2190   -0.2488 Cl  0  0  0  0  0  0  0  0  0  0  0  0
    3.9854    4.2999   -2.4773 C   0  0  0  0  0  0  0  0  0  0  0  0
    5.0880    3.3404   -1.9893 C   0  0  0  0  0  0  0  0  0  0  0  0
    7.7423    2.9609   -7.6463 H   0  0  0  0  0  0  0  0  0  0  0  0
    6.3274    2.5447   -8.6284 H   0  0  0  0  0  0  0  0  0  0  0  0
    7.2312    1.2661   -7.7447 H   0  0  0  0  0  0  0  0  0  0  0  0
    4.3263    2.1015   -7.5794 H   0  0  0  0  0  0  0  0  0  0  0  0
    4.1479    2.3687   -5.8682 H   0  0  0  0  0  0  0  0  0  0  0  0
    5.3757   -0.0768   -7.2049 H   0  0  0  0  0  0  0  0  0  0  0  0
    3.7539    0.0477   -6.5275 H   0  0  0  0  0  0  0  0  0  0  0  0
    4.5861   -2.2193   -6.0067 H   0  0  0  0  0  0  0  0  0  0  0  0
    5.3299   -3.6691   -4.1803 H   0  0  0  0  0  0  0  0  0  0  0  0
    6.7977   -0.2605   -2.0595 H   0  0  0  0  0  0  0  0  0  0  0  0
    5.5517    2.3171   -4.3873 H   0  0  0  0  0  0  0  0  0  0  0  0
    6.8876    1.9220   -3.3538 H   0  0  0  0  0  0  0  0  0  0  0  0
    3.3802    1.1066   -1.4487 H   0  0  0  0  0  0  0  0  0  0  0  0
    3.5236    0.5238   -3.0709 H   0  0  0  0  0  0  0  0  0  0  0  0
    1.5409    1.9627   -2.6230 H   0  0  0  0  0  0  0  0  0  0  0  0
    2.4975    2.4809   -4.0138 H   0  0  0  0  0  0  0  0  0  0  0  0
    0.6362    6.4669   -2.2047 H   0  0  0  0  0  0  0  0  0  0  0  0
    2.3618    6.4548   -2.5796 H   0  0  0  0  0  0  0  0  0  0  0  0
    4.0559    5.2205   -1.8934 H   0  0  0  0  0  0  0  0  0  0  0  0
    4.1457    4.5664   -3.5281 H   0  0  0  0  0  0  0  0  0  0  0  0
    5.0705    3.3327   -0.8910 H   0  0  0  0  0  0  0  0  0  0  0  0
    6.0604    3.7702   -2.2591 H   0  0  0  0  0  0  0  0  0  0  0  0
  1  2  1  0  0  0  0
  1 23  1  0  0  0  0
  1 24  1  0  0  0  0
  1 25  1  0  0  0  0
  2  3  1  0  0  0  0
  3  4  1  0  0  0  0
  3 26  1  0  0  0  0
  3 27  1  0  0  0  0
  4  5  1  0  0  0  0
  4 28  1  0  0  0  0
  4 29  1  0  0  0  0
  5  6  1  0  0  0  0
  5 11  2  0  0  0  0
  6  7  2  0  0  0  0
  6 30  1  0  0  0  0
  7  8  1  0  0  0  0
  7 31  1  0  0  0  0
  8  9  1  0  0  0  0
  8 10  2  0  0  0  0
 10 11  1  0  0  0  0
 10 32  1  0  0  0  0
 11 12  1  0  0  0  0
 12 13  1  0  0  0  0
 12 33  1  0  0  0  0
 12 34  1  0  0  0  0
 13 14  1  0  0  0  0
 13 22  1  0  0  0  0
 14 15  1  0  0  0  0
 14 35  1  0  0  0  0
 14 36  1  0  0  0  0
 15 16  1  0  0  0  0
 15 37  1  0  0  0  0
 15 38  1  0  0  0  0
 16 17  1  0  0  0  0
 16 21  1  0  0  0  0
 17 18  2  0  0  0  0
 17 19  1  0  0  0  0
 19 20  1  0  0  0  0
 19 39  1  0  0  0  0
 19 40  1  0  0  0  0
 21 22  1  0  0  0  0
 21 41  1  0  0  0  0
 21 42  1  0  0  0  0
 22 43  1  0  0  0  0
 22 44  1  0  0  0  0
M  END
$$$$
