
 OpenBabel07202414143D

 53 56  0  0  1  0  0  0  0  0999 V2000
    5.5408   -1.2730   -3.4096 C   0  0  0  0  0  0  0  0  0  0  0  0
    5.5791   -1.3070   -1.9723 N   0  0  0  0  0  0  0  0  0  0  0  0
    4.4231   -1.1031   -1.2541 C   0  0  0  0  0  0  0  0  0  0  0  0
    3.3329   -0.9110   -1.7874 O   0  0  0  0  0  0  0  0  0  0  0  0
    4.5892   -1.1429    0.2460 C   0  0  0  0  0  0  0  0  0  0  0  0
    4.9271   -2.5015    0.7908 N   0  0  0  0  0  0  0  0  0  0  0  0
    3.9010   -3.5324    0.4429 C   0  0  0  0  0  0  0  0  0  0  0  0
    4.3690   -4.9915    0.7836 C   0  0  2  0  0  0  0  0  0  0  0  0
    5.5729   -5.3246   -0.1437 C   0  0  0  0  0  0  0  0  0  0  0  0
    3.0665   -5.8671    0.4732 C   0  0  0  0  0  0  0  0  0  0  0  0
    1.9317   -5.4029    0.5853 O   0  0  0  0  0  0  0  0  0  0  0  0
    3.2765   -7.1533    0.0163 N   0  0  0  0  0  0  0  0  0  0  0  0
    2.2980   -7.9926   -0.6070 C   0  0  0  0  0  0  0  0  0  0  0  0
    1.0788   -8.3459   -0.0525 C   0  0  0  0  0  0  0  0  0  0  0  0
    0.4763   -9.5273   -0.3336 N   0  0  0  0  0  0  0  0  0  0  0  0
    1.0451  -10.2671   -1.3103 C   0  0  0  0  0  0  0  0  0  0  0  0
    1.9328   -9.7459   -2.2392 C   0  0  0  0  0  0  0  0  0  0  0  0
    2.1284  -10.2908   -3.5359 C   0  0  0  0  0  0  0  0  0  0  0  0
    3.0900   -9.7413   -4.3749 C   0  0  0  0  0  0  0  0  0  0  0  0
    3.9144   -8.7165   -3.9136 C   0  0  0  0  0  0  0  0  0  0  0  0
    3.6964   -8.1734   -2.6570 C   0  0  0  0  0  0  0  0  0  0  0  0
    2.6700   -8.6342   -1.8017 C   0  0  0  0  0  0  0  0  0  0  0  0
    4.8846   -5.1327    2.2328 C   0  0  0  0  0  0  0  0  0  0  0  0
    5.1450   -6.4055    2.7905 C   0  0  0  0  0  0  0  0  0  0  0  0
    5.6920   -6.5503    4.0774 C   0  0  0  0  0  0  0  0  0  0  0  0
    6.0301   -8.1193    4.6948 Cl  0  0  0  0  0  0  0  0  0  0  0  0
    5.9968   -5.4374    4.8547 C   0  0  0  0  0  0  0  0  0  0  0  0
    5.7884   -4.1767    4.3276 C   0  0  0  0  0  0  0  0  0  0  0  0
    5.2580   -4.0264    3.0297 C   0  0  0  0  0  0  0  0  0  0  0  0
    5.1288   -2.3644    2.4744 S   0  0  0  0  0  0  0  0  0  0  0  0
    6.4420   -1.7319    2.6634 O   0  0  0  0  0  0  0  0  0  0  0  0
    3.9259   -1.8146    3.0453 O   0  0  0  0  0  0  0  0  0  0  0  0
    6.5462   -1.4382   -3.7997 H   0  0  0  0  0  0  0  0  0  0  0  0
    5.1629   -0.2992   -3.7353 H   0  0  0  0  0  0  0  0  0  0  0  0
    4.8626   -2.0550   -3.7624 H   0  0  0  0  0  0  0  0  0  0  0  0
    6.4436   -1.5090   -1.4827 H   0  0  0  0  0  0  0  0  0  0  0  0
    3.6504   -0.7857    0.6877 H   0  0  0  0  0  0  0  0  0  0  0  0
    5.3836   -0.4260    0.5055 H   0  0  0  0  0  0  0  0  0  0  0  0
    3.7077   -3.4900   -0.6371 H   0  0  0  0  0  0  0  0  0  0  0  0
    2.9636   -3.2732    0.9455 H   0  0  0  0  0  0  0  0  0  0  0  0
    6.4057   -4.6277    0.0202 H   0  0  0  0  0  0  0  0  0  0  0  0
    5.3025   -5.2692   -1.2034 H   0  0  0  0  0  0  0  0  0  0  0  0
    5.9853   -6.3255    0.0360 H   0  0  0  0  0  0  0  0  0  0  0  0
    4.2269   -7.4245   -0.1914 H   0  0  0  0  0  0  0  0  0  0  0  0
    0.5746   -7.7744    0.7192 H   0  0  0  0  0  0  0  0  0  0  0  0
    0.9708  -11.3473   -1.1685 H   0  0  0  0  0  0  0  0  0  0  0  0
    1.4641  -11.0644   -3.9212 H   0  0  0  0  0  0  0  0  0  0  0  0
    3.1893  -10.0865   -5.4063 H   0  0  0  0  0  0  0  0  0  0  0  0
    4.6825   -8.2994   -4.5552 H   0  0  0  0  0  0  0  0  0  0  0  0
    4.3176   -7.3288   -2.3635 H   0  0  0  0  0  0  0  0  0  0  0  0
    4.9625   -7.3098    2.2175 H   0  0  0  0  0  0  0  0  0  0  0  0
    6.4157   -5.5456    5.8504 H   0  0  0  0  0  0  0  0  0  0  0  0
    6.0501   -3.3000    4.9226 H   0  0  0  0  0  0  0  0  0  0  0  0
  1  2  1  0  0  0  0
  1 33  1  0  0  0  0
  1 34  1  0  0  0  0
  1 35  1  0  0  0  0
  2  3  1  0  0  0  0
  2 36  1  0  0  0  0
  3  4  2  0  0  0  0
  3  5  1  0  0  0  0
  5  6  1  0  0  0  0
  5 37  1  0  0  0  0
  5 38  1  0  0  0  0
  6  7  1  0  0  0  0
  6 30  1  0  0  0  0
  7  8  1  0  0  0  0
  7 39  1  0  0  0  0
  7 40  1  0  0  0  0
  8 23  1  0  0  0  0
  8 10  1  6  0  0  0
  8  9  1  0  0  0  0
  9 41  1  0  0  0  0
  9 42  1  0  0  0  0
  9 43  1  0  0  0  0
 10 11  2  0  0  0  0
 10 12  1  0  0  0  0
 12 13  1  0  0  0  0
 12 44  1  0  0  0  0
 13 14  1  0  0  0  0
 13 22  2  0  0  0  0
 14 15  2  0  0  0  0
 14 45  1  0  0  0  0
 15 16  1  0  0  0  0
 16 17  2  0  0  0  0
 16 46  1  0  0  0  0
 17 18  1  0  0  0  0
 17 22  1  0  0  0  0
 18 19  2  0  0  0  0
 18 47  1  0  0  0  0
 19 20  1  0  0  0  0
 19 48  1  0  0  0  0
 20 21  2  0  0  0  0
 20 49  1  0  0  0  0
 21 22  1  0  0  0  0
 21 50  1  0  0  0  0
 23 24  1  0  0  0  0
 23 29  2  0  0  0  0
 24 25  2  0  0  0  0
 24 51  1  0  0  0  0
 25 26  1  0  0  0  0
 25 27  1  0  0  0  0
 27 28  2  0  0  0  0
 27 52  1  0  0  0  0
 28 29  1  0  0  0  0
 28 53  1  0  0  0  0
 29 30  1  0  0  0  0
 30 31  2  0  0  0  0
 30 32  2  0  0  0  0
M  END
$$$$
