
 OpenBabel07202414193D

 44 48  0  0  1  0  0  0  0  0999 V2000
    1.0923   -0.3496    0.1274 O   0  0  0  0  0  0  0  0  0  0  0  0
    2.2428    0.0554    0.1980 C   0  0  0  0  0  0  0  0  0  0  0  0
    3.1218   -0.1265   -0.8357 N   0  0  0  0  0  0  0  0  0  0  0  0
    4.4918   -0.0474   -0.3906 C   0  0  2  0  0  0  0  0  0  0  0  0
    5.1970    1.0558   -1.1767 C   0  0  0  0  0  0  0  0  0  0  0  0
    6.6973    0.9201   -1.0079 C   0  0  0  0  0  0  0  0  0  0  0  0
    7.1787   -0.3258   -1.5081 O   0  0  0  0  0  0  0  0  0  0  0  0
    6.4603   -1.4273   -1.1368 C   0  0  0  0  0  0  0  0  0  0  0  0
    7.0555   -2.6545   -1.4483 C   0  0  0  0  0  0  0  0  0  0  0  0
    6.3815   -3.8482   -1.2035 C   0  0  0  0  0  0  0  0  0  0  0  0
    5.1038   -3.8349   -0.6289 C   0  0  0  0  0  0  0  0  0  0  0  0
    4.3612   -5.1244   -0.4012 C   0  0  0  0  0  0  0  0  0  0  0  0
    3.0073   -4.9698   -0.4683 F   0  0  0  0  0  0  0  0  0  0  0  0
    4.6664   -6.0836   -1.3154 F   0  0  0  0  0  0  0  0  0  0  0  0
    4.5325   -2.6006   -0.2826 C   0  0  0  0  0  0  0  0  0  0  0  0
    5.1850   -1.3800   -0.5702 C   0  0  0  0  0  0  0  0  0  0  0  0
    4.2647    0.3725    1.0906 C   0  0  0  0  0  0  0  0  0  0  0  0
    5.1579    0.5175    1.9188 O   0  0  0  0  0  0  0  0  0  0  0  0
    2.9156    0.5781    1.2760 N   0  0  0  0  0  0  0  0  0  0  0  0
    2.2333    0.8336    2.4975 C   0  0  0  0  0  0  0  0  0  0  0  0
    2.6919    0.3005    3.6983 C   0  0  0  0  0  0  0  0  0  0  0  0
    1.9338    0.1939    4.8151 N   0  0  0  0  0  0  0  0  0  0  0  0
    0.6713    0.6760    4.7410 C   0  0  0  0  0  0  0  0  0  0  0  0
    0.1529    1.3730    3.6499 C   0  0  0  0  0  0  0  0  0  0  0  0
   -1.1354    1.9435    3.6736 C   0  0  0  0  0  0  0  0  0  0  0  0
   -1.5969    2.7084    2.6035 C   0  0  0  0  0  0  0  0  0  0  0  0
   -0.7793    2.9096    1.5002 C   0  0  0  0  0  0  0  0  0  0  0  0
    0.4812    2.3092    1.4510 C   0  0  0  0  0  0  0  0  0  0  0  0
    0.9704    1.4973    2.5078 C   0  0  0  0  0  0  0  0  0  0  0  0
    2.8228   -0.7134   -1.6073 H   0  0  0  0  0  0  0  0  0  0  0  0
    4.8648    2.0535   -0.8655 H   0  0  0  0  0  0  0  0  0  0  0  0
    4.9551    0.9535   -2.2442 H   0  0  0  0  0  0  0  0  0  0  0  0
    7.0152    1.0405    0.0334 H   0  0  0  0  0  0  0  0  0  0  0  0
    7.1945    1.7057   -1.5885 H   0  0  0  0  0  0  0  0  0  0  0  0
    8.0371   -2.6718   -1.9130 H   0  0  0  0  0  0  0  0  0  0  0  0
    6.8465   -4.7906   -1.4865 H   0  0  0  0  0  0  0  0  0  0  0  0
    4.6014   -5.5183    0.5917 H   0  0  0  0  0  0  0  0  0  0  0  0
    3.5328   -2.6002    0.1551 H   0  0  0  0  0  0  0  0  0  0  0  0
    3.6784   -0.1436    3.7985 H   0  0  0  0  0  0  0  0  0  0  0  0
    0.0686    0.4965    5.6283 H   0  0  0  0  0  0  0  0  0  0  0  0
   -1.7830    1.8090    4.5375 H   0  0  0  0  0  0  0  0  0  0  0  0
   -2.5859    3.1585    2.6371 H   0  0  0  0  0  0  0  0  0  0  0  0
   -1.1194    3.5265    0.6721 H   0  0  0  0  0  0  0  0  0  0  0  0
    1.0935    2.4999    0.5724 H   0  0  0  0  0  0  0  0  0  0  0  0
  1  2  2  0  0  0  0
  2  3  1  0  0  0  0
  2 19  1  0  0  0  0
  3  4  1  0  0  0  0
  3 30  1  0  0  0  0
  4  5  1  0  0  0  0
  4 16  1  6  0  0  0
  4 17  1  0  0  0  0
  5  6  1  0  0  0  0
  5 31  1  0  0  0  0
  5 32  1  0  0  0  0
  6  7  1  0  0  0  0
  6 33  1  0  0  0  0
  6 34  1  0  0  0  0
  7  8  1  0  0  0  0
  8  9  1  0  0  0  0
  8 16  2  0  0  0  0
  9 10  2  0  0  0  0
  9 35  1  0  0  0  0
 10 11  1  0  0  0  0
 10 36  1  0  0  0  0
 11 12  1  0  0  0  0
 11 15  2  0  0  0  0
 12 13  1  0  0  0  0
 12 14  1  0  0  0  0
 12 37  1  0  0  0  0
 15 16  1  0  0  0  0
 15 38  1  0  0  0  0
 17 18  2  0  0  0  0
 17 19  1  0  0  0  0
 19 20  1  0  0  0  0
 20 21  1  0  0  0  0
 20 29  2  0  0  0  0
 21 22  2  0  0  0  0
 21 39  1  0  0  0  0
 22 23  1  0  0  0  0
 23 24  2  0  0  0  0
 23 40  1  0  0  0  0
 24 25  1  0  0  0  0
 24 29  1  0  0  0  0
 25 26  2  0  0  0  0
 25 41  1  0  0  0  0
 26 27  1  0  0  0  0
 26 42  1  0  0  0  0
 27 28  2  0  0  0  0
 27 43  1  0  0  0  0
 28 29  1  0  0  0  0
 28 44  1  0  0  0  0
M  END
$$$$
