
 OpenBabel07202414203D

 44 46  0  0  0  0  0  0  0  0999 V2000
   -3.1328   -1.2415    2.3564 C   0  0  0  0  0  0  0  0  0  0  0  0
   -3.5961   -2.2988    3.1524 C   0  0  0  0  0  0  0  0  0  0  0  0
   -4.8396   -2.8582    2.8938 C   0  0  0  0  0  0  0  0  0  0  0  0
   -5.6174   -2.3945    1.8507 C   0  0  0  0  0  0  0  0  0  0  0  0
   -5.1457   -1.3392    1.0588 C   0  0  0  0  0  0  0  0  0  0  0  0
   -3.9133   -0.7145    1.3166 C   0  0  0  0  0  0  0  0  0  0  0  0
   -3.3869    0.3155    0.5156 N   0  0  0  0  0  0  0  0  0  0  0  0
   -4.3057    1.2248   -0.2002 C   0  0  0  0  0  0  0  0  0  0  0  0
   -3.6545    1.7765   -1.4786 C   0  0  0  0  0  0  0  0  0  0  0  0
   -3.0028    3.1411   -1.3227 C   0  0  0  0  0  0  0  0  0  0  0  0
   -3.9219    4.0311   -0.6144 N   0  0  0  0  0  0  0  0  0  0  0  0
   -4.1777    3.6170    0.7622 C   0  0  0  0  0  0  0  0  0  0  0  0
   -4.8969    2.2733    0.7531 C   0  0  0  0  0  0  0  0  0  0  0  0
   -4.3496    5.2376   -1.1394 C   0  0  0  0  0  0  0  0  0  0  0  0
   -4.4846    5.4383   -2.5264 C   0  0  0  0  0  0  0  0  0  0  0  0
   -4.9271    6.6540   -3.0710 C   0  0  0  0  0  0  0  0  0  0  0  0
   -5.2681    7.7035   -2.2244 C   0  0  0  0  0  0  0  0  0  0  0  0
   -5.1446    7.5501   -0.8467 C   0  0  0  0  0  0  0  0  0  0  0  0
   -4.6934    6.3303   -0.3230 C   0  0  0  0  0  0  0  0  0  0  0  0
   -5.7953    9.2485   -2.8915 S   0  0  0  0  0  0  0  0  0  0  0  0
   -5.5847   10.2877   -1.9105 O   0  0  0  0  0  0  0  0  0  0  0  0
   -5.3308    9.3644   -4.2545 O   0  0  0  0  0  0  0  0  0  0  0  0
   -7.4580    9.0422   -2.9884 N   0  0  0  0  0  0  0  0  0  0  0  0
   -5.2868   -3.8688    3.6517 F   0  0  0  0  0  0  0  0  0  0  0  0
   -2.1484   -0.8319    2.5683 H   0  0  0  0  0  0  0  0  0  0  0  0
   -2.9937   -2.6925    3.9653 H   0  0  0  0  0  0  0  0  0  0  0  0
   -6.5782   -2.8516    1.6402 H   0  0  0  0  0  0  0  0  0  0  0  0
   -5.7741   -1.0428    0.2271 H   0  0  0  0  0  0  0  0  0  0  0  0
   -2.6107    0.7957    0.9649 H   0  0  0  0  0  0  0  0  0  0  0  0
   -5.1433    0.6362   -0.5820 H   0  0  0  0  0  0  0  0  0  0  0  0
   -4.4465    1.8778   -2.2335 H   0  0  0  0  0  0  0  0  0  0  0  0
   -2.9303    1.0630   -1.8907 H   0  0  0  0  0  0  0  0  0  0  0  0
   -2.7003    3.5172   -2.3057 H   0  0  0  0  0  0  0  0  0  0  0  0
   -2.0743    3.0493   -0.7458 H   0  0  0  0  0  0  0  0  0  0  0  0
   -4.8105    4.3134    1.3197 H   0  0  0  0  0  0  0  0  0  0  0  0
   -3.2282    3.5468    1.3064 H   0  0  0  0  0  0  0  0  0  0  0  0
   -5.9342    2.4536    0.4428 H   0  0  0  0  0  0  0  0  0  0  0  0
   -4.9512    1.8952    1.7817 H   0  0  0  0  0  0  0  0  0  0  0  0
   -4.2736    4.6323   -3.2243 H   0  0  0  0  0  0  0  0  0  0  0  0
   -5.0077    6.7626   -4.1502 H   0  0  0  0  0  0  0  0  0  0  0  0
   -5.3878    8.3658   -0.1698 H   0  0  0  0  0  0  0  0  0  0  0  0
   -4.5880    6.2737    0.7562 H   0  0  0  0  0  0  0  0  0  0  0  0
   -7.9243    9.7139   -2.3792 H   0  0  0  0  0  0  0  0  0  0  0  0
   -7.7572    9.0916   -3.9622 H   0  0  0  0  0  0  0  0  0  0  0  0
  1  2  1  0  0  0  0
  1  6  2  0  0  0  0
  1 25  1  0  0  0  0
  2  3  2  0  0  0  0
  2 26  1  0  0  0  0
  3  4  1  0  0  0  0
  3 24  1  0  0  0  0
  4  5  2  0  0  0  0
  4 27  1  0  0  0  0
  5  6  1  0  0  0  0
  5 28  1  0  0  0  0
  6  7  1  0  0  0  0
  7  8  1  0  0  0  0
  7 29  1  0  0  0  0
  8  9  1  0  0  0  0
  8 13  1  0  0  0  0
  8 30  1  0  0  0  0
  9 10  1  0  0  0  0
  9 31  1  0  0  0  0
  9 32  1  0  0  0  0
 10 11  1  0  0  0  0
 10 33  1  0  0  0  0
 10 34  1  0  0  0  0
 11 12  1  0  0  0  0
 11 14  1  0  0  0  0
 12 13  1  0  0  0  0
 12 35  1  0  0  0  0
 12 36  1  0  0  0  0
 13 37  1  0  0  0  0
 13 38  1  0  0  0  0
 14 15  1  0  0  0  0
 14 19  2  0  0  0  0
 15 16  2  0  0  0  0
 15 39  1  0  0  0  0
 16 17  1  0  0  0  0
 16 40  1  0  0  0  0
 17 18  2  0  0  0  0
 17 20  1  0  0  0  0
 18 19  1  0  0  0  0
 18 41  1  0  0  0  0
 19 42  1  0  0  0  0
 20 21  2  0  0  0  0
 20 22  2  0  0  0  0
 20 23  1  0  0  0  0
 23 43  1  0  0  0  0
 23 44  1  0  0  0  0
M  END
$$$$
