
 OpenBabel07202414203D

 48 51  0  0  0  0  0  0  0  0999 V2000
   10.7983    4.9699    2.5519 O   0  5  0  0  0  0  0  0  0  0  0  0
    9.7695    5.5110    2.1326 N   0  3  0  0  0  0  0  0  0  0  0  0
    9.7148    6.5910    1.5283 O   0  0  0  0  0  0  0  0  0  0  0  0
    8.5256    4.7912    2.2923 C   0  0  0  0  0  0  0  0  0  0  0  0
    8.0198    4.4778    3.5528 C   0  0  0  0  0  0  0  0  0  0  0  0
    8.8394    4.9948    5.1819 Br  0  0  0  0  0  0  0  0  0  0  0  0
    6.8182    3.7679    3.6294 C   0  0  0  0  0  0  0  0  0  0  0  0
    6.1459    3.3828    2.4612 C   0  0  0  0  0  0  0  0  0  0  0  0
    6.6597    3.6928    1.1962 C   0  0  0  0  0  0  0  0  0  0  0  0
    5.9969    3.2320    0.0444 N   0  0  0  0  0  0  0  0  0  0  0  0
    6.5438    2.8367   -1.1895 C   0  0  0  0  0  0  0  0  0  0  0  0
    5.8005    2.9729   -2.3667 C   0  0  0  0  0  0  0  0  0  0  0  0
    6.3632    2.6292   -3.5971 C   0  0  0  0  0  0  0  0  0  0  0  0
    5.4391    2.8167   -5.0377 Cl  0  0  0  0  0  0  0  0  0  0  0  0
    7.6712    2.1503   -3.6803 C   0  0  0  0  0  0  0  0  0  0  0  0
    8.4264    1.9867   -2.5154 C   0  0  0  0  0  0  0  0  0  0  0  0
    9.8650    1.5295   -2.5752 C   0  0  0  0  0  0  0  0  0  0  0  0
   10.1906    0.3370   -1.6944 C   0  0  0  0  0  0  0  0  0  0  0  0
   11.1986    0.3308   -0.9885 O   0  0  0  0  0  0  0  0  0  0  0  0
    9.3355   -0.7374   -1.8463 N   0  0  0  0  0  0  0  0  0  0  0  0
    9.4843   -1.9570   -1.1429 C   0  0  0  0  0  0  0  0  0  0  0  0
    9.8851   -1.9771    0.1964 C   0  0  0  0  0  0  0  0  0  0  0  0
   10.0118   -3.1006    0.9404 N   0  0  0  0  0  0  0  0  0  0  0  0
    9.7677   -4.2668    0.3052 C   0  0  0  0  0  0  0  0  0  0  0  0
    9.3838   -4.3775   -1.0313 C   0  0  0  0  0  0  0  0  0  0  0  0
    9.1958   -5.6332   -1.6362 C   0  0  0  0  0  0  0  0  0  0  0  0
    8.8627   -5.7313   -2.9851 C   0  0  0  0  0  0  0  0  0  0  0  0
    8.7027   -4.5772   -3.7400 C   0  0  0  0  0  0  0  0  0  0  0  0
    8.8727   -3.3237   -3.1471 C   0  0  0  0  0  0  0  0  0  0  0  0
    9.2218   -3.1914   -1.7810 C   0  0  0  0  0  0  0  0  0  0  0  0
    7.8469    2.3209   -1.2835 C   0  0  0  0  0  0  0  0  0  0  0  0
    7.8559    4.4132    1.1208 C   0  0  0  0  0  0  0  0  0  0  0  0
    6.3957    3.4974    4.5951 H   0  0  0  0  0  0  0  0  0  0  0  0
    5.2274    2.8047    2.5489 H   0  0  0  0  0  0  0  0  0  0  0  0
    5.0041    3.4433    0.0342 H   0  0  0  0  0  0  0  0  0  0  0  0
    4.7884    3.3654   -2.3335 H   0  0  0  0  0  0  0  0  0  0  0  0
    8.0979    1.9169   -4.6534 H   0  0  0  0  0  0  0  0  0  0  0  0
   10.4962    2.3674   -2.2542 H   0  0  0  0  0  0  0  0  0  0  0  0
   10.1585    1.2791   -3.6010 H   0  0  0  0  0  0  0  0  0  0  0  0
    8.7231   -0.7336   -2.6496 H   0  0  0  0  0  0  0  0  0  0  0  0
   10.0859   -1.0603    0.7439 H   0  0  0  0  0  0  0  0  0  0  0  0
    9.9080   -5.1474    0.9290 H   0  0  0  0  0  0  0  0  0  0  0  0
    9.3317   -6.5478   -1.0610 H   0  0  0  0  0  0  0  0  0  0  0  0
    8.7427   -6.7058   -3.4492 H   0  0  0  0  0  0  0  0  0  0  0  0
    8.4616   -4.6484   -4.7983 H   0  0  0  0  0  0  0  0  0  0  0  0
    8.7708   -2.4522   -3.7913 H   0  0  0  0  0  0  0  0  0  0  0  0
    8.4279    2.1748   -0.3741 H   0  0  0  0  0  0  0  0  0  0  0  0
    8.2646    4.6927    0.1524 H   0  0  0  0  0  0  0  0  0  0  0  0
  1  2  1  0  0  0  0
  2  3  2  0  0  0  0
  2  4  1  0  0  0  0
  4  5  2  0  0  0  0
  4 32  1  0  0  0  0
  5  6  1  0  0  0  0
  5  7  1  0  0  0  0
  7  8  2  0  0  0  0
  7 33  1  0  0  0  0
  8  9  1  0  0  0  0
  8 34  1  0  0  0  0
  9 10  1  0  0  0  0
  9 32  2  0  0  0  0
 10 11  1  0  0  0  0
 10 35  1  0  0  0  0
 11 12  2  0  0  0  0
 11 31  1  0  0  0  0
 12 13  1  0  0  0  0
 12 36  1  0  0  0  0
 13 14  1  0  0  0  0
 13 15  2  0  0  0  0
 15 16  1  0  0  0  0
 15 37  1  0  0  0  0
 16 17  1  0  0  0  0
 16 31  2  0  0  0  0
 17 18  1  0  0  0  0
 17 38  1  0  0  0  0
 17 39  1  0  0  0  0
 18 19  2  0  0  0  0
 18 20  1  0  0  0  0
 20 21  1  0  0  0  0
 20 40  1  0  0  0  0
 21 22  2  0  0  0  0
 21 30  1  0  0  0  0
 22 23  1  0  0  0  0
 22 41  1  0  0  0  0
 23 24  2  0  0  0  0
 24 25  1  0  0  0  0
 24 42  1  0  0  0  0
 25 26  2  0  0  0  0
 25 30  1  0  0  0  0
 26 27  1  0  0  0  0
 26 43  1  0  0  0  0
 27 28  2  0  0  0  0
 27 44  1  0  0  0  0
 28 29  1  0  0  0  0
 28 45  1  0  0  0  0
 29 30  2  0  0  0  0
 29 46  1  0  0  0  0
 31 47  1  0  0  0  0
 32 48  1  0  0  0  0
M  CHG  2   1  -1   2   1
M  END
$$$$
