
 OpenBabel07202414163D

 31 32  0  0  0  0  0  0  0  0999 V2000
    1.7676    2.0520   -0.6246 C   0  0  0  0  0  0  0  0  0  0  0  0
    0.8336    0.9048   -0.3463 C   0  0  0  0  0  0  0  0  0  0  0  0
    1.3783   -0.3886   -0.4145 C   0  0  0  0  0  0  0  0  0  0  0  0
    0.5691   -1.4885   -0.1801 C   0  0  0  0  0  0  0  0  0  0  0  0
   -0.7376   -1.3911    0.1147 N   0  0  0  0  0  0  0  0  0  0  0  0
   -1.2569   -0.1397    0.1640 C   0  0  0  0  0  0  0  0  0  0  0  0
   -0.5432    1.0393   -0.0607 C   0  0  0  0  0  0  0  0  0  0  0  0
   -1.1663    2.3171    0.0048 N   0  0  0  0  0  0  0  0  0  0  0  0
   -2.5398    2.5421   -0.0455 C   0  0  0  0  0  0  0  0  0  0  0  0
   -3.4072    1.6864   -0.1589 O   0  0  0  0  0  0  0  0  0  0  0  0
   -2.9452    4.0036    0.0158 C   0  0  0  0  0  0  0  0  0  0  0  0
   -2.3746    4.7663   -1.1696 C   0  0  0  0  0  0  0  0  0  0  0  0
   -2.7965    6.1901   -1.2074 C   0  0  0  0  0  0  0  0  0  0  0  0
   -2.2443    7.3252   -0.6543 C   0  0  0  0  0  0  0  0  0  0  0  0
   -3.0433    8.3808   -1.1279 C   0  0  0  0  0  0  0  0  0  0  0  0
   -4.0409    7.9527   -1.9031 N   0  0  0  0  0  0  0  0  0  0  0  0
   -3.8771    6.6207   -1.9317 N   0  0  0  0  0  0  0  0  0  0  0  0
    2.7708    1.6851   -0.8870 H   0  0  0  0  0  0  0  0  0  0  0  0
    1.8847    2.6884    0.2568 H   0  0  0  0  0  0  0  0  0  0  0  0
    1.4215    2.6455   -1.4760 H   0  0  0  0  0  0  0  0  0  0  0  0
    2.4270   -0.5538   -0.6463 H   0  0  0  0  0  0  0  0  0  0  0  0
    0.9600   -2.4957   -0.2252 H   0  0  0  0  0  0  0  0  0  0  0  0
   -2.3080   -0.1403    0.4360 H   0  0  0  0  0  0  0  0  0  0  0  0
   -0.5511    3.1176    0.0161 H   0  0  0  0  0  0  0  0  0  0  0  0
   -2.6360    4.4232    0.9784 H   0  0  0  0  0  0  0  0  0  0  0  0
   -4.0446    4.0444   -0.0061 H   0  0  0  0  0  0  0  0  0  0  0  0
   -2.6615    4.2666   -2.1034 H   0  0  0  0  0  0  0  0  0  0  0  0
   -1.2796    4.7405   -1.1375 H   0  0  0  0  0  0  0  0  0  0  0  0
   -1.3687    7.3905   -0.0243 H   0  0  0  0  0  0  0  0  0  0  0  0
   -2.9353    9.4428   -0.9482 H   0  0  0  0  0  0  0  0  0  0  0  0
   -4.5258    6.0693   -2.4853 H   0  0  0  0  0  0  0  0  0  0  0  0
  1  2  1  0  0  0  0
  1 18  1  0  0  0  0
  1 19  1  0  0  0  0
  1 20  1  0  0  0  0
  2  3  1  0  0  0  0
  2  7  2  0  0  0  0
  3  4  2  0  0  0  0
  3 21  1  0  0  0  0
  4  5  1  0  0  0  0
  4 22  1  0  0  0  0
  5  6  2  0  0  0  0
  6  7  1  0  0  0  0
  6 23  1  0  0  0  0
  7  8  1  0  0  0  0
  8  9  1  0  0  0  0
  8 24  1  0  0  0  0
  9 10  2  0  0  0  0
  9 11  1  0  0  0  0
 11 12  1  0  0  0  0
 11 25  1  0  0  0  0
 11 26  1  0  0  0  0
 12 13  1  0  0  0  0
 12 27  1  0  0  0  0
 12 28  1  0  0  0  0
 13 14  2  0  0  0  0
 13 17  1  0  0  0  0
 14 15  1  0  0  0  0
 14 29  1  0  0  0  0
 15 16  2  0  0  0  0
 15 30  1  0  0  0  0
 16 17  1  0  0  0  0
 17 31  1  0  0  0  0
M  END
$$$$
