
 OpenBabel07202414163D

 63 67  0  0  1  0  0  0  0  0999 V2000
    6.5481   -1.5525   -0.6486 C   0  0  0  0  0  0  0  0  0  0  0  0
    5.2987   -0.8032   -0.3975 C   0  0  0  0  0  0  0  0  0  0  0  0
    5.1244    0.5324   -0.0999 C   0  0  0  0  0  0  0  0  0  0  0  0
    3.8058    0.8523   -0.1500 N   0  0  0  0  0  0  0  0  0  0  0  0
    3.1368   -0.2406   -0.4828 N   0  0  0  0  0  0  0  0  0  0  0  0
    4.0040   -1.2872   -0.5333 N   0  0  0  0  0  0  0  0  0  0  0  0
    3.5036   -2.6132   -0.6347 C   0  0  0  0  0  0  0  0  0  0  0  0
    2.2214   -2.8286   -1.1437 C   0  0  0  0  0  0  0  0  0  0  0  0
    1.6217   -4.0980   -1.0623 C   0  0  0  0  0  0  0  0  0  0  0  0
    2.2767   -5.1943   -0.4774 C   0  0  0  0  0  0  0  0  0  0  0  0
    1.5762   -6.4429   -0.1571 N   0  0  0  0  0  0  0  0  0  0  0  0
    2.1576   -7.3659    0.9003 C   0  0  3  0  0  0  0  0  0  0  0  0
    3.0020   -8.5127    0.2564 C   0  0  0  0  0  0  0  0  0  0  0  0
    3.6791   -9.3019    0.9145 O   0  0  0  0  0  0  0  0  0  0  0  0
    2.8686   -8.6645   -1.1099 N   0  0  0  0  0  0  0  0  0  0  0  0
    3.4823   -9.7601   -1.8384 C   0  0  0  0  0  0  0  0  0  0  0  0
    3.3681   -9.5308   -3.3436 C   0  0  0  0  0  0  0  0  0  0  0  0
    4.1038  -10.5624   -4.1548 C   0  0  0  0  0  0  0  0  0  0  0  0
    5.4717  -10.3928   -4.4330 C   0  0  0  0  0  0  0  0  0  0  0  0
    6.1615  -11.3363   -5.1952 C   0  0  0  0  0  0  0  0  0  0  0  0
    5.4983  -12.4583   -5.6817 C   0  0  0  0  0  0  0  0  0  0  0  0
    4.1455  -12.6305   -5.3955 C   0  0  0  0  0  0  0  0  0  0  0  0
    3.5077  -13.7093   -5.8651 F   0  0  0  0  0  0  0  0  0  0  0  0
    3.4501  -11.6952   -4.6363 C   0  0  0  0  0  0  0  0  0  0  0  0
    2.7699   -6.6805    2.1296 C   0  0  0  0  0  0  0  0  0  0  0  0
    1.9916   -5.8056    2.9031 C   0  0  0  0  0  0  0  0  0  0  0  0
    2.5747   -5.0771    3.9379 C   0  0  0  0  0  0  0  0  0  0  0  0
    3.9248   -5.2496    4.1827 C   0  0  0  0  0  0  0  0  0  0  0  0
    4.6975   -6.1234    3.5086 N   0  0  0  0  0  0  0  0  0  0  0  0
    4.1006   -6.8360    2.5242 C   0  0  0  0  0  0  0  0  0  0  0  0
    0.4209   -6.8123   -0.9159 C   0  0  0  0  0  0  0  0  0  0  0  0
    0.1123   -6.2322   -1.9588 O   0  0  0  0  0  0  0  0  0  0  0  0
   -0.3589   -8.0142   -0.5789 C   0  0  0  0  0  0  0  0  0  0  0  0
   -1.1790   -8.6737   -1.4762 C   0  0  0  0  0  0  0  0  0  0  0  0
   -1.7068   -9.7676   -0.8685 O   0  0  0  0  0  0  0  0  0  0  0  0
   -1.2041   -9.7100    0.3917 C   0  0  0  0  0  0  0  0  0  0  0  0
   -0.4206   -8.6829    0.6276 N   0  0  0  0  0  0  0  0  0  0  0  0
    3.6169   -4.9818   -0.1285 C   0  0  0  0  0  0  0  0  0  0  0  0
    4.2119   -3.7089   -0.1546 C   0  0  0  0  0  0  0  0  0  0  0  0
    7.4029   -0.8684   -0.6884 H   0  0  0  0  0  0  0  0  0  0  0  0
    6.4995   -2.0676   -1.6137 H   0  0  0  0  0  0  0  0  0  0  0  0
    6.7625   -2.2760    0.1399 H   0  0  0  0  0  0  0  0  0  0  0  0
    5.8787    1.2815    0.0967 H   0  0  0  0  0  0  0  0  0  0  0  0
    1.6504   -2.0112   -1.5838 H   0  0  0  0  0  0  0  0  0  0  0  0
    0.5986   -4.1554   -1.4228 H   0  0  0  0  0  0  0  0  0  0  0  0
    1.3422   -7.9048    1.3703 H   0  0  0  0  0  0  0  0  0  0  0  0
    2.4084   -7.9370   -1.6411 H   0  0  0  0  0  0  0  0  0  0  0  0
    2.9761  -10.6877   -1.5420 H   0  0  0  0  0  0  0  0  0  0  0  0
    4.5274   -9.8419   -1.5202 H   0  0  0  0  0  0  0  0  0  0  0  0
    3.7561   -8.5350   -3.5950 H   0  0  0  0  0  0  0  0  0  0  0  0
    2.3104   -9.5110   -3.6400 H   0  0  0  0  0  0  0  0  0  0  0  0
    6.0037   -9.5194   -4.0618 H   0  0  0  0  0  0  0  0  0  0  0  0
    7.2188  -11.1928   -5.4111 H   0  0  0  0  0  0  0  0  0  0  0  0
    6.0169  -13.1988   -6.2788 H   0  0  0  0  0  0  0  0  0  0  0  0
    2.3963  -11.8743   -4.4445 H   0  0  0  0  0  0  0  0  0  0  0  0
    0.9343   -5.6678    2.6866 H   0  0  0  0  0  0  0  0  0  0  0  0
    1.9936   -4.3765    4.5265 H   0  0  0  0  0  0  0  0  0  0  0  0
    4.4365   -4.6734    4.9483 H   0  0  0  0  0  0  0  0  0  0  0  0
    4.7828   -7.5174    2.0225 H   0  0  0  0  0  0  0  0  0  0  0  0
   -1.4478   -8.5148   -2.5108 H   0  0  0  0  0  0  0  0  0  0  0  0
   -1.4878  -10.5056    1.0671 H   0  0  0  0  0  0  0  0  0  0  0  0
    4.2494   -5.7876    0.2223 H   0  0  0  0  0  0  0  0  0  0  0  0
    5.1895   -3.6173    0.3046 H   0  0  0  0  0  0  0  0  0  0  0  0
  1  2  1  0  0  0  0
  1 40  1  0  0  0  0
  1 41  1  0  0  0  0
  1 42  1  0  0  0  0
  2  3  2  0  0  0  0
  2  6  1  0  0  0  0
  3  4  1  0  0  0  0
  3 43  1  0  0  0  0
  4  5  2  0  0  0  0
  5  6  1  0  0  0  0
  6  7  1  0  0  0  0
  7  8  1  0  0  0  0
  7 39  2  0  0  0  0
  8  9  2  0  0  0  0
  8 44  1  0  0  0  0
  9 10  1  0  0  0  0
  9 45  1  0  0  0  0
 10 11  1  0  0  0  0
 10 38  2  0  0  0  0
 11 12  1  0  0  0  0
 11 31  1  0  0  0  0
 12 13  1  0  0  0  0
 12 25  1  0  0  0  0
 12 46  1  0  0  0  0
 13 14  2  0  0  0  0
 13 15  1  0  0  0  0
 15 16  1  0  0  0  0
 15 47  1  0  0  0  0
 16 17  1  0  0  0  0
 16 48  1  0  0  0  0
 16 49  1  0  0  0  0
 17 18  1  0  0  0  0
 17 50  1  0  0  0  0
 17 51  1  0  0  0  0
 18 19  1  0  0  0  0
 18 24  2  0  0  0  0
 19 20  2  0  0  0  0
 19 52  1  0  0  0  0
 20 21  1  0  0  0  0
 20 53  1  0  0  0  0
 21 22  2  0  0  0  0
 21 54  1  0  0  0  0
 22 23  1  0  0  0  0
 22 24  1  0  0  0  0
 24 55  1  0  0  0  0
 25 26  1  0  0  0  0
 25 30  2  0  0  0  0
 26 27  2  0  0  0  0
 26 56  1  0  0  0  0
 27 28  1  0  0  0  0
 27 57  1  0  0  0  0
 28 29  2  0  0  0  0
 28 58  1  0  0  0  0
 29 30  1  0  0  0  0
 30 59  1  0  0  0  0
 31 32  2  0  0  0  0
 31 33  1  0  0  0  0
 33 34  2  0  0  0  0
 33 37  1  0  0  0  0
 34 35  1  0  0  0  0
 34 60  1  0  0  0  0
 35 36  1  0  0  0  0
 36 37  2  0  0  0  0
 36 61  1  0  0  0  0
 38 39  1  0  0  0  0
 38 62  1  0  0  0  0
 39 63  1  0  0  0  0
M  END
$$$$
