
 OpenBabel07202414153D

 45 47  0  0  1  0  0  0  0  0999 V2000
    0.7899   -0.2686    0.3619 C   0  0  0  0  0  0  0  0  0  0  0  0
    2.2034   -0.1500    0.3101 O   0  0  0  0  0  0  0  0  0  0  0  0
    2.6906    0.7979    1.2566 C   0  0  0  0  0  0  0  0  0  0  0  0
    4.2016    0.8995    1.0996 C   0  0  0  0  0  0  0  0  0  0  0  0
    4.7150    1.8894    1.9933 O   0  0  0  0  0  0  0  0  0  0  0  0
    6.1448    1.9322    1.9794 C   0  0  3  0  0  0  0  0  0  0  0  0
    6.7023    2.3180    0.5860 C   0  0  0  0  0  0  0  0  0  0  0  0
    7.2879    1.4926   -0.1122 O   0  0  0  0  0  0  0  0  0  0  0  0
    6.4468    3.6254    0.2015 N   0  0  0  0  0  0  0  0  0  0  0  0
    6.8705    4.1414   -1.0437 C   0  0  0  0  0  0  0  0  0  0  0  0
    6.5985    3.4585   -2.2308 C   0  0  0  0  0  0  0  0  0  0  0  0
    6.9228    3.9130   -3.4619 N   0  0  0  0  0  0  0  0  0  0  0  0
    7.5881    5.0875   -3.5072 C   0  0  0  0  0  0  0  0  0  0  0  0
    7.9407    5.8479   -2.3880 C   0  0  0  0  0  0  0  0  0  0  0  0
    8.6823    7.0359   -2.5082 C   0  0  0  0  0  0  0  0  0  0  0  0
    9.0620    7.7546   -1.3755 C   0  0  0  0  0  0  0  0  0  0  0  0
    8.6959    7.3045   -0.1132 C   0  0  0  0  0  0  0  0  0  0  0  0
    7.9513    6.1306    0.0206 C   0  0  0  0  0  0  0  0  0  0  0  0
    7.5577    5.3765   -1.1126 C   0  0  0  0  0  0  0  0  0  0  0  0
    6.6168    2.8731    3.0875 C   0  0  0  0  0  0  0  0  0  0  0  0
    7.8773    2.6946    3.6763 C   0  0  0  0  0  0  0  0  0  0  0  0
    8.3153    3.5514    4.6925 C   0  0  0  0  0  0  0  0  0  0  0  0
    7.5075    4.6065    5.1261 C   0  0  0  0  0  0  0  0  0  0  0  0
    8.1158    5.6277    6.3789 Cl  0  0  0  0  0  0  0  0  0  0  0  0
    6.2551    4.8038    4.5409 C   0  0  0  0  0  0  0  0  0  0  0  0
    5.2059    6.0967    5.0014 Cl  0  0  0  0  0  0  0  0  0  0  0  0
    5.8147    3.9399    3.5317 C   0  0  0  0  0  0  0  0  0  0  0  0
    0.4814   -0.9946   -0.3958 H   0  0  0  0  0  0  0  0  0  0  0  0
    0.3157    0.6918    0.1387 H   0  0  0  0  0  0  0  0  0  0  0  0
    0.4730   -0.6298    1.3442 H   0  0  0  0  0  0  0  0  0  0  0  0
    2.4391    0.4807    2.2756 H   0  0  0  0  0  0  0  0  0  0  0  0
    2.2313    1.7789    1.0854 H   0  0  0  0  0  0  0  0  0  0  0  0
    4.4330    1.1714    0.0633 H   0  0  0  0  0  0  0  0  0  0  0  0
    4.6615   -0.0754    1.3008 H   0  0  0  0  0  0  0  0  0  0  0  0
    6.5193    0.9287    2.2233 H   0  0  0  0  0  0  0  0  0  0  0  0
    6.2885    4.2908    0.9446 H   0  0  0  0  0  0  0  0  0  0  0  0
    6.0580    2.5153   -2.2296 H   0  0  0  0  0  0  0  0  0  0  0  0
    7.8541    5.4098   -4.5111 H   0  0  0  0  0  0  0  0  0  0  0  0
    8.9901    7.3952   -3.4873 H   0  0  0  0  0  0  0  0  0  0  0  0
    9.6560    8.6583   -1.4786 H   0  0  0  0  0  0  0  0  0  0  0  0
    9.0063    7.8523    0.7730 H   0  0  0  0  0  0  0  0  0  0  0  0
    7.7182    5.8003    1.0258 H   0  0  0  0  0  0  0  0  0  0  0  0
    8.5278    1.8796    3.3587 H   0  0  0  0  0  0  0  0  0  0  0  0
    9.2896    3.3867    5.1474 H   0  0  0  0  0  0  0  0  0  0  0  0
    4.8292    4.0951    3.0946 H   0  0  0  0  0  0  0  0  0  0  0  0
  1  2  1  0  0  0  0
  1 28  1  0  0  0  0
  1 29  1  0  0  0  0
  1 30  1  0  0  0  0
  2  3  1  0  0  0  0
  3  4  1  0  0  0  0
  3 31  1  0  0  0  0
  3 32  1  0  0  0  0
  4  5  1  0  0  0  0
  4 33  1  0  0  0  0
  4 34  1  0  0  0  0
  5  6  1  0  0  0  0
  6  7  1  0  0  0  0
  6 20  1  0  0  0  0
  6 35  1  0  0  0  0
  7  8  2  0  0  0  0
  7  9  1  0  0  0  0
  9 10  1  0  0  0  0
  9 36  1  0  0  0  0
 10 11  1  0  0  0  0
 10 19  2  0  0  0  0
 11 12  2  0  0  0  0
 11 37  1  0  0  0  0
 12 13  1  0  0  0  0
 13 14  2  0  0  0  0
 13 38  1  0  0  0  0
 14 15  1  0  0  0  0
 14 19  1  0  0  0  0
 15 16  2  0  0  0  0
 15 39  1  0  0  0  0
 16 17  1  0  0  0  0
 16 40  1  0  0  0  0
 17 18  2  0  0  0  0
 17 41  1  0  0  0  0
 18 19  1  0  0  0  0
 18 42  1  0  0  0  0
 20 21  1  0  0  0  0
 20 27  2  0  0  0  0
 21 22  2  0  0  0  0
 21 43  1  0  0  0  0
 22 23  1  0  0  0  0
 22 44  1  0  0  0  0
 23 24  1  0  0  0  0
 23 25  2  0  0  0  0
 25 26  1  0  0  0  0
 25 27  1  0  0  0  0
 27 45  1  0  0  0  0
M  END
$$$$
