
 OpenBabel07202414153D

 43 46  0  0  1  0  0  0  0  0999 V2000
    0.9134   -0.2229    0.0710 C   0  0  0  0  0  0  0  0  0  0  0  0
    2.4314   -0.0990   -0.0238 C   0  0  1  0  0  0  0  0  0  0  0  0
    2.8501    0.1102   -1.4056 N   0  0  0  0  0  0  0  0  0  0  0  0
    3.6745   -0.7862   -2.0627 C   0  0  0  0  0  0  0  0  0  0  0  0
    4.1164   -1.7855   -1.5098 O   0  0  0  0  0  0  0  0  0  0  0  0
    3.9906   -0.4950   -3.4909 C   0  0  0  0  0  0  0  0  0  0  0  0
    3.0163    0.1383   -4.2596 C   0  0  0  0  0  0  0  0  0  0  0  0
    3.1445    0.4434   -5.5710 N   0  0  0  0  0  0  0  0  0  0  0  0
    4.3071    0.0841   -6.1540 C   0  0  0  0  0  0  0  0  0  0  0  0
    5.3554   -0.5696   -5.5036 C   0  0  0  0  0  0  0  0  0  0  0  0
    6.5309   -0.9112   -6.1985 C   0  0  0  0  0  0  0  0  0  0  0  0
    7.5733   -1.5734   -5.5549 C   0  0  0  0  0  0  0  0  0  0  0  0
    7.4479   -1.9032   -4.2131 C   0  0  0  0  0  0  0  0  0  0  0  0
    6.2846   -1.5634   -3.5115 C   0  0  0  0  0  0  0  0  0  0  0  0
    5.2034   -0.8847   -4.1282 C   0  0  0  0  0  0  0  0  0  0  0  0
    2.9387    1.0657    0.7796 C   0  0  0  0  0  0  0  0  0  0  0  0
    2.5599    2.3249    0.6383 N   0  0  0  0  0  0  0  0  0  0  0  0
    3.3350    3.0495    1.5111 C   0  0  0  0  0  0  0  0  0  0  0  0
    3.3602    4.4324    1.7505 C   0  0  0  0  0  0  0  0  0  0  0  0
    4.2908    4.9437    2.6650 C   0  0  0  0  0  0  0  0  0  0  0  0
    5.1687    4.0960    3.3390 C   0  0  0  0  0  0  0  0  0  0  0  0
    5.1410    2.7131    3.1322 C   0  0  0  0  0  0  0  0  0  0  0  0
    4.2097    2.2215    2.2077 C   0  0  0  0  0  0  0  0  0  0  0  0
    3.9106    0.9587    1.7541 N   0  0  0  0  0  0  0  0  0  0  0  0
    4.5179   -0.2674    2.2151 C   0  0  0  0  0  0  0  0  0  0  0  0
    0.5634   -1.1020   -0.4821 H   0  0  0  0  0  0  0  0  0  0  0  0
    0.3996    0.6516   -0.3441 H   0  0  0  0  0  0  0  0  0  0  0  0
    0.5978   -0.3343    1.1145 H   0  0  0  0  0  0  0  0  0  0  0  0
    2.8563   -1.0365    0.3427 H   0  0  0  0  0  0  0  0  0  0  0  0
    2.6795    1.0366   -1.7772 H   0  0  0  0  0  0  0  0  0  0  0  0
    2.0493    0.4114   -3.8462 H   0  0  0  0  0  0  0  0  0  0  0  0
    4.3731    0.3401   -7.2096 H   0  0  0  0  0  0  0  0  0  0  0  0
    6.6407   -0.6635   -7.2525 H   0  0  0  0  0  0  0  0  0  0  0  0
    8.4768   -1.8325   -6.1010 H   0  0  0  0  0  0  0  0  0  0  0  0
    8.2517   -2.4295   -3.7039 H   0  0  0  0  0  0  0  0  0  0  0  0
    6.2338   -1.8539   -2.4646 H   0  0  0  0  0  0  0  0  0  0  0  0
    2.6787    5.0888    1.2212 H   0  0  0  0  0  0  0  0  0  0  0  0
    4.3330    6.0156    2.8435 H   0  0  0  0  0  0  0  0  0  0  0  0
    5.8917    4.5148    4.0374 H   0  0  0  0  0  0  0  0  0  0  0  0
    5.8286    2.0619    3.6604 H   0  0  0  0  0  0  0  0  0  0  0  0
    5.2731   -0.0527    2.9735 H   0  0  0  0  0  0  0  0  0  0  0  0
    4.9891   -0.7673    1.3668 H   0  0  0  0  0  0  0  0  0  0  0  0
    3.7366   -0.8923    2.6562 H   0  0  0  0  0  0  0  0  0  0  0  0
  1  2  1  0  0  0  0
  1 26  1  0  0  0  0
  1 27  1  0  0  0  0
  1 28  1  0  0  0  0
  2  3  1  0  0  0  0
  2 16  1  0  0  0  0
  2 29  1  1  0  0  0
  3  4  1  0  0  0  0
  3 30  1  0  0  0  0
  4  5  2  0  0  0  0
  4  6  1  0  0  0  0
  6  7  1  0  0  0  0
  6 15  2  0  0  0  0
  7  8  2  0  0  0  0
  7 31  1  0  0  0  0
  8  9  1  0  0  0  0
  9 10  2  0  0  0  0
  9 32  1  0  0  0  0
 10 11  1  0  0  0  0
 10 15  1  0  0  0  0
 11 12  2  0  0  0  0
 11 33  1  0  0  0  0
 12 13  1  0  0  0  0
 12 34  1  0  0  0  0
 13 14  2  0  0  0  0
 13 35  1  0  0  0  0
 14 15  1  0  0  0  0
 14 36  1  0  0  0  0
 16 17  2  0  0  0  0
 16 24  1  0  0  0  0
 17 18  1  0  0  0  0
 18 19  1  0  0  0  0
 18 23  2  0  0  0  0
 19 20  2  0  0  0  0
 19 37  1  0  0  0  0
 20 21  1  0  0  0  0
 20 38  1  0  0  0  0
 21 22  2  0  0  0  0
 21 39  1  0  0  0  0
 22 23  1  0  0  0  0
 22 40  1  0  0  0  0
 23 24  1  0  0  0  0
 24 25  1  0  0  0  0
 25 41  1  0  0  0  0
 25 42  1  0  0  0  0
 25 43  1  0  0  0  0
M  END
$$$$
