
 OpenBabel07202414193D

 51 54  0  0  1  0  0  0  0  0999 V2000
    1.1393    0.6707    0.7808 O   0  0  0  0  0  0  0  0  0  0  0  0
    2.1841    0.1694    0.3580 C   0  0  0  0  0  0  0  0  0  0  0  0
    2.8258   -0.8340    1.0456 N   0  0  0  0  0  0  0  0  0  0  0  0
    2.1968   -1.4053    2.2140 C   0  0  0  0  0  0  0  0  0  0  0  0
    3.2420   -1.7662    3.2116 C   0  0  0  0  0  0  0  0  0  0  0  0
    3.7915   -0.9647    4.1946 C   0  0  0  0  0  0  0  0  0  0  0  0
    4.7105   -1.6694    5.0219 C   0  0  0  0  0  0  0  0  0  0  0  0
    4.8379   -2.9893    4.6360 C   0  0  0  0  0  0  0  0  0  0  0  0
    3.8682   -3.3578    3.2763 S   0  0  0  0  0  0  0  0  0  0  0  0
    2.8695    0.6578   -0.9258 C   0  0  2  0  0  0  0  0  0  0  0  0
    2.4461    2.1326   -1.0570 C   0  0  0  0  0  0  0  0  0  0  0  0
    3.0505    2.8149   -2.2014 N   0  0  0  0  0  0  0  0  0  0  0  0
    3.6296    4.0824   -2.1958 C   0  0  0  0  0  0  0  0  0  0  0  0
    4.1625    4.5623   -3.1955 O   0  0  0  0  0  0  0  0  0  0  0  0
    3.6816    4.8905   -0.9501 C   0  0  0  0  0  0  0  0  0  0  0  0
    2.6335    4.9998   -0.0332 C   0  0  0  0  0  0  0  0  0  0  0  0
    2.8267    5.6978    1.1572 C   0  0  0  0  0  0  0  0  0  0  0  0
    4.0391    6.3372    1.3538 C   0  0  0  0  0  0  0  0  0  0  0  0
    5.0468    6.3225    0.4550 N   0  0  0  0  0  0  0  0  0  0  0  0
    4.8430    5.6046   -0.6798 C   0  0  0  0  0  0  0  0  0  0  0  0
    2.8784    2.0979   -3.4724 C   0  0  0  0  0  0  0  0  0  0  0  0
    3.2745    0.6061   -3.3740 C   0  0  0  0  0  0  0  0  0  0  0  0
    2.5996   -0.0515   -2.2191 N   0  0  0  0  0  0  0  0  0  0  0  0
    1.9364   -1.2509   -2.3807 C   0  0  0  0  0  0  0  0  0  0  0  0
    0.8311   -1.6057   -1.5966 C   0  0  0  0  0  0  0  0  0  0  0  0
    0.1645   -2.8297   -1.7353 C   0  0  0  0  0  0  0  0  0  0  0  0
    0.5512   -3.7260   -2.7226 C   0  0  0  0  0  0  0  0  0  0  0  0
   -0.3221   -5.2074   -2.8574 Cl  0  0  0  0  0  0  0  0  0  0  0  0
    1.6090   -3.3886   -3.5630 C   0  0  0  0  0  0  0  0  0  0  0  0
    2.1171   -4.4125   -4.8606 Cl  0  0  0  0  0  0  0  0  0  0  0  0
    2.2958   -2.1758   -3.3776 C   0  0  0  0  0  0  0  0  0  0  0  0
    3.5506   -1.3670    0.5799 H   0  0  0  0  0  0  0  0  0  0  0  0
    1.6137   -2.2724    1.8873 H   0  0  0  0  0  0  0  0  0  0  0  0
    1.4966   -0.6924    2.6657 H   0  0  0  0  0  0  0  0  0  0  0  0
    3.5278    0.0784    4.3317 H   0  0  0  0  0  0  0  0  0  0  0  0
    5.2386   -1.2461    5.8661 H   0  0  0  0  0  0  0  0  0  0  0  0
    5.4546   -3.7551    5.0860 H   0  0  0  0  0  0  0  0  0  0  0  0
    3.9544    0.6239   -0.7524 H   0  0  0  0  0  0  0  0  0  0  0  0
    2.7183    2.6179   -0.1223 H   0  0  0  0  0  0  0  0  0  0  0  0
    1.3596    2.2166   -1.1931 H   0  0  0  0  0  0  0  0  0  0  0  0
    1.6714    4.5311   -0.2176 H   0  0  0  0  0  0  0  0  0  0  0  0
    2.0493    5.7377    1.9129 H   0  0  0  0  0  0  0  0  0  0  0  0
    4.2346    6.8993    2.2625 H   0  0  0  0  0  0  0  0  0  0  0  0
    5.6739    5.6153   -1.3815 H   0  0  0  0  0  0  0  0  0  0  0  0
    3.4430    2.5785   -4.2784 H   0  0  0  0  0  0  0  0  0  0  0  0
    1.8146    2.1734   -3.7318 H   0  0  0  0  0  0  0  0  0  0  0  0
    4.3605    0.5211   -3.2426 H   0  0  0  0  0  0  0  0  0  0  0  0
    3.0185    0.1447   -4.3332 H   0  0  0  0  0  0  0  0  0  0  0  0
    0.4081   -0.9141   -0.8759 H   0  0  0  0  0  0  0  0  0  0  0  0
   -0.6711   -3.0540   -1.0767 H   0  0  0  0  0  0  0  0  0  0  0  0
    3.1382   -1.9735   -4.0346 H   0  0  0  0  0  0  0  0  0  0  0  0
  1  2  2  0  0  0  0
  2  3  1  0  0  0  0
  2 10  1  0  0  0  0
  3  4  1  0  0  0  0
  3 32  1  0  0  0  0
  4  5  1  0  0  0  0
  4 33  1  0  0  0  0
  4 34  1  0  0  0  0
  5  6  2  0  0  0  0
  5  9  1  0  0  0  0
  6  7  1  0  0  0  0
  6 35  1  0  0  0  0
  7  8  2  0  0  0  0
  7 36  1  0  0  0  0
  8  9  1  0  0  0  0
  8 37  1  0  0  0  0
 10 11  1  0  0  0  0
 10 23  1  0  0  0  0
 10 38  1  1  0  0  0
 11 12  1  0  0  0  0
 11 39  1  0  0  0  0
 11 40  1  0  0  0  0
 12 13  1  0  0  0  0
 12 21  1  0  0  0  0
 13 14  2  0  0  0  0
 13 15  1  0  0  0  0
 15 16  1  0  0  0  0
 15 20  2  0  0  0  0
 16 17  2  0  0  0  0
 16 41  1  0  0  0  0
 17 18  1  0  0  0  0
 17 42  1  0  0  0  0
 18 19  2  0  0  0  0
 18 43  1  0  0  0  0
 19 20  1  0  0  0  0
 20 44  1  0  0  0  0
 21 22  1  0  0  0  0
 21 45  1  0  0  0  0
 21 46  1  0  0  0  0
 22 23  1  0  0  0  0
 22 47  1  0  0  0  0
 22 48  1  0  0  0  0
 23 24  1  0  0  0  0
 24 25  1  0  0  0  0
 24 31  2  0  0  0  0
 25 26  2  0  0  0  0
 25 49  1  0  0  0  0
 26 27  1  0  0  0  0
 26 50  1  0  0  0  0
 27 28  1  0  0  0  0
 27 29  2  0  0  0  0
 29 30  1  0  0  0  0
 29 31  1  0  0  0  0
 31 51  1  0  0  0  0
M  END
$$$$
