
 OpenBabel07202414183D

 36 39  0  0  1  0  0  0  0  0999 V2000
    5.3105   -1.8893   -2.4195 F   0  0  0  0  0  0  0  0  0  0  0  0
    5.8057   -0.8517   -1.7358 C   0  0  0  0  0  0  0  0  0  0  0  0
    7.1185   -0.9107   -1.2592 C   0  0  0  0  0  0  0  0  0  0  0  0
    7.6548    0.1650   -0.5550 C   0  0  0  0  0  0  0  0  0  0  0  0
    6.8462    1.2666   -0.3446 C   0  0  0  0  0  0  0  0  0  0  0  0
    5.5325    1.3196   -0.8026 C   0  0  0  0  0  0  0  0  0  0  0  0
    4.9961    0.2655   -1.5130 C   0  0  0  0  0  0  0  0  0  0  0  0
    4.9174    2.6136   -0.4019 C   0  0  2  0  0  0  0  0  0  0  0  0
    4.5314    3.5168   -1.5655 C   0  0  0  0  0  0  0  0  0  0  0  0
    3.3787    3.9247   -1.6646 O   0  0  0  0  0  0  0  0  0  0  0  0
    5.5618    3.8224   -2.4310 N   0  0  0  0  0  0  0  0  0  0  0  0
    5.4861    4.5032   -3.6734 C   0  0  0  0  0  0  0  0  0  0  0  0
    4.2822    4.9163   -4.2457 C   0  0  0  0  0  0  0  0  0  0  0  0
    4.1540    5.3521   -5.5223 N   0  0  0  0  0  0  0  0  0  0  0  0
    5.2911    5.4745   -6.2357 C   0  0  0  0  0  0  0  0  0  0  0  0
    6.5712    5.2820   -5.7061 C   0  0  0  0  0  0  0  0  0  0  0  0
    7.7183    5.6296   -6.4500 C   0  0  0  0  0  0  0  0  0  0  0  0
    8.9879    5.4550   -5.9086 C   0  0  0  0  0  0  0  0  0  0  0  0
    9.1288    4.8739   -4.6571 C   0  0  0  0  0  0  0  0  0  0  0  0
    7.9927    4.5190   -3.9195 C   0  0  0  0  0  0  0  0  0  0  0  0
    6.6813    4.7450   -4.4121 C   0  0  0  0  0  0  0  0  0  0  0  0
    6.0417    3.1873    0.4700 C   0  0  0  0  0  0  0  0  0  0  0  0
    7.2535    2.4070    0.2912 O   0  0  0  0  0  0  0  0  0  0  0  0
    7.7110   -1.8026   -1.4468 H   0  0  0  0  0  0  0  0  0  0  0  0
    8.6718    0.1375   -0.1759 H   0  0  0  0  0  0  0  0  0  0  0  0
    3.9799    0.2856   -1.8947 H   0  0  0  0  0  0  0  0  0  0  0  0
    4.0240    2.4440    0.2116 H   0  0  0  0  0  0  0  0  0  0  0  0
    6.4537    3.3894   -2.2236 H   0  0  0  0  0  0  0  0  0  0  0  0
    3.3408    4.8994   -3.7074 H   0  0  0  0  0  0  0  0  0  0  0  0
    5.1404    5.7529   -7.2760 H   0  0  0  0  0  0  0  0  0  0  0  0
    7.6239    6.0920   -7.4311 H   0  0  0  0  0  0  0  0  0  0  0  0
    9.8695    5.7738   -6.4648 H   0  0  0  0  0  0  0  0  0  0  0  0
   10.1173    4.7111   -4.2357 H   0  0  0  0  0  0  0  0  0  0  0  0
    8.1673    4.1046   -2.9320 H   0  0  0  0  0  0  0  0  0  0  0  0
    5.7741    3.1253    1.5321 H   0  0  0  0  0  0  0  0  0  0  0  0
    6.2718    4.2346    0.2476 H   0  0  0  0  0  0  0  0  0  0  0  0
  1  2  1  0  0  0  0
  2  3  1  0  0  0  0
  2  7  2  0  0  0  0
  3  4  2  0  0  0  0
  3 24  1  0  0  0  0
  4  5  1  0  0  0  0
  4 25  1  0  0  0  0
  5  6  2  0  0  0  0
  5 23  1  0  0  0  0
  6  7  1  0  0  0  0
  6  8  1  0  0  0  0
  7 26  1  0  0  0  0
  8 22  1  0  0  0  0
  8  9  1  0  0  0  0
  8 27  1  1  0  0  0
  9 10  2  0  0  0  0
  9 11  1  0  0  0  0
 11 12  1  0  0  0  0
 11 28  1  0  0  0  0
 12 13  1  0  0  0  0
 12 21  2  0  0  0  0
 13 14  2  0  0  0  0
 13 29  1  0  0  0  0
 14 15  1  0  0  0  0
 15 16  2  0  0  0  0
 15 30  1  0  0  0  0
 16 17  1  0  0  0  0
 16 21  1  0  0  0  0
 17 18  2  0  0  0  0
 17 31  1  0  0  0  0
 18 19  1  0  0  0  0
 18 32  1  0  0  0  0
 19 20  2  0  0  0  0
 19 33  1  0  0  0  0
 20 21  1  0  0  0  0
 20 34  1  0  0  0  0
 22 23  1  0  0  0  0
 22 35  1  0  0  0  0
 22 36  1  0  0  0  0
M  END
$$$$
