
 OpenBabel07202414133D

 40 42  0  0  1  0  0  0  0  0999 V2000
    0.8675   -0.0955    0.2102 C   0  0  0  0  0  0  0  0  0  0  0  0
    2.3889   -0.1057    0.1494 C   0  0  0  0  0  0  0  0  0  0  0  0
    3.0050    1.1585   -0.4889 C   0  0  1  0  0  0  0  0  0  0  0  0
    2.4836    2.3990    0.2488 C   0  0  0  0  0  0  0  0  0  0  0  0
    1.6422    3.1368   -0.2600 O   0  0  0  0  0  0  0  0  0  0  0  0
    3.0220    2.5775    1.5089 N   0  0  0  0  0  0  0  0  0  0  0  0
    2.6686    3.6581    2.3486 C   0  0  0  0  0  0  0  0  0  0  0  0
    1.3332    4.0032    2.5648 C   0  0  0  0  0  0  0  0  0  0  0  0
    0.9261    4.9571    3.4334 N   0  0  0  0  0  0  0  0  0  0  0  0
    1.9030    5.6231    4.0887 C   0  0  0  0  0  0  0  0  0  0  0  0
    3.2723    5.3939    3.9275 C   0  0  0  0  0  0  0  0  0  0  0  0
    4.2365    6.1685    4.5997 C   0  0  0  0  0  0  0  0  0  0  0  0
    5.5960    5.9646    4.3710 C   0  0  0  0  0  0  0  0  0  0  0  0
    6.0073    4.9890    3.4722 C   0  0  0  0  0  0  0  0  0  0  0  0
    5.0599    4.2054    2.8135 C   0  0  0  0  0  0  0  0  0  0  0  0
    3.6734    4.3837    3.0280 C   0  0  0  0  0  0  0  0  0  0  0  0
    4.5366    1.1321   -0.5903 C   0  0  0  0  0  0  0  0  0  0  0  0
    5.3005    0.0279   -0.1766 C   0  0  0  0  0  0  0  0  0  0  0  0
    6.6915    0.0236   -0.3042 C   0  0  0  0  0  0  0  0  0  0  0  0
    7.3468    1.1232   -0.8448 C   0  0  0  0  0  0  0  0  0  0  0  0
    6.6117    2.2277   -1.2651 C   0  0  0  0  0  0  0  0  0  0  0  0
    5.2176    2.2308   -1.1458 C   0  0  0  0  0  0  0  0  0  0  0  0
    0.5059   -1.0792    0.5271 H   0  0  0  0  0  0  0  0  0  0  0  0
    0.4320    0.1296   -0.7675 H   0  0  0  0  0  0  0  0  0  0  0  0
    0.5014    0.6379    0.9354 H   0  0  0  0  0  0  0  0  0  0  0  0
    2.6884   -0.9838   -0.4361 H   0  0  0  0  0  0  0  0  0  0  0  0
    2.7719   -0.2492    1.1679 H   0  0  0  0  0  0  0  0  0  0  0  0
    2.6350    1.2266   -1.5218 H   0  0  0  0  0  0  0  0  0  0  0  0
    3.9249    2.1484    1.6657 H   0  0  0  0  0  0  0  0  0  0  0  0
    0.5239    3.4776    2.0661 H   0  0  0  0  0  0  0  0  0  0  0  0
    1.5362    6.3883    4.7709 H   0  0  0  0  0  0  0  0  0  0  0  0
    3.9298    6.9489    5.2933 H   0  0  0  0  0  0  0  0  0  0  0  0
    6.3325    6.5794    4.8803 H   0  0  0  0  0  0  0  0  0  0  0  0
    7.0648    4.8460    3.2645 H   0  0  0  0  0  0  0  0  0  0  0  0
    5.4285    3.4824    2.0904 H   0  0  0  0  0  0  0  0  0  0  0  0
    4.8423   -0.8611    0.2440 H   0  0  0  0  0  0  0  0  0  0  0  0
    7.2617   -0.8470    0.0127 H   0  0  0  0  0  0  0  0  0  0  0  0
    8.4297    1.1145   -0.9507 H   0  0  0  0  0  0  0  0  0  0  0  0
    7.1222    3.0849   -1.6989 H   0  0  0  0  0  0  0  0  0  0  0  0
    4.6679    3.1029   -1.4990 H   0  0  0  0  0  0  0  0  0  0  0  0
  1  2  1  0  0  0  0
  1 23  1  0  0  0  0
  1 24  1  0  0  0  0
  1 25  1  0  0  0  0
  2  3  1  0  0  0  0
  2 26  1  0  0  0  0
  2 27  1  0  0  0  0
  3  4  1  0  0  0  0
  3 17  1  0  0  0  0
  3 28  1  6  0  0  0
  4  5  2  0  0  0  0
  4  6  1  0  0  0  0
  6  7  1  0  0  0  0
  6 29  1  0  0  0  0
  7  8  1  0  0  0  0
  7 16  2  0  0  0  0
  8  9  2  0  0  0  0
  8 30  1  0  0  0  0
  9 10  1  0  0  0  0
 10 11  2  0  0  0  0
 10 31  1  0  0  0  0
 11 12  1  0  0  0  0
 11 16  1  0  0  0  0
 12 13  2  0  0  0  0
 12 32  1  0  0  0  0
 13 14  1  0  0  0  0
 13 33  1  0  0  0  0
 14 15  2  0  0  0  0
 14 34  1  0  0  0  0
 15 16  1  0  0  0  0
 15 35  1  0  0  0  0
 17 18  1  0  0  0  0
 17 22  2  0  0  0  0
 18 19  2  0  0  0  0
 18 36  1  0  0  0  0
 19 20  1  0  0  0  0
 19 37  1  0  0  0  0
 20 21  2  0  0  0  0
 20 38  1  0  0  0  0
 21 22  1  0  0  0  0
 21 39  1  0  0  0  0
 22 40  1  0  0  0  0
M  END
$$$$
