
 OpenBabel07202414123D

 67 70  0  0  1  0  0  0  0  0999 V2000
    3.4891    1.3094    0.2195 C   0  0  0  0  0  0  0  0  0  0  0  0
    2.4762    0.1508    0.0745 C   0  0  0  0  0  0  0  0  0  0  0  0
    1.0672    0.6916    0.3898 C   0  0  0  0  0  0  0  0  0  0  0  0
    2.5093   -0.2670   -1.4169 C   0  0  0  0  0  0  0  0  0  0  0  0
    2.7698   -1.0235    1.0282 C   0  0  0  0  0  0  0  0  0  0  0  0
    3.4891   -0.8757    2.2220 C   0  0  0  0  0  0  0  0  0  0  0  0
    3.7455   -1.9647    3.0899 C   0  0  0  0  0  0  0  0  0  0  0  0
    3.2710   -3.2561    2.8290 C   0  0  0  0  0  0  0  0  0  0  0  0
    2.4870   -3.3722    1.6647 C   0  0  0  0  0  0  0  0  0  0  0  0
    2.2628   -2.3003    0.7796 C   0  0  0  0  0  0  0  0  0  0  0  0
    3.5901   -4.4282    3.6683 N   0  0  0  0  0  0  0  0  0  0  0  0
    3.4696   -5.7658    2.9931 C   0  0  1  0  0  0  0  0  0  0  0  0
    4.7827   -6.5393    2.7750 C   0  0  0  0  0  0  0  0  0  0  0  0
    4.7899   -7.8678    2.3197 C   0  0  0  0  0  0  0  0  0  0  0  0
    5.9896   -8.5271    2.0676 C   0  0  0  0  0  0  0  0  0  0  0  0
    7.1702   -7.8390    2.2698 C   0  0  0  0  0  0  0  0  0  0  0  0
    7.2210   -6.5569    2.6812 N   0  0  0  0  0  0  0  0  0  0  0  0
    6.0358   -5.9376    2.9052 C   0  0  0  0  0  0  0  0  0  0  0  0
    2.1955   -6.6014    3.3994 C   0  0  0  0  0  0  0  0  0  0  0  0
    1.7723   -7.5070    2.6756 O   0  0  0  0  0  0  0  0  0  0  0  0
    1.5697   -6.3470    4.6108 N   0  0  0  0  0  0  0  0  0  0  0  0
    0.5148   -7.2278    5.1019 C   0  0  0  0  0  0  0  0  0  0  0  0
    0.1277   -6.9732    6.5634 C   0  0  0  0  0  0  0  0  0  0  0  0
   -1.0603   -7.8054    7.0001 C   0  0  0  0  0  0  0  0  0  0  0  0
   -2.3682   -7.3351    6.7919 C   0  0  0  0  0  0  0  0  0  0  0  0
   -3.4739   -8.0922    7.1768 C   0  0  0  0  0  0  0  0  0  0  0  0
   -3.2925   -9.3397    7.7743 C   0  0  0  0  0  0  0  0  0  0  0  0
   -2.0003   -9.8129    7.9807 C   0  0  0  0  0  0  0  0  0  0  0  0
   -0.8891   -9.0606    7.5990 C   0  0  0  0  0  0  0  0  0  0  0  0
   -1.8233  -11.0074    8.5549 F   0  0  0  0  0  0  0  0  0  0  0  0
    4.0721   -4.2837    5.0128 C   0  0  0  0  0  0  0  0  0  0  0  0
    4.1499   -3.1863    5.5633 O   0  0  0  0  0  0  0  0  0  0  0  0
    4.4443   -5.4638    5.8092 C   0  0  0  0  0  0  0  0  0  0  0  0
    5.0309   -5.5608    7.0626 C   0  0  0  0  0  0  0  0  0  0  0  0
    5.1626   -6.9425    7.3628 C   0  0  0  0  0  0  0  0  0  0  0  0
    4.6403   -7.6131    6.2881 C   0  0  0  0  0  0  0  0  0  0  0  0
    4.1754   -6.7300    5.3786 O   0  0  0  0  0  0  0  0  0  0  0  0
    3.2979    2.0986   -0.5178 H   0  0  0  0  0  0  0  0  0  0  0  0
    4.5165    0.9581    0.0672 H   0  0  0  0  0  0  0  0  0  0  0  0
    3.4340    1.7844    1.2047 H   0  0  0  0  0  0  0  0  0  0  0  0
    0.8059    1.5269   -0.2707 H   0  0  0  0  0  0  0  0  0  0  0  0
    0.9993    1.0508    1.4230 H   0  0  0  0  0  0  0  0  0  0  0  0
    0.3010   -0.0817    0.2590 H   0  0  0  0  0  0  0  0  0  0  0  0
    2.3093    0.5930   -2.0691 H   0  0  0  0  0  0  0  0  0  0  0  0
    1.7510   -1.0173   -1.6631 H   0  0  0  0  0  0  0  0  0  0  0  0
    3.4883   -0.6727   -1.6959 H   0  0  0  0  0  0  0  0  0  0  0  0
    3.8822    0.0937    2.5198 H   0  0  0  0  0  0  0  0  0  0  0  0
    4.3611   -1.7362    3.9544 H   0  0  0  0  0  0  0  0  0  0  0  0
    1.9812   -4.2927    1.3882 H   0  0  0  0  0  0  0  0  0  0  0  0
    1.6611   -2.5006   -0.1039 H   0  0  0  0  0  0  0  0  0  0  0  0
    3.2603   -5.5739    1.9387 H   0  0  0  0  0  0  0  0  0  0  0  0
    3.8646   -8.4074    2.1362 H   0  0  0  0  0  0  0  0  0  0  0  0
    5.9966   -9.5513    1.7128 H   0  0  0  0  0  0  0  0  0  0  0  0
    8.1320   -8.3099    2.0886 H   0  0  0  0  0  0  0  0  0  0  0  0
    6.1495   -4.8994    3.2064 H   0  0  0  0  0  0  0  0  0  0  0  0
    1.9523   -5.6559    5.2391 H   0  0  0  0  0  0  0  0  0  0  0  0
    0.8538   -8.2649    4.9845 H   0  0  0  0  0  0  0  0  0  0  0  0
   -0.3484   -7.0924    4.4414 H   0  0  0  0  0  0  0  0  0  0  0  0
   -0.1054   -5.9117    6.7142 H   0  0  0  0  0  0  0  0  0  0  0  0
    0.9813   -7.1814    7.2227 H   0  0  0  0  0  0  0  0  0  0  0  0
   -2.5311   -6.3653    6.3268 H   0  0  0  0  0  0  0  0  0  0  0  0
   -4.4796   -7.7148    7.0118 H   0  0  0  0  0  0  0  0  0  0  0  0
   -4.1424   -9.9414    8.0791 H   0  0  0  0  0  0  0  0  0  0  0  0
    0.0999   -9.4698    7.7810 H   0  0  0  0  0  0  0  0  0  0  0  0
    5.3363   -4.7263    7.6796 H   0  0  0  0  0  0  0  0  0  0  0  0
    5.5919   -7.3970    8.2448 H   0  0  0  0  0  0  0  0  0  0  0  0
    4.5248   -8.6562    6.0226 H   0  0  0  0  0  0  0  0  0  0  0  0
  1  2  1  0  0  0  0
  1 38  1  0  0  0  0
  1 39  1  0  0  0  0
  1 40  1  0  0  0  0
  2  3  1  0  0  0  0
  2  4  1  0  0  0  0
  2  5  1  0  0  0  0
  3 41  1  0  0  0  0
  3 42  1  0  0  0  0
  3 43  1  0  0  0  0
  4 44  1  0  0  0  0
  4 45  1  0  0  0  0
  4 46  1  0  0  0  0
  5  6  1  0  0  0  0
  5 10  2  0  0  0  0
  6  7  2  0  0  0  0
  6 47  1  0  0  0  0
  7  8  1  0  0  0  0
  7 48  1  0  0  0  0
  8  9  2  0  0  0  0
  8 11  1  0  0  0  0
  9 10  1  0  0  0  0
  9 49  1  0  0  0  0
 10 50  1  0  0  0  0
 11 12  1  0  0  0  0
 11 31  1  0  0  0  0
 12 13  1  0  0  0  0
 12 19  1  0  0  0  0
 12 51  1  6  0  0  0
 13 14  1  0  0  0  0
 13 18  2  0  0  0  0
 14 15  2  0  0  0  0
 14 52  1  0  0  0  0
 15 16  1  0  0  0  0
 15 53  1  0  0  0  0
 16 17  2  0  0  0  0
 16 54  1  0  0  0  0
 17 18  1  0  0  0  0
 18 55  1  0  0  0  0
 19 20  2  0  0  0  0
 19 21  1  0  0  0  0
 21 22  1  0  0  0  0
 21 56  1  0  0  0  0
 22 23  1  0  0  0  0
 22 57  1  0  0  0  0
 22 58  1  0  0  0  0
 23 24  1  0  0  0  0
 23 59  1  0  0  0  0
 23 60  1  0  0  0  0
 24 25  1  0  0  0  0
 24 29  2  0  0  0  0
 25 26  2  0  0  0  0
 25 61  1  0  0  0  0
 26 27  1  0  0  0  0
 26 62  1  0  0  0  0
 27 28  2  0  0  0  0
 27 63  1  0  0  0  0
 28 29  1  0  0  0  0
 28 30  1  0  0  0  0
 29 64  1  0  0  0  0
 31 32  2  0  0  0  0
 31 33  1  0  0  0  0
 33 34  2  0  0  0  0
 33 37  1  0  0  0  0
 34 35  1  0  0  0  0
 34 65  1  0  0  0  0
 35 36  2  0  0  0  0
 35 66  1  0  0  0  0
 36 37  1  0  0  0  0
 36 67  1  0  0  0  0
M  END
$$$$
