
 OpenBabel07202414173D

 62 67  0  0  1  0  0  0  0  0999 V2000
    1.0082    0.4705   -0.0874 Cl  0  0  0  0  0  0  0  0  0  0  0  0
    2.7241    0.3425   -0.0776 C   0  0  0  0  0  0  0  0  0  0  0  0
    3.5061    1.4885   -0.0972 C   0  0  0  0  0  0  0  0  0  0  0  0
    4.8958    1.3705   -0.0947 C   0  0  0  0  0  0  0  0  0  0  0  0
    5.5183    0.1088   -0.0620 C   0  0  0  0  0  0  0  0  0  0  0  0
    4.7268   -1.0558   -0.0573 C   0  0  0  0  0  0  0  0  0  0  0  0
    3.3217   -0.9156   -0.0570 C   0  0  0  0  0  0  0  0  0  0  0  0
    5.3850   -2.4410   -0.0127 C   0  0  3  0  0  0  0  0  0  0  0  0
    6.9258   -2.3568   -0.2153 C   0  0  0  0  0  0  0  0  0  0  0  0
    7.6426   -1.1982    0.3314 N   0  0  0  0  0  0  0  0  0  0  0  0
    7.7817   -1.3027    1.7880 C   0  0  0  0  0  0  0  0  0  0  0  0
    8.7204   -0.2803    2.4294 C   0  0  0  0  0  0  0  0  0  0  0  0
    9.3454    0.5958    1.8400 O   0  0  0  0  0  0  0  0  0  0  0  0
    8.7706   -0.4530    3.8058 N   0  0  0  0  0  0  0  0  0  0  0  0
    9.4022    0.5248    4.6561 C   0  0  0  0  0  0  0  0  0  0  0  0
    9.8864   -0.2068    5.8821 C   0  0  0  0  0  0  0  0  0  0  0  0
   10.6561    0.6798    6.8655 C   0  0  0  0  0  0  0  0  0  0  0  0
   11.6769   -0.3405    7.0190 O   0  0  0  0  0  0  0  0  0  0  0  0
   11.2128   -0.9774    5.7959 C   0  0  0  0  0  0  0  0  0  0  0  0
    7.0316    0.0517   -0.1327 C   0  0  0  0  0  0  0  0  0  0  0  0
    4.8498   -3.3689   -1.1117 C   0  0  0  0  0  0  0  0  0  0  0  0
    3.8834   -4.3173   -0.4431 C   0  0  0  0  0  0  0  0  0  0  0  0
    3.8787   -4.0339    0.9561 N   0  0  0  0  0  0  0  0  0  0  0  0
    2.9261   -4.5888    1.8889 C   0  0  0  0  0  0  0  0  0  0  0  0
    2.8394   -4.0296    3.1755 C   0  0  0  0  0  0  0  0  0  0  0  0
    2.0376   -4.4626    4.1752 N   0  0  0  0  0  0  0  0  0  0  0  0
    1.2207   -5.4847    3.8848 C   0  0  0  0  0  0  0  0  0  0  0  0
    1.1118   -6.0743    2.6280 C   0  0  0  0  0  0  0  0  0  0  0  0
    0.1346   -7.0643    2.4217 C   0  0  0  0  0  0  0  0  0  0  0  0
   -0.0336   -7.6601    1.1773 C   0  0  0  0  0  0  0  0  0  0  0  0
    0.8108   -7.3073    0.1457 C   0  0  0  0  0  0  0  0  0  0  0  0
    1.8035   -6.3445    0.3567 C   0  0  0  0  0  0  0  0  0  0  0  0
    1.9856   -5.6427    1.5875 C   0  0  0  0  0  0  0  0  0  0  0  0
    4.9462   -3.1735    1.2780 C   0  0  0  0  0  0  0  0  0  0  0  0
    5.3985   -2.9678    2.3961 O   0  0  0  0  0  0  0  0  0  0  0  0
    3.0444    2.4718   -0.1199 H   0  0  0  0  0  0  0  0  0  0  0  0
    5.4997    2.2770   -0.1231 H   0  0  0  0  0  0  0  0  0  0  0  0
    2.6729   -1.7875   -0.0366 H   0  0  0  0  0  0  0  0  0  0  0  0
    7.1282   -2.3286   -1.2969 H   0  0  0  0  0  0  0  0  0  0  0  0
    7.4000   -3.2863    0.1276 H   0  0  0  0  0  0  0  0  0  0  0  0
    8.2125   -2.2846    2.0292 H   0  0  0  0  0  0  0  0  0  0  0  0
    6.8187   -1.1936    2.2876 H   0  0  0  0  0  0  0  0  0  0  0  0
    8.0779   -1.0713    4.2162 H   0  0  0  0  0  0  0  0  0  0  0  0
    8.6348    1.2613    4.9162 H   0  0  0  0  0  0  0  0  0  0  0  0
   10.2088    1.0375    4.1229 H   0  0  0  0  0  0  0  0  0  0  0  0
    9.0986   -0.7848    6.3845 H   0  0  0  0  0  0  0  0  0  0  0  0
   10.1339    0.8951    7.8011 H   0  0  0  0  0  0  0  0  0  0  0  0
   11.0846    1.6011    6.4569 H   0  0  0  0  0  0  0  0  0  0  0  0
   11.1342   -2.0624    5.9060 H   0  0  0  0  0  0  0  0  0  0  0  0
   11.8717   -0.7345    4.9561 H   0  0  0  0  0  0  0  0  0  0  0  0
    7.3066    0.1894   -1.1873 H   0  0  0  0  0  0  0  0  0  0  0  0
    7.4481    0.9175    0.3921 H   0  0  0  0  0  0  0  0  0  0  0  0
    5.6462   -3.9687   -1.5721 H   0  0  0  0  0  0  0  0  0  0  0  0
    4.3701   -2.8304   -1.9361 H   0  0  0  0  0  0  0  0  0  0  0  0
    4.2615   -5.3369   -0.5730 H   0  0  0  0  0  0  0  0  0  0  0  0
    2.8882   -4.1861   -0.8714 H   0  0  0  0  0  0  0  0  0  0  0  0
    3.3979   -3.1415    3.4602 H   0  0  0  0  0  0  0  0  0  0  0  0
    0.6241   -5.8346    4.7242 H   0  0  0  0  0  0  0  0  0  0  0  0
   -0.5344   -7.3595    3.2307 H   0  0  0  0  0  0  0  0  0  0  0  0
   -0.8206   -8.3891    1.0128 H   0  0  0  0  0  0  0  0  0  0  0  0
    0.7070   -7.7660   -0.8352 H   0  0  0  0  0  0  0  0  0  0  0  0
    2.4231   -6.1678   -0.5074 H   0  0  0  0  0  0  0  0  0  0  0  0
  1  2  1  0  0  0  0
  2  3  1  0  0  0  0
  2  7  2  0  0  0  0
  3  4  2  0  0  0  0
  3 36  1  0  0  0  0
  4  5  1  0  0  0  0
  4 37  1  0  0  0  0
  5  6  2  0  0  0  0
  5 20  1  0  0  0  0
  6  7  1  0  0  0  0
  6  8  1  0  0  0  0
  7 38  1  0  0  0  0
  8  9  1  0  0  0  0
  8 21  1  0  0  0  0
  8 34  1  0  0  0  0
  9 10  1  0  0  0  0
  9 39  1  0  0  0  0
  9 40  1  0  0  0  0
 10 11  1  0  0  0  0
 10 20  1  0  0  0  0
 11 12  1  0  0  0  0
 11 41  1  0  0  0  0
 11 42  1  0  0  0  0
 12 13  2  0  0  0  0
 12 14  1  0  0  0  0
 14 15  1  0  0  0  0
 14 43  1  0  0  0  0
 15 16  1  0  0  0  0
 15 44  1  0  0  0  0
 15 45  1  0  0  0  0
 16 17  1  0  0  0  0
 16 19  1  0  0  0  0
 16 46  1  0  0  0  0
 17 18  1  0  0  0  0
 17 47  1  0  0  0  0
 17 48  1  0  0  0  0
 18 19  1  0  0  0  0
 19 49  1  0  0  0  0
 19 50  1  0  0  0  0
 20 51  1  0  0  0  0
 20 52  1  0  0  0  0
 21 22  1  0  0  0  0
 21 53  1  0  0  0  0
 21 54  1  0  0  0  0
 22 23  1  0  0  0  0
 22 55  1  0  0  0  0
 22 56  1  0  0  0  0
 23 24  1  0  0  0  0
 23 34  1  0  0  0  0
 24 25  1  0  0  0  0
 24 33  2  0  0  0  0
 25 26  2  0  0  0  0
 25 57  1  0  0  0  0
 26 27  1  0  0  0  0
 27 28  2  0  0  0  0
 27 58  1  0  0  0  0
 28 29  1  0  0  0  0
 28 33  1  0  0  0  0
 29 30  2  0  0  0  0
 29 59  1  0  0  0  0
 30 31  1  0  0  0  0
 30 60  1  0  0  0  0
 31 32  2  0  0  0  0
 31 61  1  0  0  0  0
 32 33  1  0  0  0  0
 32 62  1  0  0  0  0
 34 35  2  0  0  0  0
M  END
$$$$
