
 OpenBabel07202414123D

 58 61  0  0  1  0  0  0  0  0999 V2000
    5.7111    5.6854    4.0013 C   0  0  0  0  0  0  0  0  0  0  0  0
    5.1095    6.2117    2.6863 C   0  0  0  0  0  0  0  0  0  0  0  0
    3.6090    6.5156    2.8704 C   0  0  0  0  0  0  0  0  0  0  0  0
    5.8152    7.5376    2.3451 C   0  0  0  0  0  0  0  0  0  0  0  0
    5.3104    5.2362    1.5975 N   0  0  0  0  0  0  0  0  0  0  0  0
    4.8094    3.9487    1.6496 C   0  0  0  0  0  0  0  0  0  0  0  0
    4.2279    3.4758    2.6220 O   0  0  0  0  0  0  0  0  0  0  0  0
    4.9901    3.1074    0.3932 C   0  0  0  0  0  0  0  0  0  0  0  0
    6.3414    2.6280    0.1361 N   0  0  0  0  0  0  0  0  0  0  0  0
    6.9710    1.7210    1.0929 C   0  0  0  0  0  0  0  0  0  0  0  0
    7.8289    0.6623    0.3998 C   0  0  3  0  0  0  0  0  0  0  0  0
    7.0241   -0.5906    0.0275 C   0  0  0  0  0  0  0  0  0  0  0  0
    7.3840   -1.6814    0.4668 O   0  0  0  0  0  0  0  0  0  0  0  0
    5.9414   -0.3890   -0.8101 N   0  0  0  0  0  0  0  0  0  0  0  0
    5.1075   -1.3952   -1.3919 C   0  0  0  0  0  0  0  0  0  0  0  0
    5.2429   -2.7563   -1.1035 C   0  0  0  0  0  0  0  0  0  0  0  0
    4.5774   -3.7545   -1.7347 N   0  0  0  0  0  0  0  0  0  0  0  0
    3.7146   -3.3881   -2.6988 C   0  0  0  0  0  0  0  0  0  0  0  0
    3.4223   -2.0693   -3.0333 C   0  0  0  0  0  0  0  0  0  0  0  0
    2.4644   -1.7787   -4.0199 C   0  0  0  0  0  0  0  0  0  0  0  0
    2.1518   -0.4608   -4.3357 C   0  0  0  0  0  0  0  0  0  0  0  0
    2.7926    0.5758   -3.6711 C   0  0  0  0  0  0  0  0  0  0  0  0
    3.7587    0.2952   -2.6967 C   0  0  0  0  0  0  0  0  0  0  0  0
    4.1168   -1.0339   -2.3538 C   0  0  0  0  0  0  0  0  0  0  0  0
    8.6252    1.2556   -0.7477 C   0  0  0  0  0  0  0  0  0  0  0  0
    9.7049    0.5384   -1.2984 C   0  0  0  0  0  0  0  0  0  0  0  0
   10.4605    1.0932   -2.3354 C   0  0  0  0  0  0  0  0  0  0  0  0
   11.7705    0.2017   -3.0064 Cl  0  0  0  0  0  0  0  0  0  0  0  0
   10.1619    2.3584   -2.8315 C   0  0  0  0  0  0  0  0  0  0  0  0
    9.0953    3.0804   -2.2956 C   0  0  0  0  0  0  0  0  0  0  0  0
    8.3258    2.5323   -1.2613 C   0  0  0  0  0  0  0  0  0  0  0  0
    7.1258    3.2843   -0.7953 C   0  0  0  0  0  0  0  0  0  0  0  0
    6.8181    4.3638   -1.2862 O   0  0  0  0  0  0  0  0  0  0  0  0
    5.6362    6.4314    4.8000 H   0  0  0  0  0  0  0  0  0  0  0  0
    6.7695    5.4328    3.8701 H   0  0  0  0  0  0  0  0  0  0  0  0
    5.2033    4.7860    4.3610 H   0  0  0  0  0  0  0  0  0  0  0  0
    3.4390    7.1659    3.7359 H   0  0  0  0  0  0  0  0  0  0  0  0
    3.0135    5.6104    3.0224 H   0  0  0  0  0  0  0  0  0  0  0  0
    3.1993    7.0211    1.9875 H   0  0  0  0  0  0  0  0  0  0  0  0
    5.7216    8.2543    3.1710 H   0  0  0  0  0  0  0  0  0  0  0  0
    5.3829    8.0063    1.4537 H   0  0  0  0  0  0  0  0  0  0  0  0
    6.8829    7.3856    2.1548 H   0  0  0  0  0  0  0  0  0  0  0  0
    5.8381    5.5106    0.7703 H   0  0  0  0  0  0  0  0  0  0  0  0
    4.6176    3.6720   -0.4685 H   0  0  0  0  0  0  0  0  0  0  0  0
    4.3540    2.2197    0.4871 H   0  0  0  0  0  0  0  0  0  0  0  0
    6.2109    1.2647    1.7356 H   0  0  0  0  0  0  0  0  0  0  0  0
    7.6159    2.3445    1.7289 H   0  0  0  0  0  0  0  0  0  0  0  0
    8.5560    0.3229    1.1526 H   0  0  0  0  0  0  0  0  0  0  0  0
    5.8031    0.5564   -1.1400 H   0  0  0  0  0  0  0  0  0  0  0  0
    5.9099   -3.1293   -0.3339 H   0  0  0  0  0  0  0  0  0  0  0  0
    3.2387   -4.2215   -3.2141 H   0  0  0  0  0  0  0  0  0  0  0  0
    1.9455   -2.5813   -4.5424 H   0  0  0  0  0  0  0  0  0  0  0  0
    1.4020   -0.2437   -5.0944 H   0  0  0  0  0  0  0  0  0  0  0  0
    2.5404    1.6065   -3.9036 H   0  0  0  0  0  0  0  0  0  0  0  0
    4.2070    1.1469   -2.1966 H   0  0  0  0  0  0  0  0  0  0  0  0
    9.9578   -0.4503   -0.9223 H   0  0  0  0  0  0  0  0  0  0  0  0
   10.7437    2.7844   -3.6469 H   0  0  0  0  0  0  0  0  0  0  0  0
    8.8531    4.0610   -2.7015 H   0  0  0  0  0  0  0  0  0  0  0  0
  1  2  1  0  0  0  0
  1 34  1  0  0  0  0
  1 35  1  0  0  0  0
  1 36  1  0  0  0  0
  2  3  1  0  0  0  0
  2  4  1  0  0  0  0
  2  5  1  0  0  0  0
  3 37  1  0  0  0  0
  3 38  1  0  0  0  0
  3 39  1  0  0  0  0
  4 40  1  0  0  0  0
  4 41  1  0  0  0  0
  4 42  1  0  0  0  0
  5  6  1  0  0  0  0
  5 43  1  0  0  0  0
  6  7  2  0  0  0  0
  6  8  1  0  0  0  0
  8  9  1  0  0  0  0
  8 44  1  0  0  0  0
  8 45  1  0  0  0  0
  9 10  1  0  0  0  0
  9 32  1  0  0  0  0
 10 11  1  0  0  0  0
 10 46  1  0  0  0  0
 10 47  1  0  0  0  0
 11 12  1  0  0  0  0
 11 25  1  0  0  0  0
 11 48  1  0  0  0  0
 12 13  2  0  0  0  0
 12 14  1  0  0  0  0
 14 15  1  0  0  0  0
 14 49  1  0  0  0  0
 15 16  1  0  0  0  0
 15 24  2  0  0  0  0
 16 17  2  0  0  0  0
 16 50  1  0  0  0  0
 17 18  1  0  0  0  0
 18 19  2  0  0  0  0
 18 51  1  0  0  0  0
 19 20  1  0  0  0  0
 19 24  1  0  0  0  0
 20 21  2  0  0  0  0
 20 52  1  0  0  0  0
 21 22  1  0  0  0  0
 21 53  1  0  0  0  0
 22 23  2  0  0  0  0
 22 54  1  0  0  0  0
 23 24  1  0  0  0  0
 23 55  1  0  0  0  0
 25 26  1  0  0  0  0
 25 31  2  0  0  0  0
 26 27  2  0  0  0  0
 26 56  1  0  0  0  0
 27 28  1  0  0  0  0
 27 29  1  0  0  0  0
 29 30  2  0  0  0  0
 29 57  1  0  0  0  0
 30 31  1  0  0  0  0
 30 58  1  0  0  0  0
 31 32  1  0  0  0  0
 32 33  2  0  0  0  0
M  END
$$$$
