
 OpenBabel07202414173D

 48 50  0  0  1  0  0  0  0  0999 V2000
    0.9999   -2.7140   -0.2623 Cl  0  0  0  0  0  0  0  0  0  0  0  0
    2.5767   -2.3610   -0.9945 C   0  0  0  0  0  0  0  0  0  0  0  0
    3.5625   -1.7903    0.0171 C   0  0  0  0  0  0  0  0  0  0  0  0
    3.2357   -1.4565    1.1567 O   0  0  0  0  0  0  0  0  0  0  0  0
    4.8797   -1.6352   -0.4223 N   0  0  0  0  0  0  0  0  0  0  0  0
    5.8988   -1.2282    0.5562 C   0  0  0  0  0  0  0  0  0  0  0  0
    6.9934   -0.3389   -0.0549 C   0  0  0  0  0  0  0  0  0  0  0  0
    7.5503   -0.8893   -1.3431 N   0  0  0  0  0  0  0  0  0  0  0  0
    8.5788   -2.2566   -1.1834 S   0  0  0  0  0  0  0  0  0  0  0  0
    7.9789   -3.2034   -0.2726 O   0  0  0  0  0  0  0  0  0  0  0  0
    8.9773   -2.6503   -2.5179 O   0  0  0  0  0  0  0  0  0  0  0  0
   10.0694   -1.8062   -0.4241 C   0  0  0  0  0  0  0  0  0  0  0  0
   10.5094   -2.2790    0.8518 C   0  0  0  0  0  0  0  0  0  0  0  0
   11.7613   -1.7998    1.1739 C   0  0  0  0  0  0  0  0  0  0  0  0
   12.4016   -0.7964   -0.0569 S   0  0  0  0  0  0  0  0  0  0  0  0
   11.0114   -1.0062   -1.0336 C   0  0  0  0  0  0  0  0  0  0  0  0
    6.4142   -1.1384   -2.3333 C   0  0  2  0  0  0  0  0  0  0  0  0
    5.7279    0.1724   -2.7784 C   0  0  0  0  0  0  0  0  0  0  0  0
    4.5266    0.2449   -3.0421 O   0  0  0  0  0  0  0  0  0  0  0  0
    6.5942    1.2373   -2.8834 N   0  0  0  0  0  0  0  0  0  0  0  0
    6.1728    2.5819   -3.1760 C   0  0  0  0  0  0  0  0  0  0  0  0
    6.4367    2.9490   -4.6102 C   0  0  0  0  0  0  0  0  0  0  0  0
    5.4243    2.8072   -5.5678 C   0  0  0  0  0  0  0  0  0  0  0  0
    5.6377    3.2074   -6.8868 C   0  0  0  0  0  0  0  0  0  0  0  0
    6.8716    3.7329   -7.2653 C   0  0  0  0  0  0  0  0  0  0  0  0
    7.9004    3.8384   -6.3311 C   0  0  0  0  0  0  0  0  0  0  0  0
    7.6871    3.4451   -5.0087 C   0  0  0  0  0  0  0  0  0  0  0  0
    5.3738   -2.0996   -1.7328 C   0  0  0  0  0  0  0  0  0  0  0  0
    2.4227   -1.6409   -1.8026 H   0  0  0  0  0  0  0  0  0  0  0  0
    2.9568   -3.3063   -1.3904 H   0  0  0  0  0  0  0  0  0  0  0  0
    6.3182   -2.1416    0.9850 H   0  0  0  0  0  0  0  0  0  0  0  0
    5.4379   -0.6899    1.3911 H   0  0  0  0  0  0  0  0  0  0  0  0
    7.8041   -0.1497    0.6554 H   0  0  0  0  0  0  0  0  0  0  0  0
    6.5571    0.6452   -0.2693 H   0  0  0  0  0  0  0  0  0  0  0  0
    9.9527   -2.9560    1.4908 H   0  0  0  0  0  0  0  0  0  0  0  0
   12.3410   -2.0009    2.0658 H   0  0  0  0  0  0  0  0  0  0  0  0
   10.9647   -0.5598   -2.0179 H   0  0  0  0  0  0  0  0  0  0  0  0
    6.8248   -1.5660   -3.2564 H   0  0  0  0  0  0  0  0  0  0  0  0
    7.5720    1.0587   -2.6897 H   0  0  0  0  0  0  0  0  0  0  0  0
    6.7384    3.2494   -2.5148 H   0  0  0  0  0  0  0  0  0  0  0  0
    5.1139    2.7231   -2.9296 H   0  0  0  0  0  0  0  0  0  0  0  0
    4.4576    2.3954   -5.2827 H   0  0  0  0  0  0  0  0  0  0  0  0
    4.8372    3.1161   -7.6160 H   0  0  0  0  0  0  0  0  0  0  0  0
    7.0306    4.0602   -8.2894 H   0  0  0  0  0  0  0  0  0  0  0  0
    8.8659    4.2371   -6.6315 H   0  0  0  0  0  0  0  0  0  0  0  0
    8.4966    3.5446   -4.2897 H   0  0  0  0  0  0  0  0  0  0  0  0
    5.8056   -3.0925   -1.5699 H   0  0  0  0  0  0  0  0  0  0  0  0
    4.5531   -2.2383   -2.4399 H   0  0  0  0  0  0  0  0  0  0  0  0
  1  2  1  0  0  0  0
  2  3  1  0  0  0  0
  2 29  1  0  0  0  0
  2 30  1  0  0  0  0
  3  4  2  0  0  0  0
  3  5  1  0  0  0  0
  5  6  1  0  0  0  0
  5 28  1  0  0  0  0
  6  7  1  0  0  0  0
  6 31  1  0  0  0  0
  6 32  1  0  0  0  0
  7  8  1  0  0  0  0
  7 33  1  0  0  0  0
  7 34  1  0  0  0  0
  8  9  1  0  0  0  0
  8 17  1  0  0  0  0
  9 10  2  0  0  0  0
  9 11  2  0  0  0  0
  9 12  1  0  0  0  0
 12 13  1  0  0  0  0
 12 16  2  0  0  0  0
 13 14  2  0  0  0  0
 13 35  1  0  0  0  0
 14 15  1  0  0  0  0
 14 36  1  0  0  0  0
 15 16  1  0  0  0  0
 16 37  1  0  0  0  0
 17 28  1  0  0  0  0
 17 18  1  0  0  0  0
 17 38  1  6  0  0  0
 18 19  2  0  0  0  0
 18 20  1  0  0  0  0
 20 21  1  0  0  0  0
 20 39  1  0  0  0  0
 21 22  1  0  0  0  0
 21 40  1  0  0  0  0
 21 41  1  0  0  0  0
 22 23  1  0  0  0  0
 22 27  2  0  0  0  0
 23 24  2  0  0  0  0
 23 42  1  0  0  0  0
 24 25  1  0  0  0  0
 24 43  1  0  0  0  0
 25 26  2  0  0  0  0
 25 44  1  0  0  0  0
 26 27  1  0  0  0  0
 26 45  1  0  0  0  0
 27 46  1  0  0  0  0
 28 47  1  0  0  0  0
 28 48  1  0  0  0  0
M  END
$$$$
