
 OpenBabel07202414193D

 47 50  0  0  0  0  0  0  0  0999 V2000
    3.6603   -0.1697   -0.4944 O   0  0  0  0  0  0  0  0  0  0  0  0
    2.9949    0.0640    0.5162 C   0  0  0  0  0  0  0  0  0  0  0  0
    2.8359    1.3720    0.9650 N   0  0  0  0  0  0  0  0  0  0  0  0
    2.2203    1.5794    2.2311 C   0  0  0  0  0  0  0  0  0  0  0  0
    2.1510    2.9625    2.8432 C   0  0  0  0  0  0  0  0  0  0  0  0
    3.4485    3.6463    2.7603 N   0  0  0  0  0  0  0  0  0  0  0  0
    4.5347    2.9639    3.5219 C   0  0  0  0  0  0  0  0  0  0  0  0
    4.2637    2.7156    5.0012 C   0  0  0  0  0  0  0  0  0  0  0  0
    4.3384    1.4204    5.5489 C   0  0  0  0  0  0  0  0  0  0  0  0
    4.1299    1.2069    6.9159 C   0  0  0  0  0  0  0  0  0  0  0  0
    3.8518    2.2835    7.7523 C   0  0  0  0  0  0  0  0  0  0  0  0
    3.7739    3.5699    7.2264 C   0  0  0  0  0  0  0  0  0  0  0  0
    3.9890    3.7835    5.8579 C   0  0  0  0  0  0  0  0  0  0  0  0
    3.7645    3.6814    1.3033 C   0  0  0  0  0  0  0  0  0  0  0  0
    3.8759    2.3281    0.5856 C   0  0  0  0  0  0  0  0  0  0  0  0
    2.3251   -1.0859    1.2408 C   0  0  0  0  0  0  0  0  0  0  0  0
    1.8704   -1.9757    0.3196 C   0  0  0  0  0  0  0  0  0  0  0  0
    2.6399   -3.2517    0.5660 C   0  0  0  0  0  0  0  0  0  0  0  0
    3.2218   -3.8521   -0.3235 O   0  0  0  0  0  0  0  0  0  0  0  0
    2.5807   -3.7032    1.8678 N   0  0  0  0  0  0  0  0  0  0  0  0
    1.9569   -2.8786    2.8211 C   0  0  0  0  0  0  0  0  0  0  0  0
    0.9535   -3.4043    3.6305 C   0  0  0  0  0  0  0  0  0  0  0  0
    0.1759   -2.5525    4.4059 C   0  0  0  0  0  0  0  0  0  0  0  0
    0.5776   -1.2425    4.5627 C   0  0  0  0  0  0  0  0  0  0  0  0
    1.6149   -0.7567    3.7682 C   0  0  0  0  0  0  0  0  0  0  0  0
    2.0925   -1.4934    2.6839 C   0  0  0  0  0  0  0  0  0  0  0  0
    2.9163    1.0329    2.8607 H   0  0  0  0  0  0  0  0  0  0  0  0
    1.2150    1.1484    2.1978 H   0  0  0  0  0  0  0  0  0  0  0  0
    1.8086    2.8741    3.8800 H   0  0  0  0  0  0  0  0  0  0  0  0
    1.3776    3.5524    2.3321 H   0  0  0  0  0  0  0  0  0  0  0  0
    5.4310    3.5925    3.4679 H   0  0  0  0  0  0  0  0  0  0  0  0
    4.8212    2.0088    3.0656 H   0  0  0  0  0  0  0  0  0  0  0  0
    4.5741    0.5638    4.9209 H   0  0  0  0  0  0  0  0  0  0  0  0
    4.1960    0.2020    7.3301 H   0  0  0  0  0  0  0  0  0  0  0  0
    3.7103    2.1225    8.8206 H   0  0  0  0  0  0  0  0  0  0  0  0
    3.5795    4.4129    7.8809 H   0  0  0  0  0  0  0  0  0  0  0  0
    3.9305    4.8011    5.4632 H   0  0  0  0  0  0  0  0  0  0  0  0
    4.7035    4.2654    1.1528 H   0  0  0  0  0  0  0  0  0  0  0  0
    2.9831    4.2793    0.8136 H   0  0  0  0  0  0  0  0  0  0  0  0
    4.8422    1.8634    0.8189 H   0  0  0  0  0  0  0  0  0  0  0  0
    3.8433    2.4635   -0.5030 H   0  0  0  0  0  0  0  0  0  0  0  0
    0.8438   -2.3483    0.4448 H   0  0  0  0  0  0  0  0  0  0  0  0
    3.4771   -4.0881    2.1205 H   0  0  0  0  0  0  0  0  0  0  0  0
    0.6800   -4.4521    3.5436 H   0  0  0  0  0  0  0  0  0  0  0  0
   -0.7244   -2.9012    4.9019 H   0  0  0  0  0  0  0  0  0  0  0  0
    0.0670   -0.5666    5.2379 H   0  0  0  0  0  0  0  0  0  0  0  0
    1.9102    0.2363    4.0648 H   0  0  0  0  0  0  0  0  0  0  0  0
  1  2  2  0  0  0  0
  2  3  1  0  0  0  0
  2 16  1  0  0  0  0
  3  4  1  0  0  0  0
  3 15  1  0  0  0  0
  4  5  1  0  0  0  0
  4 27  1  0  0  0  0
  4 28  1  0  0  0  0
  5  6  1  0  0  0  0
  5 29  1  0  0  0  0
  5 30  1  0  0  0  0
  6  7  1  0  0  0  0
  6 14  1  0  0  0  0
  7  8  1  0  0  0  0
  7 31  1  0  0  0  0
  7 32  1  0  0  0  0
  8  9  1  0  0  0  0
  8 13  2  0  0  0  0
  9 10  2  0  0  0  0
  9 33  1  0  0  0  0
 10 11  1  0  0  0  0
 10 34  1  0  0  0  0
 11 12  2  0  0  0  0
 11 35  1  0  0  0  0
 12 13  1  0  0  0  0
 12 36  1  0  0  0  0
 13 37  1  0  0  0  0
 14 15  1  0  0  0  0
 14 38  1  0  0  0  0
 14 39  1  0  0  0  0
 15 40  1  0  0  0  0
 15 41  1  0  0  0  0
 16 17  2  0  0  0  0
 16 26  1  0  0  0  0
 17 18  1  0  0  0  0
 17 42  1  0  0  0  0
 18 19  2  0  0  0  0
 18 20  1  0  0  0  0
 20 21  1  0  0  0  0
 20 43  1  0  0  0  0
 21 22  1  0  0  0  0
 21 26  2  0  0  0  0
 22 23  2  0  0  0  0
 22 44  1  0  0  0  0
 23 24  1  0  0  0  0
 23 45  1  0  0  0  0
 24 25  2  0  0  0  0
 24 46  1  0  0  0  0
 25 26  1  0  0  0  0
 25 47  1  0  0  0  0
M  END
$$$$
