
 OpenBabel07202414123D

 50 53  0  0  1  0  0  0  0  0999 V2000
    1.0239    0.0510   -0.0089 C   0  0  0  0  0  0  0  0  0  0  0  0
    2.5657   -0.0628    0.0087 C   0  0  0  0  0  0  0  0  0  0  0  0
    3.0086    0.1530    1.4796 C   0  0  0  0  0  0  0  0  0  0  0  0
    3.1530    1.0585   -0.8754 C   0  0  0  0  0  0  0  0  0  0  0  0
    4.6773    1.0519   -0.9085 C   0  0  0  0  0  0  0  0  0  0  0  0
    5.2308   -0.2770   -1.2742 N   0  0  0  0  0  0  0  0  0  0  0  0
    6.9433   -0.3287   -1.3651 S   0  0  0  0  0  0  0  0  0  0  0  0
    7.2209    0.2419   -3.0282 C   0  0  0  0  0  0  0  0  0  0  0  0
    7.4716    0.6500   -0.4438 O   0  0  0  0  0  0  0  0  0  0  0  0
    7.3544   -1.7167   -1.3062 O   0  0  0  0  0  0  0  0  0  0  0  0
    4.6175   -1.4836   -0.6394 C   0  0  0  0  0  0  0  0  0  0  0  0
    3.0849   -1.4331   -0.5284 C   0  0  1  0  0  0  0  0  0  0  0  0
    2.5598   -2.5275    0.2778 N   0  0  0  0  0  0  0  0  0  0  0  0
    1.5397   -3.2048   -0.3514 C   0  0  0  0  0  0  0  0  0  0  0  0
    0.8387   -4.0185    0.2283 O   0  0  0  0  0  0  0  0  0  0  0  0
    1.5094   -2.8069   -1.6584 N   0  0  0  0  0  0  0  0  0  0  0  0
    0.6814   -3.3669   -2.6476 C   0  0  0  0  0  0  0  0  0  0  0  0
    1.2690   -3.9596   -3.7654 C   0  0  0  0  0  0  0  0  0  0  0  0
    0.5808   -4.5604   -4.7591 N   0  0  0  0  0  0  0  0  0  0  0  0
   -0.7668   -4.5319   -4.6515 C   0  0  0  0  0  0  0  0  0  0  0  0
   -1.4722   -3.9337   -3.6042 C   0  0  0  0  0  0  0  0  0  0  0  0
   -2.8789   -3.8947   -3.5875 C   0  0  0  0  0  0  0  0  0  0  0  0
   -3.5650   -3.2633   -2.5500 C   0  0  0  0  0  0  0  0  0  0  0  0
   -2.8534   -2.6690   -1.5160 C   0  0  0  0  0  0  0  0  0  0  0  0
   -1.4629   -2.7048   -1.5222 C   0  0  0  0  0  0  0  0  0  0  0  0
   -0.7325   -3.3395   -2.5580 C   0  0  0  0  0  0  0  0  0  0  0  0
    2.4517   -1.8318   -1.8913 C   0  0  0  0  0  0  0  0  0  0  0  0
    2.6833   -1.2909   -2.9640 O   0  0  0  0  0  0  0  0  0  0  0  0
    0.6971    1.0300    0.3602 H   0  0  0  0  0  0  0  0  0  0  0  0
    0.5592   -0.7020    0.6378 H   0  0  0  0  0  0  0  0  0  0  0  0
    0.6138   -0.0658   -1.0170 H   0  0  0  0  0  0  0  0  0  0  0  0
    2.6964    1.1389    1.8412 H   0  0  0  0  0  0  0  0  0  0  0  0
    4.0933    0.0882    1.6063 H   0  0  0  0  0  0  0  0  0  0  0  0
    2.5639   -0.5925    2.1472 H   0  0  0  0  0  0  0  0  0  0  0  0
    2.8128    2.0385   -0.5164 H   0  0  0  0  0  0  0  0  0  0  0  0
    2.7712    0.9731   -1.8994 H   0  0  0  0  0  0  0  0  0  0  0  0
    5.0674    1.3779    0.0613 H   0  0  0  0  0  0  0  0  0  0  0  0
    5.0004    1.7859   -1.6554 H   0  0  0  0  0  0  0  0  0  0  0  0
    6.8303    1.2540   -3.1358 H   0  0  0  0  0  0  0  0  0  0  0  0
    6.7407   -0.4457   -3.7255 H   0  0  0  0  0  0  0  0  0  0  0  0
    8.3009    0.2461   -3.2000 H   0  0  0  0  0  0  0  0  0  0  0  0
    5.0539   -1.6310    0.3557 H   0  0  0  0  0  0  0  0  0  0  0  0
    4.8911   -2.3576   -1.2458 H   0  0  0  0  0  0  0  0  0  0  0  0
    2.7057   -2.6615    1.2708 H   0  0  0  0  0  0  0  0  0  0  0  0
    2.3493   -4.0058   -3.8785 H   0  0  0  0  0  0  0  0  0  0  0  0
   -1.2869   -5.0126   -5.4769 H   0  0  0  0  0  0  0  0  0  0  0  0
   -3.4513   -4.3459   -4.3953 H   0  0  0  0  0  0  0  0  0  0  0  0
   -4.6495   -3.2299   -2.5521 H   0  0  0  0  0  0  0  0  0  0  0  0
   -3.3791   -2.1708   -0.7042 H   0  0  0  0  0  0  0  0  0  0  0  0
   -0.9470   -2.2147   -0.6995 H   0  0  0  0  0  0  0  0  0  0  0  0
  1  2  1  0  0  0  0
  1 29  1  0  0  0  0
  1 30  1  0  0  0  0
  1 31  1  0  0  0  0
  2  3  1  0  0  0  0
  2  4  1  0  0  0  0
  2 12  1  0  0  0  0
  3 32  1  0  0  0  0
  3 33  1  0  0  0  0
  3 34  1  0  0  0  0
  4  5  1  0  0  0  0
  4 35  1  0  0  0  0
  4 36  1  0  0  0  0
  5  6  1  0  0  0  0
  5 37  1  0  0  0  0
  5 38  1  0  0  0  0
  6  7  1  0  0  0  0
  6 11  1  0  0  0  0
  7  8  1  0  0  0  0
  7  9  2  0  0  0  0
  7 10  2  0  0  0  0
  8 39  1  0  0  0  0
  8 40  1  0  0  0  0
  8 41  1  0  0  0  0
 11 12  1  0  0  0  0
 11 42  1  0  0  0  0
 11 43  1  0  0  0  0
 12 13  1  0  0  0  0
 12 27  1  6  0  0  0
 13 14  1  0  0  0  0
 13 44  1  0  0  0  0
 14 15  2  0  0  0  0
 14 16  1  0  0  0  0
 16 17  1  0  0  0  0
 16 27  1  0  0  0  0
 17 18  1  0  0  0  0
 17 26  2  0  0  0  0
 18 19  2  0  0  0  0
 18 45  1  0  0  0  0
 19 20  1  0  0  0  0
 20 21  2  0  0  0  0
 20 46  1  0  0  0  0
 21 22  1  0  0  0  0
 21 26  1  0  0  0  0
 22 23  2  0  0  0  0
 22 47  1  0  0  0  0
 23 24  1  0  0  0  0
 23 48  1  0  0  0  0
 24 25  2  0  0  0  0
 24 49  1  0  0  0  0
 25 26  1  0  0  0  0
 25 50  1  0  0  0  0
 27 28  2  0  0  0  0
M  END
$$$$
