
 OpenBabel07202414173D

 41 44  0  0  1  0  0  0  0  0999 V2000
    0.9971    0.0005   -0.0233 Cl  0  0  0  0  0  0  0  0  0  0  0  0
    2.7141    0.0253    0.0682 C   0  0  0  0  0  0  0  0  0  0  0  0
    3.4013    1.2240   -0.0912 C   0  0  0  0  0  0  0  0  0  0  0  0
    4.7930    1.2258   -0.0412 C   0  0  0  0  0  0  0  0  0  0  0  0
    5.4905    0.0290    0.1701 C   0  0  0  0  0  0  0  0  0  0  0  0
    4.8170   -1.1885    0.3707 C   0  0  0  0  0  0  0  0  0  0  0  0
    3.4085   -1.1645    0.2983 C   0  0  0  0  0  0  0  0  0  0  0  0
    5.5053   -2.5114    0.6630 C   0  0  3  0  0  0  0  0  0  0  0  0
    5.3525   -2.9129    2.1489 C   0  0  0  0  0  0  0  0  0  0  0  0
    6.1712   -2.5726    2.9948 O   0  0  0  0  0  0  0  0  0  0  0  0
    4.2038   -3.6503    2.3881 N   0  0  0  0  0  0  0  0  0  0  0  0
    3.7924   -4.2604    3.6040 C   0  0  0  0  0  0  0  0  0  0  0  0
    4.5476   -4.2065    4.7749 C   0  0  0  0  0  0  0  0  0  0  0  0
    4.2789   -4.9233    5.8918 N   0  0  0  0  0  0  0  0  0  0  0  0
    3.1739   -5.6945    5.8651 C   0  0  0  0  0  0  0  0  0  0  0  0
    2.2674   -5.7366    4.8082 C   0  0  0  0  0  0  0  0  0  0  0  0
    1.0710   -6.4704    4.9105 C   0  0  0  0  0  0  0  0  0  0  0  0
    0.1477   -6.4756    3.8687 C   0  0  0  0  0  0  0  0  0  0  0  0
    0.4248   -5.7748    2.7042 C   0  0  0  0  0  0  0  0  0  0  0  0
    1.6194   -5.0568    2.5859 C   0  0  0  0  0  0  0  0  0  0  0  0
    2.5745   -5.0051    3.6365 C   0  0  0  0  0  0  0  0  0  0  0  0
    6.9731   -2.5754    0.2089 C   0  0  0  0  0  0  0  0  0  0  0  0
    7.8334   -1.4325    0.7198 C   0  0  0  0  0  0  0  0  0  0  0  0
    7.2628    0.1210    0.0971 S   0  0  0  0  0  0  0  0  0  0  0  0
    7.6751    1.1609    1.0179 O   0  0  0  0  0  0  0  0  0  0  0  0
    7.5920    0.1846   -1.3141 O   0  0  0  0  0  0  0  0  0  0  0  0
    2.8653    2.1514   -0.2657 H   0  0  0  0  0  0  0  0  0  0  0  0
    5.3385    2.1586   -0.1906 H   0  0  0  0  0  0  0  0  0  0  0  0
    2.8323   -2.0796    0.4103 H   0  0  0  0  0  0  0  0  0  0  0  0
    4.9941   -3.2806    0.0651 H   0  0  0  0  0  0  0  0  0  0  0  0
    3.6424   -3.8777    1.5827 H   0  0  0  0  0  0  0  0  0  0  0  0
    5.4295   -3.5829    4.8752 H   0  0  0  0  0  0  0  0  0  0  0  0
    3.0250   -6.2930    6.7610 H   0  0  0  0  0  0  0  0  0  0  0  0
    0.8363   -7.0185    5.8213 H   0  0  0  0  0  0  0  0  0  0  0  0
   -0.7913   -7.0138    3.9735 H   0  0  0  0  0  0  0  0  0  0  0  0
   -0.2961   -5.7700    1.8893 H   0  0  0  0  0  0  0  0  0  0  0  0
    1.7608   -4.5055    1.6622 H   0  0  0  0  0  0  0  0  0  0  0  0
    6.9983   -2.5743   -0.8896 H   0  0  0  0  0  0  0  0  0  0  0  0
    7.4160   -3.5264    0.5287 H   0  0  0  0  0  0  0  0  0  0  0  0
    8.8656   -1.5514    0.3732 H   0  0  0  0  0  0  0  0  0  0  0  0
    7.8555   -1.3712    1.8091 H   0  0  0  0  0  0  0  0  0  0  0  0
  1  2  1  0  0  0  0
  2  3  1  0  0  0  0
  2  7  2  0  0  0  0
  3  4  2  0  0  0  0
  3 27  1  0  0  0  0
  4  5  1  0  0  0  0
  4 28  1  0  0  0  0
  5  6  2  0  0  0  0
  5 24  1  0  0  0  0
  6  7  1  0  0  0  0
  6  8  1  0  0  0  0
  7 29  1  0  0  0  0
  8  9  1  0  0  0  0
  8 22  1  0  0  0  0
  8 30  1  0  0  0  0
  9 10  2  0  0  0  0
  9 11  1  0  0  0  0
 11 12  1  0  0  0  0
 11 31  1  0  0  0  0
 12 13  1  0  0  0  0
 12 21  2  0  0  0  0
 13 14  2  0  0  0  0
 13 32  1  0  0  0  0
 14 15  1  0  0  0  0
 15 16  2  0  0  0  0
 15 33  1  0  0  0  0
 16 17  1  0  0  0  0
 16 21  1  0  0  0  0
 17 18  2  0  0  0  0
 17 34  1  0  0  0  0
 18 19  1  0  0  0  0
 18 35  1  0  0  0  0
 19 20  2  0  0  0  0
 19 36  1  0  0  0  0
 20 21  1  0  0  0  0
 20 37  1  0  0  0  0
 22 23  1  0  0  0  0
 22 38  1  0  0  0  0
 22 39  1  0  0  0  0
 23 24  1  0  0  0  0
 23 40  1  0  0  0  0
 23 41  1  0  0  0  0
 24 25  2  0  0  0  0
 24 26  2  0  0  0  0
M  END
$$$$
