
 OpenBabel07202414193D

 63 68  0  0  1  0  0  0  0  0999 V2000
    9.5196   -3.3187   -1.6113 N   0  0  0  0  0  0  0  0  0  0  0  0
    9.2136   -2.4477   -0.4751 C   0  0  0  0  0  0  0  0  0  0  0  0
    9.0598   -1.0151   -0.9692 C   0  0  0  0  0  0  0  0  0  0  0  0
    8.0258   -0.8180   -1.9595 N   0  0  0  0  0  0  0  0  0  0  0  0
    6.7162   -0.5264   -1.6224 C   0  0  0  0  0  0  0  0  0  0  0  0
    6.3398   -0.4085   -0.4536 O   0  0  0  0  0  0  0  0  0  0  0  0
    5.7381   -0.3846   -2.7933 C   0  0  0  0  0  0  0  0  0  0  0  0
    6.3671    0.1017   -4.0437 N   0  0  0  0  0  0  0  0  0  0  0  0
    6.9331    1.4527   -3.9151 C   0  0  0  0  0  0  0  0  0  0  0  0
    5.9453    2.5925   -4.0179 C   0  0  0  0  0  0  0  0  0  0  0  0
    6.2980    3.8319   -3.4466 C   0  0  0  0  0  0  0  0  0  0  0  0
    5.4492    4.9364   -3.5388 C   0  0  0  0  0  0  0  0  0  0  0  0
    4.2554    4.8181   -4.2290 C   0  0  0  0  0  0  0  0  0  0  0  0
    3.1862    6.1605   -4.3557 Cl  0  0  0  0  0  0  0  0  0  0  0  0
    3.9076    3.6061   -4.8180 C   0  0  0  0  0  0  0  0  0  0  0  0
    4.7358    2.4687   -4.7231 C   0  0  0  0  0  0  0  0  0  0  0  0
    4.2955    1.1121   -5.3005 C   0  0  3  0  0  0  0  0  0  0  0  0
    3.8793    1.2214   -6.7910 C   0  0  0  0  0  0  0  0  0  0  0  0
    2.3609    1.2334   -6.8273 C   0  0  0  0  0  0  0  0  0  0  0  0
    1.9265    1.2407   -5.4562 N   0  0  0  0  0  0  0  0  0  0  0  0
    0.5319    1.2875   -5.1530 C   0  0  0  0  0  0  0  0  0  0  0  0
   -0.0475    0.3187   -4.3338 C   0  0  0  0  0  0  0  0  0  0  0  0
   -1.3807    0.1639   -4.1583 N   0  0  0  0  0  0  0  0  0  0  0  0
   -2.1783    1.0803   -4.7376 C   0  0  0  0  0  0  0  0  0  0  0  0
   -1.7223    2.2002   -5.4230 C   0  0  0  0  0  0  0  0  0  0  0  0
   -2.6253    3.2088   -5.8174 C   0  0  0  0  0  0  0  0  0  0  0  0
   -2.1773    4.3658   -6.4469 C   0  0  0  0  0  0  0  0  0  0  0  0
   -0.8290    4.5089   -6.7233 C   0  0  0  0  0  0  0  0  0  0  0  0
    0.0732    3.5033   -6.3402 C   0  0  0  0  0  0  0  0  0  0  0  0
   -0.3328    2.3174   -5.6640 C   0  0  0  0  0  0  0  0  0  0  0  0
    2.9524    0.7060   -4.6474 C   0  0  0  0  0  0  0  0  0  0  0  0
    2.8203    0.1380   -3.5737 O   0  0  0  0  0  0  0  0  0  0  0  0
    5.4315    0.0493   -5.1876 C   0  0  0  0  0  0  0  0  0  0  0  0
   10.3200   -0.1770   -1.0726 C   0  0  0  0  0  0  0  0  0  0  0  0
    9.3384    0.1049    0.0238 C   0  0  0  0  0  0  0  0  0  0  0  0
    9.6883   -4.2584   -1.2552 H   0  0  0  0  0  0  0  0  0  0  0  0
   10.3958   -3.0130   -2.0297 H   0  0  0  0  0  0  0  0  0  0  0  0
   10.0183   -2.5266    0.2666 H   0  0  0  0  0  0  0  0  0  0  0  0
    8.2870   -2.7763    0.0066 H   0  0  0  0  0  0  0  0  0  0  0  0
    8.1872   -1.1770   -2.8955 H   0  0  0  0  0  0  0  0  0  0  0  0
    4.9454    0.2895   -2.4627 H   0  0  0  0  0  0  0  0  0  0  0  0
    5.3173   -1.3855   -2.9622 H   0  0  0  0  0  0  0  0  0  0  0  0
    7.6727    1.5905   -4.7152 H   0  0  0  0  0  0  0  0  0  0  0  0
    7.4984    1.5506   -2.9810 H   0  0  0  0  0  0  0  0  0  0  0  0
    7.2393    3.9399   -2.9117 H   0  0  0  0  0  0  0  0  0  0  0  0
    5.7291    5.8777   -3.0764 H   0  0  0  0  0  0  0  0  0  0  0  0
    2.9606    3.5590   -5.3385 H   0  0  0  0  0  0  0  0  0  0  0  0
    4.2274    0.3647   -7.3820 H   0  0  0  0  0  0  0  0  0  0  0  0
    4.2896    2.1143   -7.2751 H   0  0  0  0  0  0  0  0  0  0  0  0
    1.9957    0.3007   -7.2782 H   0  0  0  0  0  0  0  0  0  0  0  0
    1.9828    2.0620   -7.4222 H   0  0  0  0  0  0  0  0  0  0  0  0
    0.5448   -0.4236   -3.8095 H   0  0  0  0  0  0  0  0  0  0  0  0
   -3.2414    0.8966   -4.6047 H   0  0  0  0  0  0  0  0  0  0  0  0
   -3.6848    3.1207   -5.5831 H   0  0  0  0  0  0  0  0  0  0  0  0
   -2.8759    5.1607   -6.6955 H   0  0  0  0  0  0  0  0  0  0  0  0
   -0.4639    5.4121   -7.2056 H   0  0  0  0  0  0  0  0  0  0  0  0
    1.1211    3.7082   -6.5313 H   0  0  0  0  0  0  0  0  0  0  0  0
    6.0769    0.1628   -6.0732 H   0  0  0  0  0  0  0  0  0  0  0  0
    5.0182   -0.9632   -5.2809 H   0  0  0  0  0  0  0  0  0  0  0  0
   10.3935    0.5544   -1.8696 H   0  0  0  0  0  0  0  0  0  0  0  0
   11.2719   -0.6122   -0.7872 H   0  0  0  0  0  0  0  0  0  0  0  0
    8.7376    0.9990   -0.0366 H   0  0  0  0  0  0  0  0  0  0  0  0
    9.6010   -0.1750    1.0418 H   0  0  0  0  0  0  0  0  0  0  0  0
  1  2  1  0  0  0  0
  1 36  1  0  0  0  0
  1 37  1  0  0  0  0
  2  3  1  0  0  0  0
  2 38  1  0  0  0  0
  2 39  1  0  0  0  0
  3  4  1  0  0  0  0
  3 34  1  0  0  0  0
  3 35  1  0  0  0  0
  4  5  1  0  0  0  0
  4 40  1  0  0  0  0
  5  6  2  0  0  0  0
  5  7  1  0  0  0  0
  7  8  1  0  0  0  0
  7 41  1  0  0  0  0
  7 42  1  0  0  0  0
  8  9  1  0  0  0  0
  8 33  1  0  0  0  0
  9 10  1  0  0  0  0
  9 43  1  0  0  0  0
  9 44  1  0  0  0  0
 10 11  1  0  0  0  0
 10 16  2  0  0  0  0
 11 12  2  0  0  0  0
 11 45  1  0  0  0  0
 12 13  1  0  0  0  0
 12 46  1  0  0  0  0
 13 14  1  0  0  0  0
 13 15  2  0  0  0  0
 15 16  1  0  0  0  0
 15 47  1  0  0  0  0
 16 17  1  0  0  0  0
 17 18  1  0  0  0  0
 17 31  1  0  0  0  0
 17 33  1  0  0  0  0
 18 19  1  0  0  0  0
 18 48  1  0  0  0  0
 18 49  1  0  0  0  0
 19 20  1  0  0  0  0
 19 50  1  0  0  0  0
 19 51  1  0  0  0  0
 20 21  1  0  0  0  0
 20 31  1  0  0  0  0
 21 22  1  0  0  0  0
 21 30  2  0  0  0  0
 22 23  2  0  0  0  0
 22 52  1  0  0  0  0
 23 24  1  0  0  0  0
 24 25  2  0  0  0  0
 24 53  1  0  0  0  0
 25 26  1  0  0  0  0
 25 30  1  0  0  0  0
 26 27  2  0  0  0  0
 26 54  1  0  0  0  0
 27 28  1  0  0  0  0
 27 55  1  0  0  0  0
 28 29  2  0  0  0  0
 28 56  1  0  0  0  0
 29 30  1  0  0  0  0
 29 57  1  0  0  0  0
 31 32  2  0  0  0  0
 33 58  1  0  0  0  0
 33 59  1  0  0  0  0
 34 35  1  0  0  0  0
 34 60  1  0  0  0  0
 34 61  1  0  0  0  0
 35 62  1  0  0  0  0
 35 63  1  0  0  0  0
M  END
$$$$
