
 OpenBabel07202414183D

 34 36  0  0  0  0  0  0  0  0999 V2000
    8.8658    4.7060   -0.8290 F   0  0  0  0  0  0  0  0  0  0  0  0
    8.2956    3.5037   -0.6592 C   0  0  0  0  0  0  0  0  0  0  0  0
    8.9558    2.3714   -1.1014 C   0  0  0  0  0  0  0  0  0  0  0  0
    8.3530    1.1215   -0.9210 C   0  0  0  0  0  0  0  0  0  0  0  0
    9.0780   -0.1846   -1.8035 Cl  0  0  0  0  0  0  0  0  0  0  0  0
    7.1291    0.9580   -0.2159 C   0  0  0  0  0  0  0  0  0  0  0  0
    6.5102   -0.2686    0.1541 C   0  0  0  0  0  0  0  0  0  0  0  0
    7.2306   -1.4911    0.1301 N   0  0  0  0  0  0  0  0  0  0  0  0
    6.7256   -2.6471   -0.4649 C   0  0  0  0  0  0  0  0  0  0  0  0
    5.6254   -2.6992   -0.9962 O   0  0  0  0  0  0  0  0  0  0  0  0
    7.6633   -3.8402   -0.4302 C   0  0  0  0  0  0  0  0  0  0  0  0
    7.3209   -4.8378    0.6541 C   0  0  0  0  0  0  0  0  0  0  0  0
    6.0594   -5.4520    0.6834 C   0  0  0  0  0  0  0  0  0  0  0  0
    5.7387   -6.3858    1.6710 C   0  0  0  0  0  0  0  0  0  0  0  0
    6.6794   -6.7272    2.6403 C   0  0  0  0  0  0  0  0  0  0  0  0
    7.9413   -6.1385    2.6112 C   0  0  0  0  0  0  0  0  0  0  0  0
    9.1116   -6.5742    3.7957 Cl  0  0  0  0  0  0  0  0  0  0  0  0
    8.2679   -5.2022    1.6261 C   0  0  0  0  0  0  0  0  0  0  0  0
    5.2176   -0.2375    0.6701 C   0  0  0  0  0  0  0  0  0  0  0  0
    4.5195    0.8974    0.9074 N   0  0  0  0  0  0  0  0  0  0  0  0
    5.1515    2.0560    0.6362 C   0  0  0  0  0  0  0  0  0  0  0  0
    6.4370    2.1602    0.1166 C   0  0  0  0  0  0  0  0  0  0  0  0
    7.0351    3.4197   -0.1087 C   0  0  0  0  0  0  0  0  0  0  0  0
    9.9092    2.4728   -1.6069 H   0  0  0  0  0  0  0  0  0  0  0  0
    8.2431   -1.4230    0.1776 H   0  0  0  0  0  0  0  0  0  0  0  0
    8.7019   -3.5054   -0.3330 H   0  0  0  0  0  0  0  0  0  0  0  0
    7.6042   -4.3456   -1.4034 H   0  0  0  0  0  0  0  0  0  0  0  0
    5.3121   -5.2063   -0.0710 H   0  0  0  0  0  0  0  0  0  0  0  0
    4.7552   -6.8491    1.6798 H   0  0  0  0  0  0  0  0  0  0  0  0
    6.4254   -7.4535    3.4078 H   0  0  0  0  0  0  0  0  0  0  0  0
    9.2643   -4.7681    1.6151 H   0  0  0  0  0  0  0  0  0  0  0  0
    4.7075   -1.1507    0.9759 H   0  0  0  0  0  0  0  0  0  0  0  0
    4.5566    2.9474    0.8593 H   0  0  0  0  0  0  0  0  0  0  0  0
    6.5097    4.3414    0.1612 H   0  0  0  0  0  0  0  0  0  0  0  0
  1  2  1  0  0  0  0
  2  3  1  0  0  0  0
  2 23  2  0  0  0  0
  3  4  2  0  0  0  0
  3 24  1  0  0  0  0
  4  5  1  0  0  0  0
  4  6  1  0  0  0  0
  6  7  1  0  0  0  0
  6 22  2  0  0  0  0
  7  8  1  0  0  0  0
  7 19  2  0  0  0  0
  8  9  1  0  0  0  0
  8 25  1  0  0  0  0
  9 10  2  0  0  0  0
  9 11  1  0  0  0  0
 11 12  1  0  0  0  0
 11 26  1  0  0  0  0
 11 27  1  0  0  0  0
 12 13  1  0  0  0  0
 12 18  2  0  0  0  0
 13 14  2  0  0  0  0
 13 28  1  0  0  0  0
 14 15  1  0  0  0  0
 14 29  1  0  0  0  0
 15 16  2  0  0  0  0
 15 30  1  0  0  0  0
 16 17  1  0  0  0  0
 16 18  1  0  0  0  0
 18 31  1  0  0  0  0
 19 20  1  0  0  0  0
 19 32  1  0  0  0  0
 20 21  2  0  0  0  0
 21 22  1  0  0  0  0
 21 33  1  0  0  0  0
 22 23  1  0  0  0  0
 23 34  1  0  0  0  0
M  END
$$$$
