
 OpenBabel07202414193D

 41 44  0  0  1  0  0  0  0  0999 V2000
    2.2688    0.4963   -1.1798 N   0  0  0  0  0  0  0  0  0  0  0  0
    1.9356   -0.1059    0.1530 C   0  0  1  0  0  0  0  0  0  0  0  0
    0.3686   -0.2758    0.2309 C   0  0  0  0  0  0  0  0  0  0  0  0
   -0.2567   -0.2717    1.2860 O   0  0  0  0  0  0  0  0  0  0  0  0
   -0.1747   -0.5111   -1.0297 N   0  0  0  0  0  0  0  0  0  0  0  0
   -1.4752   -0.9522   -1.3696 C   0  0  0  0  0  0  0  0  0  0  0  0
   -2.4315   -1.2865   -0.4101 C   0  0  0  0  0  0  0  0  0  0  0  0
   -3.6342   -1.8470   -0.6818 N   0  0  0  0  0  0  0  0  0  0  0  0
   -3.9230   -2.0502   -1.9825 C   0  0  0  0  0  0  0  0  0  0  0  0
   -3.0999   -1.6776   -3.0429 C   0  0  0  0  0  0  0  0  0  0  0  0
   -3.5241   -1.8415   -4.3771 C   0  0  0  0  0  0  0  0  0  0  0  0
   -2.7121   -1.4422   -5.4331 C   0  0  0  0  0  0  0  0  0  0  0  0
   -1.4600   -0.9047   -5.1689 C   0  0  0  0  0  0  0  0  0  0  0  0
   -1.0212   -0.7527   -3.8485 C   0  0  0  0  0  0  0  0  0  0  0  0
   -1.8352   -1.1190   -2.7420 C   0  0  0  0  0  0  0  0  0  0  0  0
    2.5784   -1.5035    0.1490 C   0  0  0  0  0  0  0  0  0  0  0  0
    2.4845   -2.1002    1.5429 C   0  0  0  0  0  0  0  0  0  0  0  0
    3.2088   -1.3335    2.5025 O   0  0  0  0  0  0  0  0  0  0  0  0
    3.0935    0.0260    2.3994 C   0  0  0  0  0  0  0  0  0  0  0  0
    3.6728    0.7388    3.4544 C   0  0  0  0  0  0  0  0  0  0  0  0
    3.6811    2.1311    3.4439 C   0  0  0  0  0  0  0  0  0  0  0  0
    3.0923    2.8070    2.3816 C   0  0  0  0  0  0  0  0  0  0  0  0
    3.1278    4.5273    2.3421 Cl  0  0  0  0  0  0  0  0  0  0  0  0
    2.4938    2.1026    1.3324 C   0  0  0  0  0  0  0  0  0  0  0  0
    2.5073    0.6943    1.3112 C   0  0  0  0  0  0  0  0  0  0  0  0
    3.2849    0.6042   -1.2256 H   0  0  0  0  0  0  0  0  0  0  0  0
    1.8947    1.4450   -1.2126 H   0  0  0  0  0  0  0  0  0  0  0  0
    0.5045   -0.3821   -1.7755 H   0  0  0  0  0  0  0  0  0  0  0  0
   -2.2696   -1.1266    0.6519 H   0  0  0  0  0  0  0  0  0  0  0  0
   -4.8821   -2.5351   -2.1557 H   0  0  0  0  0  0  0  0  0  0  0  0
   -4.5046   -2.2603   -4.5964 H   0  0  0  0  0  0  0  0  0  0  0  0
   -3.0594   -1.5439   -6.4582 H   0  0  0  0  0  0  0  0  0  0  0  0
   -0.8203   -0.5900   -5.9913 H   0  0  0  0  0  0  0  0  0  0  0  0
   -0.0441   -0.3070   -3.7016 H   0  0  0  0  0  0  0  0  0  0  0  0
    3.6429   -1.4268   -0.1198 H   0  0  0  0  0  0  0  0  0  0  0  0
    2.1028   -2.1710   -0.5777 H   0  0  0  0  0  0  0  0  0  0  0  0
    2.9327   -3.0999    1.5343 H   0  0  0  0  0  0  0  0  0  0  0  0
    1.4501   -2.2217    1.8818 H   0  0  0  0  0  0  0  0  0  0  0  0
    4.1293    0.2011    4.2823 H   0  0  0  0  0  0  0  0  0  0  0  0
    4.1481    2.6751    4.2601 H   0  0  0  0  0  0  0  0  0  0  0  0
    2.0335    2.6693    0.5284 H   0  0  0  0  0  0  0  0  0  0  0  0
  1 26  1  0  0  0  0
  1 27  1  0  0  0  0
  2 16  1  0  0  0  0
  2 25  1  0  0  0  0
  2  3  1  1  0  0  0
  2  1  1  0  0  0  0
  3  4  2  0  0  0  0
  3  5  1  0  0  0  0
  5  6  1  0  0  0  0
  5 28  1  0  0  0  0
  6  7  1  0  0  0  0
  6 15  2  0  0  0  0
  7  8  2  0  0  0  0
  7 29  1  0  0  0  0
  8  9  1  0  0  0  0
  9 10  2  0  0  0  0
  9 30  1  0  0  0  0
 10 11  1  0  0  0  0
 10 15  1  0  0  0  0
 11 12  2  0  0  0  0
 11 31  1  0  0  0  0
 12 13  1  0  0  0  0
 12 32  1  0  0  0  0
 13 14  2  0  0  0  0
 13 33  1  0  0  0  0
 14 15  1  0  0  0  0
 14 34  1  0  0  0  0
 16 17  1  0  0  0  0
 16 35  1  0  0  0  0
 16 36  1  0  0  0  0
 17 18  1  0  0  0  0
 17 37  1  0  0  0  0
 17 38  1  0  0  0  0
 18 19  1  0  0  0  0
 19 20  1  0  0  0  0
 19 25  2  0  0  0  0
 20 21  2  0  0  0  0
 20 39  1  0  0  0  0
 21 22  1  0  0  0  0
 21 40  1  0  0  0  0
 22 23  1  0  0  0  0
 22 24  2  0  0  0  0
 24 25  1  0  0  0  0
 24 41  1  0  0  0  0
M  END
$$$$
