
 OpenBabel07202414153D

 62 66  0  0  0  0  0  0  0  0999 V2000
    5.8516    3.3577    0.6986 C   0  0  0  0  0  0  0  0  0  0  0  0
    6.0375    2.7045   -0.5485 O   0  0  0  0  0  0  0  0  0  0  0  0
    7.0648    3.1532   -1.3339 C   0  0  0  0  0  0  0  0  0  0  0  0
    8.1622    3.8991   -0.8949 C   0  0  0  0  0  0  0  0  0  0  0  0
    9.1786    4.2827   -1.7867 C   0  0  0  0  0  0  0  0  0  0  0  0
    9.0905    3.8737   -3.1242 C   0  0  0  0  0  0  0  0  0  0  0  0
    9.9224    4.0928   -4.1877 N   0  0  0  0  0  0  0  0  0  0  0  0
    9.4160    3.4645   -5.2416 N   0  0  0  0  0  0  0  0  0  0  0  0
    8.3091    2.8071   -4.8330 N   0  0  0  0  0  0  0  0  0  0  0  0
    7.6107    1.9234   -5.7433 C   0  0  0  0  0  0  0  0  0  0  0  0
    7.4412    0.5194   -5.1662 C   0  0  0  0  0  0  0  0  0  0  0  0
    6.4236    0.2518   -4.5212 O   0  0  0  0  0  0  0  0  0  0  0  0
    8.4293   -0.4358   -5.3747 N   0  0  0  0  0  0  0  0  0  0  0  0
    8.2284   -1.8174   -4.9036 C   0  0  0  0  0  0  0  0  0  0  0  0
    9.3149   -2.2780   -3.9526 C   0  0  0  0  0  0  0  0  0  0  0  0
    9.4069   -1.7393   -2.6691 C   0  0  0  0  0  0  0  0  0  0  0  0
   10.4562   -2.1399   -1.8450 C   0  0  0  0  0  0  0  0  0  0  0  0
   11.3763   -3.0690   -2.3148 C   0  0  0  0  0  0  0  0  0  0  0  0
   11.1980   -3.5765   -3.5899 C   0  0  0  0  0  0  0  0  0  0  0  0
   10.1937   -3.2052   -4.4139 N   0  0  0  0  0  0  0  0  0  0  0  0
    9.4163   -0.2411   -6.3675 C   0  0  0  0  0  0  0  0  0  0  0  0
   10.5562    0.4856   -6.0555 C   0  0  0  0  0  0  0  0  0  0  0  0
   11.3815    0.9540   -7.0828 C   0  0  0  0  0  0  0  0  0  0  0  0
   11.0957    0.6919   -8.4359 C   0  0  0  0  0  0  0  0  0  0  0  0
   11.8801    1.3663   -9.5674 C   0  0  0  0  0  0  0  0  0  0  0  0
   12.0062    0.5433  -10.8682 C   0  0  0  0  0  0  0  0  0  0  0  0
   13.0207   -0.5914  -10.7291 C   0  0  0  0  0  0  0  0  0  0  0  0
   14.3429   -0.0977  -10.3379 N   0  0  0  0  0  0  0  0  0  0  0  0
   14.2737    0.6648   -9.0890 C   0  0  0  0  0  0  0  0  0  0  0  0
   13.3033    1.8405   -9.2040 C   0  0  0  0  0  0  0  0  0  0  0  0
    9.9647   -0.0969   -8.7135 C   0  0  0  0  0  0  0  0  0  0  0  0
    9.1363   -0.5673   -7.6919 C   0  0  0  0  0  0  0  0  0  0  0  0
    8.0121    3.0987   -3.5288 C   0  0  0  0  0  0  0  0  0  0  0  0
    6.9680    2.7482   -2.6697 C   0  0  0  0  0  0  0  0  0  0  0  0
    4.9914    2.8921    1.1894 H   0  0  0  0  0  0  0  0  0  0  0  0
    5.6235    4.4177    0.5484 H   0  0  0  0  0  0  0  0  0  0  0  0
    6.7142    3.2250    1.3580 H   0  0  0  0  0  0  0  0  0  0  0  0
    8.2715    4.1882    0.1450 H   0  0  0  0  0  0  0  0  0  0  0  0
   10.0290    4.8646   -1.4478 H   0  0  0  0  0  0  0  0  0  0  0  0
    8.1218    1.9290   -6.7085 H   0  0  0  0  0  0  0  0  0  0  0  0
    6.6202    2.3579   -5.9167 H   0  0  0  0  0  0  0  0  0  0  0  0
    8.1854   -2.4861   -5.7722 H   0  0  0  0  0  0  0  0  0  0  0  0
    7.2629   -1.9195   -4.3963 H   0  0  0  0  0  0  0  0  0  0  0  0
    8.6807   -1.0124   -2.3171 H   0  0  0  0  0  0  0  0  0  0  0  0
   10.5593   -1.7236   -0.8468 H   0  0  0  0  0  0  0  0  0  0  0  0
   12.2129   -3.3896   -1.7042 H   0  0  0  0  0  0  0  0  0  0  0  0
   11.8821   -4.3146   -3.9988 H   0  0  0  0  0  0  0  0  0  0  0  0
   10.7826    0.7594   -5.0270 H   0  0  0  0  0  0  0  0  0  0  0  0
   12.2157    1.5818   -6.7856 H   0  0  0  0  0  0  0  0  0  0  0  0
   11.2942    2.2654   -9.8072 H   0  0  0  0  0  0  0  0  0  0  0  0
   12.3405    1.2154  -11.6714 H   0  0  0  0  0  0  0  0  0  0  0  0
   11.0472    0.1449  -11.2108 H   0  0  0  0  0  0  0  0  0  0  0  0
   13.1153   -1.1050  -11.6925 H   0  0  0  0  0  0  0  0  0  0  0  0
   12.6710   -1.3409  -10.0100 H   0  0  0  0  0  0  0  0  0  0  0  0
   14.7029    0.5087  -11.0749 H   0  0  0  0  0  0  0  0  0  0  0  0
   15.2744    1.0458   -8.8577 H   0  0  0  0  0  0  0  0  0  0  0  0
   13.9956    0.0017   -8.2617 H   0  0  0  0  0  0  0  0  0  0  0  0
   13.6596    2.5148   -9.9955 H   0  0  0  0  0  0  0  0  0  0  0  0
   13.3232    2.4431   -8.2913 H   0  0  0  0  0  0  0  0  0  0  0  0
    9.6611   -0.3116   -9.7331 H   0  0  0  0  0  0  0  0  0  0  0  0
    8.2352   -1.1190   -7.9470 H   0  0  0  0  0  0  0  0  0  0  0  0
    6.1145    2.1675   -3.0052 H   0  0  0  0  0  0  0  0  0  0  0  0
  1  2  1  0  0  0  0
  1 35  1  0  0  0  0
  1 36  1  0  0  0  0
  1 37  1  0  0  0  0
  2  3  1  0  0  0  0
  3  4  1  0  0  0  0
  3 34  2  0  0  0  0
  4  5  2  0  0  0  0
  4 38  1  0  0  0  0
  5  6  1  0  0  0  0
  5 39  1  0  0  0  0
  6  7  1  0  0  0  0
  6 33  2  0  0  0  0
  7  8  2  0  0  0  0
  8  9  1  0  0  0  0
  9 10  1  0  0  0  0
  9 33  1  0  0  0  0
 10 11  1  0  0  0  0
 10 40  1  0  0  0  0
 10 41  1  0  0  0  0
 11 12  2  0  0  0  0
 11 13  1  0  0  0  0
 13 14  1  0  0  0  0
 13 21  1  0  0  0  0
 14 15  1  0  0  0  0
 14 42  1  0  0  0  0
 14 43  1  0  0  0  0
 15 16  1  0  0  0  0
 15 20  2  0  0  0  0
 16 17  2  0  0  0  0
 16 44  1  0  0  0  0
 17 18  1  0  0  0  0
 17 45  1  0  0  0  0
 18 19  2  0  0  0  0
 18 46  1  0  0  0  0
 19 20  1  0  0  0  0
 19 47  1  0  0  0  0
 21 22  1  0  0  0  0
 21 32  2  0  0  0  0
 22 23  2  0  0  0  0
 22 48  1  0  0  0  0
 23 24  1  0  0  0  0
 23 49  1  0  0  0  0
 24 25  1  0  0  0  0
 24 31  2  0  0  0  0
 25 26  1  0  0  0  0
 25 30  1  0  0  0  0
 25 50  1  0  0  0  0
 26 27  1  0  0  0  0
 26 51  1  0  0  0  0
 26 52  1  0  0  0  0
 27 28  1  0  0  0  0
 27 53  1  0  0  0  0
 27 54  1  0  0  0  0
 28 29  1  0  0  0  0
 28 55  1  0  0  0  0
 29 30  1  0  0  0  0
 29 56  1  0  0  0  0
 29 57  1  0  0  0  0
 30 58  1  0  0  0  0
 30 59  1  0  0  0  0
 31 32  1  0  0  0  0
 31 60  1  0  0  0  0
 32 61  1  0  0  0  0
 33 34  1  0  0  0  0
 34 62  1  0  0  0  0
M  END
$$$$
