
 OpenBabel07202414143D

 66 71  0  0  1  0  0  0  0  0999 V2000
    1.2322   -3.3503   -3.5943 C   0  0  0  0  0  0  0  0  0  0  0  0
    2.3866   -3.7506   -2.7968 N   0  0  0  0  0  0  0  0  0  0  0  0
    3.3791   -4.5378   -3.5857 C   0  0  0  0  0  0  0  0  0  0  0  0
    4.0638   -3.8206   -4.7427 C   0  0  0  0  0  0  0  0  0  0  0  0
    4.7713   -2.6525   -4.2678 N   0  0  0  0  0  0  0  0  0  0  0  0
    6.1402   -2.6591   -4.1053 C   0  0  0  0  0  0  0  0  0  0  0  0
    6.8350   -3.6440   -4.3458 O   0  0  0  0  0  0  0  0  0  0  0  0
    6.6942   -1.3015   -3.6379 C   0  0  0  0  0  0  0  0  0  0  0  0
    8.1533   -1.3133   -3.4428 N   0  0  0  0  0  0  0  0  0  0  0  0
    8.5862   -2.0950   -2.2804 C   0  0  0  0  0  0  0  0  0  0  0  0
    8.6433   -1.3417   -0.9658 C   0  0  0  0  0  0  0  0  0  0  0  0
    8.7315   -2.0863    0.2270 C   0  0  0  0  0  0  0  0  0  0  0  0
    8.8351   -1.4608    1.4646 C   0  0  0  0  0  0  0  0  0  0  0  0
    8.8567   -0.0713    1.5277 C   0  0  0  0  0  0  0  0  0  0  0  0
    8.9784    0.7289    3.0456 Cl  0  0  0  0  0  0  0  0  0  0  0  0
    8.7870    0.6798    0.3588 C   0  0  0  0  0  0  0  0  0  0  0  0
    8.6920    0.0657   -0.9063 C   0  0  0  0  0  0  0  0  0  0  0  0
    8.5784    0.9078   -2.1886 C   0  0  3  0  0  0  0  0  0  0  0  0
    9.6364    2.0413   -2.2445 C   0  0  0  0  0  0  0  0  0  0  0  0
    8.8879    3.3370   -1.9782 C   0  0  0  0  0  0  0  0  0  0  0  0
    7.5790    2.9506   -1.5270 N   0  0  0  0  0  0  0  0  0  0  0  0
    6.6493    3.9067   -1.0183 C   0  0  0  0  0  0  0  0  0  0  0  0
    5.3346    3.9382   -1.4888 C   0  0  0  0  0  0  0  0  0  0  0  0
    4.4282    4.8968   -1.1896 N   0  0  0  0  0  0  0  0  0  0  0  0
    4.8144    5.8287   -0.2985 C   0  0  0  0  0  0  0  0  0  0  0  0
    6.0286    5.8170    0.3787 C   0  0  0  0  0  0  0  0  0  0  0  0
    6.2611    6.7264    1.4267 C   0  0  0  0  0  0  0  0  0  0  0  0
    7.4395    6.6850    2.1629 C   0  0  0  0  0  0  0  0  0  0  0  0
    8.4066    5.7455    1.8435 C   0  0  0  0  0  0  0  0  0  0  0  0
    8.1815    4.8376    0.7994 C   0  0  0  0  0  0  0  0  0  0  0  0
    6.9923    4.8407    0.0180 C   0  0  0  0  0  0  0  0  0  0  0  0
    7.2589    1.7118   -2.1275 C   0  0  0  0  0  0  0  0  0  0  0  0
    6.1527    1.2979   -2.4122 O   0  0  0  0  0  0  0  0  0  0  0  0
    8.7528    0.0230   -3.4472 C   0  0  0  0  0  0  0  0  0  0  0  0
    3.1209   -6.0241   -3.7401 C   0  0  0  0  0  0  0  0  0  0  0  0
    4.2112   -5.5534   -2.8248 C   0  0  0  0  0  0  0  0  0  0  0  0
    0.4570   -2.9377   -2.9419 H   0  0  0  0  0  0  0  0  0  0  0  0
    0.8003   -4.1956   -4.1402 H   0  0  0  0  0  0  0  0  0  0  0  0
    1.5042   -2.5674   -4.3090 H   0  0  0  0  0  0  0  0  0  0  0  0
    2.0590   -4.3049   -2.0043 H   0  0  0  0  0  0  0  0  0  0  0  0
    3.3187   -3.4770   -5.4650 H   0  0  0  0  0  0  0  0  0  0  0  0
    4.7484   -4.4871   -5.2744 H   0  0  0  0  0  0  0  0  0  0  0  0
    4.2212   -1.9449   -3.7967 H   0  0  0  0  0  0  0  0  0  0  0  0
    6.1603   -1.0094   -2.7315 H   0  0  0  0  0  0  0  0  0  0  0  0
    6.4516   -0.6030   -4.4500 H   0  0  0  0  0  0  0  0  0  0  0  0
    9.6029   -2.4589   -2.4809 H   0  0  0  0  0  0  0  0  0  0  0  0
    7.9666   -2.9903   -2.1551 H   0  0  0  0  0  0  0  0  0  0  0  0
    8.7216   -3.1751    0.1894 H   0  0  0  0  0  0  0  0  0  0  0  0
    8.8999   -2.0498    2.3750 H   0  0  0  0  0  0  0  0  0  0  0  0
    8.7959    1.7607    0.4524 H   0  0  0  0  0  0  0  0  0  0  0  0
   10.1231    2.1152   -3.2254 H   0  0  0  0  0  0  0  0  0  0  0  0
   10.4424    1.8954   -1.5166 H   0  0  0  0  0  0  0  0  0  0  0  0
    8.7537    3.8808   -2.9228 H   0  0  0  0  0  0  0  0  0  0  0  0
    9.4413    3.9857   -1.3032 H   0  0  0  0  0  0  0  0  0  0  0  0
    4.9451    3.1967   -2.1782 H   0  0  0  0  0  0  0  0  0  0  0  0
    4.0726    6.6017   -0.1130 H   0  0  0  0  0  0  0  0  0  0  0  0
    5.4943    7.4466    1.7091 H   0  0  0  0  0  0  0  0  0  0  0  0
    7.5866    7.3629    2.9998 H   0  0  0  0  0  0  0  0  0  0  0  0
    9.3248    5.6928    2.4231 H   0  0  0  0  0  0  0  0  0  0  0  0
    8.9451    4.0815    0.6542 H   0  0  0  0  0  0  0  0  0  0  0  0
    9.8329   -0.1492   -3.5879 H   0  0  0  0  0  0  0  0  0  0  0  0
    8.4438    0.5682   -4.3477 H   0  0  0  0  0  0  0  0  0  0  0  0
    3.4109   -6.5047   -4.6683 H   0  0  0  0  0  0  0  0  0  0  0  0
    2.2348   -6.4542   -3.2885 H   0  0  0  0  0  0  0  0  0  0  0  0
    5.2416   -5.7064   -3.1376 H   0  0  0  0  0  0  0  0  0  0  0  0
    4.0678   -5.6590   -1.7577 H   0  0  0  0  0  0  0  0  0  0  0  0
  1  2  1  0  0  0  0
  1 37  1  0  0  0  0
  1 38  1  0  0  0  0
  1 39  1  0  0  0  0
  2  3  1  0  0  0  0
  2 40  1  0  0  0  0
  3  4  1  0  0  0  0
  3 35  1  0  0  0  0
  3 36  1  0  0  0  0
  4  5  1  0  0  0  0
  4 41  1  0  0  0  0
  4 42  1  0  0  0  0
  5  6  1  0  0  0  0
  5 43  1  0  0  0  0
  6  7  2  0  0  0  0
  6  8  1  0  0  0  0
  8  9  1  0  0  0  0
  8 44  1  0  0  0  0
  8 45  1  0  0  0  0
  9 10  1  0  0  0  0
  9 34  1  0  0  0  0
 10 11  1  0  0  0  0
 10 46  1  0  0  0  0
 10 47  1  0  0  0  0
 11 12  1  0  0  0  0
 11 17  2  0  0  0  0
 12 13  2  0  0  0  0
 12 48  1  0  0  0  0
 13 14  1  0  0  0  0
 13 49  1  0  0  0  0
 14 15  1  0  0  0  0
 14 16  2  0  0  0  0
 16 17  1  0  0  0  0
 16 50  1  0  0  0  0
 17 18  1  0  0  0  0
 18 19  1  0  0  0  0
 18 32  1  0  0  0  0
 18 34  1  0  0  0  0
 19 20  1  0  0  0  0
 19 51  1  0  0  0  0
 19 52  1  0  0  0  0
 20 21  1  0  0  0  0
 20 53  1  0  0  0  0
 20 54  1  0  0  0  0
 21 22  1  0  0  0  0
 21 32  1  0  0  0  0
 22 23  1  0  0  0  0
 22 31  2  0  0  0  0
 23 24  2  0  0  0  0
 23 55  1  0  0  0  0
 24 25  1  0  0  0  0
 25 26  2  0  0  0  0
 25 56  1  0  0  0  0
 26 27  1  0  0  0  0
 26 31  1  0  0  0  0
 27 28  2  0  0  0  0
 27 57  1  0  0  0  0
 28 29  1  0  0  0  0
 28 58  1  0  0  0  0
 29 30  2  0  0  0  0
 29 59  1  0  0  0  0
 30 31  1  0  0  0  0
 30 60  1  0  0  0  0
 32 33  2  0  0  0  0
 34 61  1  0  0  0  0
 34 62  1  0  0  0  0
 35 36  1  0  0  0  0
 35 63  1  0  0  0  0
 35 64  1  0  0  0  0
 36 65  1  0  0  0  0
 36 66  1  0  0  0  0
M  END
$$$$
