
 OpenBabel07202414183D

 43 46  0  0  0  0  0  0  0  0999 V2000
   -0.0886    0.7427    2.9377 Cl  0  0  0  0  0  0  0  0  0  0  0  0
    0.4088    0.2536    1.3650 C   0  0  0  0  0  0  0  0  0  0  0  0
   -0.0130    0.9800    0.2550 C   0  0  0  0  0  0  0  0  0  0  0  0
    0.3958    0.5837   -1.0129 C   0  0  0  0  0  0  0  0  0  0  0  0
    1.2168   -0.5331   -1.1581 C   0  0  0  0  0  0  0  0  0  0  0  0
    1.6548   -1.2851   -0.0525 C   0  0  0  0  0  0  0  0  0  0  0  0
    2.5154   -2.3565   -0.2648 N   0  0  0  0  0  0  0  0  0  0  0  0
    3.3526   -2.8522    0.8344 C   0  0  0  0  0  0  0  0  0  0  0  0
    4.5412   -3.6467    0.2609 C   0  0  0  0  0  0  0  0  0  0  0  0
    4.1546   -4.6733   -0.7302 N   0  0  0  0  0  0  0  0  0  0  0  0
    4.7802   -5.9106   -0.9558 C   0  0  0  0  0  0  0  0  0  0  0  0
    4.4416   -6.6379   -1.8875 O   0  0  0  0  0  0  0  0  0  0  0  0
    5.8573   -6.3975   -0.0504 C   0  0  0  0  0  0  0  0  0  0  0  0
    6.8929   -5.5337    0.2836 C   0  0  0  0  0  0  0  0  0  0  0  0
    7.8596   -5.8045    1.1871 N   0  0  0  0  0  0  0  0  0  0  0  0
    7.8401   -7.0417    1.7222 C   0  0  0  0  0  0  0  0  0  0  0  0
    6.9415   -8.0452    1.3656 C   0  0  0  0  0  0  0  0  0  0  0  0
    7.0610   -9.3396    1.9028 C   0  0  0  0  0  0  0  0  0  0  0  0
    6.2049  -10.3611    1.4991 C   0  0  0  0  0  0  0  0  0  0  0  0
    5.2024  -10.0892    0.5779 C   0  0  0  0  0  0  0  0  0  0  0  0
    5.0455   -8.7932    0.0730 C   0  0  0  0  0  0  0  0  0  0  0  0
    5.9137   -7.7324    0.4413 C   0  0  0  0  0  0  0  0  0  0  0  0
    3.1929   -4.2015   -1.7440 C   0  0  0  0  0  0  0  0  0  0  0  0
    2.0039   -3.4508   -1.1207 C   0  0  0  0  0  0  0  0  0  0  0  0
    1.2414   -0.8640    1.2186 C   0  0  0  0  0  0  0  0  0  0  0  0
   -0.6509    1.8511    0.3724 H   0  0  0  0  0  0  0  0  0  0  0  0
    0.0888    1.1512   -1.8889 H   0  0  0  0  0  0  0  0  0  0  0  0
    1.5623   -0.7981   -2.1574 H   0  0  0  0  0  0  0  0  0  0  0  0
    2.7654   -3.4986    1.4978 H   0  0  0  0  0  0  0  0  0  0  0  0
    3.7584   -2.0241    1.4280 H   0  0  0  0  0  0  0  0  0  0  0  0
    5.0760   -4.0902    1.1026 H   0  0  0  0  0  0  0  0  0  0  0  0
    5.2182   -2.9571   -0.2586 H   0  0  0  0  0  0  0  0  0  0  0  0
    6.9803   -4.5512   -0.1697 H   0  0  0  0  0  0  0  0  0  0  0  0
    8.6229   -7.2223    2.4562 H   0  0  0  0  0  0  0  0  0  0  0  0
    7.8465   -9.5699    2.6203 H   0  0  0  0  0  0  0  0  0  0  0  0
    6.3292  -11.3663    1.8917 H   0  0  0  0  0  0  0  0  0  0  0  0
    4.5452  -10.8861    0.2370 H   0  0  0  0  0  0  0  0  0  0  0  0
    4.2502   -8.6333   -0.6547 H   0  0  0  0  0  0  0  0  0  0  0  0
    2.8172   -5.0322   -2.3491 H   0  0  0  0  0  0  0  0  0  0  0  0
    3.7438   -3.5294   -2.4132 H   0  0  0  0  0  0  0  0  0  0  0  0
    1.4088   -4.1413   -0.5066 H   0  0  0  0  0  0  0  0  0  0  0  0
    1.3551   -3.0891   -1.9257 H   0  0  0  0  0  0  0  0  0  0  0  0
    1.5416   -1.4061    2.1051 H   0  0  0  0  0  0  0  0  0  0  0  0
  1  2  1  0  0  0  0
  2  3  1  0  0  0  0
  2 25  2  0  0  0  0
  3  4  2  0  0  0  0
  3 26  1  0  0  0  0
  4  5  1  0  0  0  0
  4 27  1  0  0  0  0
  5  6  2  0  0  0  0
  5 28  1  0  0  0  0
  6  7  1  0  0  0  0
  6 25  1  0  0  0  0
  7  8  1  0  0  0  0
  7 24  1  0  0  0  0
  8  9  1  0  0  0  0
  8 29  1  0  0  0  0
  8 30  1  0  0  0  0
  9 10  1  0  0  0  0
  9 31  1  0  0  0  0
  9 32  1  0  0  0  0
 10 11  1  0  0  0  0
 10 23  1  0  0  0  0
 11 12  2  0  0  0  0
 11 13  1  0  0  0  0
 13 14  1  0  0  0  0
 13 22  2  0  0  0  0
 14 15  2  0  0  0  0
 14 33  1  0  0  0  0
 15 16  1  0  0  0  0
 16 17  2  0  0  0  0
 16 34  1  0  0  0  0
 17 18  1  0  0  0  0
 17 22  1  0  0  0  0
 18 19  2  0  0  0  0
 18 35  1  0  0  0  0
 19 20  1  0  0  0  0
 19 36  1  0  0  0  0
 20 21  2  0  0  0  0
 20 37  1  0  0  0  0
 21 22  1  0  0  0  0
 21 38  1  0  0  0  0
 23 24  1  0  0  0  0
 23 39  1  0  0  0  0
 23 40  1  0  0  0  0
 24 41  1  0  0  0  0
 24 42  1  0  0  0  0
 25 43  1  0  0  0  0
M  END
$$$$
