
 OpenBabel07202414153D

 68 72  0  0  1  0  0  0  0  0999 V2000
   -2.2333    1.4448    2.3260 C   0  0  0  0  0  0  0  0  0  0  0  0
   -1.8980    0.0635    2.3523 O   0  0  0  0  0  0  0  0  0  0  0  0
   -1.4197   -0.4639    1.1844 C   0  0  0  0  0  0  0  0  0  0  0  0
   -1.6679    0.0313   -0.0968 C   0  0  0  0  0  0  0  0  0  0  0  0
   -1.1568   -0.6115   -1.2471 C   0  0  0  0  0  0  0  0  0  0  0  0
   -1.5853   -0.0443   -2.5891 C   0  0  0  0  0  0  0  0  0  0  0  0
   -0.7301   -0.3089   -3.7276 N   0  0  0  0  0  0  0  0  0  0  0  0
   -1.1690    0.0634   -5.0020 C   0  0  0  0  0  0  0  0  0  0  0  0
   -2.2840    0.5325   -5.2126 O   0  0  0  0  0  0  0  0  0  0  0  0
   -0.1076   -0.1280   -6.0890 C   0  0  0  0  0  0  0  0  0  0  0  0
   -0.5804   -0.2285   -7.4695 N   0  0  0  0  0  0  0  0  0  0  0  0
   -1.4161   -1.3796   -7.8119 C   0  0  0  0  0  0  0  0  0  0  0  0
   -1.0162   -1.8043   -9.2424 C   0  0  2  0  0  0  0  0  0  0  0  0
    0.3866   -2.4468   -9.1473 C   0  0  0  0  0  0  0  0  0  0  0  0
    0.5183   -3.6498   -8.9391 O   0  0  0  0  0  0  0  0  0  0  0  0
    1.4161   -1.5278   -9.1945 N   0  0  0  0  0  0  0  0  0  0  0  0
    2.8020   -1.7004   -8.9921 C   0  0  0  0  0  0  0  0  0  0  0  0
    3.3775   -2.9162   -8.6330 C   0  0  0  0  0  0  0  0  0  0  0  0
    4.7104   -3.1155   -8.4907 N   0  0  0  0  0  0  0  0  0  0  0  0
    5.5067   -2.0503   -8.7158 C   0  0  0  0  0  0  0  0  0  0  0  0
    5.0531   -0.7716   -9.0298 C   0  0  0  0  0  0  0  0  0  0  0  0
    5.9489    0.3024   -9.2181 C   0  0  0  0  0  0  0  0  0  0  0  0
    5.4849    1.5765   -9.5254 C   0  0  0  0  0  0  0  0  0  0  0  0
    4.1219    1.8021   -9.6482 C   0  0  0  0  0  0  0  0  0  0  0  0
    3.2272    0.7461   -9.4680 C   0  0  0  0  0  0  0  0  0  0  0  0
    3.6599   -0.5739   -9.1656 C   0  0  0  0  0  0  0  0  0  0  0  0
   -1.1170   -0.6007  -10.1914 C   0  0  0  0  0  0  0  0  0  0  0  0
   -1.1810   -0.7937  -11.5823 C   0  0  0  0  0  0  0  0  0  0  0  0
   -1.3045    0.3038  -12.4348 C   0  0  0  0  0  0  0  0  0  0  0  0
   -1.4134    0.0617  -14.1367 Cl  0  0  0  0  0  0  0  0  0  0  0  0
   -1.3503    1.5992  -11.9222 C   0  0  0  0  0  0  0  0  0  0  0  0
   -1.2604    1.8056  -10.5420 C   0  0  0  0  0  0  0  0  0  0  0  0
   -1.1303    0.7197   -9.6647 C   0  0  0  0  0  0  0  0  0  0  0  0
   -1.0276    0.9754   -8.1568 C   0  0  0  0  0  0  0  0  0  0  0  0
   -0.3881   -1.7791   -1.0761 C   0  0  0  0  0  0  0  0  0  0  0  0
   -0.1300   -2.2744    0.2144 C   0  0  0  0  0  0  0  0  0  0  0  0
    0.6074   -3.3760    0.5490 O   0  0  0  0  0  0  0  0  0  0  0  0
    1.2151   -4.1219   -0.4915 C   0  0  0  0  0  0  0  0  0  0  0  0
   -0.6604   -1.6188    1.3279 C   0  0  0  0  0  0  0  0  0  0  0  0
   -2.4365    1.7583    3.3548 H   0  0  0  0  0  0  0  0  0  0  0  0
   -3.1408    1.6205    1.7407 H   0  0  0  0  0  0  0  0  0  0  0  0
   -1.3978    2.0458    1.9518 H   0  0  0  0  0  0  0  0  0  0  0  0
   -2.2979    0.9059   -0.2272 H   0  0  0  0  0  0  0  0  0  0  0  0
   -1.6391    1.0497   -2.5088 H   0  0  0  0  0  0  0  0  0  0  0  0
   -2.5923   -0.4132   -2.8185 H   0  0  0  0  0  0  0  0  0  0  0  0
    0.2676   -0.3503   -3.5654 H   0  0  0  0  0  0  0  0  0  0  0  0
    0.4505   -1.0445   -5.8593 H   0  0  0  0  0  0  0  0  0  0  0  0
    0.6100    0.6963   -6.0083 H   0  0  0  0  0  0  0  0  0  0  0  0
   -2.4834   -1.1169   -7.7772 H   0  0  0  0  0  0  0  0  0  0  0  0
   -1.2699   -2.2160   -7.1197 H   0  0  0  0  0  0  0  0  0  0  0  0
   -1.7094   -2.5760   -9.6013 H   0  0  0  0  0  0  0  0  0  0  0  0
    1.1091   -0.5813   -9.3505 H   0  0  0  0  0  0  0  0  0  0  0  0
    2.7832   -3.8019   -8.4283 H   0  0  0  0  0  0  0  0  0  0  0  0
    6.5718   -2.2632   -8.6332 H   0  0  0  0  0  0  0  0  0  0  0  0
    7.0229    0.1446   -9.1231 H   0  0  0  0  0  0  0  0  0  0  0  0
    6.1867    2.3968   -9.6717 H   0  0  0  0  0  0  0  0  0  0  0  0
    3.7485    2.7947   -9.8875 H   0  0  0  0  0  0  0  0  0  0  0  0
    2.1743    0.9905   -9.5702 H   0  0  0  0  0  0  0  0  0  0  0  0
   -1.1449   -1.7969  -12.0026 H   0  0  0  0  0  0  0  0  0  0  0  0
   -1.4574    2.4504  -12.5898 H   0  0  0  0  0  0  0  0  0  0  0  0
   -1.2945    2.8242  -10.1580 H   0  0  0  0  0  0  0  0  0  0  0  0
   -1.9968    1.3289   -7.7879 H   0  0  0  0  0  0  0  0  0  0  0  0
   -0.2853    1.7692   -8.0083 H   0  0  0  0  0  0  0  0  0  0  0  0
   -0.0280   -2.3118   -1.9493 H   0  0  0  0  0  0  0  0  0  0  0  0
    1.9089   -4.8283   -0.0224 H   0  0  0  0  0  0  0  0  0  0  0  0
    1.7985   -3.4872   -1.1631 H   0  0  0  0  0  0  0  0  0  0  0  0
    0.4627   -4.6993   -1.0353 H   0  0  0  0  0  0  0  0  0  0  0  0
   -0.4789   -2.0176    2.3242 H   0  0  0  0  0  0  0  0  0  0  0  0
  1  2  1  0  0  0  0
  1 40  1  0  0  0  0
  1 41  1  0  0  0  0
  1 42  1  0  0  0  0
  2  3  1  0  0  0  0
  3  4  1  0  0  0  0
  3 39  2  0  0  0  0
  4  5  2  0  0  0  0
  4 43  1  0  0  0  0
  5  6  1  0  0  0  0
  5 35  1  0  0  0  0
  6  7  1  0  0  0  0
  6 44  1  0  0  0  0
  6 45  1  0  0  0  0
  7  8  1  0  0  0  0
  7 46  1  0  0  0  0
  8  9  2  0  0  0  0
  8 10  1  0  0  0  0
 10 11  1  0  0  0  0
 10 47  1  0  0  0  0
 10 48  1  0  0  0  0
 11 12  1  0  0  0  0
 11 34  1  0  0  0  0
 12 13  1  0  0  0  0
 12 49  1  0  0  0  0
 12 50  1  0  0  0  0
 13 27  1  0  0  0  0
 13 14  1  0  0  0  0
 13 51  1  6  0  0  0
 14 15  2  0  0  0  0
 14 16  1  0  0  0  0
 16 17  1  0  0  0  0
 16 52  1  0  0  0  0
 17 18  1  0  0  0  0
 17 26  2  0  0  0  0
 18 19  2  0  0  0  0
 18 53  1  0  0  0  0
 19 20  1  0  0  0  0
 20 21  2  0  0  0  0
 20 54  1  0  0  0  0
 21 22  1  0  0  0  0
 21 26  1  0  0  0  0
 22 23  2  0  0  0  0
 22 55  1  0  0  0  0
 23 24  1  0  0  0  0
 23 56  1  0  0  0  0
 24 25  2  0  0  0  0
 24 57  1  0  0  0  0
 25 26  1  0  0  0  0
 25 58  1  0  0  0  0
 27 28  1  0  0  0  0
 27 33  2  0  0  0  0
 28 29  2  0  0  0  0
 28 59  1  0  0  0  0
 29 30  1  0  0  0  0
 29 31  1  0  0  0  0
 31 32  2  0  0  0  0
 31 60  1  0  0  0  0
 32 33  1  0  0  0  0
 32 61  1  0  0  0  0
 33 34  1  0  0  0  0
 34 62  1  0  0  0  0
 34 63  1  0  0  0  0
 35 36  2  0  0  0  0
 35 64  1  0  0  0  0
 36 37  1  0  0  0  0
 36 39  1  0  0  0  0
 37 38  1  0  0  0  0
 38 65  1  0  0  0  0
 38 66  1  0  0  0  0
 38 67  1  0  0  0  0
 39 68  1  0  0  0  0
M  END
$$$$
