
 OpenBabel07202414123D

 56 60  0  0  1  0  0  0  0  0999 V2000
    3.4319   -1.9303   -0.4423 C   0  0  0  0  0  0  0  0  0  0  0  0
    2.6101   -0.7601    0.0500 C   0  0  0  0  0  0  0  0  0  0  0  0
    2.6810   -0.4632    1.5408 C   0  0  0  0  0  0  0  0  0  0  0  0
    4.3804   -0.0477    2.0041 S   0  0  0  0  0  0  0  0  0  0  0  0
    5.2533   -1.1656    1.7221 O   0  0  0  0  0  0  0  0  0  0  0  0
    4.6975    1.2918    1.5511 O   0  0  0  0  0  0  0  0  0  0  0  0
    4.3015    0.0205    3.7135 N   0  0  0  0  0  0  0  0  0  0  0  0
    3.8418   -1.2248    4.3993 C   0  0  0  0  0  0  0  0  0  0  0  0
    4.2522   -1.2280    5.8710 C   0  0  1  0  0  0  0  0  0  0  0  0
    5.7483   -1.5152    6.0416 C   0  0  0  0  0  0  0  0  0  0  0  0
    6.1387   -2.4431    6.7513 O   0  0  0  0  0  0  0  0  0  0  0  0
    6.5592   -0.6370    5.3480 N   0  0  0  0  0  0  0  0  0  0  0  0
    7.9566   -0.6826    5.1355 C   0  0  0  0  0  0  0  0  0  0  0  0
    8.7532   -1.7412    5.5642 C   0  0  0  0  0  0  0  0  0  0  0  0
   10.0522   -1.9053    5.2186 N   0  0  0  0  0  0  0  0  0  0  0  0
   10.6043   -0.9296    4.4678 C   0  0  0  0  0  0  0  0  0  0  0  0
    9.9565    0.2491    4.1014 C   0  0  0  0  0  0  0  0  0  0  0  0
   10.6492    1.2965    3.4650 C   0  0  0  0  0  0  0  0  0  0  0  0
   10.0022    2.4875    3.1434 C   0  0  0  0  0  0  0  0  0  0  0  0
    8.6447    2.6192    3.3945 C   0  0  0  0  0  0  0  0  0  0  0  0
    7.9449    1.5754    4.0055 C   0  0  0  0  0  0  0  0  0  0  0  0
    8.5844    0.3747    4.4116 C   0  0  0  0  0  0  0  0  0  0  0  0
    3.8090    0.0535    6.5521 C   0  0  0  0  0  0  0  0  0  0  0  0
    3.5602    0.0529    7.9346 C   0  0  0  0  0  0  0  0  0  0  0  0
    3.1943    1.2318    8.5784 C   0  0  0  0  0  0  0  0  0  0  0  0
    2.8356    1.2116   10.2600 Cl  0  0  0  0  0  0  0  0  0  0  0  0
    3.1059    2.4243    7.8665 C   0  0  0  0  0  0  0  0  0  0  0  0
    3.3354    2.4308    6.4893 C   0  0  0  0  0  0  0  0  0  0  0  0
    3.6580    1.2445    5.8125 C   0  0  0  0  0  0  0  0  0  0  0  0
    3.7765    1.2740    4.2987 C   0  0  0  0  0  0  0  0  0  0  0  0
    1.2350   -0.6119   -0.5818 C   0  0  0  0  0  0  0  0  0  0  0  0
    2.3223    0.3601   -0.9289 C   0  0  0  0  0  0  0  0  0  0  0  0
    3.4381   -2.7409    0.2935 H   0  0  0  0  0  0  0  0  0  0  0  0
    4.4619   -1.6215   -0.6441 H   0  0  0  0  0  0  0  0  0  0  0  0
    3.0356   -2.3429   -1.3772 H   0  0  0  0  0  0  0  0  0  0  0  0
    2.3760   -1.3533    2.0955 H   0  0  0  0  0  0  0  0  0  0  0  0
    2.0503    0.3857    1.8206 H   0  0  0  0  0  0  0  0  0  0  0  0
    4.2562   -2.1096    3.8997 H   0  0  0  0  0  0  0  0  0  0  0  0
    2.7469   -1.2770    4.3262 H   0  0  0  0  0  0  0  0  0  0  0  0
    3.7177   -2.0727    6.3428 H   0  0  0  0  0  0  0  0  0  0  0  0
    6.0614    0.0488    4.7908 H   0  0  0  0  0  0  0  0  0  0  0  0
    8.3732   -2.5337    6.1999 H   0  0  0  0  0  0  0  0  0  0  0  0
   11.6318   -1.1227    4.1692 H   0  0  0  0  0  0  0  0  0  0  0  0
   11.7124    1.2046    3.2533 H   0  0  0  0  0  0  0  0  0  0  0  0
   10.5574    3.3115    2.7037 H   0  0  0  0  0  0  0  0  0  0  0  0
    8.1258    3.5374    3.1314 H   0  0  0  0  0  0  0  0  0  0  0  0
    6.8895    1.7425    4.1878 H   0  0  0  0  0  0  0  0  0  0  0  0
    3.6416   -0.8704    8.5060 H   0  0  0  0  0  0  0  0  0  0  0  0
    2.8457    3.3489    8.3756 H   0  0  0  0  0  0  0  0  0  0  0  0
    3.2501    3.3705    5.9462 H   0  0  0  0  0  0  0  0  0  0  0  0
    4.4699    2.0839    4.0408 H   0  0  0  0  0  0  0  0  0  0  0  0
    2.7911    1.4978    3.8786 H   0  0  0  0  0  0  0  0  0  0  0  0
    0.4071   -0.2518    0.0192 H   0  0  0  0  0  0  0  0  0  0  0  0
    0.9259   -1.3209   -1.3445 H   0  0  0  0  0  0  0  0  0  0  0  0
    2.2302    1.3762   -0.5624 H   0  0  0  0  0  0  0  0  0  0  0  0
    2.7497    0.3001   -1.9256 H   0  0  0  0  0  0  0  0  0  0  0  0
  1  2  1  0  0  0  0
  1 33  1  0  0  0  0
  1 34  1  0  0  0  0
  1 35  1  0  0  0  0
  2  3  1  0  0  0  0
  2 31  1  0  0  0  0
  2 32  1  0  0  0  0
  3  4  1  0  0  0  0
  3 36  1  0  0  0  0
  3 37  1  0  0  0  0
  4  5  2  0  0  0  0
  4  6  2  0  0  0  0
  4  7  1  0  0  0  0
  7  8  1  0  0  0  0
  7 30  1  0  0  0  0
  8  9  1  0  0  0  0
  8 38  1  0  0  0  0
  8 39  1  0  0  0  0
  9 10  1  0  0  0  0
  9 23  1  0  0  0  0
  9 40  1  1  0  0  0
 10 11  2  0  0  0  0
 10 12  1  0  0  0  0
 12 13  1  0  0  0  0
 12 41  1  0  0  0  0
 13 14  1  0  0  0  0
 13 22  2  0  0  0  0
 14 15  2  0  0  0  0
 14 42  1  0  0  0  0
 15 16  1  0  0  0  0
 16 17  2  0  0  0  0
 16 43  1  0  0  0  0
 17 18  1  0  0  0  0
 17 22  1  0  0  0  0
 18 19  2  0  0  0  0
 18 44  1  0  0  0  0
 19 20  1  0  0  0  0
 19 45  1  0  0  0  0
 20 21  2  0  0  0  0
 20 46  1  0  0  0  0
 21 22  1  0  0  0  0
 21 47  1  0  0  0  0
 23 24  1  0  0  0  0
 23 29  2  0  0  0  0
 24 25  2  0  0  0  0
 24 48  1  0  0  0  0
 25 26  1  0  0  0  0
 25 27  1  0  0  0  0
 27 28  2  0  0  0  0
 27 49  1  0  0  0  0
 28 29  1  0  0  0  0
 28 50  1  0  0  0  0
 29 30  1  0  0  0  0
 30 51  1  0  0  0  0
 30 52  1  0  0  0  0
 31 32  1  0  0  0  0
 31 53  1  0  0  0  0
 31 54  1  0  0  0  0
 32 55  1  0  0  0  0
 32 56  1  0  0  0  0
M  END
$$$$
