
 OpenBabel07202414143D

 59 64  0  0  0  0  0  0  0  0999 V2000
    3.5405   -1.2875   -2.9067 C   0  0  0  0  0  0  0  0  0  0  0  0
    2.7163   -1.6477   -4.0041 O   0  0  0  0  0  0  0  0  0  0  0  0
    1.8943   -0.6906   -4.5469 C   0  0  0  0  0  0  0  0  0  0  0  0
    1.3050    0.4164   -3.8917 C   0  0  0  0  0  0  0  0  0  0  0  0
    1.6924    0.7992   -2.5781 N   0  0  0  0  0  0  0  0  0  0  0  0
    0.8705    1.3151   -1.5475 C   0  0  0  0  0  0  0  0  0  0  0  0
    1.4508    2.1366   -0.5677 C   0  0  0  0  0  0  0  0  0  0  0  0
    0.7296    2.5580    0.5617 C   0  0  0  0  0  0  0  0  0  0  0  0
    1.4016    3.3765    1.6390 C   0  0  0  0  0  0  0  0  0  0  0  0
    2.0820    4.6450    1.1549 C   0  0  0  0  0  0  0  0  0  0  0  0
    3.2386    4.8998    1.4859 O   0  0  0  0  0  0  0  0  0  0  0  0
    1.2722    5.4972    0.4264 N   0  0  0  0  0  0  0  0  0  0  0  0
    1.7218    6.7299   -0.1129 C   0  0  0  0  0  0  0  0  0  0  0  0
    3.0099    6.8621   -0.6379 C   0  0  0  0  0  0  0  0  0  0  0  0
    3.4926    7.9847   -1.2174 N   0  0  0  0  0  0  0  0  0  0  0  0
    2.6586    9.0458   -1.2465 C   0  0  0  0  0  0  0  0  0  0  0  0
    1.3618    9.0510   -0.7318 C   0  0  0  0  0  0  0  0  0  0  0  0
    0.5714   10.2131   -0.7561 C   0  0  0  0  0  0  0  0  0  0  0  0
   -0.7023   10.2193   -0.1933 C   0  0  0  0  0  0  0  0  0  0  0  0
   -1.2025    9.0635    0.3925 C   0  0  0  0  0  0  0  0  0  0  0  0
   -0.4331    7.8974    0.4091 C   0  0  0  0  0  0  0  0  0  0  0  0
    0.8660    7.8581   -0.1545 C   0  0  0  0  0  0  0  0  0  0  0  0
   -0.5885    2.1160    0.7208 C   0  0  0  0  0  0  0  0  0  0  0  0
   -1.1706    1.2945   -0.2456 C   0  0  0  0  0  0  0  0  0  0  0  0
   -2.7798    0.7269   -0.0113 Cl  0  0  0  0  0  0  0  0  0  0  0  0
   -0.4507    0.8953   -1.3726 C   0  0  0  0  0  0  0  0  0  0  0  0
    0.4550    1.2801   -4.6128 C   0  0  0  0  0  0  0  0  0  0  0  0
    0.2276    0.9930   -5.9561 C   0  0  0  0  0  0  0  0  0  0  0  0
   -0.5446    1.7338   -6.7963 O   0  0  0  0  0  0  0  0  0  0  0  0
   -0.4662    1.1512   -8.0234 C   0  0  0  0  0  0  0  0  0  0  0  0
    0.3507    0.0236   -7.9793 C   0  0  0  0  0  0  0  0  0  0  0  0
    0.5665   -0.6903   -9.1732 C   0  0  0  0  0  0  0  0  0  0  0  0
   -0.0513   -0.2393  -10.3510 C   0  0  0  0  0  0  0  0  0  0  0  0
   -0.8681    0.8910  -10.3477 C   0  0  0  0  0  0  0  0  0  0  0  0
   -1.1007    1.6166   -9.1757 C   0  0  0  0  0  0  0  0  0  0  0  0
    0.7868   -0.0840   -6.6280 C   0  0  0  0  0  0  0  0  0  0  0  0
    1.6102   -0.9587   -5.9021 C   0  0  0  0  0  0  0  0  0  0  0  0
    4.2855   -2.0790   -2.7794 H   0  0  0  0  0  0  0  0  0  0  0  0
    2.9682   -1.2400   -1.9764 H   0  0  0  0  0  0  0  0  0  0  0  0
    4.0853   -0.3589   -3.1042 H   0  0  0  0  0  0  0  0  0  0  0  0
    2.5589    1.3314   -2.6513 H   0  0  0  0  0  0  0  0  0  0  0  0
    2.4923    2.4376   -0.6731 H   0  0  0  0  0  0  0  0  0  0  0  0
    2.1657    2.7435    2.1078 H   0  0  0  0  0  0  0  0  0  0  0  0
    0.6905    3.6560    2.4252 H   0  0  0  0  0  0  0  0  0  0  0  0
    0.2746    5.3361    0.4583 H   0  0  0  0  0  0  0  0  0  0  0  0
    3.7082    6.0296   -0.6478 H   0  0  0  0  0  0  0  0  0  0  0  0
    3.0880    9.9355   -1.7021 H   0  0  0  0  0  0  0  0  0  0  0  0
    0.9554   11.1329   -1.1969 H   0  0  0  0  0  0  0  0  0  0  0  0
   -1.2972   11.1295   -0.1977 H   0  0  0  0  0  0  0  0  0  0  0  0
   -2.1873    9.0700    0.8549 H   0  0  0  0  0  0  0  0  0  0  0  0
   -0.8540    7.0309    0.9092 H   0  0  0  0  0  0  0  0  0  0  0  0
   -1.1549    2.3777    1.6120 H   0  0  0  0  0  0  0  0  0  0  0  0
   -0.9116    0.2205   -2.0902 H   0  0  0  0  0  0  0  0  0  0  0  0
    0.0173    2.1637   -4.1633 H   0  0  0  0  0  0  0  0  0  0  0  0
    1.2081   -1.5670   -9.1877 H   0  0  0  0  0  0  0  0  0  0  0  0
    0.1210   -0.7786  -11.2812 H   0  0  0  0  0  0  0  0  0  0  0  0
   -1.3365    1.2193  -11.2781 H   0  0  0  0  0  0  0  0  0  0  0  0
   -1.7251    2.4969   -9.1548 H   0  0  0  0  0  0  0  0  0  0  0  0
    2.0569   -1.8221   -6.3866 H   0  0  0  0  0  0  0  0  0  0  0  0
  1  2  1  0  0  0  0
  1 38  1  0  0  0  0
  1 39  1  0  0  0  0
  1 40  1  0  0  0  0
  2  3  1  0  0  0  0
  3  4  2  0  0  0  0
  3 37  1  0  0  0  0
  4  5  1  0  0  0  0
  4 27  1  0  0  0  0
  5  6  1  0  0  0  0
  5 41  1  0  0  0  0
  6  7  2  0  0  0  0
  6 26  1  0  0  0  0
  7  8  1  0  0  0  0
  7 42  1  0  0  0  0
  8  9  1  0  0  0  0
  8 23  2  0  0  0  0
  9 10  1  0  0  0  0
  9 43  1  0  0  0  0
  9 44  1  0  0  0  0
 10 11  2  0  0  0  0
 10 12  1  0  0  0  0
 12 13  1  0  0  0  0
 12 45  1  0  0  0  0
 13 14  2  0  0  0  0
 13 22  1  0  0  0  0
 14 15  1  0  0  0  0
 14 46  1  0  0  0  0
 15 16  2  0  0  0  0
 16 17  1  0  0  0  0
 16 47  1  0  0  0  0
 17 18  2  0  0  0  0
 17 22  1  0  0  0  0
 18 19  1  0  0  0  0
 18 48  1  0  0  0  0
 19 20  2  0  0  0  0
 19 49  1  0  0  0  0
 20 21  1  0  0  0  0
 20 50  1  0  0  0  0
 21 22  2  0  0  0  0
 21 51  1  0  0  0  0
 23 24  1  0  0  0  0
 23 52  1  0  0  0  0
 24 25  1  0  0  0  0
 24 26  2  0  0  0  0
 26 53  1  0  0  0  0
 27 28  2  0  0  0  0
 27 54  1  0  0  0  0
 28 29  1  0  0  0  0
 28 36  1  0  0  0  0
 29 30  1  0  0  0  0
 30 31  2  0  0  0  0
 30 35  1  0  0  0  0
 31 32  1  0  0  0  0
 31 36  1  0  0  0  0
 32 33  2  0  0  0  0
 32 55  1  0  0  0  0
 33 34  1  0  0  0  0
 33 56  1  0  0  0  0
 34 35  2  0  0  0  0
 34 57  1  0  0  0  0
 35 58  1  0  0  0  0
 36 37  2  0  0  0  0
 37 59  1  0  0  0  0
M  END
$$$$
