
 OpenBabel07202414203D

 26 28  0  0  0  0  0  0  0  0999 V2000
    1.9953   -1.1995   -0.7833 O   0  5  0  0  0  0  0  0  0  0  0  0
    2.9999   -0.5958   -0.3842 N   0  3  0  0  0  0  0  0  0  0  0  0
    3.4829    0.4174   -0.9025 O   0  0  0  0  0  0  0  0  0  0  0  0
    3.6396   -1.1349    0.7735 C   0  0  0  0  0  0  0  0  0  0  0  0
    3.2694   -2.2503    1.4860 C   0  0  0  0  0  0  0  0  0  0  0  0
    4.0867   -2.5459    2.5680 N   0  0  0  0  0  0  0  0  0  0  0  0
    5.0490   -1.6500    2.6566 C   0  0  0  0  0  0  0  0  0  0  0  0
    6.2870   -1.6442    3.8930 S   0  0  0  0  0  0  0  0  0  0  0  0
    5.8383   -3.0793    4.7547 C   0  0  0  0  0  0  0  0  0  0  0  0
    5.5258   -3.0910    6.0357 N   0  0  0  0  0  0  0  0  0  0  0  0
    5.3381   -4.4121    6.3876 N   0  0  0  0  0  0  0  0  0  0  0  0
    5.5664   -5.1220    5.3017 C   0  0  0  0  0  0  0  0  0  0  0  0
    5.5102   -6.5648    5.0970 C   0  0  0  0  0  0  0  0  0  0  0  0
    5.1454   -7.4083    6.1598 C   0  0  0  0  0  0  0  0  0  0  0  0
    5.0555   -8.7931    5.9790 C   0  0  0  0  0  0  0  0  0  0  0  0
    5.3347   -9.3472    4.7325 C   0  0  0  0  0  0  0  0  0  0  0  0
    5.2060  -11.0464    4.5005 Cl  0  0  0  0  0  0  0  0  0  0  0  0
    5.7127   -8.5304    3.6699 C   0  0  0  0  0  0  0  0  0  0  0  0
    5.8011   -7.1460    3.8523 C   0  0  0  0  0  0  0  0  0  0  0  0
    5.9050   -4.3432    4.2257 O   0  0  0  0  0  0  0  0  0  0  0  0
    5.0219   -0.4184    1.4480 S   0  0  0  0  0  0  0  0  0  0  0  0
    2.4199   -2.8897    1.2709 H   0  0  0  0  0  0  0  0  0  0  0  0
    4.9205   -6.9895    7.1406 H   0  0  0  0  0  0  0  0  0  0  0  0
    4.7625   -9.4281    6.8114 H   0  0  0  0  0  0  0  0  0  0  0  0
    5.9342   -8.9606    2.6965 H   0  0  0  0  0  0  0  0  0  0  0  0
    6.0942   -6.5266    3.0068 H   0  0  0  0  0  0  0  0  0  0  0  0
  1  2  1  0  0  0  0
  2  3  2  0  0  0  0
  2  4  1  0  0  0  0
  4  5  2  0  0  0  0
  4 21  1  0  0  0  0
  5  6  1  0  0  0  0
  5 22  1  0  0  0  0
  6  7  2  0  0  0  0
  7  8  1  0  0  0  0
  7 21  1  0  0  0  0
  8  9  1  0  0  0  0
  9 10  2  0  0  0  0
  9 20  1  0  0  0  0
 10 11  1  0  0  0  0
 11 12  2  0  0  0  0
 12 13  1  0  0  0  0
 12 20  1  0  0  0  0
 13 14  1  0  0  0  0
 13 19  2  0  0  0  0
 14 15  2  0  0  0  0
 14 23  1  0  0  0  0
 15 16  1  0  0  0  0
 15 24  1  0  0  0  0
 16 17  1  0  0  0  0
 16 18  2  0  0  0  0
 18 19  1  0  0  0  0
 18 25  1  0  0  0  0
 19 26  1  0  0  0  0
M  CHG  2   1  -1   2   1
M  END
$$$$
