
 OpenBabel07202414133D

 60 63  0  0  1  0  0  0  0  0999 V2000
    7.6401    2.1653    3.8146 C   0  0  0  0  0  0  0  0  0  0  0  0
    6.9959    1.2314    2.8973 N   0  0  0  0  0  0  0  0  0  0  0  0
    6.2030    0.1755    3.4957 C   0  0  0  0  0  0  0  0  0  0  0  0
    7.0216    1.5385    1.5315 C   0  0  0  0  0  0  0  0  0  0  0  0
    7.5200    2.5948    1.1288 O   0  0  0  0  0  0  0  0  0  0  0  0
    6.4887    0.4955    0.5195 C   0  0  3  0  0  0  0  0  0  0  0  0
    5.8746    1.1953   -0.7245 C   0  0  0  0  0  0  0  0  0  0  0  0
    5.3129    0.2624   -1.7175 N   0  0  0  0  0  0  0  0  0  0  0  0
    5.2679    0.5639   -3.0752 C   0  0  0  0  0  0  0  0  0  0  0  0
    5.8967    1.5089   -3.5480 O   0  0  0  0  0  0  0  0  0  0  0  0
    4.2603   -0.3345   -3.9151 C   0  0  1  0  0  0  0  0  0  0  0  0
    2.8395    0.1623   -3.6829 C   0  0  0  0  0  0  0  0  0  0  0  0
    2.5635    1.5391   -3.6123 C   0  0  0  0  0  0  0  0  0  0  0  0
    1.3020    1.9959   -3.2426 C   0  0  0  0  0  0  0  0  0  0  0  0
    0.2880    1.0787   -2.9702 C   0  0  0  0  0  0  0  0  0  0  0  0
    0.5309   -0.2875   -3.1053 C   0  0  0  0  0  0  0  0  0  0  0  0
    1.7962   -0.7462   -3.4716 C   0  0  0  0  0  0  0  0  0  0  0  0
    4.6038   -0.5856   -5.3273 N   0  0  0  0  0  0  0  0  0  0  0  0
    5.8928   -1.2229   -5.5654 C   0  0  0  0  0  0  0  0  0  0  0  0
    6.7154   -0.0986   -6.0707 C   0  0  0  0  0  0  0  0  0  0  0  0
    8.0639    0.1537   -5.9332 C   0  0  0  0  0  0  0  0  0  0  0  0
    8.5350    1.4048   -6.3476 C   0  0  0  0  0  0  0  0  0  0  0  0
    7.6703    2.3513   -6.9355 C   0  0  0  0  0  0  0  0  0  0  0  0
    6.3090    2.0841   -7.0764 C   0  0  0  0  0  0  0  0  0  0  0  0
    5.8645    0.8648   -6.6096 C   0  0  0  0  0  0  0  0  0  0  0  0
    4.4954    0.5098   -6.2159 C   0  0  0  0  0  0  0  0  0  0  0  0
    3.5058    1.1374   -6.5308 O   0  0  0  0  0  0  0  0  0  0  0  0
    7.6094   -0.4433    0.0795 C   0  0  0  0  0  0  0  0  0  0  0  0
    7.5259   -1.8184    0.3291 C   0  0  0  0  0  0  0  0  0  0  0  0
    8.5006   -2.6843   -0.1706 C   0  0  0  0  0  0  0  0  0  0  0  0
    9.5661   -2.1878   -0.9196 C   0  0  0  0  0  0  0  0  0  0  0  0
    9.6775   -0.8193   -1.1471 C   0  0  0  0  0  0  0  0  0  0  0  0
    8.7107    0.0488   -0.6419 C   0  0  0  0  0  0  0  0  0  0  0  0
    7.2950    2.0109    4.8410 H   0  0  0  0  0  0  0  0  0  0  0  0
    7.4390    3.2007    3.5261 H   0  0  0  0  0  0  0  0  0  0  0  0
    8.7219    1.9896    3.7757 H   0  0  0  0  0  0  0  0  0  0  0  0
    6.5652   -0.0522    4.5121 H   0  0  0  0  0  0  0  0  0  0  0  0
    6.2524   -0.7448    2.9069 H   0  0  0  0  0  0  0  0  0  0  0  0
    5.1694    0.5182    3.5516 H   0  0  0  0  0  0  0  0  0  0  0  0
    5.6790   -0.0799    0.9809 H   0  0  0  0  0  0  0  0  0  0  0  0
    6.5963    1.8540   -1.2214 H   0  0  0  0  0  0  0  0  0  0  0  0
    5.0433    1.8286   -0.4057 H   0  0  0  0  0  0  0  0  0  0  0  0
    4.7009   -0.4680   -1.3780 H   0  0  0  0  0  0  0  0  0  0  0  0
    4.3254   -1.3286   -3.4477 H   0  0  0  0  0  0  0  0  0  0  0  0
    3.3369    2.2716   -3.8458 H   0  0  0  0  0  0  0  0  0  0  0  0
    1.1173    3.0638   -3.1722 H   0  0  0  0  0  0  0  0  0  0  0  0
   -0.6894    1.4368   -2.6655 H   0  0  0  0  0  0  0  0  0  0  0  0
   -0.2752   -0.9970   -2.9282 H   0  0  0  0  0  0  0  0  0  0  0  0
    1.9632   -1.8153   -3.5820 H   0  0  0  0  0  0  0  0  0  0  0  0
    5.7557   -1.9620   -6.3650 H   0  0  0  0  0  0  0  0  0  0  0  0
    6.2816   -1.7186   -4.6729 H   0  0  0  0  0  0  0  0  0  0  0  0
    8.7203   -0.5470   -5.4271 H   0  0  0  0  0  0  0  0  0  0  0  0
    9.5714    1.6744   -6.1605 H   0  0  0  0  0  0  0  0  0  0  0  0
    8.0559    3.3305   -7.2110 H   0  0  0  0  0  0  0  0  0  0  0  0
    5.6125    2.8320   -7.4382 H   0  0  0  0  0  0  0  0  0  0  0  0
    6.6976   -2.2316    0.8980 H   0  0  0  0  0  0  0  0  0  0  0  0
    8.4243   -3.7526    0.0148 H   0  0  0  0  0  0  0  0  0  0  0  0
   10.3124   -2.8649   -1.3249 H   0  0  0  0  0  0  0  0  0  0  0  0
   10.5075   -0.4226   -1.7251 H   0  0  0  0  0  0  0  0  0  0  0  0
    8.8131    1.1155   -0.8388 H   0  0  0  0  0  0  0  0  0  0  0  0
  1  2  1  0  0  0  0
  1 34  1  0  0  0  0
  1 35  1  0  0  0  0
  1 36  1  0  0  0  0
  2  3  1  0  0  0  0
  2  4  1  0  0  0  0
  3 37  1  0  0  0  0
  3 38  1  0  0  0  0
  3 39  1  0  0  0  0
  4  5  2  0  0  0  0
  4  6  1  0  0  0  0
  6  7  1  0  0  0  0
  6 28  1  0  0  0  0
  6 40  1  0  0  0  0
  7  8  1  0  0  0  0
  7 41  1  0  0  0  0
  7 42  1  0  0  0  0
  8  9  1  0  0  0  0
  8 43  1  0  0  0  0
  9 10  2  0  0  0  0
  9 11  1  0  0  0  0
 11 12  1  0  0  0  0
 11 18  1  0  0  0  0
 11 44  1  1  0  0  0
 12 13  1  0  0  0  0
 12 17  2  0  0  0  0
 13 14  2  0  0  0  0
 13 45  1  0  0  0  0
 14 15  1  0  0  0  0
 14 46  1  0  0  0  0
 15 16  2  0  0  0  0
 15 47  1  0  0  0  0
 16 17  1  0  0  0  0
 16 48  1  0  0  0  0
 17 49  1  0  0  0  0
 18 19  1  0  0  0  0
 18 26  1  0  0  0  0
 19 20  1  0  0  0  0
 19 50  1  0  0  0  0
 19 51  1  0  0  0  0
 20 21  1  0  0  0  0
 20 25  2  0  0  0  0
 21 22  2  0  0  0  0
 21 52  1  0  0  0  0
 22 23  1  0  0  0  0
 22 53  1  0  0  0  0
 23 24  2  0  0  0  0
 23 54  1  0  0  0  0
 24 25  1  0  0  0  0
 24 55  1  0  0  0  0
 25 26  1  0  0  0  0
 26 27  2  0  0  0  0
 28 29  1  0  0  0  0
 28 33  2  0  0  0  0
 29 30  2  0  0  0  0
 29 56  1  0  0  0  0
 30 31  1  0  0  0  0
 30 57  1  0  0  0  0
 31 32  2  0  0  0  0
 31 58  1  0  0  0  0
 32 33  1  0  0  0  0
 32 59  1  0  0  0  0
 33 60  1  0  0  0  0
M  END
$$$$
