
 OpenBabel07202414123D

 69 72  0  0  1  0  0  0  0  0999 V2000
   -1.1372    4.4134    4.9783 C   0  0  0  0  0  0  0  0  0  0  0  0
   -0.5186    3.7939    6.2499 C   0  0  0  0  0  0  0  0  0  0  0  0
   -0.1480    4.9727    7.1823 C   0  0  0  0  0  0  0  0  0  0  0  0
   -1.6143    2.9532    6.9435 C   0  0  0  0  0  0  0  0  0  0  0  0
    0.7149    2.9124    5.9736 C   0  0  0  0  0  0  0  0  0  0  0  0
    1.1123    2.5004    4.6886 C   0  0  0  0  0  0  0  0  0  0  0  0
    2.2223    1.6516    4.4975 C   0  0  0  0  0  0  0  0  0  0  0  0
    2.9715    1.2008    5.5871 C   0  0  0  0  0  0  0  0  0  0  0  0
    4.1071    0.3326    5.4198 N   0  0  0  0  0  0  0  0  0  0  0  0
    4.1749   -0.9288    6.2513 C   0  0  3  0  0  0  0  0  0  0  0  0
    3.1497   -1.0418    7.4571 C   0  0  0  0  0  0  0  0  0  0  0  0
    3.4920   -0.8016    8.6175 O   0  0  0  0  0  0  0  0  0  0  0  0
    1.8444   -1.3578    7.1512 N   0  0  0  0  0  0  0  0  0  0  0  0
    0.7574   -1.3459    8.1335 C   0  0  0  0  0  0  0  0  0  0  0  0
   -0.5476   -1.7527    7.4295 C   0  0  0  0  0  0  0  0  0  0  0  0
   -0.5277   -2.0046    6.2261 O   0  0  0  0  0  0  0  0  0  0  0  0
   -1.6837   -1.7717    8.2316 N   0  0  0  0  0  0  0  0  0  0  0  0
   -2.9757   -2.2128    7.8209 C   0  0  0  0  0  0  0  0  0  0  0  0
   -3.1820   -2.9508    6.6484 C   0  0  0  0  0  0  0  0  0  0  0  0
   -4.4588   -3.3618    6.2524 C   0  0  0  0  0  0  0  0  0  0  0  0
   -5.5667   -3.0465    7.0284 C   0  0  0  0  0  0  0  0  0  0  0  0
   -5.3797   -2.3277    8.2130 C   0  0  0  0  0  0  0  0  0  0  0  0
   -6.5614   -1.9947    9.0303 N   0  3  0  0  0  0  0  0  0  0  0  0
   -7.6646   -2.3775    8.6320 O   0  5  0  0  0  0  0  0  0  0  0  0
   -6.3730   -1.3455   10.0673 O   0  0  0  0  0  0  0  0  0  0  0  0
   -4.0926   -1.9191    8.6229 C   0  0  0  0  0  0  0  0  0  0  0  0
    4.1418   -2.2461    5.4582 C   0  0  0  0  0  0  0  0  0  0  0  0
    3.9401   -2.3553    4.0786 C   0  0  0  0  0  0  0  0  0  0  0  0
    3.8582   -3.6178    3.4806 C   0  0  0  0  0  0  0  0  0  0  0  0
    3.9732   -4.7441    4.2779 C   0  0  0  0  0  0  0  0  0  0  0  0
    4.2071   -4.6892    5.6024 N   0  0  0  0  0  0  0  0  0  0  0  0
    4.3022   -3.4549    6.1514 C   0  0  0  0  0  0  0  0  0  0  0  0
    5.2096    0.9314    4.7557 C   0  0  0  0  0  0  0  0  0  0  0  0
    5.0982    2.0222    4.1858 O   0  0  0  0  0  0  0  0  0  0  0  0
    6.5368    0.3058    4.7437 C   0  0  0  0  0  0  0  0  0  0  0  0
    7.6402    0.8965    4.1526 C   0  0  0  0  0  0  0  0  0  0  0  0
    8.7181    0.0878    4.3239 O   0  0  0  0  0  0  0  0  0  0  0  0
    8.2167   -0.9671    5.0195 C   0  0  0  0  0  0  0  0  0  0  0  0
    6.9332   -0.8952    5.2991 N   0  0  0  0  0  0  0  0  0  0  0  0
    2.6563    1.7067    6.8466 C   0  0  0  0  0  0  0  0  0  0  0  0
    1.5205    2.4943    7.0436 C   0  0  0  0  0  0  0  0  0  0  0  0
   -2.0001    5.0435    5.2274 H   0  0  0  0  0  0  0  0  0  0  0  0
   -1.4935    3.6473    4.2808 H   0  0  0  0  0  0  0  0  0  0  0  0
   -0.4131    5.0451    4.4510 H   0  0  0  0  0  0  0  0  0  0  0  0
   -1.0259    5.5896    7.4067 H   0  0  0  0  0  0  0  0  0  0  0  0
    0.6074    5.6176    6.7195 H   0  0  0  0  0  0  0  0  0  0  0  0
    0.2478    4.6410    8.1477 H   0  0  0  0  0  0  0  0  0  0  0  0
   -2.4736    3.5787    7.2170 H   0  0  0  0  0  0  0  0  0  0  0  0
   -1.2526    2.4827    7.8648 H   0  0  0  0  0  0  0  0  0  0  0  0
   -1.9839    2.1557    6.2886 H   0  0  0  0  0  0  0  0  0  0  0  0
    0.5786    2.8324    3.8011 H   0  0  0  0  0  0  0  0  0  0  0  0
    2.4964    1.3681    3.4832 H   0  0  0  0  0  0  0  0  0  0  0  0
    5.1470   -0.8988    6.7558 H   0  0  0  0  0  0  0  0  0  0  0  0
    1.5677   -1.4904    6.1800 H   0  0  0  0  0  0  0  0  0  0  0  0
    0.6648   -0.3340    8.5414 H   0  0  0  0  0  0  0  0  0  0  0  0
    0.9963   -2.0490    8.9356 H   0  0  0  0  0  0  0  0  0  0  0  0
   -1.6175   -1.3485    9.1507 H   0  0  0  0  0  0  0  0  0  0  0  0
   -2.3537   -3.2470    6.0103 H   0  0  0  0  0  0  0  0  0  0  0  0
   -4.5784   -3.9298    5.3319 H   0  0  0  0  0  0  0  0  0  0  0  0
   -6.5534   -3.3660    6.7004 H   0  0  0  0  0  0  0  0  0  0  0  0
   -3.9714   -1.3579    9.5462 H   0  0  0  0  0  0  0  0  0  0  0  0
    3.8434   -1.4757    3.4496 H   0  0  0  0  0  0  0  0  0  0  0  0
    3.6995   -3.7246    2.4124 H   0  0  0  0  0  0  0  0  0  0  0  0
    3.8797   -5.7443    3.8627 H   0  0  0  0  0  0  0  0  0  0  0  0
    4.5057   -3.4726    7.2210 H   0  0  0  0  0  0  0  0  0  0  0  0
    7.8052    1.8226    3.6194 H   0  0  0  0  0  0  0  0  0  0  0  0
    8.9188   -1.7490    5.2722 H   0  0  0  0  0  0  0  0  0  0  0  0
    3.2991    1.5169    7.7013 H   0  0  0  0  0  0  0  0  0  0  0  0
    1.2933    2.7870    8.0653 H   0  0  0  0  0  0  0  0  0  0  0  0
  1  2  1  0  0  0  0
  1 42  1  0  0  0  0
  1 43  1  0  0  0  0
  1 44  1  0  0  0  0
  2  3  1  0  0  0  0
  2  4  1  0  0  0  0
  2  5  1  0  0  0  0
  3 45  1  0  0  0  0
  3 46  1  0  0  0  0
  3 47  1  0  0  0  0
  4 48  1  0  0  0  0
  4 49  1  0  0  0  0
  4 50  1  0  0  0  0
  5  6  1  0  0  0  0
  5 41  2  0  0  0  0
  6  7  2  0  0  0  0
  6 51  1  0  0  0  0
  7  8  1  0  0  0  0
  7 52  1  0  0  0  0
  8  9  1  0  0  0  0
  8 40  2  0  0  0  0
  9 10  1  0  0  0  0
  9 33  1  0  0  0  0
 10 11  1  0  0  0  0
 10 27  1  0  0  0  0
 10 53  1  0  0  0  0
 11 12  2  0  0  0  0
 11 13  1  0  0  0  0
 13 14  1  0  0  0  0
 13 54  1  0  0  0  0
 14 15  1  0  0  0  0
 14 55  1  0  0  0  0
 14 56  1  0  0  0  0
 15 16  2  0  0  0  0
 15 17  1  0  0  0  0
 17 18  1  0  0  0  0
 17 57  1  0  0  0  0
 18 19  1  0  0  0  0
 18 26  2  0  0  0  0
 19 20  2  0  0  0  0
 19 58  1  0  0  0  0
 20 21  1  0  0  0  0
 20 59  1  0  0  0  0
 21 22  2  0  0  0  0
 21 60  1  0  0  0  0
 22 23  1  0  0  0  0
 22 26  1  0  0  0  0
 23 24  1  0  0  0  0
 23 25  2  0  0  0  0
 26 61  1  0  0  0  0
 27 28  1  0  0  0  0
 27 32  2  0  0  0  0
 28 29  2  0  0  0  0
 28 62  1  0  0  0  0
 29 30  1  0  0  0  0
 29 63  1  0  0  0  0
 30 31  2  0  0  0  0
 30 64  1  0  0  0  0
 31 32  1  0  0  0  0
 32 65  1  0  0  0  0
 33 34  2  0  0  0  0
 33 35  1  0  0  0  0
 35 36  2  0  0  0  0
 35 39  1  0  0  0  0
 36 37  1  0  0  0  0
 36 66  1  0  0  0  0
 37 38  1  0  0  0  0
 38 39  2  0  0  0  0
 38 67  1  0  0  0  0
 40 41  1  0  0  0  0
 40 68  1  0  0  0  0
 41 69  1  0  0  0  0
M  CHG  2  23   1  24  -1
M  END
$$$$
