
 OpenBabel07202414143D

 54 58  0  0  1  0  0  0  0  0999 V2000
    3.5427    4.4796   -0.5510 C   0  0  0  0  0  0  0  0  0  0  0  0
    4.2393    3.3706    0.0449 N   0  0  0  0  0  0  0  0  0  0  0  0
    3.7091    2.1014   -0.0032 C   0  0  0  0  0  0  0  0  0  0  0  0
    2.6586    1.8508   -0.5918 O   0  0  0  0  0  0  0  0  0  0  0  0
    4.5273    1.0037    0.6830 C   0  0  0  0  0  0  0  0  0  0  0  0
    5.2436    1.4623    1.9000 N   0  0  0  0  0  0  0  0  0  0  0  0
    4.3310    1.9253    2.9581 C   0  0  0  0  0  0  0  0  0  0  0  0
    3.5750    0.8332    3.6811 C   0  0  0  0  0  0  0  0  0  0  0  0
    2.4028    1.1885    4.3777 C   0  0  0  0  0  0  0  0  0  0  0  0
    1.7160    0.2495    5.1416 C   0  0  0  0  0  0  0  0  0  0  0  0
    2.1851   -1.0568    5.2017 C   0  0  0  0  0  0  0  0  0  0  0  0
    1.3726   -2.2061    6.1928 Cl  0  0  0  0  0  0  0  0  0  0  0  0
    3.3345   -1.4329    4.5020 C   0  0  0  0  0  0  0  0  0  0  0  0
    4.0672   -0.4876    3.7555 C   0  0  0  0  0  0  0  0  0  0  0  0
    5.4084   -0.8493    3.1104 C   0  0  1  0  0  0  0  0  0  0  0  0
    6.3569   -1.4291    4.1852 C   0  0  0  0  0  0  0  0  0  0  0  0
    6.9053   -2.7276    3.6450 C   0  0  0  0  0  0  0  0  0  0  0  0
    6.3717   -2.9128    2.3201 N   0  0  0  0  0  0  0  0  0  0  0  0
    6.5136   -4.2073    1.6926 C   0  0  0  0  0  0  0  0  0  0  0  0
    5.4234   -4.8198    1.0647 C   0  0  0  0  0  0  0  0  0  0  0  0
    5.3568   -6.1352    0.7430 N   0  0  0  0  0  0  0  0  0  0  0  0
    6.4421   -6.8821    1.0248 C   0  0  0  0  0  0  0  0  0  0  0  0
    7.6424   -6.3741    1.5132 C   0  0  0  0  0  0  0  0  0  0  0  0
    8.7615   -7.2147    1.6832 C   0  0  0  0  0  0  0  0  0  0  0  0
    9.9794   -6.6974    2.1083 C   0  0  0  0  0  0  0  0  0  0  0  0
   10.1021   -5.3397    2.3511 C   0  0  0  0  0  0  0  0  0  0  0  0
    8.9925   -4.5026    2.1745 C   0  0  0  0  0  0  0  0  0  0  0  0
    7.7077   -4.9930    1.8152 C   0  0  0  0  0  0  0  0  0  0  0  0
    5.3391   -1.9898    2.0707 C   0  0  0  0  0  0  0  0  0  0  0  0
    4.5500   -2.0340    1.1363 O   0  0  0  0  0  0  0  0  0  0  0  0
    6.1054    0.3920    2.4529 C   0  0  0  0  0  0  0  0  0  0  0  0
    3.9518    5.4128   -0.1596 H   0  0  0  0  0  0  0  0  0  0  0  0
    2.4752    4.4181   -0.3154 H   0  0  0  0  0  0  0  0  0  0  0  0
    3.6713    4.4363   -1.6355 H   0  0  0  0  0  0  0  0  0  0  0  0
    5.1644    3.4813    0.4447 H   0  0  0  0  0  0  0  0  0  0  0  0
    5.2574    0.6532   -0.0569 H   0  0  0  0  0  0  0  0  0  0  0  0
    3.8272    0.1974    0.9071 H   0  0  0  0  0  0  0  0  0  0  0  0
    3.6274    2.6682    2.5667 H   0  0  0  0  0  0  0  0  0  0  0  0
    4.9254    2.4602    3.7122 H   0  0  0  0  0  0  0  0  0  0  0  0
    2.0328    2.2114    4.3397 H   0  0  0  0  0  0  0  0  0  0  0  0
    0.8273    0.5467    5.6917 H   0  0  0  0  0  0  0  0  0  0  0  0
    3.6770   -2.4624    4.5790 H   0  0  0  0  0  0  0  0  0  0  0  0
    5.8760   -1.6157    5.1521 H   0  0  0  0  0  0  0  0  0  0  0  0
    7.1889   -0.7548    4.4173 H   0  0  0  0  0  0  0  0  0  0  0  0
    6.5816   -3.5668    4.2727 H   0  0  0  0  0  0  0  0  0  0  0  0
    7.9906   -2.6720    3.6529 H   0  0  0  0  0  0  0  0  0  0  0  0
    4.5018   -4.2923    0.8426 H   0  0  0  0  0  0  0  0  0  0  0  0
    6.3233   -7.9437    0.8145 H   0  0  0  0  0  0  0  0  0  0  0  0
    8.6940   -8.2741    1.4567 H   0  0  0  0  0  0  0  0  0  0  0  0
   10.8400   -7.3524    2.2286 H   0  0  0  0  0  0  0  0  0  0  0  0
   11.0586   -4.9179    2.6435 H   0  0  0  0  0  0  0  0  0  0  0  0
    9.1654   -3.4356    2.2711 H   0  0  0  0  0  0  0  0  0  0  0  0
    6.8272    0.0726    1.6900 H   0  0  0  0  0  0  0  0  0  0  0  0
    6.7189    0.8946    3.2148 H   0  0  0  0  0  0  0  0  0  0  0  0
  1  2  1  0  0  0  0
  1 32  1  0  0  0  0
  1 33  1  0  0  0  0
  1 34  1  0  0  0  0
  2  3  1  0  0  0  0
  2 35  1  0  0  0  0
  3  4  2  0  0  0  0
  3  5  1  0  0  0  0
  5  6  1  0  0  0  0
  5 36  1  0  0  0  0
  5 37  1  0  0  0  0
  6  7  1  0  0  0  0
  6 31  1  0  0  0  0
  7  8  1  0  0  0  0
  7 38  1  0  0  0  0
  7 39  1  0  0  0  0
  8  9  1  0  0  0  0
  8 14  2  0  0  0  0
  9 10  2  0  0  0  0
  9 40  1  0  0  0  0
 10 11  1  0  0  0  0
 10 41  1  0  0  0  0
 11 12  1  0  0  0  0
 11 13  2  0  0  0  0
 13 14  1  0  0  0  0
 13 42  1  0  0  0  0
 15 14  1  1  0  0  0
 15 16  1  0  0  0  0
 15 29  1  0  0  0  0
 15 31  1  0  0  0  0
 16 17  1  0  0  0  0
 16 43  1  0  0  0  0
 16 44  1  0  0  0  0
 17 18  1  0  0  0  0
 17 45  1  0  0  0  0
 17 46  1  0  0  0  0
 18 19  1  0  0  0  0
 18 29  1  0  0  0  0
 19 20  1  0  0  0  0
 19 28  2  0  0  0  0
 20 21  2  0  0  0  0
 20 47  1  0  0  0  0
 21 22  1  0  0  0  0
 22 23  2  0  0  0  0
 22 48  1  0  0  0  0
 23 24  1  0  0  0  0
 23 28  1  0  0  0  0
 24 25  2  0  0  0  0
 24 49  1  0  0  0  0
 25 26  1  0  0  0  0
 25 50  1  0  0  0  0
 26 27  2  0  0  0  0
 26 51  1  0  0  0  0
 27 28  1  0  0  0  0
 27 52  1  0  0  0  0
 29 30  2  0  0  0  0
 31 53  1  0  0  0  0
 31 54  1  0  0  0  0
M  END
$$$$
