
 OpenBabel07202414153D

 43 46  0  0  1  0  0  0  0  0999 V2000
    5.1093   -0.7423    0.8473 C   0  0  0  0  0  0  0  0  0  0  0  0
    4.1956    0.3211    1.1001 O   0  0  0  0  0  0  0  0  0  0  0  0
    2.7855    0.0105    0.9602 C   0  0  1  0  0  0  0  0  0  0  0  0
    2.4325   -0.2002   -0.5658 C   0  0  0  0  0  0  0  0  0  0  0  0
    1.5407   -0.9514   -0.9401 O   0  0  0  0  0  0  0  0  0  0  0  0
    3.2591    0.5539   -1.3897 N   0  0  0  0  0  0  0  0  0  0  0  0
    3.4330    0.4644   -2.7943 C   0  0  0  0  0  0  0  0  0  0  0  0
    2.7381   -0.4495   -3.5842 C   0  0  0  0  0  0  0  0  0  0  0  0
    2.9939   -0.6785   -4.8959 N   0  0  0  0  0  0  0  0  0  0  0  0
    3.9619    0.0710   -5.4611 C   0  0  0  0  0  0  0  0  0  0  0  0
    4.6634    1.0827   -4.8083 C   0  0  0  0  0  0  0  0  0  0  0  0
    5.5965    1.8792   -5.4998 C   0  0  0  0  0  0  0  0  0  0  0  0
    6.2694    2.9121   -4.8533 C   0  0  0  0  0  0  0  0  0  0  0  0
    6.0381    3.1407   -3.5041 C   0  0  0  0  0  0  0  0  0  0  0  0
    5.1274    2.3418   -2.8035 C   0  0  0  0  0  0  0  0  0  0  0  0
    4.4030    1.2946   -3.4336 C   0  0  0  0  0  0  0  0  0  0  0  0
    2.4196   -1.2309    1.7918 C   0  0  0  0  0  0  0  0  0  0  0  0
    0.9477   -1.2367    2.1555 C   0  0  0  0  0  0  0  0  0  0  0  0
    0.6064   -0.1133    2.9640 O   0  0  0  0  0  0  0  0  0  0  0  0
    1.0535    1.0893    2.4940 C   0  0  0  0  0  0  0  0  0  0  0  0
    0.4793    2.2098    3.1040 C   0  0  0  0  0  0  0  0  0  0  0  0
    0.8817    3.4965    2.7454 C   0  0  0  0  0  0  0  0  0  0  0  0
    0.1619    4.8316    3.5711 Cl  0  0  0  0  0  0  0  0  0  0  0  0
    1.8546    3.6617    1.7603 C   0  0  0  0  0  0  0  0  0  0  0  0
    2.4221    5.2158    1.2616 Cl  0  0  0  0  0  0  0  0  0  0  0  0
    2.4312    2.5373    1.1573 C   0  0  0  0  0  0  0  0  0  0  0  0
    2.0571    1.2303    1.5275 C   0  0  0  0  0  0  0  0  0  0  0  0
    6.1188   -0.3538    1.0092 H   0  0  0  0  0  0  0  0  0  0  0  0
    5.0400   -1.0880   -0.1869 H   0  0  0  0  0  0  0  0  0  0  0  0
    4.9622   -1.5780    1.5353 H   0  0  0  0  0  0  0  0  0  0  0  0
    3.9557    1.0928   -0.8869 H   0  0  0  0  0  0  0  0  0  0  0  0
    1.9387   -1.0685   -3.1918 H   0  0  0  0  0  0  0  0  0  0  0  0
    4.1591   -0.1689   -6.5038 H   0  0  0  0  0  0  0  0  0  0  0  0
    5.7865    1.7109   -6.5587 H   0  0  0  0  0  0  0  0  0  0  0  0
    6.9632    3.5432   -5.4035 H   0  0  0  0  0  0  0  0  0  0  0  0
    6.5540    3.9510   -2.9940 H   0  0  0  0  0  0  0  0  0  0  0  0
    4.9731    2.5855   -1.7566 H   0  0  0  0  0  0  0  0  0  0  0  0
    3.0054   -1.2323    2.7214 H   0  0  0  0  0  0  0  0  0  0  0  0
    2.6707   -2.1533    1.2550 H   0  0  0  0  0  0  0  0  0  0  0  0
    0.7334   -2.1291    2.7542 H   0  0  0  0  0  0  0  0  0  0  0  0
    0.2873   -1.2722    1.2830 H   0  0  0  0  0  0  0  0  0  0  0  0
   -0.2749    2.0681    3.8750 H   0  0  0  0  0  0  0  0  0  0  0  0
    3.2134    2.6947    0.4201 H   0  0  0  0  0  0  0  0  0  0  0  0
  1  2  1  0  0  0  0
  1 28  1  0  0  0  0
  1 29  1  0  0  0  0
  1 30  1  0  0  0  0
  3 17  1  0  0  0  0
  3 27  1  0  0  0  0
  3  4  1  6  0  0  0
  3  2  1  0  0  0  0
  4  5  2  0  0  0  0
  4  6  1  0  0  0  0
  6  7  1  0  0  0  0
  6 31  1  0  0  0  0
  7  8  1  0  0  0  0
  7 16  2  0  0  0  0
  8  9  2  0  0  0  0
  8 32  1  0  0  0  0
  9 10  1  0  0  0  0
 10 11  2  0  0  0  0
 10 33  1  0  0  0  0
 11 12  1  0  0  0  0
 11 16  1  0  0  0  0
 12 13  2  0  0  0  0
 12 34  1  0  0  0  0
 13 14  1  0  0  0  0
 13 35  1  0  0  0  0
 14 15  2  0  0  0  0
 14 36  1  0  0  0  0
 15 16  1  0  0  0  0
 15 37  1  0  0  0  0
 17 18  1  0  0  0  0
 17 38  1  0  0  0  0
 17 39  1  0  0  0  0
 18 19  1  0  0  0  0
 18 40  1  0  0  0  0
 18 41  1  0  0  0  0
 19 20  1  0  0  0  0
 20 21  1  0  0  0  0
 20 27  2  0  0  0  0
 21 22  2  0  0  0  0
 21 42  1  0  0  0  0
 22 23  1  0  0  0  0
 22 24  1  0  0  0  0
 24 25  1  0  0  0  0
 24 26  2  0  0  0  0
 26 27  1  0  0  0  0
 26 43  1  0  0  0  0
M  END
$$$$
