
 OpenBabel07202414123D

 45 47  0  0  0  0  0  0  0  0999 V2000
    2.9774   -0.0659    1.2322 C   0  0  0  0  0  0  0  0  0  0  0  0
    2.4566   -0.7157   -0.0505 C   0  0  0  0  0  0  0  0  0  0  0  0
    0.9288   -0.7559   -0.0521 C   0  0  0  0  0  0  0  0  0  0  0  0
    2.9782    0.0106   -1.3108 C   0  0  0  0  0  0  0  0  0  0  0  0
    4.4446   -0.0088   -1.4199 N   0  0  0  0  0  0  0  0  0  0  0  0
    5.0611   -1.2362   -1.5373 C   0  0  0  0  0  0  0  0  0  0  0  0
    6.3889   -1.4421   -1.5403 C   0  0  0  0  0  0  0  0  0  0  0  0
    7.2508   -0.2263   -1.5135 C   0  0  0  0  0  0  0  0  0  0  0  0
    8.6515   -0.2579   -1.6142 C   0  0  0  0  0  0  0  0  0  0  0  0
    9.4065    0.9263   -1.6251 C   0  0  0  0  0  0  0  0  0  0  0  0
    8.7839    2.1692   -1.5307 C   0  0  0  0  0  0  0  0  0  0  0  0
    7.4041    2.2363   -1.4184 C   0  0  0  0  0  0  0  0  0  0  0  0
    6.6440    1.0473   -1.4187 C   0  0  0  0  0  0  0  0  0  0  0  0
    5.1640    1.1738   -1.3261 C   0  0  0  0  0  0  0  0  0  0  0  0
    4.6492    2.2785   -1.1743 O   0  0  0  0  0  0  0  0  0  0  0  0
    6.9361   -2.7236   -1.5234 N   0  0  0  0  0  0  0  0  0  0  0  0
    6.2342   -3.9176   -1.6397 C   0  0  0  0  0  0  0  0  0  0  0  0
    5.0442   -4.0125   -1.9198 O   0  0  0  0  0  0  0  0  0  0  0  0
    7.0135   -5.0311   -1.3632 N   0  0  0  0  0  0  0  0  0  0  0  0
    6.4515   -6.3285   -1.4984 C   0  0  0  0  0  0  0  0  0  0  0  0
    6.6742   -7.2871   -0.5128 C   0  0  0  0  0  0  0  0  0  0  0  0
    6.0593   -8.5360   -0.6213 C   0  0  0  0  0  0  0  0  0  0  0  0
    5.2836   -8.8022   -1.7380 C   0  0  0  0  0  0  0  0  0  0  0  0
    5.0732   -7.9131   -2.7275 N   0  0  0  0  0  0  0  0  0  0  0  0
    5.6456   -6.6905   -2.5756 C   0  0  0  0  0  0  0  0  0  0  0  0
    2.6117   -0.6065    2.1120 H   0  0  0  0  0  0  0  0  0  0  0  0
    2.6517    0.9755    1.3091 H   0  0  0  0  0  0  0  0  0  0  0  0
    4.0707   -0.0872    1.2714 H   0  0  0  0  0  0  0  0  0  0  0  0
    2.8017   -1.7571   -0.0546 H   0  0  0  0  0  0  0  0  0  0  0  0
    0.5037    0.2522   -0.0669 H   0  0  0  0  0  0  0  0  0  0  0  0
    0.5554   -1.2719    0.8388 H   0  0  0  0  0  0  0  0  0  0  0  0
    0.5587   -1.2975   -0.9289 H   0  0  0  0  0  0  0  0  0  0  0  0
    2.6131    1.0442   -1.3229 H   0  0  0  0  0  0  0  0  0  0  0  0
    2.5807   -0.4712   -2.2141 H   0  0  0  0  0  0  0  0  0  0  0  0
    4.3555   -2.0535   -1.5800 H   0  0  0  0  0  0  0  0  0  0  0  0
    9.1949   -1.1909   -1.7029 H   0  0  0  0  0  0  0  0  0  0  0  0
   10.4896    0.8799   -1.7175 H   0  0  0  0  0  0  0  0  0  0  0  0
    9.3694    3.0846   -1.5497 H   0  0  0  0  0  0  0  0  0  0  0  0
    6.9120    3.2008   -1.3523 H   0  0  0  0  0  0  0  0  0  0  0  0
    7.9395   -2.8086   -1.5101 H   0  0  0  0  0  0  0  0  0  0  0  0
    7.6913   -4.9085   -0.6250 H   0  0  0  0  0  0  0  0  0  0  0  0
    7.2606   -7.0599    0.3712 H   0  0  0  0  0  0  0  0  0  0  0  0
    6.1685   -9.2829    0.1572 H   0  0  0  0  0  0  0  0  0  0  0  0
    4.7881   -9.7615   -1.8661 H   0  0  0  0  0  0  0  0  0  0  0  0
    5.4313   -6.0001   -3.3855 H   0  0  0  0  0  0  0  0  0  0  0  0
  1  2  1  0  0  0  0
  1 26  1  0  0  0  0
  1 27  1  0  0  0  0
  1 28  1  0  0  0  0
  2  3  1  0  0  0  0
  2  4  1  0  0  0  0
  2 29  1  0  0  0  0
  3 30  1  0  0  0  0
  3 31  1  0  0  0  0
  3 32  1  0  0  0  0
  4  5  1  0  0  0  0
  4 33  1  0  0  0  0
  4 34  1  0  0  0  0
  5  6  1  0  0  0  0
  5 14  1  0  0  0  0
  6  7  2  0  0  0  0
  6 35  1  0  0  0  0
  7  8  1  0  0  0  0
  7 16  1  0  0  0  0
  8  9  1  0  0  0  0
  8 13  2  0  0  0  0
  9 10  2  0  0  0  0
  9 36  1  0  0  0  0
 10 11  1  0  0  0  0
 10 37  1  0  0  0  0
 11 12  2  0  0  0  0
 11 38  1  0  0  0  0
 12 13  1  0  0  0  0
 12 39  1  0  0  0  0
 13 14  1  0  0  0  0
 14 15  2  0  0  0  0
 16 17  1  0  0  0  0
 16 40  1  0  0  0  0
 17 18  2  0  0  0  0
 17 19  1  0  0  0  0
 19 20  1  0  0  0  0
 19 41  1  0  0  0  0
 20 21  1  0  0  0  0
 20 25  2  0  0  0  0
 21 22  2  0  0  0  0
 21 42  1  0  0  0  0
 22 23  1  0  0  0  0
 22 43  1  0  0  0  0
 23 24  2  0  0  0  0
 23 44  1  0  0  0  0
 24 25  1  0  0  0  0
 25 45  1  0  0  0  0
M  END
$$$$
