
 OpenBabel07202414133D

 70 74  0  0  0  0  0  0  0  0999 V2000
    0.5367   -0.9209   -0.2619 C   0  0  0  0  0  0  0  0  0  0  0  0
    1.8736   -0.3135   -0.2442 N   0  0  0  0  0  0  0  0  0  0  0  0
    2.8117   -1.0756    0.6008 C   0  0  0  0  0  0  0  0  0  0  0  0
    2.3485   -1.2571    2.0254 C   0  0  0  0  0  0  0  0  0  0  0  0
    2.0472   -2.5127    2.5861 C   0  0  0  0  0  0  0  0  0  0  0  0
    2.0763   -3.7228    1.8595 N   0  0  0  0  0  0  0  0  0  0  0  0
    1.5303   -4.9823    2.1973 C   0  0  0  0  0  0  0  0  0  0  0  0
    0.3617   -5.1078    2.9772 C   0  0  0  0  0  0  0  0  0  0  0  0
   -0.0620   -6.3320    3.4924 C   0  0  0  0  0  0  0  0  0  0  0  0
   -1.2922   -6.4840    4.3508 C   0  0  0  0  0  0  0  0  0  0  0  0
   -1.5829   -5.3888    5.3682 C   0  0  0  0  0  0  0  0  0  0  0  0
   -2.5424   -4.6325    5.2267 O   0  0  0  0  0  0  0  0  0  0  0  0
   -0.7245   -5.3592    6.4648 N   0  0  0  0  0  0  0  0  0  0  0  0
   -1.0172   -4.5245    7.5791 C   0  0  0  0  0  0  0  0  0  0  0  0
   -2.2575   -4.6184    8.2183 C   0  0  0  0  0  0  0  0  0  0  0  0
   -2.6444   -3.8430    9.2561 N   0  0  0  0  0  0  0  0  0  0  0  0
   -1.8423   -2.7970    9.5313 C   0  0  0  0  0  0  0  0  0  0  0  0
   -0.6604   -2.5177    8.8506 C   0  0  0  0  0  0  0  0  0  0  0  0
   -0.0497   -1.2567    8.9367 C   0  0  0  0  0  0  0  0  0  0  0  0
    1.1741   -1.0280    8.3227 C   0  0  0  0  0  0  0  0  0  0  0  0
    1.8522   -2.0928    7.7380 C   0  0  0  0  0  0  0  0  0  0  0  0
    1.1912   -3.3107    7.5342 C   0  0  0  0  0  0  0  0  0  0  0  0
   -0.1313   -3.5008    7.9920 C   0  0  0  0  0  0  0  0  0  0  0  0
    0.6549   -7.4872    3.1111 C   0  0  0  0  0  0  0  0  0  0  0  0
    1.7690   -7.3822    2.2797 C   0  0  0  0  0  0  0  0  0  0  0  0
    2.6195   -8.8159    1.8323 Cl  0  0  0  0  0  0  0  0  0  0  0  0
    2.2230   -6.1443    1.8364 C   0  0  0  0  0  0  0  0  0  0  0  0
    1.6969   -2.5267    3.9375 C   0  0  0  0  0  0  0  0  0  0  0  0
    1.4631   -1.3518    4.6388 C   0  0  0  0  0  0  0  0  0  0  0  0
    1.7640   -0.1230    4.0935 C   0  0  0  0  0  0  0  0  0  0  0  0
    2.2326   -0.0782    2.7967 C   0  0  0  0  0  0  0  0  0  0  0  0
    2.3924   -0.0923   -1.6154 C   0  0  0  0  0  0  0  0  0  0  0  0
    2.6413   -1.3981   -2.4005 C   0  0  0  0  0  0  0  0  0  0  0  0
    3.2634   -1.1473   -3.7667 C   0  0  0  0  0  0  0  0  0  0  0  0
    4.5438   -0.3360   -3.6342 C   0  0  0  0  0  0  0  0  0  0  0  0
    4.2559    1.0093   -2.9790 C   0  0  0  0  0  0  0  0  0  0  0  0
    3.6383    0.8246   -1.5960 C   0  0  0  0  0  0  0  0  0  0  0  0
    0.0705   -0.8951    0.7296 H   0  0  0  0  0  0  0  0  0  0  0  0
    0.5529   -1.9635   -0.5965 H   0  0  0  0  0  0  0  0  0  0  0  0
   -0.1380   -0.3562   -0.9151 H   0  0  0  0  0  0  0  0  0  0  0  0
    3.7662   -0.5445    0.6843 H   0  0  0  0  0  0  0  0  0  0  0  0
    3.0625   -2.0382    0.1589 H   0  0  0  0  0  0  0  0  0  0  0  0
    2.3635   -3.6659    0.8914 H   0  0  0  0  0  0  0  0  0  0  0  0
   -0.2248   -4.2129    3.1889 H   0  0  0  0  0  0  0  0  0  0  0  0
   -1.2396   -7.4215    4.9173 H   0  0  0  0  0  0  0  0  0  0  0  0
   -2.1640   -6.5641    3.6894 H   0  0  0  0  0  0  0  0  0  0  0  0
    0.2508   -5.5043    6.2318 H   0  0  0  0  0  0  0  0  0  0  0  0
   -2.9983   -5.3510    7.9092 H   0  0  0  0  0  0  0  0  0  0  0  0
   -2.1851   -2.1606   10.3439 H   0  0  0  0  0  0  0  0  0  0  0  0
   -0.5759   -0.4273    9.4068 H   0  0  0  0  0  0  0  0  0  0  0  0
    1.5829   -0.0221    8.2747 H   0  0  0  0  0  0  0  0  0  0  0  0
    2.8352   -1.9310    7.3004 H   0  0  0  0  0  0  0  0  0  0  0  0
    1.7028   -4.0767    6.9579 H   0  0  0  0  0  0  0  0  0  0  0  0
    0.3201   -8.4592    3.4388 H   0  0  0  0  0  0  0  0  0  0  0  0
    3.1326   -6.0773    1.2456 H   0  0  0  0  0  0  0  0  0  0  0  0
    1.5613   -3.4640    4.4630 H   0  0  0  0  0  0  0  0  0  0  0  0
    1.0092   -1.3981    5.6130 H   0  0  0  0  0  0  0  0  0  0  0  0
    1.6259    0.7787    4.6802 H   0  0  0  0  0  0  0  0  0  0  0  0
    2.4679    0.8886    2.3535 H   0  0  0  0  0  0  0  0  0  0  0  0
    1.6246    0.4749   -2.1620 H   0  0  0  0  0  0  0  0  0  0  0  0
    1.7020   -1.9453   -2.5377 H   0  0  0  0  0  0  0  0  0  0  0  0
    3.3174   -2.0629   -1.8537 H   0  0  0  0  0  0  0  0  0  0  0  0
    2.5477   -0.6214   -4.4073 H   0  0  0  0  0  0  0  0  0  0  0  0
    3.4808   -2.1110   -4.2434 H   0  0  0  0  0  0  0  0  0  0  0  0
    4.9910   -0.1836   -4.6213 H   0  0  0  0  0  0  0  0  0  0  0  0
    5.2735   -0.8923   -3.0313 H   0  0  0  0  0  0  0  0  0  0  0  0
    3.5793    1.5950   -3.6114 H   0  0  0  0  0  0  0  0  0  0  0  0
    5.1873    1.5797   -2.8864 H   0  0  0  0  0  0  0  0  0  0  0  0
    3.3713    1.8060   -1.1836 H   0  0  0  0  0  0  0  0  0  0  0  0
    4.4241    0.4186   -0.9517 H   0  0  0  0  0  0  0  0  0  0  0  0
  1  2  1  0  0  0  0
  1 38  1  0  0  0  0
  1 39  1  0  0  0  0
  1 40  1  0  0  0  0
  2  3  1  0  0  0  0
  2 32  1  0  0  0  0
  3  4  1  0  0  0  0
  3 41  1  0  0  0  0
  3 42  1  0  0  0  0
  4  5  2  0  0  0  0
  4 31  1  0  0  0  0
  5  6  1  0  0  0  0
  5 28  1  0  0  0  0
  6  7  1  0  0  0  0
  6 43  1  0  0  0  0
  7  8  2  0  0  0  0
  7 27  1  0  0  0  0
  8  9  1  0  0  0  0
  8 44  1  0  0  0  0
  9 10  1  0  0  0  0
  9 24  2  0  0  0  0
 10 11  1  0  0  0  0
 10 45  1  0  0  0  0
 10 46  1  0  0  0  0
 11 12  2  0  0  0  0
 11 13  1  0  0  0  0
 13 14  1  0  0  0  0
 13 47  1  0  0  0  0
 14 15  2  0  0  0  0
 14 23  1  0  0  0  0
 15 16  1  0  0  0  0
 15 48  1  0  0  0  0
 16 17  2  0  0  0  0
 17 18  1  0  0  0  0
 17 49  1  0  0  0  0
 18 19  2  0  0  0  0
 18 23  1  0  0  0  0
 19 20  1  0  0  0  0
 19 50  1  0  0  0  0
 20 21  2  0  0  0  0
 20 51  1  0  0  0  0
 21 22  1  0  0  0  0
 21 52  1  0  0  0  0
 22 23  2  0  0  0  0
 22 53  1  0  0  0  0
 24 25  1  0  0  0  0
 24 54  1  0  0  0  0
 25 26  1  0  0  0  0
 25 27  2  0  0  0  0
 27 55  1  0  0  0  0
 28 29  2  0  0  0  0
 28 56  1  0  0  0  0
 29 30  1  0  0  0  0
 29 57  1  0  0  0  0
 30 31  2  0  0  0  0
 30 58  1  0  0  0  0
 31 59  1  0  0  0  0
 32 33  1  0  0  0  0
 32 37  1  0  0  0  0
 32 60  1  0  0  0  0
 33 34  1  0  0  0  0
 33 61  1  0  0  0  0
 33 62  1  0  0  0  0
 34 35  1  0  0  0  0
 34 63  1  0  0  0  0
 34 64  1  0  0  0  0
 35 36  1  0  0  0  0
 35 65  1  0  0  0  0
 35 66  1  0  0  0  0
 36 37  1  0  0  0  0
 36 67  1  0  0  0  0
 36 68  1  0  0  0  0
 37 69  1  0  0  0  0
 37 70  1  0  0  0  0
M  END
$$$$
