
 OpenBabel07202414123D

 65 67  0  0  1  0  0  0  0  0999 V2000
    5.9778    9.1487   -0.0370 C   0  0  0  0  0  0  0  0  0  0  0  0
    6.8591    8.0999    0.6873 C   0  0  0  0  0  0  0  0  0  0  0  0
    7.6914    7.3589   -0.3775 C   0  0  0  0  0  0  0  0  0  0  0  0
    7.8261    8.9040    1.5867 C   0  0  0  0  0  0  0  0  0  0  0  0
    6.0259    7.0713    1.4791 C   0  0  0  0  0  0  0  0  0  0  0  0
    4.7032    6.7787    1.1322 C   0  0  0  0  0  0  0  0  0  0  0  0
    3.9252    5.8554    1.8562 C   0  0  0  0  0  0  0  0  0  0  0  0
    4.4278    5.1328    2.9457 C   0  0  0  0  0  0  0  0  0  0  0  0
    5.7724    5.3914    3.2648 C   0  0  0  0  0  0  0  0  0  0  0  0
    6.5487    6.3402    2.5553 C   0  0  0  0  0  0  0  0  0  0  0  0
    3.5887    4.1922    3.7098 N   0  0  0  0  0  0  0  0  0  0  0  0
    3.9878    3.9547    5.1408 C   0  0  3  0  0  0  0  0  0  0  0  0
    2.9551    4.3524    6.2106 C   0  0  0  0  0  0  0  0  0  0  0  0
    1.8058    5.1133    5.9328 C   0  0  0  0  0  0  0  0  0  0  0  0
    0.8954    5.3970    6.9462 C   0  0  0  0  0  0  0  0  0  0  0  0
    1.1875    4.9987    8.2362 C   0  0  0  0  0  0  0  0  0  0  0  0
    2.3163    4.3396    8.5676 N   0  0  0  0  0  0  0  0  0  0  0  0
    3.1688    4.0397    7.5583 C   0  0  0  0  0  0  0  0  0  0  0  0
   -0.2786    6.0392    6.6969 O   0  0  0  0  0  0  0  0  0  0  0  0
    4.6891    2.5711    5.3983 C   0  0  0  0  0  0  0  0  0  0  0  0
    5.4484    2.4253    6.3610 O   0  0  0  0  0  0  0  0  0  0  0  0
    4.3520    1.4830    4.6103 N   0  0  0  0  0  0  0  0  0  0  0  0
    4.9654    0.1823    4.8860 C   0  0  0  0  0  0  0  0  0  0  0  0
    4.4587   -0.9479    3.9834 C   0  0  0  0  0  0  0  0  0  0  0  0
    5.1048   -2.2793    4.3101 C   0  0  0  0  0  0  0  0  0  0  0  0
    6.3176   -2.6544    3.7079 C   0  0  0  0  0  0  0  0  0  0  0  0
    6.9273   -3.8764    4.0196 C   0  0  0  0  0  0  0  0  0  0  0  0
    6.3318   -4.7416    4.9398 C   0  0  0  0  0  0  0  0  0  0  0  0
    5.1341   -4.3702    5.5419 C   0  0  0  0  0  0  0  0  0  0  0  0
    4.5191   -3.1569    5.2375 C   0  0  0  0  0  0  0  0  0  0  0  0
    4.5556   -5.2030    6.4211 F   0  0  0  0  0  0  0  0  0  0  0  0
    2.4497    3.6236    3.1024 C   0  0  0  0  0  0  0  0  0  0  0  0
    2.1478    3.7670    1.9166 O   0  0  0  0  0  0  0  0  0  0  0  0
    1.5446    2.7448    3.9115 C   0  0  0  0  0  0  0  0  0  0  0  0
    0.3531    2.3760    3.4167 C   0  0  0  0  0  0  0  0  0  0  0  0
    6.5902    9.9055   -0.5418 H   0  0  0  0  0  0  0  0  0  0  0  0
    5.3228    9.6710    0.6705 H   0  0  0  0  0  0  0  0  0  0  0  0
    5.3492    8.6976   -0.8125 H   0  0  0  0  0  0  0  0  0  0  0  0
    8.2955    8.0593   -0.9670 H   0  0  0  0  0  0  0  0  0  0  0  0
    7.0503    6.8120   -1.0775 H   0  0  0  0  0  0  0  0  0  0  0  0
    8.3791    6.6368    0.0771 H   0  0  0  0  0  0  0  0  0  0  0  0
    8.3884    9.6392    0.9965 H   0  0  0  0  0  0  0  0  0  0  0  0
    8.5699    8.2681    2.0762 H   0  0  0  0  0  0  0  0  0  0  0  0
    7.2833    9.4531    2.3646 H   0  0  0  0  0  0  0  0  0  0  0  0
    4.2223    7.2618    0.2858 H   0  0  0  0  0  0  0  0  0  0  0  0
    2.8943    5.7635    1.5290 H   0  0  0  0  0  0  0  0  0  0  0  0
    6.2931    4.8523    4.0519 H   0  0  0  0  0  0  0  0  0  0  0  0
    7.5822    6.4778    2.8672 H   0  0  0  0  0  0  0  0  0  0  0  0
    4.7799    4.6758    5.3711 H   0  0  0  0  0  0  0  0  0  0  0  0
    1.6052    5.4714    4.9277 H   0  0  0  0  0  0  0  0  0  0  0  0
    0.5068    5.2053    9.0561 H   0  0  0  0  0  0  0  0  0  0  0  0
    4.0668    3.5316    7.9031 H   0  0  0  0  0  0  0  0  0  0  0  0
   -0.3859    6.1441    5.7367 H   0  0  0  0  0  0  0  0  0  0  0  0
    4.0220    1.6621    3.6694 H   0  0  0  0  0  0  0  0  0  0  0  0
    4.7699   -0.0617    5.9383 H   0  0  0  0  0  0  0  0  0  0  0  0
    6.0505    0.2995    4.7809 H   0  0  0  0  0  0  0  0  0  0  0  0
    4.6533   -0.7004    2.9316 H   0  0  0  0  0  0  0  0  0  0  0  0
    3.3682   -1.0401    4.0671 H   0  0  0  0  0  0  0  0  0  0  0  0
    6.8027   -1.9970    2.9887 H   0  0  0  0  0  0  0  0  0  0  0  0
    7.8662   -4.1558    3.5469 H   0  0  0  0  0  0  0  0  0  0  0  0
    6.7911   -5.6898    5.1896 H   0  0  0  0  0  0  0  0  0  0  0  0
    3.5837   -2.9076    5.7316 H   0  0  0  0  0  0  0  0  0  0  0  0
    1.8274    2.3962    4.8928 H   0  0  0  0  0  0  0  0  0  0  0  0
    0.0144    2.6954    2.4333 H   0  0  0  0  0  0  0  0  0  0  0  0
   -0.3180    1.7419    3.9866 H   0  0  0  0  0  0  0  0  0  0  0  0
  1  2  1  0  0  0  0
  1 36  1  0  0  0  0
  1 37  1  0  0  0  0
  1 38  1  0  0  0  0
  2  3  1  0  0  0  0
  2  4  1  0  0  0  0
  2  5  1  0  0  0  0
  3 39  1  0  0  0  0
  3 40  1  0  0  0  0
  3 41  1  0  0  0  0
  4 42  1  0  0  0  0
  4 43  1  0  0  0  0
  4 44  1  0  0  0  0
  5  6  1  0  0  0  0
  5 10  2  0  0  0  0
  6  7  2  0  0  0  0
  6 45  1  0  0  0  0
  7  8  1  0  0  0  0
  7 46  1  0  0  0  0
  8  9  2  0  0  0  0
  8 11  1  0  0  0  0
  9 10  1  0  0  0  0
  9 47  1  0  0  0  0
 10 48  1  0  0  0  0
 11 12  1  0  0  0  0
 11 32  1  0  0  0  0
 12 13  1  0  0  0  0
 12 20  1  0  0  0  0
 12 49  1  0  0  0  0
 13 14  1  0  0  0  0
 13 18  2  0  0  0  0
 14 15  2  0  0  0  0
 14 50  1  0  0  0  0
 15 16  1  0  0  0  0
 15 19  1  0  0  0  0
 16 17  2  0  0  0  0
 16 51  1  0  0  0  0
 17 18  1  0  0  0  0
 18 52  1  0  0  0  0
 19 53  1  0  0  0  0
 20 21  2  0  0  0  0
 20 22  1  0  0  0  0
 22 23  1  0  0  0  0
 22 54  1  0  0  0  0
 23 24  1  0  0  0  0
 23 55  1  0  0  0  0
 23 56  1  0  0  0  0
 24 25  1  0  0  0  0
 24 57  1  0  0  0  0
 24 58  1  0  0  0  0
 25 26  1  0  0  0  0
 25 30  2  0  0  0  0
 26 27  2  0  0  0  0
 26 59  1  0  0  0  0
 27 28  1  0  0  0  0
 27 60  1  0  0  0  0
 28 29  2  0  0  0  0
 28 61  1  0  0  0  0
 29 30  1  0  0  0  0
 29 31  1  0  0  0  0
 30 62  1  0  0  0  0
 32 33  2  0  0  0  0
 32 34  1  0  0  0  0
 34 35  2  0  0  0  0
 34 63  1  0  0  0  0
 35 64  1  0  0  0  0
 35 65  1  0  0  0  0
M  END
$$$$
