
 OpenBabel07202414193D

 39 42  0  0  1  0  0  0  0  0999 V2000
    0.8597    0.2614   -0.0519 O   0  0  0  0  0  0  0  0  0  0  0  0
    2.0658    0.0571    0.0467 C   0  0  0  0  0  0  0  0  0  0  0  0
    2.6207   -0.9686    0.7940 N   0  0  0  0  0  0  0  0  0  0  0  0
    1.9107   -2.0538    1.3736 C   0  0  0  0  0  0  0  0  0  0  0  0
    0.6116   -2.3855    0.9771 C   0  0  0  0  0  0  0  0  0  0  0  0
   -0.0974   -3.4340    1.4531 N   0  0  0  0  0  0  0  0  0  0  0  0
    0.5119   -4.1961    2.3813 C   0  0  0  0  0  0  0  0  0  0  0  0
    1.7992   -3.9743    2.8664 C   0  0  0  0  0  0  0  0  0  0  0  0
    2.3493   -4.8194    3.8457 C   0  0  0  0  0  0  0  0  0  0  0  0
    3.6233   -4.5854    4.3523 C   0  0  0  0  0  0  0  0  0  0  0  0
    4.3597   -3.5054    3.8844 C   0  0  0  0  0  0  0  0  0  0  0  0
    3.8265   -2.6650    2.9009 C   0  0  0  0  0  0  0  0  0  0  0  0
    2.5320   -2.8748    2.3576 C   0  0  0  0  0  0  0  0  0  0  0  0
    3.0976    0.9856   -0.6191 C   0  0  2  0  0  0  0  0  0  0  0  0
    2.3788    2.1206   -1.3524 C   0  0  0  0  0  0  0  0  0  0  0  0
    1.6837    1.6218   -2.6023 C   0  0  0  0  0  0  0  0  0  0  0  0
    0.6670    2.1489   -3.0481 O   0  0  0  0  0  0  0  0  0  0  0  0
    2.3215    0.6303   -3.3016 N   0  0  0  0  0  0  0  0  0  0  0  0
    3.4992    0.0060   -2.8857 C   0  0  0  0  0  0  0  0  0  0  0  0
    4.1821   -0.8361   -3.7602 C   0  0  0  0  0  0  0  0  0  0  0  0
    5.3739   -1.4348   -3.3507 C   0  0  0  0  0  0  0  0  0  0  0  0
    5.8855   -1.1795   -2.0780 C   0  0  0  0  0  0  0  0  0  0  0  0
    5.1929   -0.3475   -1.1977 C   0  0  0  0  0  0  0  0  0  0  0  0
    3.9770    0.2275   -1.5890 C   0  0  0  0  0  0  0  0  0  0  0  0
    3.6150   -0.9334    0.9591 H   0  0  0  0  0  0  0  0  0  0  0  0
    0.0790   -1.8322    0.2098 H   0  0  0  0  0  0  0  0  0  0  0  0
   -0.0962   -5.0208    2.7439 H   0  0  0  0  0  0  0  0  0  0  0  0
    1.7788   -5.6655    4.2266 H   0  0  0  0  0  0  0  0  0  0  0  0
    4.0339   -5.2391    5.1174 H   0  0  0  0  0  0  0  0  0  0  0  0
    5.3489   -3.3086    4.2906 H   0  0  0  0  0  0  0  0  0  0  0  0
    4.4391   -1.8257    2.5877 H   0  0  0  0  0  0  0  0  0  0  0  0
    3.7091    1.4291    0.1785 H   0  0  0  0  0  0  0  0  0  0  0  0
    3.0930    2.8927   -1.6643 H   0  0  0  0  0  0  0  0  0  0  0  0
    1.6349    2.5969   -0.7031 H   0  0  0  0  0  0  0  0  0  0  0  0
    1.9037    0.3938   -4.1929 H   0  0  0  0  0  0  0  0  0  0  0  0
    3.8041   -1.0287   -4.7604 H   0  0  0  0  0  0  0  0  0  0  0  0
    5.9073   -2.0983   -4.0273 H   0  0  0  0  0  0  0  0  0  0  0  0
    6.8190   -1.6441   -1.7684 H   0  0  0  0  0  0  0  0  0  0  0  0
    5.6018   -0.1716   -0.2061 H   0  0  0  0  0  0  0  0  0  0  0  0
  1  2  2  0  0  0  0
  2  3  1  0  0  0  0
  2 14  1  0  0  0  0
  3  4  1  0  0  0  0
  3 25  1  0  0  0  0
  4  5  1  0  0  0  0
  4 13  2  0  0  0  0
  5  6  2  0  0  0  0
  5 26  1  0  0  0  0
  6  7  1  0  0  0  0
  7  8  2  0  0  0  0
  7 27  1  0  0  0  0
  8  9  1  0  0  0  0
  8 13  1  0  0  0  0
  9 10  2  0  0  0  0
  9 28  1  0  0  0  0
 10 11  1  0  0  0  0
 10 29  1  0  0  0  0
 11 12  2  0  0  0  0
 11 30  1  0  0  0  0
 12 13  1  0  0  0  0
 12 31  1  0  0  0  0
 14 15  1  0  0  0  0
 14 24  1  0  0  0  0
 14 32  1  1  0  0  0
 15 16  1  0  0  0  0
 15 33  1  0  0  0  0
 15 34  1  0  0  0  0
 16 17  2  0  0  0  0
 16 18  1  0  0  0  0
 18 19  1  0  0  0  0
 18 35  1  0  0  0  0
 19 20  1  0  0  0  0
 19 24  2  0  0  0  0
 20 21  2  0  0  0  0
 20 36  1  0  0  0  0
 21 22  1  0  0  0  0
 21 37  1  0  0  0  0
 22 23  2  0  0  0  0
 22 38  1  0  0  0  0
 23 24  1  0  0  0  0
 23 39  1  0  0  0  0
M  END
$$$$
