
 OpenBabel07202414163D

 37 39  0  0  0  0  0  0  0  0999 V2000
    0.7955   -0.0888    0.0360 C   0  0  0  0  0  0  0  0  0  0  0  0
    2.2984   -0.0707    0.0371 C   0  0  0  0  0  0  0  0  0  0  0  0
    3.0087   -1.2832    0.0443 C   0  0  0  0  0  0  0  0  0  0  0  0
    4.4058   -1.2967    0.0190 C   0  0  0  0  0  0  0  0  0  0  0  0
    5.1561   -0.1659   -0.0126 N   0  0  0  0  0  0  0  0  0  0  0  0
    4.4567    0.9852   -0.0162 C   0  0  0  0  0  0  0  0  0  0  0  0
    3.0735    1.1118    0.0057 C   0  0  0  0  0  0  0  0  0  0  0  0
    2.8584    2.5114   -0.0123 C   0  0  0  0  0  0  0  0  0  0  0  0
    3.9847    3.2052   -0.1137 N   0  0  0  0  0  0  0  0  0  0  0  0
    4.9796    2.2672   -0.0861 N   0  0  0  0  0  0  0  0  0  0  0  0
    6.3245    2.6912   -0.1187 C   0  0  0  0  0  0  0  0  0  0  0  0
    6.6040    3.8097   -0.5462 O   0  0  0  0  0  0  0  0  0  0  0  0
    7.3431    1.7504    0.4837 C   0  0  0  0  0  0  0  0  0  0  0  0
    8.2995    1.1047   -0.4937 C   0  0  0  0  0  0  0  0  0  0  0  0
    9.1599    1.8854   -1.2800 C   0  0  0  0  0  0  0  0  0  0  0  0
   10.0928    1.2859   -2.1317 C   0  0  0  0  0  0  0  0  0  0  0  0
   10.1769   -0.1034   -2.2128 C   0  0  0  0  0  0  0  0  0  0  0  0
    9.3313   -0.8876   -1.4341 C   0  0  0  0  0  0  0  0  0  0  0  0
    8.4050   -0.2930   -0.5743 C   0  0  0  0  0  0  0  0  0  0  0  0
    9.4421   -2.6034   -1.5188 Cl  0  0  0  0  0  0  0  0  0  0  0  0
    1.6631    3.1101    0.0655 N   0  0  0  0  0  0  0  0  0  0  0  0
    5.1525   -2.6265    0.0303 C   0  0  0  0  0  0  0  0  0  0  0  0
    4.3321   -3.7166    0.0306 F   0  0  0  0  0  0  0  0  0  0  0  0
    5.9696   -2.7795   -1.0488 F   0  0  0  0  0  0  0  0  0  0  0  0
    5.9501   -2.7645    1.1284 F   0  0  0  0  0  0  0  0  0  0  0  0
    0.4046   -1.1115    0.0353 H   0  0  0  0  0  0  0  0  0  0  0  0
    0.4160    0.4120   -0.8597 H   0  0  0  0  0  0  0  0  0  0  0  0
    0.4095    0.4181    0.9268 H   0  0  0  0  0  0  0  0  0  0  0  0
    2.4648   -2.2278    0.0619 H   0  0  0  0  0  0  0  0  0  0  0  0
    6.8876    1.0153    1.1522 H   0  0  0  0  0  0  0  0  0  0  0  0
    7.9479    2.3639    1.1676 H   0  0  0  0  0  0  0  0  0  0  0  0
    9.1228    2.9730   -1.2238 H   0  0  0  0  0  0  0  0  0  0  0  0
   10.7604    1.9049   -2.7262 H   0  0  0  0  0  0  0  0  0  0  0  0
   10.9049   -0.5650   -2.8741 H   0  0  0  0  0  0  0  0  0  0  0  0
    7.7767   -0.9277    0.0445 H   0  0  0  0  0  0  0  0  0  0  0  0
    0.7798    2.6286   -0.0320 H   0  0  0  0  0  0  0  0  0  0  0  0
    1.6193    4.1170   -0.0567 H   0  0  0  0  0  0  0  0  0  0  0  0
  1  2  1  0  0  0  0
  1 26  1  0  0  0  0
  1 27  1  0  0  0  0
  1 28  1  0  0  0  0
  2  3  1  0  0  0  0
  2  7  2  0  0  0  0
  3  4  2  0  0  0  0
  3 29  1  0  0  0  0
  4  5  1  0  0  0  0
  4 22  1  0  0  0  0
  5  6  2  0  0  0  0
  6  7  1  0  0  0  0
  6 10  1  0  0  0  0
  7  8  1  0  0  0  0
  8  9  2  0  0  0  0
  8 21  1  0  0  0  0
  9 10  1  0  0  0  0
 10 11  1  0  0  0  0
 11 12  2  0  0  0  0
 11 13  1  0  0  0  0
 13 14  1  0  0  0  0
 13 30  1  0  0  0  0
 13 31  1  0  0  0  0
 14 15  1  0  0  0  0
 14 19  2  0  0  0  0
 15 16  2  0  0  0  0
 15 32  1  0  0  0  0
 16 17  1  0  0  0  0
 16 33  1  0  0  0  0
 17 18  2  0  0  0  0
 17 34  1  0  0  0  0
 18 19  1  0  0  0  0
 18 20  1  0  0  0  0
 19 35  1  0  0  0  0
 21 36  1  0  0  0  0
 21 37  1  0  0  0  0
 22 23  1  0  0  0  0
 22 24  1  0  0  0  0
 22 25  1  0  0  0  0
M  END
$$$$
