
 OpenBabel07202414143D

 57 60  0  0  0  0  0  0  0  0999 V2000
    1.2007    3.8427   -2.9486 C   0  0  0  0  0  0  0  0  0  0  0  0
    2.5242    3.6354   -3.4283 O   0  0  0  0  0  0  0  0  0  0  0  0
    3.4561    3.2349   -2.5094 C   0  0  0  0  0  0  0  0  0  0  0  0
    3.2336    3.0793   -1.1381 C   0  0  0  0  0  0  0  0  0  0  0  0
    4.2694    2.6708   -0.2970 C   0  0  0  0  0  0  0  0  0  0  0  0
    4.1711    2.4873    1.0564 O   0  0  0  0  0  0  0  0  0  0  0  0
    2.8857    2.6780    1.6383 C   0  0  0  0  0  0  0  0  0  0  0  0
    5.5360    2.4187   -0.8319 C   0  0  0  0  0  0  0  0  0  0  0  0
    5.7774    2.5563   -2.2049 C   0  0  0  0  0  0  0  0  0  0  0  0
    7.1503    2.3126   -2.7836 C   0  0  0  0  0  0  0  0  0  0  0  0
    7.1228    1.1929   -3.7289 N   0  0  0  0  0  0  0  0  0  0  0  0
    8.3098    0.8910   -4.4129 C   0  0  0  0  0  0  0  0  0  0  0  0
    8.5013   -0.4170   -4.9164 C   0  0  0  0  0  0  0  0  0  0  0  0
    9.6509   -0.7820   -5.6669 C   0  0  0  0  0  0  0  0  0  0  0  0
    9.7693   -2.2142   -6.1505 C   0  0  0  0  0  0  0  0  0  0  0  0
   11.0130   -2.5743   -6.9539 C   0  0  0  0  0  0  0  0  0  0  0  0
   11.9288   -3.2190   -6.4555 O   0  0  0  0  0  0  0  0  0  0  0  0
   10.9978   -2.0985   -8.2630 N   0  0  0  0  0  0  0  0  0  0  0  0
   12.1279   -2.3126   -9.1009 C   0  0  0  0  0  0  0  0  0  0  0  0
   12.6073   -3.6078   -9.3109 C   0  0  0  0  0  0  0  0  0  0  0  0
   13.6995   -3.9063  -10.0464 N   0  0  0  0  0  0  0  0  0  0  0  0
   14.4461   -2.8547  -10.4399 C   0  0  0  0  0  0  0  0  0  0  0  0
   14.1350   -1.5204  -10.1688 C   0  0  0  0  0  0  0  0  0  0  0  0
   15.0742   -0.4936  -10.3618 C   0  0  0  0  0  0  0  0  0  0  0  0
   14.7299    0.8340  -10.1178 C   0  0  0  0  0  0  0  0  0  0  0  0
   13.4199    1.1544   -9.7856 C   0  0  0  0  0  0  0  0  0  0  0  0
   12.4943    0.1375   -9.5398 C   0  0  0  0  0  0  0  0  0  0  0  0
   12.8693   -1.2263   -9.6218 C   0  0  0  0  0  0  0  0  0  0  0  0
   10.6055    0.2046   -5.9256 C   0  0  0  0  0  0  0  0  0  0  0  0
   10.3813    1.5152   -5.5057 C   0  0  0  0  0  0  0  0  0  0  0  0
   11.5229    2.7390   -5.9194 Cl  0  0  0  0  0  0  0  0  0  0  0  0
    9.2442    1.8530   -4.7794 C   0  0  0  0  0  0  0  0  0  0  0  0
    4.7250    2.9753   -3.0329 C   0  0  0  0  0  0  0  0  0  0  0  0
    0.5714    4.1122   -3.8027 H   0  0  0  0  0  0  0  0  0  0  0  0
    1.1667    4.6724   -2.2351 H   0  0  0  0  0  0  0  0  0  0  0  0
    0.7908    2.9269   -2.5101 H   0  0  0  0  0  0  0  0  0  0  0  0
    2.2539    3.2836   -0.7272 H   0  0  0  0  0  0  0  0  0  0  0  0
    2.9551    2.4241    2.7003 H   0  0  0  0  0  0  0  0  0  0  0  0
    2.1419    2.0115    1.1880 H   0  0  0  0  0  0  0  0  0  0  0  0
    2.5755    3.7255    1.5639 H   0  0  0  0  0  0  0  0  0  0  0  0
    6.3401    2.1220   -0.1603 H   0  0  0  0  0  0  0  0  0  0  0  0
    7.8667    2.0970   -1.9806 H   0  0  0  0  0  0  0  0  0  0  0  0
    7.4585    3.2477   -3.2637 H   0  0  0  0  0  0  0  0  0  0  0  0
    6.6877    0.3710   -3.3127 H   0  0  0  0  0  0  0  0  0  0  0  0
    7.7406   -1.1700   -4.7172 H   0  0  0  0  0  0  0  0  0  0  0  0
    8.9010   -2.4608   -6.7706 H   0  0  0  0  0  0  0  0  0  0  0  0
    9.7525   -2.8810   -5.2806 H   0  0  0  0  0  0  0  0  0  0  0  0
   10.5006   -1.2254   -8.3851 H   0  0  0  0  0  0  0  0  0  0  0  0
   12.1059   -4.4704   -8.8800 H   0  0  0  0  0  0  0  0  0  0  0  0
   15.3432   -3.1215  -10.9927 H   0  0  0  0  0  0  0  0  0  0  0  0
   16.1000   -0.7340  -10.6315 H   0  0  0  0  0  0  0  0  0  0  0  0
   15.4831    1.6140  -10.1906 H   0  0  0  0  0  0  0  0  0  0  0  0
   13.1269    2.1951   -9.6730 H   0  0  0  0  0  0  0  0  0  0  0  0
   11.4863    0.4280   -9.2602 H   0  0  0  0  0  0  0  0  0  0  0  0
   11.5217   -0.0226   -6.4554 H   0  0  0  0  0  0  0  0  0  0  0  0
    9.1084    2.8947   -4.5024 H   0  0  0  0  0  0  0  0  0  0  0  0
    4.8978    3.1051   -4.1001 H   0  0  0  0  0  0  0  0  0  0  0  0
  1  2  1  0  0  0  0
  1 34  1  0  0  0  0
  1 35  1  0  0  0  0
  1 36  1  0  0  0  0
  2  3  1  0  0  0  0
  3  4  2  0  0  0  0
  3 33  1  0  0  0  0
  4  5  1  0  0  0  0
  4 37  1  0  0  0  0
  5  6  1  0  0  0  0
  5  8  2  0  0  0  0
  6  7  1  0  0  0  0
  7 38  1  0  0  0  0
  7 39  1  0  0  0  0
  7 40  1  0  0  0  0
  8  9  1  0  0  0  0
  8 41  1  0  0  0  0
  9 10  1  0  0  0  0
  9 33  2  0  0  0  0
 10 11  1  0  0  0  0
 10 42  1  0  0  0  0
 10 43  1  0  0  0  0
 11 12  1  0  0  0  0
 11 44  1  0  0  0  0
 12 13  2  0  0  0  0
 12 32  1  0  0  0  0
 13 14  1  0  0  0  0
 13 45  1  0  0  0  0
 14 15  1  0  0  0  0
 14 29  2  0  0  0  0
 15 16  1  0  0  0  0
 15 46  1  0  0  0  0
 15 47  1  0  0  0  0
 16 17  2  0  0  0  0
 16 18  1  0  0  0  0
 18 19  1  0  0  0  0
 18 48  1  0  0  0  0
 19 20  2  0  0  0  0
 19 28  1  0  0  0  0
 20 21  1  0  0  0  0
 20 49  1  0  0  0  0
 21 22  2  0  0  0  0
 22 23  1  0  0  0  0
 22 50  1  0  0  0  0
 23 24  2  0  0  0  0
 23 28  1  0  0  0  0
 24 25  1  0  0  0  0
 24 51  1  0  0  0  0
 25 26  2  0  0  0  0
 25 52  1  0  0  0  0
 26 27  1  0  0  0  0
 26 53  1  0  0  0  0
 27 28  2  0  0  0  0
 27 54  1  0  0  0  0
 29 30  1  0  0  0  0
 29 55  1  0  0  0  0
 30 31  1  0  0  0  0
 30 32  2  0  0  0  0
 32 56  1  0  0  0  0
 33 57  1  0  0  0  0
M  END
$$$$
