
 OpenBabel07202414173D

 46 50  0  0  1  0  0  0  0  0999 V2000
    1.9933   -0.1980   -1.9069 Cl  0  0  0  0  0  0  0  0  0  0  0  0
    3.4980   -0.1062   -1.0856 C   0  0  0  0  0  0  0  0  0  0  0  0
    4.3143    1.0017   -1.2030 C   0  0  0  0  0  0  0  0  0  0  0  0
    5.5886    0.9915   -0.6171 C   0  0  0  0  0  0  0  0  0  0  0  0
    6.0103   -0.1189    0.1339 C   0  0  0  0  0  0  0  0  0  0  0  0
    5.1428   -1.1478    0.4373 C   0  0  0  0  0  0  0  0  0  0  0  0
    3.9219   -1.1749   -0.3097 C   0  0  0  0  0  0  0  0  0  0  0  0
    5.5864   -2.3653    1.2782 C   0  0  3  0  0  0  0  0  0  0  0  0
    6.7645   -2.7486    0.3555 C   0  0  0  0  0  0  0  0  0  0  0  0
    7.8225   -1.5855    0.5258 C   0  0  0  0  0  0  0  0  0  0  0  0
    7.3338   -0.2276    0.4473 O   0  0  0  0  0  0  0  0  0  0  0  0
    6.2668   -2.6665    2.7272 C   0  0  0  0  0  0  0  0  0  0  0  0
    5.4262   -3.5775    3.6753 C   0  0  0  0  0  0  0  0  0  0  0  0
    4.0002   -3.0527    3.8804 C   0  0  0  0  0  0  0  0  0  0  0  0
    3.5339   -2.3492    2.6917 N   0  0  0  0  0  0  0  0  0  0  0  0
    3.4870   -0.8744    2.8791 C   0  0  0  0  0  0  0  0  0  0  0  0
    4.5209   -0.1350    3.4775 C   0  0  0  0  0  0  0  0  0  0  0  0
    4.5072    1.1566    3.8577 N   0  0  0  0  0  0  0  0  0  0  0  0
    3.3961    1.8393    3.5828 C   0  0  0  0  0  0  0  0  0  0  0  0
    2.3237    1.2922    2.8922 C   0  0  0  0  0  0  0  0  0  0  0  0
    1.2723    2.1382    2.5226 C   0  0  0  0  0  0  0  0  0  0  0  0
    0.1981    1.6327    1.8221 C   0  0  0  0  0  0  0  0  0  0  0  0
    0.1370    0.2703    1.5422 C   0  0  0  0  0  0  0  0  0  0  0  0
    1.1793   -0.5903    1.9194 C   0  0  0  0  0  0  0  0  0  0  0  0
    2.3352   -0.0991    2.5598 C   0  0  0  0  0  0  0  0  0  0  0  0
    4.2142   -3.0099    1.5750 C   0  0  0  0  0  0  0  0  0  0  0  0
    3.8416   -4.0809    1.0911 O   0  0  0  0  0  0  0  0  0  0  0  0
    4.0032    1.8605   -1.8137 H   0  0  0  0  0  0  0  0  0  0  0  0
    6.2698    1.8081   -0.8088 H   0  0  0  0  0  0  0  0  0  0  0  0
    3.2734   -2.0479   -0.3124 H   0  0  0  0  0  0  0  0  0  0  0  0
    6.4825   -2.8413   -0.6978 H   0  0  0  0  0  0  0  0  0  0  0  0
    7.2362   -3.7057    0.6159 H   0  0  0  0  0  0  0  0  0  0  0  0
    8.6311   -1.6942   -0.2075 H   0  0  0  0  0  0  0  0  0  0  0  0
    8.3110   -1.6479    1.5089 H   0  0  0  0  0  0  0  0  0  0  0  0
    6.6502   -1.7868    3.2343 H   0  0  0  0  0  0  0  0  0  0  0  0
    7.1850   -3.2613    2.6080 H   0  0  0  0  0  0  0  0  0  0  0  0
    5.9223   -3.7503    4.6347 H   0  0  0  0  0  0  0  0  0  0  0  0
    5.3657   -4.5760    3.2090 H   0  0  0  0  0  0  0  0  0  0  0  0
    3.9475   -2.4119    4.7654 H   0  0  0  0  0  0  0  0  0  0  0  0
    3.3115   -3.8893    4.0546 H   0  0  0  0  0  0  0  0  0  0  0  0
    5.4872   -0.5437    3.6884 H   0  0  0  0  0  0  0  0  0  0  0  0
    3.3943    2.8646    3.9374 H   0  0  0  0  0  0  0  0  0  0  0  0
    1.3134    3.2040    2.7540 H   0  0  0  0  0  0  0  0  0  0  0  0
   -0.5916    2.3043    1.4887 H   0  0  0  0  0  0  0  0  0  0  0  0
   -0.7231   -0.1236    1.0051 H   0  0  0  0  0  0  0  0  0  0  0  0
    1.0981   -1.6466    1.6702 H   0  0  0  0  0  0  0  0  0  0  0  0
  1  2  1  0  0  0  0
  2  3  1  0  0  0  0
  2  7  2  0  0  0  0
  3  4  2  0  0  0  0
  3 28  1  0  0  0  0
  4  5  1  0  0  0  0
  4 29  1  0  0  0  0
  5  6  2  0  0  0  0
  5 11  1  0  0  0  0
  6  7  1  0  0  0  0
  6  8  1  0  0  0  0
  7 30  1  0  0  0  0
  8  9  1  0  0  0  0
  8 12  1  0  0  0  0
  8 26  1  0  0  0  0
  9 10  1  0  0  0  0
  9 31  1  0  0  0  0
  9 32  1  0  0  0  0
 10 11  1  0  0  0  0
 10 33  1  0  0  0  0
 10 34  1  0  0  0  0
 12 13  1  0  0  0  0
 12 35  1  0  0  0  0
 12 36  1  0  0  0  0
 13 14  1  0  0  0  0
 13 37  1  0  0  0  0
 13 38  1  0  0  0  0
 14 15  1  0  0  0  0
 14 39  1  0  0  0  0
 14 40  1  0  0  0  0
 15 16  1  0  0  0  0
 15 26  1  0  0  0  0
 16 17  1  0  0  0  0
 16 25  2  0  0  0  0
 17 18  2  0  0  0  0
 17 41  1  0  0  0  0
 18 19  1  0  0  0  0
 19 20  2  0  0  0  0
 19 42  1  0  0  0  0
 20 21  1  0  0  0  0
 20 25  1  0  0  0  0
 21 22  2  0  0  0  0
 21 43  1  0  0  0  0
 22 23  1  0  0  0  0
 22 44  1  0  0  0  0
 23 24  2  0  0  0  0
 23 45  1  0  0  0  0
 24 25  1  0  0  0  0
 24 46  1  0  0  0  0
 26 27  2  0  0  0  0
M  END
$$$$
