
 OpenBabel07202414153D

 43 46  0  0  1  0  0  0  0  0999 V2000
    0.9501    0.4740    0.0469 C   0  0  0  0  0  0  0  0  0  0  0  0
    2.3352    0.1818   -0.1147 O   0  0  0  0  0  0  0  0  0  0  0  0
    2.7421   -0.3112   -1.4118 C   0  0  2  0  0  0  0  0  0  0  0  0
    2.6534    0.8359   -2.4850 C   0  0  0  0  0  0  0  0  0  0  0  0
    2.4559    0.6211   -3.6771 O   0  0  0  0  0  0  0  0  0  0  0  0
    2.8287    2.0904   -1.9105 N   0  0  0  0  0  0  0  0  0  0  0  0
    2.6474    3.3667   -2.4959 C   0  0  0  0  0  0  0  0  0  0  0  0
    2.1915    3.5402   -3.8008 C   0  0  0  0  0  0  0  0  0  0  0  0
    1.8604    4.7362   -4.3438 N   0  0  0  0  0  0  0  0  0  0  0  0
    2.0456    5.8227   -3.5690 C   0  0  0  0  0  0  0  0  0  0  0  0
    2.5884    5.7964   -2.2860 C   0  0  0  0  0  0  0  0  0  0  0  0
    2.8524    6.9873   -1.5835 C   0  0  0  0  0  0  0  0  0  0  0  0
    3.4335    6.9558   -0.3218 C   0  0  0  0  0  0  0  0  0  0  0  0
    3.7228    5.7354    0.2700 C   0  0  0  0  0  0  0  0  0  0  0  0
    3.4467    4.5439   -0.4084 C   0  0  0  0  0  0  0  0  0  0  0  0
    2.8946    4.5356   -1.7164 C   0  0  0  0  0  0  0  0  0  0  0  0
    1.9095   -1.5168   -1.8854 C   0  0  0  0  0  0  0  0  0  0  0  0
    2.1599   -2.6857   -0.9535 C   0  0  0  0  0  0  0  0  0  0  0  0
    3.5054   -3.1450   -1.0597 O   0  0  0  0  0  0  0  0  0  0  0  0
    4.4529   -2.1584   -1.0053 C   0  0  0  0  0  0  0  0  0  0  0  0
    5.7518   -2.6142   -0.7659 C   0  0  0  0  0  0  0  0  0  0  0  0
    6.7957   -1.7059   -0.6719 C   0  0  0  0  0  0  0  0  0  0  0  0
    8.0312   -2.1630   -0.4174 F   0  0  0  0  0  0  0  0  0  0  0  0
    6.5578   -0.3473   -0.8269 C   0  0  0  0  0  0  0  0  0  0  0  0
    7.8423    0.7931   -0.6950 Cl  0  0  0  0  0  0  0  0  0  0  0  0
    5.2608    0.1105   -1.0846 C   0  0  0  0  0  0  0  0  0  0  0  0
    4.1822   -0.7888   -1.1884 C   0  0  0  0  0  0  0  0  0  0  0  0
    0.8254    0.9635    1.0169 H   0  0  0  0  0  0  0  0  0  0  0  0
    0.3528   -0.4408    0.0592 H   0  0  0  0  0  0  0  0  0  0  0  0
    0.5855    1.1537   -0.7277 H   0  0  0  0  0  0  0  0  0  0  0  0
    2.9830    2.0628   -0.9086 H   0  0  0  0  0  0  0  0  0  0  0  0
    2.0489    2.7099   -4.4840 H   0  0  0  0  0  0  0  0  0  0  0  0
    1.7400    6.7586   -4.0311 H   0  0  0  0  0  0  0  0  0  0  0  0
    2.6297    7.9530   -2.0375 H   0  0  0  0  0  0  0  0  0  0  0  0
    3.6713    7.8826    0.1932 H   0  0  0  0  0  0  0  0  0  0  0  0
    4.1807    5.7035    1.2578 H   0  0  0  0  0  0  0  0  0  0  0  0
    3.7150    3.6213    0.0993 H   0  0  0  0  0  0  0  0  0  0  0  0
    2.2056   -1.8077   -2.9021 H   0  0  0  0  0  0  0  0  0  0  0  0
    0.8410   -1.2849   -1.9207 H   0  0  0  0  0  0  0  0  0  0  0  0
    1.5118   -3.5236   -1.2292 H   0  0  0  0  0  0  0  0  0  0  0  0
    1.9428   -2.4464    0.0956 H   0  0  0  0  0  0  0  0  0  0  0  0
    5.9495   -3.6737   -0.6365 H   0  0  0  0  0  0  0  0  0  0  0  0
    5.1160    1.1803   -1.1964 H   0  0  0  0  0  0  0  0  0  0  0  0
  1  2  1  0  0  0  0
  1 28  1  0  0  0  0
  1 29  1  0  0  0  0
  1 30  1  0  0  0  0
  3  2  1  1  0  0  0
  3  4  1  0  0  0  0
  3 17  1  0  0  0  0
  3 27  1  0  0  0  0
  4  5  2  0  0  0  0
  4  6  1  0  0  0  0
  6  7  1  0  0  0  0
  6 31  1  0  0  0  0
  7  8  1  0  0  0  0
  7 16  2  0  0  0  0
  8  9  2  0  0  0  0
  8 32  1  0  0  0  0
  9 10  1  0  0  0  0
 10 11  2  0  0  0  0
 10 33  1  0  0  0  0
 11 12  1  0  0  0  0
 11 16  1  0  0  0  0
 12 13  2  0  0  0  0
 12 34  1  0  0  0  0
 13 14  1  0  0  0  0
 13 35  1  0  0  0  0
 14 15  2  0  0  0  0
 14 36  1  0  0  0  0
 15 16  1  0  0  0  0
 15 37  1  0  0  0  0
 17 18  1  0  0  0  0
 17 38  1  0  0  0  0
 17 39  1  0  0  0  0
 18 19  1  0  0  0  0
 18 40  1  0  0  0  0
 18 41  1  0  0  0  0
 19 20  1  0  0  0  0
 20 21  1  0  0  0  0
 20 27  2  0  0  0  0
 21 22  2  0  0  0  0
 21 42  1  0  0  0  0
 22 23  1  0  0  0  0
 22 24  1  0  0  0  0
 24 25  1  0  0  0  0
 24 26  2  0  0  0  0
 26 27  1  0  0  0  0
 26 43  1  0  0  0  0
M  END
$$$$
