
 OpenBabel07202414173D

 51 53  0  0  1  0  0  0  0  0999 V2000
    1.0204   -0.5209    0.4201 Cl  0  0  0  0  0  0  0  0  0  0  0  0
    2.7799   -0.7479    0.4689 C   0  0  0  0  0  0  0  0  0  0  0  0
    3.3363   -1.2122   -0.8695 C   0  0  0  0  0  0  0  0  0  0  0  0
    2.6146   -1.4775   -1.8304 O   0  0  0  0  0  0  0  0  0  0  0  0
    4.7262   -1.3002   -0.9667 N   0  0  0  0  0  0  0  0  0  0  0  0
    5.6758   -1.1291    0.1410 C   0  0  0  0  0  0  0  0  0  0  0  0
    6.9439   -0.3644   -0.2974 C   0  0  0  0  0  0  0  0  0  0  0  0
    7.5764   -0.9230   -1.5433 N   0  0  0  0  0  0  0  0  0  0  0  0
    8.4969   -2.3500   -1.3296 S   0  0  0  0  0  0  0  0  0  0  0  0
    7.7330   -3.2832   -0.5338 O   0  0  0  0  0  0  0  0  0  0  0  0
    9.0962   -2.7148   -2.5925 O   0  0  0  0  0  0  0  0  0  0  0  0
    9.8821   -1.9750   -0.3525 C   0  0  0  0  0  0  0  0  0  0  0  0
   10.1567   -2.5494    0.9257 C   0  0  0  0  0  0  0  0  0  0  0  0
   11.3616   -2.1140    1.4346 C   0  0  0  0  0  0  0  0  0  0  0  0
   12.1460   -1.0135    0.3832 S   0  0  0  0  0  0  0  0  0  0  0  0
   10.8857   -1.1260   -0.7691 C   0  0  0  0  0  0  0  0  0  0  0  0
    6.5305   -0.9932   -2.6405 C   0  0  1  0  0  0  0  0  0  0  0  0
    7.0392   -1.4494   -3.9992 C   0  0  0  0  0  0  0  0  0  0  0  0
    6.6319   -2.4655   -4.5536 O   0  0  0  0  0  0  0  0  0  0  0  0
    7.9412   -0.5698   -4.5785 N   0  0  0  0  0  0  0  0  0  0  0  0
    8.5151   -0.8544   -5.8838 C   0  0  0  0  0  0  0  0  0  0  0  0
    7.4629   -0.8756   -7.0001 C   0  0  0  0  0  0  0  0  0  0  0  0
    8.0387   -1.2270   -8.3469 C   0  0  0  0  0  0  0  0  0  0  0  0
    8.1801   -2.5714   -8.7195 C   0  0  0  0  0  0  0  0  0  0  0  0
    8.6771   -2.9069   -9.9788 C   0  0  0  0  0  0  0  0  0  0  0  0
    9.0429   -1.9028  -10.8729 C   0  0  0  0  0  0  0  0  0  0  0  0
    8.9166   -0.5634  -10.5065 C   0  0  0  0  0  0  0  0  0  0  0  0
    8.4189   -0.2253   -9.2473 C   0  0  0  0  0  0  0  0  0  0  0  0
    5.3142   -1.8317   -2.2088 C   0  0  0  0  0  0  0  0  0  0  0  0
    3.0015   -1.4925    1.2373 H   0  0  0  0  0  0  0  0  0  0  0  0
    3.2144    0.2195    0.7320 H   0  0  0  0  0  0  0  0  0  0  0  0
    5.9147   -2.1285    0.5142 H   0  0  0  0  0  0  0  0  0  0  0  0
    5.2147   -0.5941    0.9736 H   0  0  0  0  0  0  0  0  0  0  0  0
    7.6719   -0.3166    0.5175 H   0  0  0  0  0  0  0  0  0  0  0  0
    6.6651    0.6754   -0.5187 H   0  0  0  0  0  0  0  0  0  0  0  0
    9.5214   -3.2672    1.4324 H   0  0  0  0  0  0  0  0  0  0  0  0
   11.8299   -2.3983    2.3678 H   0  0  0  0  0  0  0  0  0  0  0  0
   10.9554   -0.5912   -1.7071 H   0  0  0  0  0  0  0  0  0  0  0  0
    6.1820    0.0402   -2.7971 H   0  0  0  0  0  0  0  0  0  0  0  0
    8.4855   -0.0040   -3.9384 H   0  0  0  0  0  0  0  0  0  0  0  0
    9.0501   -1.8089   -5.8189 H   0  0  0  0  0  0  0  0  0  0  0  0
    9.2552   -0.0698   -6.0830 H   0  0  0  0  0  0  0  0  0  0  0  0
    6.9593    0.0984   -7.0518 H   0  0  0  0  0  0  0  0  0  0  0  0
    6.6642   -1.5926   -6.7806 H   0  0  0  0  0  0  0  0  0  0  0  0
    7.8862   -3.3641   -8.0331 H   0  0  0  0  0  0  0  0  0  0  0  0
    8.7695   -3.9516  -10.2639 H   0  0  0  0  0  0  0  0  0  0  0  0
    9.4217   -2.1643  -11.8571 H   0  0  0  0  0  0  0  0  0  0  0  0
    9.1972    0.2188  -11.2065 H   0  0  0  0  0  0  0  0  0  0  0  0
    8.3138    0.8234   -8.9804 H   0  0  0  0  0  0  0  0  0  0  0  0
    5.5871   -2.8770   -2.0212 H   0  0  0  0  0  0  0  0  0  0  0  0
    4.5692   -1.8430   -3.0126 H   0  0  0  0  0  0  0  0  0  0  0  0
  1  2  1  0  0  0  0
  2  3  1  0  0  0  0
  2 30  1  0  0  0  0
  2 31  1  0  0  0  0
  3  4  2  0  0  0  0
  3  5  1  0  0  0  0
  5  6  1  0  0  0  0
  5 29  1  0  0  0  0
  6  7  1  0  0  0  0
  6 32  1  0  0  0  0
  6 33  1  0  0  0  0
  7  8  1  0  0  0  0
  7 34  1  0  0  0  0
  7 35  1  0  0  0  0
  8  9  1  0  0  0  0
  8 17  1  0  0  0  0
  9 10  2  0  0  0  0
  9 11  2  0  0  0  0
  9 12  1  0  0  0  0
 12 13  1  0  0  0  0
 12 16  2  0  0  0  0
 13 14  2  0  0  0  0
 13 36  1  0  0  0  0
 14 15  1  0  0  0  0
 14 37  1  0  0  0  0
 15 16  1  0  0  0  0
 16 38  1  0  0  0  0
 17 18  1  0  0  0  0
 17 29  1  0  0  0  0
 17 39  1  6  0  0  0
 18 19  2  0  0  0  0
 18 20  1  0  0  0  0
 20 21  1  0  0  0  0
 20 40  1  0  0  0  0
 21 22  1  0  0  0  0
 21 41  1  0  0  0  0
 21 42  1  0  0  0  0
 22 23  1  0  0  0  0
 22 43  1  0  0  0  0
 22 44  1  0  0  0  0
 23 24  1  0  0  0  0
 23 28  2  0  0  0  0
 24 25  2  0  0  0  0
 24 45  1  0  0  0  0
 25 26  1  0  0  0  0
 25 46  1  0  0  0  0
 26 27  2  0  0  0  0
 26 47  1  0  0  0  0
 27 28  1  0  0  0  0
 27 48  1  0  0  0  0
 28 49  1  0  0  0  0
 29 50  1  0  0  0  0
 29 51  1  0  0  0  0
M  END
$$$$
