
 OpenBabel07202414143D

 51 54  0  0  1  0  0  0  0  0999 V2000
    5.3100   -9.2265    4.1600 C   0  0  0  0  0  0  0  0  0  0  0  0
    5.7266   -9.3757    2.7945 O   0  0  0  0  0  0  0  0  0  0  0  0
    5.5221   -8.2897    2.0114 C   0  0  0  0  0  0  0  0  0  0  0  0
    5.0757   -7.2101    2.3688 O   0  0  0  0  0  0  0  0  0  0  0  0
    5.8391   -8.6274    0.6075 C   0  0  0  0  0  0  0  0  0  0  0  0
    5.5153   -7.7572   -0.3702 C   0  0  0  0  0  0  0  0  0  0  0  0
    5.7174   -8.1116   -1.8104 C   0  0  0  0  0  0  0  0  0  0  0  0
    6.1096   -9.2465   -2.0977 O   0  0  0  0  0  0  0  0  0  0  0  0
    5.4281   -7.1279   -2.7831 N   0  0  0  0  0  0  0  0  0  0  0  0
    5.5529   -5.7220   -2.6618 C   0  0  0  0  0  0  0  0  0  0  0  0
    4.7427   -4.9551   -3.1841 O   0  0  0  0  0  0  0  0  0  0  0  0
    6.7758   -5.2144   -1.8835 C   0  0  1  0  0  0  0  0  0  0  0  0
    8.0225   -5.3119   -2.7520 C   0  0  0  0  0  0  0  0  0  0  0  0
    9.2354   -5.0384   -1.8859 C   0  0  0  0  0  0  0  0  0  0  0  0
    9.1996   -3.7977   -1.1895 O   0  0  0  0  0  0  0  0  0  0  0  0
    7.9754   -3.2792   -0.8692 C   0  0  0  0  0  0  0  0  0  0  0  0
    8.0215   -2.1299   -0.0774 C   0  0  0  0  0  0  0  0  0  0  0  0
    6.8453   -1.4770    0.2785 C   0  0  0  0  0  0  0  0  0  0  0  0
    5.6296   -1.9491   -0.2053 C   0  0  0  0  0  0  0  0  0  0  0  0
    4.1787   -1.1128    0.1931 Cl  0  0  0  0  0  0  0  0  0  0  0  0
    5.5729   -3.1130   -0.9797 C   0  0  0  0  0  0  0  0  0  0  0  0
    6.7461   -3.8221   -1.2855 C   0  0  0  0  0  0  0  0  0  0  0  0
    4.7516   -7.6051   -3.9588 C   0  0  0  0  0  0  0  0  0  0  0  0
    3.5599   -8.3198   -3.8133 C   0  0  0  0  0  0  0  0  0  0  0  0
    2.7825   -8.7336   -4.8383 N   0  0  0  0  0  0  0  0  0  0  0  0
    3.2722   -8.5320   -6.0788 C   0  0  0  0  0  0  0  0  0  0  0  0
    4.5219   -7.9830   -6.3547 C   0  0  0  0  0  0  0  0  0  0  0  0
    5.0612   -8.0284   -7.6557 C   0  0  0  0  0  0  0  0  0  0  0  0
    6.3299   -7.5209   -7.9207 C   0  0  0  0  0  0  0  0  0  0  0  0
    7.0175   -6.8617   -6.9156 C   0  0  0  0  0  0  0  0  0  0  0  0
    6.4722   -6.7953   -5.6297 C   0  0  0  0  0  0  0  0  0  0  0  0
    5.2552   -7.4259   -5.2841 C   0  0  0  0  0  0  0  0  0  0  0  0
    5.8817   -9.9289    4.7743 H   0  0  0  0  0  0  0  0  0  0  0  0
    4.2480   -9.4800    4.2408 H   0  0  0  0  0  0  0  0  0  0  0  0
    5.4864   -8.2178    4.5459 H   0  0  0  0  0  0  0  0  0  0  0  0
    6.2844   -9.5986    0.4151 H   0  0  0  0  0  0  0  0  0  0  0  0
    5.0426   -6.8127   -0.1284 H   0  0  0  0  0  0  0  0  0  0  0  0
    6.9168   -5.8628   -1.0259 H   0  0  0  0  0  0  0  0  0  0  0  0
    7.9787   -4.5837   -3.5761 H   0  0  0  0  0  0  0  0  0  0  0  0
    8.1332   -6.3108   -3.1830 H   0  0  0  0  0  0  0  0  0  0  0  0
   10.1338   -5.0405   -2.5134 H   0  0  0  0  0  0  0  0  0  0  0  0
    9.3586   -5.8396   -1.1482 H   0  0  0  0  0  0  0  0  0  0  0  0
    8.9791   -1.7581    0.2784 H   0  0  0  0  0  0  0  0  0  0  0  0
    6.8862   -0.6055    0.9256 H   0  0  0  0  0  0  0  0  0  0  0  0
    4.5999   -3.4530   -1.3249 H   0  0  0  0  0  0  0  0  0  0  0  0
    3.1566   -8.5620   -2.8345 H   0  0  0  0  0  0  0  0  0  0  0  0
    2.6129   -8.8560   -6.8815 H   0  0  0  0  0  0  0  0  0  0  0  0
    4.5168   -8.5179   -8.4612 H   0  0  0  0  0  0  0  0  0  0  0  0
    6.7750   -7.6345   -8.9053 H   0  0  0  0  0  0  0  0  0  0  0  0
    7.9892   -6.4172   -7.1180 H   0  0  0  0  0  0  0  0  0  0  0  0
    7.0412   -6.2509   -4.8969 H   0  0  0  0  0  0  0  0  0  0  0  0
  1  2  1  0  0  0  0
  1 33  1  0  0  0  0
  1 34  1  0  0  0  0
  1 35  1  0  0  0  0
  2  3  1  0  0  0  0
  3  4  2  0  0  0  0
  3  5  1  0  0  0  0
  5  6  2  0  0  0  0
  5 36  1  0  0  0  0
  6  7  1  0  0  0  0
  6 37  1  0  0  0  0
  7  8  2  0  0  0  0
  7  9  1  0  0  0  0
  9 10  1  0  0  0  0
  9 23  1  0  0  0  0
 10 11  2  0  0  0  0
 12 13  1  0  0  0  0
 12 22  1  0  0  0  0
 12 10  1  0  0  0  0
 12 38  1  1  0  0  0
 13 14  1  0  0  0  0
 13 39  1  0  0  0  0
 13 40  1  0  0  0  0
 14 15  1  0  0  0  0
 14 41  1  0  0  0  0
 14 42  1  0  0  0  0
 15 16  1  0  0  0  0
 16 17  1  0  0  0  0
 16 22  2  0  0  0  0
 17 18  2  0  0  0  0
 17 43  1  0  0  0  0
 18 19  1  0  0  0  0
 18 44  1  0  0  0  0
 19 20  1  0  0  0  0
 19 21  2  0  0  0  0
 21 22  1  0  0  0  0
 21 45  1  0  0  0  0
 23 24  1  0  0  0  0
 23 32  2  0  0  0  0
 24 25  2  0  0  0  0
 24 46  1  0  0  0  0
 25 26  1  0  0  0  0
 26 27  2  0  0  0  0
 26 47  1  0  0  0  0
 27 28  1  0  0  0  0
 27 32  1  0  0  0  0
 28 29  2  0  0  0  0
 28 48  1  0  0  0  0
 29 30  1  0  0  0  0
 29 49  1  0  0  0  0
 30 31  2  0  0  0  0
 30 50  1  0  0  0  0
 31 32  1  0  0  0  0
 31 51  1  0  0  0  0
M  END
$$$$
