
 OpenBabel07202414173D

 38 40  0  0  0  0  0  0  0  0999 V2000
    0.7904    0.4620    0.0741 Cl  0  0  0  0  0  0  0  0  0  0  0  0
    2.5220    0.6064    0.4332 C   0  0  0  0  0  0  0  0  0  0  0  0
    3.0689   -0.6494    1.0843 C   0  0  0  0  0  0  0  0  0  0  0  0
    2.3509   -1.5909    1.4244 O   0  0  0  0  0  0  0  0  0  0  0  0
    4.4482   -0.7058    1.2477 N   0  0  0  0  0  0  0  0  0  0  0  0
    5.3991    0.4063    1.0558 C   0  0  0  0  0  0  0  0  0  0  0  0
    6.6580   -0.0440    0.2925 C   0  0  0  0  0  0  0  0  0  0  0  0
    7.2958   -1.2584    0.8463 N   0  0  0  0  0  0  0  0  0  0  0  0
    8.1934   -1.0473    2.0200 C   0  0  0  0  0  0  0  0  0  0  0  0
    9.4107   -0.1640    1.7289 C   0  0  0  0  0  0  0  0  0  0  0  0
    9.3664    1.2244    1.9779 C   0  0  0  0  0  0  0  0  0  0  0  0
   10.4988    2.0243    1.8912 C   0  0  0  0  0  0  0  0  0  0  0  0
   11.7180    1.4490    1.5300 C   0  0  0  0  0  0  0  0  0  0  0  0
   11.7699    0.0899    1.2167 C   0  0  0  0  0  0  0  0  0  0  0  0
   13.2758   -0.6106    0.7479 Cl  0  0  0  0  0  0  0  0  0  0  0  0
   10.6333   -0.7106    1.3059 C   0  0  0  0  0  0  0  0  0  0  0  0
    8.4398   -2.1951    3.0018 C   0  0  0  0  0  0  0  0  0  0  0  0
    7.7057   -0.9779    3.4604 C   0  0  0  0  0  0  0  0  0  0  0  0
    6.2768   -2.3253    0.9153 C   0  0  0  0  0  0  0  0  0  0  0  0
    5.0311   -1.9569    1.7322 C   0  0  0  0  0  0  0  0  0  0  0  0
    2.6628    1.4611    1.0986 H   0  0  0  0  0  0  0  0  0  0  0  0
    3.0324    0.7680   -0.5197 H   0  0  0  0  0  0  0  0  0  0  0  0
    5.6713    0.7936    2.0453 H   0  0  0  0  0  0  0  0  0  0  0  0
    4.9325    1.2330    0.5119 H   0  0  0  0  0  0  0  0  0  0  0  0
    7.3619    0.7882    0.2004 H   0  0  0  0  0  0  0  0  0  0  0  0
    6.3632   -0.2666   -0.7427 H   0  0  0  0  0  0  0  0  0  0  0  0
    8.4214    1.6762    2.2708 H   0  0  0  0  0  0  0  0  0  0  0  0
   10.4413    3.0824    2.1271 H   0  0  0  0  0  0  0  0  0  0  0  0
   12.6149    2.0632    1.4937 H   0  0  0  0  0  0  0  0  0  0  0  0
   10.6985   -1.7690    1.0821 H   0  0  0  0  0  0  0  0  0  0  0  0
    9.4418   -2.3472    3.3919 H   0  0  0  0  0  0  0  0  0  0  0  0
    7.8894   -3.1226    2.9339 H   0  0  0  0  0  0  0  0  0  0  0  0
    8.2194   -0.3272    4.1595 H   0  0  0  0  0  0  0  0  0  0  0  0
    6.6687   -1.0746    3.7291 H   0  0  0  0  0  0  0  0  0  0  0  0
    6.7011   -3.2770    1.2511 H   0  0  0  0  0  0  0  0  0  0  0  0
    5.9433   -2.5256   -0.1135 H   0  0  0  0  0  0  0  0  0  0  0  0
    5.2214   -1.8471    2.7941 H   0  0  0  0  0  0  0  0  0  0  0  0
    4.3107   -2.7815    1.6579 H   0  0  0  0  0  0  0  0  0  0  0  0
  1  2  1  0  0  0  0
  2  3  1  0  0  0  0
  2 21  1  0  0  0  0
  2 22  1  0  0  0  0
  3  4  2  0  0  0  0
  3  5  1  0  0  0  0
  5  6  1  0  0  0  0
  5 20  1  0  0  0  0
  6  7  1  0  0  0  0
  6 23  1  0  0  0  0
  6 24  1  0  0  0  0
  7  8  1  0  0  0  0
  7 25  1  0  0  0  0
  7 26  1  0  0  0  0
  8  9  1  0  0  0  0
  8 19  1  0  0  0  0
  9 10  1  0  0  0  0
  9 17  1  0  0  0  0
  9 18  1  0  0  0  0
 10 11  1  0  0  0  0
 10 16  2  0  0  0  0
 11 12  2  0  0  0  0
 11 27  1  0  0  0  0
 12 13  1  0  0  0  0
 12 28  1  0  0  0  0
 13 14  2  0  0  0  0
 13 29  1  0  0  0  0
 14 15  1  0  0  0  0
 14 16  1  0  0  0  0
 16 30  1  0  0  0  0
 17 18  1  0  0  0  0
 17 31  1  0  0  0  0
 17 32  1  0  0  0  0
 18 33  1  0  0  0  0
 18 34  1  0  0  0  0
 19 20  1  0  0  0  0
 19 35  1  0  0  0  0
 19 36  1  0  0  0  0
 20 37  1  0  0  0  0
 20 38  1  0  0  0  0
M  END
$$$$
