
 OpenBabel07202414163D

 50 54  0  0  0  0  0  0  0  0999 V2000
   -2.1399   -0.2483   -0.1020 Cl  0  0  0  0  0  0  0  0  0  0  0  0
   -0.4237   -0.1133   -0.0464 C   0  0  0  0  0  0  0  0  0  0  0  0
    0.1737    1.1458   -0.0060 C   0  0  0  0  0  0  0  0  0  0  0  0
    1.5651    1.2740    0.0307 C   0  0  0  0  0  0  0  0  0  0  0  0
    2.2414    2.5123    0.0239 N   0  0  0  0  0  0  0  0  0  0  0  0
    1.7560    3.7031   -0.4094 C   0  0  0  0  0  0  0  0  0  0  0  0
    0.5024    4.0909   -0.5155 N   0  0  0  0  0  0  0  0  0  0  0  0
    0.3655    5.3485   -1.0623 N   0  0  0  0  0  0  0  0  0  0  0  0
    1.5246    5.8789   -1.3928 C   0  0  0  0  0  0  0  0  0  0  0  0
    1.6926    7.1853   -2.0360 C   0  0  0  0  0  0  0  0  0  0  0  0
    0.7642    8.1990   -1.7782 C   0  0  0  0  0  0  0  0  0  0  0  0
    0.9304    9.4269   -2.3950 C   0  0  0  0  0  0  0  0  0  0  0  0
    1.9386    9.7060   -3.2466 N   0  0  0  0  0  0  0  0  0  0  0  0
    2.8144    8.7130   -3.5001 C   0  0  0  0  0  0  0  0  0  0  0  0
    2.7351    7.4534   -2.9300 C   0  0  0  0  0  0  0  0  0  0  0  0
    2.8709    4.9085   -0.9445 S   0  0  0  0  0  0  0  0  0  0  0  0
    2.3369    0.0949    0.0688 C   0  0  0  0  0  0  0  0  0  0  0  0
    1.7464   -1.1790    0.0021 C   0  0  0  0  0  0  0  0  0  0  0  0
    2.5890   -2.4315    0.0304 C   0  0  0  0  0  0  0  0  0  0  0  0
    3.6335   -2.5009   -1.0669 C   0  0  0  0  0  0  0  0  0  0  0  0
    4.8130   -2.2415   -0.8366 O   0  0  0  0  0  0  0  0  0  0  0  0
    3.1261   -2.8404   -2.3155 N   0  0  0  0  0  0  0  0  0  0  0  0
    3.9921   -2.9235   -3.4371 C   0  0  0  0  0  0  0  0  0  0  0  0
    5.1668   -3.6774   -3.3628 C   0  0  0  0  0  0  0  0  0  0  0  0
    6.0857   -3.7644   -4.3486 N   0  0  0  0  0  0  0  0  0  0  0  0
    5.8618   -2.9953   -5.4337 C   0  0  0  0  0  0  0  0  0  0  0  0
    4.7435   -2.1766   -5.6118 C   0  0  0  0  0  0  0  0  0  0  0  0
    4.6354   -1.3220   -6.7222 C   0  0  0  0  0  0  0  0  0  0  0  0
    3.5226   -0.4990   -6.8795 C   0  0  0  0  0  0  0  0  0  0  0  0
    2.4844   -0.5584   -5.9583 C   0  0  0  0  0  0  0  0  0  0  0  0
    2.5845   -1.3954   -4.8442 C   0  0  0  0  0  0  0  0  0  0  0  0
    3.7357   -2.1893   -4.6196 C   0  0  0  0  0  0  0  0  0  0  0  0
    0.3530   -1.2704   -0.0527 C   0  0  0  0  0  0  0  0  0  0  0  0
   -0.4719    2.0207    0.0023 H   0  0  0  0  0  0  0  0  0  0  0  0
    3.2498    2.4210    0.0133 H   0  0  0  0  0  0  0  0  0  0  0  0
   -0.0736    8.0394   -1.1055 H   0  0  0  0  0  0  0  0  0  0  0  0
    0.2352   10.2422   -2.2152 H   0  0  0  0  0  0  0  0  0  0  0  0
    3.6064    8.9612   -4.2013 H   0  0  0  0  0  0  0  0  0  0  0  0
    3.4693    6.7031   -3.2036 H   0  0  0  0  0  0  0  0  0  0  0  0
    3.4225    0.1683    0.1358 H   0  0  0  0  0  0  0  0  0  0  0  0
    1.9611   -3.3271   -0.0449 H   0  0  0  0  0  0  0  0  0  0  0  0
    3.1036   -2.4957    0.9970 H   0  0  0  0  0  0  0  0  0  0  0  0
    2.1723   -2.5491   -2.4836 H   0  0  0  0  0  0  0  0  0  0  0  0
    5.4045   -4.2619   -2.4776 H   0  0  0  0  0  0  0  0  0  0  0  0
    6.6484   -3.0445   -6.1830 H   0  0  0  0  0  0  0  0  0  0  0  0
    5.4392   -1.2662   -7.4538 H   0  0  0  0  0  0  0  0  0  0  0  0
    3.4686    0.1894   -7.7189 H   0  0  0  0  0  0  0  0  0  0  0  0
    1.6036    0.0652   -6.0905 H   0  0  0  0  0  0  0  0  0  0  0  0
    1.7544   -1.3938   -4.1443 H   0  0  0  0  0  0  0  0  0  0  0  0
   -0.1367   -2.2400   -0.0782 H   0  0  0  0  0  0  0  0  0  0  0  0
  1  2  1  0  0  0  0
  2  3  2  0  0  0  0
  2 33  1  0  0  0  0
  3  4  1  0  0  0  0
  3 34  1  0  0  0  0
  4  5  1  0  0  0  0
  4 17  2  0  0  0  0
  5  6  1  0  0  0  0
  5 35  1  0  0  0  0
  6  7  2  0  0  0  0
  6 16  1  0  0  0  0
  7  8  1  0  0  0  0
  8  9  2  0  0  0  0
  9 10  1  0  0  0  0
  9 16  1  0  0  0  0
 10 11  2  0  0  0  0
 10 15  1  0  0  0  0
 11 12  1  0  0  0  0
 11 36  1  0  0  0  0
 12 13  2  0  0  0  0
 12 37  1  0  0  0  0
 13 14  1  0  0  0  0
 14 15  2  0  0  0  0
 14 38  1  0  0  0  0
 15 39  1  0  0  0  0
 17 18  1  0  0  0  0
 17 40  1  0  0  0  0
 18 19  1  0  0  0  0
 18 33  2  0  0  0  0
 19 20  1  0  0  0  0
 19 41  1  0  0  0  0
 19 42  1  0  0  0  0
 20 21  2  0  0  0  0
 20 22  1  0  0  0  0
 22 23  1  0  0  0  0
 22 43  1  0  0  0  0
 23 24  2  0  0  0  0
 23 32  1  0  0  0  0
 24 25  1  0  0  0  0
 24 44  1  0  0  0  0
 25 26  2  0  0  0  0
 26 27  1  0  0  0  0
 26 45  1  0  0  0  0
 27 28  2  0  0  0  0
 27 32  1  0  0  0  0
 28 29  1  0  0  0  0
 28 46  1  0  0  0  0
 29 30  2  0  0  0  0
 29 47  1  0  0  0  0
 30 31  1  0  0  0  0
 30 48  1  0  0  0  0
 31 32  2  0  0  0  0
 31 49  1  0  0  0  0
 33 50  1  0  0  0  0
M  END
$$$$
