
 OpenBabel07202414123D

 65 67  0  0  1  0  0  0  0  0999 V2000
    2.4082   -1.7058    3.4447 C   0  0  0  0  0  0  0  0  0  0  0  0
    1.9264   -1.3851    2.0303 C   0  0  0  0  0  0  0  0  0  0  0  0
    0.5722   -0.6556    2.1177 C   0  0  0  0  0  0  0  0  0  0  0  0
    2.9023   -0.5111    1.2214 C   0  0  0  0  0  0  0  0  0  0  0  0
    4.4034   -0.8864    1.1293 C   0  0  2  0  0  0  0  0  0  0  0  0
    5.1037    0.2677    0.3480 C   0  0  0  0  0  0  0  0  0  0  0  0
    6.5553    0.1494    0.3950 N   0  0  0  0  0  0  0  0  0  0  0  0
    7.4407    1.1965    0.6081 C   0  0  0  0  0  0  0  0  0  0  0  0
    8.6630    1.0274    0.5874 O   0  0  0  0  0  0  0  0  0  0  0  0
    6.8746    2.6077    0.8097 C   0  0  0  0  0  0  0  0  0  0  0  0
    6.0747    2.7616    1.9649 O   0  0  0  0  0  0  0  0  0  0  0  0
    5.3100    4.1906    2.1113 S   0  0  0  0  0  0  0  0  0  0  0  0
    6.3251    5.2056    2.2570 O   0  0  0  0  0  0  0  0  0  0  0  0
    4.3280    4.2629    1.0470 O   0  0  0  0  0  0  0  0  0  0  0  0
    4.4809    4.0616    3.5930 N   0  0  0  0  0  0  0  0  0  0  0  0
    3.3129    3.1503    3.5709 C   0  0  0  0  0  0  0  0  0  0  0  0
    2.5087    3.2894    4.8601 C   0  0  0  0  0  0  0  0  0  0  0  0
    3.3840    3.0364    6.0809 C   0  0  0  0  0  0  0  0  0  0  0  0
    4.5857    3.9738    6.0670 C   0  0  0  0  0  0  0  0  0  0  0  0
    5.3723    3.8546    4.7641 C   0  0  0  0  0  0  0  0  0  0  0  0
    7.0596   -1.1644   -0.0036 C   0  0  0  0  0  0  0  0  0  0  0  0
    6.3194   -2.3063    0.7260 C   0  0  0  0  0  0  0  0  0  0  0  0
    4.8257   -2.2408    0.6783 N   0  0  0  0  0  0  0  0  0  0  0  0
    4.3173   -2.7223   -0.6226 C   0  0  0  0  0  0  0  0  0  0  0  0
    4.5901   -4.2192   -0.8160 C   0  0  0  0  0  0  0  0  0  0  0  0
    4.2351   -5.1278    0.1976 C   0  0  0  0  0  0  0  0  0  0  0  0
    4.5757   -6.4809    0.1122 C   0  0  0  0  0  0  0  0  0  0  0  0
    5.2468   -6.9622   -1.0084 C   0  0  0  0  0  0  0  0  0  0  0  0
    5.5527   -6.0886   -2.0502 C   0  0  0  0  0  0  0  0  0  0  0  0
    6.3518   -6.6973   -3.4493 Cl  0  0  0  0  0  0  0  0  0  0  0  0
    5.2357   -4.7250   -1.9585 C   0  0  0  0  0  0  0  0  0  0  0  0
    1.5871   -2.0989    4.0570 H   0  0  0  0  0  0  0  0  0  0  0  0
    2.8024   -0.8190    3.9519 H   0  0  0  0  0  0  0  0  0  0  0  0
    3.1897   -2.4707    3.4239 H   0  0  0  0  0  0  0  0  0  0  0  0
    1.7659   -2.3285    1.4971 H   0  0  0  0  0  0  0  0  0  0  0  0
    0.6805    0.3406    2.5648 H   0  0  0  0  0  0  0  0  0  0  0  0
   -0.1442   -1.2148    2.7290 H   0  0  0  0  0  0  0  0  0  0  0  0
    0.1322   -0.5292    1.1229 H   0  0  0  0  0  0  0  0  0  0  0  0
    2.8739    0.4862    1.6892 H   0  0  0  0  0  0  0  0  0  0  0  0
    2.4984   -0.3674    0.2119 H   0  0  0  0  0  0  0  0  0  0  0  0
    4.7717   -0.8185    2.1640 H   0  0  0  0  0  0  0  0  0  0  0  0
    4.7838    1.2244    0.7594 H   0  0  0  0  0  0  0  0  0  0  0  0
    4.8065    0.2625   -0.7071 H   0  0  0  0  0  0  0  0  0  0  0  0
    6.3083    2.8665   -0.0923 H   0  0  0  0  0  0  0  0  0  0  0  0
    7.7250    3.2959    0.8766 H   0  0  0  0  0  0  0  0  0  0  0  0
    3.6501    2.1162    3.4421 H   0  0  0  0  0  0  0  0  0  0  0  0
    2.6513    3.4069    2.7363 H   0  0  0  0  0  0  0  0  0  0  0  0
    1.6697    2.5846    4.8513 H   0  0  0  0  0  0  0  0  0  0  0  0
    2.0815    4.2985    4.9236 H   0  0  0  0  0  0  0  0  0  0  0  0
    3.7258    1.9942    6.0807 H   0  0  0  0  0  0  0  0  0  0  0  0
    2.8024    3.1863    6.9971 H   0  0  0  0  0  0  0  0  0  0  0  0
    5.2417    3.7454    6.9146 H   0  0  0  0  0  0  0  0  0  0  0  0
    4.2402    5.0072    6.1963 H   0  0  0  0  0  0  0  0  0  0  0  0
    5.8400    2.8656    4.7002 H   0  0  0  0  0  0  0  0  0  0  0  0
    6.1632    4.6117    4.7733 H   0  0  0  0  0  0  0  0  0  0  0  0
    8.1353   -1.2458    0.1822 H   0  0  0  0  0  0  0  0  0  0  0  0
    6.9148   -1.2450   -1.0883 H   0  0  0  0  0  0  0  0  0  0  0  0
    6.6100   -2.2805    1.7839 H   0  0  0  0  0  0  0  0  0  0  0  0
    6.6959   -3.2660    0.3540 H   0  0  0  0  0  0  0  0  0  0  0  0
    4.7476   -2.1546   -1.4574 H   0  0  0  0  0  0  0  0  0  0  0  0
    3.2300   -2.5962   -0.6807 H   0  0  0  0  0  0  0  0  0  0  0  0
    3.7221   -4.7651    1.0860 H   0  0  0  0  0  0  0  0  0  0  0  0
    4.3299   -7.1540    0.9297 H   0  0  0  0  0  0  0  0  0  0  0  0
    5.5260   -8.0118   -1.0630 H   0  0  0  0  0  0  0  0  0  0  0  0
    5.5161   -4.0643   -2.7753 H   0  0  0  0  0  0  0  0  0  0  0  0
  1  2  1  0  0  0  0
  1 32  1  0  0  0  0
  1 33  1  0  0  0  0
  1 34  1  0  0  0  0
  2  3  1  0  0  0  0
  2  4  1  0  0  0  0
  2 35  1  0  0  0  0
  3 36  1  0  0  0  0
  3 37  1  0  0  0  0
  3 38  1  0  0  0  0
  4  5  1  0  0  0  0
  4 39  1  0  0  0  0
  4 40  1  0  0  0  0
  5  6  1  0  0  0  0
  5 23  1  0  0  0  0
  5 41  1  1  0  0  0
  6  7  1  0  0  0  0
  6 42  1  0  0  0  0
  6 43  1  0  0  0  0
  7  8  1  0  0  0  0
  7 21  1  0  0  0  0
  8  9  2  0  0  0  0
  8 10  1  0  0  0  0
 10 11  1  0  0  0  0
 10 44  1  0  0  0  0
 10 45  1  0  0  0  0
 11 12  1  0  0  0  0
 12 13  2  0  0  0  0
 12 14  2  0  0  0  0
 12 15  1  0  0  0  0
 15 16  1  0  0  0  0
 15 20  1  0  0  0  0
 16 17  1  0  0  0  0
 16 46  1  0  0  0  0
 16 47  1  0  0  0  0
 17 18  1  0  0  0  0
 17 48  1  0  0  0  0
 17 49  1  0  0  0  0
 18 19  1  0  0  0  0
 18 50  1  0  0  0  0
 18 51  1  0  0  0  0
 19 20  1  0  0  0  0
 19 52  1  0  0  0  0
 19 53  1  0  0  0  0
 20 54  1  0  0  0  0
 20 55  1  0  0  0  0
 21 22  1  0  0  0  0
 21 56  1  0  0  0  0
 21 57  1  0  0  0  0
 22 23  1  0  0  0  0
 22 58  1  0  0  0  0
 22 59  1  0  0  0  0
 23 24  1  0  0  0  0
 24 25  1  0  0  0  0
 24 60  1  0  0  0  0
 24 61  1  0  0  0  0
 25 26  1  0  0  0  0
 25 31  2  0  0  0  0
 26 27  2  0  0  0  0
 26 62  1  0  0  0  0
 27 28  1  0  0  0  0
 27 63  1  0  0  0  0
 28 29  2  0  0  0  0
 28 64  1  0  0  0  0
 29 30  1  0  0  0  0
 29 31  1  0  0  0  0
 31 65  1  0  0  0  0
M  END
$$$$
