
 OpenBabel07202414163D

 59 64  0  0  1  0  0  0  0  0999 V2000
    2.7607   -2.3575    5.0337 C   0  0  0  0  0  0  0  0  0  0  0  0
    2.6975   -2.1390    3.5682 C   0  0  0  0  0  0  0  0  0  0  0  0
    1.6101   -2.3806    2.7102 C   0  0  0  0  0  0  0  0  0  0  0  0
    2.0905   -2.1902    1.4270 C   0  0  0  0  0  0  0  0  0  0  0  0
    1.4350   -2.4743    0.1671 C   0  0  0  0  0  0  0  0  0  0  0  0
    1.4860   -1.7084   -0.7932 O   0  0  0  0  0  0  0  0  0  0  0  0
    0.7508   -3.7035    0.0875 N   0  0  0  0  0  0  0  0  0  0  0  0
    0.0772   -4.0183   -1.1671 C   0  0  0  0  0  0  0  0  0  0  0  0
   -0.8538   -5.2142   -1.0721 C   0  0  0  0  0  0  0  0  0  0  0  0
   -1.8062   -5.4184   -2.0873 C   0  0  0  0  0  0  0  0  0  0  0  0
   -2.6988   -6.4943   -2.0351 C   0  0  0  0  0  0  0  0  0  0  0  0
   -2.6415   -7.3856   -0.9739 C   0  0  0  0  0  0  0  0  0  0  0  0
   -3.7530   -8.6948   -0.8737 Cl  0  0  0  0  0  0  0  0  0  0  0  0
   -1.6897   -7.2193    0.0245 C   0  0  0  0  0  0  0  0  0  0  0  0
   -0.7779   -6.1424   -0.0134 C   0  0  0  0  0  0  0  0  0  0  0  0
    0.2069   -5.9314    1.1336 C   0  0  3  0  0  0  0  0  0  0  0  0
    1.0038   -7.1923    1.4880 C   0  0  0  0  0  0  0  0  0  0  0  0
    0.4059   -7.7228    2.7642 C   0  0  0  0  0  0  0  0  0  0  0  0
   -0.6550   -6.8558    3.1587 N   0  0  0  0  0  0  0  0  0  0  0  0
   -1.5945   -7.1676    4.2051 C   0  0  0  0  0  0  0  0  0  0  0  0
   -2.7169   -6.3418    4.3762 C   0  0  0  0  0  0  0  0  0  0  0  0
   -3.6374   -6.4548    5.3612 N   0  0  0  0  0  0  0  0  0  0  0  0
   -3.4830   -7.4880    6.2044 C   0  0  0  0  0  0  0  0  0  0  0  0
   -2.5087   -8.4719    6.0780 C   0  0  0  0  0  0  0  0  0  0  0  0
   -2.5506   -9.5893    6.9376 C   0  0  0  0  0  0  0  0  0  0  0  0
   -1.6253  -10.6196    6.8291 C   0  0  0  0  0  0  0  0  0  0  0  0
   -0.6152  -10.5124    5.8970 C   0  0  0  0  0  0  0  0  0  0  0  0
   -0.5505   -9.3869    5.0673 C   0  0  0  0  0  0  0  0  0  0  0  0
   -1.5132   -8.3287    5.0750 C   0  0  0  0  0  0  0  0  0  0  0  0
   -0.6002   -5.6461    2.4196 C   0  0  0  0  0  0  0  0  0  0  0  0
   -1.1557   -4.5974    2.6694 O   0  0  0  0  0  0  0  0  0  0  0  0
    1.2503   -4.8616    0.8097 C   0  0  0  0  0  0  0  0  0  0  0  0
    3.3517   -1.6819    1.6006 N   0  0  0  0  0  0  0  0  0  0  0  0
    4.3107   -1.2633    0.6052 C   0  0  0  0  0  0  0  0  0  0  0  0
    3.7668   -1.7168    2.8923 N   0  0  0  0  0  0  0  0  0  0  0  0
    1.8112   -2.7509    5.4124 H   0  0  0  0  0  0  0  0  0  0  0  0
    2.9758   -1.4217    5.5576 H   0  0  0  0  0  0  0  0  0  0  0  0
    3.5418   -3.0849    5.2812 H   0  0  0  0  0  0  0  0  0  0  0  0
    0.6287   -2.7498    2.9801 H   0  0  0  0  0  0  0  0  0  0  0  0
    0.8528   -4.2377   -1.9132 H   0  0  0  0  0  0  0  0  0  0  0  0
   -0.4770   -3.1345   -1.5029 H   0  0  0  0  0  0  0  0  0  0  0  0
   -1.8745   -4.7238   -2.9228 H   0  0  0  0  0  0  0  0  0  0  0  0
   -3.4439   -6.6222   -2.8159 H   0  0  0  0  0  0  0  0  0  0  0  0
   -1.6868   -7.9232    0.8524 H   0  0  0  0  0  0  0  0  0  0  0  0
    2.0658   -6.9815    1.6730 H   0  0  0  0  0  0  0  0  0  0  0  0
    0.9861   -7.9475    0.6956 H   0  0  0  0  0  0  0  0  0  0  0  0
    1.1666   -7.6969    3.5537 H   0  0  0  0  0  0  0  0  0  0  0  0
    0.0332   -8.7284    2.5710 H   0  0  0  0  0  0  0  0  0  0  0  0
   -2.9601   -5.5423    3.6809 H   0  0  0  0  0  0  0  0  0  0  0  0
   -4.2089   -7.5140    7.0137 H   0  0  0  0  0  0  0  0  0  0  0  0
   -3.3352   -9.6793    7.6866 H   0  0  0  0  0  0  0  0  0  0  0  0
   -1.6911  -11.4951    7.4679 H   0  0  0  0  0  0  0  0  0  0  0  0
    0.1305  -11.2980    5.7995 H   0  0  0  0  0  0  0  0  0  0  0  0
    0.2987   -9.3998    4.4036 H   0  0  0  0  0  0  0  0  0  0  0  0
    2.0177   -5.2833    0.1428 H   0  0  0  0  0  0  0  0  0  0  0  0
    1.7928   -4.6016    1.7188 H   0  0  0  0  0  0  0  0  0  0  0  0
    3.8733   -1.2937   -0.3950 H   0  0  0  0  0  0  0  0  0  0  0  0
    5.1696   -1.9402    0.6496 H   0  0  0  0  0  0  0  0  0  0  0  0
    4.6231   -0.2413    0.8380 H   0  0  0  0  0  0  0  0  0  0  0  0
  1  2  1  0  0  0  0
  1 36  1  0  0  0  0
  1 37  1  0  0  0  0
  1 38  1  0  0  0  0
  2  3  1  0  0  0  0
  2 35  2  0  0  0  0
  3  4  2  0  0  0  0
  3 39  1  0  0  0  0
  4  5  1  0  0  0  0
  4 33  1  0  0  0  0
  5  6  2  0  0  0  0
  5  7  1  0  0  0  0
  7  8  1  0  0  0  0
  7 32  1  0  0  0  0
  8  9  1  0  0  0  0
  8 40  1  0  0  0  0
  8 41  1  0  0  0  0
  9 10  1  0  0  0  0
  9 15  2  0  0  0  0
 10 11  2  0  0  0  0
 10 42  1  0  0  0  0
 11 12  1  0  0  0  0
 11 43  1  0  0  0  0
 12 13  1  0  0  0  0
 12 14  2  0  0  0  0
 14 15  1  0  0  0  0
 14 44  1  0  0  0  0
 15 16  1  0  0  0  0
 16 17  1  0  0  0  0
 16 30  1  0  0  0  0
 16 32  1  0  0  0  0
 17 18  1  0  0  0  0
 17 45  1  0  0  0  0
 17 46  1  0  0  0  0
 18 19  1  0  0  0  0
 18 47  1  0  0  0  0
 18 48  1  0  0  0  0
 19 20  1  0  0  0  0
 19 30  1  0  0  0  0
 20 21  1  0  0  0  0
 20 29  2  0  0  0  0
 21 22  2  0  0  0  0
 21 49  1  0  0  0  0
 22 23  1  0  0  0  0
 23 24  2  0  0  0  0
 23 50  1  0  0  0  0
 24 25  1  0  0  0  0
 24 29  1  0  0  0  0
 25 26  2  0  0  0  0
 25 51  1  0  0  0  0
 26 27  1  0  0  0  0
 26 52  1  0  0  0  0
 27 28  2  0  0  0  0
 27 53  1  0  0  0  0
 28 29  1  0  0  0  0
 28 54  1  0  0  0  0
 30 31  2  0  0  0  0
 32 55  1  0  0  0  0
 32 56  1  0  0  0  0
 33 34  1  0  0  0  0
 33 35  1  0  0  0  0
 34 57  1  0  0  0  0
 34 58  1  0  0  0  0
 34 59  1  0  0  0  0
M  END
$$$$
