
 OpenBabel07202414193D

 50 53  0  0  1  0  0  0  0  0999 V2000
    2.8698   -0.9371    3.3939 N   0  0  0  0  0  0  0  0  0  0  0  0
    3.6919   -1.5485    2.5242 C   0  0  0  0  0  0  0  0  0  0  0  0
    3.5332   -2.7490    2.2968 O   0  0  0  0  0  0  0  0  0  0  0  0
    4.6863   -0.7157    1.7836 C   0  0  0  0  0  0  0  0  0  0  0  0
    4.8090   -1.1860    0.5144 C   0  0  0  0  0  0  0  0  0  0  0  0
    5.4566    0.5633    2.1066 C   0  0  0  0  0  0  0  0  0  0  0  0
    5.8100    1.1271    3.4696 N   0  0  0  0  0  0  0  0  0  0  0  0
    4.7151    1.4597    4.2629 C   0  0  0  0  0  0  0  0  0  0  0  0
    3.5866    1.4426    3.7494 O   0  0  0  0  0  0  0  0  0  0  0  0
    4.8588    1.8781    5.7344 C   0  0  3  0  0  0  0  0  0  0  0  0
    5.3628    0.7743    6.6581 C   0  0  0  0  0  0  0  0  0  0  0  0
    4.2339   -0.1783    7.0281 C   0  0  0  0  0  0  0  0  0  0  0  0
    3.1179    0.4645    7.6492 O   0  0  0  0  0  0  0  0  0  0  0  0
    2.7494    1.6720    7.1304 C   0  0  0  0  0  0  0  0  0  0  0  0
    3.5431    2.4186    6.2585 C   0  0  0  0  0  0  0  0  0  0  0  0
    3.0795    3.6651    5.7988 C   0  0  0  0  0  0  0  0  0  0  0  0
    1.8397    4.1472    6.2058 C   0  0  0  0  0  0  0  0  0  0  0  0
    1.2812    5.6622    5.6133 Cl  0  0  0  0  0  0  0  0  0  0  0  0
    1.0508    3.4029    7.0769 C   0  0  0  0  0  0  0  0  0  0  0  0
    1.5102    2.1678    7.5425 C   0  0  0  0  0  0  0  0  0  0  0  0
    7.0486    1.9884    3.4811 C   0  0  0  0  0  0  0  0  0  0  0  0
    7.8857    2.3234    4.5887 C   0  0  0  0  0  0  0  0  0  0  0  0
    7.8065    3.5140    5.3698 C   0  0  0  0  0  0  0  0  0  0  0  0
    8.8815    3.9748    6.1783 C   0  0  0  0  0  0  0  0  0  0  0  0
   10.0009    3.1723    6.3571 C   0  0  0  0  0  0  0  0  0  0  0  0
   10.1146    2.0517    5.5634 C   0  0  0  0  0  0  0  0  0  0  0  0
    9.2276    1.9616    4.4919 C   0  0  0  0  0  0  0  0  0  0  0  0
    9.7587    2.1539    3.2266 C   0  0  0  0  0  0  0  0  0  0  0  0
    9.0196    2.3955    2.1241 N   0  0  0  0  0  0  0  0  0  0  0  0
    7.6907    2.2379    2.2703 C   0  0  0  0  0  0  0  0  0  0  0  0
    2.0543   -1.4703    3.6902 H   0  0  0  0  0  0  0  0  0  0  0  0
    2.8038    0.0764    3.4492 H   0  0  0  0  0  0  0  0  0  0  0  0
    4.2522   -2.0485    0.1463 H   0  0  0  0  0  0  0  0  0  0  0  0
    5.4503   -0.7145   -0.2240 H   0  0  0  0  0  0  0  0  0  0  0  0
    4.9811    1.3831    1.5520 H   0  0  0  0  0  0  0  0  0  0  0  0
    6.4281    0.3393    1.6459 H   0  0  0  0  0  0  0  0  0  0  0  0
    5.5469    2.7124    5.7841 H   0  0  0  0  0  0  0  0  0  0  0  0
    5.7325    1.2396    7.5831 H   0  0  0  0  0  0  0  0  0  0  0  0
    6.1970    0.2194    6.2174 H   0  0  0  0  0  0  0  0  0  0  0  0
    4.6120   -0.9081    7.7542 H   0  0  0  0  0  0  0  0  0  0  0  0
    3.8827   -0.7459    6.1599 H   0  0  0  0  0  0  0  0  0  0  0  0
    3.6751    4.2414    5.0947 H   0  0  0  0  0  0  0  0  0  0  0  0
    0.0799    3.7733    7.3933 H   0  0  0  0  0  0  0  0  0  0  0  0
    0.8931    1.5838    8.2207 H   0  0  0  0  0  0  0  0  0  0  0  0
    6.9796    4.2086    5.2277 H   0  0  0  0  0  0  0  0  0  0  0  0
    8.8676    4.9710    6.6184 H   0  0  0  0  0  0  0  0  0  0  0  0
   10.8244    3.4696    7.0027 H   0  0  0  0  0  0  0  0  0  0  0  0
   11.0096    1.4362    5.6083 H   0  0  0  0  0  0  0  0  0  0  0  0
   10.8230    2.3539    3.0971 H   0  0  0  0  0  0  0  0  0  0  0  0
    7.1607    2.2841    1.3257 H   0  0  0  0  0  0  0  0  0  0  0  0
  1  2  1  0  0  0  0
  1 31  1  0  0  0  0
  1 32  1  0  0  0  0
  2  3  2  0  0  0  0
  2  4  1  0  0  0  0
  4  5  2  0  0  0  0
  4  6  1  0  0  0  0
  5 33  1  0  0  0  0
  5 34  1  0  0  0  0
  6  7  1  0  0  0  0
  6 35  1  0  0  0  0
  6 36  1  0  0  0  0
  7  8  1  0  0  0  0
  7 21  1  0  0  0  0
  8  9  2  0  0  0  0
  8 10  1  0  0  0  0
 10 11  1  0  0  0  0
 10 15  1  0  0  0  0
 10 37  1  0  0  0  0
 11 12  1  0  0  0  0
 11 38  1  0  0  0  0
 11 39  1  0  0  0  0
 12 13  1  0  0  0  0
 12 40  1  0  0  0  0
 12 41  1  0  0  0  0
 13 14  1  0  0  0  0
 14 15  2  0  0  0  0
 14 20  1  0  0  0  0
 15 16  1  0  0  0  0
 16 17  2  0  0  0  0
 16 42  1  0  0  0  0
 17 18  1  0  0  0  0
 17 19  1  0  0  0  0
 19 20  2  0  0  0  0
 19 43  1  0  0  0  0
 20 44  1  0  0  0  0
 21 22  2  0  0  0  0
 21 30  1  0  0  0  0
 22 23  1  0  0  0  0
 22 27  1  0  0  0  0
 23 24  2  0  0  0  0
 23 45  1  0  0  0  0
 24 25  1  0  0  0  0
 24 46  1  0  0  0  0
 25 26  2  0  0  0  0
 25 47  1  0  0  0  0
 26 27  1  0  0  0  0
 26 48  1  0  0  0  0
 27 28  2  0  0  0  0
 28 29  1  0  0  0  0
 28 49  1  0  0  0  0
 29 30  2  0  0  0  0
 30 50  1  0  0  0  0
M  END
$$$$
