
 OpenBabel07202414183D

 63 67  0  0  1  0  0  0  0  0999 V2000
   -0.2621   -1.5550   -8.8681 Cl  0  0  0  0  0  0  0  0  0  0  0  0
   -1.4981   -1.9935   -7.7520 C   0  0  0  0  0  0  0  0  0  0  0  0
   -2.6861   -2.5438   -8.2256 C   0  0  0  0  0  0  0  0  0  0  0  0
   -3.6734   -2.9162   -7.3180 C   0  0  0  0  0  0  0  0  0  0  0  0
   -3.4867   -2.7049   -5.9453 C   0  0  0  0  0  0  0  0  0  0  0  0
   -2.3124   -2.1010   -5.4577 C   0  0  0  0  0  0  0  0  0  0  0  0
   -2.1375   -1.8169   -3.9687 C   0  0  1  0  0  0  0  0  0  0  0  0
   -0.9748   -2.5215   -3.4349 N   0  0  0  0  0  0  0  0  0  0  0  0
   -1.0607   -3.7643   -2.8367 C   0  0  0  0  0  0  0  0  0  0  0  0
   -2.1414   -4.3322   -2.7013 O   0  0  0  0  0  0  0  0  0  0  0  0
    0.2527   -4.3066   -2.2474 C   0  0  1  0  0  0  0  0  0  0  0  0
    0.3149   -5.8274   -2.3168 C   0  0  0  0  0  0  0  0  0  0  0  0
    1.1845   -6.0585   -3.5315 C   0  0  0  0  0  0  0  0  0  0  0  0
    2.1896   -4.9301   -3.3921 C   0  0  1  0  0  0  0  0  0  0  0  0
    2.9716   -4.5777   -4.6750 C   0  0  0  0  0  0  0  0  0  0  0  0
    2.5569   -4.8643   -5.7981 O   0  0  0  0  0  0  0  0  0  0  0  0
    4.1799   -3.9288   -4.4798 N   0  0  0  0  0  0  0  0  0  0  0  0
    4.7757   -3.5663   -3.2106 C   0  0  0  0  0  0  0  0  0  0  0  0
    5.6952   -2.4219   -3.5842 C   0  0  0  0  0  0  0  0  0  0  0  0
    6.2426   -2.8528   -4.9423 C   0  0  0  0  0  0  0  0  0  0  0  0
    5.1347   -3.7165   -5.5540 C   0  0  0  0  0  0  0  0  0  0  0  0
    1.4476   -3.8114   -2.8727 O   0  0  0  0  0  0  0  0  0  0  0  0
   -1.9379   -0.3004   -3.6572 C   0  0  0  0  0  0  0  0  0  0  0  0
   -0.8366    0.2378   -3.7697 O   0  0  0  0  0  0  0  0  0  0  0  0
   -3.0651    0.3695   -3.1791 N   0  0  0  0  0  0  0  0  0  0  0  0
   -2.9899    1.7345   -2.7699 C   0  0  0  0  0  0  0  0  0  0  0  0
   -2.4864    2.7119   -3.6334 C   0  0  0  0  0  0  0  0  0  0  0  0
   -2.4378    4.0357   -3.3475 N   0  0  0  0  0  0  0  0  0  0  0  0
   -2.8874    4.4058   -2.1287 C   0  0  0  0  0  0  0  0  0  0  0  0
   -3.3929    3.5259   -1.1675 C   0  0  0  0  0  0  0  0  0  0  0  0
   -3.8158    3.9812    0.0940 C   0  0  0  0  0  0  0  0  0  0  0  0
   -4.2756    3.0839    1.0561 C   0  0  0  0  0  0  0  0  0  0  0  0
   -4.3139    1.7258    0.7657 C   0  0  0  0  0  0  0  0  0  0  0  0
   -3.9101    1.2639   -0.4894 C   0  0  0  0  0  0  0  0  0  0  0  0
   -3.4515    2.1484   -1.4940 C   0  0  0  0  0  0  0  0  0  0  0  0
   -1.3041   -1.7815   -6.3839 C   0  0  0  0  0  0  0  0  0  0  0  0
   -2.8403   -2.6938   -9.2904 H   0  0  0  0  0  0  0  0  0  0  0  0
   -4.5928   -3.3750   -7.6804 H   0  0  0  0  0  0  0  0  0  0  0  0
   -4.2700   -3.0318   -5.2624 H   0  0  0  0  0  0  0  0  0  0  0  0
   -3.0244   -2.1640   -3.4242 H   0  0  0  0  0  0  0  0  0  0  0  0
   -0.0492   -2.1341   -3.6017 H   0  0  0  0  0  0  0  0  0  0  0  0
    0.2694   -3.9798   -1.2003 H   0  0  0  0  0  0  0  0  0  0  0  0
   -0.6543   -6.3267   -2.3870 H   0  0  0  0  0  0  0  0  0  0  0  0
    0.8229   -6.2169   -1.4255 H   0  0  0  0  0  0  0  0  0  0  0  0
    0.5888   -5.9681   -4.4456 H   0  0  0  0  0  0  0  0  0  0  0  0
    1.6574   -7.0458   -3.5253 H   0  0  0  0  0  0  0  0  0  0  0  0
    2.9157   -5.2371   -2.6291 H   0  0  0  0  0  0  0  0  0  0  0  0
    5.3471   -4.4385   -2.8711 H   0  0  0  0  0  0  0  0  0  0  0  0
    4.0430   -3.2948   -2.4489 H   0  0  0  0  0  0  0  0  0  0  0  0
    6.4756   -2.2451   -2.8392 H   0  0  0  0  0  0  0  0  0  0  0  0
    5.1132   -1.4992   -3.6993 H   0  0  0  0  0  0  0  0  0  0  0  0
    7.1554   -3.4453   -4.8074 H   0  0  0  0  0  0  0  0  0  0  0  0
    6.4956   -1.9948   -5.5724 H   0  0  0  0  0  0  0  0  0  0  0  0
    5.5330   -4.6963   -5.8430 H   0  0  0  0  0  0  0  0  0  0  0  0
    4.6591   -3.2603   -6.4263 H   0  0  0  0  0  0  0  0  0  0  0  0
   -3.7575   -0.2002   -2.7112 H   0  0  0  0  0  0  0  0  0  0  0  0
   -2.1290    2.4597   -4.6273 H   0  0  0  0  0  0  0  0  0  0  0  0
   -2.8141    5.4725   -1.9312 H   0  0  0  0  0  0  0  0  0  0  0  0
   -3.7755    5.0412    0.3435 H   0  0  0  0  0  0  0  0  0  0  0  0
   -4.5851    3.4406    2.0353 H   0  0  0  0  0  0  0  0  0  0  0  0
   -4.6442    1.0162    1.5227 H   0  0  0  0  0  0  0  0  0  0  0  0
   -3.9309    0.1913   -0.6564 H   0  0  0  0  0  0  0  0  0  0  0  0
   -0.3577   -1.3662   -6.0418 H   0  0  0  0  0  0  0  0  0  0  0  0
  1  2  1  0  0  0  0
  2  3  1  0  0  0  0
  2 36  2  0  0  0  0
  3  4  2  0  0  0  0
  3 37  1  0  0  0  0
  4  5  1  0  0  0  0
  4 38  1  0  0  0  0
  5  6  2  0  0  0  0
  5 39  1  0  0  0  0
  6  7  1  0  0  0  0
  6 36  1  0  0  0  0
  7  8  1  0  0  0  0
  7 23  1  0  0  0  0
  7 40  1  1  0  0  0
  8  9  1  0  0  0  0
  8 41  1  0  0  0  0
  9 10  2  0  0  0  0
 11 12  1  0  0  0  0
 11 22  1  0  0  0  0
 11  9  1  0  0  0  0
 11 42  1  1  0  0  0
 12 13  1  0  0  0  0
 12 43  1  0  0  0  0
 12 44  1  0  0  0  0
 13 14  1  0  0  0  0
 13 45  1  0  0  0  0
 13 46  1  0  0  0  0
 14 15  1  0  0  0  0
 14 22  1  0  0  0  0
 14 47  1  1  0  0  0
 15 16  2  0  0  0  0
 15 17  1  0  0  0  0
 17 18  1  0  0  0  0
 17 21  1  0  0  0  0
 18 19  1  0  0  0  0
 18 48  1  0  0  0  0
 18 49  1  0  0  0  0
 19 20  1  0  0  0  0
 19 50  1  0  0  0  0
 19 51  1  0  0  0  0
 20 21  1  0  0  0  0
 20 52  1  0  0  0  0
 20 53  1  0  0  0  0
 21 54  1  0  0  0  0
 21 55  1  0  0  0  0
 23 24  2  0  0  0  0
 23 25  1  0  0  0  0
 25 26  1  0  0  0  0
 25 56  1  0  0  0  0
 26 27  1  0  0  0  0
 26 35  2  0  0  0  0
 27 28  2  0  0  0  0
 27 57  1  0  0  0  0
 28 29  1  0  0  0  0
 29 30  2  0  0  0  0
 29 58  1  0  0  0  0
 30 31  1  0  0  0  0
 30 35  1  0  0  0  0
 31 32  2  0  0  0  0
 31 59  1  0  0  0  0
 32 33  1  0  0  0  0
 32 60  1  0  0  0  0
 33 34  2  0  0  0  0
 33 61  1  0  0  0  0
 34 35  1  0  0  0  0
 34 62  1  0  0  0  0
 36 63  1  0  0  0  0
M  END
$$$$
