
 OpenBabel07202414123D

 39 42  0  0  1  0  0  0  0  0999 V2000
    3.1034    1.2760    0.4663 C   0  0  0  0  0  0  0  0  0  0  0  0
    2.6646    0.0913   -0.4045 C   0  0  3  0  0  0  0  0  0  0  0  0
    3.1294    0.2637   -1.8579 C   0  0  0  0  0  0  0  0  0  0  0  0
    2.3347    0.4196   -2.7838 O   0  0  0  0  0  0  0  0  0  0  0  0
    4.5118    0.2862   -1.9899 N   0  0  0  0  0  0  0  0  0  0  0  0
    5.2857    0.3180   -3.1823 C   0  0  0  0  0  0  0  0  0  0  0  0
    4.7176    0.2622   -4.4546 C   0  0  0  0  0  0  0  0  0  0  0  0
    5.4230    0.1081   -5.6014 N   0  0  0  0  0  0  0  0  0  0  0  0
    6.7641    0.0586   -5.4830 C   0  0  0  0  0  0  0  0  0  0  0  0
    7.4589    0.2203   -4.2854 C   0  0  0  0  0  0  0  0  0  0  0  0
    8.8644    0.2748   -4.2681 C   0  0  0  0  0  0  0  0  0  0  0  0
    9.5557    0.4772   -3.0721 C   0  0  0  0  0  0  0  0  0  0  0  0
    8.8491    0.6000   -1.8855 C   0  0  0  0  0  0  0  0  0  0  0  0
    7.4479    0.5319   -1.8918 C   0  0  0  0  0  0  0  0  0  0  0  0
    6.7102    0.3541   -3.0926 C   0  0  0  0  0  0  0  0  0  0  0  0
    3.2405   -1.2076    0.2020 C   0  0  0  0  0  0  0  0  0  0  0  0
    4.4257   -1.4972    0.2794 O   0  0  0  0  0  0  0  0  0  0  0  0
    2.1848   -1.9687    0.6823 N   0  0  0  0  0  0  0  0  0  0  0  0
    0.9710   -1.3412    0.4576 C   0  0  0  0  0  0  0  0  0  0  0  0
   -0.2767   -1.7689    0.8609 C   0  0  0  0  0  0  0  0  0  0  0  0
   -1.3623   -0.9344    0.5787 C   0  0  0  0  0  0  0  0  0  0  0  0
   -1.1722    0.2791   -0.1066 C   0  0  0  0  0  0  0  0  0  0  0  0
   -2.5267    1.2981   -0.4093 Cl  0  0  0  0  0  0  0  0  0  0  0  0
    0.0998    0.6874   -0.5170 C   0  0  0  0  0  0  0  0  0  0  0  0
    1.1745   -0.1358   -0.2160 C   0  0  0  0  0  0  0  0  0  0  0  0
    4.1871    1.4291    0.4373 H   0  0  0  0  0  0  0  0  0  0  0  0
    2.8330    1.1194    1.5181 H   0  0  0  0  0  0  0  0  0  0  0  0
    2.6308    2.2076    0.1351 H   0  0  0  0  0  0  0  0  0  0  0  0
    5.0408    0.0802   -1.1480 H   0  0  0  0  0  0  0  0  0  0  0  0
    3.6470    0.3108   -4.6198 H   0  0  0  0  0  0  0  0  0  0  0  0
    7.2892   -0.1137   -6.4192 H   0  0  0  0  0  0  0  0  0  0  0  0
    9.4321    0.1840   -5.1910 H   0  0  0  0  0  0  0  0  0  0  0  0
   10.6381    0.5458   -3.0744 H   0  0  0  0  0  0  0  0  0  0  0  0
    9.3799    0.7557   -0.9502 H   0  0  0  0  0  0  0  0  0  0  0  0
    6.9514    0.6558   -0.9366 H   0  0  0  0  0  0  0  0  0  0  0  0
    2.3113   -2.8562    1.1474 H   0  0  0  0  0  0  0  0  0  0  0  0
   -0.4181   -2.6987    1.4000 H   0  0  0  0  0  0  0  0  0  0  0  0
   -2.3596   -1.2230    0.9030 H   0  0  0  0  0  0  0  0  0  0  0  0
    0.2432    1.6281   -1.0400 H   0  0  0  0  0  0  0  0  0  0  0  0
  1  2  1  0  0  0  0
  1 26  1  0  0  0  0
  1 27  1  0  0  0  0
  1 28  1  0  0  0  0
  2  3  1  0  0  0  0
  2 16  1  0  0  0  0
  2 25  1  0  0  0  0
  3  4  2  0  0  0  0
  3  5  1  0  0  0  0
  5  6  1  0  0  0  0
  5 29  1  0  0  0  0
  6  7  1  0  0  0  0
  6 15  2  0  0  0  0
  7  8  2  0  0  0  0
  7 30  1  0  0  0  0
  8  9  1  0  0  0  0
  9 10  2  0  0  0  0
  9 31  1  0  0  0  0
 10 11  1  0  0  0  0
 10 15  1  0  0  0  0
 11 12  2  0  0  0  0
 11 32  1  0  0  0  0
 12 13  1  0  0  0  0
 12 33  1  0  0  0  0
 13 14  2  0  0  0  0
 13 34  1  0  0  0  0
 14 15  1  0  0  0  0
 14 35  1  0  0  0  0
 16 17  2  0  0  0  0
 16 18  1  0  0  0  0
 18 19  1  0  0  0  0
 18 36  1  0  0  0  0
 19 20  1  0  0  0  0
 19 25  2  0  0  0  0
 20 21  2  0  0  0  0
 20 37  1  0  0  0  0
 21 22  1  0  0  0  0
 21 38  1  0  0  0  0
 22 23  1  0  0  0  0
 22 24  2  0  0  0  0
 24 25  1  0  0  0  0
 24 39  1  0  0  0  0
M  END
$$$$
