
 OpenBabel07202414123D

 57 59  0  0  0  0  0  0  0  0999 V2000
    2.6850    1.4580    3.7938 C   0  0  0  0  0  0  0  0  0  0  0  0
    2.3322    0.2910    2.8713 C   0  0  0  0  0  0  0  0  0  0  0  0
    0.8102    0.2041    2.7174 C   0  0  0  0  0  0  0  0  0  0  0  0
    2.9795    0.4221    1.4796 C   0  0  0  0  0  0  0  0  0  0  0  0
    4.4459    0.3903    1.4880 N   0  0  0  0  0  0  0  0  0  0  0  0
    5.0909   -0.8320    1.4364 C   0  0  0  0  0  0  0  0  0  0  0  0
    6.4283   -0.9614    1.4118 C   0  0  0  0  0  0  0  0  0  0  0  0
    7.2609    0.2530    1.4348 C   0  0  0  0  0  0  0  0  0  0  0  0
    8.6579    0.2110    1.2851 C   0  0  0  0  0  0  0  0  0  0  0  0
    9.4040    1.3890    1.1917 C   0  0  0  0  0  0  0  0  0  0  0  0
    8.7707    2.6266    1.2601 C   0  0  0  0  0  0  0  0  0  0  0  0
    7.3869    2.6885    1.4107 C   0  0  0  0  0  0  0  0  0  0  0  0
    6.6339    1.5079    1.4807 C   0  0  0  0  0  0  0  0  0  0  0  0
    5.1494    1.5997    1.5186 C   0  0  0  0  0  0  0  0  0  0  0  0
    4.6106    2.7012    1.5461 O   0  0  0  0  0  0  0  0  0  0  0  0
    7.0321   -2.1955    1.3245 N   0  0  0  0  0  0  0  0  0  0  0  0
    6.7416   -3.2120    0.4503 C   0  0  0  0  0  0  0  0  0  0  0  0
    7.2356   -4.3258    0.5845 O   0  0  0  0  0  0  0  0  0  0  0  0
    5.9586   -2.8433   -0.6130 N   0  0  0  0  0  0  0  0  0  0  0  0
    5.7045   -3.7917   -1.6715 C   0  0  0  0  0  0  0  0  0  0  0  0
    4.7095   -3.3517   -2.7210 C   0  0  0  0  0  0  0  0  0  0  0  0
    4.0853   -2.0812   -2.6335 C   0  0  0  0  0  0  0  0  0  0  0  0
    3.1825   -1.6275   -3.5992 C   0  0  0  0  0  0  0  0  0  0  0  0
    2.8815   -2.4497   -4.6774 C   0  0  0  0  0  0  0  0  0  0  0  0
    3.4887   -3.6993   -4.7948 C   0  0  0  0  0  0  0  0  0  0  0  0
    4.3954   -4.1616   -3.8293 C   0  0  0  0  0  0  0  0  0  0  0  0
    4.9636   -5.3592   -4.1747 O   0  0  0  0  0  0  0  0  0  0  0  0
    5.2023   -6.3191   -3.1555 C   0  0  0  0  0  0  0  0  0  0  0  0
    2.5429   -0.4185   -3.5966 O   0  0  0  0  0  0  0  0  0  0  0  0
    2.8411    0.4712   -2.5269 C   0  0  0  0  0  0  0  0  0  0  0  0
    2.1642    1.3665    4.7531 H   0  0  0  0  0  0  0  0  0  0  0  0
    2.4002    2.4169    3.3477 H   0  0  0  0  0  0  0  0  0  0  0  0
    3.7574    1.4823    4.0089 H   0  0  0  0  0  0  0  0  0  0  0  0
    2.6804   -0.6350    3.3455 H   0  0  0  0  0  0  0  0  0  0  0  0
    0.4112    1.0917    2.2136 H   0  0  0  0  0  0  0  0  0  0  0  0
    0.3203    0.1220    3.6934 H   0  0  0  0  0  0  0  0  0  0  0  0
    0.5277   -0.6743    2.1275 H   0  0  0  0  0  0  0  0  0  0  0  0
    2.6477    1.3513    1.0009 H   0  0  0  0  0  0  0  0  0  0  0  0
    2.6305   -0.3949    0.8346 H   0  0  0  0  0  0  0  0  0  0  0  0
    4.4448   -1.7092    1.4282 H   0  0  0  0  0  0  0  0  0  0  0  0
    9.1902   -0.7327    1.1955 H   0  0  0  0  0  0  0  0  0  0  0  0
   10.4809    1.3382    1.0447 H   0  0  0  0  0  0  0  0  0  0  0  0
    9.3498    3.5428    1.1752 H   0  0  0  0  0  0  0  0  0  0  0  0
    6.8918    3.6569    1.4436 H   0  0  0  0  0  0  0  0  0  0  0  0
    7.8731   -2.3671    1.8618 H   0  0  0  0  0  0  0  0  0  0  0  0
    6.1478   -1.8976   -0.9109 H   0  0  0  0  0  0  0  0  0  0  0  0
    5.3348   -4.6928   -1.1752 H   0  0  0  0  0  0  0  0  0  0  0  0
    6.6698   -3.9961   -2.1483 H   0  0  0  0  0  0  0  0  0  0  0  0
    4.3195   -1.4343   -1.7969 H   0  0  0  0  0  0  0  0  0  0  0  0
    2.1810   -2.1145   -5.4382 H   0  0  0  0  0  0  0  0  0  0  0  0
    3.2559   -4.3225   -5.6556 H   0  0  0  0  0  0  0  0  0  0  0  0
    5.2585   -7.3039   -3.6293 H   0  0  0  0  0  0  0  0  0  0  0  0
    4.3969   -6.3506   -2.4148 H   0  0  0  0  0  0  0  0  0  0  0  0
    6.1754   -6.1455   -2.6888 H   0  0  0  0  0  0  0  0  0  0  0  0
    2.1917    1.3464   -2.6233 H   0  0  0  0  0  0  0  0  0  0  0  0
    3.8800    0.8134   -2.5811 H   0  0  0  0  0  0  0  0  0  0  0  0
    2.6266    0.0114   -1.5579 H   0  0  0  0  0  0  0  0  0  0  0  0
  1  2  1  0  0  0  0
  1 31  1  0  0  0  0
  1 32  1  0  0  0  0
  1 33  1  0  0  0  0
  2  3  1  0  0  0  0
  2  4  1  0  0  0  0
  2 34  1  0  0  0  0
  3 35  1  0  0  0  0
  3 36  1  0  0  0  0
  3 37  1  0  0  0  0
  4  5  1  0  0  0  0
  4 38  1  0  0  0  0
  4 39  1  0  0  0  0
  5  6  1  0  0  0  0
  5 14  1  0  0  0  0
  6  7  2  0  0  0  0
  6 40  1  0  0  0  0
  7  8  1  0  0  0  0
  7 16  1  0  0  0  0
  8  9  1  0  0  0  0
  8 13  2  0  0  0  0
  9 10  2  0  0  0  0
  9 41  1  0  0  0  0
 10 11  1  0  0  0  0
 10 42  1  0  0  0  0
 11 12  2  0  0  0  0
 11 43  1  0  0  0  0
 12 13  1  0  0  0  0
 12 44  1  0  0  0  0
 13 14  1  0  0  0  0
 14 15  2  0  0  0  0
 16 17  1  0  0  0  0
 16 45  1  0  0  0  0
 17 18  2  0  0  0  0
 17 19  1  0  0  0  0
 19 20  1  0  0  0  0
 19 46  1  0  0  0  0
 20 21  1  0  0  0  0
 20 47  1  0  0  0  0
 20 48  1  0  0  0  0
 21 22  1  0  0  0  0
 21 26  2  0  0  0  0
 22 23  2  0  0  0  0
 22 49  1  0  0  0  0
 23 24  1  0  0  0  0
 23 29  1  0  0  0  0
 24 25  2  0  0  0  0
 24 50  1  0  0  0  0
 25 26  1  0  0  0  0
 25 51  1  0  0  0  0
 26 27  1  0  0  0  0
 27 28  1  0  0  0  0
 28 52  1  0  0  0  0
 28 53  1  0  0  0  0
 28 54  1  0  0  0  0
 29 30  1  0  0  0  0
 30 55  1  0  0  0  0
 30 56  1  0  0  0  0
 30 57  1  0  0  0  0
M  END
$$$$
