
 OpenBabel07202414203D

 54 57  0  0  1  0  0  0  0  0999 V2000
    2.3832    0.3428   -0.0150 O   0  0  0  0  0  0  0  0  0  0  0  0
    3.4170   -0.0423    0.9034 C   0  0  1  0  0  0  0  0  0  0  0  0
    3.8442   -1.4946    0.5871 C   0  0  0  0  0  0  0  0  0  0  0  0
    2.7156   -2.4421    0.6968 N   0  0  0  0  0  0  0  0  0  0  0  0
    2.9866   -3.8100    0.4848 C   0  0  0  0  0  0  0  0  0  0  0  0
    4.2562   -4.3079    0.1861 C   0  0  0  0  0  0  0  0  0  0  0  0
    4.4685   -5.6751    0.0342 C   0  0  0  0  0  0  0  0  0  0  0  0
    6.0389   -6.2582   -0.3565 Cl  0  0  0  0  0  0  0  0  0  0  0  0
    3.4229   -6.5740    0.2155 C   0  0  0  0  0  0  0  0  0  0  0  0
    2.1417   -6.1149    0.5332 C   0  0  0  0  0  0  0  0  0  0  0  0
    1.0400   -7.1021    0.8349 C   0  0  0  0  0  0  0  0  0  0  0  0
   -0.2067   -6.9920   -0.0241 C   0  0  0  0  0  0  0  0  0  0  0  0
   -1.3209   -7.1620    0.4687 O   0  0  0  0  0  0  0  0  0  0  0  0
    0.0249   -6.8194   -1.3757 N   0  0  0  0  0  0  0  0  0  0  0  0
   -1.0282   -6.7195   -2.3114 C   0  0  0  0  0  0  0  0  0  0  0  0
   -2.1431   -5.9202   -2.0485 C   0  0  0  0  0  0  0  0  0  0  0  0
   -3.1735   -5.7320   -2.9084 N   0  0  0  0  0  0  0  0  0  0  0  0
   -3.0945   -6.4042   -4.0800 C   0  0  0  0  0  0  0  0  0  0  0  0
   -2.0576   -7.2555   -4.4400 C   0  0  0  0  0  0  0  0  0  0  0  0
   -2.0712   -7.9605   -5.6581 C   0  0  0  0  0  0  0  0  0  0  0  0
   -1.0362   -8.8404   -5.9804 C   0  0  0  0  0  0  0  0  0  0  0  0
    0.0192   -9.0298   -5.0989 C   0  0  0  0  0  0  0  0  0  0  0  0
    0.0524   -8.3181   -3.8937 C   0  0  0  0  0  0  0  0  0  0  0  0
   -0.9712   -7.4156   -3.5408 C   0  0  0  0  0  0  0  0  0  0  0  0
    1.9347   -4.7295    0.6579 C   0  0  0  0  0  0  0  0  0  0  0  0
    4.5849    0.9326    0.8336 C   0  0  0  0  0  0  0  0  0  0  0  0
    4.5808    2.0261   -0.0485 C   0  0  0  0  0  0  0  0  0  0  0  0
    5.6362    2.9426   -0.0728 C   0  0  0  0  0  0  0  0  0  0  0  0
    6.7135    2.7678    0.7864 C   0  0  0  0  0  0  0  0  0  0  0  0
    7.7528    3.6497    0.8096 O   0  0  0  0  0  0  0  0  0  0  0  0
    6.7550    1.6890    1.6576 C   0  0  0  0  0  0  0  0  0  0  0  0
    5.6935    0.7790    1.6876 C   0  0  0  0  0  0  0  0  0  0  0  0
    1.5898   -0.1421    0.2493 H   0  0  0  0  0  0  0  0  0  0  0  0
    2.9826    0.0214    1.9093 H   0  0  0  0  0  0  0  0  0  0  0  0
    4.6267   -1.7952    1.2935 H   0  0  0  0  0  0  0  0  0  0  0  0
    4.2481   -1.5328   -0.4319 H   0  0  0  0  0  0  0  0  0  0  0  0
    1.9165   -2.1710    0.1262 H   0  0  0  0  0  0  0  0  0  0  0  0
    5.1018   -3.6485    0.0532 H   0  0  0  0  0  0  0  0  0  0  0  0
    3.6219   -7.6455    0.1320 H   0  0  0  0  0  0  0  0  0  0  0  0
    0.7389   -6.9639    1.8799 H   0  0  0  0  0  0  0  0  0  0  0  0
    1.4059   -8.1342    0.7442 H   0  0  0  0  0  0  0  0  0  0  0  0
    0.9401   -7.0632   -1.7236 H   0  0  0  0  0  0  0  0  0  0  0  0
   -2.2330   -5.3600   -1.1216 H   0  0  0  0  0  0  0  0  0  0  0  0
   -3.9521   -6.2506   -4.7293 H   0  0  0  0  0  0  0  0  0  0  0  0
   -2.9006   -7.8411   -6.3556 H   0  0  0  0  0  0  0  0  0  0  0  0
   -1.0726   -9.3973   -6.9159 H   0  0  0  0  0  0  0  0  0  0  0  0
    0.8102   -9.7304   -5.3387 H   0  0  0  0  0  0  0  0  0  0  0  0
    0.8805   -8.5262   -3.2241 H   0  0  0  0  0  0  0  0  0  0  0  0
    0.9450   -4.3605    0.9286 H   0  0  0  0  0  0  0  0  0  0  0  0
    3.7399    2.1835   -0.7223 H   0  0  0  0  0  0  0  0  0  0  0  0
    5.5920    3.7805   -0.7614 H   0  0  0  0  0  0  0  0  0  0  0  0
    7.5435    4.3864    0.2120 H   0  0  0  0  0  0  0  0  0  0  0  0
    7.6050    1.5637    2.3226 H   0  0  0  0  0  0  0  0  0  0  0  0
    5.7412   -0.0437    2.3982 H   0  0  0  0  0  0  0  0  0  0  0  0
  1  2  1  0  0  0  0
  1 33  1  0  0  0  0
  2  3  1  0  0  0  0
  2 26  1  0  0  0  0
  2 34  1  1  0  0  0
  3  4  1  0  0  0  0
  3 35  1  0  0  0  0
  3 36  1  0  0  0  0
  4  5  1  0  0  0  0
  4 37  1  0  0  0  0
  5  6  1  0  0  0  0
  5 25  2  0  0  0  0
  6  7  2  0  0  0  0
  6 38  1  0  0  0  0
  7  8  1  0  0  0  0
  7  9  1  0  0  0  0
  9 10  2  0  0  0  0
  9 39  1  0  0  0  0
 10 11  1  0  0  0  0
 10 25  1  0  0  0  0
 11 12  1  0  0  0  0
 11 40  1  0  0  0  0
 11 41  1  0  0  0  0
 12 13  2  0  0  0  0
 12 14  1  0  0  0  0
 14 15  1  0  0  0  0
 14 42  1  0  0  0  0
 15 16  1  0  0  0  0
 15 24  2  0  0  0  0
 16 17  2  0  0  0  0
 16 43  1  0  0  0  0
 17 18  1  0  0  0  0
 18 19  2  0  0  0  0
 18 44  1  0  0  0  0
 19 20  1  0  0  0  0
 19 24  1  0  0  0  0
 20 21  2  0  0  0  0
 20 45  1  0  0  0  0
 21 22  1  0  0  0  0
 21 46  1  0  0  0  0
 22 23  2  0  0  0  0
 22 47  1  0  0  0  0
 23 24  1  0  0  0  0
 23 48  1  0  0  0  0
 25 49  1  0  0  0  0
 26 27  1  0  0  0  0
 26 32  2  0  0  0  0
 27 28  2  0  0  0  0
 27 50  1  0  0  0  0
 28 29  1  0  0  0  0
 28 51  1  0  0  0  0
 29 30  1  0  0  0  0
 29 31  2  0  0  0  0
 30 52  1  0  0  0  0
 31 32  1  0  0  0  0
 31 53  1  0  0  0  0
 32 54  1  0  0  0  0
M  END
$$$$
