
 OpenBabel07202414203D

 50 53  0  0  1  0  0  0  0  0999 V2000
    1.4770    0.4143    1.2662 O   0  0  0  0  0  0  0  0  0  0  0  0
    2.6999    0.1498    0.5827 C   0  0  0  0  0  0  0  0  0  0  0  0
    3.2943   -1.1290    1.1355 C   0  0  0  0  0  0  0  0  0  0  0  0
    4.8704   -1.4653    0.3611 S   0  0  0  0  0  0  0  0  0  0  0  0
    4.6716   -1.6077   -1.0657 O   0  0  0  0  0  0  0  0  0  0  0  0
    5.8361   -0.5245    0.8799 O   0  0  0  0  0  0  0  0  0  0  0  0
    5.3139   -3.0007    0.9496 N   0  0  0  0  0  0  0  0  0  0  0  0
    4.6009   -4.1808    0.3766 C   0  0  0  0  0  0  0  0  0  0  0  0
    5.3381   -5.4866    0.7119 C   0  0  3  0  0  0  0  0  0  0  0  0
    6.5675   -5.7862   -0.1660 C   0  0  0  0  0  0  0  0  0  0  0  0
    6.8801   -6.9572   -0.3800 O   0  0  0  0  0  0  0  0  0  0  0  0
    7.2596   -4.6848   -0.6303 N   0  0  0  0  0  0  0  0  0  0  0  0
    8.4655   -4.6722   -1.3895 C   0  0  0  0  0  0  0  0  0  0  0  0
    9.1803   -5.8297   -1.7039 C   0  0  0  0  0  0  0  0  0  0  0  0
   10.4164   -5.8463   -2.2602 N   0  0  0  0  0  0  0  0  0  0  0  0
   10.9550   -4.6499   -2.5665 C   0  0  0  0  0  0  0  0  0  0  0  0
   10.2966   -3.4310   -2.4257 C   0  0  0  0  0  0  0  0  0  0  0  0
   10.8803   -2.2370   -2.8893 C   0  0  0  0  0  0  0  0  0  0  0  0
   10.1961   -1.0284   -2.7959 C   0  0  0  0  0  0  0  0  0  0  0  0
    8.9365   -0.9984   -2.2152 C   0  0  0  0  0  0  0  0  0  0  0  0
    8.3595   -2.1769   -1.7314 C   0  0  0  0  0  0  0  0  0  0  0  0
    9.0150   -3.4302   -1.8240 C   0  0  0  0  0  0  0  0  0  0  0  0
    5.6491   -5.5935    2.1935 C   0  0  0  0  0  0  0  0  0  0  0  0
    5.8170   -6.8544    2.7928 C   0  0  0  0  0  0  0  0  0  0  0  0
    6.0614   -6.9588    4.1620 C   0  0  0  0  0  0  0  0  0  0  0  0
    6.2081   -8.5094    4.8923 Cl  0  0  0  0  0  0  0  0  0  0  0  0
    6.1649   -5.8162    4.9482 C   0  0  0  0  0  0  0  0  0  0  0  0
    6.0102   -4.5603    4.3627 C   0  0  0  0  0  0  0  0  0  0  0  0
    5.7455   -4.4378    2.9872 C   0  0  0  0  0  0  0  0  0  0  0  0
    5.4814   -3.0613    2.4261 C   0  0  0  0  0  0  0  0  0  0  0  0
    1.1136    1.2409    0.8994 H   0  0  0  0  0  0  0  0  0  0  0  0
    3.3718    1.0005    0.7358 H   0  0  0  0  0  0  0  0  0  0  0  0
    2.4859    0.0603   -0.4866 H   0  0  0  0  0  0  0  0  0  0  0  0
    2.6225   -1.9733    0.9629 H   0  0  0  0  0  0  0  0  0  0  0  0
    3.4498   -1.0201    2.2126 H   0  0  0  0  0  0  0  0  0  0  0  0
    4.5294   -4.0859   -0.7125 H   0  0  0  0  0  0  0  0  0  0  0  0
    3.5819   -4.2114    0.7805 H   0  0  0  0  0  0  0  0  0  0  0  0
    4.6225   -6.2863    0.4671 H   0  0  0  0  0  0  0  0  0  0  0  0
    6.9273   -3.7804   -0.3117 H   0  0  0  0  0  0  0  0  0  0  0  0
    8.7988   -6.8253   -1.5069 H   0  0  0  0  0  0  0  0  0  0  0  0
   11.9669   -4.7030   -2.9609 H   0  0  0  0  0  0  0  0  0  0  0  0
   11.8632   -2.2481   -3.3565 H   0  0  0  0  0  0  0  0  0  0  0  0
   10.6383   -0.1166   -3.1885 H   0  0  0  0  0  0  0  0  0  0  0  0
    8.3866   -0.0625   -2.1466 H   0  0  0  0  0  0  0  0  0  0  0  0
    7.3591   -2.0940   -1.3208 H   0  0  0  0  0  0  0  0  0  0  0  0
    5.7419   -7.7592    2.1911 H   0  0  0  0  0  0  0  0  0  0  0  0
    6.3537   -5.8959    6.0156 H   0  0  0  0  0  0  0  0  0  0  0  0
    6.0778   -3.6742    4.9926 H   0  0  0  0  0  0  0  0  0  0  0  0
    6.3090   -2.4034    2.7127 H   0  0  0  0  0  0  0  0  0  0  0  0
    4.5630   -2.7127    2.9093 H   0  0  0  0  0  0  0  0  0  0  0  0
  1  2  1  0  0  0  0
  1 31  1  0  0  0  0
  2  3  1  0  0  0  0
  2 32  1  0  0  0  0
  2 33  1  0  0  0  0
  3  4  1  0  0  0  0
  3 34  1  0  0  0  0
  3 35  1  0  0  0  0
  4  5  2  0  0  0  0
  4  6  2  0  0  0  0
  4  7  1  0  0  0  0
  7  8  1  0  0  0  0
  7 30  1  0  0  0  0
  8  9  1  0  0  0  0
  8 36  1  0  0  0  0
  8 37  1  0  0  0  0
  9 10  1  0  0  0  0
  9 23  1  0  0  0  0
  9 38  1  0  0  0  0
 10 11  2  0  0  0  0
 10 12  1  0  0  0  0
 12 13  1  0  0  0  0
 12 39  1  0  0  0  0
 13 14  1  0  0  0  0
 13 22  2  0  0  0  0
 14 15  2  0  0  0  0
 14 40  1  0  0  0  0
 15 16  1  0  0  0  0
 16 17  2  0  0  0  0
 16 41  1  0  0  0  0
 17 18  1  0  0  0  0
 17 22  1  0  0  0  0
 18 19  2  0  0  0  0
 18 42  1  0  0  0  0
 19 20  1  0  0  0  0
 19 43  1  0  0  0  0
 20 21  2  0  0  0  0
 20 44  1  0  0  0  0
 21 22  1  0  0  0  0
 21 45  1  0  0  0  0
 23 24  1  0  0  0  0
 23 29  2  0  0  0  0
 24 25  2  0  0  0  0
 24 46  1  0  0  0  0
 25 26  1  0  0  0  0
 25 27  1  0  0  0  0
 27 28  2  0  0  0  0
 27 47  1  0  0  0  0
 28 29  1  0  0  0  0
 28 48  1  0  0  0  0
 29 30  1  0  0  0  0
 30 49  1  0  0  0  0
 30 50  1  0  0  0  0
M  END
$$$$
