
 OpenBabel07202414143D

 42 45  0  0  1  0  0  0  0  0999 V2000
    1.2278    0.7611    0.0210 C   0  0  0  0  0  0  0  0  0  0  0  0
    2.6662    0.7427   -0.1328 N   0  0  0  0  0  0  0  0  0  0  0  0
    3.4121   -0.5013   -0.1542 C   0  0  2  0  0  0  0  0  0  0  0  0
    3.4222   -1.3747    1.0993 C   0  0  0  0  0  0  0  0  0  0  0  0
    3.9721   -0.7670    2.3663 C   0  0  0  0  0  0  0  0  0  0  0  0
    3.1276   -0.1097    3.2709 C   0  0  0  0  0  0  0  0  0  0  0  0
    3.6356    0.4338    4.4525 C   0  0  0  0  0  0  0  0  0  0  0  0
    4.9917    0.3186    4.7476 C   0  0  0  0  0  0  0  0  0  0  0  0
    5.8382   -0.3514    3.8675 C   0  0  0  0  0  0  0  0  0  0  0  0
    5.3322   -0.8916    2.6832 C   0  0  0  0  0  0  0  0  0  0  0  0
    4.7656   -0.0238   -0.6576 C   0  0  0  0  0  0  0  0  0  0  0  0
    5.7769   -0.7176   -0.7003 O   0  0  0  0  0  0  0  0  0  0  0  0
    4.6012    1.2590   -1.1347 N   0  0  0  0  0  0  0  0  0  0  0  0
    5.5334    1.9234   -1.9569 C   0  0  0  0  0  0  0  0  0  0  0  0
    6.0313    3.1642   -1.5663 C   0  0  0  0  0  0  0  0  0  0  0  0
    7.0245    3.8180   -2.2079 N   0  0  0  0  0  0  0  0  0  0  0  0
    7.4906    3.2442   -3.3403 C   0  0  0  0  0  0  0  0  0  0  0  0
    6.9745    2.0791   -3.9091 C   0  0  0  0  0  0  0  0  0  0  0  0
    7.3990    1.6293   -5.1744 C   0  0  0  0  0  0  0  0  0  0  0  0
    6.8149    0.5113   -5.7663 C   0  0  0  0  0  0  0  0  0  0  0  0
    5.8333   -0.1935   -5.0830 C   0  0  0  0  0  0  0  0  0  0  0  0
    5.4273    0.2273   -3.8135 C   0  0  0  0  0  0  0  0  0  0  0  0
    5.9747    1.3804   -3.1949 C   0  0  0  0  0  0  0  0  0  0  0  0
    3.3665    1.7565   -0.7956 C   0  0  0  0  0  0  0  0  0  0  0  0
    2.9123    2.8550   -1.0764 O   0  0  0  0  0  0  0  0  0  0  0  0
    0.8028   -0.0891   -0.5200 H   0  0  0  0  0  0  0  0  0  0  0  0
    0.8046    1.6827   -0.3866 H   0  0  0  0  0  0  0  0  0  0  0  0
    0.9785    0.6817    1.0804 H   0  0  0  0  0  0  0  0  0  0  0  0
    2.9978   -1.0955   -0.9794 H   0  0  0  0  0  0  0  0  0  0  0  0
    2.3986   -1.7184    1.2995 H   0  0  0  0  0  0  0  0  0  0  0  0
    3.9929   -2.2894    0.8866 H   0  0  0  0  0  0  0  0  0  0  0  0
    2.0623   -0.0263    3.0735 H   0  0  0  0  0  0  0  0  0  0  0  0
    2.9713    0.9436    5.1457 H   0  0  0  0  0  0  0  0  0  0  0  0
    5.3878    0.7456    5.6654 H   0  0  0  0  0  0  0  0  0  0  0  0
    6.8941   -0.4567    4.1039 H   0  0  0  0  0  0  0  0  0  0  0  0
    6.0102   -1.4225    2.0165 H   0  0  0  0  0  0  0  0  0  0  0  0
    5.6640    3.6671   -0.6748 H   0  0  0  0  0  0  0  0  0  0  0  0
    8.3064    3.7848   -3.8137 H   0  0  0  0  0  0  0  0  0  0  0  0
    8.1594    2.1768   -5.7278 H   0  0  0  0  0  0  0  0  0  0  0  0
    7.1143    0.2017   -6.7645 H   0  0  0  0  0  0  0  0  0  0  0  0
    5.3678   -1.0625   -5.5418 H   0  0  0  0  0  0  0  0  0  0  0  0
    4.6391   -0.3417   -3.3291 H   0  0  0  0  0  0  0  0  0  0  0  0
  1  2  1  0  0  0  0
  1 26  1  0  0  0  0
  1 27  1  0  0  0  0
  1 28  1  0  0  0  0
  2  3  1  0  0  0  0
  2 24  1  0  0  0  0
  3 11  1  0  0  0  0
  3  4  1  0  0  0  0
  3 29  1  6  0  0  0
  4  5  1  0  0  0  0
  4 30  1  0  0  0  0
  4 31  1  0  0  0  0
  5  6  1  0  0  0  0
  5 10  2  0  0  0  0
  6  7  2  0  0  0  0
  6 32  1  0  0  0  0
  7  8  1  0  0  0  0
  7 33  1  0  0  0  0
  8  9  2  0  0  0  0
  8 34  1  0  0  0  0
  9 10  1  0  0  0  0
  9 35  1  0  0  0  0
 10 36  1  0  0  0  0
 11 12  2  0  0  0  0
 11 13  1  0  0  0  0
 13 14  1  0  0  0  0
 13 24  1  0  0  0  0
 14 15  1  0  0  0  0
 14 23  2  0  0  0  0
 15 16  2  0  0  0  0
 15 37  1  0  0  0  0
 16 17  1  0  0  0  0
 17 18  2  0  0  0  0
 17 38  1  0  0  0  0
 18 19  1  0  0  0  0
 18 23  1  0  0  0  0
 19 20  2  0  0  0  0
 19 39  1  0  0  0  0
 20 21  1  0  0  0  0
 20 40  1  0  0  0  0
 21 22  2  0  0  0  0
 21 41  1  0  0  0  0
 22 23  1  0  0  0  0
 22 42  1  0  0  0  0
 24 25  2  0  0  0  0
M  END
$$$$
