
 OpenBabel07202414193D

 41 44  0  0  0  0  0  0  0  0999 V2000
    1.0507    0.1888    0.2551 O   0  0  0  0  0  0  0  0  0  0  0  0
    2.2669    0.0839    0.1364 C   0  0  0  0  0  0  0  0  0  0  0  0
    3.0227    1.0294   -0.5323 N   0  0  0  0  0  0  0  0  0  0  0  0
    2.3672    2.1870   -1.1182 C   0  0  0  0  0  0  0  0  0  0  0  0
    3.3304    3.2252   -1.6941 C   0  0  0  0  0  0  0  0  0  0  0  0
    4.2138    3.8712   -0.6692 C   0  0  0  0  0  0  0  0  0  0  0  0
    3.7949    4.6015    0.4266 C   0  0  0  0  0  0  0  0  0  0  0  0
    4.8987    5.0383    1.1065 N   0  0  0  0  0  0  0  0  0  0  0  0
    6.0437    4.6228    0.4687 C   0  0  0  0  0  0  0  0  0  0  0  0
    7.3871    4.8511    0.7961 C   0  0  0  0  0  0  0  0  0  0  0  0
    8.3575    4.3087   -0.0490 C   0  0  0  0  0  0  0  0  0  0  0  0
    7.9858    3.5727   -1.1658 C   0  0  0  0  0  0  0  0  0  0  0  0
    8.9384    3.0662   -1.9611 F   0  0  0  0  0  0  0  0  0  0  0  0
    6.6466    3.3479   -1.4854 C   0  0  0  0  0  0  0  0  0  0  0  0
    5.6470    3.8852   -0.6497 C   0  0  0  0  0  0  0  0  0  0  0  0
    2.9892   -1.0731    0.7280 C   0  0  0  0  0  0  0  0  0  0  0  0
    4.2364   -0.8553    1.3077 C   0  0  0  0  0  0  0  0  0  0  0  0
    4.9612   -1.8054    1.9401 N   0  0  0  0  0  0  0  0  0  0  0  0
    4.3941   -3.0293    2.0276 C   0  0  0  0  0  0  0  0  0  0  0  0
    3.1462   -3.3705    1.5006 C   0  0  0  0  0  0  0  0  0  0  0  0
    2.6220   -4.6684    1.6513 C   0  0  0  0  0  0  0  0  0  0  0  0
    1.3826   -5.0033    1.1139 C   0  0  0  0  0  0  0  0  0  0  0  0
    0.6593   -4.0488    0.4114 C   0  0  0  0  0  0  0  0  0  0  0  0
    1.1695   -2.7552    0.2603 C   0  0  0  0  0  0  0  0  0  0  0  0
    2.4172   -2.3721    0.8127 C   0  0  0  0  0  0  0  0  0  0  0  0
    4.0094    0.8876   -0.7084 H   0  0  0  0  0  0  0  0  0  0  0  0
    1.7204    2.6356   -0.3546 H   0  0  0  0  0  0  0  0  0  0  0  0
    1.7138    1.8155   -1.9164 H   0  0  0  0  0  0  0  0  0  0  0  0
    2.7444    4.0128   -2.1851 H   0  0  0  0  0  0  0  0  0  0  0  0
    3.9400    2.7572   -2.4752 H   0  0  0  0  0  0  0  0  0  0  0  0
    2.8018    4.8468    0.7811 H   0  0  0  0  0  0  0  0  0  0  0  0
    4.8809    5.5961    1.9494 H   0  0  0  0  0  0  0  0  0  0  0  0
    7.6694    5.4310    1.6690 H   0  0  0  0  0  0  0  0  0  0  0  0
    9.4122    4.4613    0.1602 H   0  0  0  0  0  0  0  0  0  0  0  0
    6.3988    2.7747   -2.3717 H   0  0  0  0  0  0  0  0  0  0  0  0
    4.7021    0.1267    1.3114 H   0  0  0  0  0  0  0  0  0  0  0  0
    4.9964   -3.7612    2.5623 H   0  0  0  0  0  0  0  0  0  0  0  0
    3.1783   -5.4281    2.1969 H   0  0  0  0  0  0  0  0  0  0  0  0
    0.9802   -6.0046    1.2440 H   0  0  0  0  0  0  0  0  0  0  0  0
   -0.3080   -4.2999   -0.0163 H   0  0  0  0  0  0  0  0  0  0  0  0
    0.5661   -2.0418   -0.2988 H   0  0  0  0  0  0  0  0  0  0  0  0
  1  2  2  0  0  0  0
  2  3  1  0  0  0  0
  2 16  1  0  0  0  0
  3  4  1  0  0  0  0
  3 26  1  0  0  0  0
  4  5  1  0  0  0  0
  4 27  1  0  0  0  0
  4 28  1  0  0  0  0
  5  6  1  0  0  0  0
  5 29  1  0  0  0  0
  5 30  1  0  0  0  0
  6  7  2  0  0  0  0
  6 15  1  0  0  0  0
  7  8  1  0  0  0  0
  7 31  1  0  0  0  0
  8  9  1  0  0  0  0
  8 32  1  0  0  0  0
  9 10  1  0  0  0  0
  9 15  2  0  0  0  0
 10 11  2  0  0  0  0
 10 33  1  0  0  0  0
 11 12  1  0  0  0  0
 11 34  1  0  0  0  0
 12 13  1  0  0  0  0
 12 14  2  0  0  0  0
 14 15  1  0  0  0  0
 14 35  1  0  0  0  0
 16 17  1  0  0  0  0
 16 25  2  0  0  0  0
 17 18  2  0  0  0  0
 17 36  1  0  0  0  0
 18 19  1  0  0  0  0
 19 20  2  0  0  0  0
 19 37  1  0  0  0  0
 20 21  1  0  0  0  0
 20 25  1  0  0  0  0
 21 22  2  0  0  0  0
 21 38  1  0  0  0  0
 22 23  1  0  0  0  0
 22 39  1  0  0  0  0
 23 24  2  0  0  0  0
 23 40  1  0  0  0  0
 24 25  1  0  0  0  0
 24 41  1  0  0  0  0
M  END
$$$$
