
 OpenBabel07202414143D

 60 65  0  0  1  0  0  0  0  0999 V2000
    7.9480    6.1421    0.7615 C   0  0  0  0  0  0  0  0  0  0  0  0
    7.2041    6.2618    1.9637 O   0  0  0  0  0  0  0  0  0  0  0  0
    6.4874    5.0719    2.3672 C   0  0  3  0  0  0  0  0  0  0  0  0
    5.3178    4.5915    1.4705 C   0  0  0  0  0  0  0  0  0  0  0  0
    4.4892    4.3629    2.6834 N   0  0  0  0  0  0  0  0  0  0  0  0
    3.9929    2.8583    3.2370 S   0  0  0  0  0  0  0  0  0  0  0  0
    3.2818    2.1496    2.1999 O   0  0  0  0  0  0  0  0  0  0  0  0
    5.1069    2.2388    3.9100 O   0  0  0  0  0  0  0  0  0  0  0  0
    2.9073    3.3520    4.4112 N   0  0  0  0  0  0  0  0  0  0  0  0
    2.1218    2.2645    5.0111 C   0  0  0  0  0  0  0  0  0  0  0  0
    0.7594    2.0770    4.3758 C   0  0  0  0  0  0  0  0  0  0  0  0
    0.0639    0.8869    4.6548 C   0  0  0  0  0  0  0  0  0  0  0  0
   -1.2074    0.6620    4.1286 C   0  0  0  0  0  0  0  0  0  0  0  0
   -1.7898    1.6252    3.3157 C   0  0  0  0  0  0  0  0  0  0  0  0
   -3.3707    1.3705    2.6855 Cl  0  0  0  0  0  0  0  0  0  0  0  0
   -1.1160    2.8129    3.0281 C   0  0  0  0  0  0  0  0  0  0  0  0
    0.1624    3.0718    3.5627 C   0  0  0  0  0  0  0  0  0  0  0  0
    0.8612    4.4208    3.3175 C   0  0  3  0  0  0  0  0  0  0  0  0
   -0.0757    5.5885    3.7043 C   0  0  0  0  0  0  0  0  0  0  0  0
   -0.5865    6.1927    2.4175 C   0  0  0  0  0  0  0  0  0  0  0  0
    0.0885    5.5407    1.3340 N   0  0  0  0  0  0  0  0  0  0  0  0
   -0.4757    5.4538    0.0071 C   0  0  0  0  0  0  0  0  0  0  0  0
   -0.1261    4.3938   -0.8369 C   0  0  0  0  0  0  0  0  0  0  0  0
   -0.8573    3.9712   -1.8971 N   0  0  0  0  0  0  0  0  0  0  0  0
   -1.9649    4.6782   -2.1841 C   0  0  0  0  0  0  0  0  0  0  0  0
   -2.3113    5.8724   -1.5624 C   0  0  0  0  0  0  0  0  0  0  0  0
   -3.3880    6.6446   -2.0408 C   0  0  0  0  0  0  0  0  0  0  0  0
   -3.7051    7.8685   -1.4592 C   0  0  0  0  0  0  0  0  0  0  0  0
   -2.9529    8.3299   -0.3924 C   0  0  0  0  0  0  0  0  0  0  0  0
   -1.8849    7.5668    0.0837 C   0  0  0  0  0  0  0  0  0  0  0  0
   -1.5410    6.2992   -0.4532 C   0  0  0  0  0  0  0  0  0  0  0  0
    1.1160    4.7090    1.8144 C   0  0  0  0  0  0  0  0  0  0  0  0
    2.0242    4.2793    1.1261 O   0  0  0  0  0  0  0  0  0  0  0  0
    2.1011    4.5715    4.2059 C   0  0  0  0  0  0  0  0  0  0  0  0
    5.3946    5.2812    3.4357 C   0  0  0  0  0  0  0  0  0  0  0  0
    8.5132    7.0645    0.6107 H   0  0  0  0  0  0  0  0  0  0  0  0
    7.2680    6.0009   -0.0831 H   0  0  0  0  0  0  0  0  0  0  0  0
    8.6429    5.3005    0.8286 H   0  0  0  0  0  0  0  0  0  0  0  0
    7.1791    4.2650    2.6397 H   0  0  0  0  0  0  0  0  0  0  0  0
    5.5090    3.6945    0.8777 H   0  0  0  0  0  0  0  0  0  0  0  0
    4.8764    5.3656    0.8318 H   0  0  0  0  0  0  0  0  0  0  0  0
    1.9767    2.4996    6.0743 H   0  0  0  0  0  0  0  0  0  0  0  0
    2.6840    1.3223    4.9832 H   0  0  0  0  0  0  0  0  0  0  0  0
    0.5101    0.1240    5.2919 H   0  0  0  0  0  0  0  0  0  0  0  0
   -1.7320   -0.2626    4.3535 H   0  0  0  0  0  0  0  0  0  0  0  0
   -1.6125    3.5403    2.3916 H   0  0  0  0  0  0  0  0  0  0  0  0
    0.4565    6.3761    4.2548 H   0  0  0  0  0  0  0  0  0  0  0  0
   -0.9043    5.2859    4.3551 H   0  0  0  0  0  0  0  0  0  0  0  0
   -0.2919    7.2458    2.4050 H   0  0  0  0  0  0  0  0  0  0  0  0
   -1.6724    6.0907    2.3479 H   0  0  0  0  0  0  0  0  0  0  0  0
    0.7520    3.7766   -0.6695 H   0  0  0  0  0  0  0  0  0  0  0  0
   -2.5787    4.2496   -2.9737 H   0  0  0  0  0  0  0  0  0  0  0  0
   -3.9671    6.3106   -2.9003 H   0  0  0  0  0  0  0  0  0  0  0  0
   -4.5139    8.4743   -1.8568 H   0  0  0  0  0  0  0  0  0  0  0  0
   -3.1731    9.2929    0.0610 H   0  0  0  0  0  0  0  0  0  0  0  0
   -1.2848    8.0262    0.8588 H   0  0  0  0  0  0  0  0  0  0  0  0
    1.7799    4.8544    5.2229 H   0  0  0  0  0  0  0  0  0  0  0  0
    2.7135    5.4204    3.8916 H   0  0  0  0  0  0  0  0  0  0  0  0
    5.6341    4.9506    4.4487 H   0  0  0  0  0  0  0  0  0  0  0  0
    4.9807    6.2952    3.4782 H   0  0  0  0  0  0  0  0  0  0  0  0
  1  2  1  0  0  0  0
  1 36  1  0  0  0  0
  1 37  1  0  0  0  0
  1 38  1  0  0  0  0
  2  3  1  0  0  0  0
  3  4  1  0  0  0  0
  3 35  1  0  0  0  0
  3 39  1  0  0  0  0
  4  5  1  0  0  0  0
  4 40  1  0  0  0  0
  4 41  1  0  0  0  0
  5  6  1  0  0  0  0
  5 35  1  0  0  0  0
  6  7  2  0  0  0  0
  6  8  2  0  0  0  0
  6  9  1  0  0  0  0
  9 10  1  0  0  0  0
  9 34  1  0  0  0  0
 10 11  1  0  0  0  0
 10 42  1  0  0  0  0
 10 43  1  0  0  0  0
 11 12  1  0  0  0  0
 11 17  2  0  0  0  0
 12 13  2  0  0  0  0
 12 44  1  0  0  0  0
 13 14  1  0  0  0  0
 13 45  1  0  0  0  0
 14 15  1  0  0  0  0
 14 16  2  0  0  0  0
 16 17  1  0  0  0  0
 16 46  1  0  0  0  0
 17 18  1  0  0  0  0
 18 19  1  0  0  0  0
 18 32  1  0  0  0  0
 18 34  1  0  0  0  0
 19 20  1  0  0  0  0
 19 47  1  0  0  0  0
 19 48  1  0  0  0  0
 20 21  1  0  0  0  0
 20 49  1  0  0  0  0
 20 50  1  0  0  0  0
 21 22  1  0  0  0  0
 21 32  1  0  0  0  0
 22 23  1  0  0  0  0
 22 31  2  0  0  0  0
 23 24  2  0  0  0  0
 23 51  1  0  0  0  0
 24 25  1  0  0  0  0
 25 26  2  0  0  0  0
 25 52  1  0  0  0  0
 26 27  1  0  0  0  0
 26 31  1  0  0  0  0
 27 28  2  0  0  0  0
 27 53  1  0  0  0  0
 28 29  1  0  0  0  0
 28 54  1  0  0  0  0
 29 30  2  0  0  0  0
 29 55  1  0  0  0  0
 30 31  1  0  0  0  0
 30 56  1  0  0  0  0
 32 33  2  0  0  0  0
 34 57  1  0  0  0  0
 34 58  1  0  0  0  0
 35 59  1  0  0  0  0
 35 60  1  0  0  0  0
M  END
$$$$
