
 OpenBabel07202414153D

 38 40  0  0  0  0  0  0  0  0999 V2000
    8.5833   -3.1702    3.9831 C   0  0  0  0  0  0  0  0  0  0  0  0
    8.8403   -1.8085    3.6573 O   0  0  0  0  0  0  0  0  0  0  0  0
    7.8667   -0.9054    3.9843 C   0  0  0  0  0  0  0  0  0  0  0  0
    6.6865   -1.1867    4.6693 C   0  0  0  0  0  0  0  0  0  0  0  0
    5.7625   -0.1690    4.9356 C   0  0  0  0  0  0  0  0  0  0  0  0
    6.0062    1.1510    4.5329 C   0  0  0  0  0  0  0  0  0  0  0  0
    4.9871    2.2512    4.7281 C   0  0  0  0  0  0  0  0  0  0  0  0
    4.1076    2.0968    5.9586 C   0  0  0  0  0  0  0  0  0  0  0  0
    3.0139    1.5421    5.8815 O   0  0  0  0  0  0  0  0  0  0  0  0
    4.6823    2.6020    7.1165 N   0  0  0  0  0  0  0  0  0  0  0  0
    4.1417    2.5351    8.4267 C   0  0  0  0  0  0  0  0  0  0  0  0
    2.8335    2.1084    8.6769 C   0  0  0  0  0  0  0  0  0  0  0  0
    2.2981    1.9292    9.9074 N   0  0  0  0  0  0  0  0  0  0  0  0
    3.0870    2.2385   10.9510 C   0  0  0  0  0  0  0  0  0  0  0  0
    4.3673    2.7748   10.8427 C   0  0  0  0  0  0  0  0  0  0  0  0
    5.0720    3.1739   11.9908 C   0  0  0  0  0  0  0  0  0  0  0  0
    6.3472    3.7210   11.8906 C   0  0  0  0  0  0  0  0  0  0  0  0
    6.9481    3.8278   10.6427 C   0  0  0  0  0  0  0  0  0  0  0  0
    6.2563    3.4242    9.4934 C   0  0  0  0  0  0  0  0  0  0  0  0
    4.9360    2.9112    9.5529 C   0  0  0  0  0  0  0  0  0  0  0  0
    7.1921    1.4234    3.8367 C   0  0  0  0  0  0  0  0  0  0  0  0
    8.1133    0.4044    3.5721 C   0  0  0  0  0  0  0  0  0  0  0  0
    9.4633   -3.7557    3.7000 H   0  0  0  0  0  0  0  0  0  0  0  0
    7.7284   -3.5532    3.4154 H   0  0  0  0  0  0  0  0  0  0  0  0
    8.4341   -3.3016    5.0594 H   0  0  0  0  0  0  0  0  0  0  0  0
    6.4429   -2.1898    5.0029 H   0  0  0  0  0  0  0  0  0  0  0  0
    4.8392   -0.4364    5.4496 H   0  0  0  0  0  0  0  0  0  0  0  0
    4.3313    2.2811    3.8481 H   0  0  0  0  0  0  0  0  0  0  0  0
    5.4874    3.2267    4.7811 H   0  0  0  0  0  0  0  0  0  0  0  0
    5.6313    2.9358    7.0272 H   0  0  0  0  0  0  0  0  0  0  0  0
    2.1288    1.8996    7.8812 H   0  0  0  0  0  0  0  0  0  0  0  0
    2.6340    2.0449   11.9222 H   0  0  0  0  0  0  0  0  0  0  0  0
    4.6186    3.0862   12.9781 H   0  0  0  0  0  0  0  0  0  0  0  0
    6.8700    4.0588   12.7809 H   0  0  0  0  0  0  0  0  0  0  0  0
    7.9531    4.2358   10.5578 H   0  0  0  0  0  0  0  0  0  0  0  0
    6.7824    3.5316    8.5484 H   0  0  0  0  0  0  0  0  0  0  0  0
    7.4038    2.4274    3.4750 H   0  0  0  0  0  0  0  0  0  0  0  0
    9.0249    0.6318    3.0234 H   0  0  0  0  0  0  0  0  0  0  0  0
  1  2  1  0  0  0  0
  1 23  1  0  0  0  0
  1 24  1  0  0  0  0
  1 25  1  0  0  0  0
  2  3  1  0  0  0  0
  3  4  1  0  0  0  0
  3 22  2  0  0  0  0
  4  5  2  0  0  0  0
  4 26  1  0  0  0  0
  5  6  1  0  0  0  0
  5 27  1  0  0  0  0
  6  7  1  0  0  0  0
  6 21  2  0  0  0  0
  7  8  1  0  0  0  0
  7 28  1  0  0  0  0
  7 29  1  0  0  0  0
  8  9  2  0  0  0  0
  8 10  1  0  0  0  0
 10 11  1  0  0  0  0
 10 30  1  0  0  0  0
 11 12  1  0  0  0  0
 11 20  2  0  0  0  0
 12 13  2  0  0  0  0
 12 31  1  0  0  0  0
 13 14  1  0  0  0  0
 14 15  2  0  0  0  0
 14 32  1  0  0  0  0
 15 16  1  0  0  0  0
 15 20  1  0  0  0  0
 16 17  2  0  0  0  0
 16 33  1  0  0  0  0
 17 18  1  0  0  0  0
 17 34  1  0  0  0  0
 18 19  2  0  0  0  0
 18 35  1  0  0  0  0
 19 20  1  0  0  0  0
 19 36  1  0  0  0  0
 21 22  1  0  0  0  0
 21 37  1  0  0  0  0
 22 38  1  0  0  0  0
M  END
$$$$
