
 OpenBabel07202414173D

 43 47  0  0  1  0  0  0  0  0999 V2000
    0.9585    0.0155    0.0495 Cl  0  0  0  0  0  0  0  0  0  0  0  0
    2.6753   -0.1050    0.0558 C   0  0  0  0  0  0  0  0  0  0  0  0
    3.4375    1.0582    0.0671 C   0  0  0  0  0  0  0  0  0  0  0  0
    4.8234    0.9591    0.0622 C   0  0  0  0  0  0  0  0  0  0  0  0
    5.4415   -0.2968    0.0547 C   0  0  0  0  0  0  0  0  0  0  0  0
    4.6903   -1.4894    0.0343 C   0  0  0  0  0  0  0  0  0  0  0  0
    3.2872   -1.3667    0.0441 C   0  0  0  0  0  0  0  0  0  0  0  0
    5.3933   -2.8541    0.0127 C   0  0  3  0  0  0  0  0  0  0  0  0
    6.8716   -2.6215   -0.3763 C   0  0  0  0  0  0  0  0  0  0  0  0
    7.4681   -1.4509    0.3706 C   0  0  0  0  0  0  0  0  0  0  0  0
    6.8067   -0.2402    0.0326 O   0  0  0  0  0  0  0  0  0  0  0  0
    4.8486   -3.8386   -1.0291 C   0  0  0  0  0  0  0  0  0  0  0  0
    4.3705   -5.0141   -0.3774 N   0  0  0  0  0  0  0  0  0  0  0  0
    3.9155   -6.1747   -1.0910 C   0  0  0  0  0  0  0  0  0  0  0  0
    3.6551   -7.3616   -0.3992 C   0  0  0  0  0  0  0  0  0  0  0  0
    2.9715   -8.4003   -0.9187 N   0  0  0  0  0  0  0  0  0  0  0  0
    2.6952   -8.3315   -2.2326 C   0  0  0  0  0  0  0  0  0  0  0  0
    3.3125   -7.4297   -3.1068 C   0  0  0  0  0  0  0  0  0  0  0  0
    3.4544   -7.7073   -4.4839 C   0  0  0  0  0  0  0  0  0  0  0  0
    4.0725   -6.7884   -5.3259 C   0  0  0  0  0  0  0  0  0  0  0  0
    4.3186   -5.5281   -4.8465 C   0  0  0  0  0  0  0  0  0  0  0  0
    4.1061   -5.2486   -3.4983 C   0  0  0  0  0  0  0  0  0  0  0  0
    3.7957   -6.2450   -2.5319 C   0  0  0  0  0  0  0  0  0  0  0  0
    4.3131   -4.8246    1.0152 C   0  0  0  0  0  0  0  0  0  0  0  0
    3.7408   -5.4800    1.8405 O   0  0  0  0  0  0  0  0  0  0  0  0
    5.2034   -3.6227    1.3316 C   0  0  0  0  0  0  0  0  0  0  0  0
    2.9664    2.0376    0.0807 H   0  0  0  0  0  0  0  0  0  0  0  0
    5.4320    1.8593    0.0702 H   0  0  0  0  0  0  0  0  0  0  0  0
    2.6507   -2.2501    0.0394 H   0  0  0  0  0  0  0  0  0  0  0  0
    6.9267   -2.3828   -1.4500 H   0  0  0  0  0  0  0  0  0  0  0  0
    7.4709   -3.5256   -0.2189 H   0  0  0  0  0  0  0  0  0  0  0  0
    8.5130   -1.3324    0.0715 H   0  0  0  0  0  0  0  0  0  0  0  0
    7.4432   -1.5954    1.4569 H   0  0  0  0  0  0  0  0  0  0  0  0
    5.6484   -4.1567   -1.7086 H   0  0  0  0  0  0  0  0  0  0  0  0
    4.0096   -3.3898   -1.5657 H   0  0  0  0  0  0  0  0  0  0  0  0
    3.9888   -7.5310    0.6194 H   0  0  0  0  0  0  0  0  0  0  0  0
    1.8821   -8.9585   -2.5701 H   0  0  0  0  0  0  0  0  0  0  0  0
    3.1798   -8.6789   -4.8859 H   0  0  0  0  0  0  0  0  0  0  0  0
    4.3201   -7.0382   -6.3548 H   0  0  0  0  0  0  0  0  0  0  0  0
    4.7205   -4.7447   -5.4877 H   0  0  0  0  0  0  0  0  0  0  0  0
    4.2292   -4.2094   -3.2522 H   0  0  0  0  0  0  0  0  0  0  0  0
    6.1532   -4.0398    1.6952 H   0  0  0  0  0  0  0  0  0  0  0  0
    4.7477   -3.0229    2.1265 H   0  0  0  0  0  0  0  0  0  0  0  0
  1  2  1  0  0  0  0
  2  3  1  0  0  0  0
  2  7  2  0  0  0  0
  3  4  2  0  0  0  0
  3 27  1  0  0  0  0
  4  5  1  0  0  0  0
  4 28  1  0  0  0  0
  5  6  2  0  0  0  0
  5 11  1  0  0  0  0
  6  7  1  0  0  0  0
  6  8  1  0  0  0  0
  7 29  1  0  0  0  0
  8  9  1  0  0  0  0
  8 12  1  0  0  0  0
  8 26  1  0  0  0  0
  9 10  1  0  0  0  0
  9 30  1  0  0  0  0
  9 31  1  0  0  0  0
 10 11  1  0  0  0  0
 10 32  1  0  0  0  0
 10 33  1  0  0  0  0
 12 13  1  0  0  0  0
 12 34  1  0  0  0  0
 12 35  1  0  0  0  0
 13 14  1  0  0  0  0
 13 24  1  0  0  0  0
 14 15  1  0  0  0  0
 14 23  2  0  0  0  0
 15 16  2  0  0  0  0
 15 36  1  0  0  0  0
 16 17  1  0  0  0  0
 17 18  2  0  0  0  0
 17 37  1  0  0  0  0
 18 19  1  0  0  0  0
 18 23  1  0  0  0  0
 19 20  2  0  0  0  0
 19 38  1  0  0  0  0
 20 21  1  0  0  0  0
 20 39  1  0  0  0  0
 21 22  2  0  0  0  0
 21 40  1  0  0  0  0
 22 23  1  0  0  0  0
 22 41  1  0  0  0  0
 24 25  2  0  0  0  0
 24 26  1  0  0  0  0
 26 42  1  0  0  0  0
 26 43  1  0  0  0  0
M  END
$$$$
