
 OpenBabel07202414203D

 56 60  0  0  1  0  0  0  0  0999 V2000
   -3.3971   -6.4930   -1.9208 C   0  0  0  0  0  0  0  0  0  0  0  0
   -3.0557   -5.8656   -0.7248 C   0  0  0  0  0  0  0  0  0  0  0  0
   -3.7879   -4.7600   -0.2841 C   0  0  0  0  0  0  0  0  0  0  0  0
   -4.8731   -4.2597   -1.0267 C   0  0  0  0  0  0  0  0  0  0  0  0
   -5.2116   -4.9087   -2.2230 C   0  0  0  0  0  0  0  0  0  0  0  0
   -4.4746   -6.0168   -2.6666 C   0  0  0  0  0  0  0  0  0  0  0  0
   -5.5924   -3.0780   -0.5464 C   0  0  0  0  0  0  0  0  0  0  0  0
   -5.1894   -2.4052    0.5868 N   0  0  0  0  0  0  0  0  0  0  0  0
   -6.0136   -1.3849    0.7536 N   0  0  0  0  0  0  0  0  0  0  0  0
   -6.8508   -1.4373   -0.2998 N   0  0  0  0  0  0  0  0  0  0  0  0
   -6.6939   -2.5275   -1.0987 N   0  0  0  0  0  0  0  0  0  0  0  0
   -8.0712   -0.6506   -0.2857 C   0  0  0  0  0  0  0  0  0  0  0  0
   -7.9569    0.6563   -1.0368 C   0  0  0  0  0  0  0  0  0  0  0  0
   -6.9462    1.0055   -1.6447 O   0  0  0  0  0  0  0  0  0  0  0  0
   -9.0461    1.4967   -1.0525 N   0  0  0  0  0  0  0  0  0  0  0  0
  -10.3376    1.3599   -0.3756 C   0  0  3  0  0  0  0  0  0  0  0  0
  -10.2673    1.9256    1.0351 C   0  0  0  0  0  0  0  0  0  0  0  0
  -10.0277    3.2929    1.2589 C   0  0  0  0  0  0  0  0  0  0  0  0
  -10.0339    3.8153    2.5552 C   0  0  0  0  0  0  0  0  0  0  0  0
  -10.2771    2.9805    3.6447 C   0  0  0  0  0  0  0  0  0  0  0  0
  -10.4999    1.6230    3.4345 C   0  0  0  0  0  0  0  0  0  0  0  0
  -10.4920    1.0925    2.1431 C   0  0  0  0  0  0  0  0  0  0  0  0
  -10.8140    0.5879    4.7716 Cl  0  0  0  0  0  0  0  0  0  0  0  0
  -11.5121    2.0227   -1.1789 C   0  0  0  0  0  0  0  0  0  0  0  0
  -11.3005    2.6839   -2.1917 O   0  0  0  0  0  0  0  0  0  0  0  0
  -12.7624    1.7632   -0.6205 N   0  0  0  0  0  0  0  0  0  0  0  0
  -14.0465    2.1525   -1.1002 C   0  0  0  0  0  0  0  0  0  0  0  0
  -14.2277    2.8737   -2.2812 C   0  0  0  0  0  0  0  0  0  0  0  0
  -15.4321    3.2325   -2.7885 N   0  0  0  0  0  0  0  0  0  0  0  0
  -16.5221    2.8550   -2.0911 C   0  0  0  0  0  0  0  0  0  0  0  0
  -16.4863    2.1411   -0.8959 C   0  0  0  0  0  0  0  0  0  0  0  0
  -15.2209    1.7813   -0.3676 C   0  0  0  0  0  0  0  0  0  0  0  0
  -15.2356    1.0704    0.8634 C   0  0  0  0  0  0  0  0  0  0  0  0
  -16.4276    0.7303    1.5155 C   0  0  0  0  0  0  0  0  0  0  0  0
  -17.6497    1.0851    0.9641 C   0  0  0  0  0  0  0  0  0  0  0  0
  -17.6798    1.7886   -0.2357 C   0  0  0  0  0  0  0  0  0  0  0  0
   -2.8207   -7.3470   -2.2682 H   0  0  0  0  0  0  0  0  0  0  0  0
   -2.2142   -6.2292   -0.1376 H   0  0  0  0  0  0  0  0  0  0  0  0
   -3.4951   -4.2845    0.6511 H   0  0  0  0  0  0  0  0  0  0  0  0
   -6.0435   -4.5535   -2.8275 H   0  0  0  0  0  0  0  0  0  0  0  0
   -4.7369   -6.5083   -3.5997 H   0  0  0  0  0  0  0  0  0  0  0  0
   -8.3059   -0.4434    0.7632 H   0  0  0  0  0  0  0  0  0  0  0  0
   -8.8666   -1.2611   -0.7225 H   0  0  0  0  0  0  0  0  0  0  0  0
   -8.9104    2.3417   -1.6022 H   0  0  0  0  0  0  0  0  0  0  0  0
  -10.5662    0.2890   -0.3347 H   0  0  0  0  0  0  0  0  0  0  0  0
   -9.8447    3.9700    0.4241 H   0  0  0  0  0  0  0  0  0  0  0  0
   -9.8547    4.8769    2.7154 H   0  0  0  0  0  0  0  0  0  0  0  0
  -10.2915    3.3940    4.6501 H   0  0  0  0  0  0  0  0  0  0  0  0
  -10.6681    0.0275    2.0101 H   0  0  0  0  0  0  0  0  0  0  0  0
  -12.7603    1.2559    0.2515 H   0  0  0  0  0  0  0  0  0  0  0  0
  -13.3984    3.2062   -2.8960 H   0  0  0  0  0  0  0  0  0  0  0  0
  -17.4665    3.1577   -2.5390 H   0  0  0  0  0  0  0  0  0  0  0  0
  -14.3173    0.7674    1.3553 H   0  0  0  0  0  0  0  0  0  0  0  0
  -16.3961    0.1879    2.4579 H   0  0  0  0  0  0  0  0  0  0  0  0
  -18.5765    0.8188    1.4666 H   0  0  0  0  0  0  0  0  0  0  0  0
  -18.6465    2.0628   -0.6556 H   0  0  0  0  0  0  0  0  0  0  0  0
  1  2  1  0  0  0  0
  1  6  2  0  0  0  0
  1 37  1  0  0  0  0
  2  3  2  0  0  0  0
  2 38  1  0  0  0  0
  3  4  1  0  0  0  0
  3 39  1  0  0  0  0
  4  5  2  0  0  0  0
  4  7  1  0  0  0  0
  5  6  1  0  0  0  0
  5 40  1  0  0  0  0
  6 41  1  0  0  0  0
  7  8  1  0  0  0  0
  7 11  2  0  0  0  0
  8  9  2  0  0  0  0
  9 10  1  0  0  0  0
 10 11  1  0  0  0  0
 10 12  1  0  0  0  0
 12 13  1  0  0  0  0
 12 42  1  0  0  0  0
 12 43  1  0  0  0  0
 13 14  2  0  0  0  0
 13 15  1  0  0  0  0
 15 16  1  0  0  0  0
 15 44  1  0  0  0  0
 16 17  1  0  0  0  0
 16 24  1  0  0  0  0
 16 45  1  0  0  0  0
 17 18  1  0  0  0  0
 17 22  2  0  0  0  0
 18 19  2  0  0  0  0
 18 46  1  0  0  0  0
 19 20  1  0  0  0  0
 19 47  1  0  0  0  0
 20 21  2  0  0  0  0
 20 48  1  0  0  0  0
 21 22  1  0  0  0  0
 21 23  1  0  0  0  0
 22 49  1  0  0  0  0
 24 25  2  0  0  0  0
 24 26  1  0  0  0  0
 26 27  1  0  0  0  0
 26 50  1  0  0  0  0
 27 28  1  0  0  0  0
 27 32  2  0  0  0  0
 28 29  2  0  0  0  0
 28 51  1  0  0  0  0
 29 30  1  0  0  0  0
 30 31  2  0  0  0  0
 30 52  1  0  0  0  0
 31 32  1  0  0  0  0
 31 36  1  0  0  0  0
 32 33  1  0  0  0  0
 33 34  2  0  0  0  0
 33 53  1  0  0  0  0
 34 35  1  0  0  0  0
 34 54  1  0  0  0  0
 35 36  2  0  0  0  0
 35 55  1  0  0  0  0
 36 56  1  0  0  0  0
M  END
$$$$
