
 OpenBabel07202414183D

 40 44  0  0  1  0  0  0  0  0999 V2000
    1.5620    0.2741    3.3561 F   0  0  0  0  0  0  0  0  0  0  0  0
    2.6871    0.2161    2.6362 C   0  0  0  0  0  0  0  0  0  0  0  0
    3.4876    1.3424    2.5353 C   0  0  0  0  0  0  0  0  0  0  0  0
    4.6836    1.2700    1.8232 C   0  0  0  0  0  0  0  0  0  0  0  0
    5.0992    0.0769    1.2009 C   0  0  0  0  0  0  0  0  0  0  0  0
    6.3472   -0.0911    0.5391 C   0  0  0  0  0  0  0  0  0  0  0  0
    7.2066    1.0210    0.4114 N   0  0  0  0  0  0  0  0  0  0  0  0
    8.5978    1.0390    0.5013 C   0  0  0  0  0  0  0  0  0  0  0  0
    9.2790    0.0581    0.8067 O   0  0  0  0  0  0  0  0  0  0  0  0
    9.1379    2.4445    0.0896 C   0  0  3  0  0  0  0  0  0  0  0  0
    8.9064    2.5041   -1.5341 C   0  0  0  0  0  0  0  0  0  0  0  0
    9.6145    3.8459   -1.3868 C   0  0  3  0  0  0  0  0  0  0  0  0
   10.5200    2.9984   -0.3302 C   0  0  0  0  0  0  0  0  0  0  0  0
    8.6010    4.8542   -0.9867 O   0  0  0  0  0  0  0  0  0  0  0  0
    7.9613    4.6370    0.2362 C   0  0  0  0  0  0  0  0  0  0  0  0
    7.1834    5.6408    0.7838 C   0  0  0  0  0  0  0  0  0  0  0  0
    7.3860    5.9246    2.1250 C   0  0  0  0  0  0  0  0  0  0  0  0
    8.3401    5.1872    2.8283 C   0  0  0  0  0  0  0  0  0  0  0  0
    9.0215    5.8557    4.2626 Cl  0  0  0  0  0  0  0  0  0  0  0  0
    8.8504    3.9938    2.2960 C   0  0  0  0  0  0  0  0  0  0  0  0
    8.5234    3.6167    0.9877 C   0  0  0  0  0  0  0  0  0  0  0  0
    6.6491   -1.3239   -0.0330 C   0  0  0  0  0  0  0  0  0  0  0  0
    5.8202   -2.3942    0.0012 N   0  0  0  0  0  0  0  0  0  0  0  0
    4.6571   -2.2317    0.6785 C   0  0  0  0  0  0  0  0  0  0  0  0
    4.2512   -1.0505    1.2932 C   0  0  0  0  0  0  0  0  0  0  0  0
    3.0416   -0.9693    2.0192 C   0  0  0  0  0  0  0  0  0  0  0  0
    3.1971    2.2603    3.0375 H   0  0  0  0  0  0  0  0  0  0  0  0
    5.3006    2.1657    1.7948 H   0  0  0  0  0  0  0  0  0  0  0  0
    6.7460    1.9213    0.3461 H   0  0  0  0  0  0  0  0  0  0  0  0
    7.8726    2.5488   -1.8836 H   0  0  0  0  0  0  0  0  0  0  0  0
    9.4456    1.7468   -2.1179 H   0  0  0  0  0  0  0  0  0  0  0  0
   10.1772    4.2057   -2.2494 H   0  0  0  0  0  0  0  0  0  0  0  0
   11.0693    3.5832    0.4170 H   0  0  0  0  0  0  0  0  0  0  0  0
   11.2152    2.2615   -0.7515 H   0  0  0  0  0  0  0  0  0  0  0  0
    6.5631    6.2746    0.1599 H   0  0  0  0  0  0  0  0  0  0  0  0
    6.9209    6.8014    2.5653 H   0  0  0  0  0  0  0  0  0  0  0  0
    9.6278    3.4536    2.8355 H   0  0  0  0  0  0  0  0  0  0  0  0
    7.5561   -1.4774   -0.6119 H   0  0  0  0  0  0  0  0  0  0  0  0
    4.0434   -3.1349    0.7112 H   0  0  0  0  0  0  0  0  0  0  0  0
    2.3867   -1.8311    2.1191 H   0  0  0  0  0  0  0  0  0  0  0  0
  1  2  1  0  0  0  0
  2  3  1  0  0  0  0
  2 26  2  0  0  0  0
  3  4  2  0  0  0  0
  3 27  1  0  0  0  0
  4  5  1  0  0  0  0
  4 28  1  0  0  0  0
  5  6  1  0  0  0  0
  5 25  2  0  0  0  0
  6  7  1  0  0  0  0
  6 22  2  0  0  0  0
  7  8  1  0  0  0  0
  7 29  1  0  0  0  0
  8  9  2  0  0  0  0
  8 10  1  0  0  0  0
 10 11  1  0  0  0  0
 10 13  1  0  0  0  0
 10 21  1  0  0  0  0
 11 12  1  0  0  0  0
 11 30  1  0  0  0  0
 11 31  1  0  0  0  0
 12 13  1  0  0  0  0
 12 14  1  0  0  0  0
 12 32  1  0  0  0  0
 13 33  1  0  0  0  0
 13 34  1  0  0  0  0
 14 15  1  0  0  0  0
 15 16  1  0  0  0  0
 15 21  2  0  0  0  0
 16 17  2  0  0  0  0
 16 35  1  0  0  0  0
 17 18  1  0  0  0  0
 17 36  1  0  0  0  0
 18 19  1  0  0  0  0
 18 20  2  0  0  0  0
 20 21  1  0  0  0  0
 20 37  1  0  0  0  0
 22 23  1  0  0  0  0
 22 38  1  0  0  0  0
 23 24  2  0  0  0  0
 24 25  1  0  0  0  0
 24 39  1  0  0  0  0
 25 26  1  0  0  0  0
 26 40  1  0  0  0  0
M  END
$$$$
