
 OpenBabel07202414123D

 56 58  0  0  0  0  0  0  0  0999 V2000
    2.9525    0.4910    1.4132 C   0  0  0  0  0  0  0  0  0  0  0  0
    2.5068    0.0608    0.0158 C   0  0  0  0  0  0  0  0  0  0  0  0
    0.9844   -0.0268   -0.0613 C   0  0  0  0  0  0  0  0  0  0  0  0
    3.0569    1.0094   -1.0789 C   0  0  0  0  0  0  0  0  0  0  0  0
    4.5287    1.0483   -1.1452 N   0  0  0  0  0  0  0  0  0  0  0  0
    5.1861   -0.1433   -1.3484 C   0  0  0  0  0  0  0  0  0  0  0  0
    6.5151   -0.3258   -1.2786 C   0  0  0  0  0  0  0  0  0  0  0  0
    7.3421    0.9067   -1.1678 C   0  0  0  0  0  0  0  0  0  0  0  0
    8.7429    0.9098   -1.2862 C   0  0  0  0  0  0  0  0  0  0  0  0
    9.4640    2.1129   -1.3130 C   0  0  0  0  0  0  0  0  0  0  0  0
    8.8071    3.3354   -1.2060 C   0  0  0  0  0  0  0  0  0  0  0  0
    7.4253    3.3592   -1.0523 C   0  0  0  0  0  0  0  0  0  0  0  0
    6.6983    2.1575   -1.0378 C   0  0  0  0  0  0  0  0  0  0  0  0
    5.2133    2.2372   -0.9352 C   0  0  0  0  0  0  0  0  0  0  0  0
    4.6716    3.3121   -0.6933 O   0  0  0  0  0  0  0  0  0  0  0  0
    7.0912   -1.5959   -1.3039 N   0  0  0  0  0  0  0  0  0  0  0  0
    6.4050   -2.7900   -1.4508 C   0  0  0  0  0  0  0  0  0  0  0  0
    5.1977   -2.9047   -1.6538 O   0  0  0  0  0  0  0  0  0  0  0  0
    7.1799   -3.9145   -1.3367 N   0  0  0  0  0  0  0  0  0  0  0  0
    6.4995   -5.1813   -1.5786 C   0  0  0  0  0  0  0  0  0  0  0  0
    7.3591   -6.4345   -1.4653 C   0  0  0  0  0  0  0  0  0  0  0  0
    8.0179   -6.6387   -0.1219 C   0  0  0  0  0  0  0  0  0  0  0  0
    9.3517   -6.7785   -0.0211 C   0  0  0  0  0  0  0  0  0  0  0  0
   10.0632   -7.0717    1.2670 C   0  0  0  0  0  0  0  0  0  0  0  0
    9.1230   -7.5272    2.3830 C   0  0  0  0  0  0  0  0  0  0  0  0
    7.8637   -6.6748    2.4181 C   0  0  0  0  0  0  0  0  0  0  0  0
    7.1101   -6.7448    1.0852 C   0  0  0  0  0  0  0  0  0  0  0  0
    2.5415   -0.1826    2.1728 H   0  0  0  0  0  0  0  0  0  0  0  0
    2.6180    1.5083    1.6411 H   0  0  0  0  0  0  0  0  0  0  0  0
    4.0425    0.4579    1.5081 H   0  0  0  0  0  0  0  0  0  0  0  0
    2.8835   -0.9572   -0.1427 H   0  0  0  0  0  0  0  0  0  0  0  0
    0.5234    0.9664   -0.0521 H   0  0  0  0  0  0  0  0  0  0  0  0
    0.5816   -0.5976    0.7835 H   0  0  0  0  0  0  0  0  0  0  0  0
    0.6761   -0.5384   -0.9794 H   0  0  0  0  0  0  0  0  0  0  0  0
    2.6641    2.0199   -0.9243 H   0  0  0  0  0  0  0  0  0  0  0  0
    2.7039    0.6818   -2.0665 H   0  0  0  0  0  0  0  0  0  0  0  0
    4.5074   -0.9658   -1.5133 H   0  0  0  0  0  0  0  0  0  0  0  0
    9.3057   -0.0098   -1.4022 H   0  0  0  0  0  0  0  0  0  0  0  0
   10.5448    2.0964   -1.4414 H   0  0  0  0  0  0  0  0  0  0  0  0
    9.3641    4.2684   -1.2552 H   0  0  0  0  0  0  0  0  0  0  0  0
    6.9076    4.3139   -0.9739 H   0  0  0  0  0  0  0  0  0  0  0  0
    8.0749   -1.6721   -1.1124 H   0  0  0  0  0  0  0  0  0  0  0  0
    8.1835   -3.8667   -1.4213 H   0  0  0  0  0  0  0  0  0  0  0  0
    6.0761   -5.1364   -2.5899 H   0  0  0  0  0  0  0  0  0  0  0  0
    5.6465   -5.2404   -0.8911 H   0  0  0  0  0  0  0  0  0  0  0  0
    8.1115   -6.4139   -2.2633 H   0  0  0  0  0  0  0  0  0  0  0  0
    6.7218   -7.3055   -1.6706 H   0  0  0  0  0  0  0  0  0  0  0  0
    9.9764   -6.7111   -0.9077 H   0  0  0  0  0  0  0  0  0  0  0  0
   10.6034   -6.1689    1.5746 H   0  0  0  0  0  0  0  0  0  0  0  0
   10.8132   -7.8530    1.0934 H   0  0  0  0  0  0  0  0  0  0  0  0
    9.6408   -7.4764    3.3449 H   0  0  0  0  0  0  0  0  0  0  0  0
    8.8460   -8.5772    2.2234 H   0  0  0  0  0  0  0  0  0  0  0  0
    8.1330   -5.6317    2.6276 H   0  0  0  0  0  0  0  0  0  0  0  0
    7.2041   -7.0021    3.2282 H   0  0  0  0  0  0  0  0  0  0  0  0
    6.3654   -5.9421    1.0845 H   0  0  0  0  0  0  0  0  0  0  0  0
    6.5607   -7.6922    1.0253 H   0  0  0  0  0  0  0  0  0  0  0  0
  1  2  1  0  0  0  0
  1 28  1  0  0  0  0
  1 29  1  0  0  0  0
  1 30  1  0  0  0  0
  2  3  1  0  0  0  0
  2  4  1  0  0  0  0
  2 31  1  0  0  0  0
  3 32  1  0  0  0  0
  3 33  1  0  0  0  0
  3 34  1  0  0  0  0
  4  5  1  0  0  0  0
  4 35  1  0  0  0  0
  4 36  1  0  0  0  0
  5  6  1  0  0  0  0
  5 14  1  0  0  0  0
  6  7  2  0  0  0  0
  6 37  1  0  0  0  0
  7  8  1  0  0  0  0
  7 16  1  0  0  0  0
  8  9  1  0  0  0  0
  8 13  2  0  0  0  0
  9 10  2  0  0  0  0
  9 38  1  0  0  0  0
 10 11  1  0  0  0  0
 10 39  1  0  0  0  0
 11 12  2  0  0  0  0
 11 40  1  0  0  0  0
 12 13  1  0  0  0  0
 12 41  1  0  0  0  0
 13 14  1  0  0  0  0
 14 15  2  0  0  0  0
 16 17  1  0  0  0  0
 16 42  1  0  0  0  0
 17 18  2  0  0  0  0
 17 19  1  0  0  0  0
 19 20  1  0  0  0  0
 19 43  1  0  0  0  0
 20 21  1  0  0  0  0
 20 44  1  0  0  0  0
 20 45  1  0  0  0  0
 21 22  1  0  0  0  0
 21 46  1  0  0  0  0
 21 47  1  0  0  0  0
 22 23  2  0  0  0  0
 22 27  1  0  0  0  0
 23 24  1  0  0  0  0
 23 48  1  0  0  0  0
 24 25  1  0  0  0  0
 24 49  1  0  0  0  0
 24 50  1  0  0  0  0
 25 26  1  0  0  0  0
 25 51  1  0  0  0  0
 25 52  1  0  0  0  0
 26 27  1  0  0  0  0
 26 53  1  0  0  0  0
 26 54  1  0  0  0  0
 27 55  1  0  0  0  0
 27 56  1  0  0  0  0
M  END
$$$$
