
 OpenBabel07202414173D

 40 43  0  0  1  0  0  0  0  0999 V2000
    0.9306   -0.0405   -0.0793 Cl  0  0  0  0  0  0  0  0  0  0  0  0
    2.6446   -0.0920    0.0569 C   0  0  0  0  0  0  0  0  0  0  0  0
    3.3836    1.0798   -0.0914 C   0  0  0  0  0  0  0  0  0  0  0  0
    4.7784    1.0347   -0.0271 C   0  0  0  0  0  0  0  0  0  0  0  0
    5.4419   -0.1844    0.1941 C   0  0  0  0  0  0  0  0  0  0  0  0
    4.6876   -1.3633    0.3645 C   0  0  0  0  0  0  0  0  0  0  0  0
    3.2866   -1.3067    0.2949 C   0  0  0  0  0  0  0  0  0  0  0  0
    5.3900   -2.6882    0.5999 C   0  0  3  0  0  0  0  0  0  0  0  0
    5.2617   -3.1660    2.0603 C   0  0  0  0  0  0  0  0  0  0  0  0
    4.3217   -3.8851    2.3947 O   0  0  0  0  0  0  0  0  0  0  0  0
    6.2531   -2.6972    2.9045 N   0  0  0  0  0  0  0  0  0  0  0  0
    6.3944   -2.9008    4.3023 C   0  0  0  0  0  0  0  0  0  0  0  0
    5.4587   -3.6020    5.0636 C   0  0  0  0  0  0  0  0  0  0  0  0
    5.4745   -3.6867    6.4161 N   0  0  0  0  0  0  0  0  0  0  0  0
    6.4989   -3.0790    7.0460 C   0  0  0  0  0  0  0  0  0  0  0  0
    7.5594   -2.4477    6.4000 C   0  0  0  0  0  0  0  0  0  0  0  0
    8.6508   -1.9405    7.1302 C   0  0  0  0  0  0  0  0  0  0  0  0
    9.7289   -1.3473    6.4795 C   0  0  0  0  0  0  0  0  0  0  0  0
    9.7144   -1.2315    5.0967 C   0  0  0  0  0  0  0  0  0  0  0  0
    8.6253   -1.7166    4.3642 C   0  0  0  0  0  0  0  0  0  0  0  0
    7.5171   -2.3471    4.9885 C   0  0  0  0  0  0  0  0  0  0  0  0
    6.8506   -2.6345    0.1120 C   0  0  0  0  0  0  0  0  0  0  0  0
    7.5588   -1.4547    0.6454 N   0  0  0  0  0  0  0  0  0  0  0  0
    6.9521   -0.2180    0.1237 C   0  0  0  0  0  0  0  0  0  0  0  0
    2.8813    2.0248   -0.2739 H   0  0  0  0  0  0  0  0  0  0  0  0
    5.3417    1.9511   -0.1681 H   0  0  0  0  0  0  0  0  0  0  0  0
    2.6965   -2.2148    0.4083 H   0  0  0  0  0  0  0  0  0  0  0  0
    4.8919   -3.4528   -0.0134 H   0  0  0  0  0  0  0  0  0  0  0  0
    6.9147   -2.0623    2.4629 H   0  0  0  0  0  0  0  0  0  0  0  0
    4.6254   -4.1330    4.6169 H   0  0  0  0  0  0  0  0  0  0  0  0
    6.4480   -3.1276    8.1311 H   0  0  0  0  0  0  0  0  0  0  0  0
    8.6804   -2.0334    8.2145 H   0  0  0  0  0  0  0  0  0  0  0  0
   10.5821   -0.9884    7.0495 H   0  0  0  0  0  0  0  0  0  0  0  0
   10.5557   -0.7763    4.5800 H   0  0  0  0  0  0  0  0  0  0  0  0
    8.6816   -1.6218    3.2844 H   0  0  0  0  0  0  0  0  0  0  0  0
    6.8852   -2.6168   -0.9851 H   0  0  0  0  0  0  0  0  0  0  0  0
    7.3852   -3.5362    0.4319 H   0  0  0  0  0  0  0  0  0  0  0  0
    8.5262   -1.4804    0.3149 H   0  0  0  0  0  0  0  0  0  0  0  0
    7.2492   -0.0831   -0.9240 H   0  0  0  0  0  0  0  0  0  0  0  0
    7.3601    0.6227    0.6968 H   0  0  0  0  0  0  0  0  0  0  0  0
  1  2  1  0  0  0  0
  2  3  1  0  0  0  0
  2  7  2  0  0  0  0
  3  4  2  0  0  0  0
  3 25  1  0  0  0  0
  4  5  1  0  0  0  0
  4 26  1  0  0  0  0
  5  6  2  0  0  0  0
  5 24  1  0  0  0  0
  6  7  1  0  0  0  0
  6  8  1  0  0  0  0
  7 27  1  0  0  0  0
  8  9  1  0  0  0  0
  8 22  1  0  0  0  0
  8 28  1  0  0  0  0
  9 10  2  0  0  0  0
  9 11  1  0  0  0  0
 11 12  1  0  0  0  0
 11 29  1  0  0  0  0
 12 13  1  0  0  0  0
 12 21  2  0  0  0  0
 13 14  2  0  0  0  0
 13 30  1  0  0  0  0
 14 15  1  0  0  0  0
 15 16  2  0  0  0  0
 15 31  1  0  0  0  0
 16 17  1  0  0  0  0
 16 21  1  0  0  0  0
 17 18  2  0  0  0  0
 17 32  1  0  0  0  0
 18 19  1  0  0  0  0
 18 33  1  0  0  0  0
 19 20  2  0  0  0  0
 19 34  1  0  0  0  0
 20 21  1  0  0  0  0
 20 35  1  0  0  0  0
 22 23  1  0  0  0  0
 22 36  1  0  0  0  0
 22 37  1  0  0  0  0
 23 24  1  0  0  0  0
 23 38  1  0  0  0  0
 24 39  1  0  0  0  0
 24 40  1  0  0  0  0
M  END
$$$$
