
 OpenBabel07202414133D

 52 55  0  0  0  0  0  0  0  0999 V2000
    1.6673    0.5580   -0.2734 C   0  0  0  0  0  0  0  0  0  0  0  0
    2.6821   -0.4507   -0.5606 N   0  0  0  0  0  0  0  0  0  0  0  0
    3.0098   -0.6851   -1.9619 C   0  0  0  0  0  0  0  0  0  0  0  0
    3.3493   -1.1169    0.4643 C   0  0  0  0  0  0  0  0  0  0  0  0
    3.0185   -0.9470    1.8175 C   0  0  0  0  0  0  0  0  0  0  0  0
    3.6854   -1.6202    2.8569 C   0  0  0  0  0  0  0  0  0  0  0  0
    4.7461   -2.4764    2.5801 C   0  0  0  0  0  0  0  0  0  0  0  0
    5.4959   -3.0599    3.6582 N   0  0  0  0  0  0  0  0  0  0  0  0
    6.8152   -2.4729    3.9465 C   0  0  0  0  0  0  0  0  0  0  0  0
    6.8612   -0.9676    3.9908 C   0  0  0  0  0  0  0  0  0  0  0  0
    6.0226   -0.2528    4.8582 C   0  0  0  0  0  0  0  0  0  0  0  0
    6.0339    1.1405    4.8645 C   0  0  0  0  0  0  0  0  0  0  0  0
    6.9130    1.8298    4.0307 C   0  0  0  0  0  0  0  0  0  0  0  0
    7.7860    1.1278    3.2032 C   0  0  0  0  0  0  0  0  0  0  0  0
    7.7637   -0.2659    3.1826 C   0  0  0  0  0  0  0  0  0  0  0  0
    5.1541   -4.3521    4.0735 C   0  0  0  0  0  0  0  0  0  0  0  0
    4.0624   -4.8693    3.8150 O   0  0  0  0  0  0  0  0  0  0  0  0
    6.2008   -5.1721    4.7986 C   0  0  0  0  0  0  0  0  0  0  0  0
    6.2485   -5.0259    6.2434 N   0  0  0  0  0  0  0  0  0  0  0  0
    7.4742   -5.0544    6.8199 N   0  0  0  0  0  0  0  0  0  0  0  0
    7.3436   -5.6081    8.0175 N   0  0  0  0  0  0  0  0  0  0  0  0
    6.0139   -5.8399    8.2339 C   0  0  0  0  0  0  0  0  0  0  0  0
    5.3588   -6.4740    9.2994 C   0  0  0  0  0  0  0  0  0  0  0  0
    3.9609   -6.5414    9.2771 C   0  0  0  0  0  0  0  0  0  0  0  0
    3.2357   -5.9694    8.2290 C   0  0  0  0  0  0  0  0  0  0  0  0
    3.8770   -5.3774    7.1329 C   0  0  0  0  0  0  0  0  0  0  0  0
    5.2751   -5.3603    7.1554 C   0  0  0  0  0  0  0  0  0  0  0  0
    5.0949   -2.6907    1.2512 C   0  0  0  0  0  0  0  0  0  0  0  0
    4.3976   -2.0260    0.2185 C   0  0  0  0  0  0  0  0  0  0  0  0
    1.2530    0.9940   -1.1897 H   0  0  0  0  0  0  0  0  0  0  0  0
    2.0847    1.3885    0.3071 H   0  0  0  0  0  0  0  0  0  0  0  0
    0.8244    0.1196    0.2715 H   0  0  0  0  0  0  0  0  0  0  0  0
    2.3430   -0.1354   -2.6378 H   0  0  0  0  0  0  0  0  0  0  0  0
    2.9008   -1.7454   -2.2149 H   0  0  0  0  0  0  0  0  0  0  0  0
    4.0309   -0.3581   -2.1861 H   0  0  0  0  0  0  0  0  0  0  0  0
    2.2143   -0.2732    2.1091 H   0  0  0  0  0  0  0  0  0  0  0  0
    3.3813   -1.4367    3.8826 H   0  0  0  0  0  0  0  0  0  0  0  0
    7.5266   -2.8789    3.2165 H   0  0  0  0  0  0  0  0  0  0  0  0
    7.1493   -2.8116    4.9319 H   0  0  0  0  0  0  0  0  0  0  0  0
    5.3316   -0.7807    5.5135 H   0  0  0  0  0  0  0  0  0  0  0  0
    5.3537    1.6867    5.5125 H   0  0  0  0  0  0  0  0  0  0  0  0
    6.9153    2.9158    4.0269 H   0  0  0  0  0  0  0  0  0  0  0  0
    8.4819    1.6670    2.5671 H   0  0  0  0  0  0  0  0  0  0  0  0
    8.4504   -0.7974    2.5278 H   0  0  0  0  0  0  0  0  0  0  0  0
    7.2003   -4.9797    4.3945 H   0  0  0  0  0  0  0  0  0  0  0  0
    6.0062   -6.2351    4.6101 H   0  0  0  0  0  0  0  0  0  0  0  0
    5.9284   -6.9163   10.1094 H   0  0  0  0  0  0  0  0  0  0  0  0
    3.4351   -7.0419   10.0874 H   0  0  0  0  0  0  0  0  0  0  0  0
    2.1479   -6.0042    8.2515 H   0  0  0  0  0  0  0  0  0  0  0  0
    3.3037   -4.9588    6.3121 H   0  0  0  0  0  0  0  0  0  0  0  0
    5.8948   -3.3756    0.9863 H   0  0  0  0  0  0  0  0  0  0  0  0
    4.7159   -2.2344   -0.7997 H   0  0  0  0  0  0  0  0  0  0  0  0
  1  2  1  0  0  0  0
  1 30  1  0  0  0  0
  1 31  1  0  0  0  0
  1 32  1  0  0  0  0
  2  3  1  0  0  0  0
  2  4  1  0  0  0  0
  3 33  1  0  0  0  0
  3 34  1  0  0  0  0
  3 35  1  0  0  0  0
  4  5  1  0  0  0  0
  4 29  2  0  0  0  0
  5  6  2  0  0  0  0
  5 36  1  0  0  0  0
  6  7  1  0  0  0  0
  6 37  1  0  0  0  0
  7  8  1  0  0  0  0
  7 28  2  0  0  0  0
  8  9  1  0  0  0  0
  8 16  1  0  0  0  0
  9 10  1  0  0  0  0
  9 38  1  0  0  0  0
  9 39  1  0  0  0  0
 10 11  1  0  0  0  0
 10 15  2  0  0  0  0
 11 12  2  0  0  0  0
 11 40  1  0  0  0  0
 12 13  1  0  0  0  0
 12 41  1  0  0  0  0
 13 14  2  0  0  0  0
 13 42  1  0  0  0  0
 14 15  1  0  0  0  0
 14 43  1  0  0  0  0
 15 44  1  0  0  0  0
 16 17  2  0  0  0  0
 16 18  1  0  0  0  0
 18 19  1  0  0  0  0
 18 45  1  0  0  0  0
 18 46  1  0  0  0  0
 19 20  1  0  0  0  0
 19 27  1  0  0  0  0
 20 21  2  0  0  0  0
 21 22  1  0  0  0  0
 22 23  1  0  0  0  0
 22 27  2  0  0  0  0
 23 24  2  0  0  0  0
 23 47  1  0  0  0  0
 24 25  1  0  0  0  0
 24 48  1  0  0  0  0
 25 26  2  0  0  0  0
 25 49  1  0  0  0  0
 26 27  1  0  0  0  0
 26 50  1  0  0  0  0
 28 29  1  0  0  0  0
 28 51  1  0  0  0  0
 29 52  1  0  0  0  0
M  END
$$$$
