
 OpenBabel07202414143D

 49 52  0  0  1  0  0  0  0  0999 V2000
    1.8496    1.8384   -0.9283 C   0  0  0  0  0  0  0  0  0  0  0  0
    3.0809    1.1138   -0.7455 N   0  0  0  0  0  0  0  0  0  0  0  0
    3.3165   -0.0567   -1.4345 C   0  0  0  0  0  0  0  0  0  0  0  0
    2.4695   -0.5916   -2.1400 O   0  0  0  0  0  0  0  0  0  0  0  0
    4.6706   -0.6732   -1.1307 C   0  0  0  0  0  0  0  0  0  0  0  0
    5.2737   -1.5606   -2.2616 C   0  0  2  0  0  0  0  0  0  0  0  0
    5.5908   -0.6380   -3.4771 C   0  0  0  0  0  0  0  0  0  0  0  0
    5.4615    0.5815   -3.4096 O   0  0  0  0  0  0  0  0  0  0  0  0
    6.0910   -1.3060   -4.5862 N   0  0  0  0  0  0  0  0  0  0  0  0
    6.5049   -0.7607   -5.8318 C   0  0  0  0  0  0  0  0  0  0  0  0
    6.5000    0.6068   -6.1061 C   0  0  0  0  0  0  0  0  0  0  0  0
    7.0235    1.1661   -7.2234 N   0  0  0  0  0  0  0  0  0  0  0  0
    7.5391    0.3216   -8.1384 C   0  0  0  0  0  0  0  0  0  0  0  0
    7.5076   -1.0680   -8.0349 C   0  0  0  0  0  0  0  0  0  0  0  0
    7.9667   -1.8845   -9.0854 C   0  0  0  0  0  0  0  0  0  0  0  0
    7.8806   -3.2717   -8.9997 C   0  0  0  0  0  0  0  0  0  0  0  0
    7.3624   -3.8562   -7.8531 C   0  0  0  0  0  0  0  0  0  0  0  0
    6.9278   -3.0539   -6.7931 C   0  0  0  0  0  0  0  0  0  0  0  0
    6.9753   -1.6379   -6.8540 C   0  0  0  0  0  0  0  0  0  0  0  0
    4.3694   -2.7367   -2.7015 C   0  0  0  0  0  0  0  0  0  0  0  0
    4.1670   -3.6990   -1.5471 C   0  0  0  0  0  0  0  0  0  0  0  0
    5.3985   -4.3055   -1.1525 O   0  0  0  0  0  0  0  0  0  0  0  0
    6.4967   -3.4895   -1.1240 C   0  0  0  0  0  0  0  0  0  0  0  0
    7.6260   -4.0547   -0.5231 C   0  0  0  0  0  0  0  0  0  0  0  0
    8.8093   -3.3255   -0.4217 C   0  0  0  0  0  0  0  0  0  0  0  0
    8.8615   -2.0329   -0.9324 C   0  0  0  0  0  0  0  0  0  0  0  0
   10.3151   -1.1215   -0.7911 Cl  0  0  0  0  0  0  0  0  0  0  0  0
    7.7416   -1.4641   -1.5466 C   0  0  0  0  0  0  0  0  0  0  0  0
    6.5401   -2.1895   -1.6577 C   0  0  0  0  0  0  0  0  0  0  0  0
    1.9309    2.8026   -0.4196 H   0  0  0  0  0  0  0  0  0  0  0  0
    1.0288    1.2566   -0.4972 H   0  0  0  0  0  0  0  0  0  0  0  0
    1.6665    1.9915   -1.9942 H   0  0  0  0  0  0  0  0  0  0  0  0
    3.8509    1.5819   -0.2862 H   0  0  0  0  0  0  0  0  0  0  0  0
    4.5497   -1.2427   -0.2005 H   0  0  0  0  0  0  0  0  0  0  0  0
    5.3721    0.1372   -0.8878 H   0  0  0  0  0  0  0  0  0  0  0  0
    6.2829   -2.2891   -4.4593 H   0  0  0  0  0  0  0  0  0  0  0  0
    6.0776    1.3383   -5.4281 H   0  0  0  0  0  0  0  0  0  0  0  0
    7.9805    0.8125   -9.0028 H   0  0  0  0  0  0  0  0  0  0  0  0
    8.3694   -1.4396   -9.9941 H   0  0  0  0  0  0  0  0  0  0  0  0
    8.2044   -3.8919   -9.8306 H   0  0  0  0  0  0  0  0  0  0  0  0
    7.2833   -4.9394   -7.7820 H   0  0  0  0  0  0  0  0  0  0  0  0
    6.5094   -3.5732   -5.9359 H   0  0  0  0  0  0  0  0  0  0  0  0
    4.8441   -3.3078   -3.5101 H   0  0  0  0  0  0  0  0  0  0  0  0
    3.4127   -2.4083   -3.1133 H   0  0  0  0  0  0  0  0  0  0  0  0
    3.5004   -4.5094   -1.8613 H   0  0  0  0  0  0  0  0  0  0  0  0
    3.6996   -3.2296   -0.6756 H   0  0  0  0  0  0  0  0  0  0  0  0
    7.5757   -5.0625   -0.1185 H   0  0  0  0  0  0  0  0  0  0  0  0
    9.6754   -3.7675    0.0619 H   0  0  0  0  0  0  0  0  0  0  0  0
    7.8125   -0.4434   -1.9204 H   0  0  0  0  0  0  0  0  0  0  0  0
  1  2  1  0  0  0  0
  1 30  1  0  0  0  0
  1 31  1  0  0  0  0
  1 32  1  0  0  0  0
  2  3  1  0  0  0  0
  2 33  1  0  0  0  0
  3  4  2  0  0  0  0
  3  5  1  0  0  0  0
  5  6  1  0  0  0  0
  5 34  1  0  0  0  0
  5 35  1  0  0  0  0
  6  7  1  6  0  0  0
  6 20  1  0  0  0  0
  6 29  1  0  0  0  0
  7  8  2  0  0  0  0
  7  9  1  0  0  0  0
  9 10  1  0  0  0  0
  9 36  1  0  0  0  0
 10 11  1  0  0  0  0
 10 19  2  0  0  0  0
 11 12  2  0  0  0  0
 11 37  1  0  0  0  0
 12 13  1  0  0  0  0
 13 14  2  0  0  0  0
 13 38  1  0  0  0  0
 14 15  1  0  0  0  0
 14 19  1  0  0  0  0
 15 16  2  0  0  0  0
 15 39  1  0  0  0  0
 16 17  1  0  0  0  0
 16 40  1  0  0  0  0
 17 18  2  0  0  0  0
 17 41  1  0  0  0  0
 18 19  1  0  0  0  0
 18 42  1  0  0  0  0
 20 21  1  0  0  0  0
 20 43  1  0  0  0  0
 20 44  1  0  0  0  0
 21 22  1  0  0  0  0
 21 45  1  0  0  0  0
 21 46  1  0  0  0  0
 22 23  1  0  0  0  0
 23 24  1  0  0  0  0
 23 29  2  0  0  0  0
 24 25  2  0  0  0  0
 24 47  1  0  0  0  0
 25 26  1  0  0  0  0
 25 48  1  0  0  0  0
 26 27  1  0  0  0  0
 26 28  2  0  0  0  0
 28 29  1  0  0  0  0
 28 49  1  0  0  0  0
M  END
$$$$
