
 OpenBabel07202414143D

 39 41  0  0  1  0  0  0  0  0999 V2000
    2.3631   -0.5577   -3.3835 C   0  0  0  0  0  0  0  0  0  0  0  0
    2.1499   -0.6295   -1.9404 N   0  0  0  0  0  0  0  0  0  0  0  0
    2.9131    0.4159   -1.2045 C   0  0  3  0  0  0  0  0  0  0  0  0
    2.5511    1.8419   -1.6926 C   0  0  0  0  0  0  0  0  0  0  0  0
    3.4256    2.6793   -1.9092 O   0  0  0  0  0  0  0  0  0  0  0  0
    1.1933    2.0810   -1.8121 N   0  0  0  0  0  0  0  0  0  0  0  0
    0.6385    3.2828   -2.3093 C   0  0  0  0  0  0  0  0  0  0  0  0
    1.2262    3.9591   -3.3809 C   0  0  0  0  0  0  0  0  0  0  0  0
    0.7258    5.0808   -3.9445 N   0  0  0  0  0  0  0  0  0  0  0  0
   -0.3947    5.5812   -3.3840 C   0  0  0  0  0  0  0  0  0  0  0  0
   -1.0603    5.0179   -2.2937 C   0  0  0  0  0  0  0  0  0  0  0  0
   -2.1938    5.6231   -1.7254 C   0  0  0  0  0  0  0  0  0  0  0  0
   -2.8137    5.0680   -0.6111 C   0  0  0  0  0  0  0  0  0  0  0  0
   -2.3197    3.8926   -0.0575 C   0  0  0  0  0  0  0  0  0  0  0  0
   -1.2033    3.2714   -0.6196 C   0  0  0  0  0  0  0  0  0  0  0  0
   -0.5400    3.8172   -1.7452 C   0  0  0  0  0  0  0  0  0  0  0  0
    2.7239    0.2686    0.3070 C   0  0  0  0  0  0  0  0  0  0  0  0
    3.7322    0.6884    1.1856 C   0  0  0  0  0  0  0  0  0  0  0  0
    3.5883    0.5252    2.5690 C   0  0  0  0  0  0  0  0  0  0  0  0
    2.4316   -0.0494    3.0989 C   0  0  0  0  0  0  0  0  0  0  0  0
    2.3252   -0.2303    4.8135 Cl  0  0  0  0  0  0  0  0  0  0  0  0
    1.4106   -0.4605    2.2382 C   0  0  0  0  0  0  0  0  0  0  0  0
   -0.0499   -1.1889    2.8079 Cl  0  0  0  0  0  0  0  0  0  0  0  0
    1.5560   -0.2959    0.8561 C   0  0  0  0  0  0  0  0  0  0  0  0
    1.9634   -1.4652   -3.8479 H   0  0  0  0  0  0  0  0  0  0  0  0
    3.4246   -0.4896   -3.6419 H   0  0  0  0  0  0  0  0  0  0  0  0
    1.8278    0.2863   -3.8261 H   0  0  0  0  0  0  0  0  0  0  0  0
    2.5090   -1.5326   -1.6196 H   0  0  0  0  0  0  0  0  0  0  0  0
    3.9783    0.2624   -1.4262 H   0  0  0  0  0  0  0  0  0  0  0  0
    0.5786    1.4076   -1.3719 H   0  0  0  0  0  0  0  0  0  0  0  0
    2.1215    3.5808   -3.8677 H   0  0  0  0  0  0  0  0  0  0  0  0
   -0.7538    6.4963   -3.8474 H   0  0  0  0  0  0  0  0  0  0  0  0
   -2.5836    6.5522   -2.1386 H   0  0  0  0  0  0  0  0  0  0  0  0
   -3.6726    5.5601   -0.1626 H   0  0  0  0  0  0  0  0  0  0  0  0
   -2.7875    3.4663    0.8257 H   0  0  0  0  0  0  0  0  0  0  0  0
   -0.8302    2.3751   -0.1330 H   0  0  0  0  0  0  0  0  0  0  0  0
    4.6463    1.1409    0.8023 H   0  0  0  0  0  0  0  0  0  0  0  0
    4.3892    0.8480    3.2322 H   0  0  0  0  0  0  0  0  0  0  0  0
    0.7531   -0.6345    0.2016 H   0  0  0  0  0  0  0  0  0  0  0  0
  1  2  1  0  0  0  0
  1 25  1  0  0  0  0
  1 26  1  0  0  0  0
  1 27  1  0  0  0  0
  2  3  1  0  0  0  0
  2 28  1  0  0  0  0
  3  4  1  0  0  0  0
  3 17  1  0  0  0  0
  3 29  1  0  0  0  0
  4  5  2  0  0  0  0
  4  6  1  0  0  0  0
  6  7  1  0  0  0  0
  6 30  1  0  0  0  0
  7  8  1  0  0  0  0
  7 16  2  0  0  0  0
  8  9  2  0  0  0  0
  8 31  1  0  0  0  0
  9 10  1  0  0  0  0
 10 11  2  0  0  0  0
 10 32  1  0  0  0  0
 11 12  1  0  0  0  0
 11 16  1  0  0  0  0
 12 13  2  0  0  0  0
 12 33  1  0  0  0  0
 13 14  1  0  0  0  0
 13 34  1  0  0  0  0
 14 15  2  0  0  0  0
 14 35  1  0  0  0  0
 15 16  1  0  0  0  0
 15 36  1  0  0  0  0
 17 18  1  0  0  0  0
 17 24  2  0  0  0  0
 18 19  2  0  0  0  0
 18 37  1  0  0  0  0
 19 20  1  0  0  0  0
 19 38  1  0  0  0  0
 20 21  1  0  0  0  0
 20 22  2  0  0  0  0
 22 23  1  0  0  0  0
 22 24  1  0  0  0  0
 24 39  1  0  0  0  0
M  END
$$$$
