
 OpenBabel07202414203D

 29 30  0  0  0  0  0  0  0  0999 V2000
    0.6461   -0.6145   -1.2651 C   0  0  0  0  0  0  0  0  0  0  0  0
    1.3553    0.5890   -1.2363 C   0  0  0  0  0  0  0  0  0  0  0  0
    1.6951    1.1885   -0.0149 C   0  0  0  0  0  0  0  0  0  0  0  0
    1.3032    0.5649    1.1785 C   0  0  0  0  0  0  0  0  0  0  0  0
    0.5943   -0.6381    1.1431 C   0  0  0  0  0  0  0  0  0  0  0  0
    0.2650   -1.2304   -0.0739 C   0  0  0  0  0  0  0  0  0  0  0  0
    0.1201   -1.3942    2.6146 Cl  0  0  0  0  0  0  0  0  0  0  0  0
    2.4390    2.5024    0.0089 C   0  0  0  0  0  0  0  0  0  0  0  0
    1.4763    3.6915   -0.0196 C   0  0  0  0  0  0  0  0  0  0  0  0
    2.2203    5.0261   -0.0244 C   0  0  0  0  0  0  0  0  0  0  0  0
    1.3057    6.1556   -0.0723 N   0  0  0  0  0  0  0  0  0  0  0  0
    0.7863    6.8017    1.0181 C   0  0  0  0  0  0  0  0  0  0  0  0
   -0.0240    7.7832    0.4998 C   0  0  0  0  0  0  0  0  0  0  0  0
   -0.0030    7.7550   -0.8708 N   0  0  0  0  0  0  0  0  0  0  0  0
    0.8067    6.7645   -1.2001 C   0  0  0  0  0  0  0  0  0  0  0  0
    1.1058    6.3801   -2.5419 C   0  0  0  0  0  0  0  0  0  0  0  0
    1.3927    6.0124   -3.6064 N   0  0  0  0  0  0  0  0  0  0  0  0
    0.3886   -1.0703   -2.2182 H   0  0  0  0  0  0  0  0  0  0  0  0
    1.6393    1.0562   -2.1773 H   0  0  0  0  0  0  0  0  0  0  0  0
    1.5476    1.0139    2.1379 H   0  0  0  0  0  0  0  0  0  0  0  0
   -0.2880   -2.1652   -0.1013 H   0  0  0  0  0  0  0  0  0  0  0  0
    3.1218    2.5464   -0.8488 H   0  0  0  0  0  0  0  0  0  0  0  0
    3.0736    2.5471    0.9030 H   0  0  0  0  0  0  0  0  0  0  0  0
    0.8066    3.6486    0.8492 H   0  0  0  0  0  0  0  0  0  0  0  0
    0.8320    3.6261   -0.9057 H   0  0  0  0  0  0  0  0  0  0  0  0
    2.8968    5.1032   -0.8829 H   0  0  0  0  0  0  0  0  0  0  0  0
    2.8297    5.1383    0.8801 H   0  0  0  0  0  0  0  0  0  0  0  0
    1.0192    6.5187    2.0356 H   0  0  0  0  0  0  0  0  0  0  0  0
   -0.6221    8.5079    1.0383 H   0  0  0  0  0  0  0  0  0  0  0  0
  1  2  1  0  0  0  0
  1  6  2  0  0  0  0
  1 18  1  0  0  0  0
  2  3  2  0  0  0  0
  2 19  1  0  0  0  0
  3  4  1  0  0  0  0
  3  8  1  0  0  0  0
  4  5  2  0  0  0  0
  4 20  1  0  0  0  0
  5  6  1  0  0  0  0
  5  7  1  0  0  0  0
  6 21  1  0  0  0  0
  8  9  1  0  0  0  0
  8 22  1  0  0  0  0
  8 23  1  0  0  0  0
  9 10  1  0  0  0  0
  9 24  1  0  0  0  0
  9 25  1  0  0  0  0
 10 11  1  0  0  0  0
 10 26  1  0  0  0  0
 10 27  1  0  0  0  0
 11 12  1  0  0  0  0
 11 15  1  0  0  0  0
 12 13  2  0  0  0  0
 12 28  1  0  0  0  0
 13 14  1  0  0  0  0
 13 29  1  0  0  0  0
 14 15  2  0  0  0  0
 15 16  1  0  0  0  0
 16 17  3  0  0  0  0
M  END
$$$$
