
 OpenBabel07202414193D

 62 66  0  0  1  0  0  0  0  0999 V2000
   10.6653    7.9564   -0.0801 N   0  0  0  0  0  0  0  0  0  0  0  0
    9.1193    8.1521   -0.7039 S   0  0  0  0  0  0  0  0  0  0  0  0
    8.9636    9.5796   -0.8797 O   0  0  0  0  0  0  0  0  0  0  0  0
    8.9973    7.2343   -1.8122 O   0  0  0  0  0  0  0  0  0  0  0  0
    8.0772    7.6250    0.6131 C   0  0  0  0  0  0  0  0  0  0  0  0
    7.1266    8.4798    1.1674 C   0  0  0  0  0  0  0  0  0  0  0  0
    6.2814    8.0096    2.1753 C   0  0  0  0  0  0  0  0  0  0  0  0
    6.3741    6.6815    2.6374 C   0  0  0  0  0  0  0  0  0  0  0  0
    5.4222    6.1582    3.6983 C   0  0  0  0  0  0  0  0  0  0  0  0
    6.1360    5.7054    4.8958 N   0  0  0  0  0  0  0  0  0  0  0  0
    5.2053    5.3018    5.9744 C   0  0  0  0  0  0  0  0  0  0  0  0
    5.9279    4.8187    7.2900 C   0  0  3  0  0  0  0  0  0  0  0  0
    6.7486    6.0116    7.8808 C   0  0  0  0  0  0  0  0  0  0  0  0
    6.7710    7.1056    7.3181 O   0  0  0  0  0  0  0  0  0  0  0  0
    7.4081    5.7367    9.0704 N   0  0  0  0  0  0  0  0  0  0  0  0
    8.3044    6.5866    9.7813 C   0  0  0  0  0  0  0  0  0  0  0  0
    8.6309    7.8757    9.3542 C   0  0  0  0  0  0  0  0  0  0  0  0
    9.5990    8.6495    9.9014 N   0  0  0  0  0  0  0  0  0  0  0  0
   10.2499    8.1380   10.9632 C   0  0  0  0  0  0  0  0  0  0  0  0
    9.9395    6.9207   11.5642 C   0  0  0  0  0  0  0  0  0  0  0  0
   10.5893    6.5173   12.7450 C   0  0  0  0  0  0  0  0  0  0  0  0
   10.2555    5.3172   13.3649 C   0  0  0  0  0  0  0  0  0  0  0  0
    9.2914    4.4973   12.7959 C   0  0  0  0  0  0  0  0  0  0  0  0
    8.6493    4.8827   11.6143 C   0  0  0  0  0  0  0  0  0  0  0  0
    8.9426    6.1104   10.9654 C   0  0  0  0  0  0  0  0  0  0  0  0
    6.8745    3.6346    6.9719 C   0  0  0  0  0  0  0  0  0  0  0  0
    6.0711    2.3639    6.7440 C   0  0  0  0  0  0  0  0  0  0  0  0
    5.3729    1.9738    7.9247 O   0  0  0  0  0  0  0  0  0  0  0  0
    4.6569    2.9708    8.5256 C   0  0  0  0  0  0  0  0  0  0  0  0
    3.7037    2.5327    9.4511 C   0  0  0  0  0  0  0  0  0  0  0  0
    2.9446    3.4529   10.1700 C   0  0  0  0  0  0  0  0  0  0  0  0
    3.1503    4.8127    9.9653 C   0  0  0  0  0  0  0  0  0  0  0  0
    2.2489    5.9558   10.8816 Cl  0  0  0  0  0  0  0  0  0  0  0  0
    4.0931    5.2578    9.0333 C   0  0  0  0  0  0  0  0  0  0  0  0
    4.8694    4.3394    8.2985 C   0  0  0  0  0  0  0  0  0  0  0  0
    7.3424    5.8434    2.0631 C   0  0  0  0  0  0  0  0  0  0  0  0
    8.1855    6.3153    1.0567 C   0  0  0  0  0  0  0  0  0  0  0  0
    9.0932    5.4731    0.5371 F   0  0  0  0  0  0  0  0  0  0  0  0
   11.1941    8.8234   -0.1793 H   0  0  0  0  0  0  0  0  0  0  0  0
   11.1133    7.1434   -0.5035 H   0  0  0  0  0  0  0  0  0  0  0  0
    7.0306    9.5052    0.8162 H   0  0  0  0  0  0  0  0  0  0  0  0
    5.5363    8.6825    2.5943 H   0  0  0  0  0  0  0  0  0  0  0  0
    4.8496    5.3300    3.2614 H   0  0  0  0  0  0  0  0  0  0  0  0
    4.7052    6.9455    3.9616 H   0  0  0  0  0  0  0  0  0  0  0  0
    6.6770    6.5060    5.2493 H   0  0  0  0  0  0  0  0  0  0  0  0
    4.5577    4.5017    5.5952 H   0  0  0  0  0  0  0  0  0  0  0  0
    4.5449    6.1463    6.2124 H   0  0  0  0  0  0  0  0  0  0  0  0
    7.2850    4.8066    9.4432 H   0  0  0  0  0  0  0  0  0  0  0  0
    8.1239    8.3671    8.5316 H   0  0  0  0  0  0  0  0  0  0  0  0
   11.0531    8.7671   11.3403 H   0  0  0  0  0  0  0  0  0  0  0  0
   11.3428    7.1536   13.2062 H   0  0  0  0  0  0  0  0  0  0  0  0
   10.7385    5.0293   14.2952 H   0  0  0  0  0  0  0  0  0  0  0  0
    9.0228    3.5600   13.2772 H   0  0  0  0  0  0  0  0  0  0  0  0
    7.8865    4.2100   11.2348 H   0  0  0  0  0  0  0  0  0  0  0  0
    7.5636    3.4509    7.8054 H   0  0  0  0  0  0  0  0  0  0  0  0
    7.5025    3.8429    6.0993 H   0  0  0  0  0  0  0  0  0  0  0  0
    6.7494    1.5418    6.4912 H   0  0  0  0  0  0  0  0  0  0  0  0
    5.3572    2.4473    5.9174 H   0  0  0  0  0  0  0  0  0  0  0  0
    3.5522    1.4669    9.6098 H   0  0  0  0  0  0  0  0  0  0  0  0
    2.2049    3.1033   10.8857 H   0  0  0  0  0  0  0  0  0  0  0  0
    4.2294    6.3301    8.9000 H   0  0  0  0  0  0  0  0  0  0  0  0
    7.4469    4.8120    2.3985 H   0  0  0  0  0  0  0  0  0  0  0  0
  1  2  1  0  0  0  0
  1 39  1  0  0  0  0
  1 40  1  0  0  0  0
  2  3  2  0  0  0  0
  2  4  2  0  0  0  0
  2  5  1  0  0  0  0
  5  6  1  0  0  0  0
  5 37  2  0  0  0  0
  6  7  2  0  0  0  0
  6 41  1  0  0  0  0
  7  8  1  0  0  0  0
  7 42  1  0  0  0  0
  8  9  1  0  0  0  0
  8 36  2  0  0  0  0
  9 10  1  0  0  0  0
  9 43  1  0  0  0  0
  9 44  1  0  0  0  0
 10 11  1  0  0  0  0
 10 45  1  0  0  0  0
 11 12  1  0  0  0  0
 11 46  1  0  0  0  0
 11 47  1  0  0  0  0
 12 13  1  0  0  0  0
 12 26  1  0  0  0  0
 12 35  1  0  0  0  0
 13 14  2  0  0  0  0
 13 15  1  0  0  0  0
 15 16  1  0  0  0  0
 15 48  1  0  0  0  0
 16 17  1  0  0  0  0
 16 25  2  0  0  0  0
 17 18  2  0  0  0  0
 17 49  1  0  0  0  0
 18 19  1  0  0  0  0
 19 20  2  0  0  0  0
 19 50  1  0  0  0  0
 20 21  1  0  0  0  0
 20 25  1  0  0  0  0
 21 22  2  0  0  0  0
 21 51  1  0  0  0  0
 22 23  1  0  0  0  0
 22 52  1  0  0  0  0
 23 24  2  0  0  0  0
 23 53  1  0  0  0  0
 24 25  1  0  0  0  0
 24 54  1  0  0  0  0
 26 27  1  0  0  0  0
 26 55  1  0  0  0  0
 26 56  1  0  0  0  0
 27 28  1  0  0  0  0
 27 57  1  0  0  0  0
 27 58  1  0  0  0  0
 28 29  1  0  0  0  0
 29 30  1  0  0  0  0
 29 35  2  0  0  0  0
 30 31  2  0  0  0  0
 30 59  1  0  0  0  0
 31 32  1  0  0  0  0
 31 60  1  0  0  0  0
 32 33  1  0  0  0  0
 32 34  2  0  0  0  0
 34 35  1  0  0  0  0
 34 61  1  0  0  0  0
 36 37  1  0  0  0  0
 36 62  1  0  0  0  0
 37 38  1  0  0  0  0
M  END
$$$$
