
 OpenBabel07202414193D

 60 64  0  0  1  0  0  0  0  0999 V2000
    1.8025    1.1457    1.2231 O   0  0  0  0  0  0  0  0  0  0  0  0
    2.2651    0.3747    0.3809 C   0  0  0  0  0  0  0  0  0  0  0  0
    2.8114    0.8498   -0.9738 C   0  0  0  0  0  0  0  0  0  0  0  0
    1.7980    1.4642   -1.8602 N   0  0  0  0  0  0  0  0  0  0  0  0
    0.6949    0.5432   -2.1470 C   0  0  0  0  0  0  0  0  0  0  0  0
   -0.3519    1.1398   -3.0604 C   0  0  0  0  0  0  0  0  0  0  0  0
   -1.2587    0.2898   -3.7124 C   0  0  0  0  0  0  0  0  0  0  0  0
   -2.2304    0.8094   -4.5669 C   0  0  0  0  0  0  0  0  0  0  0  0
   -2.2813    2.1786   -4.8058 C   0  0  0  0  0  0  0  0  0  0  0  0
   -3.4579    2.8156   -5.8865 Cl  0  0  0  0  0  0  0  0  0  0  0  0
   -1.3995    3.0379   -4.1560 C   0  0  0  0  0  0  0  0  0  0  0  0
   -0.4653    2.5296   -3.2363 C   0  0  0  0  0  0  0  0  0  0  0  0
    0.4114    3.4802   -2.4327 C   0  0  1  0  0  0  0  0  0  0  0  0
   -0.4377    4.5744   -1.7509 C   0  0  0  0  0  0  0  0  0  0  0  0
   -0.1829    5.7611   -1.9402 O   0  0  0  0  0  0  0  0  0  0  0  0
   -1.4721    4.0886   -0.9583 N   0  0  0  0  0  0  0  0  0  0  0  0
   -2.3589    4.8364   -0.1346 C   0  0  0  0  0  0  0  0  0  0  0  0
   -2.2953    6.2258   -0.0323 C   0  0  0  0  0  0  0  0  0  0  0  0
   -2.9210    6.9523    0.9226 N   0  0  0  0  0  0  0  0  0  0  0  0
   -3.7294    6.2752    1.7591 C   0  0  0  0  0  0  0  0  0  0  0  0
   -4.0499    4.9285    1.6203 C   0  0  0  0  0  0  0  0  0  0  0  0
   -5.0766    4.3547    2.3923 C   0  0  0  0  0  0  0  0  0  0  0  0
   -5.4123    3.0134    2.2419 C   0  0  0  0  0  0  0  0  0  0  0  0
   -4.6915    2.2244    1.3553 C   0  0  0  0  0  0  0  0  0  0  0  0
   -3.6653    2.7867    0.5844 C   0  0  0  0  0  0  0  0  0  0  0  0
   -3.3313    4.1651    0.6691 C   0  0  0  0  0  0  0  0  0  0  0  0
    1.2923    2.7619   -1.3753 C   0  0  0  0  0  0  0  0  0  0  0  0
    2.3116   -0.9938    0.5745 N   0  0  0  0  0  0  0  0  0  0  0  0
    1.8845   -1.6042    1.8105 C   0  0  0  0  0  0  0  0  0  0  0  0
    3.0512   -2.2749    2.5082 C   0  0  0  0  0  0  0  0  0  0  0  0
    3.8053   -1.5771    3.4575 C   0  0  0  0  0  0  0  0  0  0  0  0
    4.9084   -2.1841    4.0616 C   0  0  0  0  0  0  0  0  0  0  0  0
    5.8242   -1.3156    5.2313 Cl  0  0  0  0  0  0  0  0  0  0  0  0
    5.2794   -3.4827    3.7241 C   0  0  0  0  0  0  0  0  0  0  0  0
    4.5324   -4.1751    2.7771 C   0  0  0  0  0  0  0  0  0  0  0  0
    4.9783   -5.7807    2.3447 Cl  0  0  0  0  0  0  0  0  0  0  0  0
    3.4241   -3.5827    2.1666 C   0  0  0  0  0  0  0  0  0  0  0  0
    3.2668    0.0015   -1.5019 H   0  0  0  0  0  0  0  0  0  0  0  0
    3.6344    1.5479   -0.7804 H   0  0  0  0  0  0  0  0  0  0  0  0
    0.1884    0.2176   -1.2310 H   0  0  0  0  0  0  0  0  0  0  0  0
    1.1098   -0.3426   -2.6452 H   0  0  0  0  0  0  0  0  0  0  0  0
   -1.2153   -0.7851   -3.5490 H   0  0  0  0  0  0  0  0  0  0  0  0
   -2.9379    0.1404   -5.0504 H   0  0  0  0  0  0  0  0  0  0  0  0
   -1.4513    4.1082   -4.3515 H   0  0  0  0  0  0  0  0  0  0  0  0
    1.0786    3.9764   -3.1522 H   0  0  0  0  0  0  0  0  0  0  0  0
   -1.5424    3.0832   -0.8864 H   0  0  0  0  0  0  0  0  0  0  0  0
   -1.7210    6.8366   -0.7202 H   0  0  0  0  0  0  0  0  0  0  0  0
   -4.1371    6.8728    2.5706 H   0  0  0  0  0  0  0  0  0  0  0  0
   -5.6536    4.9667    3.0837 H   0  0  0  0  0  0  0  0  0  0  0  0
   -6.2391    2.5912    2.8078 H   0  0  0  0  0  0  0  0  0  0  0  0
   -4.9414    1.1717    1.2453 H   0  0  0  0  0  0  0  0  0  0  0  0
   -3.1627    2.1288   -0.1182 H   0  0  0  0  0  0  0  0  0  0  0  0
    0.7371    2.6341   -0.4402 H   0  0  0  0  0  0  0  0  0  0  0  0
    2.1385    3.4232   -1.1446 H   0  0  0  0  0  0  0  0  0  0  0  0
    2.7534   -1.5817   -0.1221 H   0  0  0  0  0  0  0  0  0  0  0  0
    1.1182   -2.3532    1.5672 H   0  0  0  0  0  0  0  0  0  0  0  0
    1.4093   -0.8809    2.4898 H   0  0  0  0  0  0  0  0  0  0  0  0
    3.5329   -0.5580    3.7289 H   0  0  0  0  0  0  0  0  0  0  0  0
    6.1417   -3.9482    4.1932 H   0  0  0  0  0  0  0  0  0  0  0  0
    2.8528   -4.1435    1.4304 H   0  0  0  0  0  0  0  0  0  0  0  0
  1  2  2  0  0  0  0
  2  3  1  0  0  0  0
  2 28  1  0  0  0  0
  3  4  1  0  0  0  0
  3 38  1  0  0  0  0
  3 39  1  0  0  0  0
  4  5  1  0  0  0  0
  4 27  1  0  0  0  0
  5  6  1  0  0  0  0
  5 40  1  0  0  0  0
  5 41  1  0  0  0  0
  6  7  1  0  0  0  0
  6 12  2  0  0  0  0
  7  8  2  0  0  0  0
  7 42  1  0  0  0  0
  8  9  1  0  0  0  0
  8 43  1  0  0  0  0
  9 10  1  0  0  0  0
  9 11  2  0  0  0  0
 11 12  1  0  0  0  0
 11 44  1  0  0  0  0
 12 13  1  0  0  0  0
 13 27  1  0  0  0  0
 13 14  1  0  0  0  0
 13 45  1  6  0  0  0
 14 15  2  0  0  0  0
 14 16  1  0  0  0  0
 16 17  1  0  0  0  0
 16 46  1  0  0  0  0
 17 18  1  0  0  0  0
 17 26  2  0  0  0  0
 18 19  2  0  0  0  0
 18 47  1  0  0  0  0
 19 20  1  0  0  0  0
 20 21  2  0  0  0  0
 20 48  1  0  0  0  0
 21 22  1  0  0  0  0
 21 26  1  0  0  0  0
 22 23  2  0  0  0  0
 22 49  1  0  0  0  0
 23 24  1  0  0  0  0
 23 50  1  0  0  0  0
 24 25  2  0  0  0  0
 24 51  1  0  0  0  0
 25 26  1  0  0  0  0
 25 52  1  0  0  0  0
 27 53  1  0  0  0  0
 27 54  1  0  0  0  0
 28 29  1  0  0  0  0
 28 55  1  0  0  0  0
 29 30  1  0  0  0  0
 29 56  1  0  0  0  0
 29 57  1  0  0  0  0
 30 31  1  0  0  0  0
 30 37  2  0  0  0  0
 31 32  2  0  0  0  0
 31 58  1  0  0  0  0
 32 33  1  0  0  0  0
 32 34  1  0  0  0  0
 34 35  2  0  0  0  0
 34 59  1  0  0  0  0
 35 36  1  0  0  0  0
 35 37  1  0  0  0  0
 37 60  1  0  0  0  0
M  END
$$$$
