
 OpenBabel07202414133D

 51 53  0  0  0  0  0  0  0  0999 V2000
    2.1371    1.8295    0.1871 C   0  0  0  0  0  0  0  0  0  0  0  0
    2.4364    0.3445    0.3065 C   0  0  0  0  0  0  0  0  0  0  0  0
    3.0459    0.1097    1.5806 O   0  0  0  0  0  0  0  0  0  0  0  0
    4.3956    0.2939    1.6269 C   0  0  0  0  0  0  0  0  0  0  0  0
    5.1210    0.3453    0.6408 O   0  0  0  0  0  0  0  0  0  0  0  0
    4.8519    0.6244    2.9748 C   0  0  0  0  0  0  0  0  0  0  0  0
    4.3237    0.1935    4.1853 C   0  0  0  0  0  0  0  0  0  0  0  0
    4.9852    0.8905    5.1902 N   0  0  0  0  0  0  0  0  0  0  0  0
    5.9198    1.7712    4.6646 C   0  0  0  0  0  0  0  0  0  0  0  0
    5.8945    1.5603    3.2754 C   0  0  0  0  0  0  0  0  0  0  0  0
    6.7512    2.3145    2.4382 C   0  0  0  0  0  0  0  0  0  0  0  0
    7.5705    3.3080    2.9724 C   0  0  0  0  0  0  0  0  0  0  0  0
    7.5717    3.5309    4.3441 C   0  0  0  0  0  0  0  0  0  0  0  0
    6.7676    2.7617    5.2050 C   0  0  0  0  0  0  0  0  0  0  0  0
    8.2609    4.1868    2.0748 N   0  0  0  0  0  0  0  0  0  0  0  0
    9.6663    4.0858    1.8557 C   0  0  0  0  0  0  0  0  0  0  0  0
   10.2653    4.9602    1.2331 O   0  0  0  0  0  0  0  0  0  0  0  0
   10.3866    2.9122    2.3255 C   0  0  0  0  0  0  0  0  0  0  0  0
   11.7406    2.7572    2.5983 C   0  0  0  0  0  0  0  0  0  0  0  0
   11.9399    1.3978    2.9376 C   0  0  0  0  0  0  0  0  0  0  0  0
   10.7097    0.7968    2.8335 C   0  0  0  0  0  0  0  0  0  0  0  0
    9.7690    1.6989    2.4621 O   0  0  0  0  0  0  0  0  0  0  0  0
    7.4161    5.5903    1.6491 S   0  0  0  0  0  0  0  0  0  0  0  0
    6.0434    5.4912    2.1110 O   0  0  0  0  0  0  0  0  0  0  0  0
    8.2058    6.7531    1.9978 O   0  0  0  0  0  0  0  0  0  0  0  0
    7.3562    5.4484   -0.1259 C   0  0  0  0  0  0  0  0  0  0  0  0
    4.6830    0.5637    6.8482 S   0  0  0  0  0  0  0  0  0  0  0  0
    3.2708    0.8575    7.0169 O   0  0  0  0  0  0  0  0  0  0  0  0
    5.1920   -0.7849    7.0295 O   0  0  0  0  0  0  0  0  0  0  0  0
    5.5573    1.6023    7.9625 C   0  0  0  0  0  0  0  0  0  0  0  0
    3.2473   -0.8111    4.4575 C   0  0  0  0  0  0  0  0  0  0  0  0
    1.6663    2.0624   -0.7708 H   0  0  0  0  0  0  0  0  0  0  0  0
    3.0522    2.4239    0.2848 H   0  0  0  0  0  0  0  0  0  0  0  0
    1.4711    2.1486    0.9965 H   0  0  0  0  0  0  0  0  0  0  0  0
    3.0632   -0.0084   -0.5194 H   0  0  0  0  0  0  0  0  0  0  0  0
    1.5037   -0.2272    0.2785 H   0  0  0  0  0  0  0  0  0  0  0  0
    6.7343    2.1503    1.3636 H   0  0  0  0  0  0  0  0  0  0  0  0
    8.1648    4.3419    4.7629 H   0  0  0  0  0  0  0  0  0  0  0  0
    6.7857    3.0157    6.2562 H   0  0  0  0  0  0  0  0  0  0  0  0
   12.4857    3.5393    2.5427 H   0  0  0  0  0  0  0  0  0  0  0  0
   12.8683    0.9120    3.2055 H   0  0  0  0  0  0  0  0  0  0  0  0
   10.3546   -0.2152    2.9727 H   0  0  0  0  0  0  0  0  0  0  0  0
    6.8448    4.5202   -0.3900 H   0  0  0  0  0  0  0  0  0  0  0  0
    8.3641    5.4742   -0.5403 H   0  0  0  0  0  0  0  0  0  0  0  0
    6.7834    6.2983   -0.5062 H   0  0  0  0  0  0  0  0  0  0  0  0
    5.2415    2.6366    7.8204 H   0  0  0  0  0  0  0  0  0  0  0  0
    6.6304    1.4673    7.8242 H   0  0  0  0  0  0  0  0  0  0  0  0
    5.2933    1.2892    8.9765 H   0  0  0  0  0  0  0  0  0  0  0  0
    2.8738   -1.2732    3.5403 H   0  0  0  0  0  0  0  0  0  0  0  0
    2.3895   -0.3469    4.9521 H   0  0  0  0  0  0  0  0  0  0  0  0
    3.6226   -1.6293    5.0789 H   0  0  0  0  0  0  0  0  0  0  0  0
  1  2  1  0  0  0  0
  1 32  1  0  0  0  0
  1 33  1  0  0  0  0
  1 34  1  0  0  0  0
  2  3  1  0  0  0  0
  2 35  1  0  0  0  0
  2 36  1  0  0  0  0
  3  4  1  0  0  0  0
  4  5  2  0  0  0  0
  4  6  1  0  0  0  0
  6  7  2  0  0  0  0
  6 10  1  0  0  0  0
  7  8  1  0  0  0  0
  7 31  1  0  0  0  0
  8  9  1  0  0  0  0
  8 27  1  0  0  0  0
  9 10  1  0  0  0  0
  9 14  2  0  0  0  0
 10 11  2  0  0  0  0
 11 12  1  0  0  0  0
 11 37  1  0  0  0  0
 12 13  2  0  0  0  0
 12 15  1  0  0  0  0
 13 14  1  0  0  0  0
 13 38  1  0  0  0  0
 14 39  1  0  0  0  0
 15 16  1  0  0  0  0
 15 23  1  0  0  0  0
 16 17  2  0  0  0  0
 16 18  1  0  0  0  0
 18 19  2  0  0  0  0
 18 22  1  0  0  0  0
 19 20  1  0  0  0  0
 19 40  1  0  0  0  0
 20 21  2  0  0  0  0
 20 41  1  0  0  0  0
 21 22  1  0  0  0  0
 21 42  1  0  0  0  0
 23 24  2  0  0  0  0
 23 25  2  0  0  0  0
 23 26  1  0  0  0  0
 26 43  1  0  0  0  0
 26 44  1  0  0  0  0
 26 45  1  0  0  0  0
 27 28  2  0  0  0  0
 27 29  2  0  0  0  0
 27 30  1  0  0  0  0
 30 46  1  0  0  0  0
 30 47  1  0  0  0  0
 30 48  1  0  0  0  0
 31 49  1  0  0  0  0
 31 50  1  0  0  0  0
 31 51  1  0  0  0  0
M  END
$$$$
