
 OpenBabel07202414153D

 35 36  0  0  0  0  0  0  0  0999 V2000
    2.7281    4.7545   -0.1598 C   0  0  0  0  0  0  0  0  0  0  0  0
    3.9323    4.0314   -0.3918 O   0  0  0  0  0  0  0  0  0  0  0  0
    3.8130    2.8108   -0.9993 C   0  0  0  0  0  0  0  0  0  0  0  0
    2.6229    2.1230   -1.2216 C   0  0  0  0  0  0  0  0  0  0  0  0
    2.6513    0.8893   -1.8683 C   0  0  0  0  0  0  0  0  0  0  0  0
    1.1771    0.0495   -2.1572 Cl  0  0  0  0  0  0  0  0  0  0  0  0
    3.8616    0.3298   -2.2957 C   0  0  0  0  0  0  0  0  0  0  0  0
    5.0657    1.0112   -2.0827 C   0  0  0  0  0  0  0  0  0  0  0  0
    6.3733    0.4951   -2.6386 C   0  0  0  0  0  0  0  0  0  0  0  0
    6.7284   -0.9261   -2.2471 C   0  0  0  0  0  0  0  0  0  0  0  0
    6.5911   -1.8593   -3.0343 O   0  0  0  0  0  0  0  0  0  0  0  0
    7.1954   -1.0484   -0.9497 N   0  0  0  0  0  0  0  0  0  0  0  0
    7.6682   -2.2665   -0.4109 C   0  0  0  0  0  0  0  0  0  0  0  0
    8.4324   -3.1654   -1.1586 C   0  0  0  0  0  0  0  0  0  0  0  0
    8.9348   -4.3298   -0.6779 N   0  0  0  0  0  0  0  0  0  0  0  0
    8.6385   -4.6280    0.6016 C   0  0  0  0  0  0  0  0  0  0  0  0
    7.8826   -3.8093    1.4273 C   0  0  0  0  0  0  0  0  0  0  0  0
    7.3891   -2.5980    0.9220 C   0  0  0  0  0  0  0  0  0  0  0  0
    6.5171   -1.7361    1.7888 C   0  0  0  0  0  0  0  0  0  0  0  0
    5.0247    2.2495   -1.4224 C   0  0  0  0  0  0  0  0  0  0  0  0
    2.9972    5.7327    0.2514 H   0  0  0  0  0  0  0  0  0  0  0  0
    2.0997    4.2460    0.5784 H   0  0  0  0  0  0  0  0  0  0  0  0
    2.1825    4.9255   -1.0941 H   0  0  0  0  0  0  0  0  0  0  0  0
    1.6653    2.5271   -0.9113 H   0  0  0  0  0  0  0  0  0  0  0  0
    3.8578   -0.6214   -2.8298 H   0  0  0  0  0  0  0  0  0  0  0  0
    7.2056    1.1426   -2.3343 H   0  0  0  0  0  0  0  0  0  0  0  0
    6.3312    0.5450   -3.7334 H   0  0  0  0  0  0  0  0  0  0  0  0
    6.9064   -0.3294   -0.2984 H   0  0  0  0  0  0  0  0  0  0  0  0
    8.7073   -2.9573   -2.1895 H   0  0  0  0  0  0  0  0  0  0  0  0
    9.0263   -5.5784    0.9579 H   0  0  0  0  0  0  0  0  0  0  0  0
    7.6645   -4.1287    2.4410 H   0  0  0  0  0  0  0  0  0  0  0  0
    6.2533   -2.2409    2.7234 H   0  0  0  0  0  0  0  0  0  0  0  0
    5.5780   -1.5103    1.2715 H   0  0  0  0  0  0  0  0  0  0  0  0
    7.0302   -0.8019    2.0359 H   0  0  0  0  0  0  0  0  0  0  0  0
    5.9393    2.8184   -1.2596 H   0  0  0  0  0  0  0  0  0  0  0  0
  1  2  1  0  0  0  0
  1 21  1  0  0  0  0
  1 22  1  0  0  0  0
  1 23  1  0  0  0  0
  2  3  1  0  0  0  0
  3  4  1  0  0  0  0
  3 20  2  0  0  0  0
  4  5  2  0  0  0  0
  4 24  1  0  0  0  0
  5  6  1  0  0  0  0
  5  7  1  0  0  0  0
  7  8  2  0  0  0  0
  7 25  1  0  0  0  0
  8  9  1  0  0  0  0
  8 20  1  0  0  0  0
  9 10  1  0  0  0  0
  9 26  1  0  0  0  0
  9 27  1  0  0  0  0
 10 11  2  0  0  0  0
 10 12  1  0  0  0  0
 12 13  1  0  0  0  0
 12 28  1  0  0  0  0
 13 14  1  0  0  0  0
 13 18  2  0  0  0  0
 14 15  2  0  0  0  0
 14 29  1  0  0  0  0
 15 16  1  0  0  0  0
 16 17  2  0  0  0  0
 16 30  1  0  0  0  0
 17 18  1  0  0  0  0
 17 31  1  0  0  0  0
 18 19  1  0  0  0  0
 19 32  1  0  0  0  0
 19 33  1  0  0  0  0
 19 34  1  0  0  0  0
 20 35  1  0  0  0  0
M  END
$$$$
