
 OpenBabel07202414193D

 51 54  0  0  1  0  0  0  0  0999 V2000
    1.2549    0.4771   -0.4987 O   0  0  0  0  0  0  0  0  0  0  0  0
    2.2574   -0.0728   -0.0338 C   0  0  0  0  0  0  0  0  0  0  0  0
    2.7229    0.3000    1.3696 C   0  0  0  0  0  0  0  0  0  0  0  0
    3.8551    1.3092    1.3778 C   0  0  0  0  0  0  0  0  0  0  0  0
    3.8730    2.3190    0.4081 C   0  0  0  0  0  0  0  0  0  0  0  0
    4.8059    3.2866    0.3186 N   0  0  0  0  0  0  0  0  0  0  0  0
    5.7681    3.2809    1.2613 C   0  0  0  0  0  0  0  0  0  0  0  0
    5.8513    2.3570    2.3000 C   0  0  0  0  0  0  0  0  0  0  0  0
    6.8786    2.4379    3.2570 C   0  0  0  0  0  0  0  0  0  0  0  0
    6.9501    1.5203    4.3004 C   0  0  0  0  0  0  0  0  0  0  0  0
    5.9946    0.5167    4.3978 C   0  0  0  0  0  0  0  0  0  0  0  0
    4.9680    0.4285    3.4505 C   0  0  0  0  0  0  0  0  0  0  0  0
    4.8682    1.3420    2.3748 C   0  0  0  0  0  0  0  0  0  0  0  0
    3.0216   -0.9632   -0.7769 N   0  0  0  0  0  0  0  0  0  0  0  0
    4.1150   -1.7873   -0.2565 C   0  0  0  0  0  0  0  0  0  0  0  0
    5.3575   -1.6893   -1.1379 C   0  0  0  0  0  0  0  0  0  0  0  0
    5.0132   -1.9700   -2.6013 C   0  0  0  0  0  0  0  0  0  0  0  0
    3.9317   -0.9791   -3.0676 C   0  0  1  0  0  0  0  0  0  0  0  0
    3.6695   -1.1066   -4.5831 C   0  0  0  0  0  0  0  0  0  0  0  0
    2.6461   -0.0986   -5.1492 C   0  0  2  0  0  0  0  0  0  0  0  0
    2.4722   -0.2408   -6.6518 C   0  0  0  0  0  0  0  0  0  0  0  0
    3.4639    0.7409   -7.2420 C   0  0  0  0  0  0  0  0  0  0  0  0
    3.7974    1.6868   -6.2236 O   0  0  0  0  0  0  0  0  0  0  0  0
    3.0729    1.3596   -5.0332 C   0  0  0  0  0  0  0  0  0  0  0  0
    2.6826   -1.1801   -2.1890 C   0  0  0  0  0  0  0  0  0  0  0  0
    2.9591   -0.6196    1.9094 H   0  0  0  0  0  0  0  0  0  0  0  0
    1.8710    0.7397    1.9011 H   0  0  0  0  0  0  0  0  0  0  0  0
    3.1040    2.3878   -0.3579 H   0  0  0  0  0  0  0  0  0  0  0  0
    6.4959    4.0816    1.1572 H   0  0  0  0  0  0  0  0  0  0  0  0
    7.6283    3.2251    3.1959 H   0  0  0  0  0  0  0  0  0  0  0  0
    7.7453    1.5936    5.0381 H   0  0  0  0  0  0  0  0  0  0  0  0
    6.0432   -0.1999    5.2138 H   0  0  0  0  0  0  0  0  0  0  0  0
    4.2409   -0.3671    3.5817 H   0  0  0  0  0  0  0  0  0  0  0  0
    3.7510   -2.8215   -0.2303 H   0  0  0  0  0  0  0  0  0  0  0  0
    4.3847   -1.5191    0.7650 H   0  0  0  0  0  0  0  0  0  0  0  0
    6.1227   -2.3876   -0.7855 H   0  0  0  0  0  0  0  0  0  0  0  0
    5.7774   -0.6784   -1.0557 H   0  0  0  0  0  0  0  0  0  0  0  0
    4.6583   -3.0026   -2.7081 H   0  0  0  0  0  0  0  0  0  0  0  0
    5.9193   -1.8735   -3.2149 H   0  0  0  0  0  0  0  0  0  0  0  0
    4.3220    0.0278   -2.8747 H   0  0  0  0  0  0  0  0  0  0  0  0
    3.3183   -2.1241   -4.7999 H   0  0  0  0  0  0  0  0  0  0  0  0
    4.6235   -0.9900   -5.1136 H   0  0  0  0  0  0  0  0  0  0  0  0
    1.6872   -0.2583   -4.6465 H   0  0  0  0  0  0  0  0  0  0  0  0
    1.4568    0.0699   -6.9284 H   0  0  0  0  0  0  0  0  0  0  0  0
    2.6138   -1.2560   -7.0331 H   0  0  0  0  0  0  0  0  0  0  0  0
    3.0468    1.2717   -8.1047 H   0  0  0  0  0  0  0  0  0  0  0  0
    4.3867    0.2459   -7.5585 H   0  0  0  0  0  0  0  0  0  0  0  0
    2.1937    2.0128   -4.9934 H   0  0  0  0  0  0  0  0  0  0  0  0
    3.6950    1.5903   -4.1667 H   0  0  0  0  0  0  0  0  0  0  0  0
    2.2911   -2.1994   -2.2850 H   0  0  0  0  0  0  0  0  0  0  0  0
    1.8876   -0.4951   -2.4935 H   0  0  0  0  0  0  0  0  0  0  0  0
  1  2  2  0  0  0  0
  2  3  1  0  0  0  0
  2 14  1  0  0  0  0
  3  4  1  0  0  0  0
  3 26  1  0  0  0  0
  3 27  1  0  0  0  0
  4  5  1  0  0  0  0
  4 13  2  0  0  0  0
  5  6  2  0  0  0  0
  5 28  1  0  0  0  0
  6  7  1  0  0  0  0
  7  8  2  0  0  0  0
  7 29  1  0  0  0  0
  8  9  1  0  0  0  0
  8 13  1  0  0  0  0
  9 10  2  0  0  0  0
  9 30  1  0  0  0  0
 10 11  1  0  0  0  0
 10 31  1  0  0  0  0
 11 12  2  0  0  0  0
 11 32  1  0  0  0  0
 12 13  1  0  0  0  0
 12 33  1  0  0  0  0
 14 15  1  0  0  0  0
 14 25  1  0  0  0  0
 15 16  1  0  0  0  0
 15 34  1  0  0  0  0
 15 35  1  0  0  0  0
 16 17  1  0  0  0  0
 16 36  1  0  0  0  0
 16 37  1  0  0  0  0
 17 18  1  0  0  0  0
 17 38  1  0  0  0  0
 17 39  1  0  0  0  0
 18 19  1  0  0  0  0
 18 25  1  0  0  0  0
 18 40  1  1  0  0  0
 19 20  1  0  0  0  0
 19 41  1  0  0  0  0
 19 42  1  0  0  0  0
 20 21  1  0  0  0  0
 20 24  1  0  0  0  0
 20 43  1  1  0  0  0
 21 22  1  0  0  0  0
 21 44  1  0  0  0  0
 21 45  1  0  0  0  0
 22 23  1  0  0  0  0
 22 46  1  0  0  0  0
 22 47  1  0  0  0  0
 23 24  1  0  0  0  0
 24 48  1  0  0  0  0
 24 49  1  0  0  0  0
 25 50  1  0  0  0  0
 25 51  1  0  0  0  0
M  END
$$$$
