
 OpenBabel07202414193D

 64 69  0  0  1  0  0  0  0  0999 V2000
    1.0057   -0.3954   -0.2649 O   0  0  0  0  0  0  0  0  0  0  0  0
    2.2278   -0.1945   -0.2388 C   0  0  0  0  0  0  0  0  0  0  0  0
    2.8702    0.3238   -1.5175 C   0  0  0  0  0  0  0  0  0  0  0  0
    2.8732    1.8341   -1.6689 C   0  0  0  0  0  0  0  0  0  0  0  0
    2.2130    2.6471   -0.7444 C   0  0  0  0  0  0  0  0  0  0  0  0
    2.1903    3.9950   -0.7825 N   0  0  0  0  0  0  0  0  0  0  0  0
    2.8332    4.5753   -1.8129 C   0  0  0  0  0  0  0  0  0  0  0  0
    3.5191    3.8868   -2.8109 C   0  0  0  0  0  0  0  0  0  0  0  0
    4.1644    4.5740   -3.8538 C   0  0  0  0  0  0  0  0  0  0  0  0
    4.8624    3.8788   -4.8371 C   0  0  0  0  0  0  0  0  0  0  0  0
    4.9230    2.4922   -4.7845 C   0  0  0  0  0  0  0  0  0  0  0  0
    4.2747    1.7998   -3.7556 C   0  0  0  0  0  0  0  0  0  0  0  0
    3.5527    2.4753   -2.7433 C   0  0  0  0  0  0  0  0  0  0  0  0
    2.9649   -0.3576    0.9427 N   0  0  0  0  0  0  0  0  0  0  0  0
    2.1773   -0.8307    2.1026 C   0  0  0  0  0  0  0  0  0  0  0  0
    2.2371   -2.3289    2.2956 C   0  0  0  0  0  0  0  0  0  0  0  0
    1.6379   -3.1896    1.3635 C   0  0  0  0  0  0  0  0  0  0  0  0
    1.7440   -4.5747    1.4954 C   0  0  0  0  0  0  0  0  0  0  0  0
    2.4440   -5.1199    2.5691 C   0  0  0  0  0  0  0  0  0  0  0  0
    3.0033   -4.2763    3.5248 C   0  0  0  0  0  0  0  0  0  0  0  0
    3.8586   -4.9461    4.8594 Cl  0  0  0  0  0  0  0  0  0  0  0  0
    2.8889   -2.8907    3.4031 C   0  0  0  0  0  0  0  0  0  0  0  0
    4.4456   -0.3030    1.0677 C   0  0  1  0  0  0  0  0  0  0  0  0
    5.1940   -1.4271    0.3106 C   0  0  0  0  0  0  0  0  0  0  0  0
    6.6144   -0.8537    0.1884 C   0  0  0  0  0  0  0  0  0  0  0  0
    6.5305    0.5029    0.9245 C   0  0  1  0  0  0  0  0  0  0  0  0
    5.1334    0.9727    0.5580 C   0  0  0  0  0  0  0  0  0  0  0  0
    6.4386    0.2179    2.3671 N   0  0  0  0  0  0  0  0  0  0  0  0
    6.6406    1.3898    3.2424 C   0  0  0  0  0  0  0  0  0  0  0  0
    7.9746    2.0885    3.0308 C   0  0  0  0  0  0  0  0  0  0  0  0
    9.2686    1.3365    3.3552 C   0  0  0  0  0  0  0  0  0  0  0  0
    9.7141    2.4070    4.2264 O   0  0  0  0  0  0  0  0  0  0  0  0
    8.4014    3.0147    4.1754 C   0  0  0  0  0  0  0  0  0  0  0  0
    5.0462   -0.3000    2.5223 C   0  0  0  0  0  0  0  0  0  0  0  0
    2.2921   -0.0984   -2.3506 H   0  0  0  0  0  0  0  0  0  0  0  0
    3.8728   -0.0804   -1.6365 H   0  0  0  0  0  0  0  0  0  0  0  0
    1.6661    2.2369    0.1009 H   0  0  0  0  0  0  0  0  0  0  0  0
    2.7802    5.6641   -1.8143 H   0  0  0  0  0  0  0  0  0  0  0  0
    4.1242    5.6603   -3.9045 H   0  0  0  0  0  0  0  0  0  0  0  0
    5.3568    4.4202   -5.6397 H   0  0  0  0  0  0  0  0  0  0  0  0
    5.4722    1.9453   -5.5491 H   0  0  0  0  0  0  0  0  0  0  0  0
    4.3470    0.7133   -3.7613 H   0  0  0  0  0  0  0  0  0  0  0  0
    1.1231   -0.5431    1.9987 H   0  0  0  0  0  0  0  0  0  0  0  0
    2.5028   -0.3002    3.0017 H   0  0  0  0  0  0  0  0  0  0  0  0
    1.0784   -2.7832    0.5225 H   0  0  0  0  0  0  0  0  0  0  0  0
    1.2836   -5.2245    0.7556 H   0  0  0  0  0  0  0  0  0  0  0  0
    2.5432   -6.1980    2.6573 H   0  0  0  0  0  0  0  0  0  0  0  0
    3.3222   -2.2534    4.1701 H   0  0  0  0  0  0  0  0  0  0  0  0
    4.7844   -1.6421   -0.6793 H   0  0  0  0  0  0  0  0  0  0  0  0
    5.1827   -2.3737    0.8616 H   0  0  0  0  0  0  0  0  0  0  0  0
    6.8637   -0.6989   -0.8681 H   0  0  0  0  0  0  0  0  0  0  0  0
    7.3662   -1.5239    0.6182 H   0  0  0  0  0  0  0  0  0  0  0  0
    7.3429    1.1659    0.6243 H   0  0  0  0  0  0  0  0  0  0  0  0
    5.0912    1.1528   -0.5128 H   0  0  0  0  0  0  0  0  0  0  0  0
    4.8034    1.8789    1.0775 H   0  0  0  0  0  0  0  0  0  0  0  0
    6.5759    1.0356    4.2797 H   0  0  0  0  0  0  0  0  0  0  0  0
    5.8385    2.1273    3.1126 H   0  0  0  0  0  0  0  0  0  0  0  0
    8.0249    2.6172    2.0705 H   0  0  0  0  0  0  0  0  0  0  0  0
    9.9459    1.2011    2.5069 H   0  0  0  0  0  0  0  0  0  0  0  0
    9.1671    0.3965    3.9048 H   0  0  0  0  0  0  0  0  0  0  0  0
    8.4519    4.0764    3.9168 H   0  0  0  0  0  0  0  0  0  0  0  0
    7.8761    2.8939    5.1280 H   0  0  0  0  0  0  0  0  0  0  0  0
    4.4609    0.3389    3.1923 H   0  0  0  0  0  0  0  0  0  0  0  0
    5.0911   -1.3028    2.9543 H   0  0  0  0  0  0  0  0  0  0  0  0
  1  2  2  0  0  0  0
  2  3  1  0  0  0  0
  2 14  1  0  0  0  0
  3  4  1  0  0  0  0
  3 35  1  0  0  0  0
  3 36  1  0  0  0  0
  4  5  1  0  0  0  0
  4 13  2  0  0  0  0
  5  6  2  0  0  0  0
  5 37  1  0  0  0  0
  6  7  1  0  0  0  0
  7  8  2  0  0  0  0
  7 38  1  0  0  0  0
  8  9  1  0  0  0  0
  8 13  1  0  0  0  0
  9 10  2  0  0  0  0
  9 39  1  0  0  0  0
 10 11  1  0  0  0  0
 10 40  1  0  0  0  0
 11 12  2  0  0  0  0
 11 41  1  0  0  0  0
 12 13  1  0  0  0  0
 12 42  1  0  0  0  0
 14 15  1  0  0  0  0
 15 16  1  0  0  0  0
 15 43  1  0  0  0  0
 15 44  1  0  0  0  0
 16 17  1  0  0  0  0
 16 22  2  0  0  0  0
 17 18  2  0  0  0  0
 17 45  1  0  0  0  0
 18 19  1  0  0  0  0
 18 46  1  0  0  0  0
 19 20  2  0  0  0  0
 19 47  1  0  0  0  0
 20 21  1  0  0  0  0
 20 22  1  0  0  0  0
 22 48  1  0  0  0  0
 23 14  1  6  0  0  0
 23 24  1  0  0  0  0
 23 27  1  0  0  0  0
 23 34  1  0  0  0  0
 24 25  1  0  0  0  0
 24 49  1  0  0  0  0
 24 50  1  0  0  0  0
 25 26  1  0  0  0  0
 25 51  1  0  0  0  0
 25 52  1  0  0  0  0
 26 27  1  0  0  0  0
 26 28  1  0  0  0  0
 26 53  1  6  0  0  0
 27 54  1  0  0  0  0
 27 55  1  0  0  0  0
 28 29  1  0  0  0  0
 28 34  1  0  0  0  0
 29 30  1  0  0  0  0
 29 56  1  0  0  0  0
 29 57  1  0  0  0  0
 30 31  1  0  0  0  0
 30 33  1  0  0  0  0
 30 58  1  0  0  0  0
 31 32  1  0  0  0  0
 31 59  1  0  0  0  0
 31 60  1  0  0  0  0
 32 33  1  0  0  0  0
 33 61  1  0  0  0  0
 33 62  1  0  0  0  0
 34 63  1  0  0  0  0
 34 64  1  0  0  0  0
M  END
$$$$
