
 OpenBabel07202414183D

 38 40  0  0  0  0  0  0  0  0999 V2000
   -1.7809   -1.8307    0.7114 Cl  0  0  0  0  0  0  0  0  0  0  0  0
   -0.2701   -1.5170   -0.0503 C   0  0  0  0  0  0  0  0  0  0  0  0
    0.0274   -0.2344   -0.4968 C   0  0  0  0  0  0  0  0  0  0  0  0
    1.2450    0.0013   -1.1353 C   0  0  0  0  0  0  0  0  0  0  0  0
    2.1580   -1.0410   -1.3289 C   0  0  0  0  0  0  0  0  0  0  0  0
    1.8778   -2.3339   -0.8635 C   0  0  0  0  0  0  0  0  0  0  0  0
    2.7799   -3.5245   -1.1207 C   0  0  0  0  0  0  0  0  0  0  0  0
    4.2678   -3.2437   -1.2044 C   0  0  0  0  0  0  0  0  0  0  0  0
    4.7906   -2.8781   -2.2557 O   0  0  0  0  0  0  0  0  0  0  0  0
    4.9523   -3.3985   -0.0018 N   0  0  0  0  0  0  0  0  0  0  0  0
    6.3373   -3.0985    0.0638 C   0  0  0  0  0  0  0  0  0  0  0  0
    7.2106   -3.7740   -0.8012 C   0  0  0  0  0  0  0  0  0  0  0  0
    8.5527   -3.6179   -0.8260 N   0  0  0  0  0  0  0  0  0  0  0  0
    9.0521   -2.7052    0.0232 C   0  0  0  0  0  0  0  0  0  0  0  0
    8.2730   -1.9751    0.9104 C   0  0  0  0  0  0  0  0  0  0  0  0
    6.8783   -2.1720    0.9815 C   0  0  0  0  0  0  0  0  0  0  0  0
    6.0844   -1.3542    1.9503 C   0  0  0  0  0  0  0  0  0  0  0  0
    4.7950   -0.8723    1.6604 C   0  0  0  0  0  0  0  0  0  0  0  0
    4.0489   -0.1325    2.5883 C   0  0  0  0  0  0  0  0  0  0  0  0
    4.6103    0.2012    3.8145 C   0  0  0  0  0  0  0  0  0  0  0  0
    5.9063   -0.2034    4.1157 C   0  0  0  0  0  0  0  0  0  0  0  0
    6.6206   -0.9879    3.2018 C   0  0  0  0  0  0  0  0  0  0  0  0
    0.6438   -2.5616   -0.2303 C   0  0  0  0  0  0  0  0  0  0  0  0
   -0.6863    0.5748   -0.3672 H   0  0  0  0  0  0  0  0  0  0  0  0
    1.4723    1.0014   -1.5047 H   0  0  0  0  0  0  0  0  0  0  0  0
    3.0812   -0.8247   -1.8656 H   0  0  0  0  0  0  0  0  0  0  0  0
    2.4834   -3.9805   -2.0734 H   0  0  0  0  0  0  0  0  0  0  0  0
    2.6219   -4.2844   -0.3450 H   0  0  0  0  0  0  0  0  0  0  0  0
    4.4138   -3.2622    0.8461 H   0  0  0  0  0  0  0  0  0  0  0  0
    6.8380   -4.5166   -1.5033 H   0  0  0  0  0  0  0  0  0  0  0  0
   10.1266   -2.5595   -0.0298 H   0  0  0  0  0  0  0  0  0  0  0  0
    8.7722   -1.2301    1.5247 H   0  0  0  0  0  0  0  0  0  0  0  0
    4.3347   -1.0441    0.6878 H   0  0  0  0  0  0  0  0  0  0  0  0
    3.0431    0.1931    2.3399 H   0  0  0  0  0  0  0  0  0  0  0  0
    4.0476    0.8007    4.5258 H   0  0  0  0  0  0  0  0  0  0  0  0
    6.3623    0.0849    5.0565 H   0  0  0  0  0  0  0  0  0  0  0  0
    7.6247   -1.2962    3.4869 H   0  0  0  0  0  0  0  0  0  0  0  0
    0.3750   -3.5593    0.1031 H   0  0  0  0  0  0  0  0  0  0  0  0
  1  2  1  0  0  0  0
  2  3  1  0  0  0  0
  2 23  2  0  0  0  0
  3  4  2  0  0  0  0
  3 24  1  0  0  0  0
  4  5  1  0  0  0  0
  4 25  1  0  0  0  0
  5  6  2  0  0  0  0
  5 26  1  0  0  0  0
  6  7  1  0  0  0  0
  6 23  1  0  0  0  0
  7  8  1  0  0  0  0
  7 27  1  0  0  0  0
  7 28  1  0  0  0  0
  8  9  2  0  0  0  0
  8 10  1  0  0  0  0
 10 11  1  0  0  0  0
 10 29  1  0  0  0  0
 11 12  1  0  0  0  0
 11 16  2  0  0  0  0
 12 13  2  0  0  0  0
 12 30  1  0  0  0  0
 13 14  1  0  0  0  0
 14 15  2  0  0  0  0
 14 31  1  0  0  0  0
 15 16  1  0  0  0  0
 15 32  1  0  0  0  0
 16 17  1  0  0  0  0
 17 18  1  0  0  0  0
 17 22  2  0  0  0  0
 18 19  2  0  0  0  0
 18 33  1  0  0  0  0
 19 20  1  0  0  0  0
 19 34  1  0  0  0  0
 20 21  2  0  0  0  0
 20 35  1  0  0  0  0
 21 22  1  0  0  0  0
 21 36  1  0  0  0  0
 22 37  1  0  0  0  0
 23 38  1  0  0  0  0
M  END
$$$$
