
 OpenBabel07202414143D

 53 57  0  0  1  0  0  0  0  0999 V2000
    6.6602    1.4809    3.1821 C   0  0  0  0  0  0  0  0  0  0  0  0
    6.2187    0.2822    2.5286 N   0  0  0  0  0  0  0  0  0  0  0  0
    5.3844    0.3435    1.4350 C   0  0  0  0  0  0  0  0  0  0  0  0
    5.0790    1.3879    0.8646 O   0  0  0  0  0  0  0  0  0  0  0  0
    4.8669   -1.0131    0.9585 C   0  0  0  0  0  0  0  0  0  0  0  0
    5.3119   -2.1721    1.7415 N   0  0  0  0  0  0  0  0  0  0  0  0
    6.4851   -2.9554    1.3544 C   0  0  0  0  0  0  0  0  0  0  0  0
    6.1024   -4.4347    1.1889 C   0  0  1  0  0  0  0  0  0  0  0  0
    5.2406   -4.5934   -0.0639 C   0  0  0  0  0  0  0  0  0  0  0  0
    6.0284   -5.4652   -0.9983 C   0  0  0  0  0  0  0  0  0  0  0  0
    7.2402   -5.8707   -0.3533 N   0  0  0  0  0  0  0  0  0  0  0  0
    8.0784   -6.9094   -0.9199 C   0  0  0  0  0  0  0  0  0  0  0  0
    9.0671   -7.5102   -0.1287 C   0  0  0  0  0  0  0  0  0  0  0  0
    9.7494   -8.6367   -0.4473 N   0  0  0  0  0  0  0  0  0  0  0  0
    9.5040   -9.1700   -1.6565 C   0  0  0  0  0  0  0  0  0  0  0  0
    8.6804   -8.5964   -2.6170 C   0  0  0  0  0  0  0  0  0  0  0  0
    8.6395   -9.1575   -3.9120 C   0  0  0  0  0  0  0  0  0  0  0  0
    7.8633   -8.5976   -4.9189 C   0  0  0  0  0  0  0  0  0  0  0  0
    7.0823   -7.5019   -4.6248 C   0  0  0  0  0  0  0  0  0  0  0  0
    7.1130   -6.9529   -3.3380 C   0  0  0  0  0  0  0  0  0  0  0  0
    7.9243   -7.4473   -2.2668 C   0  0  0  0  0  0  0  0  0  0  0  0
    7.3658   -5.2652    0.9090 C   0  0  0  0  0  0  0  0  0  0  0  0
    8.2947   -5.3547    1.6956 O   0  0  0  0  0  0  0  0  0  0  0  0
    5.2871   -4.9187    2.3909 C   0  0  0  0  0  0  0  0  0  0  0  0
    5.0419   -6.2862    2.6109 C   0  0  0  0  0  0  0  0  0  0  0  0
    4.1206   -6.6958    3.5787 C   0  0  0  0  0  0  0  0  0  0  0  0
    3.7221   -8.3628    3.7218 Cl  0  0  0  0  0  0  0  0  0  0  0  0
    3.4661   -5.7646    4.3816 C   0  0  0  0  0  0  0  0  0  0  0  0
    3.7161   -4.4130    4.2013 C   0  0  0  0  0  0  0  0  0  0  0  0
    4.5914   -3.9850    3.1941 C   0  0  0  0  0  0  0  0  0  0  0  0
    4.5727   -2.5390    2.8488 C   0  0  0  0  0  0  0  0  0  0  0  0
    3.8596   -1.7504    3.4565 O   0  0  0  0  0  0  0  0  0  0  0  0
    7.3595    1.1987    3.9730 H   0  0  0  0  0  0  0  0  0  0  0  0
    5.7959    1.9926    3.6104 H   0  0  0  0  0  0  0  0  0  0  0  0
    7.1537    2.1314    2.4567 H   0  0  0  0  0  0  0  0  0  0  0  0
    6.1146   -0.5546    3.0913 H   0  0  0  0  0  0  0  0  0  0  0  0
    5.1473   -1.1591   -0.0892 H   0  0  0  0  0  0  0  0  0  0  0  0
    3.7706   -0.9730    1.0119 H   0  0  0  0  0  0  0  0  0  0  0  0
    7.2293   -2.8272    2.1516 H   0  0  0  0  0  0  0  0  0  0  0  0
    6.9230   -2.5405    0.4382 H   0  0  0  0  0  0  0  0  0  0  0  0
    5.0375   -3.6379   -0.5615 H   0  0  0  0  0  0  0  0  0  0  0  0
    4.2569   -5.0353    0.1292 H   0  0  0  0  0  0  0  0  0  0  0  0
    6.2867   -4.8457   -1.8583 H   0  0  0  0  0  0  0  0  0  0  0  0
    5.4378   -6.3476   -1.2651 H   0  0  0  0  0  0  0  0  0  0  0  0
    9.3566   -7.1271    0.8440 H   0  0  0  0  0  0  0  0  0  0  0  0
   10.0258  -10.1057   -1.8476 H   0  0  0  0  0  0  0  0  0  0  0  0
    9.2505  -10.0243   -4.1587 H   0  0  0  0  0  0  0  0  0  0  0  0
    7.8757   -9.0049   -5.9256 H   0  0  0  0  0  0  0  0  0  0  0  0
    6.4561   -7.0478   -5.3897 H   0  0  0  0  0  0  0  0  0  0  0  0
    6.4832   -6.0852   -3.2414 H   0  0  0  0  0  0  0  0  0  0  0  0
    5.5145   -7.0407    1.9840 H   0  0  0  0  0  0  0  0  0  0  0  0
    2.7272   -6.0814    5.1127 H   0  0  0  0  0  0  0  0  0  0  0  0
    3.1609   -3.6800    4.7924 H   0  0  0  0  0  0  0  0  0  0  0  0
  1  2  1  0  0  0  0
  1 33  1  0  0  0  0
  1 34  1  0  0  0  0
  1 35  1  0  0  0  0
  2  3  1  0  0  0  0
  2 36  1  0  0  0  0
  3  4  2  0  0  0  0
  3  5  1  0  0  0  0
  5  6  1  0  0  0  0
  5 37  1  0  0  0  0
  5 38  1  0  0  0  0
  6  7  1  0  0  0  0
  6 31  1  0  0  0  0
  7  8  1  0  0  0  0
  7 39  1  0  0  0  0
  7 40  1  0  0  0  0
  8  9  1  0  0  0  0
  8 22  1  6  0  0  0
  8 24  1  0  0  0  0
  9 10  1  0  0  0  0
  9 41  1  0  0  0  0
  9 42  1  0  0  0  0
 10 11  1  0  0  0  0
 10 43  1  0  0  0  0
 10 44  1  0  0  0  0
 11 12  1  0  0  0  0
 11 22  1  0  0  0  0
 12 13  1  0  0  0  0
 12 21  2  0  0  0  0
 13 14  2  0  0  0  0
 13 45  1  0  0  0  0
 14 15  1  0  0  0  0
 15 16  2  0  0  0  0
 15 46  1  0  0  0  0
 16 17  1  0  0  0  0
 16 21  1  0  0  0  0
 17 18  2  0  0  0  0
 17 47  1  0  0  0  0
 18 19  1  0  0  0  0
 18 48  1  0  0  0  0
 19 20  2  0  0  0  0
 19 49  1  0  0  0  0
 20 21  1  0  0  0  0
 20 50  1  0  0  0  0
 22 23  2  0  0  0  0
 24 25  1  0  0  0  0
 24 30  2  0  0  0  0
 25 26  2  0  0  0  0
 25 51  1  0  0  0  0
 26 27  1  0  0  0  0
 26 28  1  0  0  0  0
 28 29  2  0  0  0  0
 28 52  1  0  0  0  0
 29 30  1  0  0  0  0
 29 53  1  0  0  0  0
 30 31  1  0  0  0  0
 31 32  2  0  0  0  0
M  END
$$$$
