
 OpenBabel07202414143D

 57 62  0  0  1  0  0  0  0  0999 V2000
    7.4219   -0.5733   -2.1633 C   0  0  0  0  0  0  0  0  0  0  0  0
    6.2654   -0.2614   -1.3714 N   0  0  0  0  0  0  0  0  0  0  0  0
    5.6888    0.9875   -1.3622 C   0  0  0  0  0  0  0  0  0  0  0  0
    6.1077    1.9515   -1.9870 O   0  0  0  0  0  0  0  0  0  0  0  0
    4.4769    1.1121   -0.4553 C   0  0  0  0  0  0  0  0  0  0  0  0
    4.7902    1.1372    0.9661 N   0  0  0  0  0  0  0  0  0  0  0  0
    4.6151    2.3621    1.7201 C   0  0  0  0  0  0  0  0  0  0  0  0
    5.8759    2.7391    2.5049 C   0  0  1  0  0  0  0  0  0  0  0  0
    6.9902    3.2292    1.5600 C   0  0  0  0  0  0  0  0  0  0  0  0
    7.5739    4.4254    2.2771 C   0  0  0  0  0  0  0  0  0  0  0  0
    6.4832    4.9767    3.0601 N   0  0  0  0  0  0  0  0  0  0  0  0
    6.0456    6.2904    2.7249 C   0  0  0  0  0  0  0  0  0  0  0  0
    5.5089    6.5538    1.4603 C   0  0  0  0  0  0  0  0  0  0  0  0
    5.2434    7.7878    0.9842 N   0  0  0  0  0  0  0  0  0  0  0  0
    5.6177    8.8178    1.7729 C   0  0  0  0  0  0  0  0  0  0  0  0
    6.2345    8.6786    3.0196 C   0  0  0  0  0  0  0  0  0  0  0  0
    6.7641    9.7775    3.7149 C   0  0  0  0  0  0  0  0  0  0  0  0
    7.3478    9.6056    4.9694 C   0  0  0  0  0  0  0  0  0  0  0  0
    7.3313    8.3537    5.5756 C   0  0  0  0  0  0  0  0  0  0  0  0
    6.8448    7.2486    4.8762 C   0  0  0  0  0  0  0  0  0  0  0  0
    6.3645    7.3804    3.5559 C   0  0  0  0  0  0  0  0  0  0  0  0
    5.5003    3.9996    3.2732 C   0  0  0  0  0  0  0  0  0  0  0  0
    4.4711    4.1472    3.9186 O   0  0  0  0  0  0  0  0  0  0  0  0
    6.3482    1.5447    3.3257 C   0  0  0  0  0  0  0  0  0  0  0  0
    7.1930    1.6893    4.4387 C   0  0  0  0  0  0  0  0  0  0  0  0
    7.7480    0.5638    5.0550 C   0  0  0  0  0  0  0  0  0  0  0  0
    8.8830    0.7660    6.3363 Cl  0  0  0  0  0  0  0  0  0  0  0  0
    7.4420   -0.7182    4.6098 C   0  0  0  0  0  0  0  0  0  0  0  0
    6.5821   -0.8789    3.5255 C   0  0  0  0  0  0  0  0  0  0  0  0
    6.0500    0.2402    2.8693 C   0  0  0  0  0  0  0  0  0  0  0  0
    5.3200    0.0104    1.5913 C   0  0  0  0  0  0  0  0  0  0  0  0
    5.2944   -1.1109    1.0805 O   0  0  0  0  0  0  0  0  0  0  0  0
    3.1998    0.4126   -0.8964 C   0  0  0  0  0  0  0  0  0  0  0  0
    3.2915    1.8987   -1.0087 C   0  0  0  0  0  0  0  0  0  0  0  0
    7.7734   -1.5714   -1.8924 H   0  0  0  0  0  0  0  0  0  0  0  0
    8.2095    0.1629   -1.9835 H   0  0  0  0  0  0  0  0  0  0  0  0
    7.1400   -0.5525   -3.2190 H   0  0  0  0  0  0  0  0  0  0  0  0
    5.9080   -0.9432   -0.7014 H   0  0  0  0  0  0  0  0  0  0  0  0
    3.7697    2.1829    2.4003 H   0  0  0  0  0  0  0  0  0  0  0  0
    4.3177    3.1833    1.0560 H   0  0  0  0  0  0  0  0  0  0  0  0
    6.5748    3.5589    0.5993 H   0  0  0  0  0  0  0  0  0  0  0  0
    7.7554    2.4762    1.3400 H   0  0  0  0  0  0  0  0  0  0  0  0
    8.0066    5.1569    1.5860 H   0  0  0  0  0  0  0  0  0  0  0  0
    8.3566    4.1235    2.9818 H   0  0  0  0  0  0  0  0  0  0  0  0
    5.3188    5.7569    0.7473 H   0  0  0  0  0  0  0  0  0  0  0  0
    5.4082    9.7999    1.3559 H   0  0  0  0  0  0  0  0  0  0  0  0
    6.7669   10.7658    3.2600 H   0  0  0  0  0  0  0  0  0  0  0  0
    7.8067   10.4505    5.4758 H   0  0  0  0  0  0  0  0  0  0  0  0
    7.7196    8.2301    6.5833 H   0  0  0  0  0  0  0  0  0  0  0  0
    6.8368    6.2769    5.3669 H   0  0  0  0  0  0  0  0  0  0  0  0
    7.4688    2.6739    4.8135 H   0  0  0  0  0  0  0  0  0  0  0  0
    7.8911   -1.5916    5.0736 H   0  0  0  0  0  0  0  0  0  0  0  0
    6.3691   -1.8811    3.1584 H   0  0  0  0  0  0  0  0  0  0  0  0
    2.5578    0.0011   -0.1270 H   0  0  0  0  0  0  0  0  0  0  0  0
    3.2247   -0.1685   -1.8102 H   0  0  0  0  0  0  0  0  0  0  0  0
    2.6744    2.4880   -0.3428 H   0  0  0  0  0  0  0  0  0  0  0  0
    3.3936    2.3339   -1.9983 H   0  0  0  0  0  0  0  0  0  0  0  0
  1  2  1  0  0  0  0
  1 35  1  0  0  0  0
  1 36  1  0  0  0  0
  1 37  1  0  0  0  0
  2  3  1  0  0  0  0
  2 38  1  0  0  0  0
  3  4  2  0  0  0  0
  3  5  1  0  0  0  0
  5  6  1  0  0  0  0
  5 33  1  0  0  0  0
  5 34  1  0  0  0  0
  6  7  1  0  0  0  0
  6 31  1  0  0  0  0
  7  8  1  0  0  0  0
  7 39  1  0  0  0  0
  7 40  1  0  0  0  0
  8  9  1  0  0  0  0
  8 22  1  1  0  0  0
  8 24  1  0  0  0  0
  9 10  1  0  0  0  0
  9 41  1  0  0  0  0
  9 42  1  0  0  0  0
 10 11  1  0  0  0  0
 10 43  1  0  0  0  0
 10 44  1  0  0  0  0
 11 12  1  0  0  0  0
 11 22  1  0  0  0  0
 12 13  2  0  0  0  0
 12 21  1  0  0  0  0
 13 14  1  0  0  0  0
 13 45  1  0  0  0  0
 14 15  2  0  0  0  0
 15 16  1  0  0  0  0
 15 46  1  0  0  0  0
 16 17  2  0  0  0  0
 16 21  1  0  0  0  0
 17 18  1  0  0  0  0
 17 47  1  0  0  0  0
 18 19  2  0  0  0  0
 18 48  1  0  0  0  0
 19 20  1  0  0  0  0
 19 49  1  0  0  0  0
 20 21  2  0  0  0  0
 20 50  1  0  0  0  0
 22 23  2  0  0  0  0
 24 25  2  0  0  0  0
 24 30  1  0  0  0  0
 25 26  1  0  0  0  0
 25 51  1  0  0  0  0
 26 27  1  0  0  0  0
 26 28  2  0  0  0  0
 28 29  1  0  0  0  0
 28 52  1  0  0  0  0
 29 30  2  0  0  0  0
 29 53  1  0  0  0  0
 30 31  1  0  0  0  0
 31 32  2  0  0  0  0
 33 34  1  0  0  0  0
 33 54  1  0  0  0  0
 33 55  1  0  0  0  0
 34 56  1  0  0  0  0
 34 57  1  0  0  0  0
M  END
$$$$
