
 OpenBabel07202414203D

 57 61  0  0  0  0  0  0  0  0999 V2000
   -1.1053    1.5683   -3.7705 C   0  0  0  0  0  0  0  0  0  0  0  0
   -1.8677    0.4122   -3.9101 C   0  0  0  0  0  0  0  0  0  0  0  0
   -2.6250   -0.0783   -2.8422 C   0  0  0  0  0  0  0  0  0  0  0  0
   -2.6112    0.5560   -1.5910 C   0  0  0  0  0  0  0  0  0  0  0  0
   -1.8477    1.7354   -1.4755 C   0  0  0  0  0  0  0  0  0  0  0  0
   -1.1054    2.2382   -2.5474 C   0  0  0  0  0  0  0  0  0  0  0  0
   -3.3052    0.0072   -0.3492 C   0  0  0  0  0  0  0  0  0  0  0  0
   -4.1144   -1.2264   -0.5080 N   0  0  0  0  0  0  0  0  0  0  0  0
   -3.4556   -2.4475   -0.1604 C   0  0  0  0  0  0  0  0  0  0  0  0
   -3.0344   -3.3022   -1.1713 C   0  0  0  0  0  0  0  0  0  0  0  0
   -2.5108   -4.5580   -0.8589 C   0  0  0  0  0  0  0  0  0  0  0  0
   -2.3991   -5.0112    0.4645 C   0  0  0  0  0  0  0  0  0  0  0  0
   -2.8252   -4.1363    1.4730 C   0  0  0  0  0  0  0  0  0  0  0  0
   -3.3552   -2.8665    1.1706 C   0  0  0  0  0  0  0  0  0  0  0  0
   -1.8377   -6.2526    0.7028 N   0  0  0  0  0  0  0  0  0  0  0  0
   -1.1668   -6.5776    1.9675 C   0  0  0  0  0  0  0  0  0  0  0  0
   -0.0854   -7.6321    1.6655 C   0  0  0  0  0  0  0  0  0  0  0  0
   -0.6583   -8.8194    1.0865 O   0  0  0  0  0  0  0  0  0  0  0  0
   -1.3326   -8.5026   -0.1457 C   0  0  0  0  0  0  0  0  0  0  0  0
   -2.4309   -7.4421    0.0556 C   0  0  0  0  0  0  0  0  0  0  0  0
   -5.5049   -1.3144   -0.6849 C   0  0  0  0  0  0  0  0  0  0  0  0
   -6.0983   -2.3988   -0.6277 O   0  0  0  0  0  0  0  0  0  0  0  0
   -6.3169   -0.0574   -0.8315 C   0  0  0  0  0  0  0  0  0  0  0  0
   -7.1697    0.0973   -2.0026 N   0  0  0  0  0  0  0  0  0  0  0  0
   -7.5138   -0.6967   -3.0718 C   0  0  0  0  0  0  0  0  0  0  0  0
   -7.2865   -2.0236   -3.4704 C   0  0  0  0  0  0  0  0  0  0  0  0
   -7.8128   -2.4334   -4.7085 C   0  0  0  0  0  0  0  0  0  0  0  0
   -8.5395   -1.5624   -5.5205 C   0  0  0  0  0  0  0  0  0  0  0  0
   -8.7841   -0.2547   -5.1024 C   0  0  0  0  0  0  0  0  0  0  0  0
   -8.2718    0.1687   -3.8669 C   0  0  0  0  0  0  0  0  0  0  0  0
   -8.3953    1.3799   -3.2564 N   0  0  0  0  0  0  0  0  0  0  0  0
   -7.7391    1.3252   -2.1123 N   0  0  0  0  0  0  0  0  0  0  0  0
   -0.5076    1.9401   -4.6003 H   0  0  0  0  0  0  0  0  0  0  0  0
   -1.8616   -0.1177   -4.8649 H   0  0  0  0  0  0  0  0  0  0  0  0
   -3.2142   -0.9719   -3.0061 H   0  0  0  0  0  0  0  0  0  0  0  0
   -1.8099    2.2773   -0.5287 H   0  0  0  0  0  0  0  0  0  0  0  0
   -0.5166    3.1457   -2.4344 H   0  0  0  0  0  0  0  0  0  0  0  0
   -3.9287    0.7975    0.0796 H   0  0  0  0  0  0  0  0  0  0  0  0
   -2.5210   -0.1909    0.3943 H   0  0  0  0  0  0  0  0  0  0  0  0
   -3.1198   -3.0200   -2.2135 H   0  0  0  0  0  0  0  0  0  0  0  0
   -2.1623   -5.1847   -1.6744 H   0  0  0  0  0  0  0  0  0  0  0  0
   -2.7946   -4.4467    2.5146 H   0  0  0  0  0  0  0  0  0  0  0  0
   -3.7256   -2.2429    1.9791 H   0  0  0  0  0  0  0  0  0  0  0  0
   -1.8961   -6.9831    2.6792 H   0  0  0  0  0  0  0  0  0  0  0  0
   -0.6879   -5.6981    2.4109 H   0  0  0  0  0  0  0  0  0  0  0  0
    0.4272   -7.9237    2.5867 H   0  0  0  0  0  0  0  0  0  0  0  0
    0.6671   -7.2303    0.9747 H   0  0  0  0  0  0  0  0  0  0  0  0
   -1.7726   -9.4293   -0.5282 H   0  0  0  0  0  0  0  0  0  0  0  0
   -0.5905   -8.1593   -0.8769 H   0  0  0  0  0  0  0  0  0  0  0  0
   -3.2118   -7.8477    0.7119 H   0  0  0  0  0  0  0  0  0  0  0  0
   -2.8942   -7.2192   -0.9111 H   0  0  0  0  0  0  0  0  0  0  0  0
   -5.6997    0.8396   -0.8044 H   0  0  0  0  0  0  0  0  0  0  0  0
   -6.9896   -0.0149    0.0360 H   0  0  0  0  0  0  0  0  0  0  0  0
   -6.7438   -2.7372   -2.8604 H   0  0  0  0  0  0  0  0  0  0  0  0
   -7.6541   -3.4572   -5.0445 H   0  0  0  0  0  0  0  0  0  0  0  0
   -8.9262   -1.9007   -6.4790 H   0  0  0  0  0  0  0  0  0  0  0  0
   -9.3603    0.4321   -5.7142 H   0  0  0  0  0  0  0  0  0  0  0  0
  1  2  1  0  0  0  0
  1  6  2  0  0  0  0
  1 33  1  0  0  0  0
  2  3  2  0  0  0  0
  2 34  1  0  0  0  0
  3  4  1  0  0  0  0
  3 35  1  0  0  0  0
  4  5  2  0  0  0  0
  4  7  1  0  0  0  0
  5  6  1  0  0  0  0
  5 36  1  0  0  0  0
  6 37  1  0  0  0  0
  7  8  1  0  0  0  0
  7 38  1  0  0  0  0
  7 39  1  0  0  0  0
  8  9  1  0  0  0  0
  8 21  1  0  0  0  0
  9 10  1  0  0  0  0
  9 14  2  0  0  0  0
 10 11  2  0  0  0  0
 10 40  1  0  0  0  0
 11 12  1  0  0  0  0
 11 41  1  0  0  0  0
 12 13  2  0  0  0  0
 12 15  1  0  0  0  0
 13 14  1  0  0  0  0
 13 42  1  0  0  0  0
 14 43  1  0  0  0  0
 15 16  1  0  0  0  0
 15 20  1  0  0  0  0
 16 17  1  0  0  0  0
 16 44  1  0  0  0  0
 16 45  1  0  0  0  0
 17 18  1  0  0  0  0
 17 46  1  0  0  0  0
 17 47  1  0  0  0  0
 18 19  1  0  0  0  0
 19 20  1  0  0  0  0
 19 48  1  0  0  0  0
 19 49  1  0  0  0  0
 20 50  1  0  0  0  0
 20 51  1  0  0  0  0
 21 22  2  0  0  0  0
 21 23  1  0  0  0  0
 23 24  1  0  0  0  0
 23 52  1  0  0  0  0
 23 53  1  0  0  0  0
 24 25  1  0  0  0  0
 24 32  1  0  0  0  0
 25 26  1  0  0  0  0
 25 30  2  0  0  0  0
 26 27  2  0  0  0  0
 26 54  1  0  0  0  0
 27 28  1  0  0  0  0
 27 55  1  0  0  0  0
 28 29  2  0  0  0  0
 28 56  1  0  0  0  0
 29 30  1  0  0  0  0
 29 57  1  0  0  0  0
 30 31  1  0  0  0  0
 31 32  2  0  0  0  0
M  END
$$$$
