
 OpenBabel07202414203D

 43 46  0  0  1  0  0  0  0  0999 V2000
   -3.1132    4.2376   -2.9919 C   0  0  0  0  0  0  0  0  0  0  0  0
   -3.3020    4.2869   -1.6155 C   0  0  0  0  0  0  0  0  0  0  0  0
   -3.1015    3.1412   -0.8541 C   0  0  0  0  0  0  0  0  0  0  0  0
   -2.7516    1.9207   -1.4651 C   0  0  0  0  0  0  0  0  0  0  0  0
   -2.4853    1.9044   -2.8370 C   0  0  0  0  0  0  0  0  0  0  0  0
   -2.6753    3.0595   -3.5966 C   0  0  0  0  0  0  0  0  0  0  0  0
   -2.8460    0.6630   -0.6300 C   0  0  2  0  0  0  0  0  0  0  0  0
   -1.5835    0.2462    0.1841 C   0  0  0  0  0  0  0  0  0  0  0  0
   -1.6567    0.2700    1.4162 O   0  0  0  0  0  0  0  0  0  0  0  0
   -0.4622   -0.1753   -0.5204 N   0  0  0  0  0  0  0  0  0  0  0  0
    0.8242   -0.4539    0.0373 C   0  0  0  0  0  0  0  0  0  0  0  0
    1.1303   -0.2881    1.3861 C   0  0  0  0  0  0  0  0  0  0  0  0
    2.4245   -0.5290    1.8323 C   0  0  0  0  0  0  0  0  0  0  0  0
    3.4290   -0.9254    1.0276 N   0  0  0  0  0  0  0  0  0  0  0  0
    3.1143   -1.0935   -0.2742 C   0  0  0  0  0  0  0  0  0  0  0  0
    1.8477   -0.8788   -0.8053 C   0  0  0  0  0  0  0  0  0  0  0  0
   -3.6959   -0.3806   -1.2214 N   0  0  0  0  0  0  0  0  0  0  0  0
   -4.7726   -0.9184   -0.3964 C   0  0  0  0  0  0  0  0  0  0  0  0
   -4.2474   -2.2670   -0.0768 C   0  0  0  0  0  0  0  0  0  0  0  0
   -4.4063   -3.0289    1.0584 C   0  0  0  0  0  0  0  0  0  0  0  0
   -3.6124   -4.1710    1.1785 C   0  0  0  0  0  0  0  0  0  0  0  0
   -2.7276   -4.5608    0.1535 C   0  0  0  0  0  0  0  0  0  0  0  0
   -2.5865   -3.7875   -1.0013 C   0  0  0  0  0  0  0  0  0  0  0  0
   -3.3370   -2.6361   -1.0680 C   0  0  0  0  0  0  0  0  0  0  0  0
   -3.0189   -1.4288   -1.8450 C   0  0  0  0  0  0  0  0  0  0  0  0
   -2.1039   -1.3544   -2.6525 O   0  0  0  0  0  0  0  0  0  0  0  0
   -3.3176    5.1163   -3.5964 H   0  0  0  0  0  0  0  0  0  0  0  0
   -3.6382    5.2008   -1.1360 H   0  0  0  0  0  0  0  0  0  0  0  0
   -3.2852    3.1885    0.2188 H   0  0  0  0  0  0  0  0  0  0  0  0
   -2.1962    0.9876   -3.3429 H   0  0  0  0  0  0  0  0  0  0  0  0
   -2.5207    3.0272   -4.6714 H   0  0  0  0  0  0  0  0  0  0  0  0
   -3.4855    1.0106    0.1970 H   0  0  0  0  0  0  0  0  0  0  0  0
   -0.5849   -0.3471   -1.5183 H   0  0  0  0  0  0  0  0  0  0  0  0
    0.4047    0.0284    2.1269 H   0  0  0  0  0  0  0  0  0  0  0  0
    2.6869   -0.3944    2.8786 H   0  0  0  0  0  0  0  0  0  0  0  0
    3.9486   -1.4072   -0.8990 H   0  0  0  0  0  0  0  0  0  0  0  0
    1.6857   -1.0395   -1.8711 H   0  0  0  0  0  0  0  0  0  0  0  0
   -5.6671   -1.0040   -1.0285 H   0  0  0  0  0  0  0  0  0  0  0  0
   -5.0063   -0.2984    0.4716 H   0  0  0  0  0  0  0  0  0  0  0  0
   -5.0450   -2.7037    1.8744 H   0  0  0  0  0  0  0  0  0  0  0  0
   -3.6375   -4.7434    2.1031 H   0  0  0  0  0  0  0  0  0  0  0  0
   -2.0920   -5.4310    0.2908 H   0  0  0  0  0  0  0  0  0  0  0  0
   -1.8425   -4.0145   -1.7581 H   0  0  0  0  0  0  0  0  0  0  0  0
  1  2  1  0  0  0  0
  1  6  2  0  0  0  0
  1 27  1  0  0  0  0
  2  3  2  0  0  0  0
  2 28  1  0  0  0  0
  3  4  1  0  0  0  0
  3 29  1  0  0  0  0
  4  5  2  0  0  0  0
  5  6  1  0  0  0  0
  5 30  1  0  0  0  0
  6 31  1  0  0  0  0
  7 17  1  0  0  0  0
  7  8  1  0  0  0  0
  7  4  1  0  0  0  0
  7 32  1  1  0  0  0
  8  9  2  0  0  0  0
  8 10  1  0  0  0  0
 10 11  1  0  0  0  0
 10 33  1  0  0  0  0
 11 12  1  0  0  0  0
 11 16  2  0  0  0  0
 12 13  2  0  0  0  0
 12 34  1  0  0  0  0
 13 14  1  0  0  0  0
 13 35  1  0  0  0  0
 14 15  2  0  0  0  0
 15 16  1  0  0  0  0
 15 36  1  0  0  0  0
 16 37  1  0  0  0  0
 17 18  1  0  0  0  0
 17 25  1  0  0  0  0
 18 19  1  0  0  0  0
 18 38  1  0  0  0  0
 18 39  1  0  0  0  0
 19 20  1  0  0  0  0
 19 24  2  0  0  0  0
 20 21  2  0  0  0  0
 20 40  1  0  0  0  0
 21 22  1  0  0  0  0
 21 41  1  0  0  0  0
 22 23  2  0  0  0  0
 22 42  1  0  0  0  0
 23 24  1  0  0  0  0
 23 43  1  0  0  0  0
 24 25  1  0  0  0  0
 25 26  2  0  0  0  0
M  END
$$$$
