
 OpenBabel07202414203D

 60 64  0  0  0  0  0  0  0  0999 V2000
    1.9446    3.6341    4.1607 O   0  5  0  0  0  0  0  0  0  0  0  0
    2.1109    3.9373    2.9680 N   0  3  0  0  0  0  0  0  0  0  0  0
    1.7418    5.0057    2.4555 O   0  0  0  0  0  0  0  0  0  0  0  0
    2.8226    3.0082    2.1226 C   0  0  0  0  0  0  0  0  0  0  0  0
    2.3522    1.6919    1.8873 C   0  0  0  0  0  0  0  0  0  0  0  0
    1.1432    1.1629    2.3088 N   0  0  0  0  0  0  0  0  0  0  0  0
    0.9733   -0.2617    2.6830 C   0  0  0  0  0  0  0  0  0  0  0  0
   -0.1698   -0.9165    1.8734 C   0  0  0  0  0  0  0  0  0  0  0  0
   -1.4117   -0.1184    1.9271 N   0  0  0  0  0  0  0  0  0  0  0  0
   -2.5726   -0.5433    2.5432 C   0  0  0  0  0  0  0  0  0  0  0  0
   -2.5666   -1.4320    3.6244 C   0  0  0  0  0  0  0  0  0  0  0  0
   -3.7547   -1.8758    4.2388 C   0  0  0  0  0  0  0  0  0  0  0  0
   -3.6787   -2.8751    5.3675 C   0  0  0  0  0  0  0  0  0  0  0  0
   -4.3298   -2.4725    6.6754 C   0  0  0  0  0  0  0  0  0  0  0  0
   -5.0069   -3.2825    7.3067 O   0  0  0  0  0  0  0  0  0  0  0  0
   -4.0416   -1.1834    7.1104 N   0  0  0  0  0  0  0  0  0  0  0  0
   -4.5911   -0.7332    8.3385 C   0  0  0  0  0  0  0  0  0  0  0  0
   -4.3302   -1.4345    9.5188 C   0  0  0  0  0  0  0  0  0  0  0  0
   -4.8482   -1.1177   10.7249 N   0  0  0  0  0  0  0  0  0  0  0  0
   -5.7942   -0.1569   10.7214 C   0  0  0  0  0  0  0  0  0  0  0  0
   -6.2245    0.5263    9.5811 C   0  0  0  0  0  0  0  0  0  0  0  0
   -7.3760    1.3298    9.5966 C   0  0  0  0  0  0  0  0  0  0  0  0
   -7.7786    2.0123    8.4509 C   0  0  0  0  0  0  0  0  0  0  0  0
   -6.9830    1.9777    7.3120 C   0  0  0  0  0  0  0  0  0  0  0  0
   -5.8599    1.1495    7.2719 C   0  0  0  0  0  0  0  0  0  0  0  0
   -5.5147    0.3352    8.3769 C   0  0  0  0  0  0  0  0  0  0  0  0
   -4.9848   -1.4325    3.7434 C   0  0  0  0  0  0  0  0  0  0  0  0
   -5.0120   -0.5526    2.6657 C   0  0  0  0  0  0  0  0  0  0  0  0
   -6.5219   -0.0113    2.0406 Cl  0  0  0  0  0  0  0  0  0  0  0  0
   -3.8255   -0.1144    2.0763 C   0  0  0  0  0  0  0  0  0  0  0  0
   -1.2371    1.3081    1.5912 C   0  0  0  0  0  0  0  0  0  0  0  0
   -0.1011    1.9470    2.4230 C   0  0  0  0  0  0  0  0  0  0  0  0
    3.2223    0.8938    1.1135 C   0  0  0  0  0  0  0  0  0  0  0  0
    4.4514    1.3633    0.6147 C   0  0  0  0  0  0  0  0  0  0  0  0
    4.8627    2.6616    0.8582 C   0  0  0  0  0  0  0  0  0  0  0  0
    4.0497    3.4922    1.6223 C   0  0  0  0  0  0  0  0  0  0  0  0
    0.7281   -0.3053    3.7513 H   0  0  0  0  0  0  0  0  0  0  0  0
    1.8882   -0.8522    2.5613 H   0  0  0  0  0  0  0  0  0  0  0  0
   -0.3236   -1.9502    2.2033 H   0  0  0  0  0  0  0  0  0  0  0  0
    0.1358   -0.9802    0.8209 H   0  0  0  0  0  0  0  0  0  0  0  0
   -1.6180   -1.7800    4.0229 H   0  0  0  0  0  0  0  0  0  0  0  0
   -2.6350   -3.1123    5.6043 H   0  0  0  0  0  0  0  0  0  0  0  0
   -4.1446   -3.8070    5.0234 H   0  0  0  0  0  0  0  0  0  0  0  0
   -3.9574   -0.5005    6.3686 H   0  0  0  0  0  0  0  0  0  0  0  0
   -3.6742   -2.3007    9.5244 H   0  0  0  0  0  0  0  0  0  0  0  0
   -6.2284    0.0479   11.6970 H   0  0  0  0  0  0  0  0  0  0  0  0
   -8.0037    1.3692   10.4846 H   0  0  0  0  0  0  0  0  0  0  0  0
   -8.7115    2.5697    8.4490 H   0  0  0  0  0  0  0  0  0  0  0  0
   -7.2585    2.5619    6.4376 H   0  0  0  0  0  0  0  0  0  0  0  0
   -5.2798    1.1287    6.3542 H   0  0  0  0  0  0  0  0  0  0  0  0
   -5.9193   -1.7836    4.1768 H   0  0  0  0  0  0  0  0  0  0  0  0
   -3.8831    0.5380    1.2078 H   0  0  0  0  0  0  0  0  0  0  0  0
   -2.1471    1.8953    1.7577 H   0  0  0  0  0  0  0  0  0  0  0  0
   -0.9931    1.3825    0.5247 H   0  0  0  0  0  0  0  0  0  0  0  0
   -0.3932    1.9882    3.4804 H   0  0  0  0  0  0  0  0  0  0  0  0
    0.0099    2.9690    2.0595 H   0  0  0  0  0  0  0  0  0  0  0  0
    2.9400   -0.1186    0.8379 H   0  0  0  0  0  0  0  0  0  0  0  0
    5.0717    0.7017    0.0146 H   0  0  0  0  0  0  0  0  0  0  0  0
    5.8077    3.0273    0.4691 H   0  0  0  0  0  0  0  0  0  0  0  0
    4.3698    4.5116    1.8356 H   0  0  0  0  0  0  0  0  0  0  0  0
  1  2  1  0  0  0  0
  2  3  2  0  0  0  0
  2  4  1  0  0  0  0
  4  5  2  0  0  0  0
  4 36  1  0  0  0  0
  5  6  1  0  0  0  0
  5 33  1  0  0  0  0
  6  7  1  0  0  0  0
  6 32  1  0  0  0  0
  7  8  1  0  0  0  0
  7 37  1  0  0  0  0
  7 38  1  0  0  0  0
  8  9  1  0  0  0  0
  8 39  1  0  0  0  0
  8 40  1  0  0  0  0
  9 10  1  0  0  0  0
  9 31  1  0  0  0  0
 10 11  2  0  0  0  0
 10 30  1  0  0  0  0
 11 12  1  0  0  0  0
 11 41  1  0  0  0  0
 12 13  1  0  0  0  0
 12 27  2  0  0  0  0
 13 14  1  0  0  0  0
 13 42  1  0  0  0  0
 13 43  1  0  0  0  0
 14 15  2  0  0  0  0
 14 16  1  0  0  0  0
 16 17  1  0  0  0  0
 16 44  1  0  0  0  0
 17 18  2  0  0  0  0
 17 26  1  0  0  0  0
 18 19  1  0  0  0  0
 18 45  1  0  0  0  0
 19 20  2  0  0  0  0
 20 21  1  0  0  0  0
 20 46  1  0  0  0  0
 21 22  2  0  0  0  0
 21 26  1  0  0  0  0
 22 23  1  0  0  0  0
 22 47  1  0  0  0  0
 23 24  2  0  0  0  0
 23 48  1  0  0  0  0
 24 25  1  0  0  0  0
 24 49  1  0  0  0  0
 25 26  2  0  0  0  0
 25 50  1  0  0  0  0
 27 28  1  0  0  0  0
 27 51  1  0  0  0  0
 28 29  1  0  0  0  0
 28 30  2  0  0  0  0
 30 52  1  0  0  0  0
 31 32  1  0  0  0  0
 31 53  1  0  0  0  0
 31 54  1  0  0  0  0
 32 55  1  0  0  0  0
 32 56  1  0  0  0  0
 33 34  2  0  0  0  0
 33 57  1  0  0  0  0
 34 35  1  0  0  0  0
 34 58  1  0  0  0  0
 35 36  2  0  0  0  0
 35 59  1  0  0  0  0
 36 60  1  0  0  0  0
M  CHG  2   1  -1   2   1
M  END
$$$$
