
 OpenBabel07202414133D

 58 62  0  0  1  0  0  0  0  0999 V2000
    4.3968   -3.1302    2.7427 C   0  0  0  0  0  0  0  0  0  0  0  0
    3.9621   -2.2216    1.6090 C   0  0  0  0  0  0  0  0  0  0  0  0
    4.6655   -2.5511    0.3226 N   0  0  0  0  0  0  0  0  0  0  0  0
    4.2018   -3.8234   -0.2629 C   0  0  0  0  0  0  0  0  0  0  0  0
    4.6378   -1.1862   -0.6939 S   0  0  0  0  0  0  0  0  0  0  0  0
    3.2577   -0.9381   -1.0380 O   0  0  0  0  0  0  0  0  0  0  0  0
    5.4684   -0.2042   -0.0396 O   0  0  0  0  0  0  0  0  0  0  0  0
    5.4219   -1.7048   -2.0879 N   0  0  0  0  0  0  0  0  0  0  0  0
    6.7979   -2.1802   -1.9314 C   0  0  0  0  0  0  0  0  0  0  0  0
    7.8484   -1.1115   -2.0791 C   0  0  0  0  0  0  0  0  0  0  0  0
    9.1271   -1.3858   -1.5597 C   0  0  0  0  0  0  0  0  0  0  0  0
   10.1623   -0.4681   -1.6962 C   0  0  0  0  0  0  0  0  0  0  0  0
    9.9237    0.7320   -2.3504 C   0  0  0  0  0  0  0  0  0  0  0  0
   11.2104    1.8548   -2.5625 Cl  0  0  0  0  0  0  0  0  0  0  0  0
    8.6548    1.0253   -2.8638 C   0  0  0  0  0  0  0  0  0  0  0  0
    7.5968    0.1041   -2.7529 C   0  0  0  0  0  0  0  0  0  0  0  0
    6.2157    0.3919   -3.3749 C   0  0  3  0  0  0  0  0  0  0  0  0
    6.3769    0.7560   -4.8746 C   0  0  0  0  0  0  0  0  0  0  0  0
    6.1858    2.2541   -4.9982 C   0  0  0  0  0  0  0  0  0  0  0  0
    5.7971    2.7440   -3.7055 N   0  0  0  0  0  0  0  0  0  0  0  0
    6.0511    4.1018   -3.2966 C   0  0  0  0  0  0  0  0  0  0  0  0
    6.3669    4.3778   -1.9572 C   0  0  0  0  0  0  0  0  0  0  0  0
    6.9628    5.5124   -1.5162 N   0  0  0  0  0  0  0  0  0  0  0  0
    7.2161    6.4578   -2.4412 C   0  0  0  0  0  0  0  0  0  0  0  0
    6.8082    6.3865   -3.7659 C   0  0  0  0  0  0  0  0  0  0  0  0
    6.9988    7.4812   -4.6320 C   0  0  0  0  0  0  0  0  0  0  0  0
    6.5228    7.4494   -5.9389 C   0  0  0  0  0  0  0  0  0  0  0  0
    5.8543    6.3240   -6.3906 C   0  0  0  0  0  0  0  0  0  0  0  0
    5.6784    5.2261   -5.5407 C   0  0  0  0  0  0  0  0  0  0  0  0
    6.1767    5.1956   -4.2129 C   0  0  0  0  0  0  0  0  0  0  0  0
    5.5721    1.6772   -2.8101 C   0  0  0  0  0  0  0  0  0  0  0  0
    4.9787    1.7889   -1.7507 O   0  0  0  0  0  0  0  0  0  0  0  0
    5.2675   -0.8345   -3.2907 C   0  0  0  0  0  0  0  0  0  0  0  0
    4.0017   -2.7514    3.6912 H   0  0  0  0  0  0  0  0  0  0  0  0
    5.4872   -3.1773    2.8181 H   0  0  0  0  0  0  0  0  0  0  0  0
    4.0142   -4.1459    2.6109 H   0  0  0  0  0  0  0  0  0  0  0  0
    4.2012   -1.1956    1.9114 H   0  0  0  0  0  0  0  0  0  0  0  0
    2.8769   -2.2791    1.4679 H   0  0  0  0  0  0  0  0  0  0  0  0
    4.3894   -4.6399    0.4426 H   0  0  0  0  0  0  0  0  0  0  0  0
    4.7773   -4.0762   -1.1564 H   0  0  0  0  0  0  0  0  0  0  0  0
    3.1368   -3.8015   -0.5000 H   0  0  0  0  0  0  0  0  0  0  0  0
    6.9771   -2.9409   -2.7041 H   0  0  0  0  0  0  0  0  0  0  0  0
    6.9208   -2.6972   -0.9741 H   0  0  0  0  0  0  0  0  0  0  0  0
    9.3188   -2.3246   -1.0405 H   0  0  0  0  0  0  0  0  0  0  0  0
   11.1440   -0.6965   -1.2913 H   0  0  0  0  0  0  0  0  0  0  0  0
    8.5175    1.9806   -3.3611 H   0  0  0  0  0  0  0  0  0  0  0  0
    5.6215    0.2635   -5.4990 H   0  0  0  0  0  0  0  0  0  0  0  0
    7.3459    0.4562   -5.2925 H   0  0  0  0  0  0  0  0  0  0  0  0
    5.3655    2.4327   -5.6991 H   0  0  0  0  0  0  0  0  0  0  0  0
    7.0978    2.7452   -5.3517 H   0  0  0  0  0  0  0  0  0  0  0  0
    6.2081    3.6558   -1.1601 H   0  0  0  0  0  0  0  0  0  0  0  0
    7.7561    7.3203   -2.0595 H   0  0  0  0  0  0  0  0  0  0  0  0
    7.4936    8.3841   -4.2780 H   0  0  0  0  0  0  0  0  0  0  0  0
    6.6459    8.3120   -6.5888 H   0  0  0  0  0  0  0  0  0  0  0  0
    5.4446    6.2998   -7.3977 H   0  0  0  0  0  0  0  0  0  0  0  0
    5.0767    4.4112   -5.9255 H   0  0  0  0  0  0  0  0  0  0  0  0
    5.4816   -1.5042   -4.1401 H   0  0  0  0  0  0  0  0  0  0  0  0
    4.2180   -0.5455   -3.4258 H   0  0  0  0  0  0  0  0  0  0  0  0
  1  2  1  0  0  0  0
  1 34  1  0  0  0  0
  1 35  1  0  0  0  0
  1 36  1  0  0  0  0
  2  3  1  0  0  0  0
  2 37  1  0  0  0  0
  2 38  1  0  0  0  0
  3  4  1  0  0  0  0
  3  5  1  0  0  0  0
  4 39  1  0  0  0  0
  4 40  1  0  0  0  0
  4 41  1  0  0  0  0
  5  6  2  0  0  0  0
  5  7  2  0  0  0  0
  5  8  1  0  0  0  0
  8  9  1  0  0  0  0
  8 33  1  0  0  0  0
  9 10  1  0  0  0  0
  9 42  1  0  0  0  0
  9 43  1  0  0  0  0
 10 11  1  0  0  0  0
 10 16  2  0  0  0  0
 11 12  2  0  0  0  0
 11 44  1  0  0  0  0
 12 13  1  0  0  0  0
 12 45  1  0  0  0  0
 13 14  1  0  0  0  0
 13 15  2  0  0  0  0
 15 16  1  0  0  0  0
 15 46  1  0  0  0  0
 16 17  1  0  0  0  0
 17 18  1  0  0  0  0
 17 31  1  0  0  0  0
 17 33  1  0  0  0  0
 18 19  1  0  0  0  0
 18 47  1  0  0  0  0
 18 48  1  0  0  0  0
 19 20  1  0  0  0  0
 19 49  1  0  0  0  0
 19 50  1  0  0  0  0
 20 21  1  0  0  0  0
 20 31  1  0  0  0  0
 21 22  1  0  0  0  0
 21 30  2  0  0  0  0
 22 23  2  0  0  0  0
 22 51  1  0  0  0  0
 23 24  1  0  0  0  0
 24 25  2  0  0  0  0
 24 52  1  0  0  0  0
 25 26  1  0  0  0  0
 25 30  1  0  0  0  0
 26 27  2  0  0  0  0
 26 53  1  0  0  0  0
 27 28  1  0  0  0  0
 27 54  1  0  0  0  0
 28 29  2  0  0  0  0
 28 55  1  0  0  0  0
 29 30  1  0  0  0  0
 29 56  1  0  0  0  0
 31 32  2  0  0  0  0
 33 57  1  0  0  0  0
 33 58  1  0  0  0  0
M  END
$$$$
