
 OpenBabel07202414143D

 47 50  0  0  1  0  0  0  0  0999 V2000
    1.0272    0.4774    0.8996 C   0  0  0  0  0  0  0  0  0  0  0  0
    2.4730    0.5273    0.8924 N   0  0  0  0  0  0  0  0  0  0  0  0
    3.1667   -0.6450    1.0669 C   0  0  0  0  0  0  0  0  0  0  0  0
    2.5943   -1.7266    1.1479 O   0  0  0  0  0  0  0  0  0  0  0  0
    4.5388   -0.5075    1.1552 N   0  0  0  0  0  0  0  0  0  0  0  0
    5.2976    0.7389    1.1993 C   0  0  0  0  0  0  0  0  0  0  0  0
    5.9036    0.9777    2.5946 C   0  0  3  0  0  0  0  0  0  0  0  0
    4.9096    1.4055    3.7105 C   0  0  0  0  0  0  0  0  0  0  0  0
    5.1035    1.1182    4.8917 O   0  0  0  0  0  0  0  0  0  0  0  0
    3.8941    2.2416    3.2848 N   0  0  0  0  0  0  0  0  0  0  0  0
    2.8231    2.7850    4.0381 C   0  0  0  0  0  0  0  0  0  0  0  0
    2.6238    2.5257    5.3919 C   0  0  0  0  0  0  0  0  0  0  0  0
    1.4941    2.8479    6.0643 N   0  0  0  0  0  0  0  0  0  0  0  0
    0.5389    3.4983    5.3686 C   0  0  0  0  0  0  0  0  0  0  0  0
    0.6798    3.9403    4.0525 C   0  0  0  0  0  0  0  0  0  0  0  0
   -0.3070    4.7296    3.4337 C   0  0  0  0  0  0  0  0  0  0  0  0
   -0.1329    5.2027    2.1343 C   0  0  0  0  0  0  0  0  0  0  0  0
    1.0162    4.8727    1.4314 C   0  0  0  0  0  0  0  0  0  0  0  0
    1.9931    4.0749    2.0318 C   0  0  0  0  0  0  0  0  0  0  0  0
    1.8553    3.5835    3.3597 C   0  0  0  0  0  0  0  0  0  0  0  0
    6.7066   -0.2568    2.9852 C   0  0  0  0  0  0  0  0  0  0  0  0
    7.7471   -0.1363    3.9174 C   0  0  0  0  0  0  0  0  0  0  0  0
    8.4768   -1.2615    4.3049 C   0  0  0  0  0  0  0  0  0  0  0  0
    9.7626   -1.1001    5.4407 Cl  0  0  0  0  0  0  0  0  0  0  0  0
    8.1814   -2.5184    3.7783 C   0  0  0  0  0  0  0  0  0  0  0  0
    7.1519   -2.6459    2.8433 C   0  0  0  0  0  0  0  0  0  0  0  0
    6.4073   -1.5250    2.4376 C   0  0  0  0  0  0  0  0  0  0  0  0
    5.3376   -1.7084    1.3771 C   0  0  0  0  0  0  0  0  0  0  0  0
    0.6384    1.4807    0.7146 H   0  0  0  0  0  0  0  0  0  0  0  0
    0.6779    0.1151    1.8712 H   0  0  0  0  0  0  0  0  0  0  0  0
    0.6833   -0.2018    0.1136 H   0  0  0  0  0  0  0  0  0  0  0  0
    2.8621    1.1172    0.1728 H   0  0  0  0  0  0  0  0  0  0  0  0
    4.7093    1.5871    0.8490 H   0  0  0  0  0  0  0  0  0  0  0  0
    6.1059    0.6361    0.4617 H   0  0  0  0  0  0  0  0  0  0  0  0
    6.6003    1.8201    2.4956 H   0  0  0  0  0  0  0  0  0  0  0  0
    3.7415    2.2987    2.2949 H   0  0  0  0  0  0  0  0  0  0  0  0
    3.3597    2.0179    6.0063 H   0  0  0  0  0  0  0  0  0  0  0  0
   -0.3773    3.6740    5.9261 H   0  0  0  0  0  0  0  0  0  0  0  0
   -1.2075    5.0092    3.9769 H   0  0  0  0  0  0  0  0  0  0  0  0
   -0.8844    5.8444    1.6814 H   0  0  0  0  0  0  0  0  0  0  0  0
    1.1654    5.2498    0.4225 H   0  0  0  0  0  0  0  0  0  0  0  0
    2.8903    3.8839    1.4510 H   0  0  0  0  0  0  0  0  0  0  0  0
    7.9828    0.8277    4.3614 H   0  0  0  0  0  0  0  0  0  0  0  0
    8.7502   -3.3900    4.0830 H   0  0  0  0  0  0  0  0  0  0  0  0
    6.9263   -3.6286    2.4364 H   0  0  0  0  0  0  0  0  0  0  0  0
    4.7067   -2.5642    1.6362 H   0  0  0  0  0  0  0  0  0  0  0  0
    5.8335   -1.9285    0.4231 H   0  0  0  0  0  0  0  0  0  0  0  0
  1  2  1  0  0  0  0
  1 29  1  0  0  0  0
  1 30  1  0  0  0  0
  1 31  1  0  0  0  0
  2  3  1  0  0  0  0
  2 32  1  0  0  0  0
  3  4  2  0  0  0  0
  3  5  1  0  0  0  0
  5  6  1  0  0  0  0
  5 28  1  0  0  0  0
  6  7  1  0  0  0  0
  6 33  1  0  0  0  0
  6 34  1  0  0  0  0
  7  8  1  0  0  0  0
  7 21  1  0  0  0  0
  7 35  1  0  0  0  0
  8  9  2  0  0  0  0
  8 10  1  0  0  0  0
 10 11  1  0  0  0  0
 10 36  1  0  0  0  0
 11 12  1  0  0  0  0
 11 20  2  0  0  0  0
 12 13  2  0  0  0  0
 12 37  1  0  0  0  0
 13 14  1  0  0  0  0
 14 15  2  0  0  0  0
 14 38  1  0  0  0  0
 15 16  1  0  0  0  0
 15 20  1  0  0  0  0
 16 17  2  0  0  0  0
 16 39  1  0  0  0  0
 17 18  1  0  0  0  0
 17 40  1  0  0  0  0
 18 19  2  0  0  0  0
 18 41  1  0  0  0  0
 19 20  1  0  0  0  0
 19 42  1  0  0  0  0
 21 22  1  0  0  0  0
 21 27  2  0  0  0  0
 22 23  2  0  0  0  0
 22 43  1  0  0  0  0
 23 24  1  0  0  0  0
 23 25  1  0  0  0  0
 25 26  2  0  0  0  0
 25 44  1  0  0  0  0
 26 27  1  0  0  0  0
 26 45  1  0  0  0  0
 27 28  1  0  0  0  0
 28 46  1  0  0  0  0
 28 47  1  0  0  0  0
M  END
$$$$
