
 OpenBabel07202414183D

 53 57  0  0  1  0  0  0  0  0999 V2000
    3.3069    1.1245   -0.6458 F   0  0  0  0  0  0  0  0  0  0  0  0
    2.4754    0.2540    0.0508 C   0  0  0  0  0  0  0  0  0  0  0  0
    2.5029    0.3687    1.5430 C   0  0  0  0  0  0  0  0  0  0  0  0
    4.1900    0.0156    2.0420 S   0  0  0  0  0  0  0  0  0  0  0  0
    4.5342   -1.3361    1.6508 O   0  0  0  0  0  0  0  0  0  0  0  0
    5.0343    1.1495    1.6958 O   0  0  0  0  0  0  0  0  0  0  0  0
    4.1151    0.0281    3.7514 N   0  0  0  0  0  0  0  0  0  0  0  0
    3.6278   -1.2043    4.4335 C   0  0  0  0  0  0  0  0  0  0  0  0
    4.0824   -1.2227    5.9045 C   0  0  3  0  0  0  0  0  0  0  0  0
    5.5902   -1.5095    6.0562 C   0  0  0  0  0  0  0  0  0  0  0  0
    5.9805   -2.4423    6.7597 O   0  0  0  0  0  0  0  0  0  0  0  0
    6.3990   -0.6288    5.3715 N   0  0  0  0  0  0  0  0  0  0  0  0
    7.8010   -0.6695    5.1725 C   0  0  0  0  0  0  0  0  0  0  0  0
    8.6043   -1.7100    5.6312 C   0  0  0  0  0  0  0  0  0  0  0  0
    9.8864   -1.9061    5.2410 N   0  0  0  0  0  0  0  0  0  0  0  0
   10.4293   -0.9546    4.4550 C   0  0  0  0  0  0  0  0  0  0  0  0
    9.8031    0.2459    4.1293 C   0  0  0  0  0  0  0  0  0  0  0  0
   10.5155    1.3093    3.5434 C   0  0  0  0  0  0  0  0  0  0  0  0
    9.8831    2.5164    3.2575 C   0  0  0  0  0  0  0  0  0  0  0  0
    8.5165    2.6367    3.4617 C   0  0  0  0  0  0  0  0  0  0  0  0
    7.8000    1.5790    4.0270 C   0  0  0  0  0  0  0  0  0  0  0  0
    8.4329    0.3785    4.4402 C   0  0  0  0  0  0  0  0  0  0  0  0
    3.6687    0.0566    6.6060 C   0  0  0  0  0  0  0  0  0  0  0  0
    3.4235    0.0542    7.9893 C   0  0  0  0  0  0  0  0  0  0  0  0
    3.0498    1.2312    8.6384 C   0  0  0  0  0  0  0  0  0  0  0  0
    2.6990    1.2086   10.3224 Cl  0  0  0  0  0  0  0  0  0  0  0  0
    2.9436    2.4238    7.9295 C   0  0  0  0  0  0  0  0  0  0  0  0
    3.1797    2.4361    6.5544 C   0  0  0  0  0  0  0  0  0  0  0  0
    3.5245    1.2543    5.8771 C   0  0  0  0  0  0  0  0  0  0  0  0
    3.6593    1.2979    4.3692 C   0  0  0  0  0  0  0  0  0  0  0  0
    2.1500   -1.0394   -0.6513 C   0  0  0  0  0  0  0  0  0  0  0  0
    1.1298    0.0598   -0.6168 C   0  0  0  0  0  0  0  0  0  0  0  0
    1.8344   -0.3412    2.0352 H   0  0  0  0  0  0  0  0  0  0  0  0
    2.2670    1.3950    1.8320 H   0  0  0  0  0  0  0  0  0  0  0  0
    4.0134   -2.0997    3.9376 H   0  0  0  0  0  0  0  0  0  0  0  0
    2.5323   -1.2266    4.3809 H   0  0  0  0  0  0  0  0  0  0  0  0
    3.5609   -2.0643    6.3823 H   0  0  0  0  0  0  0  0  0  0  0  0
    5.9093    0.0511    4.8062 H   0  0  0  0  0  0  0  0  0  0  0  0
    8.2453   -2.4579    6.3297 H   0  0  0  0  0  0  0  0  0  0  0  0
   11.4274   -1.1855    4.0909 H   0  0  0  0  0  0  0  0  0  0  0  0
   11.5848    1.2210    3.3619 H   0  0  0  0  0  0  0  0  0  0  0  0
   10.4537    3.3590    2.8770 H   0  0  0  0  0  0  0  0  0  0  0  0
    8.0027    3.5585    3.2010 H   0  0  0  0  0  0  0  0  0  0  0  0
    6.7379    1.7364    4.1723 H   0  0  0  0  0  0  0  0  0  0  0  0
    3.5100   -0.8684    8.5613 H   0  0  0  0  0  0  0  0  0  0  0  0
    2.6660    3.3437    8.4377 H   0  0  0  0  0  0  0  0  0  0  0  0
    3.0781    3.3741    6.0111 H   0  0  0  0  0  0  0  0  0  0  0  0
    4.3763    2.0861    4.1137 H   0  0  0  0  0  0  0  0  0  0  0  0
    2.6760    1.5667    3.9736 H   0  0  0  0  0  0  0  0  0  0  0  0
    1.9635   -1.9276   -0.0608 H   0  0  0  0  0  0  0  0  0  0  0  0
    2.6522   -1.2329   -1.5932 H   0  0  0  0  0  0  0  0  0  0  0  0
    0.2474   -0.0928   -0.0077 H   0  0  0  0  0  0  0  0  0  0  0  0
    0.9437    0.6075   -1.5346 H   0  0  0  0  0  0  0  0  0  0  0  0
  1  2  1  0  0  0  0
  2  3  1  0  0  0  0
  2 31  1  0  0  0  0
  2 32  1  0  0  0  0
  3  4  1  0  0  0  0
  3 33  1  0  0  0  0
  3 34  1  0  0  0  0
  4  5  2  0  0  0  0
  4  6  2  0  0  0  0
  4  7  1  0  0  0  0
  7  8  1  0  0  0  0
  7 30  1  0  0  0  0
  8  9  1  0  0  0  0
  8 35  1  0  0  0  0
  8 36  1  0  0  0  0
  9 10  1  0  0  0  0
  9 23  1  0  0  0  0
  9 37  1  0  0  0  0
 10 11  2  0  0  0  0
 10 12  1  0  0  0  0
 12 13  1  0  0  0  0
 12 38  1  0  0  0  0
 13 14  1  0  0  0  0
 13 22  2  0  0  0  0
 14 15  2  0  0  0  0
 14 39  1  0  0  0  0
 15 16  1  0  0  0  0
 16 17  2  0  0  0  0
 16 40  1  0  0  0  0
 17 18  1  0  0  0  0
 17 22  1  0  0  0  0
 18 19  2  0  0  0  0
 18 41  1  0  0  0  0
 19 20  1  0  0  0  0
 19 42  1  0  0  0  0
 20 21  2  0  0  0  0
 20 43  1  0  0  0  0
 21 22  1  0  0  0  0
 21 44  1  0  0  0  0
 23 24  1  0  0  0  0
 23 29  2  0  0  0  0
 24 25  2  0  0  0  0
 24 45  1  0  0  0  0
 25 26  1  0  0  0  0
 25 27  1  0  0  0  0
 27 28  2  0  0  0  0
 27 46  1  0  0  0  0
 28 29  1  0  0  0  0
 28 47  1  0  0  0  0
 29 30  1  0  0  0  0
 30 48  1  0  0  0  0
 30 49  1  0  0  0  0
 31 32  1  0  0  0  0
 31 50  1  0  0  0  0
 31 51  1  0  0  0  0
 32 52  1  0  0  0  0
 32 53  1  0  0  0  0
M  END
$$$$
