
 OpenBabel07202414183D

 74 80  0  0  1  0  0  0  0  0999 V2000
   13.7594   -4.1276   -8.5226 F   0  0  0  0  0  0  0  0  0  0  0  0
   14.1673   -3.8051   -7.2729 C   0  0  0  0  0  0  0  0  0  0  0  0
   13.1271   -3.1732   -6.6767 F   0  0  0  0  0  0  0  0  0  0  0  0
   15.5398   -3.1094   -7.1565 C   0  0  0  0  0  0  0  0  0  0  0  0
   15.9266   -4.0230   -6.0499 N   0  0  0  0  0  0  0  0  0  0  0  0
   15.6207   -3.3951   -4.7454 C   0  0  0  0  0  0  0  0  0  0  0  0
   16.0596   -4.2933   -3.5785 C   0  0  0  0  0  0  0  0  0  0  0  0
   15.7063   -3.6971   -2.3229 O   0  0  0  0  0  0  0  0  0  0  0  0
   14.4421   -3.9205   -1.8484 C   0  0  0  0  0  0  0  0  0  0  0  0
   13.7292   -5.0971   -2.0301 C   0  0  0  0  0  0  0  0  0  0  0  0
   12.4753   -5.2420   -1.4405 C   0  0  0  0  0  0  0  0  0  0  0  0
   11.9235   -4.2206   -0.6479 C   0  0  0  0  0  0  0  0  0  0  0  0
   10.6976   -4.4102   -0.0086 C   0  0  0  0  0  0  0  0  0  0  0  0
   10.1101   -3.5184    0.8160 N   0  0  0  0  0  0  0  0  0  0  0  0
   10.7525   -2.3427    0.9678 C   0  0  0  0  0  0  0  0  0  0  0  0
   11.9501   -1.9982    0.3389 C   0  0  0  0  0  0  0  0  0  0  0  0
   12.5027   -0.6955    0.5013 N   0  0  0  0  0  0  0  0  0  0  0  0
   12.0659    0.2395    1.4993 C   0  0  0  0  0  0  0  0  0  0  0  0
   12.9104    1.4951    1.2698 C   0  0  0  0  0  0  0  0  0  0  0  0
   13.5748    1.3102   -0.1304 C   0  0  3  0  0  0  0  0  0  0  0  0
   13.2781    2.5071   -1.0504 C   0  0  0  0  0  0  0  0  0  0  0  0
   14.2353    2.6525   -2.1869 N   0  0  0  0  0  0  0  0  0  0  0  0
   14.1766    1.6631   -3.5558 S   0  0  0  0  0  0  0  0  0  0  0  0
   15.1228    2.2103   -4.5050 O   0  0  0  0  0  0  0  0  0  0  0  0
   14.3632    0.2881   -3.1490 O   0  0  0  0  0  0  0  0  0  0  0  0
   12.5079    1.9327   -4.2123 C   0  0  0  0  0  0  0  0  0  0  0  0
   12.5072    3.3378   -4.7807 C   0  0  0  0  0  0  0  0  0  0  0  0
   12.5795    4.4151   -3.8164 C   0  0  0  0  0  0  0  0  0  0  0  0
   12.6038    5.2754   -3.0382 N   0  0  0  0  0  0  0  0  0  0  0  0
   13.1300    3.5506   -6.1522 C   0  0  0  0  0  0  0  0  0  0  0  0
   11.6450    3.6439   -6.0018 C   0  0  0  0  0  0  0  0  0  0  0  0
   15.5944    2.9011   -1.6847 C   0  0  0  0  0  0  0  0  0  0  0  0
   16.0318    1.8465   -0.6998 C   0  0  0  0  0  0  0  0  0  0  0  0
   17.4123    1.6639   -0.5051 C   0  0  0  0  0  0  0  0  0  0  0  0
   17.8800    0.7130    0.3931 C   0  0  0  0  0  0  0  0  0  0  0  0
   16.9711   -0.0589    1.1041 C   0  0  0  0  0  0  0  0  0  0  0  0
   17.5413   -1.2261    2.2318 Cl  0  0  0  0  0  0  0  0  0  0  0  0
   15.5971    0.1152    0.9277 C   0  0  0  0  0  0  0  0  0  0  0  0
   15.0934    1.0754    0.0299 C   0  0  0  0  0  0  0  0  0  0  0  0
   12.7915    0.0902   -0.6229 C   0  0  0  0  0  0  0  0  0  0  0  0
   12.2652   -0.0545   -1.7181 O   0  0  0  0  0  0  0  0  0  0  0  0
   12.5974   -2.9947   -0.4648 C   0  0  0  0  0  0  0  0  0  0  0  0
   13.8864   -2.8925   -1.0671 C   0  0  0  0  0  0  0  0  0  0  0  0
   14.8279   -4.9379   -6.4571 C   0  0  0  0  0  0  0  0  0  0  0  0
   15.5094   -2.0405   -6.9211 H   0  0  0  0  0  0  0  0  0  0  0  0
   16.1626   -3.2378   -8.0509 H   0  0  0  0  0  0  0  0  0  0  0  0
   14.5620   -3.1266   -4.6394 H   0  0  0  0  0  0  0  0  0  0  0  0
   16.1759   -2.4516   -4.6592 H   0  0  0  0  0  0  0  0  0  0  0  0
   17.1530   -4.3825   -3.5884 H   0  0  0  0  0  0  0  0  0  0  0  0
   15.6874   -5.3157   -3.6868 H   0  0  0  0  0  0  0  0  0  0  0  0
   14.1267   -5.9402   -2.5821 H   0  0  0  0  0  0  0  0  0  0  0  0
   11.9436   -6.1815   -1.5748 H   0  0  0  0  0  0  0  0  0  0  0  0
   10.1447   -5.3390   -0.1227 H   0  0  0  0  0  0  0  0  0  0  0  0
   10.2224   -1.6488    1.6104 H   0  0  0  0  0  0  0  0  0  0  0  0
   12.1684   -0.1666    2.5086 H   0  0  0  0  0  0  0  0  0  0  0  0
   11.0137    0.4924    1.3072 H   0  0  0  0  0  0  0  0  0  0  0  0
   13.6459    1.6021    2.0760 H   0  0  0  0  0  0  0  0  0  0  0  0
   12.2730    2.3859    1.3243 H   0  0  0  0  0  0  0  0  0  0  0  0
   13.3699    3.4352   -0.4641 H   0  0  0  0  0  0  0  0  0  0  0  0
   12.2442    2.5173   -1.4083 H   0  0  0  0  0  0  0  0  0  0  0  0
   11.7619    1.7898   -3.4283 H   0  0  0  0  0  0  0  0  0  0  0  0
   12.3452    1.1720   -4.9836 H   0  0  0  0  0  0  0  0  0  0  0  0
   13.5306    2.6917   -6.6831 H   0  0  0  0  0  0  0  0  0  0  0  0
   13.7176    4.4506   -6.3019 H   0  0  0  0  0  0  0  0  0  0  0  0
   11.0429    2.8571   -6.4401 H   0  0  0  0  0  0  0  0  0  0  0  0
   11.2047    4.6328   -6.0973 H   0  0  0  0  0  0  0  0  0  0  0  0
   15.6155    3.8846   -1.1984 H   0  0  0  0  0  0  0  0  0  0  0  0
   16.3066    2.9673   -2.5151 H   0  0  0  0  0  0  0  0  0  0  0  0
   18.1285    2.2621   -1.0672 H   0  0  0  0  0  0  0  0  0  0  0  0
   18.9491    0.5786    0.5290 H   0  0  0  0  0  0  0  0  0  0  0  0
   14.9260   -0.5090    1.5115 H   0  0  0  0  0  0  0  0  0  0  0  0
   14.4885   -1.9976   -0.9266 H   0  0  0  0  0  0  0  0  0  0  0  0
   14.2132   -5.3572   -5.6538 H   0  0  0  0  0  0  0  0  0  0  0  0
   15.1769   -5.7709   -7.0802 H   0  0  0  0  0  0  0  0  0  0  0  0
  1  2  1  0  0  0  0
  2  3  1  0  0  0  0
  2  4  1  0  0  0  0
  2 44  1  0  0  0  0
  4  5  1  0  0  0  0
  4 45  1  0  0  0  0
  4 46  1  0  0  0  0
  5  6  1  0  0  0  0
  5 44  1  0  0  0  0
  6  7  1  0  0  0  0
  6 47  1  0  0  0  0
  6 48  1  0  0  0  0
  7  8  1  0  0  0  0
  7 49  1  0  0  0  0
  7 50  1  0  0  0  0
  8  9  1  0  0  0  0
  9 10  1  0  0  0  0
  9 43  2  0  0  0  0
 10 11  2  0  0  0  0
 10 51  1  0  0  0  0
 11 12  1  0  0  0  0
 11 52  1  0  0  0  0
 12 13  1  0  0  0  0
 12 42  2  0  0  0  0
 13 14  2  0  0  0  0
 13 53  1  0  0  0  0
 14 15  1  0  0  0  0
 15 16  2  0  0  0  0
 15 54  1  0  0  0  0
 16 17  1  0  0  0  0
 16 42  1  0  0  0  0
 17 18  1  0  0  0  0
 17 40  1  0  0  0  0
 18 19  1  0  0  0  0
 18 55  1  0  0  0  0
 18 56  1  0  0  0  0
 19 20  1  0  0  0  0
 19 57  1  0  0  0  0
 19 58  1  0  0  0  0
 20 21  1  0  0  0  0
 20 39  1  0  0  0  0
 20 40  1  0  0  0  0
 21 22  1  0  0  0  0
 21 59  1  0  0  0  0
 21 60  1  0  0  0  0
 22 23  1  0  0  0  0
 22 32  1  0  0  0  0
 23 24  2  0  0  0  0
 23 25  2  0  0  0  0
 23 26  1  0  0  0  0
 26 27  1  0  0  0  0
 26 61  1  0  0  0  0
 26 62  1  0  0  0  0
 27 28  1  0  0  0  0
 27 30  1  0  0  0  0
 27 31  1  0  0  0  0
 28 29  3  0  0  0  0
 30 31  1  0  0  0  0
 30 63  1  0  0  0  0
 30 64  1  0  0  0  0
 31 65  1  0  0  0  0
 31 66  1  0  0  0  0
 32 33  1  0  0  0  0
 32 67  1  0  0  0  0
 32 68  1  0  0  0  0
 33 34  1  0  0  0  0
 33 39  2  0  0  0  0
 34 35  2  0  0  0  0
 34 69  1  0  0  0  0
 35 36  1  0  0  0  0
 35 70  1  0  0  0  0
 36 37  1  0  0  0  0
 36 38  2  0  0  0  0
 38 39  1  0  0  0  0
 38 71  1  0  0  0  0
 40 41  2  0  0  0  0
 42 43  1  0  0  0  0
 43 72  1  0  0  0  0
 44 73  1  0  0  0  0
 44 74  1  0  0  0  0
M  END
$$$$
