
 OpenBabel07202414123D

 60 64  0  0  1  0  0  0  0  0999 V2000
   -3.0990    4.4073   -1.2815 C   0  0  0  0  0  0  0  0  0  0  0  0
   -1.8460    3.5150   -1.1535 C   0  0  0  0  0  0  0  0  0  0  0  0
   -2.0968    2.5076   -0.0186 C   0  0  0  0  0  0  0  0  0  0  0  0
   -1.6061    2.8394   -2.5165 C   0  0  0  0  0  0  0  0  0  0  0  0
   -0.2468    1.6778   -2.5010 S   0  0  0  0  0  0  0  0  0  0  0  0
    0.9584    2.4036   -2.1647 O   0  0  0  0  0  0  0  0  0  0  0  0
   -0.6950    0.5114   -1.7772 O   0  0  0  0  0  0  0  0  0  0  0  0
   -0.1276    1.2501   -4.1285 N   0  0  0  0  0  0  0  0  0  0  0  0
   -1.1336    0.3146   -4.6716 C   0  0  0  0  0  0  0  0  0  0  0  0
   -0.6992   -1.1308   -4.6977 C   0  0  0  0  0  0  0  0  0  0  0  0
   -1.6888   -2.1257   -4.8174 C   0  0  0  0  0  0  0  0  0  0  0  0
   -1.3460   -3.4781   -4.8294 C   0  0  0  0  0  0  0  0  0  0  0  0
   -0.0109   -3.8482   -4.7345 C   0  0  0  0  0  0  0  0  0  0  0  0
    0.4212   -5.5133   -4.7399 Cl  0  0  0  0  0  0  0  0  0  0  0  0
    0.9834   -2.8774   -4.6320 C   0  0  0  0  0  0  0  0  0  0  0  0
    0.6591   -1.5042   -4.6218 C   0  0  0  0  0  0  0  0  0  0  0  0
    1.7609   -0.4493   -4.4320 C   0  0  3  0  0  0  0  0  0  0  0  0
    2.9232   -0.6540   -5.4278 C   0  0  0  0  0  0  0  0  0  0  0  0
    4.1647   -0.9274   -4.6097 C   0  0  0  0  0  0  0  0  0  0  0  0
    3.7672   -1.0704   -3.2389 N   0  0  0  0  0  0  0  0  0  0  0  0
    4.4814   -1.9471   -2.3354 C   0  0  0  0  0  0  0  0  0  0  0  0
    3.8102   -2.5459   -1.2626 C   0  0  0  0  0  0  0  0  0  0  0  0
    4.1857   -3.7018   -0.6663 N   0  0  0  0  0  0  0  0  0  0  0  0
    5.3447   -4.2399   -1.0788 C   0  0  0  0  0  0  0  0  0  0  0  0
    6.2359   -3.6013   -1.9314 C   0  0  0  0  0  0  0  0  0  0  0  0
    7.5277   -4.1245   -2.1219 C   0  0  0  0  0  0  0  0  0  0  0  0
    8.4530   -3.4618   -2.9206 C   0  0  0  0  0  0  0  0  0  0  0  0
    8.0874   -2.2834   -3.5519 C   0  0  0  0  0  0  0  0  0  0  0  0
    6.8003   -1.7645   -3.3722 C   0  0  0  0  0  0  0  0  0  0  0  0
    5.8178   -2.4088   -2.5722 C   0  0  0  0  0  0  0  0  0  0  0  0
    2.4327   -0.6672   -3.0584 C   0  0  0  0  0  0  0  0  0  0  0  0
    1.8421   -0.6150   -1.9910 O   0  0  0  0  0  0  0  0  0  0  0  0
    1.2351    0.9834   -4.6526 C   0  0  0  0  0  0  0  0  0  0  0  0
   -0.7190    4.4065   -0.7862 C   0  0  0  0  0  0  0  0  0  0  0  0
    0.1021    5.1615   -0.5042 N   0  0  0  0  0  0  0  0  0  0  0  0
   -3.9810    3.8209   -1.5601 H   0  0  0  0  0  0  0  0  0  0  0  0
   -2.9568    5.1846   -2.0424 H   0  0  0  0  0  0  0  0  0  0  0  0
   -3.3227    4.9194   -0.3369 H   0  0  0  0  0  0  0  0  0  0  0  0
   -2.9395    1.8480   -0.2556 H   0  0  0  0  0  0  0  0  0  0  0  0
   -2.3264    3.0170    0.9250 H   0  0  0  0  0  0  0  0  0  0  0  0
   -1.2208    1.8845    0.1875 H   0  0  0  0  0  0  0  0  0  0  0  0
   -1.3909    3.5801   -3.2954 H   0  0  0  0  0  0  0  0  0  0  0  0
   -2.4964    2.2699   -2.8103 H   0  0  0  0  0  0  0  0  0  0  0  0
   -1.3515    0.6233   -5.7025 H   0  0  0  0  0  0  0  0  0  0  0  0
   -2.0752    0.4153   -4.1245 H   0  0  0  0  0  0  0  0  0  0  0  0
   -2.7407   -1.8531   -4.8775 H   0  0  0  0  0  0  0  0  0  0  0  0
   -2.1229   -4.2344   -4.8980 H   0  0  0  0  0  0  0  0  0  0  0  0
    2.0167   -3.2026   -4.5322 H   0  0  0  0  0  0  0  0  0  0  0  0
    3.1098    0.2329   -6.0472 H   0  0  0  0  0  0  0  0  0  0  0  0
    2.7431   -1.4658   -6.1411 H   0  0  0  0  0  0  0  0  0  0  0  0
    4.8424   -0.0714   -4.6824 H   0  0  0  0  0  0  0  0  0  0  0  0
    4.6492   -1.8334   -4.9842 H   0  0  0  0  0  0  0  0  0  0  0  0
    2.8888   -2.1521   -0.8472 H   0  0  0  0  0  0  0  0  0  0  0  0
    5.5555   -5.2225   -0.6650 H   0  0  0  0  0  0  0  0  0  0  0  0
    7.8357   -5.0317   -1.6053 H   0  0  0  0  0  0  0  0  0  0  0  0
    9.4635   -3.8484   -3.0231 H   0  0  0  0  0  0  0  0  0  0  0  0
    8.8077   -1.7479   -4.1654 H   0  0  0  0  0  0  0  0  0  0  0  0
    6.6007   -0.7995   -3.8253 H   0  0  0  0  0  0  0  0  0  0  0  0
    1.1541    1.1694   -5.7365 H   0  0  0  0  0  0  0  0  0  0  0  0
    1.9486    1.7345   -4.2968 H   0  0  0  0  0  0  0  0  0  0  0  0
  1  2  1  0  0  0  0
  1 36  1  0  0  0  0
  1 37  1  0  0  0  0
  1 38  1  0  0  0  0
  2  3  1  0  0  0  0
  2  4  1  0  0  0  0
  2 34  1  0  0  0  0
  3 39  1  0  0  0  0
  3 40  1  0  0  0  0
  3 41  1  0  0  0  0
  4  5  1  0  0  0  0
  4 42  1  0  0  0  0
  4 43  1  0  0  0  0
  5  6  2  0  0  0  0
  5  7  2  0  0  0  0
  5  8  1  0  0  0  0
  8  9  1  0  0  0  0
  8 33  1  0  0  0  0
  9 10  1  0  0  0  0
  9 44  1  0  0  0  0
  9 45  1  0  0  0  0
 10 11  1  0  0  0  0
 10 16  2  0  0  0  0
 11 12  2  0  0  0  0
 11 46  1  0  0  0  0
 12 13  1  0  0  0  0
 12 47  1  0  0  0  0
 13 14  1  0  0  0  0
 13 15  2  0  0  0  0
 15 16  1  0  0  0  0
 15 48  1  0  0  0  0
 16 17  1  0  0  0  0
 17 18  1  0  0  0  0
 17 31  1  0  0  0  0
 17 33  1  0  0  0  0
 18 19  1  0  0  0  0
 18 49  1  0  0  0  0
 18 50  1  0  0  0  0
 19 20  1  0  0  0  0
 19 51  1  0  0  0  0
 19 52  1  0  0  0  0
 20 21  1  0  0  0  0
 20 31  1  0  0  0  0
 21 22  1  0  0  0  0
 21 30  2  0  0  0  0
 22 23  2  0  0  0  0
 22 53  1  0  0  0  0
 23 24  1  0  0  0  0
 24 25  2  0  0  0  0
 24 54  1  0  0  0  0
 25 26  1  0  0  0  0
 25 30  1  0  0  0  0
 26 27  2  0  0  0  0
 26 55  1  0  0  0  0
 27 28  1  0  0  0  0
 27 56  1  0  0  0  0
 28 29  2  0  0  0  0
 28 57  1  0  0  0  0
 29 30  1  0  0  0  0
 29 58  1  0  0  0  0
 31 32  2  0  0  0  0
 33 59  1  0  0  0  0
 33 60  1  0  0  0  0
 34 35  3  0  0  0  0
M  END
$$$$
