
 OpenBabel07202414123D

 61 64  0  0  1  0  0  0  0  0999 V2000
    3.2969    1.2540   -0.4706 C   0  0  0  0  0  0  0  0  0  0  0  0
    2.4159    0.1159    0.1013 C   0  0  0  0  0  0  0  0  0  0  0  0
    2.0569    0.5126    1.5466 C   0  0  0  0  0  0  0  0  0  0  0  0
    1.1281    0.0665   -0.7504 C   0  0  0  0  0  0  0  0  0  0  0  0
    3.0796   -1.2710    0.0550 C   0  0  0  0  0  0  0  0  0  0  0  0
    4.2931   -1.4951   -0.5913 C   0  0  0  0  0  0  0  0  0  0  0  0
    4.7910   -2.7955   -0.7918 C   0  0  0  0  0  0  0  0  0  0  0  0
    4.1204   -3.9462   -0.3503 C   0  0  0  0  0  0  0  0  0  0  0  0
    4.5408   -5.3051   -0.7378 N   0  0  0  0  0  0  0  0  0  0  0  0
    3.5257   -6.4112   -0.6166 C   0  0  3  0  0  0  0  0  0  0  0  0
    3.1071   -7.0128   -2.0086 C   0  0  0  0  0  0  0  0  0  0  0  0
    2.7446   -8.1774   -2.1207 O   0  0  0  0  0  0  0  0  0  0  0  0
    3.0669   -6.0671   -3.0170 N   0  0  0  0  0  0  0  0  0  0  0  0
    2.5683   -6.2324   -4.3273 C   0  0  0  0  0  0  0  0  0  0  0  0
    1.7859   -7.3344   -4.7382 C   0  0  0  0  0  0  0  0  0  0  0  0
    1.3209   -7.4360   -6.0580 C   0  0  0  0  0  0  0  0  0  0  0  0
    1.6550   -6.4396   -6.9434 C   0  0  0  0  0  0  0  0  0  0  0  0
    2.4083   -5.3586   -6.5473 C   0  0  0  0  0  0  0  0  0  0  0  0
    2.8720   -5.2265   -5.2540 C   0  0  0  0  0  0  0  0  0  0  0  0
    2.6308   -4.4843   -7.5656 O   0  0  0  0  0  0  0  0  0  0  0  0
    1.9021   -5.1208   -8.6366 C   0  0  0  0  0  0  0  0  0  0  0  0
    1.3009   -6.3744   -8.2531 O   0  0  0  0  0  0  0  0  0  0  0  0
    3.7336   -7.4087    0.5284 C   0  0  0  0  0  0  0  0  0  0  0  0
    4.8113   -7.3624    1.4202 C   0  0  0  0  0  0  0  0  0  0  0  0
    4.8106   -8.1548    2.5690 C   0  0  0  0  0  0  0  0  0  0  0  0
    3.7250   -8.9749    2.8053 C   0  0  0  0  0  0  0  0  0  0  0  0
    2.6947   -9.1035    1.9486 N   0  0  0  0  0  0  0  0  0  0  0  0
    2.7275   -8.3336    0.8345 C   0  0  0  0  0  0  0  0  0  0  0  0
    5.8363   -5.5295   -1.2506 C   0  0  0  0  0  0  0  0  0  0  0  0
    6.6894   -4.6568   -1.4023 O   0  0  0  0  0  0  0  0  0  0  0  0
    6.2467   -6.9159   -1.6339 C   0  0  0  0  0  0  0  0  0  0  0  0
    7.4969   -7.1209   -2.0708 C   0  0  0  0  0  0  0  0  0  0  0  0
    2.9851   -3.7002    0.4372 C   0  0  0  0  0  0  0  0  0  0  0  0
    2.4613   -2.3999    0.6111 C   0  0  0  0  0  0  0  0  0  0  0  0
    2.7853    2.2225   -0.4036 H   0  0  0  0  0  0  0  0  0  0  0  0
    3.5311    1.0942   -1.5307 H   0  0  0  0  0  0  0  0  0  0  0  0
    4.2409    1.3464    0.0768 H   0  0  0  0  0  0  0  0  0  0  0  0
    1.5910    1.5048    1.5779 H   0  0  0  0  0  0  0  0  0  0  0  0
    2.9518    0.5460    2.1787 H   0  0  0  0  0  0  0  0  0  0  0  0
    1.3506   -0.1841    2.0065 H   0  0  0  0  0  0  0  0  0  0  0  0
    0.6158    1.0354   -0.7548 H   0  0  0  0  0  0  0  0  0  0  0  0
    0.4161   -0.6770   -0.3763 H   0  0  0  0  0  0  0  0  0  0  0  0
    1.3539   -0.1931   -1.7924 H   0  0  0  0  0  0  0  0  0  0  0  0
    4.8792   -0.6770   -1.0017 H   0  0  0  0  0  0  0  0  0  0  0  0
    5.7133   -2.8290   -1.3600 H   0  0  0  0  0  0  0  0  0  0  0  0
    2.5723   -5.9471   -0.3469 H   0  0  0  0  0  0  0  0  0  0  0  0
    3.5071   -5.1710   -2.8165 H   0  0  0  0  0  0  0  0  0  0  0  0
    1.5039   -8.1183   -4.0468 H   0  0  0  0  0  0  0  0  0  0  0  0
    0.7122   -8.2827   -6.3745 H   0  0  0  0  0  0  0  0  0  0  0  0
    3.4664   -4.3593   -4.9884 H   0  0  0  0  0  0  0  0  0  0  0  0
    2.5882   -5.2986   -9.4721 H   0  0  0  0  0  0  0  0  0  0  0  0
    1.1096   -4.4408   -8.9697 H   0  0  0  0  0  0  0  0  0  0  0  0
    5.6544   -6.6933    1.2643 H   0  0  0  0  0  0  0  0  0  0  0  0
    5.6254   -8.1012    3.2832 H   0  0  0  0  0  0  0  0  0  0  0  0
    3.6464   -9.5599    3.7191 H   0  0  0  0  0  0  0  0  0  0  0  0
    1.8632   -8.4773    0.1884 H   0  0  0  0  0  0  0  0  0  0  0  0
    5.5696   -7.7576   -1.5655 H   0  0  0  0  0  0  0  0  0  0  0  0
    8.2189   -6.3090   -2.1553 H   0  0  0  0  0  0  0  0  0  0  0  0
    7.8386   -8.1098   -2.3454 H   0  0  0  0  0  0  0  0  0  0  0  0
    2.4590   -4.4932    0.9610 H   0  0  0  0  0  0  0  0  0  0  0  0
    1.5353   -2.2974    1.1739 H   0  0  0  0  0  0  0  0  0  0  0  0
  1  2  1  0  0  0  0
  1 35  1  0  0  0  0
  1 36  1  0  0  0  0
  1 37  1  0  0  0  0
  2  3  1  0  0  0  0
  2  4  1  0  0  0  0
  2  5  1  0  0  0  0
  3 38  1  0  0  0  0
  3 39  1  0  0  0  0
  3 40  1  0  0  0  0
  4 41  1  0  0  0  0
  4 42  1  0  0  0  0
  4 43  1  0  0  0  0
  5  6  1  0  0  0  0
  5 34  2  0  0  0  0
  6  7  2  0  0  0  0
  6 44  1  0  0  0  0
  7  8  1  0  0  0  0
  7 45  1  0  0  0  0
  8  9  1  0  0  0  0
  8 33  2  0  0  0  0
  9 10  1  0  0  0  0
  9 29  1  0  0  0  0
 10 11  1  0  0  0  0
 10 23  1  0  0  0  0
 10 46  1  0  0  0  0
 11 12  2  0  0  0  0
 11 13  1  0  0  0  0
 13 14  1  0  0  0  0
 13 47  1  0  0  0  0
 14 15  1  0  0  0  0
 14 19  2  0  0  0  0
 15 16  2  0  0  0  0
 15 48  1  0  0  0  0
 16 17  1  0  0  0  0
 16 49  1  0  0  0  0
 17 18  2  0  0  0  0
 17 22  1  0  0  0  0
 18 19  1  0  0  0  0
 18 20  1  0  0  0  0
 19 50  1  0  0  0  0
 20 21  1  0  0  0  0
 21 22  1  0  0  0  0
 21 51  1  0  0  0  0
 21 52  1  0  0  0  0
 23 24  1  0  0  0  0
 23 28  2  0  0  0  0
 24 25  2  0  0  0  0
 24 53  1  0  0  0  0
 25 26  1  0  0  0  0
 25 54  1  0  0  0  0
 26 27  2  0  0  0  0
 26 55  1  0  0  0  0
 27 28  1  0  0  0  0
 28 56  1  0  0  0  0
 29 30  2  0  0  0  0
 29 31  1  0  0  0  0
 31 32  2  0  0  0  0
 31 57  1  0  0  0  0
 32 58  1  0  0  0  0
 32 59  1  0  0  0  0
 33 34  1  0  0  0  0
 33 60  1  0  0  0  0
 34 61  1  0  0  0  0
M  END
$$$$
