
 OpenBabel07202414143D

 49 52  0  0  0  0  0  0  0  0999 V2000
    1.9294   -1.3265   -0.4549 C   0  0  0  0  0  0  0  0  0  0  0  0
    1.5229    0.0380   -0.5304 O   0  0  0  0  0  0  0  0  0  0  0  0
    2.2684    0.7429   -1.4667 C   0  0  0  0  0  0  0  0  0  0  0  0
    2.8478    0.0552   -2.4790 N   0  0  0  0  0  0  0  0  0  0  0  0
    3.6119    0.7739   -3.3286 C   0  0  0  0  0  0  0  0  0  0  0  0
    3.8177    2.1375   -3.2059 C   0  0  0  0  0  0  0  0  0  0  0  0
    4.9875    3.0450   -4.3823 Br  0  0  0  0  0  0  0  0  0  0  0  0
    3.1720    2.8269   -2.1924 C   0  0  0  0  0  0  0  0  0  0  0  0
    2.3605    2.1308   -1.2853 C   0  0  0  0  0  0  0  0  0  0  0  0
    1.6801    2.8043   -0.2479 N   0  0  0  0  0  0  0  0  0  0  0  0
    1.2198    4.1274   -0.1692 C   0  0  0  0  0  0  0  0  0  0  0  0
    0.8609    4.8638   -1.3060 C   0  0  0  0  0  0  0  0  0  0  0  0
    0.4848    6.2014   -1.1998 C   0  0  0  0  0  0  0  0  0  0  0  0
    0.0584    7.0839   -2.6146 Cl  0  0  0  0  0  0  0  0  0  0  0  0
    0.4495    6.8311    0.0413 C   0  0  0  0  0  0  0  0  0  0  0  0
    0.7856    6.1152    1.1962 C   0  0  0  0  0  0  0  0  0  0  0  0
    0.6835    6.7680    2.5539 C   0  0  0  0  0  0  0  0  0  0  0  0
    1.9493    6.6931    3.3906 C   0  0  0  0  0  0  0  0  0  0  0  0
    1.9025    6.3408    4.5684 O   0  0  0  0  0  0  0  0  0  0  0  0
    3.0871    7.1398    2.7478 N   0  0  0  0  0  0  0  0  0  0  0  0
    4.3780    7.1478    3.3358 C   0  0  0  0  0  0  0  0  0  0  0  0
    4.7799    6.1416    4.2119 C   0  0  0  0  0  0  0  0  0  0  0  0
    6.0125    6.0552    4.7675 N   0  0  0  0  0  0  0  0  0  0  0  0
    6.8826    7.0490    4.4608 C   0  0  0  0  0  0  0  0  0  0  0  0
    6.5807    8.1258    3.6202 C   0  0  0  0  0  0  0  0  0  0  0  0
    7.5107    9.1497    3.3880 C   0  0  0  0  0  0  0  0  0  0  0  0
    7.1863   10.2381    2.5888 C   0  0  0  0  0  0  0  0  0  0  0  0
    5.9236   10.3209    2.0080 C   0  0  0  0  0  0  0  0  0  0  0  0
    4.9964    9.3050    2.2173 C   0  0  0  0  0  0  0  0  0  0  0  0
    5.2906    8.1817    3.0311 C   0  0  0  0  0  0  0  0  0  0  0  0
    1.1675    4.7663    1.0771 C   0  0  0  0  0  0  0  0  0  0  0  0
    1.5137   -1.7487    0.4647 H   0  0  0  0  0  0  0  0  0  0  0  0
    3.0204   -1.4200   -0.3907 H   0  0  0  0  0  0  0  0  0  0  0  0
    1.5381   -1.9024   -1.3005 H   0  0  0  0  0  0  0  0  0  0  0  0
    4.0852    0.1935   -4.1194 H   0  0  0  0  0  0  0  0  0  0  0  0
    3.3408    3.8868   -2.0685 H   0  0  0  0  0  0  0  0  0  0  0  0
    1.6422    2.2591    0.6098 H   0  0  0  0  0  0  0  0  0  0  0  0
    0.8448    4.3860   -2.2821 H   0  0  0  0  0  0  0  0  0  0  0  0
    0.1413    7.8724    0.1040 H   0  0  0  0  0  0  0  0  0  0  0  0
   -0.1233    6.2706    3.1071 H   0  0  0  0  0  0  0  0  0  0  0  0
    0.4062    7.8250    2.4634 H   0  0  0  0  0  0  0  0  0  0  0  0
    2.9633    7.6527    1.8858 H   0  0  0  0  0  0  0  0  0  0  0  0
    4.1241    5.3150    4.4747 H   0  0  0  0  0  0  0  0  0  0  0  0
    7.8451    6.9573    4.9410 H   0  0  0  0  0  0  0  0  0  0  0  0
    8.4999    9.1091    3.8501 H   0  0  0  0  0  0  0  0  0  0  0  0
    7.9100   11.0346    2.4291 H   0  0  0  0  0  0  0  0  0  0  0  0
    5.6605   11.1832    1.3998 H   0  0  0  0  0  0  0  0  0  0  0  0
    4.0143    9.4268    1.7704 H   0  0  0  0  0  0  0  0  0  0  0  0
    1.4313    4.2049    1.9731 H   0  0  0  0  0  0  0  0  0  0  0  0
  1  2  1  0  0  0  0
  1 32  1  0  0  0  0
  1 33  1  0  0  0  0
  1 34  1  0  0  0  0
  2  3  1  0  0  0  0
  3  4  2  0  0  0  0
  3  9  1  0  0  0  0
  4  5  1  0  0  0  0
  5  6  2  0  0  0  0
  5 35  1  0  0  0  0
  6  7  1  0  0  0  0
  6  8  1  0  0  0  0
  8  9  2  0  0  0  0
  8 36  1  0  0  0  0
  9 10  1  0  0  0  0
 10 11  1  0  0  0  0
 10 37  1  0  0  0  0
 11 12  2  0  0  0  0
 11 31  1  0  0  0  0
 12 13  1  0  0  0  0
 12 38  1  0  0  0  0
 13 14  1  0  0  0  0
 13 15  2  0  0  0  0
 15 16  1  0  0  0  0
 15 39  1  0  0  0  0
 16 17  1  0  0  0  0
 16 31  2  0  0  0  0
 17 18  1  0  0  0  0
 17 40  1  0  0  0  0
 17 41  1  0  0  0  0
 18 19  2  0  0  0  0
 18 20  1  0  0  0  0
 20 21  1  0  0  0  0
 20 42  1  0  0  0  0
 21 22  2  0  0  0  0
 21 30  1  0  0  0  0
 22 23  1  0  0  0  0
 22 43  1  0  0  0  0
 23 24  2  0  0  0  0
 24 25  1  0  0  0  0
 24 44  1  0  0  0  0
 25 26  2  0  0  0  0
 25 30  1  0  0  0  0
 26 27  1  0  0  0  0
 26 45  1  0  0  0  0
 27 28  2  0  0  0  0
 27 46  1  0  0  0  0
 28 29  1  0  0  0  0
 28 47  1  0  0  0  0
 29 30  2  0  0  0  0
 29 48  1  0  0  0  0
 31 49  1  0  0  0  0
M  END
$$$$
