
 OpenBabel07202414123D

 46 48  0  0  1  0  0  0  0  0999 V2000
    1.1214    0.6220    0.1002 C   0  0  0  0  0  0  0  0  0  0  0  0
    2.5247    0.0709   -0.1695 C   0  0  3  0  0  0  0  0  0  0  0  0
    2.4818   -1.4617   -0.3494 C   0  0  0  0  0  0  0  0  0  0  0  0
    3.8502   -2.0982   -0.6078 C   0  0  0  0  0  0  0  0  0  0  0  0
    3.7305   -3.5692   -0.7641 C   0  0  0  0  0  0  0  0  0  0  0  0
    3.7845   -4.6167    0.1297 C   0  0  0  0  0  0  0  0  0  0  0  0
    3.6551   -5.7988   -0.6352 C   0  0  0  0  0  0  0  0  0  0  0  0
    3.5011   -5.3956   -1.9409 C   0  0  0  0  0  0  0  0  0  0  0  0
    3.5400   -4.0406   -2.0284 O   0  0  0  0  0  0  0  0  0  0  0  0
    3.1336    0.7528   -1.3160 N   0  0  0  0  0  0  0  0  0  0  0  0
    4.5021    0.8877   -1.3803 C   0  0  0  0  0  0  0  0  0  0  0  0
    5.2280    0.4774   -0.4786 O   0  0  0  0  0  0  0  0  0  0  0  0
    4.9494    1.5489   -2.5006 N   0  0  0  0  0  0  0  0  0  0  0  0
    6.2972    1.7974   -2.7533 C   0  0  0  0  0  0  0  0  0  0  0  0
    7.2662    0.9854   -2.2926 C   0  0  0  0  0  0  0  0  0  0  0  0
    8.6153    1.2028   -2.4838 N   0  0  0  0  0  0  0  0  0  0  0  0
    9.0988    2.2824   -3.2029 C   0  0  0  0  0  0  0  0  0  0  0  0
   10.3045    2.4984   -3.3815 O   0  0  0  0  0  0  0  0  0  0  0  0
    8.0903    3.2240   -3.7468 C   0  0  0  0  0  0  0  0  0  0  0  0
    6.7184    3.0038   -3.5098 C   0  0  0  0  0  0  0  0  0  0  0  0
    5.8222    3.9975   -3.9386 C   0  0  0  0  0  0  0  0  0  0  0  0
    6.2757    5.1453   -4.6029 C   0  0  0  0  0  0  0  0  0  0  0  0
    7.6313    5.3230   -4.8606 C   0  0  0  0  0  0  0  0  0  0  0  0
    8.5408    4.3653   -4.4299 C   0  0  0  0  0  0  0  0  0  0  0  0
    9.5839    0.3270   -1.8431 C   0  0  0  0  0  0  0  0  0  0  0  0
    0.7088    0.2210    1.0344 H   0  0  0  0  0  0  0  0  0  0  0  0
    0.4284    0.3660   -0.7102 H   0  0  0  0  0  0  0  0  0  0  0  0
    1.1365    1.7141    0.1905 H   0  0  0  0  0  0  0  0  0  0  0  0
    3.1439    0.3050    0.7072 H   0  0  0  0  0  0  0  0  0  0  0  0
    1.8226   -1.7108   -1.1888 H   0  0  0  0  0  0  0  0  0  0  0  0
    2.0272   -1.9248    0.5391 H   0  0  0  0  0  0  0  0  0  0  0  0
    4.5406   -1.8767    0.2146 H   0  0  0  0  0  0  0  0  0  0  0  0
    4.2950   -1.6903   -1.5227 H   0  0  0  0  0  0  0  0  0  0  0  0
    3.9276   -4.5316    1.1979 H   0  0  0  0  0  0  0  0  0  0  0  0
    3.6795   -6.8190   -0.2797 H   0  0  0  0  0  0  0  0  0  0  0  0
    3.3697   -5.9212   -2.8764 H   0  0  0  0  0  0  0  0  0  0  0  0
    2.5670    0.9676   -2.1206 H   0  0  0  0  0  0  0  0  0  0  0  0
    4.2651    2.1232   -2.9664 H   0  0  0  0  0  0  0  0  0  0  0  0
    7.0250    0.0874   -1.7330 H   0  0  0  0  0  0  0  0  0  0  0  0
    4.7591    3.9296   -3.7363 H   0  0  0  0  0  0  0  0  0  0  0  0
    5.5663    5.9127   -4.9049 H   0  0  0  0  0  0  0  0  0  0  0  0
    7.9828    6.2156   -5.3726 H   0  0  0  0  0  0  0  0  0  0  0  0
    9.6061    4.5172   -4.5993 H   0  0  0  0  0  0  0  0  0  0  0  0
    9.1073   -0.5376   -1.3728 H   0  0  0  0  0  0  0  0  0  0  0  0
   10.1200    0.9033   -1.0815 H   0  0  0  0  0  0  0  0  0  0  0  0
   10.3077   -0.0202   -2.5870 H   0  0  0  0  0  0  0  0  0  0  0  0
  1  2  1  0  0  0  0
  1 26  1  0  0  0  0
  1 27  1  0  0  0  0
  1 28  1  0  0  0  0
  2  3  1  0  0  0  0
  2 10  1  0  0  0  0
  2 29  1  0  0  0  0
  3  4  1  0  0  0  0
  3 30  1  0  0  0  0
  3 31  1  0  0  0  0
  4  5  1  0  0  0  0
  4 32  1  0  0  0  0
  4 33  1  0  0  0  0
  5  6  2  0  0  0  0
  5  9  1  0  0  0  0
  6  7  1  0  0  0  0
  6 34  1  0  0  0  0
  7  8  2  0  0  0  0
  7 35  1  0  0  0  0
  8  9  1  0  0  0  0
  8 36  1  0  0  0  0
 10 11  1  0  0  0  0
 10 37  1  0  0  0  0
 11 12  2  0  0  0  0
 11 13  1  0  0  0  0
 13 14  1  0  0  0  0
 13 38  1  0  0  0  0
 14 15  2  0  0  0  0
 14 20  1  0  0  0  0
 15 16  1  0  0  0  0
 15 39  1  0  0  0  0
 16 17  1  0  0  0  0
 16 25  1  0  0  0  0
 17 18  2  0  0  0  0
 17 19  1  0  0  0  0
 19 20  1  0  0  0  0
 19 24  2  0  0  0  0
 20 21  2  0  0  0  0
 21 22  1  0  0  0  0
 21 40  1  0  0  0  0
 22 23  2  0  0  0  0
 22 41  1  0  0  0  0
 23 24  1  0  0  0  0
 23 42  1  0  0  0  0
 24 43  1  0  0  0  0
 25 44  1  0  0  0  0
 25 45  1  0  0  0  0
 25 46  1  0  0  0  0
M  END
$$$$
