
 OpenBabel07202414193D

 43 46  0  0  0  0  0  0  0  0999 V2000
    2.4638   -1.1380   -0.6813 O   0  0  0  0  0  0  0  0  0  0  0  0
    2.2989    0.0188   -0.2893 C   0  0  0  0  0  0  0  0  0  0  0  0
    1.0695    0.3632    0.5475 C   0  0  0  0  0  0  0  0  0  0  0  0
   -0.0083    1.1096   -0.2091 C   0  0  0  0  0  0  0  0  0  0  0  0
   -0.2589    0.7778   -1.5434 C   0  0  0  0  0  0  0  0  0  0  0  0
   -1.1564    1.4020   -2.3318 N   0  0  0  0  0  0  0  0  0  0  0  0
   -1.8535    2.4078   -1.7669 C   0  0  0  0  0  0  0  0  0  0  0  0
   -1.7210    2.8219   -0.4426 C   0  0  0  0  0  0  0  0  0  0  0  0
   -2.4863    3.8873    0.0663 C   0  0  0  0  0  0  0  0  0  0  0  0
   -2.3479    4.2918    1.3920 C   0  0  0  0  0  0  0  0  0  0  0  0
   -1.4570    3.6252    2.2220 C   0  0  0  0  0  0  0  0  0  0  0  0
   -0.6912    2.5664    1.7249 C   0  0  0  0  0  0  0  0  0  0  0  0
   -0.7879    2.1444    0.3760 C   0  0  0  0  0  0  0  0  0  0  0  0
    3.2125    1.0360   -0.5553 N   0  0  0  0  0  0  0  0  0  0  0  0
    4.3619    0.7353   -1.4075 C   0  0  0  0  0  0  0  0  0  0  0  0
    5.6085    1.4784   -0.9306 C   0  0  0  0  0  0  0  0  0  0  0  0
    5.3662    2.9854   -0.7615 C   0  0  0  0  0  0  0  0  0  0  0  0
    5.2510    3.6846   -2.0793 C   0  0  0  0  0  0  0  0  0  0  0  0
    4.2333    4.3555   -2.5766 N   0  0  0  0  0  0  0  0  0  0  0  0
    4.6763    4.7668   -3.8049 C   0  0  0  0  0  0  0  0  0  0  0  0
    5.9631    4.3363   -4.0000 C   0  0  0  0  0  0  0  0  0  0  0  0
    6.3492    3.6414   -2.8948 O   0  0  0  0  0  0  0  0  0  0  0  0
    4.1266    3.2250    0.1079 C   0  0  0  0  0  0  0  0  0  0  0  0
    2.9120    2.4594   -0.4024 C   0  0  0  0  0  0  0  0  0  0  0  0
    1.4341    0.9142    1.4193 H   0  0  0  0  0  0  0  0  0  0  0  0
    0.6442   -0.5690    0.9371 H   0  0  0  0  0  0  0  0  0  0  0  0
    0.2860   -0.0201   -2.0456 H   0  0  0  0  0  0  0  0  0  0  0  0
   -2.5582    2.8923   -2.4393 H   0  0  0  0  0  0  0  0  0  0  0  0
   -3.1947    4.4105   -0.5714 H   0  0  0  0  0  0  0  0  0  0  0  0
   -2.9381    5.1199    1.7743 H   0  0  0  0  0  0  0  0  0  0  0  0
   -1.3494    3.9317    3.2610 H   0  0  0  0  0  0  0  0  0  0  0  0
   -0.0151    2.0746    2.4194 H   0  0  0  0  0  0  0  0  0  0  0  0
    4.1004    1.0211   -2.4328 H   0  0  0  0  0  0  0  0  0  0  0  0
    4.5679   -0.3404   -1.4165 H   0  0  0  0  0  0  0  0  0  0  0  0
    6.4395    1.2853   -1.6191 H   0  0  0  0  0  0  0  0  0  0  0  0
    5.9047    1.0650    0.0434 H   0  0  0  0  0  0  0  0  0  0  0  0
    6.2310    3.4180   -0.2423 H   0  0  0  0  0  0  0  0  0  0  0  0
    4.0521    5.3440   -4.4726 H   0  0  0  0  0  0  0  0  0  0  0  0
    6.6885    4.4259   -4.7944 H   0  0  0  0  0  0  0  0  0  0  0  0
    3.8871    4.2936    0.1706 H   0  0  0  0  0  0  0  0  0  0  0  0
    4.3429    2.8887    1.1308 H   0  0  0  0  0  0  0  0  0  0  0  0
    2.5711    2.8233   -1.3778 H   0  0  0  0  0  0  0  0  0  0  0  0
    2.0963    2.6302    0.2974 H   0  0  0  0  0  0  0  0  0  0  0  0
  1  2  2  0  0  0  0
  2  3  1  0  0  0  0
  2 14  1  0  0  0  0
  3  4  1  0  0  0  0
  3 25  1  0  0  0  0
  3 26  1  0  0  0  0
  4  5  1  0  0  0  0
  4 13  2  0  0  0  0
  5  6  2  0  0  0  0
  5 27  1  0  0  0  0
  6  7  1  0  0  0  0
  7  8  2  0  0  0  0
  7 28  1  0  0  0  0
  8  9  1  0  0  0  0
  8 13  1  0  0  0  0
  9 10  2  0  0  0  0
  9 29  1  0  0  0  0
 10 11  1  0  0  0  0
 10 30  1  0  0  0  0
 11 12  2  0  0  0  0
 11 31  1  0  0  0  0
 12 13  1  0  0  0  0
 12 32  1  0  0  0  0
 14 15  1  0  0  0  0
 14 24  1  0  0  0  0
 15 16  1  0  0  0  0
 15 33  1  0  0  0  0
 15 34  1  0  0  0  0
 16 17  1  0  0  0  0
 16 35  1  0  0  0  0
 16 36  1  0  0  0  0
 17 18  1  0  0  0  0
 17 23  1  0  0  0  0
 17 37  1  0  0  0  0
 18 19  2  0  0  0  0
 18 22  1  0  0  0  0
 19 20  1  0  0  0  0
 20 21  2  0  0  0  0
 20 38  1  0  0  0  0
 21 22  1  0  0  0  0
 21 39  1  0  0  0  0
 23 24  1  0  0  0  0
 23 40  1  0  0  0  0
 23 41  1  0  0  0  0
 24 42  1  0  0  0  0
 24 43  1  0  0  0  0
M  END
$$$$
