
 OpenBabel07202414163D

 46 49  0  0  0  0  0  0  0  0999 V2000
    5.3842    3.8238   -1.0235 Cl  0  0  0  0  0  0  0  0  0  0  0  0
    4.0944    2.6880   -0.9600 C   0  0  0  0  0  0  0  0  0  0  0  0
    2.8877    3.0502   -0.3616 C   0  0  0  0  0  0  0  0  0  0  0  0
    1.8236    2.1408   -0.2751 C   0  0  0  0  0  0  0  0  0  0  0  0
    0.5949    2.5415    0.2890 N   0  0  0  0  0  0  0  0  0  0  0  0
   -0.0950    3.7565    0.1479 C   0  0  0  0  0  0  0  0  0  0  0  0
   -0.9935    4.1635    1.1460 C   0  0  0  0  0  0  0  0  0  0  0  0
   -1.6159    5.4084    1.0673 C   0  0  0  0  0  0  0  0  0  0  0  0
   -2.7022    5.8936    2.3124 Cl  0  0  0  0  0  0  0  0  0  0  0  0
   -1.3540    6.2760    0.0068 C   0  0  0  0  0  0  0  0  0  0  0  0
   -0.4692    5.8902   -1.0020 C   0  0  0  0  0  0  0  0  0  0  0  0
   -0.1313    6.8221   -2.1445 C   0  0  0  0  0  0  0  0  0  0  0  0
   -0.3434    6.2352   -3.5283 C   0  0  0  0  0  0  0  0  0  0  0  0
    0.4920    6.3949   -4.4147 O   0  0  0  0  0  0  0  0  0  0  0  0
   -1.5733    5.6297   -3.7122 N   0  0  0  0  0  0  0  0  0  0  0  0
   -1.9750    5.0466   -4.9359 C   0  0  0  0  0  0  0  0  0  0  0  0
   -1.0748    4.3135   -5.7168 C   0  0  0  0  0  0  0  0  0  0  0  0
   -1.3956    3.6975   -6.8764 N   0  0  0  0  0  0  0  0  0  0  0  0
   -2.6681    3.8495   -7.2996 C   0  0  0  0  0  0  0  0  0  0  0  0
   -3.6520    4.5738   -6.6222 C   0  0  0  0  0  0  0  0  0  0  0  0
   -4.9422    4.7290   -7.1586 C   0  0  0  0  0  0  0  0  0  0  0  0
   -5.8960    5.5003   -6.4980 C   0  0  0  0  0  0  0  0  0  0  0  0
   -5.5762    6.1083   -5.2886 C   0  0  0  0  0  0  0  0  0  0  0  0
   -4.3042    5.9472   -4.7388 C   0  0  0  0  0  0  0  0  0  0  0  0
   -3.3073    5.1814   -5.3933 C   0  0  0  0  0  0  0  0  0  0  0  0
    0.1492    4.6342   -0.9173 C   0  0  0  0  0  0  0  0  0  0  0  0
    2.0051    0.8571   -0.8201 C   0  0  0  0  0  0  0  0  0  0  0  0
    0.6107   -0.4349   -0.7893 Br  0  0  0  0  0  0  0  0  0  0  0  0
    3.2126    0.4964   -1.4307 C   0  0  0  0  0  0  0  0  0  0  0  0
    4.2599    1.4165   -1.5001 C   0  0  0  0  0  0  0  0  0  0  0  0
    2.7830    4.0448    0.0649 H   0  0  0  0  0  0  0  0  0  0  0  0
    0.1432    1.8288    0.8530 H   0  0  0  0  0  0  0  0  0  0  0  0
   -1.1888    3.5161    1.9974 H   0  0  0  0  0  0  0  0  0  0  0  0
   -1.8328    7.2516   -0.0176 H   0  0  0  0  0  0  0  0  0  0  0  0
    0.9267    7.0955   -2.0506 H   0  0  0  0  0  0  0  0  0  0  0  0
   -0.7121    7.7497   -2.0797 H   0  0  0  0  0  0  0  0  0  0  0  0
   -2.2899    5.8164   -3.0241 H   0  0  0  0  0  0  0  0  0  0  0  0
   -0.0454    4.1584   -5.4015 H   0  0  0  0  0  0  0  0  0  0  0  0
   -2.8799    3.3672   -8.2507 H   0  0  0  0  0  0  0  0  0  0  0  0
   -5.2023    4.2776   -8.1155 H   0  0  0  0  0  0  0  0  0  0  0  0
   -6.8812    5.6423   -6.9337 H   0  0  0  0  0  0  0  0  0  0  0  0
   -6.3123    6.7263   -4.7795 H   0  0  0  0  0  0  0  0  0  0  0  0
   -4.0924    6.4695   -3.8097 H   0  0  0  0  0  0  0  0  0  0  0  0
    0.8304    4.3281   -1.7099 H   0  0  0  0  0  0  0  0  0  0  0  0
    3.3450   -0.4918   -1.8643 H   0  0  0  0  0  0  0  0  0  0  0  0
    5.1971    1.1373   -1.9753 H   0  0  0  0  0  0  0  0  0  0  0  0
  1  2  1  0  0  0  0
  2  3  2  0  0  0  0
  2 30  1  0  0  0  0
  3  4  1  0  0  0  0
  3 31  1  0  0  0  0
  4  5  1  0  0  0  0
  4 27  2  0  0  0  0
  5  6  1  0  0  0  0
  5 32  1  0  0  0  0
  6  7  2  0  0  0  0
  6 26  1  0  0  0  0
  7  8  1  0  0  0  0
  7 33  1  0  0  0  0
  8  9  1  0  0  0  0
  8 10  2  0  0  0  0
 10 11  1  0  0  0  0
 10 34  1  0  0  0  0
 11 12  1  0  0  0  0
 11 26  2  0  0  0  0
 12 13  1  0  0  0  0
 12 35  1  0  0  0  0
 12 36  1  0  0  0  0
 13 14  2  0  0  0  0
 13 15  1  0  0  0  0
 15 16  1  0  0  0  0
 15 37  1  0  0  0  0
 16 17  2  0  0  0  0
 16 25  1  0  0  0  0
 17 18  1  0  0  0  0
 17 38  1  0  0  0  0
 18 19  2  0  0  0  0
 19 20  1  0  0  0  0
 19 39  1  0  0  0  0
 20 21  2  0  0  0  0
 20 25  1  0  0  0  0
 21 22  1  0  0  0  0
 21 40  1  0  0  0  0
 22 23  2  0  0  0  0
 22 41  1  0  0  0  0
 23 24  1  0  0  0  0
 23 42  1  0  0  0  0
 24 25  2  0  0  0  0
 24 43  1  0  0  0  0
 26 44  1  0  0  0  0
 27 28  1  0  0  0  0
 27 29  1  0  0  0  0
 29 30  2  0  0  0  0
 29 45  1  0  0  0  0
 30 46  1  0  0  0  0
M  END
$$$$
