
 OpenBabel07202414113D

 55 58  0  0  0  0  0  0  0  0999 V2000
    5.0300   -6.1934    1.8553 C   0  0  0  0  0  0  0  0  0  0  0  0
    5.8492   -5.1962    2.2232 C   0  0  0  0  0  0  0  0  0  0  0  0
    5.2849   -3.9155    2.7485 C   0  0  0  0  0  0  0  0  0  0  0  0
    4.0781   -3.7911    2.8989 O   0  0  0  0  0  0  0  0  0  0  0  0
    6.2592   -2.9592    3.0002 N   0  0  0  0  0  0  0  0  0  0  0  0
    6.0538   -1.6861    3.5936 C   0  0  0  0  0  0  0  0  0  0  0  0
    4.8380   -1.3224    4.1766 C   0  0  0  0  0  0  0  0  0  0  0  0
    4.6745   -0.0682    4.7686 C   0  0  0  0  0  0  0  0  0  0  0  0
    5.7325    0.8411    4.7993 C   0  0  0  0  0  0  0  0  0  0  0  0
    5.4176    2.4035    5.4757 Cl  0  0  0  0  0  0  0  0  0  0  0  0
    6.9800    0.5041    4.2414 C   0  0  0  0  0  0  0  0  0  0  0  0
    8.1123    1.3840    4.3866 N   0  0  0  0  0  0  0  0  0  0  0  0
    8.7320    2.0211    3.2206 C   0  0  0  0  0  0  0  0  0  0  0  0
    8.0110    1.9660    1.9009 C   0  0  0  0  0  0  0  0  0  0  0  0
    7.0471    2.9331    1.5735 C   0  0  0  0  0  0  0  0  0  0  0  0
    6.3697    2.8714    0.3553 C   0  0  0  0  0  0  0  0  0  0  0  0
    6.6383    1.8353   -0.5387 C   0  0  0  0  0  0  0  0  0  0  0  0
    7.6081    0.8855   -0.2264 C   0  0  0  0  0  0  0  0  0  0  0  0
    7.9410   -0.3982   -1.3215 Cl  0  0  0  0  0  0  0  0  0  0  0  0
    8.3077    0.9578    0.9753 C   0  0  0  0  0  0  0  0  0  0  0  0
    8.6071    1.5895    5.6842 C   0  0  0  0  0  0  0  0  0  0  0  0
    8.1623    0.9879    6.6707 O   0  0  0  0  0  0  0  0  0  0  0  0
    9.7903    2.5455    5.8843 C   0  0  0  0  0  0  0  0  0  0  0  0
   11.1477    1.8891    5.7338 C   0  0  0  0  0  0  0  0  0  0  0  0
   11.3355    0.6000    6.2415 C   0  0  0  0  0  0  0  0  0  0  0  0
   12.4807   -0.1042    6.1469 N   0  0  0  0  0  0  0  0  0  0  0  0
   13.5127    0.5054    5.5312 C   0  0  0  0  0  0  0  0  0  0  0  0
   13.4733    1.7972    5.0118 C   0  0  0  0  0  0  0  0  0  0  0  0
   14.5996    2.3556    4.3804 C   0  0  0  0  0  0  0  0  0  0  0  0
   14.5664    3.6574    3.8907 C   0  0  0  0  0  0  0  0  0  0  0  0
   13.4161    4.4189    4.0500 C   0  0  0  0  0  0  0  0  0  0  0  0
   12.2865    3.8676    4.6671 C   0  0  0  0  0  0  0  0  0  0  0  0
   12.2709    2.5325    5.1404 C   0  0  0  0  0  0  0  0  0  0  0  0
    7.1253   -0.7660    3.6354 C   0  0  0  0  0  0  0  0  0  0  0  0
    5.4193   -7.1369    1.4858 H   0  0  0  0  0  0  0  0  0  0  0  0
    3.9496   -6.0940    1.9194 H   0  0  0  0  0  0  0  0  0  0  0  0
    6.9214   -5.3169    2.1631 H   0  0  0  0  0  0  0  0  0  0  0  0
    7.2085   -3.1777    2.7294 H   0  0  0  0  0  0  0  0  0  0  0  0
    3.9921   -2.0020    4.2133 H   0  0  0  0  0  0  0  0  0  0  0  0
    3.7142    0.1812    5.2121 H   0  0  0  0  0  0  0  0  0  0  0  0
    9.7492    1.6254    3.1176 H   0  0  0  0  0  0  0  0  0  0  0  0
    8.8507    3.0862    3.4497 H   0  0  0  0  0  0  0  0  0  0  0  0
    6.8196    3.7435    2.2646 H   0  0  0  0  0  0  0  0  0  0  0  0
    5.6254    3.6248    0.1081 H   0  0  0  0  0  0  0  0  0  0  0  0
    6.0882    1.7737   -1.4734 H   0  0  0  0  0  0  0  0  0  0  0  0
    9.0769    0.2225    1.1984 H   0  0  0  0  0  0  0  0  0  0  0  0
    9.7163    2.9581    6.8983 H   0  0  0  0  0  0  0  0  0  0  0  0
    9.6713    3.4073    5.2271 H   0  0  0  0  0  0  0  0  0  0  0  0
   10.5405    0.0681    6.7618 H   0  0  0  0  0  0  0  0  0  0  0  0
   14.4159   -0.0974    5.4761 H   0  0  0  0  0  0  0  0  0  0  0  0
   15.5137    1.7751    4.2676 H   0  0  0  0  0  0  0  0  0  0  0  0
   15.4400    4.0785    3.3991 H   0  0  0  0  0  0  0  0  0  0  0  0
   13.3956    5.4472    3.6963 H   0  0  0  0  0  0  0  0  0  0  0  0
   11.4235    4.5167    4.7862 H   0  0  0  0  0  0  0  0  0  0  0  0
    8.0900   -1.0482    3.2244 H   0  0  0  0  0  0  0  0  0  0  0  0
  1  2  2  0  0  0  0
  1 35  1  0  0  0  0
  1 36  1  0  0  0  0
  2  3  1  0  0  0  0
  2 37  1  0  0  0  0
  3  4  2  0  0  0  0
  3  5  1  0  0  0  0
  5  6  1  0  0  0  0
  5 38  1  0  0  0  0
  6  7  1  0  0  0  0
  6 34  2  0  0  0  0
  7  8  2  0  0  0  0
  7 39  1  0  0  0  0
  8  9  1  0  0  0  0
  8 40  1  0  0  0  0
  9 10  1  0  0  0  0
  9 11  2  0  0  0  0
 11 12  1  0  0  0  0
 11 34  1  0  0  0  0
 12 13  1  0  0  0  0
 12 21  1  0  0  0  0
 13 14  1  0  0  0  0
 13 41  1  0  0  0  0
 13 42  1  0  0  0  0
 14 15  1  0  0  0  0
 14 20  2  0  0  0  0
 15 16  2  0  0  0  0
 15 43  1  0  0  0  0
 16 17  1  0  0  0  0
 16 44  1  0  0  0  0
 17 18  2  0  0  0  0
 17 45  1  0  0  0  0
 18 19  1  0  0  0  0
 18 20  1  0  0  0  0
 20 46  1  0  0  0  0
 21 22  2  0  0  0  0
 21 23  1  0  0  0  0
 23 24  1  0  0  0  0
 23 47  1  0  0  0  0
 23 48  1  0  0  0  0
 24 25  1  0  0  0  0
 24 33  2  0  0  0  0
 25 26  2  0  0  0  0
 25 49  1  0  0  0  0
 26 27  1  0  0  0  0
 27 28  2  0  0  0  0
 27 50  1  0  0  0  0
 28 29  1  0  0  0  0
 28 33  1  0  0  0  0
 29 30  2  0  0  0  0
 29 51  1  0  0  0  0
 30 31  1  0  0  0  0
 30 52  1  0  0  0  0
 31 32  2  0  0  0  0
 31 53  1  0  0  0  0
 32 33  1  0  0  0  0
 32 54  1  0  0  0  0
 34 55  1  0  0  0  0
M  END
$$$$
