
 OpenBabel07202414173D

 56 61  0  0  1  0  0  0  0  0999 V2000
    1.0151    0.4375    0.0943 Cl  0  0  0  0  0  0  0  0  0  0  0  0
    2.7293    0.2963    0.1049 C   0  0  0  0  0  0  0  0  0  0  0  0
    3.5191    1.4356    0.0564 C   0  0  0  0  0  0  0  0  0  0  0  0
    4.9056    1.3050    0.0443 C   0  0  0  0  0  0  0  0  0  0  0  0
    5.5122    0.0360    0.0938 C   0  0  0  0  0  0  0  0  0  0  0  0
    4.7164   -1.1280    0.1586 C   0  0  0  0  0  0  0  0  0  0  0  0
    3.3152   -0.9686    0.1538 C   0  0  0  0  0  0  0  0  0  0  0  0
    5.3614   -2.5264    0.2352 C   0  0  3  0  0  0  0  0  0  0  0  0
    6.8894   -2.4851    0.0744 C   0  0  0  0  0  0  0  0  0  0  0  0
    7.5689   -1.2749    0.5884 N   0  0  0  0  0  0  0  0  0  0  0  0
    7.9788   -1.1556    2.2134 S   0  0  0  0  0  0  0  0  0  0  0  0
    8.9752   -0.1135    2.3236 O   0  0  0  0  0  0  0  0  0  0  0  0
    6.7788   -1.0941    3.0061 O   0  0  0  0  0  0  0  0  0  0  0  0
    8.7682   -2.6278    2.4245 N   0  0  0  0  0  0  0  0  0  0  0  0
    9.4777   -2.9959    3.6840 C   0  0  0  0  0  0  0  0  0  0  0  0
   10.5157   -3.7871    2.8728 C   0  0  0  0  0  0  0  0  0  0  0  0
    9.9742   -3.0422    1.6480 C   0  0  0  0  0  0  0  0  0  0  0  0
    7.0168   -0.0402    0.0162 C   0  0  0  0  0  0  0  0  0  0  0  0
    4.7912   -3.4441   -0.8867 C   0  0  0  0  0  0  0  0  0  0  0  0
    3.8269   -4.4042   -0.2124 C   0  0  0  0  0  0  0  0  0  0  0  0
    3.7523   -3.9869    1.1571 N   0  0  0  0  0  0  0  0  0  0  0  0
    2.7599   -4.4767    2.0494 C   0  0  0  0  0  0  0  0  0  0  0  0
    2.2006   -5.7305    1.7837 C   0  0  0  0  0  0  0  0  0  0  0  0
    1.1009   -6.2404    2.3698 N   0  0  0  0  0  0  0  0  0  0  0  0
    0.5434   -5.4751    3.3265 C   0  0  0  0  0  0  0  0  0  0  0  0
    1.0501   -4.2558    3.7735 C   0  0  0  0  0  0  0  0  0  0  0  0
    0.4131   -3.5896    4.8454 C   0  0  0  0  0  0  0  0  0  0  0  0
    0.8831   -2.3540    5.2751 C   0  0  0  0  0  0  0  0  0  0  0  0
    1.9488   -1.7572    4.6136 C   0  0  0  0  0  0  0  0  0  0  0  0
    2.5846   -2.4200    3.5496 C   0  0  0  0  0  0  0  0  0  0  0  0
    2.1827   -3.7094    3.1120 C   0  0  0  0  0  0  0  0  0  0  0  0
    4.9124   -3.2958    1.4955 C   0  0  0  0  0  0  0  0  0  0  0  0
    5.4750   -3.3680    2.5732 O   0  0  0  0  0  0  0  0  0  0  0  0
    3.0669    2.4228    0.0254 H   0  0  0  0  0  0  0  0  0  0  0  0
    5.5176    2.2047    0.0026 H   0  0  0  0  0  0  0  0  0  0  0  0
    2.6539   -1.8297    0.1944 H   0  0  0  0  0  0  0  0  0  0  0  0
    7.1288   -2.4828   -1.0025 H   0  0  0  0  0  0  0  0  0  0  0  0
    7.3582   -3.4004    0.4467 H   0  0  0  0  0  0  0  0  0  0  0  0
    8.8626   -3.5873    4.3660 H   0  0  0  0  0  0  0  0  0  0  0  0
    9.8858   -2.1251    4.2069 H   0  0  0  0  0  0  0  0  0  0  0  0
   10.3428   -4.8675    2.8507 H   0  0  0  0  0  0  0  0  0  0  0  0
   11.5622   -3.5837    3.1124 H   0  0  0  0  0  0  0  0  0  0  0  0
    9.7352   -3.6764    0.7898 H   0  0  0  0  0  0  0  0  0  0  0  0
   10.5805   -2.1929    1.3186 H   0  0  0  0  0  0  0  0  0  0  0  0
    7.3096    0.0076   -1.0408 H   0  0  0  0  0  0  0  0  0  0  0  0
    7.4686    0.8395    0.4894 H   0  0  0  0  0  0  0  0  0  0  0  0
    5.5729   -4.0337   -1.3833 H   0  0  0  0  0  0  0  0  0  0  0  0
    4.2918   -2.8802   -1.6830 H   0  0  0  0  0  0  0  0  0  0  0  0
    4.2466   -5.4171   -0.2390 H   0  0  0  0  0  0  0  0  0  0  0  0
    2.8420   -4.3986   -0.6872 H   0  0  0  0  0  0  0  0  0  0  0  0
    2.6557   -6.4044    1.0654 H   0  0  0  0  0  0  0  0  0  0  0  0
   -0.3787   -5.8819    3.7351 H   0  0  0  0  0  0  0  0  0  0  0  0
   -0.4230   -4.0444    5.3541 H   0  0  0  0  0  0  0  0  0  0  0  0
    0.4122   -1.8615    6.1227 H   0  0  0  0  0  0  0  0  0  0  0  0
    2.2967   -0.7759    4.9289 H   0  0  0  0  0  0  0  0  0  0  0  0
    3.4113   -1.8916    3.0802 H   0  0  0  0  0  0  0  0  0  0  0  0
  1  2  1  0  0  0  0
  2  3  1  0  0  0  0
  2  7  2  0  0  0  0
  3  4  2  0  0  0  0
  3 34  1  0  0  0  0
  4  5  1  0  0  0  0
  4 35  1  0  0  0  0
  5  6  2  0  0  0  0
  5 18  1  0  0  0  0
  6  7  1  0  0  0  0
  6  8  1  0  0  0  0
  7 36  1  0  0  0  0
  8  9  1  0  0  0  0
  8 19  1  0  0  0  0
  8 32  1  0  0  0  0
  9 10  1  0  0  0  0
  9 37  1  0  0  0  0
  9 38  1  0  0  0  0
 10 11  1  0  0  0  0
 10 18  1  0  0  0  0
 11 12  2  0  0  0  0
 11 13  2  0  0  0  0
 11 14  1  0  0  0  0
 14 15  1  0  0  0  0
 14 17  1  0  0  0  0
 15 16  1  0  0  0  0
 15 39  1  0  0  0  0
 15 40  1  0  0  0  0
 16 17  1  0  0  0  0
 16 41  1  0  0  0  0
 16 42  1  0  0  0  0
 17 43  1  0  0  0  0
 17 44  1  0  0  0  0
 18 45  1  0  0  0  0
 18 46  1  0  0  0  0
 19 20  1  0  0  0  0
 19 47  1  0  0  0  0
 19 48  1  0  0  0  0
 20 21  1  0  0  0  0
 20 49  1  0  0  0  0
 20 50  1  0  0  0  0
 21 22  1  0  0  0  0
 21 32  1  0  0  0  0
 22 23  1  0  0  0  0
 22 31  2  0  0  0  0
 23 24  2  0  0  0  0
 23 51  1  0  0  0  0
 24 25  1  0  0  0  0
 25 26  2  0  0  0  0
 25 52  1  0  0  0  0
 26 27  1  0  0  0  0
 26 31  1  0  0  0  0
 27 28  2  0  0  0  0
 27 53  1  0  0  0  0
 28 29  1  0  0  0  0
 28 54  1  0  0  0  0
 29 30  2  0  0  0  0
 29 55  1  0  0  0  0
 30 31  1  0  0  0  0
 30 56  1  0  0  0  0
 32 33  2  0  0  0  0
M  END
$$$$
