
 OpenBabel07202414123D

 69 72  0  0  1  0  0  0  0  0999 V2000
    3.6882    1.2428    0.2772 C   0  0  0  0  0  0  0  0  0  0  0  0
    2.5648    0.1889    0.1383 C   0  0  0  0  0  0  0  0  0  0  0  0
    1.4497    0.5707    1.1284 C   0  0  0  0  0  0  0  0  0  0  0  0
    2.0318    0.2700   -1.3070 C   0  0  0  0  0  0  0  0  0  0  0  0
    3.0409   -1.2398    0.4110 C   0  0  0  0  0  0  0  0  0  0  0  0
    4.3762   -1.5336    0.6571 C   0  0  0  0  0  0  0  0  0  0  0  0
    4.8224   -2.8559    0.7420 C   0  0  0  0  0  0  0  0  0  0  0  0
    3.9645   -3.9595    0.6356 C   0  0  0  0  0  0  0  0  0  0  0  0
    4.4595   -5.3310    0.5353 N   0  0  0  0  0  0  0  0  0  0  0  0
    3.4972   -6.4280    0.1792 C   0  0  3  0  0  0  0  0  0  0  0  0
    2.9619   -7.0547    1.4924 C   0  0  0  0  0  0  0  0  0  0  0  0
    2.3971   -6.3908    2.3662 O   0  0  0  0  0  0  0  0  0  0  0  0
    3.1372   -8.4205    1.6234 N   0  0  0  0  0  0  0  0  0  0  0  0
    2.7001   -9.1436    2.8105 C   0  0  0  0  0  0  0  0  0  0  0  0
    1.1733   -9.1660    2.9224 C   0  0  0  0  0  0  0  0  0  0  0  0
    0.6653   -9.9430    4.1075 C   0  0  0  0  0  0  0  0  0  0  0  0
    0.3114  -11.2935    3.9792 C   0  0  0  0  0  0  0  0  0  0  0  0
   -0.1760  -12.0066    5.0779 C   0  0  0  0  0  0  0  0  0  0  0  0
   -0.3104  -11.3762    6.3137 C   0  0  0  0  0  0  0  0  0  0  0  0
    0.0367  -10.0368    6.4401 C   0  0  0  0  0  0  0  0  0  0  0  0
   -0.0969   -9.4307    7.6270 F   0  0  0  0  0  0  0  0  0  0  0  0
    0.5215   -9.3165    5.3533 C   0  0  0  0  0  0  0  0  0  0  0  0
    2.4213   -6.2256   -0.9038 C   0  0  0  0  0  0  0  0  0  0  0  0
    2.7665   -5.8649   -2.2150 C   0  0  0  0  0  0  0  0  0  0  0  0
    1.8301   -5.9971   -3.2467 C   0  0  0  0  0  0  0  0  0  0  0  0
    0.5671   -6.4653   -2.9364 C   0  0  0  0  0  0  0  0  0  0  0  0
    0.1624   -6.7283   -1.6803 N   0  0  0  0  0  0  0  0  0  0  0  0
    1.0867   -6.5890   -0.6985 C   0  0  0  0  0  0  0  0  0  0  0  0
    5.7985   -5.6184    0.9243 C   0  0  0  0  0  0  0  0  0  0  0  0
    6.6040   -4.7582    1.3073 O   0  0  0  0  0  0  0  0  0  0  0  0
    6.3619   -7.0359    0.9728 C   0  0  0  0  0  0  0  0  0  0  0  0
    7.4275   -7.1787    1.7897 C   0  0  0  0  0  0  0  0  0  0  0  0
    8.0273   -8.3943    1.9793 N   0  0  0  0  0  0  0  0  0  0  0  0
    7.5491   -9.5106    1.3494 C   0  0  0  0  0  0  0  0  0  0  0  0
    7.9577  -10.6524    1.5184 O   0  0  0  0  0  0  0  0  0  0  0  0
    6.4265   -9.2480    0.3805 C   0  0  0  0  0  0  0  0  0  0  0  0
    5.8675   -8.0841    0.2111 N   0  0  0  0  0  0  0  0  0  0  0  0
    2.6064   -3.6410    0.5789 C   0  0  0  0  0  0  0  0  0  0  0  0
    2.1547   -2.3220    0.4008 C   0  0  0  0  0  0  0  0  0  0  0  0
    3.3237    2.2472    0.0372 H   0  0  0  0  0  0  0  0  0  0  0  0
    4.5255    1.0374   -0.4012 H   0  0  0  0  0  0  0  0  0  0  0  0
    4.0812    1.2729    1.3008 H   0  0  0  0  0  0  0  0  0  0  0  0
    1.0912    1.5885    0.9405 H   0  0  0  0  0  0  0  0  0  0  0  0
    1.8129    0.5269    2.1622 H   0  0  0  0  0  0  0  0  0  0  0  0
    0.5833   -0.0954    1.0575 H   0  0  0  0  0  0  0  0  0  0  0  0
    1.7538    1.2975   -1.5674 H   0  0  0  0  0  0  0  0  0  0  0  0
    1.1437   -0.3549   -1.4536 H   0  0  0  0  0  0  0  0  0  0  0  0
    2.7892   -0.0618   -2.0283 H   0  0  0  0  0  0  0  0  0  0  0  0
    5.1340   -0.7607    0.7451 H   0  0  0  0  0  0  0  0  0  0  0  0
    5.8949   -2.9320    0.8562 H   0  0  0  0  0  0  0  0  0  0  0  0
    4.0668   -7.1982   -0.3261 H   0  0  0  0  0  0  0  0  0  0  0  0
    3.4914   -8.9513    0.8351 H   0  0  0  0  0  0  0  0  0  0  0  0
    3.1539   -8.6692    3.6898 H   0  0  0  0  0  0  0  0  0  0  0  0
    3.1051  -10.1601    2.7396 H   0  0  0  0  0  0  0  0  0  0  0  0
    0.7481   -9.5788    1.9987 H   0  0  0  0  0  0  0  0  0  0  0  0
    0.7800   -8.1462    2.9889 H   0  0  0  0  0  0  0  0  0  0  0  0
    0.4008  -11.7964    3.0186 H   0  0  0  0  0  0  0  0  0  0  0  0
   -0.4536  -13.0516    4.9680 H   0  0  0  0  0  0  0  0  0  0  0  0
   -0.6836  -11.9179    7.1767 H   0  0  0  0  0  0  0  0  0  0  0  0
    0.7715   -8.2671    5.4860 H   0  0  0  0  0  0  0  0  0  0  0  0
    3.7704   -5.5217   -2.4512 H   0  0  0  0  0  0  0  0  0  0  0  0
    2.0934   -5.7745   -4.2749 H   0  0  0  0  0  0  0  0  0  0  0  0
   -0.1681   -6.6654   -3.7130 H   0  0  0  0  0  0  0  0  0  0  0  0
    0.6888   -6.8036    0.2913 H   0  0  0  0  0  0  0  0  0  0  0  0
    7.8595   -6.3556    2.3587 H   0  0  0  0  0  0  0  0  0  0  0  0
    8.7969   -8.5007    2.6258 H   0  0  0  0  0  0  0  0  0  0  0  0
    6.0883  -10.1193   -0.1907 H   0  0  0  0  0  0  0  0  0  0  0  0
    1.8322   -4.3927    0.6711 H   0  0  0  0  0  0  0  0  0  0  0  0
    1.0899   -2.1724    0.2348 H   0  0  0  0  0  0  0  0  0  0  0  0
  1  2  1  0  0  0  0
  1 40  1  0  0  0  0
  1 41  1  0  0  0  0
  1 42  1  0  0  0  0
  2  3  1  0  0  0  0
  2  4  1  0  0  0  0
  2  5  1  0  0  0  0
  3 43  1  0  0  0  0
  3 44  1  0  0  0  0
  3 45  1  0  0  0  0
  4 46  1  0  0  0  0
  4 47  1  0  0  0  0
  4 48  1  0  0  0  0
  5  6  1  0  0  0  0
  5 39  2  0  0  0  0
  6  7  2  0  0  0  0
  6 49  1  0  0  0  0
  7  8  1  0  0  0  0
  7 50  1  0  0  0  0
  8  9  1  0  0  0  0
  8 38  2  0  0  0  0
  9 10  1  0  0  0  0
  9 29  1  0  0  0  0
 10 11  1  0  0  0  0
 10 23  1  0  0  0  0
 10 51  1  0  0  0  0
 11 12  2  0  0  0  0
 11 13  1  0  0  0  0
 13 14  1  0  0  0  0
 13 52  1  0  0  0  0
 14 15  1  0  0  0  0
 14 53  1  0  0  0  0
 14 54  1  0  0  0  0
 15 16  1  0  0  0  0
 15 55  1  0  0  0  0
 15 56  1  0  0  0  0
 16 17  1  0  0  0  0
 16 22  2  0  0  0  0
 17 18  2  0  0  0  0
 17 57  1  0  0  0  0
 18 19  1  0  0  0  0
 18 58  1  0  0  0  0
 19 20  2  0  0  0  0
 19 59  1  0  0  0  0
 20 21  1  0  0  0  0
 20 22  1  0  0  0  0
 22 60  1  0  0  0  0
 23 24  1  0  0  0  0
 23 28  2  0  0  0  0
 24 25  2  0  0  0  0
 24 61  1  0  0  0  0
 25 26  1  0  0  0  0
 25 62  1  0  0  0  0
 26 27  2  0  0  0  0
 26 63  1  0  0  0  0
 27 28  1  0  0  0  0
 28 64  1  0  0  0  0
 29 30  2  0  0  0  0
 29 31  1  0  0  0  0
 31 32  2  0  0  0  0
 31 37  1  0  0  0  0
 32 33  1  0  0  0  0
 32 65  1  0  0  0  0
 33 34  1  0  0  0  0
 33 66  1  0  0  0  0
 34 35  2  0  0  0  0
 34 36  1  0  0  0  0
 36 37  2  0  0  0  0
 36 67  1  0  0  0  0
 38 39  1  0  0  0  0
 38 68  1  0  0  0  0
 39 69  1  0  0  0  0
M  END
$$$$
