
 OpenBabel07202414123D

 56 59  0  0  0  0  0  0  0  0999 V2000
    2.9626    2.4148   -2.6179 C   0  0  0  0  0  0  0  0  0  0  0  0
    2.5716    1.2452   -1.7130 C   0  0  0  0  0  0  0  0  0  0  0  0
    2.9661   -0.0726   -2.3848 C   0  0  0  0  0  0  0  0  0  0  0  0
    3.1080    1.3885   -0.2657 C   0  0  0  0  0  0  0  0  0  0  0  0
    4.5697    1.4015   -0.1556 N   0  0  0  0  0  0  0  0  0  0  0  0
    5.2234    0.1905   -0.0718 C   0  0  0  0  0  0  0  0  0  0  0  0
    6.5481    0.0222   -0.2347 C   0  0  0  0  0  0  0  0  0  0  0  0
    7.3699    1.2571   -0.3834 C   0  0  0  0  0  0  0  0  0  0  0  0
    8.7657    1.2546   -0.5471 C   0  0  0  0  0  0  0  0  0  0  0  0
    9.4839    2.4496   -0.6842 C   0  0  0  0  0  0  0  0  0  0  0  0
    8.8305    3.6775   -0.6596 C   0  0  0  0  0  0  0  0  0  0  0  0
    7.4495    3.7110   -0.5073 C   0  0  0  0  0  0  0  0  0  0  0  0
    6.7274    2.5151   -0.3792 C   0  0  0  0  0  0  0  0  0  0  0  0
    5.2502    2.6020   -0.2891 C   0  0  0  0  0  0  0  0  0  0  0  0
    4.7001    3.6999   -0.3534 O   0  0  0  0  0  0  0  0  0  0  0  0
    7.1051   -1.2558   -0.3169 N   0  0  0  0  0  0  0  0  0  0  0  0
    6.4052   -2.3772   -0.7410 C   0  0  0  0  0  0  0  0  0  0  0  0
    5.2410   -2.3814   -1.1330 O   0  0  0  0  0  0  0  0  0  0  0  0
    7.1558   -3.5356   -0.7430 N   0  0  0  0  0  0  0  0  0  0  0  0
    6.4395   -4.7483   -1.1343 C   0  0  0  0  0  0  0  0  0  0  0  0
    7.2819   -6.0019   -1.2969 C   0  0  0  0  0  0  0  0  0  0  0  0
    7.9681   -6.5131   -0.0691 C   0  0  0  0  0  0  0  0  0  0  0  0
    7.4854   -7.4094    0.8665 C   0  0  0  0  0  0  0  0  0  0  0  0
    8.5361   -7.8038    1.6620 N   0  0  0  0  0  0  0  0  0  0  0  0
    9.6970   -7.1922    1.2423 C   0  0  0  0  0  0  0  0  0  0  0  0
    9.3431   -6.2894    0.2418 C   0  0  0  0  0  0  0  0  0  0  0  0
   10.3374   -5.4716   -0.3284 C   0  0  0  0  0  0  0  0  0  0  0  0
   11.6648   -5.6458    0.0588 C   0  0  0  0  0  0  0  0  0  0  0  0
   12.0060   -6.6129    1.0028 C   0  0  0  0  0  0  0  0  0  0  0  0
   11.0264   -7.3881    1.6348 C   0  0  0  0  0  0  0  0  0  0  0  0
    2.4369    2.3502   -3.5764 H   0  0  0  0  0  0  0  0  0  0  0  0
    4.0363    2.4169   -2.8358 H   0  0  0  0  0  0  0  0  0  0  0  0
    2.6991    3.3722   -2.1590 H   0  0  0  0  0  0  0  0  0  0  0  0
    1.4766    1.2487   -1.6331 H   0  0  0  0  0  0  0  0  0  0  0  0
    4.0183   -0.0746   -2.6901 H   0  0  0  0  0  0  0  0  0  0  0  0
    2.3672   -0.2313   -3.2888 H   0  0  0  0  0  0  0  0  0  0  0  0
    2.7940   -0.9260   -1.7221 H   0  0  0  0  0  0  0  0  0  0  0  0
    2.7135    0.5729    0.3547 H   0  0  0  0  0  0  0  0  0  0  0  0
    2.7169    2.3169    0.1680 H   0  0  0  0  0  0  0  0  0  0  0  0
    4.5657   -0.6562    0.0943 H   0  0  0  0  0  0  0  0  0  0  0  0
    9.3297    0.3286   -0.5714 H   0  0  0  0  0  0  0  0  0  0  0  0
   10.5629    2.4262   -0.8233 H   0  0  0  0  0  0  0  0  0  0  0  0
    9.3848    4.6056   -0.7694 H   0  0  0  0  0  0  0  0  0  0  0  0
    6.9282    4.6657   -0.4985 H   0  0  0  0  0  0  0  0  0  0  0  0
    8.1078   -1.3419   -0.3668 H   0  0  0  0  0  0  0  0  0  0  0  0
    7.8114   -3.6335    0.0220 H   0  0  0  0  0  0  0  0  0  0  0  0
    5.9760   -4.5422   -2.1095 H   0  0  0  0  0  0  0  0  0  0  0  0
    5.6249   -4.9132   -0.4196 H   0  0  0  0  0  0  0  0  0  0  0  0
    8.0363   -5.8277   -2.0745 H   0  0  0  0  0  0  0  0  0  0  0  0
    6.6406   -6.8047   -1.6850 H   0  0  0  0  0  0  0  0  0  0  0  0
    6.5094   -7.8610    0.9915 H   0  0  0  0  0  0  0  0  0  0  0  0
    8.4848   -8.4953    2.3931 H   0  0  0  0  0  0  0  0  0  0  0  0
   10.0821   -4.7436   -1.0898 H   0  0  0  0  0  0  0  0  0  0  0  0
   12.4421   -5.0467   -0.4094 H   0  0  0  0  0  0  0  0  0  0  0  0
   13.0551   -6.7761    1.2440 H   0  0  0  0  0  0  0  0  0  0  0  0
   11.2998   -8.1417    2.3658 H   0  0  0  0  0  0  0  0  0  0  0  0
  1  2  1  0  0  0  0
  1 31  1  0  0  0  0
  1 32  1  0  0  0  0
  1 33  1  0  0  0  0
  2  3  1  0  0  0  0
  2  4  1  0  0  0  0
  2 34  1  0  0  0  0
  3 35  1  0  0  0  0
  3 36  1  0  0  0  0
  3 37  1  0  0  0  0
  4  5  1  0  0  0  0
  4 38  1  0  0  0  0
  4 39  1  0  0  0  0
  5  6  1  0  0  0  0
  5 14  1  0  0  0  0
  6  7  2  0  0  0  0
  6 40  1  0  0  0  0
  7  8  1  0  0  0  0
  7 16  1  0  0  0  0
  8  9  1  0  0  0  0
  8 13  2  0  0  0  0
  9 10  2  0  0  0  0
  9 41  1  0  0  0  0
 10 11  1  0  0  0  0
 10 42  1  0  0  0  0
 11 12  2  0  0  0  0
 11 43  1  0  0  0  0
 12 13  1  0  0  0  0
 12 44  1  0  0  0  0
 13 14  1  0  0  0  0
 14 15  2  0  0  0  0
 16 17  1  0  0  0  0
 16 45  1  0  0  0  0
 17 18  2  0  0  0  0
 17 19  1  0  0  0  0
 19 20  1  0  0  0  0
 19 46  1  0  0  0  0
 20 21  1  0  0  0  0
 20 47  1  0  0  0  0
 20 48  1  0  0  0  0
 21 22  1  0  0  0  0
 21 49  1  0  0  0  0
 21 50  1  0  0  0  0
 22 23  2  0  0  0  0
 22 26  1  0  0  0  0
 23 24  1  0  0  0  0
 23 51  1  0  0  0  0
 24 25  1  0  0  0  0
 24 52  1  0  0  0  0
 25 26  1  0  0  0  0
 25 30  2  0  0  0  0
 26 27  2  0  0  0  0
 27 28  1  0  0  0  0
 27 53  1  0  0  0  0
 28 29  2  0  0  0  0
 28 54  1  0  0  0  0
 29 30  1  0  0  0  0
 29 55  1  0  0  0  0
 30 56  1  0  0  0  0
M  END
$$$$
