
 OpenBabel07202414133D

 50 53  0  0  0  0  0  0  0  0999 V2000
    2.0795    0.3325    0.8799 C   0  0  0  0  0  0  0  0  0  0  0  0
    2.7142   -0.0422   -0.4570 C   0  0  0  0  0  0  0  0  0  0  0  0
    3.1956   -1.4924   -0.4821 C   0  0  0  0  0  0  0  0  0  0  0  0
    2.8763   -2.2801    0.4056 O   0  0  0  0  0  0  0  0  0  0  0  0
    3.9941   -1.7928   -1.5815 N   0  0  0  0  0  0  0  0  0  0  0  0
    4.5601   -3.0582   -1.8975 C   0  0  0  0  0  0  0  0  0  0  0  0
    4.1847   -4.2575   -1.2841 C   0  0  0  0  0  0  0  0  0  0  0  0
    4.7826   -5.4832   -1.6376 C   0  0  0  0  0  0  0  0  0  0  0  0
    5.7923   -5.5416   -2.5975 C   0  0  0  0  0  0  0  0  0  0  0  0
    6.1711   -4.3504   -3.2281 C   0  0  0  0  0  0  0  0  0  0  0  0
    5.5486   -3.1263   -2.8921 C   0  0  0  0  0  0  0  0  0  0  0  0
    6.3584   -6.8042   -2.9690 N   0  0  0  0  0  0  0  0  0  0  0  0
    7.6580   -7.2225   -2.4304 C   0  0  0  0  0  0  0  0  0  0  0  0
    8.2787   -6.4508   -1.3097 C   0  0  0  0  0  0  0  0  0  0  0  0
    9.5405   -5.8748   -1.3437 C   0  0  0  0  0  0  0  0  0  0  0  0
    9.9723   -5.2848    0.2050 S   0  0  0  0  0  0  0  0  0  0  0  0
    8.4670   -5.8380    0.8085 C   0  0  0  0  0  0  0  0  0  0  0  0
    7.6801   -6.4393   -0.0570 N   0  0  0  0  0  0  0  0  0  0  0  0
    5.6676   -7.6079   -3.9003 C   0  0  0  0  0  0  0  0  0  0  0  0
    4.5704   -7.2869   -4.3692 O   0  0  0  0  0  0  0  0  0  0  0  0
    6.3502   -8.8586   -4.4381 C   0  0  0  0  0  0  0  0  0  0  0  0
    5.9574  -10.1617   -3.9217 N   0  0  0  0  0  0  0  0  0  0  0  0
    4.9740  -10.5927   -3.0675 C   0  0  0  0  0  0  0  0  0  0  0  0
    3.8895   -9.9982   -2.4128 C   0  0  0  0  0  0  0  0  0  0  0  0
    3.1318  -10.8151   -1.5552 C   0  0  0  0  0  0  0  0  0  0  0  0
    3.4339  -12.1658   -1.3694 C   0  0  0  0  0  0  0  0  0  0  0  0
    4.4959  -12.7564   -2.0567 C   0  0  0  0  0  0  0  0  0  0  0  0
    5.2622  -11.9531   -2.9154 C   0  0  0  0  0  0  0  0  0  0  0  0
    6.3307  -12.2894   -3.6934 N   0  0  0  0  0  0  0  0  0  0  0  0
    6.7432  -11.1966   -4.3137 N   0  0  0  0  0  0  0  0  0  0  0  0
    1.6638    1.3455    0.8474 H   0  0  0  0  0  0  0  0  0  0  0  0
    2.8207    0.2985    1.6860 H   0  0  0  0  0  0  0  0  0  0  0  0
    1.2683   -0.3536    1.1476 H   0  0  0  0  0  0  0  0  0  0  0  0
    3.5550    0.6317   -0.6556 H   0  0  0  0  0  0  0  0  0  0  0  0
    1.9722    0.0885   -1.2525 H   0  0  0  0  0  0  0  0  0  0  0  0
    4.2676   -1.0185   -2.1724 H   0  0  0  0  0  0  0  0  0  0  0  0
    3.4019   -4.2827   -0.5327 H   0  0  0  0  0  0  0  0  0  0  0  0
    4.4474   -6.3908   -1.1398 H   0  0  0  0  0  0  0  0  0  0  0  0
    6.9300   -4.3563   -4.0057 H   0  0  0  0  0  0  0  0  0  0  0  0
    5.8583   -2.2259   -3.4184 H   0  0  0  0  0  0  0  0  0  0  0  0
    8.3611   -7.2452   -3.2715 H   0  0  0  0  0  0  0  0  0  0  0  0
    7.5397   -8.2563   -2.0805 H   0  0  0  0  0  0  0  0  0  0  0  0
   10.2333   -5.8191   -2.1713 H   0  0  0  0  0  0  0  0  0  0  0  0
    8.1993   -5.7140    1.8497 H   0  0  0  0  0  0  0  0  0  0  0  0
    7.4364   -8.8060   -4.3293 H   0  0  0  0  0  0  0  0  0  0  0  0
    6.1706   -8.8963   -5.5201 H   0  0  0  0  0  0  0  0  0  0  0  0
    3.6183   -8.9584   -2.5551 H   0  0  0  0  0  0  0  0  0  0  0  0
    2.2835  -10.3836   -1.0247 H   0  0  0  0  0  0  0  0  0  0  0  0
    2.8338  -12.7693   -0.6886 H   0  0  0  0  0  0  0  0  0  0  0  0
    4.7350  -13.8112   -1.9344 H   0  0  0  0  0  0  0  0  0  0  0  0
  1  2  1  0  0  0  0
  1 31  1  0  0  0  0
  1 32  1  0  0  0  0
  1 33  1  0  0  0  0
  2  3  1  0  0  0  0
  2 34  1  0  0  0  0
  2 35  1  0  0  0  0
  3  4  2  0  0  0  0
  3  5  1  0  0  0  0
  5  6  1  0  0  0  0
  5 36  1  0  0  0  0
  6  7  1  0  0  0  0
  6 11  2  0  0  0  0
  7  8  2  0  0  0  0
  7 37  1  0  0  0  0
  8  9  1  0  0  0  0
  8 38  1  0  0  0  0
  9 10  2  0  0  0  0
  9 12  1  0  0  0  0
 10 11  1  0  0  0  0
 10 39  1  0  0  0  0
 11 40  1  0  0  0  0
 12 13  1  0  0  0  0
 12 19  1  0  0  0  0
 13 14  1  0  0  0  0
 13 41  1  0  0  0  0
 13 42  1  0  0  0  0
 14 15  2  0  0  0  0
 14 18  1  0  0  0  0
 15 16  1  0  0  0  0
 15 43  1  0  0  0  0
 16 17  1  0  0  0  0
 17 18  2  0  0  0  0
 17 44  1  0  0  0  0
 19 20  2  0  0  0  0
 19 21  1  0  0  0  0
 21 22  1  0  0  0  0
 21 45  1  0  0  0  0
 21 46  1  0  0  0  0
 22 23  1  0  0  0  0
 22 30  1  0  0  0  0
 23 24  1  0  0  0  0
 23 28  2  0  0  0  0
 24 25  2  0  0  0  0
 24 47  1  0  0  0  0
 25 26  1  0  0  0  0
 25 48  1  0  0  0  0
 26 27  2  0  0  0  0
 26 49  1  0  0  0  0
 27 28  1  0  0  0  0
 27 50  1  0  0  0  0
 28 29  1  0  0  0  0
 29 30  2  0  0  0  0
M  END
$$$$
