
 OpenBabel07202414193D

 48 51  0  0  0  0  0  0  0  0999 V2000
    1.2673   -0.4928   -0.3746 O   0  0  0  0  0  0  0  0  0  0  0  0
    2.4702   -0.2689   -0.2029 C   0  0  0  0  0  0  0  0  0  0  0  0
    3.2282    0.5613   -1.2421 C   0  0  0  0  0  0  0  0  0  0  0  0
    3.6344    1.9620   -0.8217 C   0  0  0  0  0  0  0  0  0  0  0  0
    3.2929    2.4677    0.4345 C   0  0  0  0  0  0  0  0  0  0  0  0
    3.6665    3.6712    0.9154 N   0  0  0  0  0  0  0  0  0  0  0  0
    4.3839    4.4468    0.0864 C   0  0  0  0  0  0  0  0  0  0  0  0
    4.7429    4.0986   -1.2134 C   0  0  0  0  0  0  0  0  0  0  0  0
    5.4460    4.9976   -2.0320 C   0  0  0  0  0  0  0  0  0  0  0  0
    5.7821    4.6547   -3.3349 C   0  0  0  0  0  0  0  0  0  0  0  0
    5.4275    3.4033   -3.8301 C   0  0  0  0  0  0  0  0  0  0  0  0
    4.7372    2.4955   -3.0178 C   0  0  0  0  0  0  0  0  0  0  0  0
    4.3662    2.8196   -1.6905 C   0  0  0  0  0  0  0  0  0  0  0  0
    3.1455   -0.6855    0.9452 N   0  0  0  0  0  0  0  0  0  0  0  0
    2.3979   -1.3722    2.0143 C   0  0  0  0  0  0  0  0  0  0  0  0
    2.5655   -2.8748    1.9458 C   0  0  0  0  0  0  0  0  0  0  0  0
    2.1082   -3.5763    0.8166 C   0  0  0  0  0  0  0  0  0  0  0  0
    2.3631   -4.9390    0.6706 C   0  0  0  0  0  0  0  0  0  0  0  0
    3.0549   -5.6260    1.6643 C   0  0  0  0  0  0  0  0  0  0  0  0
    3.4698   -4.9570    2.8153 C   0  0  0  0  0  0  0  0  0  0  0  0
    3.2219   -3.5897    2.9518 C   0  0  0  0  0  0  0  0  0  0  0  0
    3.6277   -2.9335    4.0787 O   0  0  0  0  0  0  0  0  0  0  0  0
    4.5603   -0.6936    1.0541 C   0  0  0  0  0  0  0  0  0  0  0  0
    5.1950    0.1138    2.0054 C   0  0  0  0  0  0  0  0  0  0  0  0
    6.5895    0.1605    2.0552 C   0  0  0  0  0  0  0  0  0  0  0  0
    7.3337   -0.6365    1.1928 C   0  0  0  0  0  0  0  0  0  0  0  0
    8.6712   -0.5894    1.2392 F   0  0  0  0  0  0  0  0  0  0  0  0
    6.7119   -1.4841    0.2831 C   0  0  0  0  0  0  0  0  0  0  0  0
    5.3201   -1.5093    0.2094 C   0  0  0  0  0  0  0  0  0  0  0  0
    2.5590    0.6540   -2.1086 H   0  0  0  0  0  0  0  0  0  0  0  0
    4.0998   -0.0022   -1.5877 H   0  0  0  0  0  0  0  0  0  0  0  0
    2.6939    1.9025    1.1430 H   0  0  0  0  0  0  0  0  0  0  0  0
    4.6648    5.4082    0.5077 H   0  0  0  0  0  0  0  0  0  0  0  0
    5.7244    5.9800   -1.6561 H   0  0  0  0  0  0  0  0  0  0  0  0
    6.3104    5.3642   -3.9674 H   0  0  0  0  0  0  0  0  0  0  0  0
    5.6837    3.1348   -4.8519 H   0  0  0  0  0  0  0  0  0  0  0  0
    4.4753    1.5323   -3.4497 H   0  0  0  0  0  0  0  0  0  0  0  0
    1.3293   -1.1348    1.9384 H   0  0  0  0  0  0  0  0  0  0  0  0
    2.7210   -0.9624    2.9784 H   0  0  0  0  0  0  0  0  0  0  0  0
    1.5665   -3.0530    0.0305 H   0  0  0  0  0  0  0  0  0  0  0  0
    2.0289   -5.4584   -0.2242 H   0  0  0  0  0  0  0  0  0  0  0  0
    3.2689   -6.6844    1.5418 H   0  0  0  0  0  0  0  0  0  0  0  0
    3.9949   -5.5124    3.5870 H   0  0  0  0  0  0  0  0  0  0  0  0
    4.0497   -3.5717    4.6773 H   0  0  0  0  0  0  0  0  0  0  0  0
    4.6188    0.7502    2.6727 H   0  0  0  0  0  0  0  0  0  0  0  0
    7.0969    0.8216    2.7506 H   0  0  0  0  0  0  0  0  0  0  0  0
    7.3124   -2.1162   -0.3623 H   0  0  0  0  0  0  0  0  0  0  0  0
    4.8322   -2.1844   -0.4891 H   0  0  0  0  0  0  0  0  0  0  0  0
  1  2  2  0  0  0  0
  2  3  1  0  0  0  0
  2 14  1  0  0  0  0
  3  4  1  0  0  0  0
  3 30  1  0  0  0  0
  3 31  1  0  0  0  0
  4  5  1  0  0  0  0
  4 13  2  0  0  0  0
  5  6  2  0  0  0  0
  5 32  1  0  0  0  0
  6  7  1  0  0  0  0
  7  8  2  0  0  0  0
  7 33  1  0  0  0  0
  8  9  1  0  0  0  0
  8 13  1  0  0  0  0
  9 10  2  0  0  0  0
  9 34  1  0  0  0  0
 10 11  1  0  0  0  0
 10 35  1  0  0  0  0
 11 12  2  0  0  0  0
 11 36  1  0  0  0  0
 12 13  1  0  0  0  0
 12 37  1  0  0  0  0
 14 15  1  0  0  0  0
 14 23  1  0  0  0  0
 15 16  1  0  0  0  0
 15 38  1  0  0  0  0
 15 39  1  0  0  0  0
 16 17  1  0  0  0  0
 16 21  2  0  0  0  0
 17 18  2  0  0  0  0
 17 40  1  0  0  0  0
 18 19  1  0  0  0  0
 18 41  1  0  0  0  0
 19 20  2  0  0  0  0
 19 42  1  0  0  0  0
 20 21  1  0  0  0  0
 20 43  1  0  0  0  0
 21 22  1  0  0  0  0
 22 44  1  0  0  0  0
 23 24  1  0  0  0  0
 23 29  2  0  0  0  0
 24 25  2  0  0  0  0
 24 45  1  0  0  0  0
 25 26  1  0  0  0  0
 25 46  1  0  0  0  0
 26 27  1  0  0  0  0
 26 28  2  0  0  0  0
 28 29  1  0  0  0  0
 28 47  1  0  0  0  0
 29 48  1  0  0  0  0
M  END
$$$$
