
 OpenBabel07202414163D

 33 34  0  0  0  0  0  0  0  0999 V2000
    5.0854    2.1591   -0.6889 C   0  0  0  0  0  0  0  0  0  0  0  0
    4.2976    0.9515   -0.2441 C   0  0  0  0  0  0  0  0  0  0  0  0
    4.9205   -0.3190   -0.1722 C   0  0  0  0  0  0  0  0  0  0  0  0
    4.1084   -1.4183    0.1278 C   0  0  0  0  0  0  0  0  0  0  0  0
    2.7987   -1.3579    0.4254 N   0  0  0  0  0  0  0  0  0  0  0  0
    2.2394   -0.1285    0.3920 C   0  0  0  0  0  0  0  0  0  0  0  0
    2.9168    1.0530    0.0716 C   0  0  0  0  0  0  0  0  0  0  0  0
    2.2505    2.3091    0.0332 N   0  0  0  0  0  0  0  0  0  0  0  0
    0.9998    2.5839    0.5652 C   0  0  0  0  0  0  0  0  0  0  0  0
    0.3094    1.8012    1.2151 O   0  0  0  0  0  0  0  0  0  0  0  0
    0.5129    4.0015    0.3164 C   0  0  0  0  0  0  0  0  0  0  0  0
    0.9519    4.9876    1.3719 C   0  0  0  0  0  0  0  0  0  0  0  0
    0.6819    4.7587    2.7307 C   0  0  0  0  0  0  0  0  0  0  0  0
    1.0658    5.6904    3.7001 C   0  0  0  0  0  0  0  0  0  0  0  0
    1.7116    6.8654    3.3236 C   0  0  0  0  0  0  0  0  0  0  0  0
    1.9673    7.1071    1.9766 C   0  0  0  0  0  0  0  0  0  0  0  0
    1.5893    6.1799    1.0025 C   0  0  0  0  0  0  0  0  0  0  0  0
    2.7519    8.5638    1.5029 Cl  0  0  0  0  0  0  0  0  0  0  0  0
    6.2398   -0.5485   -0.6074 N   0  0  0  0  0  0  0  0  0  0  0  0
    6.1578    2.0519   -0.5105 H   0  0  0  0  0  0  0  0  0  0  0  0
    4.7993    3.0538   -0.1284 H   0  0  0  0  0  0  0  0  0  0  0  0
    4.9287    2.3325   -1.7571 H   0  0  0  0  0  0  0  0  0  0  0  0
    4.5172   -2.4243    0.1327 H   0  0  0  0  0  0  0  0  0  0  0  0
    1.1761   -0.1505    0.6027 H   0  0  0  0  0  0  0  0  0  0  0  0
    2.7726    3.1010   -0.3214 H   0  0  0  0  0  0  0  0  0  0  0  0
   -0.5856    3.9840    0.2801 H   0  0  0  0  0  0  0  0  0  0  0  0
    0.8427    4.3187   -0.6808 H   0  0  0  0  0  0  0  0  0  0  0  0
    0.1647    3.8531    3.0474 H   0  0  0  0  0  0  0  0  0  0  0  0
    0.8526    5.4971    4.7503 H   0  0  0  0  0  0  0  0  0  0  0  0
    2.0045    7.5877    4.0793 H   0  0  0  0  0  0  0  0  0  0  0  0
    1.7840    6.3986   -0.0447 H   0  0  0  0  0  0  0  0  0  0  0  0
    6.8808    0.2235   -0.4713 H   0  0  0  0  0  0  0  0  0  0  0  0
    6.6346   -1.4163   -0.2531 H   0  0  0  0  0  0  0  0  0  0  0  0
  1  2  1  0  0  0  0
  1 20  1  0  0  0  0
  1 21  1  0  0  0  0
  1 22  1  0  0  0  0
  2  3  1  0  0  0  0
  2  7  2  0  0  0  0
  3  4  2  0  0  0  0
  3 19  1  0  0  0  0
  4  5  1  0  0  0  0
  4 23  1  0  0  0  0
  5  6  2  0  0  0  0
  6  7  1  0  0  0  0
  6 24  1  0  0  0  0
  7  8  1  0  0  0  0
  8  9  1  0  0  0  0
  8 25  1  0  0  0  0
  9 10  2  0  0  0  0
  9 11  1  0  0  0  0
 11 12  1  0  0  0  0
 11 26  1  0  0  0  0
 11 27  1  0  0  0  0
 12 13  1  0  0  0  0
 12 17  2  0  0  0  0
 13 14  2  0  0  0  0
 13 28  1  0  0  0  0
 14 15  1  0  0  0  0
 14 29  1  0  0  0  0
 15 16  2  0  0  0  0
 15 30  1  0  0  0  0
 16 17  1  0  0  0  0
 16 18  1  0  0  0  0
 17 31  1  0  0  0  0
 19 32  1  0  0  0  0
 19 33  1  0  0  0  0
M  END
$$$$
