
 OpenBabel07202414133D

101103  0  0  1  0  0  0  0  0999 V2000
   27.9951    9.1726   -8.0669 C   0  0  0  0  0  0  0  0  0  0  0  0
   28.2595    8.3286   -9.3051 C   0  0  0  0  0  0  0  0  0  0  0  0
   28.2519    6.8346   -8.9799 C   0  0  0  0  0  0  0  0  0  0  0  0
   28.5039    5.9830  -10.2287 C   0  0  0  0  0  0  0  0  0  0  0  0
   28.5035    4.4796   -9.9134 C   0  0  0  0  0  0  0  0  0  0  0  0
   27.1828    4.0005   -9.3693 C   0  0  0  0  0  0  0  0  0  0  0  0
   26.0932    4.4896   -9.6595 O   0  0  0  0  0  0  0  0  0  0  0  0
   27.2990    2.6140   -8.2852 S   0  0  0  0  0  0  0  0  0  0  0  0
   25.5381    2.3946   -7.8457 C   0  0  0  0  0  0  0  0  0  0  0  0
   25.3826    1.2049   -6.8953 C   0  0  0  0  0  0  0  0  0  0  0  0
   26.0751    1.3850   -5.6186 N   0  0  0  0  0  0  0  0  0  0  0  0
   25.4190    1.9858   -4.5654 C   0  0  0  0  0  0  0  0  0  0  0  0
   24.2764    2.3730   -4.6384 O   0  0  0  0  0  0  0  0  0  0  0  0
   26.2430    2.1039   -3.2924 C   0  0  0  0  0  0  0  0  0  0  0  0
   25.4178    2.7263   -2.1774 C   0  0  0  0  0  0  0  0  0  0  0  0
   26.1410    2.8382   -0.9097 N   0  0  0  0  0  0  0  0  0  0  0  0
   25.4829    2.8934    0.3135 C   0  0  0  0  0  0  0  0  0  0  0  0
   24.2601    2.7041    0.3647 O   0  0  0  0  0  0  0  0  0  0  0  0
   26.3606    3.1736    1.5657 C   0  0  2  0  0  0  0  0  0  0  0  0
   27.4936    2.3009    1.5295 O   0  0  0  0  0  0  0  0  0  0  0  0
   25.6081    3.1089    2.9600 C   0  0  0  0  0  0  0  0  0  0  0  0
   26.5549    3.5711    4.1058 C   0  0  0  0  0  0  0  0  0  0  0  0
   24.3981    4.0712    3.0208 C   0  0  0  0  0  0  0  0  0  0  0  0
   25.0589    1.6864    3.2208 C   0  0  0  0  0  0  0  0  0  0  0  0
   26.0730    0.6918    3.1743 O   0  0  0  0  0  0  0  0  0  0  0  0
   25.4939   -0.9239    3.3913 P   0  0  3  0  0  0  0  0  0  0  0  0
   25.3508   -1.0087    1.7629 O   0  0  0  0  0  0  0  0  0  0  0  0
   26.9074   -1.3408    3.7697 O   0  0  0  0  0  0  0  0  0  0  0  0
   24.9148   -2.5395    3.6083 O   0  0  0  0  0  0  0  0  0  0  0  0
   25.8578   -3.6244    2.6457 P   0  0  3  0  0  0  0  0  0  0  0  0
   26.2994   -4.4236    4.0021 O   0  0  0  0  0  0  0  0  0  0  0  0
   24.5565   -4.3508    2.2641 O   0  0  0  0  0  0  0  0  0  0  0  0
   26.8009   -4.7092    1.6831 O   0  0  0  0  0  0  0  0  0  0  0  0
   26.3281   -4.7751    0.2819 C   0  0  0  0  0  0  0  0  0  0  0  0
   26.3499   -3.4218   -0.4817 C   0  0  1  0  0  0  0  0  0  0  0  0
   27.7434   -3.0214   -0.5228 O   0  0  0  0  0  0  0  0  0  0  0  0
   28.0882   -2.5754   -1.8586 C   0  0  1  0  0  0  0  0  0  0  0  0
   28.9040   -3.5699   -2.5405 N   0  0  0  0  0  0  0  0  0  0  0  0
   29.3544   -4.7773   -2.0623 C   0  0  0  0  0  0  0  0  0  0  0  0
   29.9278   -5.4973   -2.9927 N   0  0  0  0  0  0  0  0  0  0  0  0
   29.9390   -4.6909   -4.1086 C   0  0  0  0  0  0  0  0  0  0  0  0
   30.4198   -4.8942   -5.4085 C   0  0  0  0  0  0  0  0  0  0  0  0
   30.9634   -6.1069   -5.8183 N   0  0  0  0  0  0  0  0  0  0  0  0
   30.3710   -3.8622   -6.2802 N   0  0  0  0  0  0  0  0  0  0  0  0
   29.8215   -2.7036   -5.8658 C   0  0  0  0  0  0  0  0  0  0  0  0
   29.2699   -2.4088   -4.6581 N   0  0  0  0  0  0  0  0  0  0  0  0
   29.3716   -3.4598   -3.8291 C   0  0  0  0  0  0  0  0  0  0  0  0
   26.7399   -2.2830   -2.5261 C   0  0  2  0  0  0  0  0  0  0  0  0
   26.2403   -0.9913   -2.1018 O   0  0  0  0  0  0  0  0  0  0  0  0
   25.8478   -3.3966   -1.9570 C   0  0  2  0  0  0  0  0  0  0  0  0
   24.4575   -3.1080   -2.0704 O   0  0  0  0  0  0  0  0  0  0  0  0
   23.7817   -2.9757   -3.5356 P   0  0  0  0  0  0  0  0  0  0  0  0
   22.2376   -2.7687   -3.2174 O   0  0  0  0  0  0  0  0  0  0  0  0
   24.2521   -1.5409   -4.0214 O   0  0  0  0  0  0  0  0  0  0  0  0
   24.0717   -4.1005   -4.4832 O   0  0  0  0  0  0  0  0  0  0  0  0
   28.0056   10.2361   -8.3250 H   0  0  0  0  0  0  0  0  0  0  0  0
   28.7608    9.0013   -7.3034 H   0  0  0  0  0  0  0  0  0  0  0  0
   27.0179    8.9392   -7.6322 H   0  0  0  0  0  0  0  0  0  0  0  0
   29.2283    8.6114   -9.7326 H   0  0  0  0  0  0  0  0  0  0  0  0
   27.4939    8.5493  -10.0578 H   0  0  0  0  0  0  0  0  0  0  0  0
   27.2833    6.5748   -8.5397 H   0  0  0  0  0  0  0  0  0  0  0  0
   29.0168    6.6157   -8.2260 H   0  0  0  0  0  0  0  0  0  0  0  0
   29.4732    6.2521  -10.6636 H   0  0  0  0  0  0  0  0  0  0  0  0
   27.7423    6.2045  -10.9863 H   0  0  0  0  0  0  0  0  0  0  0  0
   29.3094    4.2624   -9.2101 H   0  0  0  0  0  0  0  0  0  0  0  0
   28.7026    3.9194  -10.8374 H   0  0  0  0  0  0  0  0  0  0  0  0
   24.9599    2.2049   -8.7619 H   0  0  0  0  0  0  0  0  0  0  0  0
   25.1511    3.3124   -7.3850 H   0  0  0  0  0  0  0  0  0  0  0  0
   25.7552    0.2850   -7.3546 H   0  0  0  0  0  0  0  0  0  0  0  0
   24.3163    1.0505   -6.6874 H   0  0  0  0  0  0  0  0  0  0  0  0
   27.0559    1.1379   -5.5582 H   0  0  0  0  0  0  0  0  0  0  0  0
   27.1415    2.6851   -3.4879 H   0  0  0  0  0  0  0  0  0  0  0  0
   26.5653    1.1017   -2.9895 H   0  0  0  0  0  0  0  0  0  0  0  0
   24.4941    2.1573   -2.0039 H   0  0  0  0  0  0  0  0  0  0  0  0
   25.1047    3.7441   -2.4605 H   0  0  0  0  0  0  0  0  0  0  0  0
   27.1527    2.6765   -0.8914 H   0  0  0  0  0  0  0  0  0  0  0  0
   26.7552    4.1923    1.4571 H   0  0  0  0  0  0  0  0  0  0  0  0
   27.1642    1.3779    1.5804 H   0  0  0  0  0  0  0  0  0  0  0  0
   26.8321    4.6295    3.9698 H   0  0  0  0  0  0  0  0  0  0  0  0
   27.4846    2.9993    4.1671 H   0  0  0  0  0  0  0  0  0  0  0  0
   26.0630    3.5099    5.0886 H   0  0  0  0  0  0  0  0  0  0  0  0
   24.6937    5.1056    2.8309 H   0  0  0  0  0  0  0  0  0  0  0  0
   23.9200    4.0377    4.0099 H   0  0  0  0  0  0  0  0  0  0  0  0
   23.6216    3.8005    2.3037 H   0  0  0  0  0  0  0  0  0  0  0  0
   24.3251    1.4479    2.4429 H   0  0  0  0  0  0  0  0  0  0  0  0
   24.5349    1.6224    4.1755 H   0  0  0  0  0  0  0  0  0  0  0  0
   24.5818   -0.4792    1.4530 H   0  0  0  0  0  0  0  0  0  0  0  0
   25.5818   -5.0597    4.1763 H   0  0  0  0  0  0  0  0  0  0  0  0
   25.3316   -5.2236    0.2664 H   0  0  0  0  0  0  0  0  0  0  0  0
   27.0045   -5.4519   -0.2211 H   0  0  0  0  0  0  0  0  0  0  0  0
   25.8021   -2.6695    0.0872 H   0  0  0  0  0  0  0  0  0  0  0  0
   28.7059   -1.6834   -1.7349 H   0  0  0  0  0  0  0  0  0  0  0  0
   29.2246   -5.0884   -1.0306 H   0  0  0  0  0  0  0  0  0  0  0  0
   31.2597   -6.6862   -5.0422 H   0  0  0  0  0  0  0  0  0  0  0  0
   31.6037   -6.0014   -6.5944 H   0  0  0  0  0  0  0  0  0  0  0  0
   29.8216   -1.8980   -6.5985 H   0  0  0  0  0  0  0  0  0  0  0  0
   26.7752   -2.2614   -3.6180 H   0  0  0  0  0  0  0  0  0  0  0  0
   26.3605   -0.9083   -1.1369 H   0  0  0  0  0  0  0  0  0  0  0  0
   26.0491   -4.3364   -2.4644 H   0  0  0  0  0  0  0  0  0  0  0  0
   21.7640   -3.6236   -3.1423 H   0  0  0  0  0  0  0  0  0  0  0  0
   24.3301   -0.9201   -3.2696 H   0  0  0  0  0  0  0  0  0  0  0  0
  1  2  1  0  0  0  0
  1 56  1  0  0  0  0
  1 57  1  0  0  0  0
  1 58  1  0  0  0  0
  2  3  1  0  0  0  0
  2 59  1  0  0  0  0
  2 60  1  0  0  0  0
  3  4  1  0  0  0  0
  3 61  1  0  0  0  0
  3 62  1  0  0  0  0
  4  5  1  0  0  0  0
  4 63  1  0  0  0  0
  4 64  1  0  0  0  0
  5  6  1  0  0  0  0
  5 65  1  0  0  0  0
  5 66  1  0  0  0  0
  6  7  2  0  0  0  0
  6  8  1  0  0  0  0
  8  9  1  0  0  0  0
  9 10  1  0  0  0  0
  9 67  1  0  0  0  0
  9 68  1  0  0  0  0
 10 11  1  0  0  0  0
 10 69  1  0  0  0  0
 10 70  1  0  0  0  0
 11 12  1  0  0  0  0
 11 71  1  0  0  0  0
 12 13  2  0  0  0  0
 12 14  1  0  0  0  0
 14 15  1  0  0  0  0
 14 72  1  0  0  0  0
 14 73  1  0  0  0  0
 15 16  1  0  0  0  0
 15 74  1  0  0  0  0
 15 75  1  0  0  0  0
 16 17  1  0  0  0  0
 16 76  1  0  0  0  0
 17 18  2  0  0  0  0
 19 21  1  0  0  0  0
 19 20  1  0  0  0  0
 19 17  1  0  0  0  0
 19 77  1  6  0  0  0
 20 78  1  0  0  0  0
 21 22  1  0  0  0  0
 21 23  1  0  0  0  0
 21 24  1  0  0  0  0
 22 79  1  0  0  0  0
 22 80  1  0  0  0  0
 22 81  1  0  0  0  0
 23 82  1  0  0  0  0
 23 83  1  0  0  0  0
 23 84  1  0  0  0  0
 24 25  1  0  0  0  0
 24 85  1  0  0  0  0
 24 86  1  0  0  0  0
 25 26  1  0  0  0  0
 26 27  1  0  0  0  0
 26 28  2  0  0  0  0
 26 29  1  0  0  0  0
 27 87  1  0  0  0  0
 29 30  1  0  0  0  0
 30 31  1  0  0  0  0
 30 32  2  0  0  0  0
 30 33  1  0  0  0  0
 31 88  1  0  0  0  0
 33 34  1  0  0  0  0
 34 89  1  0  0  0  0
 34 90  1  0  0  0  0
 35 36  1  0  0  0  0
 35 50  1  0  0  0  0
 35 34  1  0  0  0  0
 35 91  1  1  0  0  0
 36 37  1  0  0  0  0
 37 48  1  0  0  0  0
 37 38  1  0  0  0  0
 37 92  1  1  0  0  0
 38 39  1  0  0  0  0
 38 47  1  0  0  0  0
 39 40  2  0  0  0  0
 39 93  1  0  0  0  0
 40 41  1  0  0  0  0
 41 42  1  0  0  0  0
 41 47  2  0  0  0  0
 42 43  1  0  0  0  0
 42 44  2  0  0  0  0
 43 94  1  0  0  0  0
 43 95  1  0  0  0  0
 44 45  1  0  0  0  0
 45 46  2  0  0  0  0
 45 96  1  0  0  0  0
 46 47  1  0  0  0  0
 48 49  1  0  0  0  0
 48 50  1  0  0  0  0
 48 97  1  6  0  0  0
 49 98  1  0  0  0  0
 50 51  1  0  0  0  0
 50 99  1  6  0  0  0
 51 52  1  0  0  0  0
 52 53  1  0  0  0  0
 52 54  1  0  0  0  0
 52 55  2  0  0  0  0
 53100  1  0  0  0  0
 54101  1  0  0  0  0
M  END
$$$$
