
 OpenBabel07202414143D

 57 61  0  0  1  0  0  0  0  0999 V2000
    0.7825    0.0236   -0.4113 C   0  0  0  0  0  0  0  0  0  0  0  0
    2.1896   -0.1140   -0.2343 O   0  0  0  0  0  0  0  0  0  0  0  0
    2.5915   -0.6536    1.0598 C   0  0  0  0  0  0  0  0  0  0  0  0
    2.2190    0.2716    2.1875 C   0  0  0  0  0  0  0  0  0  0  0  0
    2.7059   -0.2937    3.7978 S   0  0  0  0  0  0  0  0  0  0  0  0
    2.0514   -1.5483    4.1010 O   0  0  0  0  0  0  0  0  0  0  0  0
    4.1248   -0.1049    4.0020 O   0  0  0  0  0  0  0  0  0  0  0  0
    1.9066    0.8852    4.7995 N   0  0  0  0  0  0  0  0  0  0  0  0
    2.4730    2.2709    4.6774 C   0  0  0  0  0  0  0  0  0  0  0  0
    1.6650    3.2795    5.4971 C   0  0  1  0  0  0  0  0  0  0  0  0
    0.3527    3.6963    4.8223 C   0  0  0  0  0  0  0  0  0  0  0  0
   -0.0372    4.8615    4.8996 O   0  0  0  0  0  0  0  0  0  0  0  0
   -0.3625    2.6826    4.2041 N   0  0  0  0  0  0  0  0  0  0  0  0
   -1.6389    2.9027    3.6166 C   0  0  0  0  0  0  0  0  0  0  0  0
   -1.8920    4.0410    2.8426 C   0  0  0  0  0  0  0  0  0  0  0  0
   -3.0949    4.3608    2.3150 N   0  0  0  0  0  0  0  0  0  0  0  0
   -4.1063    3.5111    2.5872 C   0  0  0  0  0  0  0  0  0  0  0  0
   -3.9695    2.3128    3.2939 C   0  0  0  0  0  0  0  0  0  0  0  0
   -5.0698    1.4622    3.5022 C   0  0  0  0  0  0  0  0  0  0  0  0
   -4.9269    0.2785    4.2220 C   0  0  0  0  0  0  0  0  0  0  0  0
   -3.6877   -0.0622    4.7486 C   0  0  0  0  0  0  0  0  0  0  0  0
   -2.5886    0.7768    4.5521 C   0  0  0  0  0  0  0  0  0  0  0  0
   -2.6970    1.9803    3.8152 C   0  0  0  0  0  0  0  0  0  0  0  0
    1.4988    2.8193    6.9348 C   0  0  0  0  0  0  0  0  0  0  0  0
    1.3430    3.7606    7.9638 C   0  0  0  0  0  0  0  0  0  0  0  0
    1.2702    3.3433    9.2941 C   0  0  0  0  0  0  0  0  0  0  0  0
    1.1634    4.5077   10.5557 Cl  0  0  0  0  0  0  0  0  0  0  0  0
    1.3160    1.9904    9.6122 C   0  0  0  0  0  0  0  0  0  0  0  0
    1.4705    1.0514    8.5956 C   0  0  0  0  0  0  0  0  0  0  0  0
    1.5819    1.4514    7.2565 C   0  0  0  0  0  0  0  0  0  0  0  0
    1.8977    0.4024    6.2170 C   0  0  0  0  0  0  0  0  0  0  0  0
    3.9390   -1.3453    0.9920 C   0  0  0  0  0  0  0  0  0  0  0  0
    2.6833   -2.1637    1.1144 C   0  0  0  0  0  0  0  0  0  0  0  0
    0.5956    0.3517   -1.4363 H   0  0  0  0  0  0  0  0  0  0  0  0
    0.3835    0.7911    0.2590 H   0  0  0  0  0  0  0  0  0  0  0  0
    0.2748   -0.9292   -0.2386 H   0  0  0  0  0  0  0  0  0  0  0  0
    1.1339    0.3883    2.2413 H   0  0  0  0  0  0  0  0  0  0  0  0
    2.6906    1.2405    2.0107 H   0  0  0  0  0  0  0  0  0  0  0  0
    2.4584    2.5876    3.6309 H   0  0  0  0  0  0  0  0  0  0  0  0
    3.5147    2.2680    5.0202 H   0  0  0  0  0  0  0  0  0  0  0  0
    2.2739    4.1959    5.5089 H   0  0  0  0  0  0  0  0  0  0  0  0
   -0.1316    1.7428    4.5085 H   0  0  0  0  0  0  0  0  0  0  0  0
   -1.0992    4.7379    2.5861 H   0  0  0  0  0  0  0  0  0  0  0  0
   -5.0737    3.8355    2.2134 H   0  0  0  0  0  0  0  0  0  0  0  0
   -6.0502    1.7215    3.1066 H   0  0  0  0  0  0  0  0  0  0  0  0
   -5.7830   -0.3740    4.3735 H   0  0  0  0  0  0  0  0  0  0  0  0
   -3.5711   -0.9787    5.3210 H   0  0  0  0  0  0  0  0  0  0  0  0
   -1.6485    0.4745    5.0024 H   0  0  0  0  0  0  0  0  0  0  0  0
    1.3117    4.8247    7.7353 H   0  0  0  0  0  0  0  0  0  0  0  0
    1.2631    1.6629   10.6479 H   0  0  0  0  0  0  0  0  0  0  0  0
    1.5327   -0.0059    8.8597 H   0  0  0  0  0  0  0  0  0  0  0  0
    1.1388   -0.3859    6.2940 H   0  0  0  0  0  0  0  0  0  0  0  0
    2.8789   -0.0169    6.4712 H   0  0  0  0  0  0  0  0  0  0  0  0
    4.6176   -1.3375    1.8357 H   0  0  0  0  0  0  0  0  0  0  0  0
    4.4572   -1.3554    0.0378 H   0  0  0  0  0  0  0  0  0  0  0  0
    2.5328   -2.7093    2.0364 H   0  0  0  0  0  0  0  0  0  0  0  0
    2.3738   -2.7289    0.2408 H   0  0  0  0  0  0  0  0  0  0  0  0
  1  2  1  0  0  0  0
  1 34  1  0  0  0  0
  1 35  1  0  0  0  0
  1 36  1  0  0  0  0
  2  3  1  0  0  0  0
  3  4  1  0  0  0  0
  3 32  1  0  0  0  0
  3 33  1  0  0  0  0
  4  5  1  0  0  0  0
  4 37  1  0  0  0  0
  4 38  1  0  0  0  0
  5  6  2  0  0  0  0
  5  7  2  0  0  0  0
  5  8  1  0  0  0  0
  8  9  1  0  0  0  0
  8 31  1  0  0  0  0
  9 10  1  0  0  0  0
  9 39  1  0  0  0  0
  9 40  1  0  0  0  0
 10 11  1  0  0  0  0
 10 24  1  0  0  0  0
 10 41  1  1  0  0  0
 11 12  2  0  0  0  0
 11 13  1  0  0  0  0
 13 14  1  0  0  0  0
 13 42  1  0  0  0  0
 14 15  1  0  0  0  0
 14 23  2  0  0  0  0
 15 16  2  0  0  0  0
 15 43  1  0  0  0  0
 16 17  1  0  0  0  0
 17 18  2  0  0  0  0
 17 44  1  0  0  0  0
 18 19  1  0  0  0  0
 18 23  1  0  0  0  0
 19 20  2  0  0  0  0
 19 45  1  0  0  0  0
 20 21  1  0  0  0  0
 20 46  1  0  0  0  0
 21 22  2  0  0  0  0
 21 47  1  0  0  0  0
 22 23  1  0  0  0  0
 22 48  1  0  0  0  0
 24 25  1  0  0  0  0
 24 30  2  0  0  0  0
 25 26  2  0  0  0  0
 25 49  1  0  0  0  0
 26 27  1  0  0  0  0
 26 28  1  0  0  0  0
 28 29  2  0  0  0  0
 28 50  1  0  0  0  0
 29 30  1  0  0  0  0
 29 51  1  0  0  0  0
 30 31  1  0  0  0  0
 31 52  1  0  0  0  0
 31 53  1  0  0  0  0
 32 33  1  0  0  0  0
 32 54  1  0  0  0  0
 32 55  1  0  0  0  0
 33 56  1  0  0  0  0
 33 57  1  0  0  0  0
M  END
$$$$
