
 OpenBabel07202414163D

 64 68  0  0  0  0  0  0  0  0999 V2000
   -2.0247   -0.1963   -0.1241 Cl  0  0  0  0  0  0  0  0  0  0  0  0
   -0.3068   -0.0712   -0.0743 C   0  0  0  0  0  0  0  0  0  0  0  0
    0.3012    1.1864   -0.1565 C   0  0  0  0  0  0  0  0  0  0  0  0
    1.6940    1.3192   -0.1205 C   0  0  0  0  0  0  0  0  0  0  0  0
    2.3696    2.5455   -0.2487 N   0  0  0  0  0  0  0  0  0  0  0  0
    1.7279    3.8305    0.1006 C   0  0  0  0  0  0  0  0  0  0  0  0
    2.3151    4.9854   -0.7216 C   0  0  0  0  0  0  0  0  0  0  0  0
    3.4864    5.7291   -0.0806 C   0  0  0  0  0  0  0  0  0  0  0  0
    3.2023    6.1038    1.3127 N   0  0  0  0  0  0  0  0  0  0  0  0
    4.3245    6.8737    1.9074 C   0  0  0  0  0  0  0  0  0  0  0  0
    4.6159    8.2035    1.2343 C   0  0  0  0  0  0  0  0  0  0  0  0
    3.6399    9.2079    1.1600 C   0  0  0  0  0  0  0  0  0  0  0  0
    3.9106   10.4179    0.5136 C   0  0  0  0  0  0  0  0  0  0  0  0
    5.1630   10.6432   -0.0555 C   0  0  0  0  0  0  0  0  0  0  0  0
    6.1518    9.6671    0.0358 C   0  0  0  0  0  0  0  0  0  0  0  0
    5.8818    8.4564    0.6799 C   0  0  0  0  0  0  0  0  0  0  0  0
    2.9760    4.8801    2.0985 C   0  0  0  0  0  0  0  0  0  0  0  0
    1.7588    4.0934    1.6094 C   0  0  0  0  0  0  0  0  0  0  0  0
    2.4465    0.1277   -0.0883 C   0  0  0  0  0  0  0  0  0  0  0  0
    1.8530   -1.1439    0.0259 C   0  0  0  0  0  0  0  0  0  0  0  0
    2.6407   -2.4396    0.0288 C   0  0  0  0  0  0  0  0  0  0  0  0
    3.9311   -2.4829    0.8402 C   0  0  0  0  0  0  0  0  0  0  0  0
    4.5691   -1.4816    1.1743 O   0  0  0  0  0  0  0  0  0  0  0  0
    4.3476   -3.7805    1.0852 N   0  0  0  0  0  0  0  0  0  0  0  0
    5.5891   -4.0651    1.7085 C   0  0  0  0  0  0  0  0  0  0  0  0
    6.4723   -4.9064    1.0226 C   0  0  0  0  0  0  0  0  0  0  0  0
    7.6883   -5.2638    1.4705 N   0  0  0  0  0  0  0  0  0  0  0  0
    7.9817   -4.8908    2.7335 C   0  0  0  0  0  0  0  0  0  0  0  0
    7.1049   -4.2157    3.5829 C   0  0  0  0  0  0  0  0  0  0  0  0
    7.3574   -4.1314    4.9636 C   0  0  0  0  0  0  0  0  0  0  0  0
    6.4892   -3.4396    5.8022 C   0  0  0  0  0  0  0  0  0  0  0  0
    5.4200   -2.7451    5.2556 C   0  0  0  0  0  0  0  0  0  0  0  0
    5.1316   -2.8663    3.8924 C   0  0  0  0  0  0  0  0  0  0  0  0
    5.9225   -3.6776    3.0331 C   0  0  0  0  0  0  0  0  0  0  0  0
    0.4563   -1.2261    0.0280 C   0  0  0  0  0  0  0  0  0  0  0  0
   -0.3455    2.0484   -0.2705 H   0  0  0  0  0  0  0  0  0  0  0  0
    3.3411    2.4852    0.0462 H   0  0  0  0  0  0  0  0  0  0  0  0
    0.6788    3.7840   -0.2060 H   0  0  0  0  0  0  0  0  0  0  0  0
    1.5122    5.7178   -0.8831 H   0  0  0  0  0  0  0  0  0  0  0  0
    2.6128    4.6375   -1.7187 H   0  0  0  0  0  0  0  0  0  0  0  0
    3.6513    6.6299   -0.6835 H   0  0  0  0  0  0  0  0  0  0  0  0
    4.3995    5.1255   -0.1476 H   0  0  0  0  0  0  0  0  0  0  0  0
    5.2353    6.2606    1.9176 H   0  0  0  0  0  0  0  0  0  0  0  0
    4.0956    7.1005    2.9577 H   0  0  0  0  0  0  0  0  0  0  0  0
    2.6576    9.0428    1.5978 H   0  0  0  0  0  0  0  0  0  0  0  0
    3.1410   11.1821    0.4482 H   0  0  0  0  0  0  0  0  0  0  0  0
    5.3677   11.5788   -0.5699 H   0  0  0  0  0  0  0  0  0  0  0  0
    7.1317    9.8443   -0.3993 H   0  0  0  0  0  0  0  0  0  0  0  0
    6.6677    7.7069    0.7394 H   0  0  0  0  0  0  0  0  0  0  0  0
    2.7921    5.1486    3.1467 H   0  0  0  0  0  0  0  0  0  0  0  0
    3.8650    4.2368    2.0850 H   0  0  0  0  0  0  0  0  0  0  0  0
    0.8603    4.6672    1.8709 H   0  0  0  0  0  0  0  0  0  0  0  0
    1.6943    3.1540    2.1714 H   0  0  0  0  0  0  0  0  0  0  0  0
    3.5326    0.2048   -0.1487 H   0  0  0  0  0  0  0  0  0  0  0  0
    2.8762   -2.7120   -1.0013 H   0  0  0  0  0  0  0  0  0  0  0  0
    2.0029   -3.2300    0.4373 H   0  0  0  0  0  0  0  0  0  0  0  0
    4.0410   -4.4561    0.3954 H   0  0  0  0  0  0  0  0  0  0  0  0
    6.2202   -5.3083    0.0454 H   0  0  0  0  0  0  0  0  0  0  0  0
    8.9779   -5.1736    3.0650 H   0  0  0  0  0  0  0  0  0  0  0  0
    8.2001   -4.6661    5.4003 H   0  0  0  0  0  0  0  0  0  0  0  0
    6.6529   -3.4362    6.8773 H   0  0  0  0  0  0  0  0  0  0  0  0
    4.7838   -2.1343    5.8901 H   0  0  0  0  0  0  0  0  0  0  0  0
    4.2714   -2.3271    3.5068 H   0  0  0  0  0  0  0  0  0  0  0  0
   -0.0439   -2.1930    0.0834 H   0  0  0  0  0  0  0  0  0  0  0  0
  1  2  1  0  0  0  0
  2  3  2  0  0  0  0
  2 35  1  0  0  0  0
  3  4  1  0  0  0  0
  3 36  1  0  0  0  0
  4  5  1  0  0  0  0
  4 19  2  0  0  0  0
  5  6  1  0  0  0  0
  5 37  1  0  0  0  0
  6  7  1  0  0  0  0
  6 18  1  0  0  0  0
  6 38  1  0  0  0  0
  7  8  1  0  0  0  0
  7 39  1  0  0  0  0
  7 40  1  0  0  0  0
  8  9  1  0  0  0  0
  8 41  1  0  0  0  0
  8 42  1  0  0  0  0
  9 10  1  0  0  0  0
  9 17  1  0  0  0  0
 10 11  1  0  0  0  0
 10 43  1  0  0  0  0
 10 44  1  0  0  0  0
 11 12  2  0  0  0  0
 11 16  1  0  0  0  0
 12 13  1  0  0  0  0
 12 45  1  0  0  0  0
 13 14  2  0  0  0  0
 13 46  1  0  0  0  0
 14 15  1  0  0  0  0
 14 47  1  0  0  0  0
 15 16  2  0  0  0  0
 15 48  1  0  0  0  0
 16 49  1  0  0  0  0
 17 18  1  0  0  0  0
 17 50  1  0  0  0  0
 17 51  1  0  0  0  0
 18 52  1  0  0  0  0
 18 53  1  0  0  0  0
 19 20  1  0  0  0  0
 19 54  1  0  0  0  0
 20 21  1  0  0  0  0
 20 35  2  0  0  0  0
 21 22  1  0  0  0  0
 21 55  1  0  0  0  0
 21 56  1  0  0  0  0
 22 23  2  0  0  0  0
 22 24  1  0  0  0  0
 24 25  1  0  0  0  0
 24 57  1  0  0  0  0
 25 26  2  0  0  0  0
 25 34  1  0  0  0  0
 26 27  1  0  0  0  0
 26 58  1  0  0  0  0
 27 28  2  0  0  0  0
 28 29  1  0  0  0  0
 28 59  1  0  0  0  0
 29 30  2  0  0  0  0
 29 34  1  0  0  0  0
 30 31  1  0  0  0  0
 30 60  1  0  0  0  0
 31 32  2  0  0  0  0
 31 61  1  0  0  0  0
 32 33  1  0  0  0  0
 32 62  1  0  0  0  0
 33 34  2  0  0  0  0
 33 63  1  0  0  0  0
 35 64  1  0  0  0  0
M  END
$$$$
