
 OpenBabel07202414173D

 61 66  0  0  1  0  0  0  0  0999 V2000
    1.0626    0.2863   -0.0483 Cl  0  0  0  0  0  0  0  0  0  0  0  0
    2.7763    0.1372   -0.0011 C   0  0  0  0  0  0  0  0  0  0  0  0
    3.5715    1.2698   -0.1207 C   0  0  0  0  0  0  0  0  0  0  0  0
    4.9581    1.1337   -0.0789 C   0  0  0  0  0  0  0  0  0  0  0  0
    5.5457   -0.1289    0.0842 C   0  0  0  0  0  0  0  0  0  0  0  0
    4.7606   -1.2855    0.1764 C   0  0  0  0  0  0  0  0  0  0  0  0
    3.3578   -1.1242    0.1497 C   0  0  0  0  0  0  0  0  0  0  0  0
    5.3927   -2.6927    0.3373 C   0  0  3  0  0  0  0  0  0  0  0  0
    4.8063   -3.6218   -0.7762 C   0  0  0  0  0  0  0  0  0  0  0  0
    5.3889   -5.0324   -0.8885 C   0  0  0  0  0  0  0  0  0  0  0  0
    5.3565   -5.8039    0.0807 O   0  0  0  0  0  0  0  0  0  0  0  0
    5.9043   -5.4859   -2.0672 N   0  0  0  0  0  0  0  0  0  0  0  0
    6.0403   -4.7889   -3.3362 C   0  0  0  0  0  0  0  0  0  0  0  0
    5.8579   -5.8875   -4.3671 C   0  0  0  0  0  0  0  0  0  0  0  0
    6.4733   -7.1214   -3.7141 C   0  0  0  0  0  0  0  0  0  0  0  0
    6.3223   -6.8848   -2.2074 C   0  0  3  0  0  0  0  0  0  0  0  0
    7.6001   -7.1225   -1.4767 C   0  0  0  0  0  0  0  0  0  0  0  0
    8.8386   -6.8892   -1.8736 N   0  0  0  0  0  0  0  0  0  0  0  0
    9.6509   -7.2938   -0.8415 N   0  0  0  0  0  0  0  0  0  0  0  0
    8.9350   -7.7365    0.1803 N   0  0  0  0  0  0  0  0  0  0  0  0
    7.6532   -7.6247   -0.2109 N   0  0  0  0  0  0  0  0  0  0  0  0
    5.0545   -3.2348    1.7787 C   0  0  0  0  0  0  0  0  0  0  0  0
    4.3083   -2.6287    2.5480 O   0  0  0  0  0  0  0  0  0  0  0  0
    5.6758   -4.4121    2.1500 N   0  0  0  0  0  0  0  0  0  0  0  0
    5.5485   -5.0110    3.4219 C   0  0  0  0  0  0  0  0  0  0  0  0
    4.3129   -5.1836    4.0427 C   0  0  0  0  0  0  0  0  0  0  0  0
    4.1510   -5.6299    5.3068 N   0  0  0  0  0  0  0  0  0  0  0  0
    5.2843   -5.9310    5.9840 C   0  0  0  0  0  0  0  0  0  0  0  0
    6.5697   -5.9221    5.4232 C   0  0  0  0  0  0  0  0  0  0  0  0
    7.6926   -6.3673    6.1380 C   0  0  0  0  0  0  0  0  0  0  0  0
    8.9578   -6.3513    5.5537 C   0  0  0  0  0  0  0  0  0  0  0  0
    9.1188   -5.8758    4.2673 C   0  0  0  0  0  0  0  0  0  0  0  0
    8.0055   -5.4195    3.5432 C   0  0  0  0  0  0  0  0  0  0  0  0
    6.6977   -5.4688    4.0952 C   0  0  0  0  0  0  0  0  0  0  0  0
    6.9190   -2.5616    0.0969 C   0  0  0  0  0  0  0  0  0  0  0  0
    7.4893   -1.2859    0.6950 C   0  0  0  0  0  0  0  0  0  0  0  0
    6.9113   -0.1278    0.1036 O   0  0  0  0  0  0  0  0  0  0  0  0
    3.1250    2.2524   -0.2357 H   0  0  0  0  0  0  0  0  0  0  0  0
    5.5868    2.0179   -0.1578 H   0  0  0  0  0  0  0  0  0  0  0  0
    2.7028   -1.9821    0.2811 H   0  0  0  0  0  0  0  0  0  0  0  0
    4.9082   -3.0957   -1.7303 H   0  0  0  0  0  0  0  0  0  0  0  0
    3.7308   -3.7647   -0.6306 H   0  0  0  0  0  0  0  0  0  0  0  0
    7.0527   -4.3713   -3.3748 H   0  0  0  0  0  0  0  0  0  0  0  0
    5.3152   -3.9906   -3.4705 H   0  0  0  0  0  0  0  0  0  0  0  0
    6.3217   -5.6462   -5.3244 H   0  0  0  0  0  0  0  0  0  0  0  0
    4.7923   -6.0632   -4.5406 H   0  0  0  0  0  0  0  0  0  0  0  0
    7.5190   -7.2262   -4.0289 H   0  0  0  0  0  0  0  0  0  0  0  0
    5.9549   -8.0352   -4.0303 H   0  0  0  0  0  0  0  0  0  0  0  0
    5.5228   -7.5281   -1.8009 H   0  0  0  0  0  0  0  0  0  0  0  0
    6.9090   -7.8767    0.4286 H   0  0  0  0  0  0  0  0  0  0  0  0
    6.3726   -4.8101    1.5351 H   0  0  0  0  0  0  0  0  0  0  0  0
    3.3838   -5.0067    3.5031 H   0  0  0  0  0  0  0  0  0  0  0  0
    5.1281   -6.1822    7.0282 H   0  0  0  0  0  0  0  0  0  0  0  0
    7.5879   -6.7350    7.1567 H   0  0  0  0  0  0  0  0  0  0  0  0
    9.8188   -6.7158    6.1063 H   0  0  0  0  0  0  0  0  0  0  0  0
   10.1025   -5.8407    3.8050 H   0  0  0  0  0  0  0  0  0  0  0  0
    8.1844   -5.0395    2.5424 H   0  0  0  0  0  0  0  0  0  0  0  0
    7.1072   -2.5197   -0.9858 H   0  0  0  0  0  0  0  0  0  0  0  0
    7.4788   -3.4202    0.4780 H   0  0  0  0  0  0  0  0  0  0  0  0
    8.5616   -1.2398    0.4725 H   0  0  0  0  0  0  0  0  0  0  0  0
    7.3838   -1.2438    1.7849 H   0  0  0  0  0  0  0  0  0  0  0  0
  1  2  1  0  0  0  0
  2  3  1  0  0  0  0
  2  7  2  0  0  0  0
  3  4  2  0  0  0  0
  3 38  1  0  0  0  0
  4  5  1  0  0  0  0
  4 39  1  0  0  0  0
  5  6  2  0  0  0  0
  5 37  1  0  0  0  0
  6  7  1  0  0  0  0
  6  8  1  0  0  0  0
  7 40  1  0  0  0  0
  8  9  1  0  0  0  0
  8 22  1  0  0  0  0
  8 35  1  0  0  0  0
  9 10  1  0  0  0  0
  9 41  1  0  0  0  0
  9 42  1  0  0  0  0
 10 11  2  0  0  0  0
 10 12  1  0  0  0  0
 12 13  1  0  0  0  0
 12 16  1  0  0  0  0
 13 14  1  0  0  0  0
 13 43  1  0  0  0  0
 13 44  1  0  0  0  0
 14 15  1  0  0  0  0
 14 45  1  0  0  0  0
 14 46  1  0  0  0  0
 15 16  1  0  0  0  0
 15 47  1  0  0  0  0
 15 48  1  0  0  0  0
 16 17  1  0  0  0  0
 16 49  1  0  0  0  0
 17 18  2  0  0  0  0
 17 21  1  0  0  0  0
 18 19  1  0  0  0  0
 19 20  2  0  0  0  0
 20 21  1  0  0  0  0
 21 50  1  0  0  0  0
 22 23  2  0  0  0  0
 22 24  1  0  0  0  0
 24 25  1  0  0  0  0
 24 51  1  0  0  0  0
 25 26  1  0  0  0  0
 25 34  2  0  0  0  0
 26 27  2  0  0  0  0
 26 52  1  0  0  0  0
 27 28  1  0  0  0  0
 28 29  2  0  0  0  0
 28 53  1  0  0  0  0
 29 30  1  0  0  0  0
 29 34  1  0  0  0  0
 30 31  2  0  0  0  0
 30 54  1  0  0  0  0
 31 32  1  0  0  0  0
 31 55  1  0  0  0  0
 32 33  2  0  0  0  0
 32 56  1  0  0  0  0
 33 34  1  0  0  0  0
 33 57  1  0  0  0  0
 35 36  1  0  0  0  0
 35 58  1  0  0  0  0
 35 59  1  0  0  0  0
 36 37  1  0  0  0  0
 36 60  1  0  0  0  0
 36 61  1  0  0  0  0
M  END
$$$$
