
 OpenBabel07202414193D

 50 53  0  0  1  0  0  0  0  0999 V2000
    1.2788   -0.9176    0.5391 O   0  0  0  0  0  0  0  0  0  0  0  0
    2.2727   -0.2851    0.1762 C   0  0  0  0  0  0  0  0  0  0  0  0
    2.8899   -0.5474   -1.1890 C   0  0  0  0  0  0  0  0  0  0  0  0
    2.4639    0.3994   -2.2892 C   0  0  0  0  0  0  0  0  0  0  0  0
    1.1604    0.9011   -2.3085 C   0  0  0  0  0  0  0  0  0  0  0  0
    0.6727    1.7351   -3.2510 N   0  0  0  0  0  0  0  0  0  0  0  0
    1.5143    2.0760   -4.2480 C   0  0  0  0  0  0  0  0  0  0  0  0
    2.8269    1.6239   -4.3659 C   0  0  0  0  0  0  0  0  0  0  0  0
    3.6389    2.0143   -5.4471 C   0  0  0  0  0  0  0  0  0  0  0  0
    4.9436    1.5426   -5.5632 C   0  0  0  0  0  0  0  0  0  0  0  0
    5.4453    0.6702   -4.6071 C   0  0  0  0  0  0  0  0  0  0  0  0
    4.6450    0.2764   -3.5295 C   0  0  0  0  0  0  0  0  0  0  0  0
    3.3208    0.7492   -3.3701 C   0  0  0  0  0  0  0  0  0  0  0  0
    2.8659    0.6673    0.9781 N   0  0  0  0  0  0  0  0  0  0  0  0
    2.3719    0.9354    2.3111 C   0  0  0  0  0  0  0  0  0  0  0  0
    2.7791    2.3733    2.5708 C   0  0  0  0  0  0  0  0  0  0  0  0
    4.1127    2.5361    1.8191 C   0  0  1  0  0  0  0  0  0  0  0  0
    5.3792    2.2375    2.6758 C   0  0  0  0  0  0  0  0  0  0  0  0
    5.4626    3.1915    3.8907 C   0  0  0  0  0  0  0  0  0  0  0  0
    6.7457    3.0143    4.6989 C   0  0  0  0  0  0  0  0  0  0  0  0
    7.9788    3.1921    3.8269 C   0  0  0  0  0  0  0  0  0  0  0  0
    7.9465    2.2271    2.6512 C   0  0  0  0  0  0  0  0  0  0  0  0
    6.6666    2.3742    1.8295 C   0  0  0  0  0  0  0  0  0  0  0  0
    3.9160    1.6053    0.6041 C   0  0  0  0  0  0  0  0  0  0  0  0
    2.6166   -1.5672   -1.4891 H   0  0  0  0  0  0  0  0  0  0  0  0
    3.9737   -0.5547   -1.0498 H   0  0  0  0  0  0  0  0  0  0  0  0
    0.4342    0.6362   -1.5420 H   0  0  0  0  0  0  0  0  0  0  0  0
    1.0806    2.7450   -4.9878 H   0  0  0  0  0  0  0  0  0  0  0  0
    3.2541    2.6880   -6.2102 H   0  0  0  0  0  0  0  0  0  0  0  0
    5.5638    1.8503   -6.4012 H   0  0  0  0  0  0  0  0  0  0  0  0
    6.4588    0.2880   -4.6975 H   0  0  0  0  0  0  0  0  0  0  0  0
    5.0819   -0.4221   -2.8212 H   0  0  0  0  0  0  0  0  0  0  0  0
    2.8781    0.2465    2.9967 H   0  0  0  0  0  0  0  0  0  0  0  0
    1.2917    0.7816    2.3874 H   0  0  0  0  0  0  0  0  0  0  0  0
    2.8057    2.5998    3.6375 H   0  0  0  0  0  0  0  0  0  0  0  0
    2.0361    3.0419    2.1172 H   0  0  0  0  0  0  0  0  0  0  0  0
    4.1997    3.5713    1.4635 H   0  0  0  0  0  0  0  0  0  0  0  0
    5.3233    1.2073    3.0519 H   0  0  0  0  0  0  0  0  0  0  0  0
    4.6203    3.0319    4.5701 H   0  0  0  0  0  0  0  0  0  0  0  0
    5.3994    4.2319    3.5454 H   0  0  0  0  0  0  0  0  0  0  0  0
    6.7562    2.0167    5.1550 H   0  0  0  0  0  0  0  0  0  0  0  0
    6.7671    3.7407    5.5195 H   0  0  0  0  0  0  0  0  0  0  0  0
    8.8831    3.0243    4.4224 H   0  0  0  0  0  0  0  0  0  0  0  0
    8.0248    4.2243    3.4579 H   0  0  0  0  0  0  0  0  0  0  0  0
    8.0264    1.1974    3.0204 H   0  0  0  0  0  0  0  0  0  0  0  0
    8.8167    2.4037    2.0086 H   0  0  0  0  0  0  0  0  0  0  0  0
    6.6922    1.6174    1.0397 H   0  0  0  0  0  0  0  0  0  0  0  0
    6.6747    3.3520    1.3308 H   0  0  0  0  0  0  0  0  0  0  0  0
    4.8062    1.0477    0.3098 H   0  0  0  0  0  0  0  0  0  0  0  0
    3.5636    2.1778   -0.2602 H   0  0  0  0  0  0  0  0  0  0  0  0
  1  2  2  0  0  0  0
  2  3  1  0  0  0  0
  2 14  1  0  0  0  0
  3  4  1  0  0  0  0
  3 25  1  0  0  0  0
  3 26  1  0  0  0  0
  4  5  1  0  0  0  0
  4 13  2  0  0  0  0
  5  6  2  0  0  0  0
  5 27  1  0  0  0  0
  6  7  1  0  0  0  0
  7  8  2  0  0  0  0
  7 28  1  0  0  0  0
  8  9  1  0  0  0  0
  8 13  1  0  0  0  0
  9 10  2  0  0  0  0
  9 29  1  0  0  0  0
 10 11  1  0  0  0  0
 10 30  1  0  0  0  0
 11 12  2  0  0  0  0
 11 31  1  0  0  0  0
 12 13  1  0  0  0  0
 12 32  1  0  0  0  0
 14 15  1  0  0  0  0
 14 24  1  0  0  0  0
 15 16  1  0  0  0  0
 15 33  1  0  0  0  0
 15 34  1  0  0  0  0
 16 17  1  0  0  0  0
 16 35  1  0  0  0  0
 16 36  1  0  0  0  0
 17 18  1  0  0  0  0
 17 24  1  0  0  0  0
 17 37  1  6  0  0  0
 18 19  1  0  0  0  0
 18 23  1  0  0  0  0
 18 38  1  0  0  0  0
 19 20  1  0  0  0  0
 19 39  1  0  0  0  0
 19 40  1  0  0  0  0
 20 21  1  0  0  0  0
 20 41  1  0  0  0  0
 20 42  1  0  0  0  0
 21 22  1  0  0  0  0
 21 43  1  0  0  0  0
 21 44  1  0  0  0  0
 22 23  1  0  0  0  0
 22 45  1  0  0  0  0
 22 46  1  0  0  0  0
 23 47  1  0  0  0  0
 23 48  1  0  0  0  0
 24 49  1  0  0  0  0
 24 50  1  0  0  0  0
M  END
$$$$
