
 OpenBabel07202414133D

 43 47  0  0  1  0  0  0  0  0999 V2000
    1.1834    0.0953    0.2459 C   0  0  0  0  0  0  0  0  0  0  0  0
    2.6054    0.0887    0.4706 N   0  0  0  0  0  0  0  0  0  0  0  0
    3.3877    1.2391    0.6285 C   0  0  0  0  0  0  0  0  0  0  0  0
    2.9897    2.3932    0.6834 O   0  0  0  0  0  0  0  0  0  0  0  0
    4.8541    0.7999    0.5487 C   0  0  1  0  0  0  0  0  0  0  0  0
    5.3995    1.2272   -0.8094 C   0  0  0  0  0  0  0  0  0  0  0  0
    6.4592    2.2485   -0.5041 C   0  0  0  0  0  0  0  0  0  0  0  0
    6.6637    2.2987    0.9143 N   0  0  0  0  0  0  0  0  0  0  0  0
    7.7885    3.0053    1.4951 C   0  0  0  0  0  0  0  0  0  0  0  0
    8.0975    2.8095    2.8475 C   0  0  0  0  0  0  0  0  0  0  0  0
    9.2381    3.2070    3.4598 N   0  0  0  0  0  0  0  0  0  0  0  0
   10.1134    3.8956    2.7097 C   0  0  0  0  0  0  0  0  0  0  0  0
    9.8838    4.2992    1.4010 C   0  0  0  0  0  0  0  0  0  0  0  0
   10.8279    5.1369    0.7695 C   0  0  0  0  0  0  0  0  0  0  0  0
   10.6233    5.6147   -0.5181 C   0  0  0  0  0  0  0  0  0  0  0  0
    9.4806    5.2402   -1.1929 C   0  0  0  0  0  0  0  0  0  0  0  0
    8.5488    4.3971   -0.5717 C   0  0  0  0  0  0  0  0  0  0  0  0
    8.6950    3.8718    0.7522 C   0  0  0  0  0  0  0  0  0  0  0  0
    5.7539    1.4409    1.5805 C   0  0  0  0  0  0  0  0  0  0  0  0
    5.6826    1.2133    2.7853 O   0  0  0  0  0  0  0  0  0  0  0  0
    4.7433   -0.7094    0.5641 C   0  0  0  0  0  0  0  0  0  0  0  0
    5.7420   -1.6707    0.4945 C   0  0  0  0  0  0  0  0  0  0  0  0
    5.3591   -2.9952    0.2757 C   0  0  0  0  0  0  0  0  0  0  0  0
    6.5682   -4.2031    0.0780 Cl  0  0  0  0  0  0  0  0  0  0  0  0
    4.0044   -3.3476    0.1537 C   0  0  0  0  0  0  0  0  0  0  0  0
    3.0043   -2.3741    0.2490 C   0  0  0  0  0  0  0  0  0  0  0  0
    3.3957   -1.0635    0.4410 C   0  0  0  0  0  0  0  0  0  0  0  0
    0.8036    1.1204    0.2222 H   0  0  0  0  0  0  0  0  0  0  0  0
    0.6818   -0.4606    1.0419 H   0  0  0  0  0  0  0  0  0  0  0  0
    0.9758   -0.3716   -0.7228 H   0  0  0  0  0  0  0  0  0  0  0  0
    4.6336    1.6705   -1.4594 H   0  0  0  0  0  0  0  0  0  0  0  0
    5.8360    0.4039   -1.3872 H   0  0  0  0  0  0  0  0  0  0  0  0
    6.0898    3.2151   -0.8472 H   0  0  0  0  0  0  0  0  0  0  0  0
    7.3923    1.9559   -0.9985 H   0  0  0  0  0  0  0  0  0  0  0  0
    7.4361    2.2901    3.5317 H   0  0  0  0  0  0  0  0  0  0  0  0
   11.0404    4.1421    3.2224 H   0  0  0  0  0  0  0  0  0  0  0  0
   11.7266    5.4511    1.2976 H   0  0  0  0  0  0  0  0  0  0  0  0
   11.3389    6.2884   -0.9807 H   0  0  0  0  0  0  0  0  0  0  0  0
    9.2895    5.6109   -2.1975 H   0  0  0  0  0  0  0  0  0  0  0  0
    7.6722    4.2134   -1.1726 H   0  0  0  0  0  0  0  0  0  0  0  0
    6.7916   -1.3969    0.5521 H   0  0  0  0  0  0  0  0  0  0  0  0
    3.7283   -4.3819   -0.0378 H   0  0  0  0  0  0  0  0  0  0  0  0
    1.9619   -2.6504    0.1385 H   0  0  0  0  0  0  0  0  0  0  0  0
  1  2  1  0  0  0  0
  1 28  1  0  0  0  0
  1 29  1  0  0  0  0
  1 30  1  0  0  0  0
  2  3  1  0  0  0  0
  2 27  1  0  0  0  0
  3  4  2  0  0  0  0
  5  3  1  1  0  0  0
  5  6  1  0  0  0  0
  5 19  1  0  0  0  0
  5 21  1  0  0  0  0
  6  7  1  0  0  0  0
  6 31  1  0  0  0  0
  6 32  1  0  0  0  0
  7  8  1  0  0  0  0
  7 33  1  0  0  0  0
  7 34  1  0  0  0  0
  8  9  1  0  0  0  0
  8 19  1  0  0  0  0
  9 10  1  0  0  0  0
  9 18  2  0  0  0  0
 10 11  2  0  0  0  0
 10 35  1  0  0  0  0
 11 12  1  0  0  0  0
 12 13  2  0  0  0  0
 12 36  1  0  0  0  0
 13 14  1  0  0  0  0
 13 18  1  0  0  0  0
 14 15  2  0  0  0  0
 14 37  1  0  0  0  0
 15 16  1  0  0  0  0
 15 38  1  0  0  0  0
 16 17  2  0  0  0  0
 16 39  1  0  0  0  0
 17 18  1  0  0  0  0
 17 40  1  0  0  0  0
 19 20  2  0  0  0  0
 21 22  1  0  0  0  0
 21 27  2  0  0  0  0
 22 23  2  0  0  0  0
 22 41  1  0  0  0  0
 23 24  1  0  0  0  0
 23 25  1  0  0  0  0
 25 26  2  0  0  0  0
 25 42  1  0  0  0  0
 26 27  1  0  0  0  0
 26 43  1  0  0  0  0
M  END
$$$$
