
 OpenBabel07202414123D

 61 63  0  0  1  0  0  0  0  0999 V2000
    0.6253   -3.1331    8.1689 C   0  0  0  0  0  0  0  0  0  0  0  0
    0.5948   -3.5536    6.6914 C   0  0  0  0  0  0  0  0  0  0  0  0
    0.8990   -5.0610    6.5881 C   0  0  0  0  0  0  0  0  0  0  0  0
   -0.8190   -3.2935    6.1335 C   0  0  0  0  0  0  0  0  0  0  0  0
    1.6111   -2.7779    5.8984 C   0  0  0  0  0  0  0  0  0  0  0  0
    2.5339   -1.7818    6.1494 C   0  0  0  0  0  0  0  0  0  0  0  0
    3.1593   -1.5032    4.8917 C   0  0  0  0  0  0  0  0  0  0  0  0
    2.6249   -2.3239    3.9774 N   0  0  0  0  0  0  0  0  0  0  0  0
    1.6901   -3.1018    4.5863 O   0  0  0  0  0  0  0  0  0  0  0  0
    4.1659   -0.5250    4.5842 N   0  0  0  0  0  0  0  0  0  0  0  0
    4.6800    0.3620    5.6723 C   0  0  3  0  0  0  0  0  0  0  0  0
    6.1974    0.3131    5.9308 C   0  0  0  0  0  0  0  0  0  0  0  0
    7.0493   -0.6362    5.3490 C   0  0  0  0  0  0  0  0  0  0  0  0
    8.4340   -0.5477    5.5154 C   0  0  0  0  0  0  0  0  0  0  0  0
    8.9353    0.4531    6.3338 C   0  0  0  0  0  0  0  0  0  0  0  0
    8.1467    1.3093    7.0117 N   0  0  0  0  0  0  0  0  0  0  0  0
    6.8104    1.2104    6.8112 C   0  0  0  0  0  0  0  0  0  0  0  0
    9.3220   -1.4291    4.8355 C   0  0  0  0  0  0  0  0  0  0  0  0
   10.0453   -2.1303    4.2738 N   0  0  0  0  0  0  0  0  0  0  0  0
    4.0908    1.8152    5.7274 C   0  0  0  0  0  0  0  0  0  0  0  0
    4.0411    2.4014    6.8168 O   0  0  0  0  0  0  0  0  0  0  0  0
    3.7697    2.5065    4.5745 N   0  0  0  0  0  0  0  0  0  0  0  0
    3.3371    3.8986    4.7134 C   0  0  0  0  0  0  0  0  0  0  0  0
    2.9708    4.6454    3.4280 C   0  0  0  0  0  0  0  0  0  0  0  0
    4.0834    4.7816    2.4199 C   0  0  0  0  0  0  0  0  0  0  0  0
    5.2768    5.4565    2.7242 C   0  0  0  0  0  0  0  0  0  0  0  0
    6.2896    5.5786    1.7667 C   0  0  0  0  0  0  0  0  0  0  0  0
    6.1143    5.0385    0.4942 C   0  0  0  0  0  0  0  0  0  0  0  0
    4.9239    4.3942    0.1854 C   0  0  0  0  0  0  0  0  0  0  0  0
    3.9110    4.2665    1.1289 C   0  0  0  0  0  0  0  0  0  0  0  0
    4.7463    3.8846   -1.0401 F   0  0  0  0  0  0  0  0  0  0  0  0
    4.6301   -0.5234    3.2545 C   0  0  0  0  0  0  0  0  0  0  0  0
    4.3469   -1.3708    2.4063 O   0  0  0  0  0  0  0  0  0  0  0  0
    5.5594    0.5565    2.7999 C   0  0  0  0  0  0  0  0  0  0  0  0
    5.9050    0.5967    1.5036 C   0  0  0  0  0  0  0  0  0  0  0  0
   -0.0758   -3.7260    8.7667 H   0  0  0  0  0  0  0  0  0  0  0  0
    0.3505   -2.0778    8.2854 H   0  0  0  0  0  0  0  0  0  0  0  0
    1.6245   -3.2628    8.6006 H   0  0  0  0  0  0  0  0  0  0  0  0
    0.1655   -5.6552    7.1452 H   0  0  0  0  0  0  0  0  0  0  0  0
    1.8935   -5.2944    6.9852 H   0  0  0  0  0  0  0  0  0  0  0  0
    0.8742   -5.4070    5.5472 H   0  0  0  0  0  0  0  0  0  0  0  0
   -1.5707   -3.8858    6.6686 H   0  0  0  0  0  0  0  0  0  0  0  0
   -0.8922   -3.5558    5.0711 H   0  0  0  0  0  0  0  0  0  0  0  0
   -1.0981   -2.2376    6.2278 H   0  0  0  0  0  0  0  0  0  0  0  0
    2.7049   -1.3322    7.1148 H   0  0  0  0  0  0  0  0  0  0  0  0
    4.2937   -0.0634    6.6060 H   0  0  0  0  0  0  0  0  0  0  0  0
    6.6569   -1.4417    4.7239 H   0  0  0  0  0  0  0  0  0  0  0  0
   10.0026    0.6008    6.4649 H   0  0  0  0  0  0  0  0  0  0  0  0
    6.2449    1.9144    7.4207 H   0  0  0  0  0  0  0  0  0  0  0  0
    3.5814    2.0184    3.7064 H   0  0  0  0  0  0  0  0  0  0  0  0
    4.1285    4.4384    5.2482 H   0  0  0  0  0  0  0  0  0  0  0  0
    2.4579    3.8954    5.3694 H   0  0  0  0  0  0  0  0  0  0  0  0
    2.6373    5.6589    3.6932 H   0  0  0  0  0  0  0  0  0  0  0  0
    2.1042    4.1576    2.9659 H   0  0  0  0  0  0  0  0  0  0  0  0
    5.4281    5.9034    3.7055 H   0  0  0  0  0  0  0  0  0  0  0  0
    7.2127    6.0991    2.0117 H   0  0  0  0  0  0  0  0  0  0  0  0
    6.8899    5.1231   -0.2599 H   0  0  0  0  0  0  0  0  0  0  0  0
    2.9896    3.7694    0.8397 H   0  0  0  0  0  0  0  0  0  0  0  0
    5.9721    1.2847    3.4785 H   0  0  0  0  0  0  0  0  0  0  0  0
    5.5169   -0.1259    0.7855 H   0  0  0  0  0  0  0  0  0  0  0  0
    6.5863    1.3451    1.1181 H   0  0  0  0  0  0  0  0  0  0  0  0
  1  2  1  0  0  0  0
  1 36  1  0  0  0  0
  1 37  1  0  0  0  0
  1 38  1  0  0  0  0
  2  3  1  0  0  0  0
  2  4  1  0  0  0  0
  2  5  1  0  0  0  0
  3 39  1  0  0  0  0
  3 40  1  0  0  0  0
  3 41  1  0  0  0  0
  4 42  1  0  0  0  0
  4 43  1  0  0  0  0
  4 44  1  0  0  0  0
  5  6  2  0  0  0  0
  5  9  1  0  0  0  0
  6  7  1  0  0  0  0
  6 45  1  0  0  0  0
  7  8  2  0  0  0  0
  7 10  1  0  0  0  0
  8  9  1  0  0  0  0
 10 11  1  0  0  0  0
 10 32  1  0  0  0  0
 11 12  1  0  0  0  0
 11 20  1  0  0  0  0
 11 46  1  0  0  0  0
 12 13  1  0  0  0  0
 12 17  2  0  0  0  0
 13 14  2  0  0  0  0
 13 47  1  0  0  0  0
 14 15  1  0  0  0  0
 14 18  1  0  0  0  0
 15 16  2  0  0  0  0
 15 48  1  0  0  0  0
 16 17  1  0  0  0  0
 17 49  1  0  0  0  0
 18 19  3  0  0  0  0
 20 21  2  0  0  0  0
 20 22  1  0  0  0  0
 22 23  1  0  0  0  0
 22 50  1  0  0  0  0
 23 24  1  0  0  0  0
 23 51  1  0  0  0  0
 23 52  1  0  0  0  0
 24 25  1  0  0  0  0
 24 53  1  0  0  0  0
 24 54  1  0  0  0  0
 25 26  1  0  0  0  0
 25 30  2  0  0  0  0
 26 27  2  0  0  0  0
 26 55  1  0  0  0  0
 27 28  1  0  0  0  0
 27 56  1  0  0  0  0
 28 29  2  0  0  0  0
 28 57  1  0  0  0  0
 29 30  1  0  0  0  0
 29 31  1  0  0  0  0
 30 58  1  0  0  0  0
 32 33  2  0  0  0  0
 32 34  1  0  0  0  0
 34 35  2  0  0  0  0
 34 59  1  0  0  0  0
 35 60  1  0  0  0  0
 35 61  1  0  0  0  0
M  END
$$$$
