
 OpenBabel07202414203D

 43 46  0  0  1  0  0  0  0  0999 V2000
    2.6808    0.0453   -1.2609 H   0  0  0  0  0  0  0  0  0  0  0  0
    3.7848    0.1279   -1.1894 C   0  0  0  0  0  0  0  0  0  0  0  0
    4.3003   -0.8478   -1.2936 H   0  0  0  0  0  0  0  0  0  0  0  0
    4.1158    0.7255   -2.0661 H   0  0  0  0  0  0  0  0  0  0  0  0
    4.1943    0.8193   -0.0288 O   0  0  0  0  0  0  0  0  0  0  0  0
    3.7963    0.2122    1.2053 C   0  0  1  0  0  0  0  0  0  0  0  0
    4.4442   -1.2004    1.3508 C   0  0  0  0  0  0  0  0  0  0  0  0
    4.3393   -1.7205    2.7965 C   0  0  0  0  0  0  0  0  0  0  0  0
    4.9156   -0.8290    3.6755 O   0  0  0  0  0  0  0  0  0  0  0  0
    4.9029    0.5139    3.4997 C   0  0  0  0  0  0  0  0  0  0  0  0
    4.3858    1.0933    2.3149 C   0  0  0  0  0  0  0  0  0  0  0  0
    4.4192    2.5002    2.1818 C   0  0  0  0  0  0  0  0  0  0  0  0
    4.9505    3.3005    3.1990 C   0  0  0  0  0  0  0  0  0  0  0  0
    5.4379    2.7128    4.3674 C   0  0  0  0  0  0  0  0  0  0  0  0
    5.4139    1.3265    4.5155 C   0  0  0  0  0  0  0  0  0  0  0  0
    5.0093    5.0437    3.0085 Cl  0  0  0  0  0  0  0  0  0  0  0  0
    2.2564    0.2536    1.3852 C   0  0  0  0  0  0  0  0  0  0  0  0
    1.7381    1.3561    1.3552 O   0  0  0  0  0  0  0  0  0  0  0  0
    1.4943   -0.8825    1.5722 N   0  0  0  0  0  0  0  0  0  0  0  0
    0.0662   -0.9858    1.8166 C   0  0  0  0  0  0  0  0  0  0  0  0
   -0.7517    0.1644    1.9653 C   0  0  0  0  0  0  0  0  0  0  0  0
   -2.0942    0.0555    2.1147 N   0  0  0  0  0  0  0  0  0  0  0  0
   -2.7298   -1.1327    2.1441 C   0  0  0  0  0  0  0  0  0  0  0  0
   -2.0029   -2.3174    2.0608 C   0  0  0  0  0  0  0  0  0  0  0  0
   -0.5871   -2.2667    1.9229 C   0  0  0  0  0  0  0  0  0  0  0  0
    0.1035   -3.5108    1.8962 C   0  0  0  0  0  0  0  0  0  0  0  0
   -0.5913   -4.7242    1.9791 C   0  0  0  0  0  0  0  0  0  0  0  0
   -1.9785   -4.7388    2.0736 C   0  0  0  0  0  0  0  0  0  0  0  0
   -2.6833   -3.5417    2.1156 C   0  0  0  0  0  0  0  0  0  0  0  0
    5.5282   -1.1137    1.1117 H   0  0  0  0  0  0  0  0  0  0  0  0
    4.0113   -1.9339    0.6398 H   0  0  0  0  0  0  0  0  0  0  0  0
    4.8547   -2.6989    2.8757 H   0  0  0  0  0  0  0  0  0  0  0  0
    3.2979   -1.8853    3.1271 H   0  0  0  0  0  0  0  0  0  0  0  0
    4.0443    2.9774    1.2843 H   0  0  0  0  0  0  0  0  0  0  0  0
    5.8400    3.3290    5.1613 H   0  0  0  0  0  0  0  0  0  0  0  0
    5.7942    0.8780    5.4241 H   0  0  0  0  0  0  0  0  0  0  0  0
    1.9899   -1.7661    1.4894 H   0  0  0  0  0  0  0  0  0  0  0  0
   -0.3724    1.1639    1.9650 H   0  0  0  0  0  0  0  0  0  0  0  0
   -3.8077   -1.1472    2.2503 H   0  0  0  0  0  0  0  0  0  0  0  0
    1.1751   -3.5995    1.8292 H   0  0  0  0  0  0  0  0  0  0  0  0
   -0.0511   -5.6624    1.9686 H   0  0  0  0  0  0  0  0  0  0  0  0
   -2.5120   -5.6806    2.1223 H   0  0  0  0  0  0  0  0  0  0  0  0
   -3.7634   -3.5718    2.1977 H   0  0  0  0  0  0  0  0  0  0  0  0
  1  2  1  0  0  0  0
  2  3  1  0  0  0  0
  2  4  1  0  0  0  0
  2  5  1  0  0  0  0
  6  7  1  0  0  0  0
  6 11  1  0  0  0  0
  6 17  1  1  0  0  0
  6  5  1  0  0  0  0
  7  8  1  0  0  0  0
  7 30  1  0  0  0  0
  7 31  1  0  0  0  0
  8  9  1  0  0  0  0
  8 32  1  0  0  0  0
  8 33  1  0  0  0  0
  9 10  1  0  0  0  0
 10 11  1  0  0  0  0
 10 15  2  0  0  0  0
 11 12  2  0  0  0  0
 12 13  1  0  0  0  0
 12 34  1  0  0  0  0
 13 14  2  0  0  0  0
 13 16  1  0  0  0  0
 14 15  1  0  0  0  0
 14 35  1  0  0  0  0
 15 36  1  0  0  0  0
 17 18  2  0  0  0  0
 17 19  1  0  0  0  0
 19 20  1  0  0  0  0
 19 37  1  0  0  0  0
 20 21  1  0  0  0  0
 20 25  2  0  0  0  0
 21 22  2  0  0  0  0
 21 38  1  0  0  0  0
 22 23  1  0  0  0  0
 23 24  2  0  0  0  0
 23 39  1  0  0  0  0
 24 25  1  0  0  0  0
 24 29  1  0  0  0  0
 25 26  1  0  0  0  0
 26 27  2  0  0  0  0
 26 40  1  0  0  0  0
 27 28  1  0  0  0  0
 27 41  1  0  0  0  0
 28 29  2  0  0  0  0
 28 42  1  0  0  0  0
 29 43  1  0  0  0  0
M  ISO  3   1   2   3   2   4   2
M  END
$$$$
