
 OpenBabel07202414203D

 42 45  0  0  0  0  0  0  0  0999 V2000
    5.0209    0.5234   -2.6470 C   0  0  0  0  0  0  0  0  0  0  0  0
    4.0612    0.0890   -1.7397 C   0  0  0  0  0  0  0  0  0  0  0  0
    3.1060    0.9852   -1.2345 C   0  0  0  0  0  0  0  0  0  0  0  0
    3.1108    2.3566   -1.5925 C   0  0  0  0  0  0  0  0  0  0  0  0
    4.0764    2.7566   -2.5535 C   0  0  0  0  0  0  0  0  0  0  0  0
    5.0106    1.8449   -3.0743 C   0  0  0  0  0  0  0  0  0  0  0  0
    4.1102    4.0898   -2.9547 C   0  0  0  0  0  0  0  0  0  0  0  0
    3.3657    5.0684   -2.4079 N   0  0  0  0  0  0  0  0  0  0  0  0
    2.5148    4.6842   -1.4339 C   0  0  0  0  0  0  0  0  0  0  0  0
    2.2586    3.3682   -1.0604 C   0  0  0  0  0  0  0  0  0  0  0  0
    1.1670    3.1368   -0.0639 C   0  0  0  0  0  0  0  0  0  0  0  0
    1.3857    2.3701    0.8670 O   0  0  0  0  0  0  0  0  0  0  0  0
   -0.0456    3.8279   -0.1891 N   0  0  0  0  0  0  0  0  0  0  0  0
   -0.4553    4.6611   -1.3127 C   0  0  0  0  0  0  0  0  0  0  0  0
   -1.8324    4.2436   -1.7810 C   0  0  0  0  0  0  0  0  0  0  0  0
   -2.8181    4.3407   -0.7136 N   0  0  0  0  0  0  0  0  0  0  0  0
   -2.4839    4.1087    0.6216 C   0  0  0  0  0  0  0  0  0  0  0  0
   -3.3056    4.1245    1.5423 O   0  0  0  0  0  0  0  0  0  0  0  0
   -0.9913    3.8216    0.9339 C   0  0  0  0  0  0  0  0  0  0  0  0
   -4.1613    4.5566   -1.1216 C   0  0  0  0  0  0  0  0  0  0  0  0
   -4.9206    5.5793   -0.5462 C   0  0  0  0  0  0  0  0  0  0  0  0
   -6.1971    5.8654   -1.0371 C   0  0  0  0  0  0  0  0  0  0  0  0
   -6.7370    5.1029   -2.0733 C   0  0  0  0  0  0  0  0  0  0  0  0
   -5.9900    4.0665   -2.6291 C   0  0  0  0  0  0  0  0  0  0  0  0
   -4.7006    3.8060   -2.1745 C   0  0  0  0  0  0  0  0  0  0  0  0
   -6.6598    3.1018   -3.8862 Cl  0  0  0  0  0  0  0  0  0  0  0  0
    5.7833   -0.1612   -3.0132 H   0  0  0  0  0  0  0  0  0  0  0  0
    4.0671   -0.9459   -1.4050 H   0  0  0  0  0  0  0  0  0  0  0  0
    2.3828    0.5994   -0.5171 H   0  0  0  0  0  0  0  0  0  0  0  0
    5.7656    2.1733   -3.7873 H   0  0  0  0  0  0  0  0  0  0  0  0
    4.7867    4.4292   -3.7361 H   0  0  0  0  0  0  0  0  0  0  0  0
    2.0003    5.5138   -0.9564 H   0  0  0  0  0  0  0  0  0  0  0  0
    0.2144    4.5725   -2.1672 H   0  0  0  0  0  0  0  0  0  0  0  0
   -0.4537    5.7019   -0.9657 H   0  0  0  0  0  0  0  0  0  0  0  0
   -1.8130    3.2102   -2.1441 H   0  0  0  0  0  0  0  0  0  0  0  0
   -2.1257    4.9088   -2.6039 H   0  0  0  0  0  0  0  0  0  0  0  0
   -0.9313    2.8671    1.4689 H   0  0  0  0  0  0  0  0  0  0  0  0
   -0.6583    4.6144    1.6150 H   0  0  0  0  0  0  0  0  0  0  0  0
   -4.5063    6.1928    0.2506 H   0  0  0  0  0  0  0  0  0  0  0  0
   -6.7679    6.6888   -0.6149 H   0  0  0  0  0  0  0  0  0  0  0  0
   -7.7353    5.3196   -2.4425 H   0  0  0  0  0  0  0  0  0  0  0  0
   -4.1367    2.9897   -2.6170 H   0  0  0  0  0  0  0  0  0  0  0  0
  1  2  1  0  0  0  0
  1  6  2  0  0  0  0
  1 27  1  0  0  0  0
  2  3  2  0  0  0  0
  2 28  1  0  0  0  0
  3  4  1  0  0  0  0
  3 29  1  0  0  0  0
  4  5  1  0  0  0  0
  4 10  2  0  0  0  0
  5  6  1  0  0  0  0
  5  7  2  0  0  0  0
  6 30  1  0  0  0  0
  7  8  1  0  0  0  0
  7 31  1  0  0  0  0
  8  9  2  0  0  0  0
  9 10  1  0  0  0  0
  9 32  1  0  0  0  0
 10 11  1  0  0  0  0
 11 12  2  0  0  0  0
 11 13  1  0  0  0  0
 13 14  1  0  0  0  0
 13 19  1  0  0  0  0
 14 15  1  0  0  0  0
 14 33  1  0  0  0  0
 14 34  1  0  0  0  0
 15 16  1  0  0  0  0
 15 35  1  0  0  0  0
 15 36  1  0  0  0  0
 16 17  1  0  0  0  0
 16 20  1  0  0  0  0
 17 18  2  0  0  0  0
 17 19  1  0  0  0  0
 19 37  1  0  0  0  0
 19 38  1  0  0  0  0
 20 21  1  0  0  0  0
 20 25  2  0  0  0  0
 21 22  2  0  0  0  0
 21 39  1  0  0  0  0
 22 23  1  0  0  0  0
 22 40  1  0  0  0  0
 23 24  2  0  0  0  0
 23 41  1  0  0  0  0
 24 25  1  0  0  0  0
 24 26  1  0  0  0  0
 25 42  1  0  0  0  0
M  END
$$$$
