
 OpenBabel07202414123D

 51 52  0  0  1  0  0  0  0  0999 V2000
    1.5494   -1.5663   -0.6460 C   0  0  0  0  0  0  0  0  0  0  0  0
    2.7768   -2.3005   -1.2036 C   0  0  0  0  0  0  0  0  0  0  0  0
    3.7102   -2.7258   -0.0610 C   0  0  0  0  0  0  0  0  0  0  0  0
    2.2775   -3.5814   -1.9065 C   0  0  0  0  0  0  0  0  0  0  0  0
    3.5017   -1.4656   -2.1836 N   0  0  0  0  0  0  0  0  0  0  0  0
    4.1959   -0.2916   -1.8857 C   0  0  0  0  0  0  0  0  0  0  0  0
    4.2621    0.1749   -0.7514 O   0  0  0  0  0  0  0  0  0  0  0  0
    4.9666    0.3253   -3.0887 C   0  0  3  0  0  0  0  0  0  0  0  0
    4.5322    1.7414   -3.4490 C   0  0  0  0  0  0  0  0  0  0  0  0
    4.2624    2.0726   -4.7861 C   0  0  0  0  0  0  0  0  0  0  0  0
    3.9119    3.3740   -5.1343 C   0  0  0  0  0  0  0  0  0  0  0  0
    3.8553    4.3244   -4.1327 C   0  0  0  0  0  0  0  0  0  0  0  0
    4.1037    4.0539   -2.8345 N   0  0  0  0  0  0  0  0  0  0  0  0
    4.4286    2.7752   -2.5216 C   0  0  0  0  0  0  0  0  0  0  0  0
    6.4495    0.2009   -3.0167 N   0  0  0  0  0  0  0  0  0  0  0  0
    7.1622    0.7482   -1.8417 C   0  0  0  0  0  0  0  0  0  0  0  0
    7.6391   -0.2562   -0.8111 C   0  0  0  0  0  0  0  0  0  0  0  0
    7.2596   -1.6070   -0.8499 C   0  0  0  0  0  0  0  0  0  0  0  0
    7.6810   -2.5082    0.1339 C   0  0  0  0  0  0  0  0  0  0  0  0
    8.4985   -2.0803    1.1750 C   0  0  0  0  0  0  0  0  0  0  0  0
    8.8918   -0.7455    1.2359 C   0  0  0  0  0  0  0  0  0  0  0  0
    8.4621    0.1591    0.2588 C   0  0  0  0  0  0  0  0  0  0  0  0
    8.9838    1.8004    0.4225 Cl  0  0  0  0  0  0  0  0  0  0  0  0
    7.0938   -0.1863   -4.1893 C   0  0  0  0  0  0  0  0  0  0  0  0
    6.4809   -0.4894   -5.2133 O   0  0  0  0  0  0  0  0  0  0  0  0
    8.5782   -0.2251   -4.1911 C   0  0  0  0  0  0  0  0  0  0  0  0
    9.2460    0.0141   -5.3291 C   0  0  0  0  0  0  0  0  0  0  0  0
    1.0117   -2.1925    0.0757 H   0  0  0  0  0  0  0  0  0  0  0  0
    0.8476   -1.3046   -1.4473 H   0  0  0  0  0  0  0  0  0  0  0  0
    1.8252   -0.6369   -0.1373 H   0  0  0  0  0  0  0  0  0  0  0  0
    3.2717   -3.5303    0.5396 H   0  0  0  0  0  0  0  0  0  0  0  0
    3.9249   -1.8959    0.6195 H   0  0  0  0  0  0  0  0  0  0  0  0
    4.6640   -3.0904   -0.4558 H   0  0  0  0  0  0  0  0  0  0  0  0
    1.7795   -4.2534   -1.1963 H   0  0  0  0  0  0  0  0  0  0  0  0
    3.1043   -4.1354   -2.3656 H   0  0  0  0  0  0  0  0  0  0  0  0
    1.5560   -3.3495   -2.6989 H   0  0  0  0  0  0  0  0  0  0  0  0
    3.4430   -1.7460   -3.1535 H   0  0  0  0  0  0  0  0  0  0  0  0
    4.6431   -0.2903   -3.9412 H   0  0  0  0  0  0  0  0  0  0  0  0
    4.3357    1.3181   -5.5672 H   0  0  0  0  0  0  0  0  0  0  0  0
    3.6994    3.6392   -6.1638 H   0  0  0  0  0  0  0  0  0  0  0  0
    3.6030    5.3575   -4.3530 H   0  0  0  0  0  0  0  0  0  0  0  0
    4.6162    2.6215   -1.4616 H   0  0  0  0  0  0  0  0  0  0  0  0
    6.5283    1.4833   -1.3445 H   0  0  0  0  0  0  0  0  0  0  0  0
    8.0336    1.2951   -2.2210 H   0  0  0  0  0  0  0  0  0  0  0  0
    6.6120   -1.9795   -1.6390 H   0  0  0  0  0  0  0  0  0  0  0  0
    7.3571   -3.5450    0.0922 H   0  0  0  0  0  0  0  0  0  0  0  0
    8.8223   -2.7815    1.9401 H   0  0  0  0  0  0  0  0  0  0  0  0
    9.5263   -0.4146    2.0554 H   0  0  0  0  0  0  0  0  0  0  0  0
    9.1059   -0.4764   -3.2823 H   0  0  0  0  0  0  0  0  0  0  0  0
    8.7270    0.2568   -6.2526 H   0  0  0  0  0  0  0  0  0  0  0  0
   10.3297   -0.0282   -5.3612 H   0  0  0  0  0  0  0  0  0  0  0  0
  1  2  1  0  0  0  0
  1 28  1  0  0  0  0
  1 29  1  0  0  0  0
  1 30  1  0  0  0  0
  2  3  1  0  0  0  0
  2  4  1  0  0  0  0
  2  5  1  0  0  0  0
  3 31  1  0  0  0  0
  3 32  1  0  0  0  0
  3 33  1  0  0  0  0
  4 34  1  0  0  0  0
  4 35  1  0  0  0  0
  4 36  1  0  0  0  0
  5  6  1  0  0  0  0
  5 37  1  0  0  0  0
  6  7  2  0  0  0  0
  6  8  1  0  0  0  0
  8  9  1  0  0  0  0
  8 15  1  0  0  0  0
  8 38  1  0  0  0  0
  9 10  1  0  0  0  0
  9 14  2  0  0  0  0
 10 11  2  0  0  0  0
 10 39  1  0  0  0  0
 11 12  1  0  0  0  0
 11 40  1  0  0  0  0
 12 13  2  0  0  0  0
 12 41  1  0  0  0  0
 13 14  1  0  0  0  0
 14 42  1  0  0  0  0
 15 16  1  0  0  0  0
 15 24  1  0  0  0  0
 16 17  1  0  0  0  0
 16 43  1  0  0  0  0
 16 44  1  0  0  0  0
 17 18  1  0  0  0  0
 17 22  2  0  0  0  0
 18 19  2  0  0  0  0
 18 45  1  0  0  0  0
 19 20  1  0  0  0  0
 19 46  1  0  0  0  0
 20 21  2  0  0  0  0
 20 47  1  0  0  0  0
 21 22  1  0  0  0  0
 21 48  1  0  0  0  0
 22 23  1  0  0  0  0
 24 25  2  0  0  0  0
 24 26  1  0  0  0  0
 26 27  2  0  0  0  0
 26 49  1  0  0  0  0
 27 50  1  0  0  0  0
 27 51  1  0  0  0  0
M  END
$$$$
