
 OpenBabel07202414133D

 51 54  0  0  0  0  0  0  0  0999 V2000
    2.6823    2.1233   -0.0662 C   0  0  0  0  0  0  0  0  0  0  0  0
    3.4586    0.8174    0.0827 C   0  0  0  0  0  0  0  0  0  0  0  0
    3.7510    0.5094    1.5456 C   0  0  0  0  0  0  0  0  0  0  0  0
    3.3354    1.2444    2.4363 O   0  0  0  0  0  0  0  0  0  0  0  0
    4.5226   -0.6334    1.7324 N   0  0  0  0  0  0  0  0  0  0  0  0
    4.9038   -1.1791    2.9888 C   0  0  0  0  0  0  0  0  0  0  0  0
    4.3517   -0.7592    4.2008 C   0  0  0  0  0  0  0  0  0  0  0  0
    4.7868   -1.2878    5.4224 C   0  0  0  0  0  0  0  0  0  0  0  0
    5.7545   -2.2857    5.4523 C   0  0  0  0  0  0  0  0  0  0  0  0
    6.2956   -2.7487    4.2448 C   0  0  0  0  0  0  0  0  0  0  0  0
    5.8710   -2.1923    3.0203 C   0  0  0  0  0  0  0  0  0  0  0  0
    6.1673   -2.8097    6.7206 N   0  0  0  0  0  0  0  0  0  0  0  0
    7.3896   -2.1530    7.2590 C   0  0  0  0  0  0  0  0  0  0  0  0
    7.1588   -0.9119    8.1132 C   0  0  0  0  0  0  0  0  0  0  0  0
    6.6285   -1.0210    9.4079 C   0  0  0  0  0  0  0  0  0  0  0  0
    6.4519    0.1119   10.2149 C   0  0  0  0  0  0  0  0  0  0  0  0
    6.8125    1.3720    9.7485 C   0  0  0  0  0  0  0  0  0  0  0  0
    7.3735    1.4991    8.4801 C   0  0  0  0  0  0  0  0  0  0  0  0
    7.5495    0.3658    7.6713 C   0  0  0  0  0  0  0  0  0  0  0  0
    5.9448   -4.1787    7.0511 C   0  0  0  0  0  0  0  0  0  0  0  0
    6.6695   -4.8673    7.7647 O   0  0  0  0  0  0  0  0  0  0  0  0
    4.7694   -4.7730    6.5044 N   0  0  0  0  0  0  0  0  0  0  0  0
    4.4759   -6.1176    6.2244 C   0  0  0  0  0  0  0  0  0  0  0  0
    5.1524   -7.3431    6.3693 C   0  0  0  0  0  0  0  0  0  0  0  0
    4.5462   -8.4852    5.8039 C   0  0  0  0  0  0  0  0  0  0  0  0
    3.3260   -8.4103    5.1319 C   0  0  0  0  0  0  0  0  0  0  0  0
    2.6466   -7.1952    5.0369 C   0  0  0  0  0  0  0  0  0  0  0  0
    3.2363   -6.0483    5.6001 C   0  0  0  0  0  0  0  0  0  0  0  0
    2.7635   -4.7761    5.6282 N   0  0  0  0  0  0  0  0  0  0  0  0
    3.6690   -4.0228    6.2245 N   0  0  0  0  0  0  0  0  0  0  0  0
    2.4435    2.3220   -1.1153 H   0  0  0  0  0  0  0  0  0  0  0  0
    3.2650    2.9695    0.3158 H   0  0  0  0  0  0  0  0  0  0  0  0
    1.7412    2.0925    0.4952 H   0  0  0  0  0  0  0  0  0  0  0  0
    4.4027    0.8922   -0.4673 H   0  0  0  0  0  0  0  0  0  0  0  0
    2.8693   -0.0032   -0.3403 H   0  0  0  0  0  0  0  0  0  0  0  0
    4.9184   -1.0678    0.9099 H   0  0  0  0  0  0  0  0  0  0  0  0
    3.5485   -0.0299    4.2396 H   0  0  0  0  0  0  0  0  0  0  0  0
    4.3220   -0.9450    6.3432 H   0  0  0  0  0  0  0  0  0  0  0  0
    7.0637   -3.5173    4.2378 H   0  0  0  0  0  0  0  0  0  0  0  0
    6.3247   -2.5555    2.1010 H   0  0  0  0  0  0  0  0  0  0  0  0
    8.0411   -1.8896    6.4136 H   0  0  0  0  0  0  0  0  0  0  0  0
    7.9734   -2.8645    7.8542 H   0  0  0  0  0  0  0  0  0  0  0  0
    6.3713   -1.9976    9.8104 H   0  0  0  0  0  0  0  0  0  0  0  0
    6.0429    0.0070   11.2177 H   0  0  0  0  0  0  0  0  0  0  0  0
    6.6703    2.2515   10.3742 H   0  0  0  0  0  0  0  0  0  0  0  0
    7.6817    2.4799    8.1249 H   0  0  0  0  0  0  0  0  0  0  0  0
    8.0154    0.4992    6.6970 H   0  0  0  0  0  0  0  0  0  0  0  0
    6.1044   -7.4242    6.8832 H   0  0  0  0  0  0  0  0  0  0  0  0
    5.0422   -9.4540    5.8805 H   0  0  0  0  0  0  0  0  0  0  0  0
    2.8928   -9.3035    4.6803 H   0  0  0  0  0  0  0  0  0  0  0  0
    1.6912   -7.1254    4.5280 H   0  0  0  0  0  0  0  0  0  0  0  0
  1  2  1  0  0  0  0
  1 31  1  0  0  0  0
  1 32  1  0  0  0  0
  1 33  1  0  0  0  0
  2  3  1  0  0  0  0
  2 34  1  0  0  0  0
  2 35  1  0  0  0  0
  3  4  2  0  0  0  0
  3  5  1  0  0  0  0
  5  6  1  0  0  0  0
  5 36  1  0  0  0  0
  6  7  1  0  0  0  0
  6 11  2  0  0  0  0
  7  8  2  0  0  0  0
  7 37  1  0  0  0  0
  8  9  1  0  0  0  0
  8 38  1  0  0  0  0
  9 10  2  0  0  0  0
  9 12  1  0  0  0  0
 10 11  1  0  0  0  0
 10 39  1  0  0  0  0
 11 40  1  0  0  0  0
 12 13  1  0  0  0  0
 12 20  1  0  0  0  0
 13 14  1  0  0  0  0
 13 41  1  0  0  0  0
 13 42  1  0  0  0  0
 14 15  1  0  0  0  0
 14 19  2  0  0  0  0
 15 16  2  0  0  0  0
 15 43  1  0  0  0  0
 16 17  1  0  0  0  0
 16 44  1  0  0  0  0
 17 18  2  0  0  0  0
 17 45  1  0  0  0  0
 18 19  1  0  0  0  0
 18 46  1  0  0  0  0
 19 47  1  0  0  0  0
 20 21  2  0  0  0  0
 20 22  1  0  0  0  0
 22 23  1  0  0  0  0
 22 30  1  0  0  0  0
 23 24  1  0  0  0  0
 23 28  2  0  0  0  0
 24 25  2  0  0  0  0
 24 48  1  0  0  0  0
 25 26  1  0  0  0  0
 25 49  1  0  0  0  0
 26 27  2  0  0  0  0
 26 50  1  0  0  0  0
 27 28  1  0  0  0  0
 27 51  1  0  0  0  0
 28 29  1  0  0  0  0
 29 30  2  0  0  0  0
M  END
$$$$
