
 OpenBabel07202414143D

 72 76  0  0  1  0  0  0  0  0999 V2000
    1.8311    0.0570   -3.1807 C   0  0  0  0  0  0  0  0  0  0  0  0
    2.9085    0.7527   -2.5226 N   0  0  0  0  0  0  0  0  0  0  0  0
    3.5971    0.1474   -1.4962 C   0  0  0  0  0  0  0  0  0  0  0  0
    3.3821   -1.0179   -1.1590 O   0  0  0  0  0  0  0  0  0  0  0  0
    4.5283    1.0420   -0.6699 C   0  0  0  0  0  0  0  0  0  0  0  0
    5.1891    2.1553   -1.3463 N   0  0  0  0  0  0  0  0  0  0  0  0
    6.6068    2.0856   -1.6438 C   0  0  0  0  0  0  0  0  0  0  0  0
    7.4621    3.1618   -0.9356 C   0  0  2  0  0  0  0  0  0  0  0  0
    8.6949    3.4186   -1.8204 C   0  0  0  0  0  0  0  0  0  0  0  0
    9.9028    3.1082   -0.9792 C   0  0  0  0  0  0  0  0  0  0  0  0
    9.4526    2.3774    0.1763 N   0  0  0  0  0  0  0  0  0  0  0  0
   10.4115    2.0504    1.2142 C   0  0  0  0  0  0  0  0  0  0  0  0
   10.0726    2.1852    2.5657 C   0  0  0  0  0  0  0  0  0  0  0  0
   10.9656    2.2212    3.5862 N   0  0  0  0  0  0  0  0  0  0  0  0
   12.2663    2.0742    3.2607 C   0  0  0  0  0  0  0  0  0  0  0  0
   12.7340    1.7974    1.9786 C   0  0  0  0  0  0  0  0  0  0  0  0
   14.1089    1.5742    1.7467 C   0  0  0  0  0  0  0  0  0  0  0  0
   14.5887    1.3109    0.4664 C   0  0  0  0  0  0  0  0  0  0  0  0
   13.7016    1.2219   -0.5910 C   0  0  0  0  0  0  0  0  0  0  0  0
   14.0260    1.0393   -1.9122 O   0  0  0  0  0  0  0  0  0  0  0  0
   15.4254    1.0824   -2.2350 C   0  0  0  0  0  0  0  0  0  0  0  0
   15.6112    1.1471   -3.7601 C   0  0  1  0  0  0  0  0  0  0  0  0
   14.8414    0.1073   -4.3829 O   0  0  0  0  0  0  0  0  0  0  0  0
   15.2106    2.5038   -4.3858 C   0  0  0  0  0  0  0  0  0  0  0  0
   15.9390    3.6907   -3.8916 N   0  0  0  0  0  0  0  0  0  0  0  0
   17.3767    3.6084   -4.1650 C   0  0  0  0  0  0  0  0  0  0  0  0
   15.3940    4.9010   -4.5178 C   0  0  0  0  0  0  0  0  0  0  0  0
   12.3289    1.3504   -0.3341 C   0  0  0  0  0  0  0  0  0  0  0  0
   11.7928    1.7416    0.9255 C   0  0  0  0  0  0  0  0  0  0  0  0
    8.0594    2.5542    0.3503 C   0  0  0  0  0  0  0  0  0  0  0  0
    7.3868    2.2351    1.3241 O   0  0  0  0  0  0  0  0  0  0  0  0
    6.6862    4.4702   -0.7600 C   0  0  0  0  0  0  0  0  0  0  0  0
    7.3342    5.6492   -0.3384 C   0  0  0  0  0  0  0  0  0  0  0  0
    6.6681    6.8792   -0.3566 C   0  0  0  0  0  0  0  0  0  0  0  0
    7.5227    8.3154    0.0510 Cl  0  0  0  0  0  0  0  0  0  0  0  0
    5.3355    6.9601   -0.7457 C   0  0  0  0  0  0  0  0  0  0  0  0
    4.6598    5.8006   -1.1181 C   0  0  0  0  0  0  0  0  0  0  0  0
    5.3268    4.5651   -1.1321 C   0  0  0  0  0  0  0  0  0  0  0  0
    4.5225    3.3554   -1.4526 C   0  0  0  0  0  0  0  0  0  0  0  0
    3.3246    3.4252   -1.7048 O   0  0  0  0  0  0  0  0  0  0  0  0
    1.3386    0.7364   -3.8795 H   0  0  0  0  0  0  0  0  0  0  0  0
    1.1100   -0.2959   -2.4363 H   0  0  0  0  0  0  0  0  0  0  0  0
    2.2373   -0.8041   -3.7185 H   0  0  0  0  0  0  0  0  0  0  0  0
    2.9219    1.7733   -2.5443 H   0  0  0  0  0  0  0  0  0  0  0  0
    5.2989    0.4029   -0.2264 H   0  0  0  0  0  0  0  0  0  0  0  0
    3.9304    1.4608    0.1493 H   0  0  0  0  0  0  0  0  0  0  0  0
    6.6516    2.2491   -2.7300 H   0  0  0  0  0  0  0  0  0  0  0  0
    6.9844    1.0708   -1.4713 H   0  0  0  0  0  0  0  0  0  0  0  0
    8.7677    4.4368   -2.2178 H   0  0  0  0  0  0  0  0  0  0  0  0
    8.7082    2.7666   -2.7016 H   0  0  0  0  0  0  0  0  0  0  0  0
   10.4043    4.0223   -0.6454 H   0  0  0  0  0  0  0  0  0  0  0  0
   10.5732    2.5386   -1.6104 H   0  0  0  0  0  0  0  0  0  0  0  0
    9.0536    2.3440    2.9035 H   0  0  0  0  0  0  0  0  0  0  0  0
   12.9529    2.1837    4.0986 H   0  0  0  0  0  0  0  0  0  0  0  0
   14.8144    1.6067    2.5735 H   0  0  0  0  0  0  0  0  0  0  0  0
   15.6538    1.1481    0.3401 H   0  0  0  0  0  0  0  0  0  0  0  0
   15.8757    0.1524   -1.8688 H   0  0  0  0  0  0  0  0  0  0  0  0
   15.9197    1.9421   -1.7685 H   0  0  0  0  0  0  0  0  0  0  0  0
   16.6591    0.9363   -3.9977 H   0  0  0  0  0  0  0  0  0  0  0  0
   13.9531    0.1540   -3.9810 H   0  0  0  0  0  0  0  0  0  0  0  0
   14.1352    2.6458   -4.2118 H   0  0  0  0  0  0  0  0  0  0  0  0
   15.3165    2.4231   -5.4775 H   0  0  0  0  0  0  0  0  0  0  0  0
   17.8412    2.8118   -3.5754 H   0  0  0  0  0  0  0  0  0  0  0  0
   17.8814    4.5345   -3.8654 H   0  0  0  0  0  0  0  0  0  0  0  0
   17.5893    3.4311   -5.2252 H   0  0  0  0  0  0  0  0  0  0  0  0
   14.3292    5.0109   -4.2846 H   0  0  0  0  0  0  0  0  0  0  0  0
   15.5109    4.8917   -5.6079 H   0  0  0  0  0  0  0  0  0  0  0  0
   15.8923    5.7955   -4.1267 H   0  0  0  0  0  0  0  0  0  0  0  0
   11.6670    1.0976   -1.1555 H   0  0  0  0  0  0  0  0  0  0  0  0
    8.3771    5.6280   -0.0296 H   0  0  0  0  0  0  0  0  0  0  0  0
    4.8152    7.9145   -0.7566 H   0  0  0  0  0  0  0  0  0  0  0  0
    3.6081    5.8614   -1.3951 H   0  0  0  0  0  0  0  0  0  0  0  0
  1  2  1  0  0  0  0
  1 41  1  0  0  0  0
  1 42  1  0  0  0  0
  1 43  1  0  0  0  0
  2  3  1  0  0  0  0
  2 44  1  0  0  0  0
  3  4  2  0  0  0  0
  3  5  1  0  0  0  0
  5  6  1  0  0  0  0
  5 45  1  0  0  0  0
  5 46  1  0  0  0  0
  6  7  1  0  0  0  0
  6 39  1  0  0  0  0
  7  8  1  0  0  0  0
  7 47  1  0  0  0  0
  7 48  1  0  0  0  0
  8  9  1  0  0  0  0
  8 30  1  1  0  0  0
  8 32  1  0  0  0  0
  9 10  1  0  0  0  0
  9 49  1  0  0  0  0
  9 50  1  0  0  0  0
 10 11  1  0  0  0  0
 10 51  1  0  0  0  0
 10 52  1  0  0  0  0
 11 12  1  0  0  0  0
 11 30  1  0  0  0  0
 12 13  1  0  0  0  0
 12 29  2  0  0  0  0
 13 14  2  0  0  0  0
 13 53  1  0  0  0  0
 14 15  1  0  0  0  0
 15 16  2  0  0  0  0
 15 54  1  0  0  0  0
 16 17  1  0  0  0  0
 16 29  1  0  0  0  0
 17 18  2  0  0  0  0
 17 55  1  0  0  0  0
 18 19  1  0  0  0  0
 18 56  1  0  0  0  0
 19 20  1  0  0  0  0
 19 28  2  0  0  0  0
 20 21  1  0  0  0  0
 21 22  1  0  0  0  0
 21 57  1  0  0  0  0
 21 58  1  0  0  0  0
 22 23  1  0  0  0  0
 22 24  1  0  0  0  0
 22 59  1  6  0  0  0
 23 60  1  0  0  0  0
 24 25  1  0  0  0  0
 24 61  1  0  0  0  0
 24 62  1  0  0  0  0
 25 26  1  0  0  0  0
 25 27  1  0  0  0  0
 26 63  1  0  0  0  0
 26 64  1  0  0  0  0
 26 65  1  0  0  0  0
 27 66  1  0  0  0  0
 27 67  1  0  0  0  0
 27 68  1  0  0  0  0
 28 29  1  0  0  0  0
 28 69  1  0  0  0  0
 30 31  2  0  0  0  0
 32 33  1  0  0  0  0
 32 38  2  0  0  0  0
 33 34  2  0  0  0  0
 33 70  1  0  0  0  0
 34 35  1  0  0  0  0
 34 36  1  0  0  0  0
 36 37  2  0  0  0  0
 36 71  1  0  0  0  0
 37 38  1  0  0  0  0
 37 72  1  0  0  0  0
 38 39  1  0  0  0  0
 39 40  2  0  0  0  0
M  END
$$$$
