
 OpenBabel07202414193D

 44 47  0  0  1  0  0  0  0  0999 V2000
    3.1002   -0.9941   -0.1504 O   0  0  0  0  0  0  0  0  0  0  0  0
    2.6309   -0.1068    0.5652 C   0  0  0  0  0  0  0  0  0  0  0  0
    1.6383   -0.4641    1.6788 C   0  0  0  0  0  0  0  0  0  0  0  0
    2.3211   -0.9221    2.9508 C   0  0  0  0  0  0  0  0  0  0  0  0
    3.0974   -2.0846    2.8780 C   0  0  0  0  0  0  0  0  0  0  0  0
    3.7707   -2.6282    3.9110 N   0  0  0  0  0  0  0  0  0  0  0  0
    3.6765   -1.9853    5.0907 C   0  0  0  0  0  0  0  0  0  0  0  0
    2.9381   -0.8242    5.3072 C   0  0  0  0  0  0  0  0  0  0  0  0
    2.9016   -0.2233    6.5775 C   0  0  0  0  0  0  0  0  0  0  0  0
    2.1576    0.9319    6.7990 C   0  0  0  0  0  0  0  0  0  0  0  0
    1.4360    1.4873    5.7526 C   0  0  0  0  0  0  0  0  0  0  0  0
    1.4617    0.8948    4.4830 C   0  0  0  0  0  0  0  0  0  0  0  0
    2.2246   -0.2704    4.2140 C   0  0  0  0  0  0  0  0  0  0  0  0
    2.9907    1.2201    0.4178 N   0  0  0  0  0  0  0  0  0  0  0  0
    2.6357    2.2748    1.3474 C   0  0  0  0  0  0  0  0  0  0  0  0
    3.1694    3.5360    0.7039 C   0  0  0  0  0  0  0  0  0  0  0  0
    4.4675    3.0540    0.0709 C   0  0  0  0  0  0  0  0  0  0  0  0
    4.1527    1.6175   -0.3952 C   0  0  2  0  0  0  0  0  0  0  0  0
    3.9909    1.5641   -1.9047 C   0  0  0  0  0  0  0  0  0  0  0  0
    5.1493    1.4459   -2.7014 C   0  0  0  0  0  0  0  0  0  0  0  0
    5.0745    1.4252   -4.0982 C   0  0  0  0  0  0  0  0  0  0  0  0
    3.8362    1.5285   -4.7224 C   0  0  0  0  0  0  0  0  0  0  0  0
    2.6902    1.6593   -3.9459 C   0  0  0  0  0  0  0  0  0  0  0  0
    1.4998    1.7748   -4.5492 F   0  0  0  0  0  0  0  0  0  0  0  0
    2.7552    1.6828   -2.5497 C   0  0  0  0  0  0  0  0  0  0  0  0
    1.0139   -1.2882    1.3078 H   0  0  0  0  0  0  0  0  0  0  0  0
    0.9282    0.3456    1.8450 H   0  0  0  0  0  0  0  0  0  0  0  0
    3.2000   -2.6337    1.9431 H   0  0  0  0  0  0  0  0  0  0  0  0
    4.2336   -2.4555    5.8972 H   0  0  0  0  0  0  0  0  0  0  0  0
    3.4572   -0.6557    7.4073 H   0  0  0  0  0  0  0  0  0  0  0  0
    2.1381    1.3878    7.7856 H   0  0  0  0  0  0  0  0  0  0  0  0
    0.8441    2.3849    5.9226 H   0  0  0  0  0  0  0  0  0  0  0  0
    0.8675    1.3662    3.7074 H   0  0  0  0  0  0  0  0  0  0  0  0
    3.1454    2.0721    2.2951 H   0  0  0  0  0  0  0  0  0  0  0  0
    1.5577    2.3222    1.5121 H   0  0  0  0  0  0  0  0  0  0  0  0
    3.3157    4.3422    1.4272 H   0  0  0  0  0  0  0  0  0  0  0  0
    2.4757    3.8841   -0.0701 H   0  0  0  0  0  0  0  0  0  0  0  0
    5.2501    3.0239    0.8399 H   0  0  0  0  0  0  0  0  0  0  0  0
    4.8069    3.7277   -0.7226 H   0  0  0  0  0  0  0  0  0  0  0  0
    4.9799    0.9504   -0.1188 H   0  0  0  0  0  0  0  0  0  0  0  0
    6.1297    1.3678   -2.2327 H   0  0  0  0  0  0  0  0  0  0  0  0
    5.9800    1.3259   -4.6916 H   0  0  0  0  0  0  0  0  0  0  0  0
    3.7554    1.5116   -5.8059 H   0  0  0  0  0  0  0  0  0  0  0  0
    1.8350    1.7918   -1.9890 H   0  0  0  0  0  0  0  0  0  0  0  0
  1  2  2  0  0  0  0
  2  3  1  0  0  0  0
  2 14  1  0  0  0  0
  3  4  1  0  0  0  0
  3 26  1  0  0  0  0
  3 27  1  0  0  0  0
  4  5  1  0  0  0  0
  4 13  2  0  0  0  0
  5  6  2  0  0  0  0
  5 28  1  0  0  0  0
  6  7  1  0  0  0  0
  7  8  2  0  0  0  0
  7 29  1  0  0  0  0
  8  9  1  0  0  0  0
  8 13  1  0  0  0  0
  9 10  2  0  0  0  0
  9 30  1  0  0  0  0
 10 11  1  0  0  0  0
 10 31  1  0  0  0  0
 11 12  2  0  0  0  0
 11 32  1  0  0  0  0
 12 13  1  0  0  0  0
 12 33  1  0  0  0  0
 14 15  1  0  0  0  0
 14 18  1  0  0  0  0
 15 16  1  0  0  0  0
 15 34  1  0  0  0  0
 15 35  1  0  0  0  0
 16 17  1  0  0  0  0
 16 36  1  0  0  0  0
 16 37  1  0  0  0  0
 17 18  1  0  0  0  0
 17 38  1  0  0  0  0
 17 39  1  0  0  0  0
 18 19  1  0  0  0  0
 18 40  1  1  0  0  0
 19 20  1  0  0  0  0
 19 25  2  0  0  0  0
 20 21  2  0  0  0  0
 20 41  1  0  0  0  0
 21 22  1  0  0  0  0
 21 42  1  0  0  0  0
 22 23  2  0  0  0  0
 22 43  1  0  0  0  0
 23 24  1  0  0  0  0
 23 25  1  0  0  0  0
 25 44  1  0  0  0  0
M  END
$$$$
