
 OpenBabel07202414143D

 55 58  0  0  1  0  0  0  0  0999 V2000
    5.0444   -1.3995    3.1449 C   0  0  0  0  0  0  0  0  0  0  0  0
    4.5993   -1.4587    1.7772 N   0  0  0  0  0  0  0  0  0  0  0  0
    5.3128   -0.8405    0.7692 C   0  0  0  0  0  0  0  0  0  0  0  0
    6.4087   -0.3243    1.0002 O   0  0  0  0  0  0  0  0  0  0  0  0
    4.7589   -1.0186   -0.6870 C   0  0  0  0  0  0  0  0  0  0  0  0
    3.2171   -0.8898   -0.6679 C   0  0  0  0  0  0  0  0  0  0  0  0
    5.3250    0.1579   -1.5094 C   0  0  0  0  0  0  0  0  0  0  0  0
    5.1445   -2.3444   -1.2736 N   0  0  0  0  0  0  0  0  0  0  0  0
    6.1068   -3.2373   -0.6256 C   0  0  0  0  0  0  0  0  0  0  0  0
    5.5220   -4.6316   -0.4012 C   0  0  3  0  0  0  0  0  0  0  0  0
    4.5435   -4.6293    0.7839 C   0  0  0  0  0  0  0  0  0  0  0  0
    3.3846   -4.2401    0.6848 O   0  0  0  0  0  0  0  0  0  0  0  0
    5.1361   -5.0683    1.9620 N   0  0  0  0  0  0  0  0  0  0  0  0
    4.5364   -5.1886    3.2447 C   0  0  0  0  0  0  0  0  0  0  0  0
    3.1823   -4.9435    3.4747 C   0  0  0  0  0  0  0  0  0  0  0  0
    2.6206   -4.8533    4.7014 N   0  0  0  0  0  0  0  0  0  0  0  0
    3.4236   -5.1036    5.7530 C   0  0  0  0  0  0  0  0  0  0  0  0
    4.7480   -5.5274    5.6567 C   0  0  0  0  0  0  0  0  0  0  0  0
    5.4700   -5.9337    6.7845 C   0  0  0  0  0  0  0  0  0  0  0  0
    6.7852   -6.3685    6.6812 C   0  0  0  0  0  0  0  0  0  0  0  0
    7.4028   -6.3777    5.4384 C   0  0  0  0  0  0  0  0  0  0  0  0
    6.6963   -5.9721    4.3012 C   0  0  0  0  0  0  0  0  0  0  0  0
    5.3418   -5.5555    4.3677 C   0  0  0  0  0  0  0  0  0  0  0  0
    4.8998   -5.1388   -1.6818 C   0  0  0  0  0  0  0  0  0  0  0  0
    4.6956   -6.5156   -1.8655 C   0  0  0  0  0  0  0  0  0  0  0  0
    4.1060   -6.9846   -3.0389 C   0  0  0  0  0  0  0  0  0  0  0  0
    3.8416   -8.6716   -3.2383 Cl  0  0  0  0  0  0  0  0  0  0  0  0
    3.7237   -6.0975   -4.0419 C   0  0  0  0  0  0  0  0  0  0  0  0
    3.9254   -4.7264   -3.8708 C   0  0  0  0  0  0  0  0  0  0  0  0
    4.5102   -4.2409   -2.6941 C   0  0  0  0  0  0  0  0  0  0  0  0
    4.6026   -2.7625   -2.4906 C   0  0  0  0  0  0  0  0  0  0  0  0
    4.1313   -2.0098   -3.3347 O   0  0  0  0  0  0  0  0  0  0  0  0
    4.2460   -1.7684    3.7923 H   0  0  0  0  0  0  0  0  0  0  0  0
    5.2911   -0.3657    3.4064 H   0  0  0  0  0  0  0  0  0  0  0  0
    5.9365   -2.0221    3.2557 H   0  0  0  0  0  0  0  0  0  0  0  0
    3.7897   -2.0310    1.5566 H   0  0  0  0  0  0  0  0  0  0  0  0
    2.8972    0.0198   -0.1500 H   0  0  0  0  0  0  0  0  0  0  0  0
    2.7459   -1.7451   -0.1722 H   0  0  0  0  0  0  0  0  0  0  0  0
    2.7922   -0.8553   -1.6760 H   0  0  0  0  0  0  0  0  0  0  0  0
    5.0708    1.1139   -1.0310 H   0  0  0  0  0  0  0  0  0  0  0  0
    4.9244    0.1938   -2.5261 H   0  0  0  0  0  0  0  0  0  0  0  0
    6.4166    0.1114   -1.5838 H   0  0  0  0  0  0  0  0  0  0  0  0
    6.5164   -2.8282    0.2982 H   0  0  0  0  0  0  0  0  0  0  0  0
    6.9542   -3.3196   -1.3220 H   0  0  0  0  0  0  0  0  0  0  0  0
    6.3609   -5.3001   -0.1590 H   0  0  0  0  0  0  0  0  0  0  0  0
    6.1382   -5.1969    1.9371 H   0  0  0  0  0  0  0  0  0  0  0  0
    2.4672   -4.8079    2.6700 H   0  0  0  0  0  0  0  0  0  0  0  0
    2.9521   -4.9578    6.7228 H   0  0  0  0  0  0  0  0  0  0  0  0
    4.9920   -5.9452    7.7694 H   0  0  0  0  0  0  0  0  0  0  0  0
    7.3191   -6.7258    7.5593 H   0  0  0  0  0  0  0  0  0  0  0  0
    8.4322   -6.7153    5.3454 H   0  0  0  0  0  0  0  0  0  0  0  0
    7.2275   -6.0311    3.3569 H   0  0  0  0  0  0  0  0  0  0  0  0
    4.9818   -7.2223   -1.0897 H   0  0  0  0  0  0  0  0  0  0  0  0
    3.2500   -6.4606   -4.9501 H   0  0  0  0  0  0  0  0  0  0  0  0
    3.5988   -4.0341   -4.6453 H   0  0  0  0  0  0  0  0  0  0  0  0
  1  2  1  0  0  0  0
  1 33  1  0  0  0  0
  1 34  1  0  0  0  0
  1 35  1  0  0  0  0
  2  3  1  0  0  0  0
  2 36  1  0  0  0  0
  3  4  2  0  0  0  0
  3  5  1  0  0  0  0
  5  6  1  0  0  0  0
  5  7  1  0  0  0  0
  5  8  1  0  0  0  0
  6 37  1  0  0  0  0
  6 38  1  0  0  0  0
  6 39  1  0  0  0  0
  7 40  1  0  0  0  0
  7 41  1  0  0  0  0
  7 42  1  0  0  0  0
  8  9  1  0  0  0  0
  8 31  1  0  0  0  0
  9 10  1  0  0  0  0
  9 43  1  0  0  0  0
  9 44  1  0  0  0  0
 10 11  1  0  0  0  0
 10 24  1  0  0  0  0
 10 45  1  0  0  0  0
 11 12  2  0  0  0  0
 11 13  1  0  0  0  0
 13 14  1  0  0  0  0
 13 46  1  0  0  0  0
 14 15  1  0  0  0  0
 14 23  2  0  0  0  0
 15 16  2  0  0  0  0
 15 47  1  0  0  0  0
 16 17  1  0  0  0  0
 17 18  2  0  0  0  0
 17 48  1  0  0  0  0
 18 19  1  0  0  0  0
 18 23  1  0  0  0  0
 19 20  2  0  0  0  0
 19 49  1  0  0  0  0
 20 21  1  0  0  0  0
 20 50  1  0  0  0  0
 21 22  2  0  0  0  0
 21 51  1  0  0  0  0
 22 23  1  0  0  0  0
 22 52  1  0  0  0  0
 24 25  1  0  0  0  0
 24 30  2  0  0  0  0
 25 26  2  0  0  0  0
 25 53  1  0  0  0  0
 26 27  1  0  0  0  0
 26 28  1  0  0  0  0
 28 29  2  0  0  0  0
 28 54  1  0  0  0  0
 29 30  1  0  0  0  0
 29 55  1  0  0  0  0
 30 31  1  0  0  0  0
 31 32  2  0  0  0  0
M  END
$$$$
