
 OpenBabel07202414193D

 31 32  0  0  0  0  0  0  0  0999 V2000
    1.3426    0.8584    0.2930 O   0  0  0  0  0  0  0  0  0  0  0  0
    2.3360    0.1662    0.0507 C   0  0  0  0  0  0  0  0  0  0  0  0
    2.8785   -0.7657    1.1178 C   0  0  0  0  0  0  0  0  0  0  0  0
    2.2028   -2.3876    0.8740 Cl  0  0  0  0  0  0  0  0  0  0  0  0
    2.9674    0.2114   -1.1870 N   0  0  0  0  0  0  0  0  0  0  0  0
    2.5498    1.2436   -2.1476 C   0  0  0  0  0  0  0  0  0  0  0  0
    2.5538    0.7339   -3.5995 C   0  0  0  0  0  0  0  0  0  0  0  0
    3.8368    0.0534   -3.9660 N   0  0  0  0  0  0  0  0  0  0  0  0
    5.1797    1.0466   -4.2950 S   0  0  0  0  0  0  0  0  0  0  0  0
    5.2802    2.0531   -3.2664 O   0  0  0  0  0  0  0  0  0  0  0  0
    6.2987    0.1854   -4.6137 O   0  0  0  0  0  0  0  0  0  0  0  0
    4.9173    1.9308   -5.7613 C   0  0  0  0  0  0  0  0  0  0  0  0
    4.8574    3.3560   -5.8422 C   0  0  0  0  0  0  0  0  0  0  0  0
    4.7281    3.7919   -7.1432 C   0  0  0  0  0  0  0  0  0  0  0  0
    4.6549    2.4898   -8.2529 S   0  0  0  0  0  0  0  0  0  0  0  0
    4.8117    1.3347   -6.9993 C   0  0  0  0  0  0  0  0  0  0  0  0
    4.1236   -1.0498   -2.9931 C   0  0  0  0  0  0  0  0  0  0  0  0
    4.1863   -0.5296   -1.5478 C   0  0  0  0  0  0  0  0  0  0  0  0
    2.5678   -0.4024    2.1022 H   0  0  0  0  0  0  0  0  0  0  0  0
    3.9697   -0.8108    1.1142 H   0  0  0  0  0  0  0  0  0  0  0  0
    3.2283    2.0923   -2.0202 H   0  0  0  0  0  0  0  0  0  0  0  0
    1.5481    1.6153   -1.9062 H   0  0  0  0  0  0  0  0  0  0  0  0
    2.3286    1.5403   -4.3044 H   0  0  0  0  0  0  0  0  0  0  0  0
    1.7522   -0.0069   -3.7113 H   0  0  0  0  0  0  0  0  0  0  0  0
    4.9382    4.0282   -4.9951 H   0  0  0  0  0  0  0  0  0  0  0  0
    4.6846    4.8127   -7.4997 H   0  0  0  0  0  0  0  0  0  0  0  0
    4.8534    0.2779   -7.2332 H   0  0  0  0  0  0  0  0  0  0  0  0
    5.0468   -1.5709   -3.2591 H   0  0  0  0  0  0  0  0  0  0  0  0
    3.3176   -1.7912   -3.0798 H   0  0  0  0  0  0  0  0  0  0  0  0
    5.0333    0.1507   -1.4086 H   0  0  0  0  0  0  0  0  0  0  0  0
    4.3433   -1.3808   -0.8832 H   0  0  0  0  0  0  0  0  0  0  0  0
  1  2  2  0  0  0  0
  2  3  1  0  0  0  0
  2  5  1  0  0  0  0
  3  4  1  0  0  0  0
  3 19  1  0  0  0  0
  3 20  1  0  0  0  0
  5  6  1  0  0  0  0
  5 18  1  0  0  0  0
  6  7  1  0  0  0  0
  6 21  1  0  0  0  0
  6 22  1  0  0  0  0
  7  8  1  0  0  0  0
  7 23  1  0  0  0  0
  7 24  1  0  0  0  0
  8  9  1  0  0  0  0
  8 17  1  0  0  0  0
  9 10  2  0  0  0  0
  9 11  2  0  0  0  0
  9 12  1  0  0  0  0
 12 13  1  0  0  0  0
 12 16  2  0  0  0  0
 13 14  2  0  0  0  0
 13 25  1  0  0  0  0
 14 15  1  0  0  0  0
 14 26  1  0  0  0  0
 15 16  1  0  0  0  0
 16 27  1  0  0  0  0
 17 18  1  0  0  0  0
 17 28  1  0  0  0  0
 17 29  1  0  0  0  0
 18 30  1  0  0  0  0
 18 31  1  0  0  0  0
M  END
$$$$
