
 OpenBabel07202414193D

 46 50  0  0  0  0  0  0  0  0999 V2000
    1.2079   -0.3844    1.1260 O   0  0  0  0  0  0  0  0  0  0  0  0
    2.1542   -0.0457    0.4104 C   0  0  0  0  0  0  0  0  0  0  0  0
    2.5205   -0.8904   -0.8069 C   0  0  0  0  0  0  0  0  0  0  0  0
    1.7043   -2.1595   -0.9230 C   0  0  0  0  0  0  0  0  0  0  0  0
    2.2518   -3.3461   -0.4344 C   0  0  0  0  0  0  0  0  0  0  0  0
    1.6176   -4.5328   -0.4324 N   0  0  0  0  0  0  0  0  0  0  0  0
    0.3536   -4.5311   -0.9035 C   0  0  0  0  0  0  0  0  0  0  0  0
   -0.3152   -3.4178   -1.4105 C   0  0  0  0  0  0  0  0  0  0  0  0
   -1.6433   -3.4963   -1.8761 C   0  0  0  0  0  0  0  0  0  0  0  0
   -2.2947   -2.3669   -2.3631 C   0  0  0  0  0  0  0  0  0  0  0  0
   -1.6285   -1.1548   -2.4185 C   0  0  0  0  0  0  0  0  0  0  0  0
   -0.3096   -1.0627   -1.9619 C   0  0  0  0  0  0  0  0  0  0  0  0
    0.3793   -2.1858   -1.4394 C   0  0  0  0  0  0  0  0  0  0  0  0
    2.8920    1.1281    0.6536 N   0  0  0  0  0  0  0  0  0  0  0  0
    3.8978    1.6297   -0.2978 C   0  0  0  0  0  0  0  0  0  0  0  0
    3.2449    2.3454   -1.4562 C   0  0  0  0  0  0  0  0  0  0  0  0
    3.2232    1.8108   -2.7543 C   0  0  0  0  0  0  0  0  0  0  0  0
    2.5066    2.4476   -3.7699 C   0  0  0  0  0  0  0  0  0  0  0  0
    1.8805    3.6661   -3.5236 C   0  0  0  0  0  0  0  0  0  0  0  0
    1.9290    4.2323   -2.2499 C   0  0  0  0  0  0  0  0  0  0  0  0
    2.5678    3.5444   -1.2202 C   0  0  0  0  0  0  0  0  0  0  0  0
    2.5055    4.0675    0.0433 O   0  0  0  0  0  0  0  0  0  0  0  0
    1.5883    3.2990    0.8497 C   0  0  0  0  0  0  0  0  0  0  0  0
    2.3047    2.1478    1.5648 C   0  0  0  0  0  0  0  0  0  0  0  0
    2.8906    2.5326    2.9158 C   0  0  0  0  0  0  0  0  0  0  0  0
    1.7154    1.6225    2.8771 C   0  0  0  0  0  0  0  0  0  0  0  0
    3.5874   -1.1383   -0.7919 H   0  0  0  0  0  0  0  0  0  0  0  0
    2.3316   -0.3102   -1.7064 H   0  0  0  0  0  0  0  0  0  0  0  0
    3.2513   -3.3728   -0.0073 H   0  0  0  0  0  0  0  0  0  0  0  0
   -0.1354   -5.5005   -0.8632 H   0  0  0  0  0  0  0  0  0  0  0  0
   -2.1819   -4.4439   -1.8288 H   0  0  0  0  0  0  0  0  0  0  0  0
   -3.3289   -2.4433   -2.7010 H   0  0  0  0  0  0  0  0  0  0  0  0
   -2.1329   -0.2733   -2.8066 H   0  0  0  0  0  0  0  0  0  0  0  0
    0.1665   -0.0867   -2.0104 H   0  0  0  0  0  0  0  0  0  0  0  0
    4.5176    0.8005   -0.6540 H   0  0  0  0  0  0  0  0  0  0  0  0
    4.5784    2.3086    0.2300 H   0  0  0  0  0  0  0  0  0  0  0  0
    3.7181    0.8683   -2.9813 H   0  0  0  0  0  0  0  0  0  0  0  0
    2.4259    1.9854   -4.7524 H   0  0  0  0  0  0  0  0  0  0  0  0
    1.3383    4.1720   -4.3184 H   0  0  0  0  0  0  0  0  0  0  0  0
    1.4563    5.1871   -2.0544 H   0  0  0  0  0  0  0  0  0  0  0  0
    0.7377    2.9297    0.2626 H   0  0  0  0  0  0  0  0  0  0  0  0
    1.1814    4.0080    1.5816 H   0  0  0  0  0  0  0  0  0  0  0  0
    2.6830    3.5129    3.3396 H   0  0  0  0  0  0  0  0  0  0  0  0
    3.8377    2.1204    3.2343 H   0  0  0  0  0  0  0  0  0  0  0  0
    0.7124    1.9522    3.1179 H   0  0  0  0  0  0  0  0  0  0  0  0
    1.9097    0.6015    3.1947 H   0  0  0  0  0  0  0  0  0  0  0  0
  1  2  2  0  0  0  0
  2  3  1  0  0  0  0
  2 14  1  0  0  0  0
  3  4  1  0  0  0  0
  3 27  1  0  0  0  0
  3 28  1  0  0  0  0
  4  5  1  0  0  0  0
  4 13  2  0  0  0  0
  5  6  2  0  0  0  0
  5 29  1  0  0  0  0
  6  7  1  0  0  0  0
  7  8  2  0  0  0  0
  7 30  1  0  0  0  0
  8  9  1  0  0  0  0
  8 13  1  0  0  0  0
  9 10  2  0  0  0  0
  9 31  1  0  0  0  0
 10 11  1  0  0  0  0
 10 32  1  0  0  0  0
 11 12  2  0  0  0  0
 11 33  1  0  0  0  0
 12 13  1  0  0  0  0
 12 34  1  0  0  0  0
 14 15  1  0  0  0  0
 14 24  1  0  0  0  0
 15 16  1  0  0  0  0
 15 35  1  0  0  0  0
 15 36  1  0  0  0  0
 16 17  1  0  0  0  0
 16 21  2  0  0  0  0
 17 18  2  0  0  0  0
 17 37  1  0  0  0  0
 18 19  1  0  0  0  0
 18 38  1  0  0  0  0
 19 20  2  0  0  0  0
 19 39  1  0  0  0  0
 20 21  1  0  0  0  0
 20 40  1  0  0  0  0
 21 22  1  0  0  0  0
 22 23  1  0  0  0  0
 23 24  1  0  0  0  0
 23 41  1  0  0  0  0
 23 42  1  0  0  0  0
 24 25  1  0  0  0  0
 24 26  1  0  0  0  0
 25 26  1  0  0  0  0
 25 43  1  0  0  0  0
 25 44  1  0  0  0  0
 26 45  1  0  0  0  0
 26 46  1  0  0  0  0
M  END
$$$$
