
 OpenBabel07202414163D

 34 36  0  0  0  0  0  0  0  0999 V2000
    1.0286   -0.4307   -0.0567 C   0  0  0  0  0  0  0  0  0  0  0  0
    2.4867   -0.0590   -0.0261 C   0  0  0  0  0  0  0  0  0  0  0  0
    3.3743   -1.2360    0.0013 C   0  0  0  0  0  0  0  0  0  0  0  0
    4.7039   -1.0771   -0.0768 C   0  0  0  0  0  0  0  0  0  0  0  0
    5.2098    0.2055   -0.1824 N   0  0  0  0  0  0  0  0  0  0  0  0
    6.5004    0.6463   -0.2816 C   0  0  0  0  0  0  0  0  0  0  0  0
    6.5192    1.9557   -0.3876 N   0  0  0  0  0  0  0  0  0  0  0  0
    5.2133    2.4000   -0.3448 N   0  0  0  0  0  0  0  0  0  0  0  0
    4.4296    1.3461   -0.2118 C   0  0  0  0  0  0  0  0  0  0  0  0
    3.0062    1.2027   -0.0877 C   0  0  0  0  0  0  0  0  0  0  0  0
    2.3206    2.4079   -0.0667 N   0  0  0  0  0  0  0  0  0  0  0  0
    1.1005    2.6861    0.5235 C   0  0  0  0  0  0  0  0  0  0  0  0
    0.4384    1.9065    1.2045 O   0  0  0  0  0  0  0  0  0  0  0  0
    0.6171    4.1164    0.3227 C   0  0  0  0  0  0  0  0  0  0  0  0
    0.9524    5.0279    1.4808 C   0  0  0  0  0  0  0  0  0  0  0  0
    1.5756    6.2626    1.2517 C   0  0  0  0  0  0  0  0  0  0  0  0
    1.8836    7.1119    2.3175 C   0  0  0  0  0  0  0  0  0  0  0  0
    1.5672    6.7406    3.6239 C   0  0  0  0  0  0  0  0  0  0  0  0
    0.9288    5.5267    3.8594 C   0  0  0  0  0  0  0  0  0  0  0  0
    0.6110    4.6785    2.7984 C   0  0  0  0  0  0  0  0  0  0  0  0
    0.5324    5.0687    5.4706 Cl  0  0  0  0  0  0  0  0  0  0  0  0
    0.8720   -1.4275   -0.4850 H   0  0  0  0  0  0  0  0  0  0  0  0
    0.4503    0.2526   -0.6867 H   0  0  0  0  0  0  0  0  0  0  0  0
    0.6168   -0.4553    0.9567 H   0  0  0  0  0  0  0  0  0  0  0  0
    2.9375   -2.2268    0.0881 H   0  0  0  0  0  0  0  0  0  0  0  0
    5.4015   -1.9058   -0.0621 H   0  0  0  0  0  0  0  0  0  0  0  0
    7.3584   -0.0113   -0.2717 H   0  0  0  0  0  0  0  0  0  0  0  0
    2.9080    3.2173   -0.2638 H   0  0  0  0  0  0  0  0  0  0  0  0
   -0.4732    4.0881    0.1978 H   0  0  0  0  0  0  0  0  0  0  0  0
    1.0198    4.5098   -0.6182 H   0  0  0  0  0  0  0  0  0  0  0  0
    1.8270    6.5770    0.2406 H   0  0  0  0  0  0  0  0  0  0  0  0
    2.3726    8.0644    2.1289 H   0  0  0  0  0  0  0  0  0  0  0  0
    1.8172    7.4005    4.4500 H   0  0  0  0  0  0  0  0  0  0  0  0
    0.1006    3.7386    3.0040 H   0  0  0  0  0  0  0  0  0  0  0  0
  1  2  1  0  0  0  0
  1 22  1  0  0  0  0
  1 23  1  0  0  0  0
  1 24  1  0  0  0  0
  2  3  1  0  0  0  0
  2 10  2  0  0  0  0
  3  4  2  0  0  0  0
  3 25  1  0  0  0  0
  4  5  1  0  0  0  0
  4 26  1  0  0  0  0
  5  6  1  0  0  0  0
  5  9  1  0  0  0  0
  6  7  2  0  0  0  0
  6 27  1  0  0  0  0
  7  8  1  0  0  0  0
  8  9  2  0  0  0  0
  9 10  1  0  0  0  0
 10 11  1  0  0  0  0
 11 12  1  0  0  0  0
 11 28  1  0  0  0  0
 12 13  2  0  0  0  0
 12 14  1  0  0  0  0
 14 15  1  0  0  0  0
 14 29  1  0  0  0  0
 14 30  1  0  0  0  0
 15 16  1  0  0  0  0
 15 20  2  0  0  0  0
 16 17  2  0  0  0  0
 16 31  1  0  0  0  0
 17 18  1  0  0  0  0
 17 32  1  0  0  0  0
 18 19  2  0  0  0  0
 18 33  1  0  0  0  0
 19 20  1  0  0  0  0
 19 21  1  0  0  0  0
 20 34  1  0  0  0  0
M  END
$$$$
