
 OpenBabel07202414133D

 69 73  0  0  1  0  0  0  0  0999 V2000
    8.1468  -11.8392   -2.3938 C   0  0  0  0  0  0  0  0  0  0  0  0
    8.7902  -10.6084   -1.9237 N   0  0  0  0  0  0  0  0  0  0  0  0
   10.2293  -10.8351   -1.7743 C   0  0  0  0  0  0  0  0  0  0  0  0
    8.4864   -9.4988   -2.8528 C   0  0  0  0  0  0  0  0  0  0  0  0
    9.0721   -8.1400   -2.4345 C   0  0  0  0  0  0  0  0  0  0  0  0
    8.6967   -7.1361   -3.3898 O   0  0  0  0  0  0  0  0  0  0  0  0
    9.2008   -5.8780   -3.1657 C   0  0  0  0  0  0  0  0  0  0  0  0
   10.0154   -5.5220   -2.0928 C   0  0  0  0  0  0  0  0  0  0  0  0
   10.4631   -4.2100   -1.9615 C   0  0  0  0  0  0  0  0  0  0  0  0
   10.0759   -3.2260   -2.8828 C   0  0  0  0  0  0  0  0  0  0  0  0
   10.4957   -1.9048   -2.7229 C   0  0  0  0  0  0  0  0  0  0  0  0
   10.1170   -0.8783   -3.5092 N   0  0  0  0  0  0  0  0  0  0  0  0
    9.2476   -1.1788   -4.4960 C   0  0  0  0  0  0  0  0  0  0  0  0
    8.7822   -2.4651   -4.7816 C   0  0  0  0  0  0  0  0  0  0  0  0
    7.8722   -2.6268   -5.8586 N   0  0  0  0  0  0  0  0  0  0  0  0
    6.6638   -1.9279   -5.8614 C   0  0  0  0  0  0  0  0  0  0  0  0
    6.2910   -1.2331   -4.9156 O   0  0  0  0  0  0  0  0  0  0  0  0
    5.8391   -2.0580   -7.1481 C   0  0  3  0  0  0  0  0  0  0  0  0
    6.3001   -0.9476   -8.1088 C   0  0  0  0  0  0  0  0  0  0  0  0
    5.8641    0.3866   -7.5917 N   0  0  0  0  0  0  0  0  0  0  0  0
    6.7044    1.7098   -8.2341 S   0  0  0  0  0  0  0  0  0  0  0  0
    8.1040    1.4546   -7.9629 O   0  0  0  0  0  0  0  0  0  0  0  0
    6.2264    1.8899   -9.5825 O   0  0  0  0  0  0  0  0  0  0  0  0
    6.1373    3.0937   -7.2181 C   0  0  0  0  0  0  0  0  0  0  0  0
    6.8302    4.3370   -7.7266 C   0  0  0  0  0  0  0  0  0  0  0  0
    8.2656    4.3870   -7.5586 C   0  0  0  0  0  0  0  0  0  0  0  0
    9.4063    4.4936   -7.4074 N   0  0  0  0  0  0  0  0  0  0  0  0
    6.2079    5.1202   -8.8722 C   0  0  0  0  0  0  0  0  0  0  0  0
    6.1259    5.6715   -7.4820 C   0  0  0  0  0  0  0  0  0  0  0  0
    4.3930    0.5069   -7.5582 C   0  0  0  0  0  0  0  0  0  0  0  0
    3.6748   -0.7261   -7.0628 C   0  0  0  0  0  0  0  0  0  0  0  0
    2.3029   -0.6224   -6.7693 C   0  0  0  0  0  0  0  0  0  0  0  0
    1.5907   -1.7288   -6.3167 C   0  0  0  0  0  0  0  0  0  0  0  0
    2.2403   -2.9503   -6.1715 C   0  0  0  0  0  0  0  0  0  0  0  0
    1.3504   -4.3192   -5.6263 Cl  0  0  0  0  0  0  0  0  0  0  0  0
    3.6029   -3.0743   -6.4589 C   0  0  0  0  0  0  0  0  0  0  0  0
    4.3376   -1.9602   -6.8990 C   0  0  0  0  0  0  0  0  0  0  0  0
    9.2248   -3.5430   -3.9692 C   0  0  0  0  0  0  0  0  0  0  0  0
    8.8205   -4.8981   -4.0988 C   0  0  0  0  0  0  0  0  0  0  0  0
    8.3268  -12.6613   -1.6917 H   0  0  0  0  0  0  0  0  0  0  0  0
    8.5141  -12.1444   -3.3805 H   0  0  0  0  0  0  0  0  0  0  0  0
    7.0605  -11.7108   -2.4520 H   0  0  0  0  0  0  0  0  0  0  0  0
   10.4215  -11.7058   -1.1368 H   0  0  0  0  0  0  0  0  0  0  0  0
   10.7106   -9.9908   -1.2704 H   0  0  0  0  0  0  0  0  0  0  0  0
   10.7242  -10.9986   -2.7382 H   0  0  0  0  0  0  0  0  0  0  0  0
    7.3964   -9.3777   -2.9188 H   0  0  0  0  0  0  0  0  0  0  0  0
    8.8238   -9.7351   -3.8701 H   0  0  0  0  0  0  0  0  0  0  0  0
   10.1651   -8.2088   -2.4116 H   0  0  0  0  0  0  0  0  0  0  0  0
    8.6848   -7.8721   -1.4438 H   0  0  0  0  0  0  0  0  0  0  0  0
   10.3118   -6.2322   -1.3264 H   0  0  0  0  0  0  0  0  0  0  0  0
   11.0896   -3.9543   -1.1088 H   0  0  0  0  0  0  0  0  0  0  0  0
   11.1627   -1.6186   -1.9134 H   0  0  0  0  0  0  0  0  0  0  0  0
    8.9454   -0.3288   -5.1041 H   0  0  0  0  0  0  0  0  0  0  0  0
    8.0132   -3.4113   -6.4813 H   0  0  0  0  0  0  0  0  0  0  0  0
    6.0519   -3.0298   -7.6119 H   0  0  0  0  0  0  0  0  0  0  0  0
    5.8679   -1.1038   -9.1055 H   0  0  0  0  0  0  0  0  0  0  0  0
    7.3902   -0.9834   -8.2113 H   0  0  0  0  0  0  0  0  0  0  0  0
    6.3661    2.8860   -6.1698 H   0  0  0  0  0  0  0  0  0  0  0  0
    5.0556    3.1825   -7.3576 H   0  0  0  0  0  0  0  0  0  0  0  0
    5.2895    4.7615   -9.3259 H   0  0  0  0  0  0  0  0  0  0  0  0
    6.8698    5.6086   -9.5816 H   0  0  0  0  0  0  0  0  0  0  0  0
    5.1579    5.6819   -6.9926 H   0  0  0  0  0  0  0  0  0  0  0  0
    6.7292    6.5464   -7.2521 H   0  0  0  0  0  0  0  0  0  0  0  0
    4.0108    0.7519   -8.5565 H   0  0  0  0  0  0  0  0  0  0  0  0
    4.1340    1.3113   -6.8626 H   0  0  0  0  0  0  0  0  0  0  0  0
    1.7892    0.3308   -6.8754 H   0  0  0  0  0  0  0  0  0  0  0  0
    0.5348   -1.6285   -6.0769 H   0  0  0  0  0  0  0  0  0  0  0  0
    4.0882   -4.0379   -6.3252 H   0  0  0  0  0  0  0  0  0  0  0  0
    8.1665   -5.1980   -4.9129 H   0  0  0  0  0  0  0  0  0  0  0  0
  1  2  1  0  0  0  0
  1 40  1  0  0  0  0
  1 41  1  0  0  0  0
  1 42  1  0  0  0  0
  2  3  1  0  0  0  0
  2  4  1  0  0  0  0
  3 43  1  0  0  0  0
  3 44  1  0  0  0  0
  3 45  1  0  0  0  0
  4  5  1  0  0  0  0
  4 46  1  0  0  0  0
  4 47  1  0  0  0  0
  5  6  1  0  0  0  0
  5 48  1  0  0  0  0
  5 49  1  0  0  0  0
  6  7  1  0  0  0  0
  7  8  1  0  0  0  0
  7 39  2  0  0  0  0
  8  9  2  0  0  0  0
  8 50  1  0  0  0  0
  9 10  1  0  0  0  0
  9 51  1  0  0  0  0
 10 11  1  0  0  0  0
 10 38  2  0  0  0  0
 11 12  2  0  0  0  0
 11 52  1  0  0  0  0
 12 13  1  0  0  0  0
 13 14  2  0  0  0  0
 13 53  1  0  0  0  0
 14 15  1  0  0  0  0
 14 38  1  0  0  0  0
 15 16  1  0  0  0  0
 15 54  1  0  0  0  0
 16 17  2  0  0  0  0
 16 18  1  0  0  0  0
 18 19  1  0  0  0  0
 18 37  1  0  0  0  0
 18 55  1  0  0  0  0
 19 20  1  0  0  0  0
 19 56  1  0  0  0  0
 19 57  1  0  0  0  0
 20 21  1  0  0  0  0
 20 30  1  0  0  0  0
 21 22  2  0  0  0  0
 21 23  2  0  0  0  0
 21 24  1  0  0  0  0
 24 25  1  0  0  0  0
 24 58  1  0  0  0  0
 24 59  1  0  0  0  0
 25 26  1  0  0  0  0
 25 28  1  0  0  0  0
 25 29  1  0  0  0  0
 26 27  3  0  0  0  0
 28 29  1  0  0  0  0
 28 60  1  0  0  0  0
 28 61  1  0  0  0  0
 29 62  1  0  0  0  0
 29 63  1  0  0  0  0
 30 31  1  0  0  0  0
 30 64  1  0  0  0  0
 30 65  1  0  0  0  0
 31 32  1  0  0  0  0
 31 37  2  0  0  0  0
 32 33  2  0  0  0  0
 32 66  1  0  0  0  0
 33 34  1  0  0  0  0
 33 67  1  0  0  0  0
 34 35  1  0  0  0  0
 34 36  2  0  0  0  0
 36 37  1  0  0  0  0
 36 68  1  0  0  0  0
 38 39  1  0  0  0  0
 39 69  1  0  0  0  0
M  END
$$$$
