
 OpenBabel07202414133D

 56 59  0  0  0  0  0  0  0  0999 V2000
    0.6372   -2.8122   -1.8422 C   0  0  0  0  0  0  0  0  0  0  0  0
    2.0822   -3.0326   -2.2500 C   0  0  0  0  0  0  0  0  0  0  0  0
    2.9196   -2.7268   -1.1350 O   0  0  0  0  0  0  0  0  0  0  0  0
    4.2707   -2.8472   -1.3292 C   0  0  0  0  0  0  0  0  0  0  0  0
    4.8922   -3.2596   -2.5067 C   0  0  0  0  0  0  0  0  0  0  0  0
    6.2873   -3.3529   -2.5761 C   0  0  0  0  0  0  0  0  0  0  0  0
    7.0833   -3.0370   -1.4673 C   0  0  0  0  0  0  0  0  0  0  0  0
    8.5799   -3.2318   -1.5078 C   0  0  0  0  0  0  0  0  0  0  0  0
    9.2874   -1.9618   -1.3460 N   0  0  0  0  0  0  0  0  0  0  0  0
   10.6885   -1.9996   -1.2655 C   0  0  0  0  0  0  0  0  0  0  0  0
   11.4549   -0.8870   -1.6841 C   0  0  0  0  0  0  0  0  0  0  0  0
   12.8577   -0.8677   -1.5679 C   0  0  0  0  0  0  0  0  0  0  0  0
   13.7292    0.3193   -1.9166 C   0  0  0  0  0  0  0  0  0  0  0  0
   13.2839    1.2130   -3.0537 C   0  0  0  0  0  0  0  0  0  0  0  0
   12.7890    2.3194   -2.8318 O   0  0  0  0  0  0  0  0  0  0  0  0
   13.5271    0.6851   -4.3169 N   0  0  0  0  0  0  0  0  0  0  0  0
   13.1573    1.4564   -5.4498 C   0  0  0  0  0  0  0  0  0  0  0  0
   13.7228    2.7190   -5.6511 C   0  0  0  0  0  0  0  0  0  0  0  0
   13.3596    3.5666   -6.6390 N   0  0  0  0  0  0  0  0  0  0  0  0
   12.2823    3.2004   -7.3622 C   0  0  0  0  0  0  0  0  0  0  0  0
   11.5773    2.0034   -7.1784 C   0  0  0  0  0  0  0  0  0  0  0  0
   10.3379    1.7749   -7.7986 C   0  0  0  0  0  0  0  0  0  0  0  0
    9.6643    0.5683   -7.6106 C   0  0  0  0  0  0  0  0  0  0  0  0
   10.2626   -0.4534   -6.8872 C   0  0  0  0  0  0  0  0  0  0  0  0
   11.4761   -0.2236   -6.2353 C   0  0  0  0  0  0  0  0  0  0  0  0
   12.1069    1.0432   -6.2958 C   0  0  0  0  0  0  0  0  0  0  0  0
   13.4921   -1.9618   -0.9658 C   0  0  0  0  0  0  0  0  0  0  0  0
   12.7537   -3.0443   -0.4974 C   0  0  0  0  0  0  0  0  0  0  0  0
   13.5455   -4.3446    0.2935 Cl  0  0  0  0  0  0  0  0  0  0  0  0
   11.3665   -3.0569   -0.6373 C   0  0  0  0  0  0  0  0  0  0  0  0
    6.4504   -2.6163   -0.2873 C   0  0  0  0  0  0  0  0  0  0  0  0
    5.0574   -2.5265   -0.2212 C   0  0  0  0  0  0  0  0  0  0  0  0
   -0.0385   -3.0450   -2.6718 H   0  0  0  0  0  0  0  0  0  0  0  0
    0.4757   -1.7722   -1.5377 H   0  0  0  0  0  0  0  0  0  0  0  0
    0.3757   -3.4414   -0.9865 H   0  0  0  0  0  0  0  0  0  0  0  0
    2.3169   -2.3727   -3.0933 H   0  0  0  0  0  0  0  0  0  0  0  0
    2.2121   -4.0809   -2.5439 H   0  0  0  0  0  0  0  0  0  0  0  0
    4.3228   -3.5282   -3.3904 H   0  0  0  0  0  0  0  0  0  0  0  0
    6.7449   -3.6940   -3.5015 H   0  0  0  0  0  0  0  0  0  0  0  0
    8.8716   -3.6924   -2.4603 H   0  0  0  0  0  0  0  0  0  0  0  0
    8.8171   -3.9462   -0.7123 H   0  0  0  0  0  0  0  0  0  0  0  0
    8.9485   -1.2547   -1.9939 H   0  0  0  0  0  0  0  0  0  0  0  0
   10.9345   -0.0165   -2.0889 H   0  0  0  0  0  0  0  0  0  0  0  0
   14.7366   -0.0293   -2.1752 H   0  0  0  0  0  0  0  0  0  0  0  0
   13.8347    0.9455   -1.0211 H   0  0  0  0  0  0  0  0  0  0  0  0
   13.3734   -0.3130   -4.3689 H   0  0  0  0  0  0  0  0  0  0  0  0
   14.5011    3.0964   -4.9955 H   0  0  0  0  0  0  0  0  0  0  0  0
   11.9746    3.9256   -8.1087 H   0  0  0  0  0  0  0  0  0  0  0  0
    9.8604    2.5634   -8.3752 H   0  0  0  0  0  0  0  0  0  0  0  0
    8.6713    0.4301   -8.0283 H   0  0  0  0  0  0  0  0  0  0  0  0
    9.7727   -1.4185   -6.7918 H   0  0  0  0  0  0  0  0  0  0  0  0
   11.9069   -1.0389   -5.6637 H   0  0  0  0  0  0  0  0  0  0  0  0
   14.5740   -1.9607   -0.8173 H   0  0  0  0  0  0  0  0  0  0  0  0
   10.8264   -3.8938   -0.2122 H   0  0  0  0  0  0  0  0  0  0  0  0
    7.0462   -2.3735    0.5917 H   0  0  0  0  0  0  0  0  0  0  0  0
    4.5826   -2.2110    0.7045 H   0  0  0  0  0  0  0  0  0  0  0  0
  1  2  1  0  0  0  0
  1 33  1  0  0  0  0
  1 34  1  0  0  0  0
  1 35  1  0  0  0  0
  2  3  1  0  0  0  0
  2 36  1  0  0  0  0
  2 37  1  0  0  0  0
  3  4  1  0  0  0  0
  4  5  2  0  0  0  0
  4 32  1  0  0  0  0
  5  6  1  0  0  0  0
  5 38  1  0  0  0  0
  6  7  2  0  0  0  0
  6 39  1  0  0  0  0
  7  8  1  0  0  0  0
  7 31  1  0  0  0  0
  8  9  1  0  0  0  0
  8 40  1  0  0  0  0
  8 41  1  0  0  0  0
  9 10  1  0  0  0  0
  9 42  1  0  0  0  0
 10 11  2  0  0  0  0
 10 30  1  0  0  0  0
 11 12  1  0  0  0  0
 11 43  1  0  0  0  0
 12 13  1  0  0  0  0
 12 27  2  0  0  0  0
 13 14  1  0  0  0  0
 13 44  1  0  0  0  0
 13 45  1  0  0  0  0
 14 15  2  0  0  0  0
 14 16  1  0  0  0  0
 16 17  1  0  0  0  0
 16 46  1  0  0  0  0
 17 18  2  0  0  0  0
 17 26  1  0  0  0  0
 18 19  1  0  0  0  0
 18 47  1  0  0  0  0
 19 20  2  0  0  0  0
 20 21  1  0  0  0  0
 20 48  1  0  0  0  0
 21 22  2  0  0  0  0
 21 26  1  0  0  0  0
 22 23  1  0  0  0  0
 22 49  1  0  0  0  0
 23 24  2  0  0  0  0
 23 50  1  0  0  0  0
 24 25  1  0  0  0  0
 24 51  1  0  0  0  0
 25 26  2  0  0  0  0
 25 52  1  0  0  0  0
 27 28  1  0  0  0  0
 27 53  1  0  0  0  0
 28 29  1  0  0  0  0
 28 30  2  0  0  0  0
 30 54  1  0  0  0  0
 31 32  2  0  0  0  0
 31 55  1  0  0  0  0
 32 56  1  0  0  0  0
M  END
$$$$
