
 OpenBabel07202414153D

 41 43  0  0  0  0  0  0  0  0999 V2000
    6.1285   -2.6152    0.2985 C   0  0  0  0  0  0  0  0  0  0  0  0
    5.7237   -1.2671    0.5276 O   0  0  0  0  0  0  0  0  0  0  0  0
    4.7112   -1.0815    1.4359 C   0  0  0  0  0  0  0  0  0  0  0  0
    4.2391   -2.0780    2.2992 C   0  0  0  0  0  0  0  0  0  0  0  0
    3.1906   -1.8191    3.1838 C   0  0  0  0  0  0  0  0  0  0  0  0
    2.5886   -0.5618    3.2158 C   0  0  0  0  0  0  0  0  0  0  0  0
    1.4634   -0.2789    4.1676 C   0  0  0  0  0  0  0  0  0  0  0  0
    3.0660    0.4420    2.3608 C   0  0  0  0  0  0  0  0  0  0  0  0
    4.1478    0.2068    1.4899 C   0  0  0  0  0  0  0  0  0  0  0  0
    4.7059    1.3610    0.6818 C   0  0  0  0  0  0  0  0  0  0  0  0
    4.0193    1.6125   -0.6468 C   0  0  0  0  0  0  0  0  0  0  0  0
    3.1853    2.5038   -0.7818 O   0  0  0  0  0  0  0  0  0  0  0  0
    4.4227    0.7524   -1.6507 N   0  0  0  0  0  0  0  0  0  0  0  0
    3.9155    0.8180   -2.9714 C   0  0  0  0  0  0  0  0  0  0  0  0
    3.7879    2.0353   -3.6464 C   0  0  0  0  0  0  0  0  0  0  0  0
    3.3680    2.1639   -4.9253 N   0  0  0  0  0  0  0  0  0  0  0  0
    3.0163    1.0214   -5.5535 C   0  0  0  0  0  0  0  0  0  0  0  0
    3.0722   -0.2526   -4.9791 C   0  0  0  0  0  0  0  0  0  0  0  0
    2.6478   -1.3958   -5.6782 C   0  0  0  0  0  0  0  0  0  0  0  0
    2.6718   -2.6519   -5.0743 C   0  0  0  0  0  0  0  0  0  0  0  0
    3.1290   -2.7789   -3.7696 C   0  0  0  0  0  0  0  0  0  0  0  0
    3.5659   -1.6524   -3.0685 C   0  0  0  0  0  0  0  0  0  0  0  0
    3.5524   -0.3647   -3.6534 C   0  0  0  0  0  0  0  0  0  0  0  0
    6.9047   -2.6075   -0.4716 H   0  0  0  0  0  0  0  0  0  0  0  0
    5.2889   -3.2105   -0.0772 H   0  0  0  0  0  0  0  0  0  0  0  0
    6.5628   -3.0672    1.1970 H   0  0  0  0  0  0  0  0  0  0  0  0
    4.6766   -3.0705    2.3297 H   0  0  0  0  0  0  0  0  0  0  0  0
    2.8522   -2.6097    3.8509 H   0  0  0  0  0  0  0  0  0  0  0  0
    1.2409   -1.1496    4.7946 H   0  0  0  0  0  0  0  0  0  0  0  0
    0.5548   -0.0223    3.6152 H   0  0  0  0  0  0  0  0  0  0  0  0
    1.7309    0.5478    4.8332 H   0  0  0  0  0  0  0  0  0  0  0  0
    2.6039    1.4286    2.3901 H   0  0  0  0  0  0  0  0  0  0  0  0
    5.7802    1.2334    0.5075 H   0  0  0  0  0  0  0  0  0  0  0  0
    4.6256    2.2842    1.2708 H   0  0  0  0  0  0  0  0  0  0  0  0
    4.8228   -0.1223   -1.3351 H   0  0  0  0  0  0  0  0  0  0  0  0
    4.0708    2.9728   -3.1779 H   0  0  0  0  0  0  0  0  0  0  0  0
    2.6635    1.1611   -6.5697 H   0  0  0  0  0  0  0  0  0  0  0  0
    2.2729   -1.3132   -6.6974 H   0  0  0  0  0  0  0  0  0  0  0  0
    2.3178   -3.5271   -5.6138 H   0  0  0  0  0  0  0  0  0  0  0  0
    3.1281   -3.7498   -3.2812 H   0  0  0  0  0  0  0  0  0  0  0  0
    3.8750   -1.7940   -2.0398 H   0  0  0  0  0  0  0  0  0  0  0  0
  1  2  1  0  0  0  0
  1 24  1  0  0  0  0
  1 25  1  0  0  0  0
  1 26  1  0  0  0  0
  2  3  1  0  0  0  0
  3  4  1  0  0  0  0
  3  9  2  0  0  0  0
  4  5  2  0  0  0  0
  4 27  1  0  0  0  0
  5  6  1  0  0  0  0
  5 28  1  0  0  0  0
  6  7  1  0  0  0  0
  6  8  2  0  0  0  0
  7 29  1  0  0  0  0
  7 30  1  0  0  0  0
  7 31  1  0  0  0  0
  8  9  1  0  0  0  0
  8 32  1  0  0  0  0
  9 10  1  0  0  0  0
 10 11  1  0  0  0  0
 10 33  1  0  0  0  0
 10 34  1  0  0  0  0
 11 12  2  0  0  0  0
 11 13  1  0  0  0  0
 13 14  1  0  0  0  0
 13 35  1  0  0  0  0
 14 15  1  0  0  0  0
 14 23  2  0  0  0  0
 15 16  2  0  0  0  0
 15 36  1  0  0  0  0
 16 17  1  0  0  0  0
 17 18  2  0  0  0  0
 17 37  1  0  0  0  0
 18 19  1  0  0  0  0
 18 23  1  0  0  0  0
 19 20  2  0  0  0  0
 19 38  1  0  0  0  0
 20 21  1  0  0  0  0
 20 39  1  0  0  0  0
 21 22  2  0  0  0  0
 21 40  1  0  0  0  0
 22 23  1  0  0  0  0
 22 41  1  0  0  0  0
M  END
$$$$
