
 OpenBabel07202414203D

 34 35  0  0  0  0  0  0  0  0999 V2000
    5.5741    4.2914    1.0624 C   0  0  0  0  0  0  0  0  0  0  0  0
    4.3867    3.8886    0.4402 C   0  0  0  0  0  0  0  0  0  0  0  0
    3.4993    3.0051    1.0777 C   0  0  0  0  0  0  0  0  0  0  0  0
    3.8290    2.5403    2.3597 C   0  0  0  0  0  0  0  0  0  0  0  0
    5.0198    2.9401    2.9747 C   0  0  0  0  0  0  0  0  0  0  0  0
    5.8966    3.8119    2.3325 C   0  0  0  0  0  0  0  0  0  0  0  0
    5.4192    2.3277    4.5330 Cl  0  0  0  0  0  0  0  0  0  0  0  0
    2.2779    2.4573    0.3532 C   0  0  0  0  0  0  0  0  0  0  0  0
    1.5023    3.4819   -0.3544 N   0  0  0  0  0  0  0  0  0  0  0  0
    0.6453    4.2952    0.5263 C   0  0  0  0  0  0  0  0  0  0  0  0
   -0.7065    3.6719    0.9480 C   0  0  0  0  0  0  0  0  0  0  0  0
   -1.4366    3.0325   -0.1522 N   0  0  0  0  0  0  0  0  0  0  0  0
   -0.6196    2.2509   -1.0791 C   0  0  0  0  0  0  0  0  0  0  0  0
    0.7046    2.9299   -1.4648 C   0  0  0  0  0  0  0  0  0  0  0  0
   -2.8027    2.7559   -0.1247 C   0  0  0  0  0  0  0  0  0  0  0  0
   -3.3465    2.1030   -1.0266 O   0  0  0  0  0  0  0  0  0  0  0  0
   -3.6332    3.2342    1.0519 C   0  0  0  0  0  0  0  0  0  0  0  0
   -4.1939    4.8892    0.7671 Cl  0  0  0  0  0  0  0  0  0  0  0  0
    6.2528    4.9722    0.5522 H   0  0  0  0  0  0  0  0  0  0  0  0
    4.1637    4.2556   -0.5596 H   0  0  0  0  0  0  0  0  0  0  0  0
    3.1719    1.8444    2.8737 H   0  0  0  0  0  0  0  0  0  0  0  0
    6.8296    4.1107    2.8067 H   0  0  0  0  0  0  0  0  0  0  0  0
    1.6435    1.8828    1.0386 H   0  0  0  0  0  0  0  0  0  0  0  0
    2.6859    1.7354   -0.3675 H   0  0  0  0  0  0  0  0  0  0  0  0
    0.4260    5.2239   -0.0168 H   0  0  0  0  0  0  0  0  0  0  0  0
    1.1893    4.6083    1.4251 H   0  0  0  0  0  0  0  0  0  0  0  0
   -1.3272    4.4605    1.3855 H   0  0  0  0  0  0  0  0  0  0  0  0
   -0.5542    2.9056    1.7153 H   0  0  0  0  0  0  0  0  0  0  0  0
   -1.1874    2.0400   -1.9918 H   0  0  0  0  0  0  0  0  0  0  0  0
   -0.4266    1.2891   -0.5897 H   0  0  0  0  0  0  0  0  0  0  0  0
    0.4735    3.7617   -2.1412 H   0  0  0  0  0  0  0  0  0  0  0  0
    1.3051    2.2314   -2.0609 H   0  0  0  0  0  0  0  0  0  0  0  0
   -3.0771    3.1863    1.9901 H   0  0  0  0  0  0  0  0  0  0  0  0
   -4.5088    2.5850    1.1547 H   0  0  0  0  0  0  0  0  0  0  0  0
  1  2  1  0  0  0  0
  1  6  2  0  0  0  0
  1 19  1  0  0  0  0
  2  3  2  0  0  0  0
  2 20  1  0  0  0  0
  3  4  1  0  0  0  0
  3  8  1  0  0  0  0
  4  5  2  0  0  0  0
  4 21  1  0  0  0  0
  5  6  1  0  0  0  0
  5  7  1  0  0  0  0
  6 22  1  0  0  0  0
  8  9  1  0  0  0  0
  8 23  1  0  0  0  0
  8 24  1  0  0  0  0
  9 10  1  0  0  0  0
  9 14  1  0  0  0  0
 10 11  1  0  0  0  0
 10 25  1  0  0  0  0
 10 26  1  0  0  0  0
 11 12  1  0  0  0  0
 11 27  1  0  0  0  0
 11 28  1  0  0  0  0
 12 13  1  0  0  0  0
 12 15  1  0  0  0  0
 13 14  1  0  0  0  0
 13 29  1  0  0  0  0
 13 30  1  0  0  0  0
 14 31  1  0  0  0  0
 14 32  1  0  0  0  0
 15 16  2  0  0  0  0
 15 17  1  0  0  0  0
 17 18  1  0  0  0  0
 17 33  1  0  0  0  0
 17 34  1  0  0  0  0
M  END
$$$$
