
 OpenBabel07202414193D

 47 50  0  0  1  0  0  0  0  0999 V2000
    1.1711    0.0526   -0.3078 O   0  0  0  0  0  0  0  0  0  0  0  0
    2.2506   -0.0974    0.2680 C   0  0  0  0  0  0  0  0  0  0  0  0
    2.8955    1.0853    0.9766 C   0  0  0  0  0  0  0  0  0  0  0  0
    4.1927    1.5536    0.3457 C   0  0  0  0  0  0  0  0  0  0  0  0
    4.3372    1.5034   -1.0449 C   0  0  0  0  0  0  0  0  0  0  0  0
    5.4296    1.9133   -1.7204 N   0  0  0  0  0  0  0  0  0  0  0  0
    6.4306    2.4338   -0.9828 C   0  0  0  0  0  0  0  0  0  0  0  0
    6.4091    2.5608    0.4044 C   0  0  0  0  0  0  0  0  0  0  0  0
    7.4936    3.1271    1.0984 C   0  0  0  0  0  0  0  0  0  0  0  0
    7.4675    3.2414    2.4854 C   0  0  0  0  0  0  0  0  0  0  0  0
    6.3566    2.7963    3.1894 C   0  0  0  0  0  0  0  0  0  0  0  0
    5.2677    2.2438    2.5073 C   0  0  0  0  0  0  0  0  0  0  0  0
    5.2625    2.1081    1.0986 C   0  0  0  0  0  0  0  0  0  0  0  0
    2.9479   -1.3033    0.2427 N   0  0  0  0  0  0  0  0  0  0  0  0
    2.4075   -2.3702   -0.5948 C   0  0  0  0  0  0  0  0  0  0  0  0
    3.5250   -3.1825   -1.2515 C   0  0  0  0  0  0  0  0  0  0  0  0
    4.5246   -3.6892   -0.2176 C   0  0  0  0  0  0  0  0  0  0  0  0
    5.0692   -2.5258    0.6239 C   0  0  2  0  0  0  0  0  0  0  0  0
    6.0364   -2.9732    1.7178 C   0  0  0  0  0  0  0  0  0  0  0  0
    5.3736   -3.9176    2.7044 C   0  0  0  0  0  0  0  0  0  0  0  0
    4.0175   -3.4493    3.2100 C   0  0  0  0  0  0  0  0  0  0  0  0
    3.2047   -4.5468    3.2772 F   0  0  0  0  0  0  0  0  0  0  0  0
    4.1670   -3.0458    4.5056 F   0  0  0  0  0  0  0  0  0  0  0  0
    3.2568   -2.3553    2.4702 C   0  0  0  0  0  0  0  0  0  0  0  0
    3.9440   -1.7032    1.2605 C   0  0  2  0  0  0  0  0  0  0  0  0
    3.0013    0.8115    2.0288 H   0  0  0  0  0  0  0  0  0  0  0  0
    2.1896    1.9250    0.9461 H   0  0  0  0  0  0  0  0  0  0  0  0
    3.5495    1.1141   -1.6876 H   0  0  0  0  0  0  0  0  0  0  0  0
    7.2875    2.7639   -1.5655 H   0  0  0  0  0  0  0  0  0  0  0  0
    8.3667    3.4874    0.5580 H   0  0  0  0  0  0  0  0  0  0  0  0
    8.3105    3.6793    3.0140 H   0  0  0  0  0  0  0  0  0  0  0  0
    6.3306    2.8811    4.2730 H   0  0  0  0  0  0  0  0  0  0  0  0
    4.4211    1.9235    3.1079 H   0  0  0  0  0  0  0  0  0  0  0  0
    1.7643   -1.9642   -1.3838 H   0  0  0  0  0  0  0  0  0  0  0  0
    1.7854   -3.0191    0.0251 H   0  0  0  0  0  0  0  0  0  0  0  0
    4.0477   -2.5575   -1.9852 H   0  0  0  0  0  0  0  0  0  0  0  0
    3.0995   -4.0302   -1.8010 H   0  0  0  0  0  0  0  0  0  0  0  0
    5.3520   -4.2010   -0.7232 H   0  0  0  0  0  0  0  0  0  0  0  0
    4.0239   -4.4345    0.4093 H   0  0  0  0  0  0  0  0  0  0  0  0
    5.6227   -1.8654   -0.0594 H   0  0  0  0  0  0  0  0  0  0  0  0
    6.4119   -2.0923    2.2551 H   0  0  0  0  0  0  0  0  0  0  0  0
    6.9109   -3.4618    1.2728 H   0  0  0  0  0  0  0  0  0  0  0  0
    6.0479   -4.0658    3.5565 H   0  0  0  0  0  0  0  0  0  0  0  0
    5.2684   -4.9048    2.2393 H   0  0  0  0  0  0  0  0  0  0  0  0
    3.0244   -1.5521    3.1842 H   0  0  0  0  0  0  0  0  0  0  0  0
    2.2758   -2.7525    2.1863 H   0  0  0  0  0  0  0  0  0  0  0  0
    4.4233   -0.7992    1.6471 H   0  0  0  0  0  0  0  0  0  0  0  0
  1  2  2  0  0  0  0
  2  3  1  0  0  0  0
  2 14  1  0  0  0  0
  3  4  1  0  0  0  0
  3 26  1  0  0  0  0
  3 27  1  0  0  0  0
  4  5  1  0  0  0  0
  4 13  2  0  0  0  0
  5  6  2  0  0  0  0
  5 28  1  0  0  0  0
  6  7  1  0  0  0  0
  7  8  2  0  0  0  0
  7 29  1  0  0  0  0
  8  9  1  0  0  0  0
  8 13  1  0  0  0  0
  9 10  2  0  0  0  0
  9 30  1  0  0  0  0
 10 11  1  0  0  0  0
 10 31  1  0  0  0  0
 11 12  2  0  0  0  0
 11 32  1  0  0  0  0
 12 13  1  0  0  0  0
 12 33  1  0  0  0  0
 14 15  1  0  0  0  0
 14 25  1  0  0  0  0
 15 16  1  0  0  0  0
 15 34  1  0  0  0  0
 15 35  1  0  0  0  0
 16 17  1  0  0  0  0
 16 36  1  0  0  0  0
 16 37  1  0  0  0  0
 17 18  1  0  0  0  0
 17 38  1  0  0  0  0
 17 39  1  0  0  0  0
 18 19  1  0  0  0  0
 18 25  1  0  0  0  0
 18 40  1  6  0  0  0
 19 20  1  0  0  0  0
 19 41  1  0  0  0  0
 19 42  1  0  0  0  0
 20 21  1  0  0  0  0
 20 43  1  0  0  0  0
 20 44  1  0  0  0  0
 21 22  1  0  0  0  0
 21 23  1  0  0  0  0
 21 24  1  0  0  0  0
 24 25  1  0  0  0  0
 24 45  1  0  0  0  0
 24 46  1  0  0  0  0
 25 47  1  1  0  0  0
M  END
$$$$
