
 OpenBabel07202414143D

 60 63  0  0  1  0  0  0  0  0999 V2000
    4.8078   -3.0026    0.2676 C   0  0  0  0  0  0  0  0  0  0  0  0
    4.4464   -1.6080    0.2916 N   0  0  0  0  0  0  0  0  0  0  0  0
    5.1068   -0.7361    1.1481 C   0  0  0  0  0  0  0  0  0  0  0  0
    5.9607   -1.1234    1.9322 O   0  0  0  0  0  0  0  0  0  0  0  0
    4.6334    0.7205    1.0271 C   0  0  0  0  0  0  0  0  0  0  0  0
    5.3228    1.6634    1.9652 N   0  0  0  0  0  0  0  0  0  0  0  0
    4.9752    1.3506    3.3740 C   0  0  0  0  0  0  0  0  0  0  0  0
    5.6443    2.3079    4.3837 C   0  0  3  0  0  0  0  0  0  0  0  0
    7.1417    2.0350    4.6440 C   0  0  0  0  0  0  0  0  0  0  0  0
    7.6404    2.3270    5.7231 O   0  0  0  0  0  0  0  0  0  0  0  0
    7.8277    1.4947    3.5716 N   0  0  0  0  0  0  0  0  0  0  0  0
    9.2150    1.1870    3.4795 C   0  0  0  0  0  0  0  0  0  0  0  0
   10.1109    1.4213    4.5179 C   0  0  0  0  0  0  0  0  0  0  0  0
   11.4582    1.4063    4.3796 N   0  0  0  0  0  0  0  0  0  0  0  0
   11.9334    1.0255    3.1800 C   0  0  0  0  0  0  0  0  0  0  0  0
   11.1476    0.5365    2.1464 C   0  0  0  0  0  0  0  0  0  0  0  0
   11.7232   -0.0728    1.0228 C   0  0  0  0  0  0  0  0  0  0  0  0
   10.9328   -0.5060   -0.0373 C   0  0  0  0  0  0  0  0  0  0  0  0
    9.5494   -0.2771   -0.0315 C   0  0  0  0  0  0  0  0  0  0  0  0
    8.7288   -0.5096   -1.2987 C   0  0  0  0  0  0  0  0  0  0  0  0
    9.2984    0.3658   -2.4257 C   0  0  0  0  0  0  0  0  0  0  0  0
    8.6936   -1.9818   -1.7094 C   0  0  0  0  0  0  0  0  0  0  0  0
    7.3660   -0.0916   -1.1300 O   0  0  0  0  0  0  0  0  0  0  0  0
    8.9809    0.2482    1.1415 C   0  0  0  0  0  0  0  0  0  0  0  0
    9.7409    0.6601    2.2641 C   0  0  0  0  0  0  0  0  0  0  0  0
    5.3676    3.7506    4.0174 C   0  0  0  0  0  0  0  0  0  0  0  0
    5.3646    4.7481    5.0077 C   0  0  0  0  0  0  0  0  0  0  0  0
    5.0850    6.0724    4.6724 C   0  0  0  0  0  0  0  0  0  0  0  0
    5.0378    7.2780    5.8994 Cl  0  0  0  0  0  0  0  0  0  0  0  0
    4.8228    6.4239    3.3520 C   0  0  0  0  0  0  0  0  0  0  0  0
    4.8131    5.4372    2.3646 C   0  0  0  0  0  0  0  0  0  0  0  0
    5.0720    4.0924    2.6871 C   0  0  0  0  0  0  0  0  0  0  0  0
    4.8939    3.0396    1.6124 C   0  0  0  0  0  0  0  0  0  0  0  0
    4.2914   -3.4916   -0.5619 H   0  0  0  0  0  0  0  0  0  0  0  0
    4.5065   -3.4578    1.2147 H   0  0  0  0  0  0  0  0  0  0  0  0
    5.8893   -3.1041    0.1466 H   0  0  0  0  0  0  0  0  0  0  0  0
    3.8052   -1.2546   -0.4016 H   0  0  0  0  0  0  0  0  0  0  0  0
    3.5471    0.7458    1.1773 H   0  0  0  0  0  0  0  0  0  0  0  0
    4.8423    1.0310   -0.0056 H   0  0  0  0  0  0  0  0  0  0  0  0
    5.2829    0.3341    3.6364 H   0  0  0  0  0  0  0  0  0  0  0  0
    3.8858    1.3952    3.5053 H   0  0  0  0  0  0  0  0  0  0  0  0
    5.1510    2.1044    5.3465 H   0  0  0  0  0  0  0  0  0  0  0  0
    7.2842    1.3951    2.7178 H   0  0  0  0  0  0  0  0  0  0  0  0
    9.7880    1.6553    5.5258 H   0  0  0  0  0  0  0  0  0  0  0  0
   13.0084    1.1331    3.0619 H   0  0  0  0  0  0  0  0  0  0  0  0
   12.7988   -0.2312    0.9736 H   0  0  0  0  0  0  0  0  0  0  0  0
   11.4128   -0.9917   -0.8828 H   0  0  0  0  0  0  0  0  0  0  0  0
   10.3266    0.0983   -2.6894 H   0  0  0  0  0  0  0  0  0  0  0  0
    9.2959    1.4227   -2.1260 H   0  0  0  0  0  0  0  0  0  0  0  0
    8.6814    0.2980   -3.3266 H   0  0  0  0  0  0  0  0  0  0  0  0
    9.6903   -2.3816   -1.9225 H   0  0  0  0  0  0  0  0  0  0  0  0
    8.0755   -2.1172   -2.6051 H   0  0  0  0  0  0  0  0  0  0  0  0
    8.2404   -2.5985   -0.9244 H   0  0  0  0  0  0  0  0  0  0  0  0
    7.3948    0.8600   -0.9322 H   0  0  0  0  0  0  0  0  0  0  0  0
    7.8939    0.3204    1.1853 H   0  0  0  0  0  0  0  0  0  0  0  0
    5.5640    4.4865    6.0452 H   0  0  0  0  0  0  0  0  0  0  0  0
    4.6089    7.4561    3.0891 H   0  0  0  0  0  0  0  0  0  0  0  0
    4.5730    5.7208    1.3410 H   0  0  0  0  0  0  0  0  0  0  0  0
    5.4624    3.3517    0.7276 H   0  0  0  0  0  0  0  0  0  0  0  0
    3.8274    3.0508    1.3484 H   0  0  0  0  0  0  0  0  0  0  0  0
  1  2  1  0  0  0  0
  1 34  1  0  0  0  0
  1 35  1  0  0  0  0
  1 36  1  0  0  0  0
  2  3  1  0  0  0  0
  2 37  1  0  0  0  0
  3  4  2  0  0  0  0
  3  5  1  0  0  0  0
  5  6  1  0  0  0  0
  5 38  1  0  0  0  0
  5 39  1  0  0  0  0
  6  7  1  0  0  0  0
  6 33  1  0  0  0  0
  7  8  1  0  0  0  0
  7 40  1  0  0  0  0
  7 41  1  0  0  0  0
  8  9  1  0  0  0  0
  8 26  1  0  0  0  0
  8 42  1  0  0  0  0
  9 10  2  0  0  0  0
  9 11  1  0  0  0  0
 11 12  1  0  0  0  0
 11 43  1  0  0  0  0
 12 13  1  0  0  0  0
 12 25  2  0  0  0  0
 13 14  2  0  0  0  0
 13 44  1  0  0  0  0
 14 15  1  0  0  0  0
 15 16  2  0  0  0  0
 15 45  1  0  0  0  0
 16 17  1  0  0  0  0
 16 25  1  0  0  0  0
 17 18  2  0  0  0  0
 17 46  1  0  0  0  0
 18 19  1  0  0  0  0
 18 47  1  0  0  0  0
 19 20  1  0  0  0  0
 19 24  2  0  0  0  0
 20 21  1  0  0  0  0
 20 22  1  0  0  0  0
 20 23  1  0  0  0  0
 21 48  1  0  0  0  0
 21 49  1  0  0  0  0
 21 50  1  0  0  0  0
 22 51  1  0  0  0  0
 22 52  1  0  0  0  0
 22 53  1  0  0  0  0
 23 54  1  0  0  0  0
 24 25  1  0  0  0  0
 24 55  1  0  0  0  0
 26 27  1  0  0  0  0
 26 32  2  0  0  0  0
 27 28  2  0  0  0  0
 27 56  1  0  0  0  0
 28 29  1  0  0  0  0
 28 30  1  0  0  0  0
 30 31  2  0  0  0  0
 30 57  1  0  0  0  0
 31 32  1  0  0  0  0
 31 58  1  0  0  0  0
 32 33  1  0  0  0  0
 33 59  1  0  0  0  0
 33 60  1  0  0  0  0
M  END
$$$$
