
 OpenBabel07202414153D

 43 45  0  0  0  0  0  0  0  0999 V2000
    1.0730   -0.3822   -0.4864 C   0  0  0  0  0  0  0  0  0  0  0  0
    2.4351   -0.1779   -0.1344 O   0  0  0  0  0  0  0  0  0  0  0  0
    3.0195   -0.9541    0.8287 C   0  0  0  0  0  0  0  0  0  0  0  0
    2.7635   -2.3300    1.0068 C   0  0  0  0  0  0  0  0  0  0  0  0
    1.6987   -3.2815    0.0260 Cl  0  0  0  0  0  0  0  0  0  0  0  0
    3.4430   -3.0622    1.9933 C   0  0  0  0  0  0  0  0  0  0  0  0
    4.4060   -2.4578    2.7864 C   0  0  0  0  0  0  0  0  0  0  0  0
    4.6992   -1.1146    2.6005 C   0  0  0  0  0  0  0  0  0  0  0  0
    4.0231   -0.3509    1.6365 C   0  0  0  0  0  0  0  0  0  0  0  0
    4.4853    0.9510    1.6434 O   0  0  0  0  0  0  0  0  0  0  0  0
    3.9351    1.8319    0.6759 C   0  0  0  0  0  0  0  0  0  0  0  0
    4.5601    3.2257    0.7434 C   0  0  0  0  0  0  0  0  0  0  0  0
    3.9272    4.2489   -0.0952 N   0  0  0  0  0  0  0  0  0  0  0  0
    3.0743    3.9595   -1.1406 C   0  0  0  0  0  0  0  0  0  0  0  0
    2.7631    2.8219   -1.4727 O   0  0  0  0  0  0  0  0  0  0  0  0
    2.4789    5.1146   -1.8739 C   0  0  0  0  0  0  0  0  0  0  0  0
    3.2752    6.1593   -2.1485 C   0  0  0  0  0  0  0  0  0  0  0  0
    2.8142    7.2832   -2.9876 C   0  0  0  0  0  0  0  0  0  0  0  0
    3.5468    8.2472   -3.1888 O   0  0  0  0  0  0  0  0  0  0  0  0
    1.5627    7.1878   -3.5298 N   0  0  0  0  0  0  0  0  0  0  0  0
    0.7119    6.1025   -3.3077 C   0  0  0  0  0  0  0  0  0  0  0  0
   -0.5389    6.0860   -3.9319 C   0  0  0  0  0  0  0  0  0  0  0  0
   -1.4066    5.0156   -3.7272 C   0  0  0  0  0  0  0  0  0  0  0  0
   -1.0287    3.9701   -2.8900 C   0  0  0  0  0  0  0  0  0  0  0  0
    0.2179    3.9959   -2.2573 C   0  0  0  0  0  0  0  0  0  0  0  0
    1.1197    5.0532   -2.4693 C   0  0  0  0  0  0  0  0  0  0  0  0
    0.6688    0.5685   -0.8503 H   0  0  0  0  0  0  0  0  0  0  0  0
    0.4575   -0.6950    0.3635 H   0  0  0  0  0  0  0  0  0  0  0  0
    1.0014   -1.0838   -1.3223 H   0  0  0  0  0  0  0  0  0  0  0  0
    3.2369   -4.1233    2.1260 H   0  0  0  0  0  0  0  0  0  0  0  0
    4.9407   -3.0348    3.5363 H   0  0  0  0  0  0  0  0  0  0  0  0
    5.4729   -0.6468    3.2059 H   0  0  0  0  0  0  0  0  0  0  0  0
    2.8620    1.9400    0.8707 H   0  0  0  0  0  0  0  0  0  0  0  0
    4.1488    1.4229   -0.3166 H   0  0  0  0  0  0  0  0  0  0  0  0
    5.6254    3.1862    0.4727 H   0  0  0  0  0  0  0  0  0  0  0  0
    4.5317    3.6041    1.7746 H   0  0  0  0  0  0  0  0  0  0  0  0
    4.1614    5.2101    0.1087 H   0  0  0  0  0  0  0  0  0  0  0  0
    4.3074    6.2348   -1.8255 H   0  0  0  0  0  0  0  0  0  0  0  0
    1.2798    7.9533   -4.1253 H   0  0  0  0  0  0  0  0  0  0  0  0
   -0.8438    6.8972   -4.5852 H   0  0  0  0  0  0  0  0  0  0  0  0
   -2.3740    4.9921   -4.2226 H   0  0  0  0  0  0  0  0  0  0  0  0
   -1.6978    3.1285   -2.7315 H   0  0  0  0  0  0  0  0  0  0  0  0
    0.4703    3.1556   -1.6141 H   0  0  0  0  0  0  0  0  0  0  0  0
  1  2  1  0  0  0  0
  1 27  1  0  0  0  0
  1 28  1  0  0  0  0
  1 29  1  0  0  0  0
  2  3  1  0  0  0  0
  3  4  1  0  0  0  0
  3  9  2  0  0  0  0
  4  5  1  0  0  0  0
  4  6  2  0  0  0  0
  6  7  1  0  0  0  0
  6 30  1  0  0  0  0
  7  8  2  0  0  0  0
  7 31  1  0  0  0  0
  8  9  1  0  0  0  0
  8 32  1  0  0  0  0
  9 10  1  0  0  0  0
 10 11  1  0  0  0  0
 11 12  1  0  0  0  0
 11 33  1  0  0  0  0
 11 34  1  0  0  0  0
 12 13  1  0  0  0  0
 12 35  1  0  0  0  0
 12 36  1  0  0  0  0
 13 14  1  0  0  0  0
 13 37  1  0  0  0  0
 14 15  2  0  0  0  0
 14 16  1  0  0  0  0
 16 17  2  0  0  0  0
 16 26  1  0  0  0  0
 17 18  1  0  0  0  0
 17 38  1  0  0  0  0
 18 19  2  0  0  0  0
 18 20  1  0  0  0  0
 20 21  1  0  0  0  0
 20 39  1  0  0  0  0
 21 22  1  0  0  0  0
 21 26  2  0  0  0  0
 22 23  2  0  0  0  0
 22 40  1  0  0  0  0
 23 24  1  0  0  0  0
 23 41  1  0  0  0  0
 24 25  2  0  0  0  0
 24 42  1  0  0  0  0
 25 26  1  0  0  0  0
 25 43  1  0  0  0  0
M  END
$$$$
