
 OpenBabel07202414193D

 34 36  0  0  0  0  0  0  0  0999 V2000
    2.7283   -0.7867   -0.8459 O   0  0  0  0  0  0  0  0  0  0  0  0
    2.3062   -0.0004    0.0005 C   0  0  0  0  0  0  0  0  0  0  0  0
    0.8113    0.2186    0.1522 C   0  0  0  0  0  0  0  0  0  0  0  0
    0.1568   -0.7811    1.0737 C   0  0  0  0  0  0  0  0  0  0  0  0
   -0.0891   -0.4520    2.4146 C   0  0  0  0  0  0  0  0  0  0  0  0
   -0.6805   -1.3841    3.2671 C   0  0  0  0  0  0  0  0  0  0  0  0
   -0.9040   -1.0415    4.5425 F   0  0  0  0  0  0  0  0  0  0  0  0
   -1.0349   -2.6437    2.8077 C   0  0  0  0  0  0  0  0  0  0  0  0
   -1.6069   -3.5285    3.6370 F   0  0  0  0  0  0  0  0  0  0  0  0
   -0.7972   -2.9769    1.4821 C   0  0  0  0  0  0  0  0  0  0  0  0
   -1.1405   -4.1883    1.0218 F   0  0  0  0  0  0  0  0  0  0  0  0
   -0.2021   -2.0601    0.6139 C   0  0  0  0  0  0  0  0  0  0  0  0
    3.0905    0.7309    0.8790 N   0  0  0  0  0  0  0  0  0  0  0  0
    4.5071    0.8850    0.8062 C   0  0  0  0  0  0  0  0  0  0  0  0
    5.2264    0.5411   -0.3425 C   0  0  0  0  0  0  0  0  0  0  0  0
    6.5514    0.7582   -0.5227 N   0  0  0  0  0  0  0  0  0  0  0  0
    7.2027    1.3612    0.4881 C   0  0  0  0  0  0  0  0  0  0  0  0
    6.6123    1.7519    1.6876 C   0  0  0  0  0  0  0  0  0  0  0  0
    7.3731    2.3950    2.6812 C   0  0  0  0  0  0  0  0  0  0  0  0
    6.7948    2.7568    3.8939 C   0  0  0  0  0  0  0  0  0  0  0  0
    5.4646    2.4511    4.1347 C   0  0  0  0  0  0  0  0  0  0  0  0
    4.6935    1.8227    3.1465 C   0  0  0  0  0  0  0  0  0  0  0  0
    5.2332    1.4839    1.8787 C   0  0  0  0  0  0  0  0  0  0  0  0
    0.3587    0.1472   -0.8461 H   0  0  0  0  0  0  0  0  0  0  0  0
    0.6108    1.2437    0.4873 H   0  0  0  0  0  0  0  0  0  0  0  0
    0.1652    0.5270    2.8106 H   0  0  0  0  0  0  0  0  0  0  0  0
   -0.0237   -2.3569   -0.4178 H   0  0  0  0  0  0  0  0  0  0  0  0
    2.6240    1.1905    1.6476 H   0  0  0  0  0  0  0  0  0  0  0  0
    4.7552    0.1031   -1.2153 H   0  0  0  0  0  0  0  0  0  0  0  0
    8.2613    1.5241    0.2989 H   0  0  0  0  0  0  0  0  0  0  0  0
    8.4254    2.6196    2.5116 H   0  0  0  0  0  0  0  0  0  0  0  0
    7.3918    3.2605    4.6518 H   0  0  0  0  0  0  0  0  0  0  0  0
    5.0197    2.6961    5.0974 H   0  0  0  0  0  0  0  0  0  0  0  0
    3.6677    1.5764    3.4026 H   0  0  0  0  0  0  0  0  0  0  0  0
  1  2  2  0  0  0  0
  2  3  1  0  0  0  0
  2 13  1  0  0  0  0
  3  4  1  0  0  0  0
  3 24  1  0  0  0  0
  3 25  1  0  0  0  0
  4  5  1  0  0  0  0
  4 12  2  0  0  0  0
  5  6  2  0  0  0  0
  5 26  1  0  0  0  0
  6  7  1  0  0  0  0
  6  8  1  0  0  0  0
  8  9  1  0  0  0  0
  8 10  2  0  0  0  0
 10 11  1  0  0  0  0
 10 12  1  0  0  0  0
 12 27  1  0  0  0  0
 13 14  1  0  0  0  0
 13 28  1  0  0  0  0
 14 15  1  0  0  0  0
 14 23  2  0  0  0  0
 15 16  2  0  0  0  0
 15 29  1  0  0  0  0
 16 17  1  0  0  0  0
 17 18  2  0  0  0  0
 17 30  1  0  0  0  0
 18 19  1  0  0  0  0
 18 23  1  0  0  0  0
 19 20  2  0  0  0  0
 19 31  1  0  0  0  0
 20 21  1  0  0  0  0
 20 32  1  0  0  0  0
 21 22  2  0  0  0  0
 21 33  1  0  0  0  0
 22 23  1  0  0  0  0
 22 34  1  0  0  0  0
M  END
$$$$
