
 OpenBabel07202414183D

 52 55  0  0  0  0  0  0  0  0999 V2000
    4.3266    2.3006   -4.7234 F   0  0  0  0  0  0  0  0  0  0  0  0
    3.7402    3.1257   -3.8176 C   0  0  0  0  0  0  0  0  0  0  0  0
    4.2506    4.3653   -4.0758 F   0  0  0  0  0  0  0  0  0  0  0  0
    2.4281    3.1921   -4.1890 F   0  0  0  0  0  0  0  0  0  0  0  0
    3.8912    2.7509   -2.3655 C   0  0  0  0  0  0  0  0  0  0  0  0
    4.6165    1.6498   -1.9003 C   0  0  0  0  0  0  0  0  0  0  0  0
    5.4305    0.5379   -2.9375 Cl  0  0  0  0  0  0  0  0  0  0  0  0
    4.7228    1.4048   -0.5258 C   0  0  0  0  0  0  0  0  0  0  0  0
    4.1033    2.2449    0.3988 C   0  0  0  0  0  0  0  0  0  0  0  0
    3.3546    3.3428   -0.0320 C   0  0  0  0  0  0  0  0  0  0  0  0
    2.7779    4.2883    0.9992 C   0  0  0  0  0  0  0  0  0  0  0  0
    1.5852    4.9712    0.5010 N   0  0  0  0  0  0  0  0  0  0  0  0
    1.2485    6.1762    1.1417 C   0  0  0  0  0  0  0  0  0  0  0  0
    0.5071    7.1196    0.4247 C   0  0  0  0  0  0  0  0  0  0  0  0
    0.1299    8.3230    1.0190 C   0  0  0  0  0  0  0  0  0  0  0  0
   -0.7442    9.4918    0.1060 Cl  0  0  0  0  0  0  0  0  0  0  0  0
    0.4489    8.5911    2.3495 C   0  0  0  0  0  0  0  0  0  0  0  0
    1.1429    7.6402    3.1037 C   0  0  0  0  0  0  0  0  0  0  0  0
    1.4343    7.8700    4.5654 C   0  0  0  0  0  0  0  0  0  0  0  0
    2.9089    7.7482    4.9082 C   0  0  0  0  0  0  0  0  0  0  0  0
    3.3488    6.7565    5.4846 O   0  0  0  0  0  0  0  0  0  0  0  0
    3.6579    8.8556    4.5547 N   0  0  0  0  0  0  0  0  0  0  0  0
    5.0454    8.9638    4.8142 C   0  0  0  0  0  0  0  0  0  0  0  0
    5.9047    7.8805    4.6133 C   0  0  0  0  0  0  0  0  0  0  0  0
    7.2455    7.9287    4.7806 N   0  0  0  0  0  0  0  0  0  0  0  0
    7.7524    9.1084    5.1980 C   0  0  0  0  0  0  0  0  0  0  0  0
    6.9954   10.2535    5.4603 C   0  0  0  0  0  0  0  0  0  0  0  0
    7.5883   11.4354    5.9385 C   0  0  0  0  0  0  0  0  0  0  0  0
    6.8066   12.5458    6.2437 C   0  0  0  0  0  0  0  0  0  0  0  0
    5.4370   12.4962    6.0760 C   0  0  0  0  0  0  0  0  0  0  0  0
    4.8360   11.3336    5.5838 C   0  0  0  0  0  0  0  0  0  0  0  0
    5.5978   10.1886    5.2577 C   0  0  0  0  0  0  0  0  0  0  0  0
    1.5215    6.4333    2.4923 C   0  0  0  0  0  0  0  0  0  0  0  0
    3.2686    3.5910   -1.4121 C   0  0  0  0  0  0  0  0  0  0  0  0
    5.3049    0.5600   -0.1625 H   0  0  0  0  0  0  0  0  0  0  0  0
    4.2270    2.0442    1.4616 H   0  0  0  0  0  0  0  0  0  0  0  0
    3.5690    5.0085    1.2452 H   0  0  0  0  0  0  0  0  0  0  0  0
    2.5174    3.7244    1.9034 H   0  0  0  0  0  0  0  0  0  0  0  0
    0.7809    4.3425    0.5219 H   0  0  0  0  0  0  0  0  0  0  0  0
    0.2499    6.9226   -0.6134 H   0  0  0  0  0  0  0  0  0  0  0  0
    0.1364    9.5316    2.7960 H   0  0  0  0  0  0  0  0  0  0  0  0
    0.8831    7.1267    5.1544 H   0  0  0  0  0  0  0  0  0  0  0  0
    1.0732    8.8519    4.8939 H   0  0  0  0  0  0  0  0  0  0  0  0
    3.1588    9.7065    4.3344 H   0  0  0  0  0  0  0  0  0  0  0  0
    5.5368    6.9227    4.2566 H   0  0  0  0  0  0  0  0  0  0  0  0
    8.8308    9.1035    5.3395 H   0  0  0  0  0  0  0  0  0  0  0  0
    8.6644   11.4864    6.0934 H   0  0  0  0  0  0  0  0  0  0  0  0
    7.2796   13.4499    6.6289 H   0  0  0  0  0  0  0  0  0  0  0  0
    4.8205   13.3522    6.3388 H   0  0  0  0  0  0  0  0  0  0  0  0
    3.7502   11.3284    5.5048 H   0  0  0  0  0  0  0  0  0  0  0  0
    2.0342    5.6877    3.0977 H   0  0  0  0  0  0  0  0  0  0  0  0
    2.7174    4.4678   -1.7597 H   0  0  0  0  0  0  0  0  0  0  0  0
  1  2  1  0  0  0  0
  2  3  1  0  0  0  0
  2  4  1  0  0  0  0
  2  5  1  0  0  0  0
  5  6  2  0  0  0  0
  5 34  1  0  0  0  0
  6  7  1  0  0  0  0
  6  8  1  0  0  0  0
  8  9  2  0  0  0  0
  8 35  1  0  0  0  0
  9 10  1  0  0  0  0
  9 36  1  0  0  0  0
 10 11  1  0  0  0  0
 10 34  2  0  0  0  0
 11 12  1  0  0  0  0
 11 37  1  0  0  0  0
 11 38  1  0  0  0  0
 12 13  1  0  0  0  0
 12 39  1  0  0  0  0
 13 14  2  0  0  0  0
 13 33  1  0  0  0  0
 14 15  1  0  0  0  0
 14 40  1  0  0  0  0
 15 16  1  0  0  0  0
 15 17  2  0  0  0  0
 17 18  1  0  0  0  0
 17 41  1  0  0  0  0
 18 19  1  0  0  0  0
 18 33  2  0  0  0  0
 19 20  1  0  0  0  0
 19 42  1  0  0  0  0
 19 43  1  0  0  0  0
 20 21  2  0  0  0  0
 20 22  1  0  0  0  0
 22 23  1  0  0  0  0
 22 44  1  0  0  0  0
 23 24  2  0  0  0  0
 23 32  1  0  0  0  0
 24 25  1  0  0  0  0
 24 45  1  0  0  0  0
 25 26  2  0  0  0  0
 26 27  1  0  0  0  0
 26 46  1  0  0  0  0
 27 28  2  0  0  0  0
 27 32  1  0  0  0  0
 28 29  1  0  0  0  0
 28 47  1  0  0  0  0
 29 30  2  0  0  0  0
 29 48  1  0  0  0  0
 30 31  1  0  0  0  0
 30 49  1  0  0  0  0
 31 32  2  0  0  0  0
 31 50  1  0  0  0  0
 33 51  1  0  0  0  0
 34 52  1  0  0  0  0
M  END
$$$$
