
 OpenBabel07202414133D

 51 54  0  0  0  0  0  0  0  0999 V2000
    0.3006   -0.6694    4.9996 C   0  0  0  0  0  0  0  0  0  0  0  0
    0.3886    0.1760    3.7645 C   0  0  0  0  0  0  0  0  0  0  0  0
    0.9365    1.4552    3.8029 C   0  0  0  0  0  0  0  0  0  0  0  0
    1.0003    2.2487    2.6482 C   0  0  0  0  0  0  0  0  0  0  0  0
    2.0070    3.8659    2.8409 Br  0  0  0  0  0  0  0  0  0  0  0  0
    0.4657    1.8147    1.4112 C   0  0  0  0  0  0  0  0  0  0  0  0
    0.3736    2.6857    0.2924 N   0  0  0  0  0  0  0  0  0  0  0  0
   -0.0796    4.0285    0.2330 C   0  0  0  0  0  0  0  0  0  0  0  0
   -0.8791    4.6047    1.2273 C   0  0  0  0  0  0  0  0  0  0  0  0
   -1.2100    5.9585    1.1720 C   0  0  0  0  0  0  0  0  0  0  0  0
   -2.1758    6.6518    2.4166 Cl  0  0  0  0  0  0  0  0  0  0  0  0
   -0.7648    6.7583    0.1227 C   0  0  0  0  0  0  0  0  0  0  0  0
    0.0161    6.1977   -0.8974 C   0  0  0  0  0  0  0  0  0  0  0  0
    0.4753    7.0443   -2.0625 C   0  0  0  0  0  0  0  0  0  0  0  0
   -0.3729    6.9605   -3.3221 C   0  0  0  0  0  0  0  0  0  0  0  0
    0.0512    7.4219   -4.3805 O   0  0  0  0  0  0  0  0  0  0  0  0
   -1.6390    6.4306   -3.1647 N   0  0  0  0  0  0  0  0  0  0  0  0
   -2.5656    6.2930   -4.2220 C   0  0  0  0  0  0  0  0  0  0  0  0
   -2.1610    5.8599   -5.4856 C   0  0  0  0  0  0  0  0  0  0  0  0
   -2.9981    5.6642   -6.5280 N   0  0  0  0  0  0  0  0  0  0  0  0
   -4.2988    5.9528   -6.3090 C   0  0  0  0  0  0  0  0  0  0  0  0
   -4.8199    6.4180   -5.0988 C   0  0  0  0  0  0  0  0  0  0  0  0
   -6.1804    6.7460   -4.9621 C   0  0  0  0  0  0  0  0  0  0  0  0
   -6.6756    7.2504   -3.7602 C   0  0  0  0  0  0  0  0  0  0  0  0
   -5.8206    7.4198   -2.6788 C   0  0  0  0  0  0  0  0  0  0  0  0
   -4.4711    7.0840   -2.7985 C   0  0  0  0  0  0  0  0  0  0  0  0
   -3.9361    6.5775   -4.0097 C   0  0  0  0  0  0  0  0  0  0  0  0
    0.3422    4.8305   -0.8359 C   0  0  0  0  0  0  0  0  0  0  0  0
   -0.0114    0.4786    1.3763 C   0  0  0  0  0  0  0  0  0  0  0  0
   -0.4395   -0.1627    0.1151 N   0  3  0  0  0  0  0  0  0  0  0  0
   -0.3779    0.5094   -0.9283 O   0  5  0  0  0  0  0  0  0  0  0  0
   -0.8249   -1.3405    0.1623 O   0  0  0  0  0  0  0  0  0  0  0  0
   -0.0574   -0.3207    2.5343 C   0  0  0  0  0  0  0  0  0  0  0  0
    0.7076   -0.1454    5.8703 H   0  0  0  0  0  0  0  0  0  0  0  0
    0.8697   -1.5940    4.8663 H   0  0  0  0  0  0  0  0  0  0  0  0
   -0.7446   -0.9136    5.2117 H   0  0  0  0  0  0  0  0  0  0  0  0
    1.3369    1.8354    4.7415 H   0  0  0  0  0  0  0  0  0  0  0  0
    0.1732    2.2001   -0.5902 H   0  0  0  0  0  0  0  0  0  0  0  0
   -1.2378    4.0092    2.0584 H   0  0  0  0  0  0  0  0  0  0  0  0
   -1.0240    7.8141    0.1019 H   0  0  0  0  0  0  0  0  0  0  0  0
    1.4944    6.7461   -2.3329 H   0  0  0  0  0  0  0  0  0  0  0  0
    0.5218    8.0974   -1.7596 H   0  0  0  0  0  0  0  0  0  0  0  0
   -2.0100    6.3797   -2.2269 H   0  0  0  0  0  0  0  0  0  0  0  0
   -1.1238    5.6095   -5.6935 H   0  0  0  0  0  0  0  0  0  0  0  0
   -4.9368    5.8086   -7.1777 H   0  0  0  0  0  0  0  0  0  0  0  0
   -6.8615    6.6327   -5.8038 H   0  0  0  0  0  0  0  0  0  0  0  0
   -7.7232    7.5241   -3.6736 H   0  0  0  0  0  0  0  0  0  0  0  0
   -6.1969    7.8296   -1.7445 H   0  0  0  0  0  0  0  0  0  0  0  0
   -3.8377    7.2648   -1.9341 H   0  0  0  0  0  0  0  0  0  0  0  0
    0.9653    4.3929   -1.6159 H   0  0  0  0  0  0  0  0  0  0  0  0
   -0.4339   -1.3443    2.4948 H   0  0  0  0  0  0  0  0  0  0  0  0
  1  2  1  0  0  0  0
  1 34  1  0  0  0  0
  1 35  1  0  0  0  0
  1 36  1  0  0  0  0
  2  3  2  0  0  0  0
  2 33  1  0  0  0  0
  3  4  1  0  0  0  0
  3 37  1  0  0  0  0
  4  5  1  0  0  0  0
  4  6  2  0  0  0  0
  6  7  1  0  0  0  0
  6 29  1  0  0  0  0
  7  8  1  0  0  0  0
  7 38  1  0  0  0  0
  8  9  2  0  0  0  0
  8 28  1  0  0  0  0
  9 10  1  0  0  0  0
  9 39  1  0  0  0  0
 10 11  1  0  0  0  0
 10 12  2  0  0  0  0
 12 13  1  0  0  0  0
 12 40  1  0  0  0  0
 13 14  1  0  0  0  0
 13 28  2  0  0  0  0
 14 15  1  0  0  0  0
 14 41  1  0  0  0  0
 14 42  1  0  0  0  0
 15 16  2  0  0  0  0
 15 17  1  0  0  0  0
 17 18  1  0  0  0  0
 17 43  1  0  0  0  0
 18 19  2  0  0  0  0
 18 27  1  0  0  0  0
 19 20  1  0  0  0  0
 19 44  1  0  0  0  0
 20 21  2  0  0  0  0
 21 22  1  0  0  0  0
 21 45  1  0  0  0  0
 22 23  2  0  0  0  0
 22 27  1  0  0  0  0
 23 24  1  0  0  0  0
 23 46  1  0  0  0  0
 24 25  2  0  0  0  0
 24 47  1  0  0  0  0
 25 26  1  0  0  0  0
 25 48  1  0  0  0  0
 26 27  2  0  0  0  0
 26 49  1  0  0  0  0
 28 50  1  0  0  0  0
 29 30  1  0  0  0  0
 29 33  2  0  0  0  0
 30 31  1  0  0  0  0
 30 32  2  0  0  0  0
 33 51  1  0  0  0  0
M  CHG  2  30   1  31  -1
M  END
$$$$
