
 OpenBabel07202414193D

 44 47  0  0  0  0  0  0  0  0999 V2000
    3.2977   -0.6083    1.8370 O   0  0  0  0  0  0  0  0  0  0  0  0
    3.2415   -0.2386    0.6693 C   0  0  0  0  0  0  0  0  0  0  0  0
    2.6595    0.9499    0.2824 N   0  0  0  0  0  0  0  0  0  0  0  0
    2.1202    1.9210    1.2110 C   0  0  0  0  0  0  0  0  0  0  0  0
    3.1483    2.8700    1.7546 C   0  0  0  0  0  0  0  0  0  0  0  0
    3.7767    2.6230    2.9789 C   0  0  0  0  0  0  0  0  0  0  0  0
    4.7078    3.5307    3.5013 C   0  0  0  0  0  0  0  0  0  0  0  0
    4.9682    4.6975    2.7750 C   0  0  0  0  0  0  0  0  0  0  0  0
    4.3910    4.9510    1.5715 N   0  0  0  0  0  0  0  0  0  0  0  0
    3.5167    4.0362    1.1122 C   0  0  0  0  0  0  0  0  0  0  0  0
    2.9977    4.3853   -0.0908 O   0  0  0  0  0  0  0  0  0  0  0  0
    5.9727    5.7127    3.2633 C   0  0  0  0  0  0  0  0  0  0  0  0
    6.3157    5.5730    4.7462 C   0  0  0  0  0  0  0  0  0  0  0  0
    6.5885    4.1139    5.0908 C   0  0  0  0  0  0  0  0  0  0  0  0
    5.3431    3.2655    4.8398 C   0  0  0  0  0  0  0  0  0  0  0  0
    3.7481   -1.1249   -0.4195 C   0  0  0  0  0  0  0  0  0  0  0  0
    3.6252   -2.4990   -0.2059 C   0  0  0  0  0  0  0  0  0  0  0  0
    3.9484   -3.4450   -1.1152 N   0  0  0  0  0  0  0  0  0  0  0  0
    4.3981   -3.0037   -2.3104 C   0  0  0  0  0  0  0  0  0  0  0  0
    4.5630   -1.6564   -2.6430 C   0  0  0  0  0  0  0  0  0  0  0  0
    4.9939   -1.2730   -3.9297 C   0  0  0  0  0  0  0  0  0  0  0  0
    5.1669    0.0725   -4.2492 C   0  0  0  0  0  0  0  0  0  0  0  0
    4.9825    1.0392   -3.2718 C   0  0  0  0  0  0  0  0  0  0  0  0
    4.5828    0.6647   -1.9885 C   0  0  0  0  0  0  0  0  0  0  0  0
    4.2858   -0.6816   -1.6575 C   0  0  0  0  0  0  0  0  0  0  0  0
    2.4963    1.1316   -0.6982 H   0  0  0  0  0  0  0  0  0  0  0  0
    1.6213    1.3908    2.0308 H   0  0  0  0  0  0  0  0  0  0  0  0
    1.3407    2.4774    0.6779 H   0  0  0  0  0  0  0  0  0  0  0  0
    3.5365    1.7154    3.5310 H   0  0  0  0  0  0  0  0  0  0  0  0
    3.4559    5.2367   -0.2093 H   0  0  0  0  0  0  0  0  0  0  0  0
    5.5954    6.7252    3.0754 H   0  0  0  0  0  0  0  0  0  0  0  0
    6.8869    5.5897    2.6696 H   0  0  0  0  0  0  0  0  0  0  0  0
    5.4872    5.9471    5.3610 H   0  0  0  0  0  0  0  0  0  0  0  0
    7.1921    6.1870    4.9821 H   0  0  0  0  0  0  0  0  0  0  0  0
    6.8932    4.0218    6.1395 H   0  0  0  0  0  0  0  0  0  0  0  0
    7.4218    3.7436    4.4803 H   0  0  0  0  0  0  0  0  0  0  0  0
    4.6002    3.4733    5.6200 H   0  0  0  0  0  0  0  0  0  0  0  0
    5.6174    2.2069    4.9167 H   0  0  0  0  0  0  0  0  0  0  0  0
    3.2294   -2.8914    0.7287 H   0  0  0  0  0  0  0  0  0  0  0  0
    4.6342   -3.7925   -3.0201 H   0  0  0  0  0  0  0  0  0  0  0  0
    5.1836   -2.0218   -4.6957 H   0  0  0  0  0  0  0  0  0  0  0  0
    5.4657    0.3634   -5.2525 H   0  0  0  0  0  0  0  0  0  0  0  0
    5.1519    2.0891   -3.4981 H   0  0  0  0  0  0  0  0  0  0  0  0
    4.5211    1.4530   -1.2408 H   0  0  0  0  0  0  0  0  0  0  0  0
  1  2  2  0  0  0  0
  2  3  1  0  0  0  0
  2 16  1  0  0  0  0
  3  4  1  0  0  0  0
  3 26  1  0  0  0  0
  4  5  1  0  0  0  0
  4 27  1  0  0  0  0
  4 28  1  0  0  0  0
  5  6  1  0  0  0  0
  5 10  2  0  0  0  0
  6  7  2  0  0  0  0
  6 29  1  0  0  0  0
  7  8  1  0  0  0  0
  7 15  1  0  0  0  0
  8  9  2  0  0  0  0
  8 12  1  0  0  0  0
  9 10  1  0  0  0  0
 10 11  1  0  0  0  0
 11 30  1  0  0  0  0
 12 13  1  0  0  0  0
 12 31  1  0  0  0  0
 12 32  1  0  0  0  0
 13 14  1  0  0  0  0
 13 33  1  0  0  0  0
 13 34  1  0  0  0  0
 14 15  1  0  0  0  0
 14 35  1  0  0  0  0
 14 36  1  0  0  0  0
 15 37  1  0  0  0  0
 15 38  1  0  0  0  0
 16 17  1  0  0  0  0
 16 25  2  0  0  0  0
 17 18  2  0  0  0  0
 17 39  1  0  0  0  0
 18 19  1  0  0  0  0
 19 20  2  0  0  0  0
 19 40  1  0  0  0  0
 20 21  1  0  0  0  0
 20 25  1  0  0  0  0
 21 22  2  0  0  0  0
 21 41  1  0  0  0  0
 22 23  1  0  0  0  0
 22 42  1  0  0  0  0
 23 24  2  0  0  0  0
 23 43  1  0  0  0  0
 24 25  1  0  0  0  0
 24 44  1  0  0  0  0
M  END
$$$$
