
 OpenBabel07202414203D

 44 47  0  0  0  0  0  0  0  0999 V2000
    1.3820   -0.2905    0.0753 C   0  0  0  0  0  0  0  0  0  0  0  0
    0.4519   -1.1857    0.5817 C   0  0  0  0  0  0  0  0  0  0  0  0
   -0.9171   -0.8992    0.5109 C   0  0  0  0  0  0  0  0  0  0  0  0
   -1.4001    0.2861   -0.0649 C   0  0  0  0  0  0  0  0  0  0  0  0
   -0.4306    1.1750   -0.5587 C   0  0  0  0  0  0  0  0  0  0  0  0
    0.9409    0.8961   -0.4946 C   0  0  0  0  0  0  0  0  0  0  0  0
   -2.7503    0.5690   -0.1484 N   0  0  0  0  0  0  0  0  0  0  0  0
   -3.7586    0.0049    0.7712 C   0  0  0  0  0  0  0  0  0  0  0  0
   -4.7944   -0.8097   -0.0310 C   0  0  0  0  0  0  0  0  0  0  0  0
   -5.4132    0.0369   -1.0489 N   0  0  0  0  0  0  0  0  0  0  0  0
   -4.4245    0.6000   -1.9852 C   0  0  0  0  0  0  0  0  0  0  0  0
   -3.3070    1.3770   -1.2599 C   0  0  0  0  0  0  0  0  0  0  0  0
   -6.6834    0.5687   -1.0482 C   0  0  0  0  0  0  0  0  0  0  0  0
   -6.9715    1.4674   -1.8435 O   0  0  0  0  0  0  0  0  0  0  0  0
   -7.7735    0.0313   -0.1399 C   0  0  0  0  0  0  0  0  0  0  0  0
   -8.9129    0.0553   -0.8710 C   0  0  0  0  0  0  0  0  0  0  0  0
   -9.8564    1.1846   -0.5918 C   0  0  0  0  0  0  0  0  0  0  0  0
  -10.6896    1.5251   -1.4262 O   0  0  0  0  0  0  0  0  0  0  0  0
   -9.7280    1.8330    0.6053 N   0  0  0  0  0  0  0  0  0  0  0  0
   -8.8596    1.3972    1.6050 C   0  0  0  0  0  0  0  0  0  0  0  0
   -7.9074    0.4198    1.2851 C   0  0  0  0  0  0  0  0  0  0  0  0
   -7.2490   -0.2102    2.3481 C   0  0  0  0  0  0  0  0  0  0  0  0
   -7.4457    0.2099    3.6675 C   0  0  0  0  0  0  0  0  0  0  0  0
   -8.3202    1.2559    3.9472 C   0  0  0  0  0  0  0  0  0  0  0  0
   -9.0351    1.8530    2.9129 C   0  0  0  0  0  0  0  0  0  0  0  0
    2.4443   -0.5121    0.1282 H   0  0  0  0  0  0  0  0  0  0  0  0
    0.7830   -2.1217    1.0263 H   0  0  0  0  0  0  0  0  0  0  0  0
   -1.6003   -1.6487    0.8903 H   0  0  0  0  0  0  0  0  0  0  0  0
   -0.7242    2.1318   -0.9813 H   0  0  0  0  0  0  0  0  0  0  0  0
    1.6569    1.6125   -0.8866 H   0  0  0  0  0  0  0  0  0  0  0  0
   -4.2560    0.8446    1.2755 H   0  0  0  0  0  0  0  0  0  0  0  0
   -3.3251   -0.6100    1.5631 H   0  0  0  0  0  0  0  0  0  0  0  0
   -5.5439   -1.2556    0.6082 H   0  0  0  0  0  0  0  0  0  0  0  0
   -4.2977   -1.6338   -0.5520 H   0  0  0  0  0  0  0  0  0  0  0  0
   -4.8899    1.2475   -2.7345 H   0  0  0  0  0  0  0  0  0  0  0  0
   -3.9923   -0.2507   -2.5264 H   0  0  0  0  0  0  0  0  0  0  0  0
   -3.7037    2.3128   -0.8473 H   0  0  0  0  0  0  0  0  0  0  0  0
   -2.5568    1.6341   -2.0109 H   0  0  0  0  0  0  0  0  0  0  0  0
   -8.9208   -0.1745   -1.9349 H   0  0  0  0  0  0  0  0  0  0  0  0
  -10.3863    2.5822    0.7750 H   0  0  0  0  0  0  0  0  0  0  0  0
   -6.6229   -1.0807    2.2007 H   0  0  0  0  0  0  0  0  0  0  0  0
   -6.9323   -0.2992    4.4827 H   0  0  0  0  0  0  0  0  0  0  0  0
   -8.4828    1.5699    4.9753 H   0  0  0  0  0  0  0  0  0  0  0  0
   -9.7692    2.6195    3.1421 H   0  0  0  0  0  0  0  0  0  0  0  0
  1  2  1  0  0  0  0
  1  6  2  0  0  0  0
  1 26  1  0  0  0  0
  2  3  2  0  0  0  0
  2 27  1  0  0  0  0
  3  4  1  0  0  0  0
  3 28  1  0  0  0  0
  4  5  2  0  0  0  0
  4  7  1  0  0  0  0
  5  6  1  0  0  0  0
  5 29  1  0  0  0  0
  6 30  1  0  0  0  0
  7  8  1  0  0  0  0
  7 12  1  0  0  0  0
  8  9  1  0  0  0  0
  8 31  1  0  0  0  0
  8 32  1  0  0  0  0
  9 10  1  0  0  0  0
  9 33  1  0  0  0  0
  9 34  1  0  0  0  0
 10 11  1  0  0  0  0
 10 13  1  0  0  0  0
 11 12  1  0  0  0  0
 11 35  1  0  0  0  0
 11 36  1  0  0  0  0
 12 37  1  0  0  0  0
 12 38  1  0  0  0  0
 13 14  2  0  0  0  0
 13 15  1  0  0  0  0
 15 16  2  0  0  0  0
 15 21  1  0  0  0  0
 16 17  1  0  0  0  0
 16 39  1  0  0  0  0
 17 18  2  0  0  0  0
 17 19  1  0  0  0  0
 19 20  1  0  0  0  0
 19 40  1  0  0  0  0
 20 21  1  0  0  0  0
 20 25  2  0  0  0  0
 21 22  2  0  0  0  0
 22 23  1  0  0  0  0
 22 41  1  0  0  0  0
 23 24  2  0  0  0  0
 23 42  1  0  0  0  0
 24 25  1  0  0  0  0
 24 43  1  0  0  0  0
 25 44  1  0  0  0  0
M  END
$$$$
