
 OpenBabel07202414173D

 64 69  0  0  1  0  0  0  0  0999 V2000
    0.9916    0.1981   -0.0740 Cl  0  0  0  0  0  0  0  0  0  0  0  0
    2.7059    0.0961    0.0109 C   0  0  0  0  0  0  0  0  0  0  0  0
    3.4793    1.2368   -0.1319 C   0  0  0  0  0  0  0  0  0  0  0  0
    4.8689    1.1472   -0.0609 C   0  0  0  0  0  0  0  0  0  0  0  0
    5.4952   -0.0938    0.1498 C   0  0  0  0  0  0  0  0  0  0  0  0
    4.7309   -1.2500    0.2616 C   0  0  0  0  0  0  0  0  0  0  0  0
    3.3169   -1.1401    0.2152 C   0  0  0  0  0  0  0  0  0  0  0  0
    5.3911   -2.6095    0.4529 C   0  0  3  0  0  0  0  0  0  0  0  0
    4.8232   -3.6302   -0.5948 C   0  0  0  0  0  0  0  0  0  0  0  0
    4.8766   -3.2784   -2.0307 N   0  0  0  0  0  0  0  0  0  0  0  0
    6.1818   -3.2907   -2.7028 C   0  0  0  0  0  0  0  0  0  0  0  0
    7.0112   -4.5459   -2.3766 C   0  0  0  0  0  0  0  0  0  0  0  0
    8.3472   -4.6446   -2.9438 N   0  0  0  0  0  0  0  0  0  0  0  0
    8.4338   -4.3609   -4.2831 C   0  0  0  0  0  0  0  0  0  0  0  0
    8.3130   -3.2894   -4.8463 O   0  0  0  0  0  0  0  0  0  0  0  0
    8.6021   -5.6376   -4.9562 C   0  0  0  0  0  0  0  0  0  0  0  0
    8.1422   -5.9799   -6.2083 C   0  0  0  0  0  0  0  0  0  0  0  0
    7.9822   -7.3448   -6.4625 C   0  0  0  0  0  0  0  0  0  0  0  0
    8.3057   -8.3072   -5.4883 C   0  0  0  0  0  0  0  0  0  0  0  0
    8.7863   -7.9340   -4.2306 C   0  0  0  0  0  0  0  0  0  0  0  0
    8.9077   -6.5789   -3.9933 C   0  0  0  0  0  0  0  0  0  0  0  0
    8.8901   -5.8903   -2.7056 C   0  0  0  0  0  0  0  0  0  0  0  0
    9.1269   -6.4292   -1.6358 O   0  0  0  0  0  0  0  0  0  0  0  0
    5.0822   -3.1217    1.9090 C   0  0  0  0  0  0  0  0  0  0  0  0
    4.5802   -4.2223    2.1185 O   0  0  0  0  0  0  0  0  0  0  0  0
    5.4897   -2.2240    2.8786 N   0  0  0  0  0  0  0  0  0  0  0  0
    5.3614   -2.2886    4.2868 C   0  0  0  0  0  0  0  0  0  0  0  0
    4.6330   -3.2783    4.9375 C   0  0  0  0  0  0  0  0  0  0  0  0
    4.3196   -3.2340    6.2522 N   0  0  0  0  0  0  0  0  0  0  0  0
    4.8066   -2.1943    6.9622 C   0  0  0  0  0  0  0  0  0  0  0  0
    5.6709   -1.2222    6.4553 C   0  0  0  0  0  0  0  0  0  0  0  0
    6.2582   -0.2518    7.2921 C   0  0  0  0  0  0  0  0  0  0  0  0
    7.1539    0.6873    6.7866 C   0  0  0  0  0  0  0  0  0  0  0  0
    7.4393    0.6934    5.4304 C   0  0  0  0  0  0  0  0  0  0  0  0
    6.8381   -0.2482    4.5925 C   0  0  0  0  0  0  0  0  0  0  0  0
    5.9520   -1.2529    5.0760 C   0  0  0  0  0  0  0  0  0  0  0  0
    6.9303   -2.5165    0.3312 C   0  0  0  0  0  0  0  0  0  0  0  0
    7.5314   -1.1910    0.7341 C   0  0  0  0  0  0  0  0  0  0  0  0
    6.8556   -0.0531    0.2154 O   0  0  0  0  0  0  0  0  0  0  0  0
    3.0124    2.2053   -0.2964 H   0  0  0  0  0  0  0  0  0  0  0  0
    5.4737    2.0343   -0.1654 H   0  0  0  0  0  0  0  0  0  0  0  0
    2.6856   -2.0174    0.3326 H   0  0  0  0  0  0  0  0  0  0  0  0
    3.7577   -3.7986   -0.3889 H   0  0  0  0  0  0  0  0  0  0  0  0
    5.2539   -4.6264   -0.4306 H   0  0  0  0  0  0  0  0  0  0  0  0
    4.4239   -2.3754   -2.1963 H   0  0  0  0  0  0  0  0  0  0  0  0
    6.7363   -2.3675   -2.5200 H   0  0  0  0  0  0  0  0  0  0  0  0
    5.9764   -3.2714   -3.7804 H   0  0  0  0  0  0  0  0  0  0  0  0
    6.4379   -5.4090   -2.7502 H   0  0  0  0  0  0  0  0  0  0  0  0
    7.1296   -4.7087   -1.3030 H   0  0  0  0  0  0  0  0  0  0  0  0
    7.8019   -5.2204   -6.9071 H   0  0  0  0  0  0  0  0  0  0  0  0
    7.5316   -7.6599   -7.4050 H   0  0  0  0  0  0  0  0  0  0  0  0
    8.1111   -9.3630   -5.6932 H   0  0  0  0  0  0  0  0  0  0  0  0
    8.9347   -8.6594   -3.4345 H   0  0  0  0  0  0  0  0  0  0  0  0
    5.7749   -1.3186    2.5459 H   0  0  0  0  0  0  0  0  0  0  0  0
    4.2330   -4.1435    4.4210 H   0  0  0  0  0  0  0  0  0  0  0  0
    4.4797   -2.1661    7.9987 H   0  0  0  0  0  0  0  0  0  0  0  0
    6.0440   -0.2438    8.3605 H   0  0  0  0  0  0  0  0  0  0  0  0
    7.6326    1.4047    7.4465 H   0  0  0  0  0  0  0  0  0  0  0  0
    8.1372    1.4195    5.0201 H   0  0  0  0  0  0  0  0  0  0  0  0
    7.1147   -0.1912    3.5488 H   0  0  0  0  0  0  0  0  0  0  0  0
    7.2512   -2.6237   -0.6945 H   0  0  0  0  0  0  0  0  0  0  0  0
    7.4211   -3.3401    0.8655 H   0  0  0  0  0  0  0  0  0  0  0  0
    8.5601   -1.1431    0.3568 H   0  0  0  0  0  0  0  0  0  0  0  0
    7.6316   -1.1071    1.8137 H   0  0  0  0  0  0  0  0  0  0  0  0
  1  2  1  0  0  0  0
  2  3  1  0  0  0  0
  2  7  2  0  0  0  0
  3  4  2  0  0  0  0
  3 40  1  0  0  0  0
  4  5  1  0  0  0  0
  4 41  1  0  0  0  0
  5  6  2  0  0  0  0
  5 39  1  0  0  0  0
  6  7  1  0  0  0  0
  6  8  1  0  0  0  0
  7 42  1  0  0  0  0
  8  9  1  0  0  0  0
  8 24  1  0  0  0  0
  8 37  1  0  0  0  0
  9 10  1  0  0  0  0
  9 43  1  0  0  0  0
  9 44  1  0  0  0  0
 10 11  1  0  0  0  0
 10 45  1  0  0  0  0
 11 12  1  0  0  0  0
 11 46  1  0  0  0  0
 11 47  1  0  0  0  0
 12 13  1  0  0  0  0
 12 48  1  0  0  0  0
 12 49  1  0  0  0  0
 13 14  1  0  0  0  0
 13 22  1  0  0  0  0
 14 15  2  0  0  0  0
 14 16  1  0  0  0  0
 16 17  1  0  0  0  0
 16 21  2  0  0  0  0
 17 18  2  0  0  0  0
 17 50  1  0  0  0  0
 18 19  1  0  0  0  0
 18 51  1  0  0  0  0
 19 20  2  0  0  0  0
 19 52  1  0  0  0  0
 20 21  1  0  0  0  0
 20 53  1  0  0  0  0
 21 22  1  0  0  0  0
 22 23  2  0  0  0  0
 24 25  2  0  0  0  0
 24 26  1  0  0  0  0
 26 27  1  0  0  0  0
 26 54  1  0  0  0  0
 27 28  1  0  0  0  0
 27 36  2  0  0  0  0
 28 29  2  0  0  0  0
 28 55  1  0  0  0  0
 29 30  1  0  0  0  0
 30 31  2  0  0  0  0
 30 56  1  0  0  0  0
 31 32  1  0  0  0  0
 31 36  1  0  0  0  0
 32 33  2  0  0  0  0
 32 57  1  0  0  0  0
 33 34  1  0  0  0  0
 33 58  1  0  0  0  0
 34 35  2  0  0  0  0
 34 59  1  0  0  0  0
 35 36  1  0  0  0  0
 35 60  1  0  0  0  0
 37 38  1  0  0  0  0
 37 61  1  0  0  0  0
 37 62  1  0  0  0  0
 38 39  1  0  0  0  0
 38 63  1  0  0  0  0
 38 64  1  0  0  0  0
M  END
$$$$
