
 OpenBabel07202414203D

 37 39  0  0  1  0  0  0  0  0999 V2000
   -2.4278    0.8173    0.2003 C   0  0  0  0  0  0  0  0  0  0  0  0
   -2.5132   -0.5692    0.1158 C   0  0  0  0  0  0  0  0  0  0  0  0
   -1.3631   -1.3275   -0.0938 C   0  0  0  0  0  0  0  0  0  0  0  0
   -0.1093   -0.7048   -0.1812 C   0  0  0  0  0  0  0  0  0  0  0  0
   -0.0294    0.7023   -0.1443 C   0  0  0  0  0  0  0  0  0  0  0  0
   -1.1952    1.4548    0.0479 C   0  0  0  0  0  0  0  0  0  0  0  0
    1.3029    1.3801   -0.3813 C   0  0  0  0  0  0  0  0  0  0  0  0
    2.4223    0.6846    0.2532 N   0  0  0  0  0  0  0  0  0  0  0  0
    2.3018   -0.7549    0.4757 C   0  0  0  0  0  0  0  0  0  0  0  0
    1.1940   -1.4700   -0.3334 C   0  0  3  0  0  0  0  0  0  0  0  0
    1.1487   -2.9300    0.1017 C   0  0  0  0  0  0  0  0  0  0  0  0
    1.3667   -3.9486   -0.8357 C   0  0  0  0  0  0  0  0  0  0  0  0
    1.3682   -5.2852   -0.4360 C   0  0  0  0  0  0  0  0  0  0  0  0
    1.1590   -5.6214    0.9015 C   0  0  0  0  0  0  0  0  0  0  0  0
    0.9307   -4.6206    1.8472 C   0  0  0  0  0  0  0  0  0  0  0  0
    0.9121   -3.2827    1.4437 C   0  0  0  0  0  0  0  0  0  0  0  0
    0.7318   -4.9557    3.2253 C   0  0  0  0  0  0  0  0  0  0  0  0
    0.5823   -5.2141    4.3476 N   0  0  0  0  0  0  0  0  0  0  0  0
    3.5174    1.4297    0.6804 C   0  0  0  0  0  0  0  0  0  0  0  0
    3.5877    2.6470    0.4948 O   0  0  0  0  0  0  0  0  0  0  0  0
    4.6479    0.7000    1.3927 C   0  0  0  0  0  0  0  0  0  0  0  0
    5.8405    0.1655    0.1918 Cl  0  0  0  0  0  0  0  0  0  0  0  0
   -3.3258    1.4048    0.3747 H   0  0  0  0  0  0  0  0  0  0  0  0
   -3.4757   -1.0643    0.2205 H   0  0  0  0  0  0  0  0  0  0  0  0
   -1.4617   -2.4078   -0.1680 H   0  0  0  0  0  0  0  0  0  0  0  0
   -1.1515    2.5409    0.0859 H   0  0  0  0  0  0  0  0  0  0  0  0
    1.2685    2.4219   -0.0448 H   0  0  0  0  0  0  0  0  0  0  0  0
    1.5039    1.3885   -1.4601 H   0  0  0  0  0  0  0  0  0  0  0  0
    2.1198   -0.8534    1.5538 H   0  0  0  0  0  0  0  0  0  0  0  0
    3.2638   -1.2363    0.2712 H   0  0  0  0  0  0  0  0  0  0  0  0
    1.4637   -1.4198   -1.3979 H   0  0  0  0  0  0  0  0  0  0  0  0
    1.5406   -3.7095   -1.8833 H   0  0  0  0  0  0  0  0  0  0  0  0
    1.5428   -6.0691   -1.1698 H   0  0  0  0  0  0  0  0  0  0  0  0
    1.1774   -6.6673    1.2002 H   0  0  0  0  0  0  0  0  0  0  0  0
    0.7097   -2.5075    2.1842 H   0  0  0  0  0  0  0  0  0  0  0  0
    4.3002   -0.1636    1.9635 H   0  0  0  0  0  0  0  0  0  0  0  0
    5.1359    1.3814    2.0950 H   0  0  0  0  0  0  0  0  0  0  0  0
  1  2  1  0  0  0  0
  1  6  2  0  0  0  0
  1 23  1  0  0  0  0
  2  3  2  0  0  0  0
  2 24  1  0  0  0  0
  3  4  1  0  0  0  0
  3 25  1  0  0  0  0
  4  5  2  0  0  0  0
  4 10  1  0  0  0  0
  5  6  1  0  0  0  0
  5  7  1  0  0  0  0
  6 26  1  0  0  0  0
  7  8  1  0  0  0  0
  7 27  1  0  0  0  0
  7 28  1  0  0  0  0
  8  9  1  0  0  0  0
  8 19  1  0  0  0  0
  9 10  1  0  0  0  0
  9 29  1  0  0  0  0
  9 30  1  0  0  0  0
 10 11  1  0  0  0  0
 10 31  1  0  0  0  0
 11 12  1  0  0  0  0
 11 16  2  0  0  0  0
 12 13  2  0  0  0  0
 12 32  1  0  0  0  0
 13 14  1  0  0  0  0
 13 33  1  0  0  0  0
 14 15  2  0  0  0  0
 14 34  1  0  0  0  0
 15 16  1  0  0  0  0
 15 17  1  0  0  0  0
 16 35  1  0  0  0  0
 17 18  3  0  0  0  0
 19 20  2  0  0  0  0
 19 21  1  0  0  0  0
 21 22  1  0  0  0  0
 21 36  1  0  0  0  0
 21 37  1  0  0  0  0
M  END
$$$$
