
 OpenBabel07202414203D

 35 36  0  0  0  0  0  0  0  0999 V2000
   -3.0872    2.8426   -2.3296 O   0  0  0  0  0  0  0  0  0  0  0  0
   -1.9664    3.5664   -2.0511 C   0  0  0  0  0  0  0  0  0  0  0  0
   -1.7697    4.8298   -2.5944 C   0  0  0  0  0  0  0  0  0  0  0  0
   -0.6093    5.5281   -2.2572 C   0  0  0  0  0  0  0  0  0  0  0  0
   -0.3539    7.1002   -2.9119 Cl  0  0  0  0  0  0  0  0  0  0  0  0
    0.3408    4.9696   -1.3996 C   0  0  0  0  0  0  0  0  0  0  0  0
    0.1651    3.6773   -0.8751 C   0  0  0  0  0  0  0  0  0  0  0  0
    1.1595    3.0461    0.0922 C   0  0  0  0  0  0  0  0  0  0  0  0
    2.5438    3.5209   -0.0570 N   0  0  0  0  0  0  0  0  0  0  0  0
    3.2105    3.0579   -1.2845 C   0  0  0  0  0  0  0  0  0  0  0  0
    3.6472    1.5823   -1.2930 C   0  0  0  0  0  0  0  0  0  0  0  0
    4.3550    1.1521   -0.0858 N   0  0  0  0  0  0  0  0  0  0  0  0
    4.9994   -0.0947    0.0109 C   0  0  0  0  0  0  0  0  0  0  0  0
    5.4764   -0.4771    1.0799 O   0  0  0  0  0  0  0  0  0  0  0  0
    5.0254   -0.9453   -1.2561 C   0  0  0  0  0  0  0  0  0  0  0  0
    5.8206   -2.5120   -0.9902 Cl  0  0  0  0  0  0  0  0  0  0  0  0
    3.9384    1.7509    1.1848 C   0  0  0  0  0  0  0  0  0  0  0  0
    3.3938    3.1904    1.1022 C   0  0  0  0  0  0  0  0  0  0  0  0
   -1.0194    2.9915   -1.1966 C   0  0  0  0  0  0  0  0  0  0  0  0
   -3.6638    3.3674   -2.9121 H   0  0  0  0  0  0  0  0  0  0  0  0
   -2.4986    5.2750   -3.2625 H   0  0  0  0  0  0  0  0  0  0  0  0
    1.2278    5.5428   -1.1389 H   0  0  0  0  0  0  0  0  0  0  0  0
    1.1125    1.9521    0.0143 H   0  0  0  0  0  0  0  0  0  0  0  0
    0.7941    3.3114    1.0934 H   0  0  0  0  0  0  0  0  0  0  0  0
    4.1055    3.6804   -1.4194 H   0  0  0  0  0  0  0  0  0  0  0  0
    2.5935    3.2521   -2.1689 H   0  0  0  0  0  0  0  0  0  0  0  0
    4.3097    1.4263   -2.1515 H   0  0  0  0  0  0  0  0  0  0  0  0
    2.7805    0.9252   -1.4201 H   0  0  0  0  0  0  0  0  0  0  0  0
    5.5681   -0.4327   -2.0524 H   0  0  0  0  0  0  0  0  0  0  0  0
    3.9998   -1.1600   -1.5686 H   0  0  0  0  0  0  0  0  0  0  0  0
    4.7948    1.7386    1.8714 H   0  0  0  0  0  0  0  0  0  0  0  0
    3.1752    1.0887    1.6111 H   0  0  0  0  0  0  0  0  0  0  0  0
    4.2543    3.8721    1.0709 H   0  0  0  0  0  0  0  0  0  0  0  0
    2.8783    3.4313    2.0407 H   0  0  0  0  0  0  0  0  0  0  0  0
   -1.2182    2.0101   -0.7842 H   0  0  0  0  0  0  0  0  0  0  0  0
  1  2  1  0  0  0  0
  1 20  1  0  0  0  0
  2  3  1  0  0  0  0
  2 19  2  0  0  0  0
  3  4  2  0  0  0  0
  3 21  1  0  0  0  0
  4  5  1  0  0  0  0
  4  6  1  0  0  0  0
  6  7  2  0  0  0  0
  6 22  1  0  0  0  0
  7  8  1  0  0  0  0
  7 19  1  0  0  0  0
  8  9  1  0  0  0  0
  8 23  1  0  0  0  0
  8 24  1  0  0  0  0
  9 10  1  0  0  0  0
  9 18  1  0  0  0  0
 10 11  1  0  0  0  0
 10 25  1  0  0  0  0
 10 26  1  0  0  0  0
 11 12  1  0  0  0  0
 11 27  1  0  0  0  0
 11 28  1  0  0  0  0
 12 13  1  0  0  0  0
 12 17  1  0  0  0  0
 13 14  2  0  0  0  0
 13 15  1  0  0  0  0
 15 16  1  0  0  0  0
 15 29  1  0  0  0  0
 15 30  1  0  0  0  0
 17 18  1  0  0  0  0
 17 31  1  0  0  0  0
 17 32  1  0  0  0  0
 18 33  1  0  0  0  0
 18 34  1  0  0  0  0
 19 35  1  0  0  0  0
M  END
$$$$
