
 OpenBabel07202414143D

 51 54  0  0  1  0  0  0  0  0999 V2000
    2.0834    0.4757   -1.9003 C   0  0  0  0  0  0  0  0  0  0  0  0
    2.4555    0.3479   -0.4971 N   0  0  0  0  0  0  0  0  0  0  0  0
    3.4360   -0.9376   -0.0410 S   0  0  0  0  0  0  0  0  0  0  0  0
    3.2333   -1.1048    1.3815 O   0  0  0  0  0  0  0  0  0  0  0  0
    3.2313   -2.0271   -0.9693 O   0  0  0  0  0  0  0  0  0  0  0  0
    5.0685   -0.2855   -0.2866 C   0  0  0  0  0  0  0  0  0  0  0  0
    5.7294    0.3333    0.7683 C   0  0  0  0  0  0  0  0  0  0  0  0
    7.0224    0.8304    0.5745 C   0  0  0  0  0  0  0  0  0  0  0  0
    7.6898    0.7457   -0.6749 C   0  0  0  0  0  0  0  0  0  0  0  0
    8.9880    1.2693   -0.9556 C   0  0  0  0  0  0  0  0  0  0  0  0
    9.7536    2.0766   -0.0598 N   0  0  0  0  0  0  0  0  0  0  0  0
    9.2043    3.2039    0.5411 C   0  0  0  0  0  0  0  0  0  0  0  0
    8.0307    3.5400    0.3763 O   0  0  0  0  0  0  0  0  0  0  0  0
   10.2008    4.0373    1.4511 C   0  0  3  0  0  0  0  0  0  0  0  0
   11.3827    4.3192    0.6677 O   0  0  0  0  0  0  0  0  0  0  0  0
   12.3935    5.0862    1.3310 C   0  0  0  0  0  0  0  0  0  0  0  0
   10.5679    3.1928    2.6819 C   0  0  0  0  0  0  0  0  0  0  0  0
    9.4032    3.1564    3.6446 C   0  0  0  0  0  0  0  0  0  0  0  0
    9.0784    4.4626    4.1238 O   0  0  0  0  0  0  0  0  0  0  0  0
    8.9044    5.4020    3.1447 C   0  0  0  0  0  0  0  0  0  0  0  0
    8.1186    6.5022    3.4882 C   0  0  0  0  0  0  0  0  0  0  0  0
    7.8397    7.4899    2.5420 C   0  0  0  0  0  0  0  0  0  0  0  0
    8.3793    7.3929    1.2625 C   0  0  0  0  0  0  0  0  0  0  0  0
    8.0005    8.5832    0.0797 Cl  0  0  0  0  0  0  0  0  0  0  0  0
    9.2002    6.3193    0.9254 C   0  0  0  0  0  0  0  0  0  0  0  0
    9.4634    5.3031    1.8659 C   0  0  0  0  0  0  0  0  0  0  0  0
    9.5440    0.9968   -2.2053 C   0  0  0  0  0  0  0  0  0  0  0  0
    8.9261    0.3111   -3.1912 N   0  0  0  0  0  0  0  0  0  0  0  0
    7.6785   -0.1307   -2.9218 C   0  0  0  0  0  0  0  0  0  0  0  0
    7.0143    0.0466   -1.7074 C   0  0  0  0  0  0  0  0  0  0  0  0
    5.7139   -0.4608   -1.5122 C   0  0  0  0  0  0  0  0  0  0  0  0
    1.5327    1.4103   -2.0386 H   0  0  0  0  0  0  0  0  0  0  0  0
    1.4253   -0.3445   -2.1997 H   0  0  0  0  0  0  0  0  0  0  0  0
    2.9649    0.5028   -2.5449 H   0  0  0  0  0  0  0  0  0  0  0  0
    1.7492    0.5622    0.2066 H   0  0  0  0  0  0  0  0  0  0  0  0
    5.2524    0.4416    1.7397 H   0  0  0  0  0  0  0  0  0  0  0  0
    7.5060    1.3057    1.4227 H   0  0  0  0  0  0  0  0  0  0  0  0
   10.7421    2.1880   -0.2679 H   0  0  0  0  0  0  0  0  0  0  0  0
   13.1178    5.4210    0.5831 H   0  0  0  0  0  0  0  0  0  0  0  0
   12.9379    4.4732    2.0549 H   0  0  0  0  0  0  0  0  0  0  0  0
   11.9893    5.9738    1.8269 H   0  0  0  0  0  0  0  0  0  0  0  0
   11.4189    3.6287    3.2159 H   0  0  0  0  0  0  0  0  0  0  0  0
   10.8751    2.1783    2.3920 H   0  0  0  0  0  0  0  0  0  0  0  0
    9.6798    2.5548    4.5173 H   0  0  0  0  0  0  0  0  0  0  0  0
    8.5126    2.6918    3.2084 H   0  0  0  0  0  0  0  0  0  0  0  0
    7.6864    6.5676    4.4832 H   0  0  0  0  0  0  0  0  0  0  0  0
    7.1861    8.3172    2.8030 H   0  0  0  0  0  0  0  0  0  0  0  0
    9.5893    6.2362   -0.0878 H   0  0  0  0  0  0  0  0  0  0  0  0
   10.5229    1.3788   -2.4814 H   0  0  0  0  0  0  0  0  0  0  0  0
    7.2078   -0.6620   -3.7465 H   0  0  0  0  0  0  0  0  0  0  0  0
    5.2041   -0.9912   -2.3152 H   0  0  0  0  0  0  0  0  0  0  0  0
  1  2  1  0  0  0  0
  1 32  1  0  0  0  0
  1 33  1  0  0  0  0
  1 34  1  0  0  0  0
  2  3  1  0  0  0  0
  2 35  1  0  0  0  0
  3  4  2  0  0  0  0
  3  5  2  0  0  0  0
  3  6  1  0  0  0  0
  6  7  1  0  0  0  0
  6 31  2  0  0  0  0
  7  8  2  0  0  0  0
  7 36  1  0  0  0  0
  8  9  1  0  0  0  0
  8 37  1  0  0  0  0
  9 10  1  0  0  0  0
  9 30  2  0  0  0  0
 10 11  1  0  0  0  0
 10 27  2  0  0  0  0
 11 12  1  0  0  0  0
 11 38  1  0  0  0  0
 12 13  2  0  0  0  0
 12 14  1  0  0  0  0
 14 15  1  0  0  0  0
 14 17  1  0  0  0  0
 14 26  1  0  0  0  0
 15 16  1  0  0  0  0
 16 39  1  0  0  0  0
 16 40  1  0  0  0  0
 16 41  1  0  0  0  0
 17 18  1  0  0  0  0
 17 42  1  0  0  0  0
 17 43  1  0  0  0  0
 18 19  1  0  0  0  0
 18 44  1  0  0  0  0
 18 45  1  0  0  0  0
 19 20  1  0  0  0  0
 20 21  1  0  0  0  0
 20 26  2  0  0  0  0
 21 22  2  0  0  0  0
 21 46  1  0  0  0  0
 22 23  1  0  0  0  0
 22 47  1  0  0  0  0
 23 24  1  0  0  0  0
 23 25  2  0  0  0  0
 25 26  1  0  0  0  0
 25 48  1  0  0  0  0
 27 28  1  0  0  0  0
 27 49  1  0  0  0  0
 28 29  2  0  0  0  0
 29 30  1  0  0  0  0
 29 50  1  0  0  0  0
 30 31  1  0  0  0  0
 31 51  1  0  0  0  0
M  END
$$$$
