
 OpenBabel07202414143D

 42 45  0  0  1  0  0  0  0  0999 V2000
    1.4872   -0.2363    0.2183 C   0  0  0  0  0  0  0  0  0  0  0  0
    2.8904   -0.2122   -0.1463 N   0  0  0  0  0  0  0  0  0  0  0  0
    3.7385   -1.3821    0.0540 C   0  0  0  0  0  0  0  0  0  0  0  0
    4.5905   -1.6498   -1.1879 C   0  0  2  0  0  0  0  0  0  0  0  0
    5.6354   -2.7458   -0.9356 C   0  0  0  0  0  0  0  0  0  0  0  0
    5.5516   -3.7933   -1.5734 O   0  0  0  0  0  0  0  0  0  0  0  0
    6.6329   -2.4533   -0.0120 N   0  0  0  0  0  0  0  0  0  0  0  0
    7.7280   -3.3002    0.3510 C   0  0  0  0  0  0  0  0  0  0  0  0
    7.9364   -4.5569   -0.2272 C   0  0  0  0  0  0  0  0  0  0  0  0
    8.8855   -5.4438    0.1509 N   0  0  0  0  0  0  0  0  0  0  0  0
    9.7152   -5.0556    1.1346 C   0  0  0  0  0  0  0  0  0  0  0  0
    9.6913   -3.7991    1.7289 C   0  0  0  0  0  0  0  0  0  0  0  0
   10.6720   -3.4542    2.6791 C   0  0  0  0  0  0  0  0  0  0  0  0
   10.6829   -2.1878    3.2551 C   0  0  0  0  0  0  0  0  0  0  0  0
    9.7002   -1.2696    2.9101 C   0  0  0  0  0  0  0  0  0  0  0  0
    8.7067   -1.6160    1.9782 C   0  0  0  0  0  0  0  0  0  0  0  0
    8.6760   -2.8867    1.3462 C   0  0  0  0  0  0  0  0  0  0  0  0
    5.1796   -0.3744   -1.7610 C   0  0  0  0  0  0  0  0  0  0  0  0
    6.1230   -0.4294   -2.7975 C   0  0  0  0  0  0  0  0  0  0  0  0
    6.6130    0.7451   -3.3611 C   0  0  0  0  0  0  0  0  0  0  0  0
    7.4776    0.6718   -4.3798 F   0  0  0  0  0  0  0  0  0  0  0  0
    6.1992    1.9893   -2.9044 C   0  0  0  0  0  0  0  0  0  0  0  0
    5.2286    2.0640   -1.9068 C   0  0  0  0  0  0  0  0  0  0  0  0
    4.6875    0.8851   -1.3686 C   0  0  0  0  0  0  0  0  0  0  0  0
    3.4472    0.9924   -0.5483 C   0  0  0  0  0  0  0  0  0  0  0  0
    2.9162    2.0825   -0.3638 O   0  0  0  0  0  0  0  0  0  0  0  0
    1.1479   -1.2552    0.4142 H   0  0  0  0  0  0  0  0  0  0  0  0
    0.9089    0.1718   -0.6206 H   0  0  0  0  0  0  0  0  0  0  0  0
    1.3149    0.3992    1.0889 H   0  0  0  0  0  0  0  0  0  0  0  0
    3.1202   -2.2583    0.2851 H   0  0  0  0  0  0  0  0  0  0  0  0
    4.3571   -1.1780    0.9370 H   0  0  0  0  0  0  0  0  0  0  0  0
    3.9102   -2.0338   -1.9623 H   0  0  0  0  0  0  0  0  0  0  0  0
    6.5732   -1.5696    0.4714 H   0  0  0  0  0  0  0  0  0  0  0  0
    7.3418   -4.9244   -1.0551 H   0  0  0  0  0  0  0  0  0  0  0  0
   10.4420   -5.8114    1.4271 H   0  0  0  0  0  0  0  0  0  0  0  0
   11.4527   -4.1608    2.9496 H   0  0  0  0  0  0  0  0  0  0  0  0
   11.4650   -1.9172    3.9592 H   0  0  0  0  0  0  0  0  0  0  0  0
    9.7058   -0.2806    3.3549 H   0  0  0  0  0  0  0  0  0  0  0  0
    7.9781   -0.8479    1.7385 H   0  0  0  0  0  0  0  0  0  0  0  0
    6.4549   -1.3796   -3.2108 H   0  0  0  0  0  0  0  0  0  0  0  0
    6.5919    2.8907   -3.3621 H   0  0  0  0  0  0  0  0  0  0  0  0
    4.8469    3.0359   -1.5976 H   0  0  0  0  0  0  0  0  0  0  0  0
  1  2  1  0  0  0  0
  1 27  1  0  0  0  0
  1 28  1  0  0  0  0
  1 29  1  0  0  0  0
  2  3  1  0  0  0  0
  2 25  1  0  0  0  0
  3  4  1  0  0  0  0
  3 30  1  0  0  0  0
  3 31  1  0  0  0  0
  4 18  1  0  0  0  0
  4  5  1  0  0  0  0
  4 32  1  6  0  0  0
  5  6  2  0  0  0  0
  5  7  1  0  0  0  0
  7  8  1  0  0  0  0
  7 33  1  0  0  0  0
  8  9  1  0  0  0  0
  8 17  2  0  0  0  0
  9 10  2  0  0  0  0
  9 34  1  0  0  0  0
 10 11  1  0  0  0  0
 11 12  2  0  0  0  0
 11 35  1  0  0  0  0
 12 13  1  0  0  0  0
 12 17  1  0  0  0  0
 13 14  2  0  0  0  0
 13 36  1  0  0  0  0
 14 15  1  0  0  0  0
 14 37  1  0  0  0  0
 15 16  2  0  0  0  0
 15 38  1  0  0  0  0
 16 17  1  0  0  0  0
 16 39  1  0  0  0  0
 18 19  1  0  0  0  0
 18 24  2  0  0  0  0
 19 20  2  0  0  0  0
 19 40  1  0  0  0  0
 20 21  1  0  0  0  0
 20 22  1  0  0  0  0
 22 23  2  0  0  0  0
 22 41  1  0  0  0  0
 23 24  1  0  0  0  0
 23 42  1  0  0  0  0
 24 25  1  0  0  0  0
 25 26  2  0  0  0  0
M  END
$$$$
