
 OpenBabel07202414153D

 40 43  0  0  1  0  0  0  0  0999 V2000
    1.0698    0.4429    0.0859 C   0  0  0  0  0  0  0  0  0  0  0  0
    2.3860   -0.0314   -0.1719 O   0  0  0  0  0  0  0  0  0  0  0  0
    2.8325   -1.1163    0.6661 C   0  0  2  0  0  0  0  0  0  0  0  0
    4.2717   -1.4335    0.1892 C   0  0  0  0  0  0  0  0  0  0  0  0
    4.7276   -2.8783    0.4160 C   0  0  0  0  0  0  0  0  0  0  0  0
    3.6971   -3.7720   -0.2183 C   0  0  2  0  0  0  0  0  0  0  0  0
    2.4084   -3.6079    0.3923 N   0  0  0  0  0  0  0  0  0  0  0  0
    1.8474   -2.3111    0.6666 C   0  0  0  0  0  0  0  0  0  0  0  0
    1.6493   -4.7567    0.2223 C   0  0  0  0  0  0  0  0  0  0  0  0
    0.4408   -4.8244    0.4164 O   0  0  0  0  0  0  0  0  0  0  0  0
    2.5082   -5.7579   -0.1591 N   0  0  0  0  0  0  0  0  0  0  0  0
    2.1265   -7.0402   -0.5895 C   0  0  0  0  0  0  0  0  0  0  0  0
    1.2925   -7.2361   -1.7292 C   0  0  0  0  0  0  0  0  0  0  0  0
    0.7525   -6.2039   -2.5433 C   0  0  0  0  0  0  0  0  0  0  0  0
    0.0045   -6.4783   -3.6927 C   0  0  0  0  0  0  0  0  0  0  0  0
   -0.2279   -7.7927   -4.0714 C   0  0  0  0  0  0  0  0  0  0  0  0
    0.2812   -8.8321   -3.2945 C   0  0  0  0  0  0  0  0  0  0  0  0
    1.0395   -8.5662   -2.1378 C   0  0  0  0  0  0  0  0  0  0  0  0
    1.5909   -9.6021   -1.3816 C   0  0  0  0  0  0  0  0  0  0  0  0
    2.3812   -9.4343   -0.2983 N   0  0  0  0  0  0  0  0  0  0  0  0
    2.6462   -8.1590    0.0573 C   0  0  0  0  0  0  0  0  0  0  0  0
    3.8089   -5.2913   -0.1448 C   0  0  0  0  0  0  0  0  0  0  0  0
    4.8461   -5.9337   -0.2333 O   0  0  0  0  0  0  0  0  0  0  0  0
    0.9711    1.4381   -0.3562 H   0  0  0  0  0  0  0  0  0  0  0  0
    0.8633    0.5087    1.1576 H   0  0  0  0  0  0  0  0  0  0  0  0
    0.3348   -0.2009   -0.4060 H   0  0  0  0  0  0  0  0  0  0  0  0
    2.9018   -0.7295    1.6914 H   0  0  0  0  0  0  0  0  0  0  0  0
    4.9732   -0.7427    0.6741 H   0  0  0  0  0  0  0  0  0  0  0  0
    4.3520   -1.2080   -0.8842 H   0  0  0  0  0  0  0  0  0  0  0  0
    4.8383   -3.0831    1.4865 H   0  0  0  0  0  0  0  0  0  0  0  0
    5.7083   -3.0358   -0.0487 H   0  0  0  0  0  0  0  0  0  0  0  0
    3.5932   -3.5277   -1.2861 H   0  0  0  0  0  0  0  0  0  0  0  0
    1.3898   -2.3858    1.6618 H   0  0  0  0  0  0  0  0  0  0  0  0
    1.0220   -2.1794   -0.0372 H   0  0  0  0  0  0  0  0  0  0  0  0
    0.9158   -5.1568   -2.2998 H   0  0  0  0  0  0  0  0  0  0  0  0
   -0.3875   -5.6612   -4.2948 H   0  0  0  0  0  0  0  0  0  0  0  0
   -0.7982   -8.0106   -4.9708 H   0  0  0  0  0  0  0  0  0  0  0  0
    0.1011   -9.8574   -3.6120 H   0  0  0  0  0  0  0  0  0  0  0  0
    1.4230  -10.6424   -1.6517 H   0  0  0  0  0  0  0  0  0  0  0  0
    3.2977   -8.0589    0.9222 H   0  0  0  0  0  0  0  0  0  0  0  0
  1  2  1  0  0  0  0
  1 24  1  0  0  0  0
  1 25  1  0  0  0  0
  1 26  1  0  0  0  0
  2  3  1  0  0  0  0
  3  4  1  0  0  0  0
  3  8  1  0  0  0  0
  3 27  1  1  0  0  0
  4  5  1  0  0  0  0
  4 28  1  0  0  0  0
  4 29  1  0  0  0  0
  5  6  1  0  0  0  0
  5 30  1  0  0  0  0
  5 31  1  0  0  0  0
  6  7  1  0  0  0  0
  6 22  1  0  0  0  0
  6 32  1  6  0  0  0
  7  8  1  0  0  0  0
  7  9  1  0  0  0  0
  8 33  1  0  0  0  0
  8 34  1  0  0  0  0
  9 10  2  0  0  0  0
  9 11  1  0  0  0  0
 11 12  1  0  0  0  0
 11 22  1  0  0  0  0
 12 13  2  0  0  0  0
 12 21  1  0  0  0  0
 13 14  1  0  0  0  0
 13 18  1  0  0  0  0
 14 15  2  0  0  0  0
 14 35  1  0  0  0  0
 15 16  1  0  0  0  0
 15 36  1  0  0  0  0
 16 17  2  0  0  0  0
 16 37  1  0  0  0  0
 17 18  1  0  0  0  0
 17 38  1  0  0  0  0
 18 19  2  0  0  0  0
 19 20  1  0  0  0  0
 19 39  1  0  0  0  0
 20 21  2  0  0  0  0
 21 40  1  0  0  0  0
 22 23  2  0  0  0  0
M  END
$$$$
