
 OpenBabel07202414133D

 65 69  0  0  1  0  0  0  0  0999 V2000
    2.9397    1.3553    0.0301 C   0  0  0  0  0  0  0  0  0  0  0  0
    2.9723    0.0400    0.6845 N   0  0  0  0  0  0  0  0  0  0  0  0
    3.4427   -1.0825   -0.0632 C   0  0  0  0  0  0  0  0  0  0  0  0
    2.7133   -1.5967   -1.1300 C   0  0  0  0  0  0  0  0  0  0  0  0
    3.2007   -2.6944   -1.8465 C   0  0  0  0  0  0  0  0  0  0  0  0
    4.4507   -3.2822   -1.5475 C   0  0  0  0  0  0  0  0  0  0  0  0
    5.0077   -4.3857   -2.2420 C   0  0  0  0  0  0  0  0  0  0  0  0
    4.3971   -5.0249   -3.3574 N   0  0  0  0  0  0  0  0  0  0  0  0
    4.0932   -4.3536   -4.5341 C   0  0  0  0  0  0  0  0  0  0  0  0
    4.2549   -3.1418   -4.6874 O   0  0  0  0  0  0  0  0  0  0  0  0
    3.5913   -5.2058   -5.7136 C   0  0  3  0  0  0  0  0  0  0  0  0
    2.1768   -4.7551   -6.1207 C   0  0  0  0  0  0  0  0  0  0  0  0
    1.1155   -5.4154   -5.2723 N   0  0  0  0  0  0  0  0  0  0  0  0
   -0.4367   -4.7239   -5.5387 S   0  0  0  0  0  0  0  0  0  0  0  0
   -0.2989   -3.3134   -5.2559 O   0  0  0  0  0  0  0  0  0  0  0  0
   -0.8802   -5.1894   -6.8358 O   0  0  0  0  0  0  0  0  0  0  0  0
   -1.4681   -5.4855   -4.2622 C   0  0  0  0  0  0  0  0  0  0  0  0
   -2.8745   -4.9649   -4.4753 C   0  0  0  0  0  0  0  0  0  0  0  0
   -3.0608   -3.5474   -4.2830 C   0  0  0  0  0  0  0  0  0  0  0  0
   -3.2539   -2.4205   -4.0823 N   0  0  0  0  0  0  0  0  0  0  0  0
   -3.8004   -5.7006   -5.4314 C   0  0  0  0  0  0  0  0  0  0  0  0
   -4.0416   -5.8074   -3.9568 C   0  0  0  0  0  0  0  0  0  0  0  0
    1.1455   -6.8869   -5.4576 C   0  0  0  0  0  0  0  0  0  0  0  0
    2.5281   -7.4943   -5.4099 C   0  0  0  0  0  0  0  0  0  0  0  0
    2.6368   -8.8891   -5.2840 C   0  0  0  0  0  0  0  0  0  0  0  0
    3.8841   -9.5091   -5.2990 C   0  0  0  0  0  0  0  0  0  0  0  0
    5.0316   -8.7404   -5.4598 C   0  0  0  0  0  0  0  0  0  0  0  0
    6.5716   -9.5040   -5.4745 Cl  0  0  0  0  0  0  0  0  0  0  0  0
    4.9421   -7.3553   -5.6044 C   0  0  0  0  0  0  0  0  0  0  0  0
    3.6890   -6.7161   -5.5676 C   0  0  0  0  0  0  0  0  0  0  0  0
    6.2054   -4.9214   -1.7653 C   0  0  0  0  0  0  0  0  0  0  0  0
    6.8999   -4.4429   -0.7113 N   0  0  0  0  0  0  0  0  0  0  0  0
    6.3650   -3.3744   -0.0805 C   0  0  0  0  0  0  0  0  0  0  0  0
    5.1624   -2.7606   -0.4379 C   0  0  0  0  0  0  0  0  0  0  0  0
    4.6548   -1.6692    0.2927 C   0  0  0  0  0  0  0  0  0  0  0  0
    1.9357   -0.2334    1.9913 S   0  0  0  0  0  0  0  0  0  0  0  0
    0.3877   -0.6469    1.2062 C   0  0  0  0  0  0  0  0  0  0  0  0
    2.3878   -1.4043    2.7168 O   0  0  0  0  0  0  0  0  0  0  0  0
    1.7459    1.0299    2.6744 O   0  0  0  0  0  0  0  0  0  0  0  0
    3.5123    1.3533   -0.9036 H   0  0  0  0  0  0  0  0  0  0  0  0
    3.4019    2.0974    0.6897 H   0  0  0  0  0  0  0  0  0  0  0  0
    1.9168    1.6633   -0.2000 H   0  0  0  0  0  0  0  0  0  0  0  0
    1.7648   -1.1585   -1.4244 H   0  0  0  0  0  0  0  0  0  0  0  0
    2.5885   -3.0869   -2.6549 H   0  0  0  0  0  0  0  0  0  0  0  0
    4.6367   -6.0016   -3.4675 H   0  0  0  0  0  0  0  0  0  0  0  0
    4.2559   -4.9373   -6.5496 H   0  0  0  0  0  0  0  0  0  0  0  0
    1.9987   -5.0321   -7.1696 H   0  0  0  0  0  0  0  0  0  0  0  0
    2.0943   -3.6651   -6.0518 H   0  0  0  0  0  0  0  0  0  0  0  0
   -1.0705   -5.2100   -3.2819 H   0  0  0  0  0  0  0  0  0  0  0  0
   -1.4368   -6.5697   -4.3959 H   0  0  0  0  0  0  0  0  0  0  0  0
   -3.4478   -6.5897   -5.9428 H   0  0  0  0  0  0  0  0  0  0  0  0
   -4.4944   -5.1144   -6.0275 H   0  0  0  0  0  0  0  0  0  0  0  0
   -3.8433   -6.7540   -3.4695 H   0  0  0  0  0  0  0  0  0  0  0  0
   -4.9190   -5.2989   -3.5611 H   0  0  0  0  0  0  0  0  0  0  0  0
    0.6948   -7.1601   -6.4183 H   0  0  0  0  0  0  0  0  0  0  0  0
    0.5679   -7.3400   -4.6457 H   0  0  0  0  0  0  0  0  0  0  0  0
    1.7429   -9.5032   -5.1843 H   0  0  0  0  0  0  0  0  0  0  0  0
    3.9498  -10.5895   -5.1979 H   0  0  0  0  0  0  0  0  0  0  0  0
    5.8521   -6.7747   -5.7495 H   0  0  0  0  0  0  0  0  0  0  0  0
    6.6829   -5.7628   -2.2602 H   0  0  0  0  0  0  0  0  0  0  0  0
    6.9491   -3.0182    0.7661 H   0  0  0  0  0  0  0  0  0  0  0  0
    5.2018   -1.2737    1.1468 H   0  0  0  0  0  0  0  0  0  0  0  0
    0.4925   -1.5881    0.6670 H   0  0  0  0  0  0  0  0  0  0  0  0
    0.0834    0.1628    0.5406 H   0  0  0  0  0  0  0  0  0  0  0  0
   -0.3597   -0.7720    1.9938 H   0  0  0  0  0  0  0  0  0  0  0  0
  1  2  1  0  0  0  0
  1 40  1  0  0  0  0
  1 41  1  0  0  0  0
  1 42  1  0  0  0  0
  2  3  1  0  0  0  0
  2 36  1  0  0  0  0
  3  4  1  0  0  0  0
  3 35  2  0  0  0  0
  4  5  2  0  0  0  0
  4 43  1  0  0  0  0
  5  6  1  0  0  0  0
  5 44  1  0  0  0  0
  6  7  1  0  0  0  0
  6 34  2  0  0  0  0
  7  8  1  0  0  0  0
  7 31  2  0  0  0  0
  8  9  1  0  0  0  0
  8 45  1  0  0  0  0
  9 10  2  0  0  0  0
  9 11  1  0  0  0  0
 11 12  1  0  0  0  0
 11 30  1  0  0  0  0
 11 46  1  0  0  0  0
 12 13  1  0  0  0  0
 12 47  1  0  0  0  0
 12 48  1  0  0  0  0
 13 14  1  0  0  0  0
 13 23  1  0  0  0  0
 14 15  2  0  0  0  0
 14 16  2  0  0  0  0
 14 17  1  0  0  0  0
 17 18  1  0  0  0  0
 17 49  1  0  0  0  0
 17 50  1  0  0  0  0
 18 19  1  0  0  0  0
 18 21  1  0  0  0  0
 18 22  1  0  0  0  0
 19 20  3  0  0  0  0
 21 22  1  0  0  0  0
 21 51  1  0  0  0  0
 21 52  1  0  0  0  0
 22 53  1  0  0  0  0
 22 54  1  0  0  0  0
 23 24  1  0  0  0  0
 23 55  1  0  0  0  0
 23 56  1  0  0  0  0
 24 25  1  0  0  0  0
 24 30  2  0  0  0  0
 25 26  2  0  0  0  0
 25 57  1  0  0  0  0
 26 27  1  0  0  0  0
 26 58  1  0  0  0  0
 27 28  1  0  0  0  0
 27 29  2  0  0  0  0
 29 30  1  0  0  0  0
 29 59  1  0  0  0  0
 31 32  1  0  0  0  0
 31 60  1  0  0  0  0
 32 33  2  0  0  0  0
 33 34  1  0  0  0  0
 33 61  1  0  0  0  0
 34 35  1  0  0  0  0
 35 62  1  0  0  0  0
 36 37  1  0  0  0  0
 36 38  2  0  0  0  0
 36 39  2  0  0  0  0
 37 63  1  0  0  0  0
 37 64  1  0  0  0  0
 37 65  1  0  0  0  0
M  END
$$$$
