
 OpenBabel07202414173D

 61 66  0  0  1  0  0  0  0  0999 V2000
    0.8821    0.3166    0.0512 Cl  0  0  0  0  0  0  0  0  0  0  0  0
    2.5994    0.2177    0.0678 C   0  0  0  0  0  0  0  0  0  0  0  0
    3.3632    1.3747    0.0980 C   0  0  0  0  0  0  0  0  0  0  0  0
    4.7548    1.2789    0.1091 C   0  0  0  0  0  0  0  0  0  0  0  0
    5.3975    0.0261    0.1041 C   0  0  0  0  0  0  0  0  0  0  0  0
    4.6252   -1.1478    0.0688 C   0  0  0  0  0  0  0  0  0  0  0  0
    3.2182   -1.0298    0.0527 C   0  0  0  0  0  0  0  0  0  0  0  0
    5.3073   -2.5197    0.1197 C   0  0  3  0  0  0  0  0  0  0  0  0
    6.8466   -2.4158   -0.0747 C   0  0  0  0  0  0  0  0  0  0  0  0
    7.5550   -1.2525    0.4825 N   0  0  0  0  0  0  0  0  0  0  0  0
    7.6865   -1.3697    1.9524 C   0  0  0  0  0  0  0  0  0  0  0  0
    8.5645   -0.2955    2.5769 C   0  0  0  0  0  0  0  0  0  0  0  0
    8.4338    0.0650    3.7456 O   0  0  0  0  0  0  0  0  0  0  0  0
    9.5285    0.2349    1.7526 N   0  0  0  0  0  0  0  0  0  0  0  0
   10.4138    1.2674    2.2047 C   0  0  0  0  0  0  0  0  0  0  0  0
   10.7506    2.1698    1.0670 C   0  0  0  0  0  0  0  0  0  0  0  0
   11.5508    1.6762   -0.1115 C   0  0  0  0  0  0  0  0  0  0  0  0
   12.1682    2.6369    0.8667 C   0  0  0  0  0  0  0  0  0  0  0  0
    6.9071   -0.0066    0.0415 C   0  0  0  0  0  0  0  0  0  0  0  0
    4.7877   -3.4587   -0.9835 C   0  0  0  0  0  0  0  0  0  0  0  0
    3.8343   -4.4175   -0.3145 C   0  0  0  0  0  0  0  0  0  0  0  0
    3.7681   -4.0802    1.0707 N   0  0  0  0  0  0  0  0  0  0  0  0
    2.8214   -4.6311    1.9970 C   0  0  0  0  0  0  0  0  0  0  0  0
    2.7364   -4.0629    3.2788 C   0  0  0  0  0  0  0  0  0  0  0  0
    2.0117   -4.5532    4.3090 N   0  0  0  0  0  0  0  0  0  0  0  0
    1.2494   -5.6229    4.0374 C   0  0  0  0  0  0  0  0  0  0  0  0
    1.0722   -6.1619    2.7673 C   0  0  0  0  0  0  0  0  0  0  0  0
    0.0744   -7.1359    2.5696 C   0  0  0  0  0  0  0  0  0  0  0  0
   -0.1666   -7.6741    1.3112 C   0  0  0  0  0  0  0  0  0  0  0  0
    0.6401   -7.2979    0.2573 C   0  0  0  0  0  0  0  0  0  0  0  0
    1.6554   -6.3568    0.4586 C   0  0  0  0  0  0  0  0  0  0  0  0
    1.8877   -5.6923    1.7035 C   0  0  0  0  0  0  0  0  0  0  0  0
    4.8551   -3.2448    1.4058 C   0  0  0  0  0  0  0  0  0  0  0  0
    5.3103   -3.0619    2.5241 O   0  0  0  0  0  0  0  0  0  0  0  0
    2.8861    2.3504    0.1127 H   0  0  0  0  0  0  0  0  0  0  0  0
    5.3430    2.1952    0.1238 H   0  0  0  0  0  0  0  0  0  0  0  0
    2.5821   -1.9104    0.0459 H   0  0  0  0  0  0  0  0  0  0  0  0
    7.0463   -2.3692   -1.1571 H   0  0  0  0  0  0  0  0  0  0  0  0
    7.3327   -3.3445    0.2526 H   0  0  0  0  0  0  0  0  0  0  0  0
    8.1665   -2.3267    2.1977 H   0  0  0  0  0  0  0  0  0  0  0  0
    6.7224   -1.2996    2.4478 H   0  0  0  0  0  0  0  0  0  0  0  0
    9.6691   -0.2167    0.8429 H   0  0  0  0  0  0  0  0  0  0  0  0
   11.3024    0.7826    2.6328 H   0  0  0  0  0  0  0  0  0  0  0  0
    9.9364    1.8479    3.0030 H   0  0  0  0  0  0  0  0  0  0  0  0
    9.9513    2.8757    0.8699 H   0  0  0  0  0  0  0  0  0  0  0  0
   11.2813    2.0514   -1.0923 H   0  0  0  0  0  0  0  0  0  0  0  0
   11.9025    0.6511   -0.1076 H   0  0  0  0  0  0  0  0  0  0  0  0
   12.3212    3.6622    0.5516 H   0  0  0  0  0  0  0  0  0  0  0  0
   12.9387    2.2575    1.5290 H   0  0  0  0  0  0  0  0  0  0  0  0
    7.1844    0.1551   -1.0091 H   0  0  0  0  0  0  0  0  0  0  0  0
    7.3078    0.8569    0.5829 H   0  0  0  0  0  0  0  0  0  0  0  0
    5.5869   -4.0458   -1.4532 H   0  0  0  0  0  0  0  0  0  0  0  0
    4.2929   -2.9208   -1.7995 H   0  0  0  0  0  0  0  0  0  0  0  0
    4.2378   -5.4343   -0.3864 H   0  0  0  0  0  0  0  0  0  0  0  0
    2.8571   -4.3213   -0.7891 H   0  0  0  0  0  0  0  0  0  0  0  0
    3.2375   -3.1310    3.5319 H   0  0  0  0  0  0  0  0  0  0  0  0
    0.7513   -6.0456    4.9055 H   0  0  0  0  0  0  0  0  0  0  0  0
   -0.5589   -7.4497    3.3974 H   0  0  0  0  0  0  0  0  0  0  0  0
   -0.9765   -8.3802    1.1576 H   0  0  0  0  0  0  0  0  0  0  0  0
    0.4855   -7.7208   -0.7330 H   0  0  0  0  0  0  0  0  0  0  0  0
    2.2379   -6.1568   -0.4265 H   0  0  0  0  0  0  0  0  0  0  0  0
  1  2  1  0  0  0  0
  2  3  1  0  0  0  0
  2  7  2  0  0  0  0
  3  4  2  0  0  0  0
  3 35  1  0  0  0  0
  4  5  1  0  0  0  0
  4 36  1  0  0  0  0
  5  6  2  0  0  0  0
  5 19  1  0  0  0  0
  6  7  1  0  0  0  0
  6  8  1  0  0  0  0
  7 37  1  0  0  0  0
  8  9  1  0  0  0  0
  8 20  1  0  0  0  0
  8 33  1  0  0  0  0
  9 10  1  0  0  0  0
  9 38  1  0  0  0  0
  9 39  1  0  0  0  0
 10 11  1  0  0  0  0
 10 19  1  0  0  0  0
 11 12  1  0  0  0  0
 11 40  1  0  0  0  0
 11 41  1  0  0  0  0
 12 13  2  0  0  0  0
 12 14  1  0  0  0  0
 14 15  1  0  0  0  0
 14 42  1  0  0  0  0
 15 16  1  0  0  0  0
 15 43  1  0  0  0  0
 15 44  1  0  0  0  0
 16 17  1  0  0  0  0
 16 18  1  0  0  0  0
 16 45  1  0  0  0  0
 17 18  1  0  0  0  0
 17 46  1  0  0  0  0
 17 47  1  0  0  0  0
 18 48  1  0  0  0  0
 18 49  1  0  0  0  0
 19 50  1  0  0  0  0
 19 51  1  0  0  0  0
 20 21  1  0  0  0  0
 20 52  1  0  0  0  0
 20 53  1  0  0  0  0
 21 22  1  0  0  0  0
 21 54  1  0  0  0  0
 21 55  1  0  0  0  0
 22 23  1  0  0  0  0
 22 33  1  0  0  0  0
 23 24  1  0  0  0  0
 23 32  2  0  0  0  0
 24 25  2  0  0  0  0
 24 56  1  0  0  0  0
 25 26  1  0  0  0  0
 26 27  2  0  0  0  0
 26 57  1  0  0  0  0
 27 28  1  0  0  0  0
 27 32  1  0  0  0  0
 28 29  2  0  0  0  0
 28 58  1  0  0  0  0
 29 30  1  0  0  0  0
 29 59  1  0  0  0  0
 30 31  2  0  0  0  0
 30 60  1  0  0  0  0
 31 32  1  0  0  0  0
 31 61  1  0  0  0  0
 33 34  2  0  0  0  0
M  END
$$$$
