
 OpenBabel07202414173D

 39 42  0  0  0  0  0  0  0  0999 V2000
    1.0575   -0.3340    1.6289 Cl  0  0  0  0  0  0  0  0  0  0  0  0
    2.7093   -0.3613    1.1410 C   0  0  0  0  0  0  0  0  0  0  0  0
    3.4435    0.8154    1.1679 C   0  0  0  0  0  0  0  0  0  0  0  0
    4.7781    0.7869    0.7846 C   0  0  0  0  0  0  0  0  0  0  0  0
    5.3798   -0.4148    0.3575 C   0  0  0  0  0  0  0  0  0  0  0  0
    4.6321   -1.6117    0.2916 C   0  0  0  0  0  0  0  0  0  0  0  0
    3.2937   -1.5613    0.7173 C   0  0  0  0  0  0  0  0  0  0  0  0
    5.2615   -2.8652   -0.2309 C   0  0  0  0  0  0  0  0  0  0  0  0
    4.4756   -4.1521   -0.4820 C   0  0  0  0  0  0  0  0  0  0  0  0
    3.2840   -4.1155   -0.7671 O   0  0  0  0  0  0  0  0  0  0  0  0
    5.2177   -5.3176   -0.3587 N   0  0  0  0  0  0  0  0  0  0  0  0
    4.7548   -6.6643   -0.3872 C   0  0  0  0  0  0  0  0  0  0  0  0
    3.4021   -6.9993   -0.3669 C   0  0  0  0  0  0  0  0  0  0  0  0
    2.9268   -8.2566   -0.1876 N   0  0  0  0  0  0  0  0  0  0  0  0
    3.8409   -9.2388   -0.0759 C   0  0  0  0  0  0  0  0  0  0  0  0
    5.2147   -9.0553   -0.2096 C   0  0  0  0  0  0  0  0  0  0  0  0
    6.0970  -10.1535   -0.2058 C   0  0  0  0  0  0  0  0  0  0  0  0
    7.4673   -9.9701   -0.3899 C   0  0  0  0  0  0  0  0  0  0  0  0
    7.9702   -8.6863   -0.5479 C   0  0  0  0  0  0  0  0  0  0  0  0
    7.1042   -7.5871   -0.5306 C   0  0  0  0  0  0  0  0  0  0  0  0
    5.6990   -7.7348   -0.3681 C   0  0  0  0  0  0  0  0  0  0  0  0
    6.5623   -2.8335   -0.5818 C   0  0  0  0  0  0  0  0  0  0  0  0
    7.4814   -1.6632   -0.4251 C   0  0  0  0  0  0  0  0  0  0  0  0
    6.8285   -0.3409   -0.0448 C   0  0  0  0  0  0  0  0  0  0  0  0
    2.9876    1.7501    1.4828 H   0  0  0  0  0  0  0  0  0  0  0  0
    5.3553    1.7098    0.8075 H   0  0  0  0  0  0  0  0  0  0  0  0
    2.6685   -2.4502    0.7154 H   0  0  0  0  0  0  0  0  0  0  0  0
    6.1880   -5.2160   -0.1131 H   0  0  0  0  0  0  0  0  0  0  0  0
    2.6142   -6.2594   -0.4627 H   0  0  0  0  0  0  0  0  0  0  0  0
    3.4211  -10.2229    0.1186 H   0  0  0  0  0  0  0  0  0  0  0  0
    5.7163  -11.1685   -0.0909 H   0  0  0  0  0  0  0  0  0  0  0  0
    8.1325  -10.8293   -0.4273 H   0  0  0  0  0  0  0  0  0  0  0  0
    9.0343   -8.5390   -0.7070 H   0  0  0  0  0  0  0  0  0  0  0  0
    7.5511   -6.6110   -0.6972 H   0  0  0  0  0  0  0  0  0  0  0  0
    7.0500   -3.6902   -1.0396 H   0  0  0  0  0  0  0  0  0  0  0  0
    8.0271   -1.5239   -1.3664 H   0  0  0  0  0  0  0  0  0  0  0  0
    8.2421   -1.9204    0.3228 H   0  0  0  0  0  0  0  0  0  0  0  0
    6.9159    0.3518   -0.8915 H   0  0  0  0  0  0  0  0  0  0  0  0
    7.4004    0.1008    0.7824 H   0  0  0  0  0  0  0  0  0  0  0  0
  1  2  1  0  0  0  0
  2  3  1  0  0  0  0
  2  7  2  0  0  0  0
  3  4  2  0  0  0  0
  3 25  1  0  0  0  0
  4  5  1  0  0  0  0
  4 26  1  0  0  0  0
  5  6  2  0  0  0  0
  5 24  1  0  0  0  0
  6  7  1  0  0  0  0
  6  8  1  0  0  0  0
  7 27  1  0  0  0  0
  8  9  1  0  0  0  0
  8 22  2  0  0  0  0
  9 10  2  0  0  0  0
  9 11  1  0  0  0  0
 11 12  1  0  0  0  0
 11 28  1  0  0  0  0
 12 13  1  0  0  0  0
 12 21  2  0  0  0  0
 13 14  2  0  0  0  0
 13 29  1  0  0  0  0
 14 15  1  0  0  0  0
 15 16  2  0  0  0  0
 15 30  1  0  0  0  0
 16 17  1  0  0  0  0
 16 21  1  0  0  0  0
 17 18  2  0  0  0  0
 17 31  1  0  0  0  0
 18 19  1  0  0  0  0
 18 32  1  0  0  0  0
 19 20  2  0  0  0  0
 19 33  1  0  0  0  0
 20 21  1  0  0  0  0
 20 34  1  0  0  0  0
 22 23  1  0  0  0  0
 22 35  1  0  0  0  0
 23 24  1  0  0  0  0
 23 36  1  0  0  0  0
 23 37  1  0  0  0  0
 24 38  1  0  0  0  0
 24 39  1  0  0  0  0
M  END
$$$$
