
 OpenBabel07202414193D

 36 39  0  0  1  0  0  0  0  0999 V2000
    7.9754   -1.9759   -5.1069 N   0  0  0  0  0  0  0  0  0  0  0  0
    7.1567   -1.8956   -4.0506 C   0  0  0  0  0  0  0  0  0  0  0  0
    7.5713   -1.5702   -2.8341 N   0  0  0  0  0  0  0  0  0  0  0  0
    6.4430   -1.5328   -2.0750 N   0  0  0  0  0  0  0  0  0  0  0  0
    6.4842   -1.1103   -0.7237 C   0  0  0  0  0  0  0  0  0  0  0  0
    5.4243   -0.8865   -0.1349 O   0  0  0  0  0  0  0  0  0  0  0  0
    7.8433   -1.0576   -0.0366 C   0  0  3  0  0  0  0  0  0  0  0  0
    8.7772    0.0440   -0.5713 C   0  0  0  0  0  0  0  0  0  0  0  0
   10.2295   -0.3940   -0.7392 C   0  0  0  0  0  0  0  0  0  0  0  0
   10.6533   -1.3404    0.2375 O   0  0  0  0  0  0  0  0  0  0  0  0
    9.9025   -2.4791    0.1471 C   0  0  0  0  0  0  0  0  0  0  0  0
   10.5688   -3.6996    0.1558 C   0  0  0  0  0  0  0  0  0  0  0  0
    9.8350   -4.8830    0.1071 C   0  0  0  0  0  0  0  0  0  0  0  0
    8.4439   -4.8329    0.1453 C   0  0  0  0  0  0  0  0  0  0  0  0
    7.5332   -6.2916    0.1455 Cl  0  0  0  0  0  0  0  0  0  0  0  0
    7.7783   -3.6071    0.1659 C   0  0  0  0  0  0  0  0  0  0  0  0
    8.5084   -2.4119    0.0857 C   0  0  0  0  0  0  0  0  0  0  0  0
    5.3242   -1.9429   -2.7987 C   0  0  0  0  0  0  0  0  0  0  0  0
    3.9846   -2.1526   -2.4416 C   0  0  0  0  0  0  0  0  0  0  0  0
    3.1498   -2.5445   -3.4787 C   0  0  0  0  0  0  0  0  0  0  0  0
    3.5436   -2.7246   -4.7579 N   0  0  0  0  0  0  0  0  0  0  0  0
    4.8452   -2.5324   -5.0778 C   0  0  0  0  0  0  0  0  0  0  0  0
    5.7647   -2.1491   -4.0978 C   0  0  0  0  0  0  0  0  0  0  0  0
    8.9612   -1.7857   -4.9940 H   0  0  0  0  0  0  0  0  0  0  0  0
    7.6738   -2.2074   -6.0451 H   0  0  0  0  0  0  0  0  0  0  0  0
    7.6126   -0.7677    1.0026 H   0  0  0  0  0  0  0  0  0  0  0  0
    8.7509    0.8795    0.1424 H   0  0  0  0  0  0  0  0  0  0  0  0
    8.4263    0.4820   -1.5126 H   0  0  0  0  0  0  0  0  0  0  0  0
   10.8853    0.4789   -0.6458 H   0  0  0  0  0  0  0  0  0  0  0  0
   10.4103   -0.8125   -1.7367 H   0  0  0  0  0  0  0  0  0  0  0  0
   11.6544   -3.7259    0.1650 H   0  0  0  0  0  0  0  0  0  0  0  0
   10.3511   -5.8369    0.0485 H   0  0  0  0  0  0  0  0  0  0  0  0
    6.6925   -3.5991    0.2263 H   0  0  0  0  0  0  0  0  0  0  0  0
    3.6116   -2.0255   -1.4314 H   0  0  0  0  0  0  0  0  0  0  0  0
    2.0958   -2.7304   -3.2941 H   0  0  0  0  0  0  0  0  0  0  0  0
    5.1170   -2.7011   -6.1130 H   0  0  0  0  0  0  0  0  0  0  0  0
  1  2  1  0  0  0  0
  1 24  1  0  0  0  0
  1 25  1  0  0  0  0
  2  3  2  0  0  0  0
  2 23  1  0  0  0  0
  3  4  1  0  0  0  0
  4  5  1  0  0  0  0
  4 18  1  0  0  0  0
  5  6  2  0  0  0  0
  5  7  1  0  0  0  0
  7  8  1  0  0  0  0
  7 17  1  0  0  0  0
  7 26  1  0  0  0  0
  8  9  1  0  0  0  0
  8 27  1  0  0  0  0
  8 28  1  0  0  0  0
  9 10  1  0  0  0  0
  9 29  1  0  0  0  0
  9 30  1  0  0  0  0
 10 11  1  0  0  0  0
 11 12  1  0  0  0  0
 11 17  2  0  0  0  0
 12 13  2  0  0  0  0
 12 31  1  0  0  0  0
 13 14  1  0  0  0  0
 13 32  1  0  0  0  0
 14 15  1  0  0  0  0
 14 16  2  0  0  0  0
 16 17  1  0  0  0  0
 16 33  1  0  0  0  0
 18 19  1  0  0  0  0
 18 23  2  0  0  0  0
 19 20  2  0  0  0  0
 19 34  1  0  0  0  0
 20 21  1  0  0  0  0
 20 35  1  0  0  0  0
 21 22  2  0  0  0  0
 22 23  1  0  0  0  0
 22 36  1  0  0  0  0
M  END
$$$$
