
 OpenBabel07202414133D

 64 69  0  0  1  0  0  0  0  0999 V2000
    1.0682   -2.3659    0.8914 C   0  0  0  0  0  0  0  0  0  0  0  0
    2.1025   -2.4875   -0.2196 C   0  0  0  0  0  0  0  0  0  0  0  0
    3.1625   -1.3693   -0.1972 C   0  0  1  0  0  0  0  0  0  0  0  0
    3.9991   -1.4008    1.0777 C   0  0  0  0  0  0  0  0  0  0  0  0
    5.3208   -0.9514    0.7204 N   0  0  0  0  0  0  0  0  0  0  0  0
    6.3337   -0.9879    1.7452 C   0  0  0  0  0  0  0  0  0  0  0  0
    7.4904   -1.7566    1.5831 C   0  0  0  0  0  0  0  0  0  0  0  0
    8.3347   -2.0989    2.5861 N   0  0  0  0  0  0  0  0  0  0  0  0
    8.0630   -1.5937    3.8040 C   0  0  0  0  0  0  0  0  0  0  0  0
    7.0438   -0.6847    4.0672 C   0  0  0  0  0  0  0  0  0  0  0  0
    6.9233   -0.0984    5.3415 C   0  0  0  0  0  0  0  0  0  0  0  0
    5.9473    0.8603    5.5924 C   0  0  0  0  0  0  0  0  0  0  0  0
    5.0813    1.2351    4.5744 C   0  0  0  0  0  0  0  0  0  0  0  0
    5.1877    0.6448    3.3078 C   0  0  0  0  0  0  0  0  0  0  0  0
    6.1556   -0.3515    3.0151 C   0  0  0  0  0  0  0  0  0  0  0  0
    5.5523   -1.2388   -0.6391 C   0  0  0  0  0  0  0  0  0  0  0  0
    6.6466   -1.3763   -1.1610 O   0  0  0  0  0  0  0  0  0  0  0  0
    4.2044   -1.3102   -1.3886 C   0  0  2  0  0  0  0  0  0  0  0  0
    3.9808    0.0668   -2.0874 C   0  0  0  0  0  0  0  0  0  0  0  0
    4.4348    0.1523   -3.5047 N   0  0  0  0  0  0  0  0  0  0  0  0
    6.1082    0.3466   -3.7750 S   0  0  0  0  0  0  0  0  0  0  0  0
    6.6155    1.1880   -2.7127 O   0  0  0  0  0  0  0  0  0  0  0  0
    6.6514   -0.9593   -4.0697 O   0  0  0  0  0  0  0  0  0  0  0  0
    6.1284    1.3294   -5.2673 C   0  0  0  0  0  0  0  0  0  0  0  0
    7.5805    1.5389   -5.6462 C   0  0  0  0  0  0  0  0  0  0  0  0
    8.3308    0.3554   -6.0204 C   0  0  0  0  0  0  0  0  0  0  0  0
    8.9468   -0.5529   -6.3867 N   0  0  0  0  0  0  0  0  0  0  0  0
    7.8811    2.7645   -6.5053 C   0  0  0  0  0  0  0  0  0  0  0  0
    8.3514    2.7243   -5.0840 C   0  0  0  0  0  0  0  0  0  0  0  0
    3.7436   -0.8585   -4.3297 C   0  0  0  0  0  0  0  0  0  0  0  0
    3.8150   -2.2519   -3.7518 C   0  0  0  0  0  0  0  0  0  0  0  0
    3.5840   -3.3356   -4.6198 C   0  0  0  0  0  0  0  0  0  0  0  0
    3.6780   -4.6456   -4.1596 C   0  0  0  0  0  0  0  0  0  0  0  0
    4.0449   -4.8777   -2.8403 C   0  0  0  0  0  0  0  0  0  0  0  0
    4.1361   -6.4954   -2.2586 Cl  0  0  0  0  0  0  0  0  0  0  0  0
    4.2924   -3.8121   -1.9698 C   0  0  0  0  0  0  0  0  0  0  0  0
    4.1136   -2.4787   -2.3862 C   0  0  0  0  0  0  0  0  0  0  0  0
    0.3489   -3.1885    0.8163 H   0  0  0  0  0  0  0  0  0  0  0  0
    0.5180   -1.4241    0.8162 H   0  0  0  0  0  0  0  0  0  0  0  0
    1.5330   -2.4235    1.8802 H   0  0  0  0  0  0  0  0  0  0  0  0
    1.5769   -2.4762   -1.1811 H   0  0  0  0  0  0  0  0  0  0  0  0
    2.5677   -3.4704   -0.1035 H   0  0  0  0  0  0  0  0  0  0  0  0
    2.6063   -0.4222   -0.1695 H   0  0  0  0  0  0  0  0  0  0  0  0
    4.0892   -2.4216    1.4691 H   0  0  0  0  0  0  0  0  0  0  0  0
    3.5417   -0.7732    1.8438 H   0  0  0  0  0  0  0  0  0  0  0  0
    7.7698   -2.1983    0.6320 H   0  0  0  0  0  0  0  0  0  0  0  0
    8.7300   -1.9384    4.5901 H   0  0  0  0  0  0  0  0  0  0  0  0
    7.6170   -0.3613    6.1378 H   0  0  0  0  0  0  0  0  0  0  0  0
    5.8841    1.3313    6.5705 H   0  0  0  0  0  0  0  0  0  0  0  0
    4.3346    2.0042    4.7568 H   0  0  0  0  0  0  0  0  0  0  0  0
    4.5322    1.0179    2.5250 H   0  0  0  0  0  0  0  0  0  0  0  0
    4.3890    0.9009   -1.5063 H   0  0  0  0  0  0  0  0  0  0  0  0
    2.8985    0.2673   -2.1402 H   0  0  0  0  0  0  0  0  0  0  0  0
    5.6273    2.2754   -5.0351 H   0  0  0  0  0  0  0  0  0  0  0  0
    5.5884    0.8058   -6.0588 H   0  0  0  0  0  0  0  0  0  0  0  0
    7.0746    3.4443   -6.7554 H   0  0  0  0  0  0  0  0  0  0  0  0
    8.6286    2.6774   -7.2897 H   0  0  0  0  0  0  0  0  0  0  0  0
    7.8669    3.3816   -4.3695 H   0  0  0  0  0  0  0  0  0  0  0  0
    9.4170    2.6114   -4.9022 H   0  0  0  0  0  0  0  0  0  0  0  0
    4.1497   -0.8482   -5.3483 H   0  0  0  0  0  0  0  0  0  0  0  0
    2.6884   -0.5697   -4.4198 H   0  0  0  0  0  0  0  0  0  0  0  0
    3.3409   -3.1634   -5.6672 H   0  0  0  0  0  0  0  0  0  0  0  0
    3.4853   -5.4736   -4.8372 H   0  0  0  0  0  0  0  0  0  0  0  0
    4.5934   -4.0350   -0.9488 H   0  0  0  0  0  0  0  0  0  0  0  0
  1  2  1  0  0  0  0
  1 38  1  0  0  0  0
  1 39  1  0  0  0  0
  1 40  1  0  0  0  0
  2 41  1  0  0  0  0
  2 42  1  0  0  0  0
  3  4  1  0  0  0  0
  3 18  1  0  0  0  0
  3  2  1  0  0  0  0
  3 43  1  6  0  0  0
  4  5  1  0  0  0  0
  4 44  1  0  0  0  0
  4 45  1  0  0  0  0
  5  6  1  0  0  0  0
  5 16  1  0  0  0  0
  6  7  1  0  0  0  0
  6 15  2  0  0  0  0
  7  8  2  0  0  0  0
  7 46  1  0  0  0  0
  8  9  1  0  0  0  0
  9 10  2  0  0  0  0
  9 47  1  0  0  0  0
 10 11  1  0  0  0  0
 10 15  1  0  0  0  0
 11 12  2  0  0  0  0
 11 48  1  0  0  0  0
 12 13  1  0  0  0  0
 12 49  1  0  0  0  0
 13 14  2  0  0  0  0
 13 50  1  0  0  0  0
 14 15  1  0  0  0  0
 14 51  1  0  0  0  0
 16 17  2  0  0  0  0
 18 16  1  1  0  0  0
 18 19  1  0  0  0  0
 18 37  1  0  0  0  0
 19 20  1  0  0  0  0
 19 52  1  0  0  0  0
 19 53  1  0  0  0  0
 20 21  1  0  0  0  0
 20 30  1  0  0  0  0
 21 22  2  0  0  0  0
 21 23  2  0  0  0  0
 21 24  1  0  0  0  0
 24 25  1  0  0  0  0
 24 54  1  0  0  0  0
 24 55  1  0  0  0  0
 25 26  1  0  0  0  0
 25 28  1  0  0  0  0
 25 29  1  0  0  0  0
 26 27  3  0  0  0  0
 28 29  1  0  0  0  0
 28 56  1  0  0  0  0
 28 57  1  0  0  0  0
 29 58  1  0  0  0  0
 29 59  1  0  0  0  0
 30 31  1  0  0  0  0
 30 60  1  0  0  0  0
 30 61  1  0  0  0  0
 31 32  1  0  0  0  0
 31 37  2  0  0  0  0
 32 33  2  0  0  0  0
 32 62  1  0  0  0  0
 33 34  1  0  0  0  0
 33 63  1  0  0  0  0
 34 35  1  0  0  0  0
 34 36  2  0  0  0  0
 36 37  1  0  0  0  0
 36 64  1  0  0  0  0
M  END
$$$$
