
 OpenBabel07202414173D

 70 75  0  0  1  0  0  0  0  0999 V2000
    1.0990    0.0678   -0.0291 Cl  0  0  0  0  0  0  0  0  0  0  0  0
    2.8162   -0.0413   -0.0026 C   0  0  0  0  0  0  0  0  0  0  0  0
    3.5842    1.1077   -0.1420 C   0  0  0  0  0  0  0  0  0  0  0  0
    4.9732    1.0088   -0.1000 C   0  0  0  0  0  0  0  0  0  0  0  0
    5.5916   -0.2335    0.0832 C   0  0  0  0  0  0  0  0  0  0  0  0
    4.8332   -1.4092    0.1906 C   0  0  0  0  0  0  0  0  0  0  0  0
    3.4280   -1.2857    0.1636 C   0  0  0  0  0  0  0  0  0  0  0  0
    5.5092   -2.7780    0.4132 C   0  0  3  0  0  0  0  0  0  0  0  0
    4.8916   -3.8534   -0.5505 C   0  0  0  0  0  0  0  0  0  0  0  0
    5.4913   -5.2002   -0.4590 N   0  0  0  0  0  0  0  0  0  0  0  0
    5.0048   -6.0762   -1.5419 C   0  0  0  0  0  0  0  0  0  0  0  0
    5.6726   -7.4297   -1.4392 C   0  0  0  0  0  0  0  0  0  0  0  0
    4.9581   -8.6024   -1.1634 C   0  0  0  0  0  0  0  0  0  0  0  0
    5.6239   -9.8369   -1.0282 C   0  0  0  0  0  0  0  0  0  0  0  0
    7.0151   -9.9309   -1.1479 C   0  0  0  0  0  0  0  0  0  0  0  0
    7.7311  -11.1085   -1.0076 N   0  0  0  0  0  0  0  0  0  0  0  0
    7.1549  -12.4277   -1.2688 C   0  0  0  0  0  0  0  0  0  0  0  0
    8.2844  -13.2873   -1.8626 C   0  0  0  0  0  0  0  0  0  0  0  0
    9.4603  -13.3271   -1.0104 N   0  0  0  0  0  0  0  0  0  0  0  0
    9.8538  -12.2442   -0.2600 C   0  0  0  0  0  0  0  0  0  0  0  0
   10.9722  -12.2365    0.2547 O   0  0  0  0  0  0  0  0  0  0  0  0
    8.8321  -11.1182   -0.0138 C   0  0  0  0  0  0  0  0  0  0  0  0
    7.7035   -8.7521   -1.4678 C   0  0  0  0  0  0  0  0  0  0  0  0
    7.0546   -7.5264   -1.6141 C   0  0  0  0  0  0  0  0  0  0  0  0
    5.3040   -3.2086    1.9049 C   0  0  0  0  0  0  0  0  0  0  0  0
    4.5631   -2.5832    2.6611 O   0  0  0  0  0  0  0  0  0  0  0  0
    5.9891   -4.3532    2.2911 N   0  0  0  0  0  0  0  0  0  0  0  0
    6.1188   -4.8820    3.6095 C   0  0  0  0  0  0  0  0  0  0  0  0
    5.6316   -4.2247    4.7419 C   0  0  0  0  0  0  0  0  0  0  0  0
    5.8684   -4.6029    6.0191 N   0  0  0  0  0  0  0  0  0  0  0  0
    6.5849   -5.7297    6.1903 C   0  0  0  0  0  0  0  0  0  0  0  0
    7.0266   -6.5451    5.1524 C   0  0  0  0  0  0  0  0  0  0  0  0
    7.6492   -7.7758    5.4304 C   0  0  0  0  0  0  0  0  0  0  0  0
    8.0607   -8.6103    4.3968 C   0  0  0  0  0  0  0  0  0  0  0  0
    7.8893   -8.2051    3.0801 C   0  0  0  0  0  0  0  0  0  0  0  0
    7.2824   -6.9758    2.7922 C   0  0  0  0  0  0  0  0  0  0  0  0
    6.8081   -6.1112    3.8183 C   0  0  0  0  0  0  0  0  0  0  0  0
    7.0156   -2.6215    0.0855 C   0  0  0  0  0  0  0  0  0  0  0  0
    7.5653   -1.3463    0.6993 C   0  0  0  0  0  0  0  0  0  0  0  0
    6.9574   -0.1936    0.1245 O   0  0  0  0  0  0  0  0  0  0  0  0
    3.1129    2.0783   -0.2667 H   0  0  0  0  0  0  0  0  0  0  0  0
    5.5808    1.9064   -0.1895 H   0  0  0  0  0  0  0  0  0  0  0  0
    2.7926   -2.1546    0.3163 H   0  0  0  0  0  0  0  0  0  0  0  0
    5.0018   -3.4825   -1.5798 H   0  0  0  0  0  0  0  0  0  0  0  0
    3.8177   -3.9624   -0.3661 H   0  0  0  0  0  0  0  0  0  0  0  0
    5.1610   -5.6422    0.4019 H   0  0  0  0  0  0  0  0  0  0  0  0
    5.2256   -5.6525   -2.5290 H   0  0  0  0  0  0  0  0  0  0  0  0
    3.9158   -6.1904   -1.4684 H   0  0  0  0  0  0  0  0  0  0  0  0
    3.8772   -8.5733   -1.0435 H   0  0  0  0  0  0  0  0  0  0  0  0
    5.0289  -10.7174   -0.7972 H   0  0  0  0  0  0  0  0  0  0  0  0
    6.3272  -12.3889   -1.9852 H   0  0  0  0  0  0  0  0  0  0  0  0
    6.7867  -12.8736   -0.3359 H   0  0  0  0  0  0  0  0  0  0  0  0
    8.6062  -12.8691   -2.8241 H   0  0  0  0  0  0  0  0  0  0  0  0
    7.9553  -14.3180   -2.0285 H   0  0  0  0  0  0  0  0  0  0  0  0
   10.2069  -13.9799   -1.2144 H   0  0  0  0  0  0  0  0  0  0  0  0
    9.3966  -10.1803   -0.0228 H   0  0  0  0  0  0  0  0  0  0  0  0
    8.4165  -11.2625    0.9910 H   0  0  0  0  0  0  0  0  0  0  0  0
    8.7788   -8.7842   -1.6399 H   0  0  0  0  0  0  0  0  0  0  0  0
    7.6378   -6.6426   -1.8624 H   0  0  0  0  0  0  0  0  0  0  0  0
    6.5075   -4.8275    1.5605 H   0  0  0  0  0  0  0  0  0  0  0  0
    5.0189   -3.3326    4.6798 H   0  0  0  0  0  0  0  0  0  0  0  0
    6.7892   -5.9726    7.2305 H   0  0  0  0  0  0  0  0  0  0  0  0
    7.7861   -8.1066    6.4590 H   0  0  0  0  0  0  0  0  0  0  0  0
    8.5040   -9.5778    4.6200 H   0  0  0  0  0  0  0  0  0  0  0  0
    8.2093   -8.8502    2.2666 H   0  0  0  0  0  0  0  0  0  0  0  0
    7.1587   -6.7305    1.7427 H   0  0  0  0  0  0  0  0  0  0  0  0
    7.1456   -2.5562   -1.0042 H   0  0  0  0  0  0  0  0  0  0  0  0
    7.6142   -3.4721    0.4250 H   0  0  0  0  0  0  0  0  0  0  0  0
    8.6378   -1.2754    0.4851 H   0  0  0  0  0  0  0  0  0  0  0  0
    7.4537   -1.3198    1.7894 H   0  0  0  0  0  0  0  0  0  0  0  0
  1  2  1  0  0  0  0
  2  3  1  0  0  0  0
  2  7  2  0  0  0  0
  3  4  2  0  0  0  0
  3 41  1  0  0  0  0
  4  5  1  0  0  0  0
  4 42  1  0  0  0  0
  5  6  2  0  0  0  0
  5 40  1  0  0  0  0
  6  7  1  0  0  0  0
  6  8  1  0  0  0  0
  7 43  1  0  0  0  0
  8  9  1  0  0  0  0
  8 25  1  0  0  0  0
  8 38  1  0  0  0  0
  9 10  1  0  0  0  0
  9 44  1  0  0  0  0
  9 45  1  0  0  0  0
 10 11  1  0  0  0  0
 10 46  1  0  0  0  0
 11 12  1  0  0  0  0
 11 47  1  0  0  0  0
 11 48  1  0  0  0  0
 12 13  1  0  0  0  0
 12 24  2  0  0  0  0
 13 14  2  0  0  0  0
 13 49  1  0  0  0  0
 14 15  1  0  0  0  0
 14 50  1  0  0  0  0
 15 16  1  0  0  0  0
 15 23  2  0  0  0  0
 16 17  1  0  0  0  0
 16 22  1  0  0  0  0
 17 18  1  0  0  0  0
 17 51  1  0  0  0  0
 17 52  1  0  0  0  0
 18 19  1  0  0  0  0
 18 53  1  0  0  0  0
 18 54  1  0  0  0  0
 19 20  1  0  0  0  0
 19 55  1  0  0  0  0
 20 21  2  0  0  0  0
 20 22  1  0  0  0  0
 22 56  1  0  0  0  0
 22 57  1  0  0  0  0
 23 24  1  0  0  0  0
 23 58  1  0  0  0  0
 24 59  1  0  0  0  0
 25 26  2  0  0  0  0
 25 27  1  0  0  0  0
 27 28  1  0  0  0  0
 27 60  1  0  0  0  0
 28 29  1  0  0  0  0
 28 37  2  0  0  0  0
 29 30  2  0  0  0  0
 29 61  1  0  0  0  0
 30 31  1  0  0  0  0
 31 32  2  0  0  0  0
 31 62  1  0  0  0  0
 32 33  1  0  0  0  0
 32 37  1  0  0  0  0
 33 34  2  0  0  0  0
 33 63  1  0  0  0  0
 34 35  1  0  0  0  0
 34 64  1  0  0  0  0
 35 36  2  0  0  0  0
 35 65  1  0  0  0  0
 36 37  1  0  0  0  0
 36 66  1  0  0  0  0
 38 39  1  0  0  0  0
 38 67  1  0  0  0  0
 38 68  1  0  0  0  0
 39 40  1  0  0  0  0
 39 69  1  0  0  0  0
 39 70  1  0  0  0  0
M  END
$$$$
