
 OpenBabel07202414133D

 70 74  0  0  1  0  0  0  0  0999 V2000
    6.9222   -5.3325    0.3813 C   0  0  0  0  0  0  0  0  0  0  0  0
    6.1158   -6.3124    1.2423 C   0  0  3  0  0  0  0  0  0  0  0  0
    6.4636   -7.7685    0.8975 C   0  0  0  0  0  0  0  0  0  0  0  0
    5.8880   -8.1801   -0.4145 N   0  0  0  0  0  0  0  0  0  0  0  0
    6.4234   -9.6934   -1.0112 S   0  0  0  0  0  0  0  0  0  0  0  0
    5.7170  -10.8445    0.1576 C   0  0  0  0  0  0  0  0  0  0  0  0
    5.8019   -9.9162   -2.3011 O   0  0  0  0  0  0  0  0  0  0  0  0
    7.8679   -9.7435   -0.8568 O   0  0  0  0  0  0  0  0  0  0  0  0
    4.4304   -7.9289   -0.5734 C   0  0  0  0  0  0  0  0  0  0  0  0
    4.0849   -6.4818   -0.2519 C   0  0  0  0  0  0  0  0  0  0  0  0
    4.5892   -6.1488    1.1493 C   0  0  3  0  0  0  0  0  0  0  0  0
    4.1184   -4.8544    1.6098 N   0  0  0  0  0  0  0  0  0  0  0  0
    2.9146   -4.7110    2.2568 C   0  0  0  0  0  0  0  0  0  0  0  0
    2.1353   -5.6400    2.4509 O   0  0  0  0  0  0  0  0  0  0  0  0
    2.6329   -3.3186    2.7856 C   0  0  0  0  0  0  0  0  0  0  0  0
    3.1377   -3.1006    4.2464 C   0  0  3  0  0  0  0  0  0  0  0  0
    4.7008   -3.0876    4.2338 C   0  0  0  0  0  0  0  0  0  0  0  0
    5.3280   -3.0584    3.1754 O   0  0  0  0  0  0  0  0  0  0  0  0
    5.3084   -3.0500    5.4771 N   0  0  0  0  0  0  0  0  0  0  0  0
    6.6804   -3.2989    5.7733 C   0  0  0  0  0  0  0  0  0  0  0  0
    7.5910   -3.7594    4.8210 C   0  0  0  0  0  0  0  0  0  0  0  0
    8.8301   -4.2306    5.1044 N   0  0  0  0  0  0  0  0  0  0  0  0
    9.2222   -4.1545    6.3912 C   0  0  0  0  0  0  0  0  0  0  0  0
    8.4764   -3.5596    7.4048 C   0  0  0  0  0  0  0  0  0  0  0  0
    9.0289   -3.3536    8.6813 C   0  0  0  0  0  0  0  0  0  0  0  0
    8.2849   -2.7395    9.6852 C   0  0  0  0  0  0  0  0  0  0  0  0
    6.9707   -2.3701    9.4360 C   0  0  0  0  0  0  0  0  0  0  0  0
    6.4107   -2.5731    8.1717 C   0  0  0  0  0  0  0  0  0  0  0  0
    7.1545   -3.1456    7.1074 C   0  0  0  0  0  0  0  0  0  0  0  0
    2.5975   -4.1917    5.2038 C   0  0  0  0  0  0  0  0  0  0  0  0
    1.0907   -4.0538    5.3615 C   0  0  0  0  0  0  0  0  0  0  0  0
    0.7454   -2.8119    5.9725 O   0  0  0  0  0  0  0  0  0  0  0  0
    1.3915   -1.7094    5.4851 C   0  0  0  0  0  0  0  0  0  0  0  0
    0.8084   -0.4898    5.8384 C   0  0  0  0  0  0  0  0  0  0  0  0
    1.3731    0.7085    5.4105 C   0  0  0  0  0  0  0  0  0  0  0  0
    2.5367    0.6818    4.6493 C   0  0  0  0  0  0  0  0  0  0  0  0
    3.2381    2.1596    4.1174 Cl  0  0  0  0  0  0  0  0  0  0  0  0
    3.1295   -0.5313    4.3033 C   0  0  0  0  0  0  0  0  0  0  0  0
    2.5610   -1.7550    4.7079 C   0  0  0  0  0  0  0  0  0  0  0  0
    7.9955   -5.4773    0.5502 H   0  0  0  0  0  0  0  0  0  0  0  0
    6.6946   -4.2936    0.6386 H   0  0  0  0  0  0  0  0  0  0  0  0
    6.7404   -5.4656   -0.6890 H   0  0  0  0  0  0  0  0  0  0  0  0
    6.4163   -6.1329    2.2836 H   0  0  0  0  0  0  0  0  0  0  0  0
    6.0704   -8.4218    1.6846 H   0  0  0  0  0  0  0  0  0  0  0  0
    7.5532   -7.8819    0.8816 H   0  0  0  0  0  0  0  0  0  0  0  0
    4.6309  -10.7600    0.1446 H   0  0  0  0  0  0  0  0  0  0  0  0
    6.1142  -10.6503    1.1526 H   0  0  0  0  0  0  0  0  0  0  0  0
    6.0045  -11.8509   -0.1548 H   0  0  0  0  0  0  0  0  0  0  0  0
    3.8651   -8.5949    0.0876 H   0  0  0  0  0  0  0  0  0  0  0  0
    4.1257   -8.1317   -1.6051 H   0  0  0  0  0  0  0  0  0  0  0  0
    2.9984   -6.3482   -0.3147 H   0  0  0  0  0  0  0  0  0  0  0  0
    4.5199   -5.8067   -0.9985 H   0  0  0  0  0  0  0  0  0  0  0  0
    4.1508   -6.8852    1.8377 H   0  0  0  0  0  0  0  0  0  0  0  0
    4.7626   -4.0632    1.6203 H   0  0  0  0  0  0  0  0  0  0  0  0
    1.5488   -3.1646    2.7050 H   0  0  0  0  0  0  0  0  0  0  0  0
    3.0717   -2.5829    2.0983 H   0  0  0  0  0  0  0  0  0  0  0  0
    4.7078   -2.8667    6.2680 H   0  0  0  0  0  0  0  0  0  0  0  0
    7.3658   -3.7969    3.7612 H   0  0  0  0  0  0  0  0  0  0  0  0
   10.1970   -4.5945    6.5897 H   0  0  0  0  0  0  0  0  0  0  0  0
   10.0598   -3.6328    8.8887 H   0  0  0  0  0  0  0  0  0  0  0  0
    8.7346   -2.5407   10.6543 H   0  0  0  0  0  0  0  0  0  0  0  0
    6.3817   -1.8986   10.2196 H   0  0  0  0  0  0  0  0  0  0  0  0
    5.3908   -2.2294    8.0288 H   0  0  0  0  0  0  0  0  0  0  0  0
    3.0392   -4.0865    6.2036 H   0  0  0  0  0  0  0  0  0  0  0  0
    2.8622   -5.1985    4.8655 H   0  0  0  0  0  0  0  0  0  0  0  0
    0.7165   -4.8471    6.0181 H   0  0  0  0  0  0  0  0  0  0  0  0
    0.5465   -4.1514    4.4162 H   0  0  0  0  0  0  0  0  0  0  0  0
   -0.1032   -0.4764    6.4315 H   0  0  0  0  0  0  0  0  0  0  0  0
    0.8983    1.6509    5.6668 H   0  0  0  0  0  0  0  0  0  0  0  0
    4.0322   -0.5173    3.6872 H   0  0  0  0  0  0  0  0  0  0  0  0
  1  2  1  0  0  0  0
  1 40  1  0  0  0  0
  1 41  1  0  0  0  0
  1 42  1  0  0  0  0
  2  3  1  0  0  0  0
  2 11  1  0  0  0  0
  2 43  1  0  0  0  0
  3  4  1  0  0  0  0
  3 44  1  0  0  0  0
  3 45  1  0  0  0  0
  4  5  1  0  0  0  0
  4  9  1  0  0  0  0
  5  6  1  0  0  0  0
  5  7  2  0  0  0  0
  5  8  2  0  0  0  0
  6 46  1  0  0  0  0
  6 47  1  0  0  0  0
  6 48  1  0  0  0  0
  9 10  1  0  0  0  0
  9 49  1  0  0  0  0
  9 50  1  0  0  0  0
 10 11  1  0  0  0  0
 10 51  1  0  0  0  0
 10 52  1  0  0  0  0
 11 12  1  0  0  0  0
 11 53  1  0  0  0  0
 12 13  1  0  0  0  0
 12 54  1  0  0  0  0
 13 14  2  0  0  0  0
 13 15  1  0  0  0  0
 15 16  1  0  0  0  0
 15 55  1  0  0  0  0
 15 56  1  0  0  0  0
 16 17  1  0  0  0  0
 16 30  1  0  0  0  0
 16 39  1  0  0  0  0
 17 18  2  0  0  0  0
 17 19  1  0  0  0  0
 19 20  1  0  0  0  0
 19 57  1  0  0  0  0
 20 21  1  0  0  0  0
 20 29  2  0  0  0  0
 21 22  2  0  0  0  0
 21 58  1  0  0  0  0
 22 23  1  0  0  0  0
 23 24  2  0  0  0  0
 23 59  1  0  0  0  0
 24 25  1  0  0  0  0
 24 29  1  0  0  0  0
 25 26  2  0  0  0  0
 25 60  1  0  0  0  0
 26 27  1  0  0  0  0
 26 61  1  0  0  0  0
 27 28  2  0  0  0  0
 27 62  1  0  0  0  0
 28 29  1  0  0  0  0
 28 63  1  0  0  0  0
 30 31  1  0  0  0  0
 30 64  1  0  0  0  0
 30 65  1  0  0  0  0
 31 32  1  0  0  0  0
 31 66  1  0  0  0  0
 31 67  1  0  0  0  0
 32 33  1  0  0  0  0
 33 34  1  0  0  0  0
 33 39  2  0  0  0  0
 34 35  2  0  0  0  0
 34 68  1  0  0  0  0
 35 36  1  0  0  0  0
 35 69  1  0  0  0  0
 36 37  1  0  0  0  0
 36 38  2  0  0  0  0
 38 39  1  0  0  0  0
 38 70  1  0  0  0  0
M  END
$$$$
