
 OpenBabel07202414173D

 46 49  0  0  1  0  0  0  0  0999 V2000
    1.1353   -0.1635   -0.1204 Cl  0  0  0  0  0  0  0  0  0  0  0  0
    2.8538   -0.1659   -0.0380 C   0  0  0  0  0  0  0  0  0  0  0  0
    3.5521    1.0306   -0.1661 C   0  0  0  0  0  0  0  0  0  0  0  0
    4.9461    1.0276   -0.1237 C   0  0  0  0  0  0  0  0  0  0  0  0
    5.6490   -0.1701    0.0796 C   0  0  0  0  0  0  0  0  0  0  0  0
    4.9409   -1.3804    0.2473 C   0  0  0  0  0  0  0  0  0  0  0  0
    3.5364   -1.3640    0.1613 C   0  0  0  0  0  0  0  0  0  0  0  0
    5.6570   -2.6922    0.5661 C   0  0  3  0  0  0  0  0  0  0  0  0
    5.4338   -3.1226    2.0686 C   0  0  0  0  0  0  0  0  0  0  0  0
    4.3835   -2.8989    2.6657 O   0  0  0  0  0  0  0  0  0  0  0  0
    6.4701   -3.8827    2.5837 N   0  0  0  0  0  0  0  0  0  0  0  0
    6.6581   -4.3038    3.9286 C   0  0  0  0  0  0  0  0  0  0  0  0
    5.8093   -3.9474    4.9758 C   0  0  0  0  0  0  0  0  0  0  0  0
    6.1353   -4.0540    6.2882 N   0  0  0  0  0  0  0  0  0  0  0  0
    7.3121   -4.6522    6.5709 C   0  0  0  0  0  0  0  0  0  0  0  0
    8.1202   -5.2722    5.6232 C   0  0  0  0  0  0  0  0  0  0  0  0
    9.1990   -6.0963    5.9997 C   0  0  0  0  0  0  0  0  0  0  0  0
    9.9959   -6.7071    5.0346 C   0  0  0  0  0  0  0  0  0  0  0  0
    9.7526   -6.4651    3.6910 C   0  0  0  0  0  0  0  0  0  0  0  0
    8.6784   -5.6583    3.3076 C   0  0  0  0  0  0  0  0  0  0  0  0
    7.8133   -5.0642    4.2610 C   0  0  0  0  0  0  0  0  0  0  0  0
    7.0960   -2.6065    0.1679 N   0  0  0  0  0  0  0  0  0  0  0  0
    7.5331   -3.3699   -0.9059 C   0  0  0  0  0  0  0  0  0  0  0  0
    6.7942   -4.1911   -1.4582 O   0  0  0  0  0  0  0  0  0  0  0  0
    8.9604   -3.2196   -1.4029 C   0  0  0  0  0  0  0  0  0  0  0  0
    9.8883   -3.7512   -0.4009 C   0  0  0  0  0  0  0  0  0  0  0  0
   10.6042   -4.1370    0.4165 N   0  0  0  0  0  0  0  0  0  0  0  0
    7.7783   -1.3981    0.6466 C   0  0  0  0  0  0  0  0  0  0  0  0
    7.1567   -0.1489    0.0232 C   0  0  0  0  0  0  0  0  0  0  0  0
    3.0181    1.9663   -0.3078 H   0  0  0  0  0  0  0  0  0  0  0  0
    5.4814    1.9661   -0.2515 H   0  0  0  0  0  0  0  0  0  0  0  0
    2.9720   -2.2878    0.2776 H   0  0  0  0  0  0  0  0  0  0  0  0
    5.1775   -3.4861   -0.0196 H   0  0  0  0  0  0  0  0  0  0  0  0
    7.2509   -4.0176    1.9585 H   0  0  0  0  0  0  0  0  0  0  0  0
    4.8207   -3.5259    4.8162 H   0  0  0  0  0  0  0  0  0  0  0  0
    7.5938   -4.6187    7.6207 H   0  0  0  0  0  0  0  0  0  0  0  0
    9.3941   -6.3049    7.0500 H   0  0  0  0  0  0  0  0  0  0  0  0
   10.8017   -7.3751    5.3296 H   0  0  0  0  0  0  0  0  0  0  0  0
   10.3834   -6.9154    2.9281 H   0  0  0  0  0  0  0  0  0  0  0  0
    8.5098   -5.5469    2.2434 H   0  0  0  0  0  0  0  0  0  0  0  0
    9.1642   -2.1781   -1.6577 H   0  0  0  0  0  0  0  0  0  0  0  0
    9.0613   -3.7902   -2.3308 H   0  0  0  0  0  0  0  0  0  0  0  0
    8.8437   -1.4199    0.4107 H   0  0  0  0  0  0  0  0  0  0  0  0
    7.6935   -1.3717    1.7350 H   0  0  0  0  0  0  0  0  0  0  0  0
    7.4470   -0.0827   -1.0331 H   0  0  0  0  0  0  0  0  0  0  0  0
    7.5470    0.7381    0.5347 H   0  0  0  0  0  0  0  0  0  0  0  0
  1  2  1  0  0  0  0
  2  3  1  0  0  0  0
  2  7  2  0  0  0  0
  3  4  2  0  0  0  0
  3 30  1  0  0  0  0
  4  5  1  0  0  0  0
  4 31  1  0  0  0  0
  5  6  2  0  0  0  0
  5 29  1  0  0  0  0
  6  7  1  0  0  0  0
  6  8  1  0  0  0  0
  7 32  1  0  0  0  0
  8  9  1  0  0  0  0
  8 22  1  0  0  0  0
  8 33  1  0  0  0  0
  9 10  2  0  0  0  0
  9 11  1  0  0  0  0
 11 12  1  0  0  0  0
 11 34  1  0  0  0  0
 12 13  1  0  0  0  0
 12 21  2  0  0  0  0
 13 14  2  0  0  0  0
 13 35  1  0  0  0  0
 14 15  1  0  0  0  0
 15 16  2  0  0  0  0
 15 36  1  0  0  0  0
 16 17  1  0  0  0  0
 16 21  1  0  0  0  0
 17 18  2  0  0  0  0
 17 37  1  0  0  0  0
 18 19  1  0  0  0  0
 18 38  1  0  0  0  0
 19 20  2  0  0  0  0
 19 39  1  0  0  0  0
 20 21  1  0  0  0  0
 20 40  1  0  0  0  0
 22 23  1  0  0  0  0
 22 28  1  0  0  0  0
 23 24  2  0  0  0  0
 23 25  1  0  0  0  0
 25 26  1  0  0  0  0
 25 41  1  0  0  0  0
 25 42  1  0  0  0  0
 26 27  3  0  0  0  0
 28 29  1  0  0  0  0
 28 43  1  0  0  0  0
 28 44  1  0  0  0  0
 29 45  1  0  0  0  0
 29 46  1  0  0  0  0
M  END
$$$$
