
 OpenBabel07202414143D

 46 49  0  0  1  0  0  0  0  0999 V2000
    1.0402   -0.6782    0.4289 C   0  0  0  0  0  0  0  0  0  0  0  0
    2.4639   -0.7174    0.5303 O   0  0  0  0  0  0  0  0  0  0  0  0
    3.1188   -1.1598   -0.5717 C   0  0  0  0  0  0  0  0  0  0  0  0
    2.5723   -1.4512   -1.6297 O   0  0  0  0  0  0  0  0  0  0  0  0
    4.4671   -1.3315   -0.3445 N   0  0  0  0  0  0  0  0  0  0  0  0
    5.1367   -0.9963    0.9153 C   0  0  0  0  0  0  0  0  0  0  0  0
    5.8033   -2.2333    1.5268 C   0  0  3  0  0  0  0  0  0  0  0  0
    4.7537   -3.1185    2.2203 C   0  0  0  0  0  0  0  0  0  0  0  0
    4.7832   -3.2735    3.4383 O   0  0  0  0  0  0  0  0  0  0  0  0
    3.8341   -3.6836    1.3568 N   0  0  0  0  0  0  0  0  0  0  0  0
    2.7979   -4.6003    1.6558 C   0  0  0  0  0  0  0  0  0  0  0  0
    2.4392   -4.9313    2.9619 C   0  0  0  0  0  0  0  0  0  0  0  0
    1.5639   -5.9094    3.2904 N   0  0  0  0  0  0  0  0  0  0  0  0
    0.9950   -6.5754    2.2654 C   0  0  0  0  0  0  0  0  0  0  0  0
    1.1867   -6.2708    0.9190 C   0  0  0  0  0  0  0  0  0  0  0  0
    0.4801   -6.9572   -0.0867 C   0  0  0  0  0  0  0  0  0  0  0  0
    0.6517   -6.6336   -1.4316 C   0  0  0  0  0  0  0  0  0  0  0  0
    1.5435   -5.6324   -1.7835 C   0  0  0  0  0  0  0  0  0  0  0  0
    2.2650   -4.9581   -0.7946 C   0  0  0  0  0  0  0  0  0  0  0  0
    2.1059   -5.2485    0.5884 C   0  0  0  0  0  0  0  0  0  0  0  0
    6.6202   -2.9878    0.4855 C   0  0  0  0  0  0  0  0  0  0  0  0
    7.6392   -3.8630    0.9015 C   0  0  0  0  0  0  0  0  0  0  0  0
    8.3837   -4.5712   -0.0413 C   0  0  0  0  0  0  0  0  0  0  0  0
    9.6558   -5.6082    0.4746 Cl  0  0  0  0  0  0  0  0  0  0  0  0
    8.1126   -4.4372   -1.3998 C   0  0  0  0  0  0  0  0  0  0  0  0
    7.1048   -3.5699   -1.8246 C   0  0  0  0  0  0  0  0  0  0  0  0
    6.3561   -2.8314   -0.8949 C   0  0  0  0  0  0  0  0  0  0  0  0
    5.3219   -1.8483   -1.4048 C   0  0  0  0  0  0  0  0  0  0  0  0
    0.6659    0.0011    1.1995 H   0  0  0  0  0  0  0  0  0  0  0  0
    0.6357   -1.6775    0.6195 H   0  0  0  0  0  0  0  0  0  0  0  0
    0.7055   -0.3060   -0.5457 H   0  0  0  0  0  0  0  0  0  0  0  0
    4.4497   -0.5367    1.6299 H   0  0  0  0  0  0  0  0  0  0  0  0
    5.8987   -0.2430    0.6730 H   0  0  0  0  0  0  0  0  0  0  0  0
    6.4886   -1.8825    2.3110 H   0  0  0  0  0  0  0  0  0  0  0  0
    4.0063   -3.5138    0.3772 H   0  0  0  0  0  0  0  0  0  0  0  0
    2.8420   -4.4088    3.8235 H   0  0  0  0  0  0  0  0  0  0  0  0
    0.3448   -7.3916    2.5716 H   0  0  0  0  0  0  0  0  0  0  0  0
   -0.2275   -7.7429    0.1745 H   0  0  0  0  0  0  0  0  0  0  0  0
    0.0813   -7.1502   -2.1964 H   0  0  0  0  0  0  0  0  0  0  0  0
    1.6793   -5.3626   -2.8314 H   0  0  0  0  0  0  0  0  0  0  0  0
    2.9333   -4.1743   -1.1371 H   0  0  0  0  0  0  0  0  0  0  0  0
    7.8606   -3.9850    1.9607 H   0  0  0  0  0  0  0  0  0  0  0  0
    8.6887   -4.9959   -2.1334 H   0  0  0  0  0  0  0  0  0  0  0  0
    6.9119   -3.4682   -2.8914 H   0  0  0  0  0  0  0  0  0  0  0  0
    4.7135   -2.3315   -2.1792 H   0  0  0  0  0  0  0  0  0  0  0  0
    5.8353   -0.9920   -1.8563 H   0  0  0  0  0  0  0  0  0  0  0  0
  1  2  1  0  0  0  0
  1 29  1  0  0  0  0
  1 30  1  0  0  0  0
  1 31  1  0  0  0  0
  2  3  1  0  0  0  0
  3  4  2  0  0  0  0
  3  5  1  0  0  0  0
  5  6  1  0  0  0  0
  5 28  1  0  0  0  0
  6  7  1  0  0  0  0
  6 32  1  0  0  0  0
  6 33  1  0  0  0  0
  7  8  1  0  0  0  0
  7 21  1  0  0  0  0
  7 34  1  0  0  0  0
  8  9  2  0  0  0  0
  8 10  1  0  0  0  0
 10 11  1  0  0  0  0
 10 35  1  0  0  0  0
 11 12  1  0  0  0  0
 11 20  2  0  0  0  0
 12 13  2  0  0  0  0
 12 36  1  0  0  0  0
 13 14  1  0  0  0  0
 14 15  2  0  0  0  0
 14 37  1  0  0  0  0
 15 16  1  0  0  0  0
 15 20  1  0  0  0  0
 16 17  2  0  0  0  0
 16 38  1  0  0  0  0
 17 18  1  0  0  0  0
 17 39  1  0  0  0  0
 18 19  2  0  0  0  0
 18 40  1  0  0  0  0
 19 20  1  0  0  0  0
 19 41  1  0  0  0  0
 21 22  1  0  0  0  0
 21 27  2  0  0  0  0
 22 23  2  0  0  0  0
 22 42  1  0  0  0  0
 23 24  1  0  0  0  0
 23 25  1  0  0  0  0
 25 26  2  0  0  0  0
 25 43  1  0  0  0  0
 26 27  1  0  0  0  0
 26 44  1  0  0  0  0
 27 28  1  0  0  0  0
 28 45  1  0  0  0  0
 28 46  1  0  0  0  0
M  END
$$$$
