
 OpenBabel07202414123D

 65 68  0  0  1  0  0  0  0  0999 V2000
    3.1679    1.0478   -1.3293 C   0  0  0  0  0  0  0  0  0  0  0  0
    2.5508    0.1725   -0.2119 C   0  0  0  0  0  0  0  0  0  0  0  0
    1.0444    0.0049   -0.4815 C   0  0  0  0  0  0  0  0  0  0  0  0
    3.2030   -1.2250   -0.3108 C   0  0  0  0  0  0  0  0  0  0  0  0
    2.7439    0.8335    1.1583 C   0  0  0  0  0  0  0  0  0  0  0  0
    2.9114    2.2136    1.2808 C   0  0  0  0  0  0  0  0  0  0  0  0
    3.2115    2.8136    2.5073 C   0  0  0  0  0  0  0  0  0  0  0  0
    3.2875    2.0864    3.6963 C   0  0  0  0  0  0  0  0  0  0  0  0
    3.8057    2.6717    4.9374 N   0  0  0  0  0  0  0  0  0  0  0  0
    4.1387    1.7812    6.1085 C   0  0  3  0  0  0  0  0  0  0  0  0
    2.8320    1.7116    6.9498 C   0  0  0  0  0  0  0  0  0  0  0  0
    1.7524    1.3370    6.4916 O   0  0  0  0  0  0  0  0  0  0  0  0
    2.9314    2.2075    8.2392 N   0  0  0  0  0  0  0  0  0  0  0  0
    1.7610    2.3934    9.0858 C   0  0  0  0  0  0  0  0  0  0  0  0
    1.1344    1.0660    9.5139 C   0  0  0  0  0  0  0  0  0  0  0  0
   -0.0359    1.2208   10.4590 C   0  0  0  0  0  0  0  0  0  0  0  0
   -1.3339    1.3625    9.9576 C   0  0  0  0  0  0  0  0  0  0  0  0
   -2.4306    1.4160   10.8311 C   0  0  0  0  0  0  0  0  0  0  0  0
   -2.2344    1.3575   12.2031 C   0  0  0  0  0  0  0  0  0  0  0  0
   -0.9313    1.2470   12.6956 C   0  0  0  0  0  0  0  0  0  0  0  0
   -0.7367    1.1899   14.0246 F   0  0  0  0  0  0  0  0  0  0  0  0
    0.1556    1.1862   11.8470 C   0  0  0  0  0  0  0  0  0  0  0  0
    4.7349    0.3874    5.8735 C   0  0  0  0  0  0  0  0  0  0  0  0
    5.5762    0.1062    4.7982 C   0  0  0  0  0  0  0  0  0  0  0  0
    5.9092   -1.1625    4.4334 N   0  0  0  0  0  0  0  0  0  0  0  0
    5.4208   -2.1443    5.2194 C   0  0  0  0  0  0  0  0  0  0  0  0
    4.7121   -1.8727    6.3710 C   0  0  0  0  0  0  0  0  0  0  0  0
    4.3712   -0.6116    6.7284 N   0  0  0  0  0  0  0  0  0  0  0  0
    3.7910    4.0944    5.0926 C   0  0  0  0  0  0  0  0  0  0  0  0
    3.3952    4.8737    4.2253 O   0  0  0  0  0  0  0  0  0  0  0  0
    4.1933    4.7394    6.3481 C   0  0  0  0  0  0  0  0  0  0  0  0
    3.7601    6.0068    6.6900 C   0  0  0  0  0  0  0  0  0  0  0  0
    4.3108    6.3477    7.8793 O   0  0  0  0  0  0  0  0  0  0  0  0
    5.0726    5.2767    8.2023 C   0  0  0  0  0  0  0  0  0  0  0  0
    5.0532    4.2893    7.3336 N   0  0  0  0  0  0  0  0  0  0  0  0
    2.9053    0.7420    3.5893 C   0  0  0  0  0  0  0  0  0  0  0  0
    2.7178    0.1100    2.3484 C   0  0  0  0  0  0  0  0  0  0  0  0
    3.0784    0.5698   -2.3141 H   0  0  0  0  0  0  0  0  0  0  0  0
    4.2337    1.2278   -1.1371 H   0  0  0  0  0  0  0  0  0  0  0  0
    2.6750    2.0190   -1.4184 H   0  0  0  0  0  0  0  0  0  0  0  0
    0.8714   -0.4680   -1.4522 H   0  0  0  0  0  0  0  0  0  0  0  0
    0.5238    0.9667   -0.4793 H   0  0  0  0  0  0  0  0  0  0  0  0
    0.5706   -0.6290    0.2828 H   0  0  0  0  0  0  0  0  0  0  0  0
    3.0128   -1.6730   -1.2948 H   0  0  0  0  0  0  0  0  0  0  0  0
    2.8027   -1.9274    0.4274 H   0  0  0  0  0  0  0  0  0  0  0  0
    4.2898   -1.1763   -0.1732 H   0  0  0  0  0  0  0  0  0  0  0  0
    2.8592    2.8829    0.4268 H   0  0  0  0  0  0  0  0  0  0  0  0
    3.4110    3.8761    2.4351 H   0  0  0  0  0  0  0  0  0  0  0  0
    4.9210    2.2560    6.6933 H   0  0  0  0  0  0  0  0  0  0  0  0
    3.8518    2.3417    8.6411 H   0  0  0  0  0  0  0  0  0  0  0  0
    1.0378    3.0075    8.5355 H   0  0  0  0  0  0  0  0  0  0  0  0
    2.0901    2.9741    9.9568 H   0  0  0  0  0  0  0  0  0  0  0  0
    1.8973    0.4361    9.9830 H   0  0  0  0  0  0  0  0  0  0  0  0
    0.7946    0.5040    8.6393 H   0  0  0  0  0  0  0  0  0  0  0  0
   -1.5109    1.3859    8.8862 H   0  0  0  0  0  0  0  0  0  0  0  0
   -3.4400    1.4973   10.4287 H   0  0  0  0  0  0  0  0  0  0  0  0
   -3.0692    1.3809   12.8915 H   0  0  0  0  0  0  0  0  0  0  0  0
    1.1525    1.0821   12.2705 H   0  0  0  0  0  0  0  0  0  0  0  0
    5.9337    0.8763    4.1236 H   0  0  0  0  0  0  0  0  0  0  0  0
    5.6023   -3.1619    4.8896 H   0  0  0  0  0  0  0  0  0  0  0  0
    4.3697   -2.6639    7.0282 H   0  0  0  0  0  0  0  0  0  0  0  0
    3.1052    6.7287    6.2208 H   0  0  0  0  0  0  0  0  0  0  0  0
    5.6125    5.3352    9.1383 H   0  0  0  0  0  0  0  0  0  0  0  0
    2.7602    0.1111    4.4604 H   0  0  0  0  0  0  0  0  0  0  0  0
    2.5593   -0.9656    2.3544 H   0  0  0  0  0  0  0  0  0  0  0  0
  1  2  1  0  0  0  0
  1 38  1  0  0  0  0
  1 39  1  0  0  0  0
  1 40  1  0  0  0  0
  2  3  1  0  0  0  0
  2  4  1  0  0  0  0
  2  5  1  0  0  0  0
  3 41  1  0  0  0  0
  3 42  1  0  0  0  0
  3 43  1  0  0  0  0
  4 44  1  0  0  0  0
  4 45  1  0  0  0  0
  4 46  1  0  0  0  0
  5  6  1  0  0  0  0
  5 37  2  0  0  0  0
  6  7  2  0  0  0  0
  6 47  1  0  0  0  0
  7  8  1  0  0  0  0
  7 48  1  0  0  0  0
  8  9  1  0  0  0  0
  8 36  2  0  0  0  0
  9 10  1  0  0  0  0
  9 29  1  0  0  0  0
 10 11  1  0  0  0  0
 10 23  1  0  0  0  0
 10 49  1  0  0  0  0
 11 12  2  0  0  0  0
 11 13  1  0  0  0  0
 13 14  1  0  0  0  0
 13 50  1  0  0  0  0
 14 15  1  0  0  0  0
 14 51  1  0  0  0  0
 14 52  1  0  0  0  0
 15 16  1  0  0  0  0
 15 53  1  0  0  0  0
 15 54  1  0  0  0  0
 16 17  1  0  0  0  0
 16 22  2  0  0  0  0
 17 18  2  0  0  0  0
 17 55  1  0  0  0  0
 18 19  1  0  0  0  0
 18 56  1  0  0  0  0
 19 20  2  0  0  0  0
 19 57  1  0  0  0  0
 20 21  1  0  0  0  0
 20 22  1  0  0  0  0
 22 58  1  0  0  0  0
 23 24  1  0  0  0  0
 23 28  2  0  0  0  0
 24 25  2  0  0  0  0
 24 59  1  0  0  0  0
 25 26  1  0  0  0  0
 26 27  2  0  0  0  0
 26 60  1  0  0  0  0
 27 28  1  0  0  0  0
 27 61  1  0  0  0  0
 29 30  2  0  0  0  0
 29 31  1  0  0  0  0
 31 32  2  0  0  0  0
 31 35  1  0  0  0  0
 32 33  1  0  0  0  0
 32 62  1  0  0  0  0
 33 34  1  0  0  0  0
 34 35  2  0  0  0  0
 34 63  1  0  0  0  0
 36 37  1  0  0  0  0
 36 64  1  0  0  0  0
 37 65  1  0  0  0  0
M  END
$$$$
