
 OpenBabel07202414153D

 38 39  0  0  0  0  0  0  0  0999 V2000
    8.7288    4.1962  -10.0923 C   0  0  0  0  0  0  0  0  0  0  0  0
    7.3758    4.4765   -9.7498 O   0  0  0  0  0  0  0  0  0  0  0  0
    6.9762    4.1432   -8.4848 C   0  0  0  0  0  0  0  0  0  0  0  0
    7.8227    3.7894   -7.4350 C   0  0  0  0  0  0  0  0  0  0  0  0
    7.2986    3.5621   -6.1620 C   0  0  0  0  0  0  0  0  0  0  0  0
    5.9268    3.7013   -5.9321 C   0  0  0  0  0  0  0  0  0  0  0  0
    5.3229    3.4018   -4.2930 S   0  0  0  0  0  0  0  0  0  0  0  0
    4.6383    2.1344   -4.3573 O   0  0  0  0  0  0  0  0  0  0  0  0
    6.4269    3.6156   -3.3770 O   0  0  0  0  0  0  0  0  0  0  0  0
    4.1680    4.6305   -3.9566 N   0  0  0  0  0  0  0  0  0  0  0  0
    4.6591    5.9555   -3.4106 C   0  0  0  0  0  0  0  0  0  0  0  0
    4.6385    6.1181   -1.8384 C   0  0  0  0  0  0  0  0  0  0  0  0
    3.7720    5.1921   -1.0877 N   0  0  0  0  0  0  0  0  0  0  0  0
    3.1934    5.3609    0.1693 C   0  0  0  0  0  0  0  0  0  0  0  0
    2.7155    4.4100    0.7966 O   0  0  0  0  0  0  0  0  0  0  0  0
    3.0670    6.7437    0.7642 C   0  0  0  0  0  0  0  0  0  0  0  0
    1.5877    7.4838    0.1121 Cl  0  0  0  0  0  0  0  0  0  0  0  0
    3.6006    3.8814   -1.6909 C   0  0  0  0  0  0  0  0  0  0  0  0
    3.0580    4.1117   -3.0977 C   0  0  0  0  0  0  0  0  0  0  0  0
    5.0578    3.9691   -6.9898 C   0  0  0  0  0  0  0  0  0  0  0  0
    5.5932    4.2001   -8.2632 C   0  0  0  0  0  0  0  0  0  0  0  0
    8.9038    4.5743  -11.1041 H   0  0  0  0  0  0  0  0  0  0  0  0
    8.9006    3.1152  -10.0997 H   0  0  0  0  0  0  0  0  0  0  0  0
    9.4391    4.7046   -9.4314 H   0  0  0  0  0  0  0  0  0  0  0  0
    8.8952    3.6930   -7.5631 H   0  0  0  0  0  0  0  0  0  0  0  0
    7.9640    3.2592   -5.3564 H   0  0  0  0  0  0  0  0  0  0  0  0
    3.9956    6.7233   -3.8316 H   0  0  0  0  0  0  0  0  0  0  0  0
    5.6563    6.1941   -3.7999 H   0  0  0  0  0  0  0  0  0  0  0  0
    4.3689    7.1512   -1.5915 H   0  0  0  0  0  0  0  0  0  0  0  0
    5.6552    5.9706   -1.4559 H   0  0  0  0  0  0  0  0  0  0  0  0
    3.9261    7.3789    0.5591 H   0  0  0  0  0  0  0  0  0  0  0  0
    2.9468    6.6466    1.8500 H   0  0  0  0  0  0  0  0  0  0  0  0
    2.9082    3.2434   -1.1341 H   0  0  0  0  0  0  0  0  0  0  0  0
    4.5768    3.3855   -1.6644 H   0  0  0  0  0  0  0  0  0  0  0  0
    2.2542    4.8646   -3.0807 H   0  0  0  0  0  0  0  0  0  0  0  0
    2.6215    3.2068   -3.5277 H   0  0  0  0  0  0  0  0  0  0  0  0
    3.9807    3.9838   -6.8436 H   0  0  0  0  0  0  0  0  0  0  0  0
    4.9308    4.4231   -9.0976 H   0  0  0  0  0  0  0  0  0  0  0  0
  1  2  1  0  0  0  0
  1 22  1  0  0  0  0
  1 23  1  0  0  0  0
  1 24  1  0  0  0  0
  2  3  1  0  0  0  0
  3  4  1  0  0  0  0
  3 21  2  0  0  0  0
  4  5  2  0  0  0  0
  4 25  1  0  0  0  0
  5  6  1  0  0  0  0
  5 26  1  0  0  0  0
  6  7  1  0  0  0  0
  6 20  2  0  0  0  0
  7  8  2  0  0  0  0
  7  9  2  0  0  0  0
  7 10  1  0  0  0  0
 10 11  1  0  0  0  0
 10 19  1  0  0  0  0
 11 12  1  0  0  0  0
 11 27  1  0  0  0  0
 11 28  1  0  0  0  0
 12 13  1  0  0  0  0
 12 29  1  0  0  0  0
 12 30  1  0  0  0  0
 13 14  1  0  0  0  0
 13 18  1  0  0  0  0
 14 15  2  0  0  0  0
 14 16  1  0  0  0  0
 16 17  1  0  0  0  0
 16 31  1  0  0  0  0
 16 32  1  0  0  0  0
 18 19  1  0  0  0  0
 18 33  1  0  0  0  0
 18 34  1  0  0  0  0
 19 35  1  0  0  0  0
 19 36  1  0  0  0  0
 20 21  1  0  0  0  0
 20 37  1  0  0  0  0
 21 38  1  0  0  0  0
M  END
$$$$
