
 OpenBabel07202414203D

 31 33  0  0  0  0  0  0  0  0999 V2000
    1.5197    0.9890   -3.2593 C   0  0  0  0  0  0  0  0  0  0  0  0
    1.1818    1.9188   -2.2781 C   0  0  0  0  0  0  0  0  0  0  0  0
    1.2056    1.5446   -0.9359 C   0  0  0  0  0  0  0  0  0  0  0  0
    1.5754    0.2474   -0.5786 C   0  0  0  0  0  0  0  0  0  0  0  0
    1.9275   -0.6927   -1.5504 C   0  0  0  0  0  0  0  0  0  0  0  0
    1.8878   -0.3094   -2.8954 C   0  0  0  0  0  0  0  0  0  0  0  0
    2.3364   -1.9822   -1.3477 O   0  0  0  0  0  0  0  0  0  0  0  0
    2.3398   -2.4618   -0.0093 C   0  0  0  0  0  0  0  0  0  0  0  0
    2.7016   -3.9427   -0.0403 C   0  0  0  0  0  0  0  0  0  0  0  0
    1.8241   -4.7858   -0.2219 O   0  0  0  0  0  0  0  0  0  0  0  0
    4.0428   -4.2018    0.1801 N   0  0  0  0  0  0  0  0  0  0  0  0
    4.5929   -5.4918    0.1954 C   0  0  0  0  0  0  0  0  0  0  0  0
    5.8632   -5.7079    0.7488 C   0  0  0  0  0  0  0  0  0  0  0  0
    6.2898   -7.0241    0.8020 C   0  0  0  0  0  0  0  0  0  0  0  0
    7.4921   -6.9903    1.4424 N   0  0  0  0  0  0  0  0  0  0  0  0
    7.7651   -5.6798    1.7296 C   0  0  0  0  0  0  0  0  0  0  0  0
    6.8056   -4.8732    1.3223 N   0  0  0  0  0  0  0  0  0  0  0  0
    5.6495   -8.1159    0.3581 N   0  0  0  0  0  0  0  0  0  0  0  0
    4.4627   -7.7840   -0.1823 C   0  0  0  0  0  0  0  0  0  0  0  0
    3.9124   -6.5602   -0.2849 N   0  0  0  0  0  0  0  0  0  0  0  0
    1.5906   -0.0554    0.7277 F   0  0  0  0  0  0  0  0  0  0  0  0
    1.4993    1.2715   -4.3092 H   0  0  0  0  0  0  0  0  0  0  0  0
    0.9002    2.9306   -2.5585 H   0  0  0  0  0  0  0  0  0  0  0  0
    0.9415    2.2570   -0.1604 H   0  0  0  0  0  0  0  0  0  0  0  0
    2.1473   -1.0304   -3.6676 H   0  0  0  0  0  0  0  0  0  0  0  0
    1.3439   -2.3846    0.4453 H   0  0  0  0  0  0  0  0  0  0  0  0
    3.0703   -1.9162    0.5978 H   0  0  0  0  0  0  0  0  0  0  0  0
    4.6642   -3.4584    0.4780 H   0  0  0  0  0  0  0  0  0  0  0  0
    8.0494   -7.7983    1.6762 H   0  0  0  0  0  0  0  0  0  0  0  0
    8.6708   -5.3835    2.2442 H   0  0  0  0  0  0  0  0  0  0  0  0
    3.8654   -8.6019   -0.5779 H   0  0  0  0  0  0  0  0  0  0  0  0
  1  2  1  0  0  0  0
  1  6  2  0  0  0  0
  1 22  1  0  0  0  0
  2  3  2  0  0  0  0
  2 23  1  0  0  0  0
  3  4  1  0  0  0  0
  3 24  1  0  0  0  0
  4  5  2  0  0  0  0
  4 21  1  0  0  0  0
  5  6  1  0  0  0  0
  5  7  1  0  0  0  0
  6 25  1  0  0  0  0
  7  8  1  0  0  0  0
  8  9  1  0  0  0  0
  8 26  1  0  0  0  0
  8 27  1  0  0  0  0
  9 10  2  0  0  0  0
  9 11  1  0  0  0  0
 11 12  1  0  0  0  0
 11 28  1  0  0  0  0
 12 13  1  0  0  0  0
 12 20  2  0  0  0  0
 13 14  2  0  0  0  0
 13 17  1  0  0  0  0
 14 15  1  0  0  0  0
 14 18  1  0  0  0  0
 15 16  1  0  0  0  0
 15 29  1  0  0  0  0
 16 17  2  0  0  0  0
 16 30  1  0  0  0  0
 18 19  2  0  0  0  0
 19 20  1  0  0  0  0
 19 31  1  0  0  0  0
M  END
$$$$
