
 OpenBabel07202414123D

 73 77  0  0  1  0  0  0  0  0999 V2000
    0.9161    1.9039    1.7781 C   0  0  0  0  0  0  0  0  0  0  0  0
    0.5472    0.4927    1.2878 C   0  0  0  0  0  0  0  0  0  0  0  0
   -0.9350    0.2510    1.6817 C   0  0  0  0  0  0  0  0  0  0  0  0
    0.6684    0.4663   -0.2442 C   0  0  0  0  0  0  0  0  0  0  0  0
    1.4224   -0.6088    1.8929 C   0  0  0  0  0  0  0  0  0  0  0  0
    2.6093   -0.4027    2.6075 C   0  0  0  0  0  0  0  0  0  0  0  0
    3.3235   -1.4914    3.1727 C   0  0  0  0  0  0  0  0  0  0  0  0
    2.8724   -2.8189    3.0718 C   0  0  0  0  0  0  0  0  0  0  0  0
    3.5329   -3.9813    3.6664 N   0  0  0  0  0  0  0  0  0  0  0  0
    3.0538   -5.3724    3.2658 C   0  0  3  0  0  0  0  0  0  0  0  0
    1.8308   -5.7573    4.1975 C   0  0  0  0  0  0  0  0  0  0  0  0
    1.9879   -5.9385    5.4011 O   0  0  0  0  0  0  0  0  0  0  0  0
    0.5687   -5.8658    3.6369 N   0  0  0  0  0  0  0  0  0  0  0  0
   -0.6182   -6.3478    4.3272 C   0  0  0  0  0  0  0  0  0  0  0  0
   -1.5253   -7.1001    3.3402 C   0  0  0  0  0  0  0  0  0  0  0  0
   -2.8301   -7.5358    3.9498 C   0  0  0  0  0  0  0  0  0  0  0  0
   -2.9494   -8.7969    4.5520 C   0  0  0  0  0  0  0  0  0  0  0  0
   -4.1606   -9.2029    5.1181 C   0  0  0  0  0  0  0  0  0  0  0  0
   -5.2617   -8.3491    5.0955 C   0  0  0  0  0  0  0  0  0  0  0  0
   -5.1441   -7.1017    4.4952 C   0  0  0  0  0  0  0  0  0  0  0  0
   -6.2058   -6.2838    4.4615 F   0  0  0  0  0  0  0  0  0  0  0  0
   -3.9424   -6.6861    3.9276 C   0  0  0  0  0  0  0  0  0  0  0  0
    2.9765   -5.7126    1.7523 C   0  0  0  0  0  0  0  0  0  0  0  0
    1.9093   -6.4490    1.2316 C   0  0  0  0  0  0  0  0  0  0  0  0
    1.5992   -6.6050   -0.0702 N   0  0  0  0  0  0  0  0  0  0  0  0
    2.5629   -6.2822   -0.9358 C   0  0  0  0  0  0  0  0  0  0  0  0
    3.8350   -5.9253   -0.5254 C   0  0  0  0  0  0  0  0  0  0  0  0
    4.9044   -6.0716   -1.4143 C   0  0  0  0  0  0  0  0  0  0  0  0
    6.2005   -5.8328   -0.9801 C   0  0  0  0  0  0  0  0  0  0  0  0
    6.4124   -5.3094    0.2909 C   0  0  0  0  0  0  0  0  0  0  0  0
    5.3423   -5.1285    1.1756 C   0  0  0  0  0  0  0  0  0  0  0  0
    4.0390   -5.5372    0.8290 C   0  0  0  0  0  0  0  0  0  0  0  0
    4.3816   -3.7768    4.8037 C   0  0  0  0  0  0  0  0  0  0  0  0
    4.4976   -2.6674    5.3363 O   0  0  0  0  0  0  0  0  0  0  0  0
    5.1281   -4.8755    5.4165 C   0  0  0  0  0  0  0  0  0  0  0  0
    5.7018   -4.9352    6.6809 C   0  0  0  0  0  0  0  0  0  0  0  0
    6.3238   -6.1986    6.7964 C   0  0  0  0  0  0  0  0  0  0  0  0
    6.1450   -6.8168    5.5840 C   0  0  0  0  0  0  0  0  0  0  0  0
    5.4823   -6.0009    4.7277 O   0  0  0  0  0  0  0  0  0  0  0  0
    1.7121   -2.9832    2.3366 C   0  0  0  0  0  0  0  0  0  0  0  0
    1.0209   -1.9346    1.7374 C   0  0  0  0  0  0  0  0  0  0  0  0
    0.2338    2.6524    1.3587 H   0  0  0  0  0  0  0  0  0  0  0  0
    1.9309    2.1859    1.4796 H   0  0  0  0  0  0  0  0  0  0  0  0
    0.8507    1.9737    2.8705 H   0  0  0  0  0  0  0  0  0  0  0  0
   -1.5895    1.0217    1.2630 H   0  0  0  0  0  0  0  0  0  0  0  0
   -1.0555    0.2535    2.7719 H   0  0  0  0  0  0  0  0  0  0  0  0
   -1.3228   -0.7067    1.3171 H   0  0  0  0  0  0  0  0  0  0  0  0
   -0.0230    1.1758   -0.7126 H   0  0  0  0  0  0  0  0  0  0  0  0
    0.4260   -0.5265   -0.6592 H   0  0  0  0  0  0  0  0  0  0  0  0
    1.6829    0.7105   -0.5761 H   0  0  0  0  0  0  0  0  0  0  0  0
    3.0123    0.5934    2.7582 H   0  0  0  0  0  0  0  0  0  0  0  0
    4.2484   -1.2357    3.6862 H   0  0  0  0  0  0  0  0  0  0  0  0
    3.7822   -6.1103    3.5808 H   0  0  0  0  0  0  0  0  0  0  0  0
    0.3693   -5.4400    2.7459 H   0  0  0  0  0  0  0  0  0  0  0  0
   -1.1273   -5.4640    4.7233 H   0  0  0  0  0  0  0  0  0  0  0  0
   -0.3283   -6.9884    5.1654 H   0  0  0  0  0  0  0  0  0  0  0  0
   -0.9984   -7.9757    2.9362 H   0  0  0  0  0  0  0  0  0  0  0  0
   -1.7343   -6.4715    2.4628 H   0  0  0  0  0  0  0  0  0  0  0  0
   -2.0991   -9.4761    4.5792 H   0  0  0  0  0  0  0  0  0  0  0  0
   -4.2437  -10.1831    5.5802 H   0  0  0  0  0  0  0  0  0  0  0  0
   -6.2101   -8.6514    5.5207 H   0  0  0  0  0  0  0  0  0  0  0  0
   -3.8942   -5.7032    3.4656 H   0  0  0  0  0  0  0  0  0  0  0  0
    1.2478   -7.0363    1.8558 H   0  0  0  0  0  0  0  0  0  0  0  0
    2.3047   -6.4203   -1.9814 H   0  0  0  0  0  0  0  0  0  0  0  0
    4.7433   -6.4852   -2.4082 H   0  0  0  0  0  0  0  0  0  0  0  0
    7.0410   -6.0709   -1.6263 H   0  0  0  0  0  0  0  0  0  0  0  0
    7.4245   -5.0865    0.6186 H   0  0  0  0  0  0  0  0  0  0  0  0
    5.5716   -4.7483    2.1662 H   0  0  0  0  0  0  0  0  0  0  0  0
    5.6459   -4.1561    7.4294 H   0  0  0  0  0  0  0  0  0  0  0  0
    6.8352   -6.6067    7.6570 H   0  0  0  0  0  0  0  0  0  0  0  0
    6.4196   -7.7836    5.1879 H   0  0  0  0  0  0  0  0  0  0  0  0
    1.2364   -3.9249    2.1967 H   0  0  0  0  0  0  0  0  0  0  0  0
    0.1341   -2.1855    1.1579 H   0  0  0  0  0  0  0  0  0  0  0  0
  1  2  1  0  0  0  0
  1 42  1  0  0  0  0
  1 43  1  0  0  0  0
  1 44  1  0  0  0  0
  2  3  1  0  0  0  0
  2  4  1  0  0  0  0
  2  5  1  0  0  0  0
  3 45  1  0  0  0  0
  3 46  1  0  0  0  0
  3 47  1  0  0  0  0
  4 48  1  0  0  0  0
  4 49  1  0  0  0  0
  4 50  1  0  0  0  0
  5  6  1  0  0  0  0
  5 41  2  0  0  0  0
  6  7  2  0  0  0  0
  6 51  1  0  0  0  0
  7  8  1  0  0  0  0
  7 52  1  0  0  0  0
  8  9  1  0  0  0  0
  8 40  2  0  0  0  0
  9 10  1  0  0  0  0
  9 33  1  0  0  0  0
 10 11  1  0  0  0  0
 10 23  1  0  0  0  0
 10 53  1  0  0  0  0
 11 12  2  0  0  0  0
 11 13  1  0  0  0  0
 13 14  1  0  0  0  0
 13 54  1  0  0  0  0
 14 15  1  0  0  0  0
 14 55  1  0  0  0  0
 14 56  1  0  0  0  0
 15 16  1  0  0  0  0
 15 57  1  0  0  0  0
 15 58  1  0  0  0  0
 16 17  1  0  0  0  0
 16 22  2  0  0  0  0
 17 18  2  0  0  0  0
 17 59  1  0  0  0  0
 18 19  1  0  0  0  0
 18 60  1  0  0  0  0
 19 20  2  0  0  0  0
 19 61  1  0  0  0  0
 20 21  1  0  0  0  0
 20 22  1  0  0  0  0
 22 62  1  0  0  0  0
 23 24  1  0  0  0  0
 23 32  2  0  0  0  0
 24 25  2  0  0  0  0
 24 63  1  0  0  0  0
 25 26  1  0  0  0  0
 26 27  2  0  0  0  0
 26 64  1  0  0  0  0
 27 28  1  0  0  0  0
 27 32  1  0  0  0  0
 28 29  2  0  0  0  0
 28 65  1  0  0  0  0
 29 30  1  0  0  0  0
 29 66  1  0  0  0  0
 30 31  2  0  0  0  0
 30 67  1  0  0  0  0
 31 32  1  0  0  0  0
 31 68  1  0  0  0  0
 33 34  2  0  0  0  0
 33 35  1  0  0  0  0
 35 36  2  0  0  0  0
 35 39  1  0  0  0  0
 36 37  1  0  0  0  0
 36 69  1  0  0  0  0
 37 38  2  0  0  0  0
 37 70  1  0  0  0  0
 38 39  1  0  0  0  0
 38 71  1  0  0  0  0
 40 41  1  0  0  0  0
 40 72  1  0  0  0  0
 41 73  1  0  0  0  0
M  END
$$$$
