
 OpenBabel07202414193D

 35 37  0  0  0  0  0  0  0  0999 V2000
    2.0219    0.5844   -1.0772 O   0  0  0  0  0  0  0  0  0  0  0  0
    2.2385   -0.1560   -0.1198 C   0  0  0  0  0  0  0  0  0  0  0  0
    2.8638    0.3838    1.1591 C   0  0  0  0  0  0  0  0  0  0  0  0
    1.9239    0.9736    2.1834 C   0  0  0  0  0  0  0  0  0  0  0  0
    1.4208    0.1118    3.1605 C   0  0  0  0  0  0  0  0  0  0  0  0
    0.6315    0.4838    4.1827 N   0  0  0  0  0  0  0  0  0  0  0  0
    0.3140    1.7939    4.2380 C   0  0  0  0  0  0  0  0  0  0  0  0
    0.7446    2.7593    3.3250 C   0  0  0  0  0  0  0  0  0  0  0  0
    0.3681    4.1079    3.4582 C   0  0  0  0  0  0  0  0  0  0  0  0
    0.8136    5.0637    2.5477 C   0  0  0  0  0  0  0  0  0  0  0  0
    1.6349    4.6811    1.4952 C   0  0  0  0  0  0  0  0  0  0  0  0
    2.0117    3.3406    1.3504 C   0  0  0  0  0  0  0  0  0  0  0  0
    1.5769    2.3467    2.2604 C   0  0  0  0  0  0  0  0  0  0  0  0
    1.9206   -1.5030   -0.1194 N   0  0  0  0  0  0  0  0  0  0  0  0
    1.3882   -2.2308   -1.2066 C   0  0  0  0  0  0  0  0  0  0  0  0
    1.4506   -1.7996   -2.5355 C   0  0  0  0  0  0  0  0  0  0  0  0
    0.8019   -2.5033   -3.5565 C   0  0  0  0  0  0  0  0  0  0  0  0
    0.1310   -3.6860   -3.2593 C   0  0  0  0  0  0  0  0  0  0  0  0
    0.1383   -4.1752   -1.9520 C   0  0  0  0  0  0  0  0  0  0  0  0
   -0.5254   -5.4155   -1.6524 C   0  0  0  0  0  0  0  0  0  0  0  0
   -1.0534   -6.4072   -1.4099 N   0  0  0  0  0  0  0  0  0  0  0  0
    0.7700   -3.4551   -0.9272 C   0  0  0  0  0  0  0  0  0  0  0  0
    3.6349    1.1117    0.8760 H   0  0  0  0  0  0  0  0  0  0  0  0
    3.4165   -0.4236    1.6625 H   0  0  0  0  0  0  0  0  0  0  0  0
    1.6624   -0.9478    3.1546 H   0  0  0  0  0  0  0  0  0  0  0  0
   -0.3275    2.0598    5.0747 H   0  0  0  0  0  0  0  0  0  0  0  0
   -0.2741    4.4217    4.2774 H   0  0  0  0  0  0  0  0  0  0  0  0
    0.5176    6.1036    2.6593 H   0  0  0  0  0  0  0  0  0  0  0  0
    1.9837    5.4219    0.7794 H   0  0  0  0  0  0  0  0  0  0  0  0
    2.6468    3.0905    0.5035 H   0  0  0  0  0  0  0  0  0  0  0  0
    1.9273   -1.9537    0.7885 H   0  0  0  0  0  0  0  0  0  0  0  0
    2.0221   -0.9190   -2.8188 H   0  0  0  0  0  0  0  0  0  0  0  0
    0.8330   -2.1264   -4.5754 H   0  0  0  0  0  0  0  0  0  0  0  0
   -0.3821   -4.2208   -4.0549 H   0  0  0  0  0  0  0  0  0  0  0  0
    0.7467   -3.8401    0.0886 H   0  0  0  0  0  0  0  0  0  0  0  0
  1  2  2  0  0  0  0
  2  3  1  0  0  0  0
  2 14  1  0  0  0  0
  3  4  1  0  0  0  0
  3 23  1  0  0  0  0
  3 24  1  0  0  0  0
  4  5  1  0  0  0  0
  4 13  2  0  0  0  0
  5  6  2  0  0  0  0
  5 25  1  0  0  0  0
  6  7  1  0  0  0  0
  7  8  2  0  0  0  0
  7 26  1  0  0  0  0
  8  9  1  0  0  0  0
  8 13  1  0  0  0  0
  9 10  2  0  0  0  0
  9 27  1  0  0  0  0
 10 11  1  0  0  0  0
 10 28  1  0  0  0  0
 11 12  2  0  0  0  0
 11 29  1  0  0  0  0
 12 13  1  0  0  0  0
 12 30  1  0  0  0  0
 14 15  1  0  0  0  0
 14 31  1  0  0  0  0
 15 16  1  0  0  0  0
 15 22  2  0  0  0  0
 16 17  2  0  0  0  0
 16 32  1  0  0  0  0
 17 18  1  0  0  0  0
 17 33  1  0  0  0  0
 18 19  2  0  0  0  0
 18 34  1  0  0  0  0
 19 20  1  0  0  0  0
 19 22  1  0  0  0  0
 20 21  3  0  0  0  0
 22 35  1  0  0  0  0
M  END
$$$$
