
 OpenBabel07202414203D

 36 37  0  0  0  0  0  0  0  0999 V2000
   -1.5133    4.6647   -3.4668 O   0  0  0  0  0  0  0  0  0  0  0  0
   -0.4965    4.7031   -2.5539 C   0  0  0  0  0  0  0  0  0  0  0  0
    0.1527    5.9033   -2.2922 C   0  0  0  0  0  0  0  0  0  0  0  0
    1.0787    5.9599   -1.2596 C   0  0  0  0  0  0  0  0  0  0  0  0
    1.3661    4.7992   -0.5235 C   0  0  0  0  0  0  0  0  0  0  0  0
    2.1316    4.8979    0.6028 O   0  0  0  0  0  0  0  0  0  0  0  0
    0.8421    3.5449   -0.8704 C   0  0  0  0  0  0  0  0  0  0  0  0
    1.2740    2.2869   -0.1094 C   0  0  0  0  0  0  0  0  0  0  0  0
    2.7357    2.1475    0.0142 N   0  0  0  0  0  0  0  0  0  0  0  0
    3.4615    1.6519   -1.1487 C   0  0  0  0  0  0  0  0  0  0  0  0
    3.6009    0.1207   -1.2949 C   0  0  0  0  0  0  0  0  0  0  0  0
    3.5539   -0.6929   -0.0748 N   0  0  0  0  0  0  0  0  0  0  0  0
    3.6096   -2.0897   -0.0626 C   0  0  0  0  0  0  0  0  0  0  0  0
    3.5507   -2.7282    0.9874 O   0  0  0  0  0  0  0  0  0  0  0  0
    3.6859   -2.8312   -1.3894 C   0  0  0  0  0  0  0  0  0  0  0  0
    5.3712   -3.0086   -1.8998 Cl  0  0  0  0  0  0  0  0  0  0  0  0
    3.1741   -0.0563    1.1927 C   0  0  0  0  0  0  0  0  0  0  0  0
    3.2097    1.4746    1.2231 C   0  0  0  0  0  0  0  0  0  0  0  0
   -0.1469    3.5201   -1.8781 C   0  0  0  0  0  0  0  0  0  0  0  0
   -1.7676    5.5792   -3.6812 H   0  0  0  0  0  0  0  0  0  0  0  0
   -0.0777    6.8039   -2.8520 H   0  0  0  0  0  0  0  0  0  0  0  0
    1.5486    6.9006   -1.0145 H   0  0  0  0  0  0  0  0  0  0  0  0
    2.6347    5.7186    0.5738 H   0  0  0  0  0  0  0  0  0  0  0  0
    0.8287    1.3854   -0.5491 H   0  0  0  0  0  0  0  0  0  0  0  0
    0.8277    2.3956    0.8883 H   0  0  0  0  0  0  0  0  0  0  0  0
    4.4793    2.0603   -1.0720 H   0  0  0  0  0  0  0  0  0  0  0  0
    3.0702    2.0749   -2.0813 H   0  0  0  0  0  0  0  0  0  0  0  0
    4.5684   -0.0932   -1.7688 H   0  0  0  0  0  0  0  0  0  0  0  0
    2.8204   -0.2422   -1.9701 H   0  0  0  0  0  0  0  0  0  0  0  0
    3.1160   -2.3386   -2.1775 H   0  0  0  0  0  0  0  0  0  0  0  0
    3.2577   -3.8293   -1.2582 H   0  0  0  0  0  0  0  0  0  0  0  0
    3.8443   -0.4418    1.9718 H   0  0  0  0  0  0  0  0  0  0  0  0
    2.1650   -0.4104    1.4362 H   0  0  0  0  0  0  0  0  0  0  0  0
    4.2546    1.7791    1.3739 H   0  0  0  0  0  0  0  0  0  0  0  0
    2.6835    1.8365    2.1143 H   0  0  0  0  0  0  0  0  0  0  0  0
   -0.6716    2.6052   -2.1172 H   0  0  0  0  0  0  0  0  0  0  0  0
  1  2  1  0  0  0  0
  1 20  1  0  0  0  0
  2  3  1  0  0  0  0
  2 19  2  0  0  0  0
  3  4  2  0  0  0  0
  3 21  1  0  0  0  0
  4  5  1  0  0  0  0
  4 22  1  0  0  0  0
  5  6  1  0  0  0  0
  5  7  2  0  0  0  0
  6 23  1  0  0  0  0
  7  8  1  0  0  0  0
  7 19  1  0  0  0  0
  8  9  1  0  0  0  0
  8 24  1  0  0  0  0
  8 25  1  0  0  0  0
  9 10  1  0  0  0  0
  9 18  1  0  0  0  0
 10 11  1  0  0  0  0
 10 26  1  0  0  0  0
 10 27  1  0  0  0  0
 11 12  1  0  0  0  0
 11 28  1  0  0  0  0
 11 29  1  0  0  0  0
 12 13  1  0  0  0  0
 12 17  1  0  0  0  0
 13 14  2  0  0  0  0
 13 15  1  0  0  0  0
 15 16  1  0  0  0  0
 15 30  1  0  0  0  0
 15 31  1  0  0  0  0
 17 18  1  0  0  0  0
 17 32  1  0  0  0  0
 17 33  1  0  0  0  0
 18 34  1  0  0  0  0
 18 35  1  0  0  0  0
 19 36  1  0  0  0  0
M  END
$$$$
