
 OpenBabel07202414173D

 48 52  0  0  1  0  0  0  0  0999 V2000
    0.9672   -0.0096    0.0227 Cl  0  0  0  0  0  0  0  0  0  0  0  0
    2.6809   -0.0783    0.1556 C   0  0  0  0  0  0  0  0  0  0  0  0
    3.4343    1.0834    0.0087 C   0  0  0  0  0  0  0  0  0  0  0  0
    4.8283    1.0280    0.0882 C   0  0  0  0  0  0  0  0  0  0  0  0
    5.4820   -0.1922    0.3175 C   0  0  0  0  0  0  0  0  0  0  0  0
    4.7074   -1.3677    0.4709 C   0  0  0  0  0  0  0  0  0  0  0  0
    3.3079   -1.2986    0.3951 C   0  0  0  0  0  0  0  0  0  0  0  0
    5.3775   -2.7144    0.7073 C   0  0  3  0  0  0  0  0  0  0  0  0
    5.3113   -3.1768    2.1715 C   0  0  0  0  0  0  0  0  0  0  0  0
    4.8821   -4.2964    2.4404 O   0  0  0  0  0  0  0  0  0  0  0  0
    5.7761   -2.2522    3.0944 N   0  0  0  0  0  0  0  0  0  0  0  0
    5.7802   -2.3621    4.5097 C   0  0  0  0  0  0  0  0  0  0  0  0
    5.4617   -3.5479    5.1715 C   0  0  0  0  0  0  0  0  0  0  0  0
    5.3007   -3.6626    6.5102 N   0  0  0  0  0  0  0  0  0  0  0  0
    5.4849   -2.5411    7.2344 C   0  0  0  0  0  0  0  0  0  0  0  0
    5.8982   -1.3181    6.7093 C   0  0  0  0  0  0  0  0  0  0  0  0
    6.1358   -0.2158    7.5512 C   0  0  0  0  0  0  0  0  0  0  0  0
    6.5789    0.9963    7.0299 C   0  0  0  0  0  0  0  0  0  0  0  0
    6.7782    1.1214    5.6624 C   0  0  0  0  0  0  0  0  0  0  0  0
    6.5268    0.0372    4.8144 C   0  0  0  0  0  0  0  0  0  0  0  0
    6.0745   -1.2160    5.3082 C   0  0  0  0  0  0  0  0  0  0  0  0
    6.8166   -2.6698    0.1935 C   0  0  0  0  0  0  0  0  0  0  0  0
    7.5214   -1.5205    0.7670 N   0  0  0  0  0  0  0  0  0  0  0  0
    8.6875   -1.5765    1.5445 C   0  0  0  0  0  0  0  0  0  0  0  0
    9.3073   -0.5392    1.7884 O   0  0  0  0  0  0  0  0  0  0  0  0
    9.1188   -2.8463    2.0822 C   0  0  0  0  0  0  0  0  0  0  0  0
   10.3475   -3.2788    2.5399 C   0  0  0  0  0  0  0  0  0  0  0  0
   10.2678   -4.5772    2.9742 N   0  0  0  0  0  0  0  0  0  0  0  0
    9.0002   -4.8788    2.8162 C   0  0  0  0  0  0  0  0  0  0  0  0
    8.2403   -3.8786    2.3009 O   0  0  0  0  0  0  0  0  0  0  0  0
    7.0031   -0.2238    0.3397 C   0  0  0  0  0  0  0  0  0  0  0  0
    2.9419    2.0348   -0.1800 H   0  0  0  0  0  0  0  0  0  0  0  0
    5.4009    1.9450   -0.0426 H   0  0  0  0  0  0  0  0  0  0  0  0
    2.7063   -2.1999    0.5058 H   0  0  0  0  0  0  0  0  0  0  0  0
    4.8417   -3.4672    0.1137 H   0  0  0  0  0  0  0  0  0  0  0  0
    6.0383   -1.3540    2.7171 H   0  0  0  0  0  0  0  0  0  0  0  0
    5.3238   -4.4865    4.6458 H   0  0  0  0  0  0  0  0  0  0  0  0
    5.2898   -2.6613    8.2975 H   0  0  0  0  0  0  0  0  0  0  0  0
    5.9899   -0.3016    8.6264 H   0  0  0  0  0  0  0  0  0  0  0  0
    6.7773    1.8358    7.6913 H   0  0  0  0  0  0  0  0  0  0  0  0
    7.1365    2.0617    5.2497 H   0  0  0  0  0  0  0  0  0  0  0  0
    6.7206    0.1940    3.7578 H   0  0  0  0  0  0  0  0  0  0  0  0
    6.8166   -2.5200   -0.8959 H   0  0  0  0  0  0  0  0  0  0  0  0
    7.3337   -3.6167    0.3426 H   0  0  0  0  0  0  0  0  0  0  0  0
   11.2753   -2.7258    2.5650 H   0  0  0  0  0  0  0  0  0  0  0  0
    8.4938   -5.8071    3.0392 H   0  0  0  0  0  0  0  0  0  0  0  0
    7.3777   -0.0435   -0.6748 H   0  0  0  0  0  0  0  0  0  0  0  0
    7.3728    0.5720    0.9952 H   0  0  0  0  0  0  0  0  0  0  0  0
  1  2  1  0  0  0  0
  2  3  1  0  0  0  0
  2  7  2  0  0  0  0
  3  4  2  0  0  0  0
  3 32  1  0  0  0  0
  4  5  1  0  0  0  0
  4 33  1  0  0  0  0
  5  6  2  0  0  0  0
  5 31  1  0  0  0  0
  6  7  1  0  0  0  0
  6  8  1  0  0  0  0
  7 34  1  0  0  0  0
  8  9  1  0  0  0  0
  8 22  1  0  0  0  0
  8 35  1  0  0  0  0
  9 10  2  0  0  0  0
  9 11  1  0  0  0  0
 11 12  1  0  0  0  0
 11 36  1  0  0  0  0
 12 13  1  0  0  0  0
 12 21  2  0  0  0  0
 13 14  2  0  0  0  0
 13 37  1  0  0  0  0
 14 15  1  0  0  0  0
 15 16  2  0  0  0  0
 15 38  1  0  0  0  0
 16 17  1  0  0  0  0
 16 21  1  0  0  0  0
 17 18  2  0  0  0  0
 17 39  1  0  0  0  0
 18 19  1  0  0  0  0
 18 40  1  0  0  0  0
 19 20  2  0  0  0  0
 19 41  1  0  0  0  0
 20 21  1  0  0  0  0
 20 42  1  0  0  0  0
 22 23  1  0  0  0  0
 22 43  1  0  0  0  0
 22 44  1  0  0  0  0
 23 24  1  0  0  0  0
 23 31  1  0  0  0  0
 24 25  2  0  0  0  0
 24 26  1  0  0  0  0
 26 27  2  0  0  0  0
 26 30  1  0  0  0  0
 27 28  1  0  0  0  0
 27 45  1  0  0  0  0
 28 29  2  0  0  0  0
 29 30  1  0  0  0  0
 29 46  1  0  0  0  0
 31 47  1  0  0  0  0
 31 48  1  0  0  0  0
M  END
$$$$
