
 OpenBabel07202414113D

 46 47  0  0  0  0  0  0  0  0999 V2000
    1.4958    0.3747   -3.4373 C   0  0  0  0  0  0  0  0  0  0  0  0
    2.6939    0.4667   -2.8415 C   0  0  0  0  0  0  0  0  0  0  0  0
    3.4105   -0.7791   -2.4736 C   0  0  0  0  0  0  0  0  0  0  0  0
    2.9120   -1.8884   -2.6432 O   0  0  0  0  0  0  0  0  0  0  0  0
    4.6524   -0.5996   -1.9280 N   0  0  0  0  0  0  0  0  0  0  0  0
    5.3768   -1.7418   -1.3992 C   0  0  0  0  0  0  0  0  0  0  0  0
    6.9020   -1.5492   -1.4849 C   0  0  0  0  0  0  0  0  0  0  0  0
    7.4059   -0.5718   -0.9266 O   0  0  0  0  0  0  0  0  0  0  0  0
    7.6639   -2.4733   -2.1977 N   0  0  0  0  0  0  0  0  0  0  0  0
    7.1147   -3.5902   -3.0140 C   0  0  0  0  0  0  0  0  0  0  0  0
    6.3065   -3.1478   -4.2608 C   0  0  0  0  0  0  0  0  0  0  0  0
    5.9120   -4.2206   -5.1976 N   0  0  0  0  0  0  0  0  0  0  0  0
    5.1137   -3.6580   -6.3221 C   0  0  0  0  0  0  0  0  0  0  0  0
    3.6605   -3.3250   -5.9444 C   0  0  0  0  0  0  0  0  0  0  0  0
    2.9832   -4.5015   -5.4896 O   0  0  0  0  0  0  0  0  0  0  0  0
    3.6419   -5.0386   -4.3366 C   0  0  0  0  0  0  0  0  0  0  0  0
    5.1295   -5.3331   -4.6129 C   0  0  0  0  0  0  0  0  0  0  0  0
    9.1214   -2.4229   -2.0175 C   0  0  0  0  0  0  0  0  0  0  0  0
    9.5670   -3.2642   -0.8400 C   0  0  0  0  0  0  0  0  0  0  0  0
   10.2302   -2.8948    0.3141 C   0  0  0  0  0  0  0  0  0  0  0  0
   10.4518   -3.9659    1.2232 C   0  0  0  0  0  0  0  0  0  0  0  0
    9.9965   -5.1588    0.7122 C   0  0  0  0  0  0  0  0  0  0  0  0
    9.3386   -4.9746   -0.8503 S   0  0  0  0  0  0  0  0  0  0  0  0
   10.8484   -1.1581    0.7462 Br  0  0  0  0  0  0  0  0  0  0  0  0
    0.9339    1.2629   -3.7133 H   0  0  0  0  0  0  0  0  0  0  0  0
    1.0381   -0.5873   -3.6584 H   0  0  0  0  0  0  0  0  0  0  0  0
    3.1433    1.4228   -2.6202 H   0  0  0  0  0  0  0  0  0  0  0  0
    4.9955    0.3281   -1.6936 H   0  0  0  0  0  0  0  0  0  0  0  0
    5.0442   -2.6624   -1.8709 H   0  0  0  0  0  0  0  0  0  0  0  0
    5.1187   -1.8268   -0.3411 H   0  0  0  0  0  0  0  0  0  0  0  0
    6.5056   -4.2080   -2.3472 H   0  0  0  0  0  0  0  0  0  0  0  0
    7.9539   -4.2037   -3.3631 H   0  0  0  0  0  0  0  0  0  0  0  0
    6.9430   -2.4457   -4.8163 H   0  0  0  0  0  0  0  0  0  0  0  0
    5.4330   -2.5737   -3.9504 H   0  0  0  0  0  0  0  0  0  0  0  0
    5.0957   -4.4121   -7.1197 H   0  0  0  0  0  0  0  0  0  0  0  0
    5.6110   -2.7760   -6.7423 H   0  0  0  0  0  0  0  0  0  0  0  0
    3.1227   -2.9496   -6.8198 H   0  0  0  0  0  0  0  0  0  0  0  0
    3.5996   -2.5488   -5.1736 H   0  0  0  0  0  0  0  0  0  0  0  0
    3.1277   -5.9719   -4.0822 H   0  0  0  0  0  0  0  0  0  0  0  0
    3.5195   -4.3539   -3.4914 H   0  0  0  0  0  0  0  0  0  0  0  0
    5.1658   -6.1531   -5.3449 H   0  0  0  0  0  0  0  0  0  0  0  0
    5.6081   -5.7340   -3.7136 H   0  0  0  0  0  0  0  0  0  0  0  0
    9.4280   -1.3810   -1.8665 H   0  0  0  0  0  0  0  0  0  0  0  0
    9.6180   -2.7526   -2.9391 H   0  0  0  0  0  0  0  0  0  0  0  0
   10.9246   -3.8789    2.1937 H   0  0  0  0  0  0  0  0  0  0  0  0
   10.0357   -6.1359    1.1768 H   0  0  0  0  0  0  0  0  0  0  0  0
  1  2  2  0  0  0  0
  1 25  1  0  0  0  0
  1 26  1  0  0  0  0
  2  3  1  0  0  0  0
  2 27  1  0  0  0  0
  3  4  2  0  0  0  0
  3  5  1  0  0  0  0
  5  6  1  0  0  0  0
  5 28  1  0  0  0  0
  6  7  1  0  0  0  0
  6 29  1  0  0  0  0
  6 30  1  0  0  0  0
  7  8  2  0  0  0  0
  7  9  1  0  0  0  0
  9 10  1  0  0  0  0
  9 18  1  0  0  0  0
 10 11  1  0  0  0  0
 10 31  1  0  0  0  0
 10 32  1  0  0  0  0
 11 12  1  0  0  0  0
 11 33  1  0  0  0  0
 11 34  1  0  0  0  0
 12 13  1  0  0  0  0
 12 17  1  0  0  0  0
 13 14  1  0  0  0  0
 13 35  1  0  0  0  0
 13 36  1  0  0  0  0
 14 15  1  0  0  0  0
 14 37  1  0  0  0  0
 14 38  1  0  0  0  0
 15 16  1  0  0  0  0
 16 17  1  0  0  0  0
 16 39  1  0  0  0  0
 16 40  1  0  0  0  0
 17 41  1  0  0  0  0
 17 42  1  0  0  0  0
 18 19  1  0  0  0  0
 18 43  1  0  0  0  0
 18 44  1  0  0  0  0
 19 20  2  0  0  0  0
 19 23  1  0  0  0  0
 20 21  1  0  0  0  0
 20 24  1  0  0  0  0
 21 22  2  0  0  0  0
 21 45  1  0  0  0  0
 22 23  1  0  0  0  0
 22 46  1  0  0  0  0
M  END
$$$$
