
 OpenBabel07202414153D

 34 35  0  0  0  0  0  0  0  0999 V2000
    5.2074    2.4084   -0.8185 C   0  0  0  0  0  0  0  0  0  0  0  0
    4.6132    1.2690   -0.0280 C   0  0  0  0  0  0  0  0  0  0  0  0
    5.4223    0.1667    0.3433 C   0  0  0  0  0  0  0  0  0  0  0  0
    6.7423   -0.0064   -0.1135 N   0  0  0  0  0  0  0  0  0  0  0  0
    4.7988   -0.8995    1.0016 C   0  0  0  0  0  0  0  0  0  0  0  0
    3.5039   -0.9396    1.3605 N   0  0  0  0  0  0  0  0  0  0  0  0
    2.7639    0.1384    1.0224 C   0  0  0  0  0  0  0  0  0  0  0  0
    3.2431    1.2658    0.3458 C   0  0  0  0  0  0  0  0  0  0  0  0
    2.3847    2.3570    0.0237 N   0  0  0  0  0  0  0  0  0  0  0  0
    1.1423    2.5959    0.6018 C   0  0  0  0  0  0  0  0  0  0  0  0
    0.6468    1.9518    1.5235 O   0  0  0  0  0  0  0  0  0  0  0  0
    0.3941    3.7850    0.0248 C   0  0  0  0  0  0  0  0  0  0  0  0
    0.7092    5.0914    0.7148 C   0  0  0  0  0  0  0  0  0  0  0  0
    0.5342    5.2451    2.0999 C   0  0  0  0  0  0  0  0  0  0  0  0
    0.8148    6.4628    2.7240 C   0  0  0  0  0  0  0  0  0  0  0  0
    1.2597    7.5478    1.9700 C   0  0  0  0  0  0  0  0  0  0  0  0
    1.4149    7.4148    0.5900 C   0  0  0  0  0  0  0  0  0  0  0  0
    1.8545    8.5317   -0.1944 C   0  0  0  0  0  0  0  0  0  0  0  0
    2.2160    9.4278   -0.8416 N   0  0  0  0  0  0  0  0  0  0  0  0
    1.1384    6.1938   -0.0354 C   0  0  0  0  0  0  0  0  0  0  0  0
    6.2879    2.4983   -0.6750 H   0  0  0  0  0  0  0  0  0  0  0  0
    4.8051    3.3727   -0.4952 H   0  0  0  0  0  0  0  0  0  0  0  0
    5.0134    2.2706   -1.8866 H   0  0  0  0  0  0  0  0  0  0  0  0
    7.2654    0.8420   -0.2889 H   0  0  0  0  0  0  0  0  0  0  0  0
    7.2818   -0.6596    0.4500 H   0  0  0  0  0  0  0  0  0  0  0  0
    5.3576   -1.7932    1.2656 H   0  0  0  0  0  0  0  0  0  0  0  0
    1.7204    0.0267    1.2973 H   0  0  0  0  0  0  0  0  0  0  0  0
    2.7535    3.0769   -0.5826 H   0  0  0  0  0  0  0  0  0  0  0  0
   -0.6836    3.5872    0.1188 H   0  0  0  0  0  0  0  0  0  0  0  0
    0.5948    3.8481   -1.0499 H   0  0  0  0  0  0  0  0  0  0  0  0
    0.1735    4.4142    2.7077 H   0  0  0  0  0  0  0  0  0  0  0  0
    0.6818    6.5659    3.7989 H   0  0  0  0  0  0  0  0  0  0  0  0
    1.4751    8.4934    2.4654 H   0  0  0  0  0  0  0  0  0  0  0  0
    1.2483    6.1077   -1.1158 H   0  0  0  0  0  0  0  0  0  0  0  0
  1  2  1  0  0  0  0
  1 21  1  0  0  0  0
  1 22  1  0  0  0  0
  1 23  1  0  0  0  0
  2  3  1  0  0  0  0
  2  8  2  0  0  0  0
  3  4  1  0  0  0  0
  3  5  2  0  0  0  0
  4 24  1  0  0  0  0
  4 25  1  0  0  0  0
  5  6  1  0  0  0  0
  5 26  1  0  0  0  0
  6  7  2  0  0  0  0
  7  8  1  0  0  0  0
  7 27  1  0  0  0  0
  8  9  1  0  0  0  0
  9 10  1  0  0  0  0
  9 28  1  0  0  0  0
 10 11  2  0  0  0  0
 10 12  1  0  0  0  0
 12 13  1  0  0  0  0
 12 29  1  0  0  0  0
 12 30  1  0  0  0  0
 13 14  1  0  0  0  0
 13 20  2  0  0  0  0
 14 15  2  0  0  0  0
 14 31  1  0  0  0  0
 15 16  1  0  0  0  0
 15 32  1  0  0  0  0
 16 17  2  0  0  0  0
 16 33  1  0  0  0  0
 17 18  1  0  0  0  0
 17 20  1  0  0  0  0
 18 19  3  0  0  0  0
 20 34  1  0  0  0  0
M  END
$$$$
