
 OpenBabel07202414133D

 28 29  0  0  0  0  0  0  0  0999 V2000
    1.0750    0.4492   -0.0368 C   0  0  0  0  0  0  0  0  0  0  0  0
    2.5320    0.0161   -0.0327 C   0  0  0  0  0  0  0  0  0  0  0  0
    3.0247   -0.3008   -1.4239 C   0  0  0  0  0  0  0  0  0  0  0  0
    2.9220   -1.6151   -1.9411 C   0  0  0  0  0  0  0  0  0  0  0  0
    3.3790   -1.9377   -3.2286 C   0  0  0  0  0  0  0  0  0  0  0  0
    3.9420   -0.9272   -3.9830 C   0  0  0  0  0  0  0  0  0  0  0  0
    4.0183    0.3691   -3.4744 C   0  0  0  0  0  0  0  0  0  0  0  0
    3.5709    0.7168   -2.2160 C   0  0  0  0  0  0  0  0  0  0  0  0
    4.6576    1.2060   -4.4890 C   0  0  0  0  0  0  0  0  0  0  0  0
    4.8783    2.3920   -4.4244 O   0  0  0  0  0  0  0  0  0  0  0  0
    5.0014    0.2443   -5.6539 C   0  0  0  0  0  0  0  0  0  0  0  0
    5.5889    0.5458   -6.6695 O   0  0  0  0  0  0  0  0  0  0  0  0
    4.5260   -0.9972   -5.2600 N   0  0  0  0  0  0  0  0  0  0  0  0
    4.5458   -2.1692   -6.1188 C   0  0  0  0  0  0  0  0  0  0  0  0
    5.6608   -3.1679   -5.8385 C   0  0  0  0  0  0  0  0  0  0  0  0
    5.7860   -4.2163   -6.4572 O   0  0  0  0  0  0  0  0  0  0  0  0
    6.5034   -2.8295   -4.8362 O   0  0  0  0  0  0  0  0  0  0  0  0
    0.7530    0.7039    0.9778 H   0  0  0  0  0  0  0  0  0  0  0  0
    0.4262   -0.3503   -0.4096 H   0  0  0  0  0  0  0  0  0  0  0  0
    0.9234    1.3288   -0.6717 H   0  0  0  0  0  0  0  0  0  0  0  0
    2.6618   -0.8586    0.6159 H   0  0  0  0  0  0  0  0  0  0  0  0
    3.1525    0.8097    0.4022 H   0  0  0  0  0  0  0  0  0  0  0  0
    2.4862   -2.4022   -1.3249 H   0  0  0  0  0  0  0  0  0  0  0  0
    3.2955   -2.9582   -3.5885 H   0  0  0  0  0  0  0  0  0  0  0  0
    3.6563    1.7394   -1.8600 H   0  0  0  0  0  0  0  0  0  0  0  0
    4.6737   -1.8327   -7.1541 H   0  0  0  0  0  0  0  0  0  0  0  0
    3.5839   -2.6841   -6.0340 H   0  0  0  0  0  0  0  0  0  0  0  0
    6.3042   -1.9541   -4.4568 H   0  0  0  0  0  0  0  0  0  0  0  0
  1  2  1  0  0  0  0
  1 18  1  0  0  0  0
  1 19  1  0  0  0  0
  1 20  1  0  0  0  0
  2  3  1  0  0  0  0
  2 21  1  0  0  0  0
  2 22  1  0  0  0  0
  3  4  1  0  0  0  0
  3  8  2  0  0  0  0
  4  5  2  0  0  0  0
  4 23  1  0  0  0  0
  5  6  1  0  0  0  0
  5 24  1  0  0  0  0
  6  7  2  0  0  0  0
  6 13  1  0  0  0  0
  7  8  1  0  0  0  0
  7  9  1  0  0  0  0
  8 25  1  0  0  0  0
  9 10  2  0  0  0  0
  9 11  1  0  0  0  0
 11 12  2  0  0  0  0
 11 13  1  0  0  0  0
 13 14  1  0  0  0  0
 14 15  1  0  0  0  0
 14 26  1  0  0  0  0
 14 27  1  0  0  0  0
 15 16  2  0  0  0  0
 15 17  1  0  0  0  0
 17 28  1  0  0  0  0
M  END
$$$$
