
 OpenBabel07202414193D

 45 48  0  0  1  0  0  0  0  0999 V2000
    1.1656    0.3837   -0.7355 O   0  0  0  0  0  0  0  0  0  0  0  0
    2.2276    0.0722   -0.1935 C   0  0  0  0  0  0  0  0  0  0  0  0
    2.8364    0.9661    0.8764 C   0  0  0  0  0  0  0  0  0  0  0  0
    2.5119    0.5982    2.3078 C   0  0  0  0  0  0  0  0  0  0  0  0
    1.2592    0.0647    2.6213 C   0  0  0  0  0  0  0  0  0  0  0  0
    0.8514   -0.2545    3.8676 N   0  0  0  0  0  0  0  0  0  0  0  0
    1.7195   -0.0044    4.8693 C   0  0  0  0  0  0  0  0  0  0  0  0
    2.9894    0.5451    4.7005 C   0  0  0  0  0  0  0  0  0  0  0  0
    3.8299    0.7867    5.8015 C   0  0  0  0  0  0  0  0  0  0  0  0
    5.0928    1.3419    5.6243 C   0  0  0  0  0  0  0  0  0  0  0  0
    5.5244    1.6671    4.3446 C   0  0  0  0  0  0  0  0  0  0  0  0
    4.6924    1.4374    3.2450 C   0  0  0  0  0  0  0  0  0  0  0  0
    3.4050    0.8633    3.3859 C   0  0  0  0  0  0  0  0  0  0  0  0
    2.9144   -1.0727   -0.5371 N   0  0  0  0  0  0  0  0  0  0  0  0
    2.4491   -1.9418   -1.6030 C   0  0  0  0  0  0  0  0  0  0  0  0
    3.0009   -3.3125   -1.2458 C   0  0  0  0  0  0  0  0  0  0  0  0
    4.3192   -3.0096   -0.5197 C   0  0  1  0  0  0  0  0  0  0  0  0
    5.5088   -3.0379   -1.4629 C   0  0  0  0  0  0  0  0  0  0  0  0
    5.9663   -1.9104   -2.1609 C   0  0  0  0  0  0  0  0  0  0  0  0
    7.0790   -1.9930   -3.0047 C   0  0  0  0  0  0  0  0  0  0  0  0
    7.7306   -3.2100   -3.1673 C   0  0  0  0  0  0  0  0  0  0  0  0
    8.8193   -3.3329   -3.9782 O   0  0  0  0  0  0  0  0  0  0  0  0
    7.2853   -4.3447   -2.5054 C   0  0  0  0  0  0  0  0  0  0  0  0
    6.1783   -4.2600   -1.6595 C   0  0  0  0  0  0  0  0  0  0  0  0
    4.0301   -1.6730    0.1871 C   0  0  0  0  0  0  0  0  0  0  0  0
    2.4752    1.9871    0.6972 H   0  0  0  0  0  0  0  0  0  0  0  0
    3.9134    0.9925    0.6928 H   0  0  0  0  0  0  0  0  0  0  0  0
    0.5095   -0.1243    1.8550 H   0  0  0  0  0  0  0  0  0  0  0  0
    1.3456   -0.2629    5.8575 H   0  0  0  0  0  0  0  0  0  0  0  0
    3.4993    0.5470    6.8105 H   0  0  0  0  0  0  0  0  0  0  0  0
    5.7364    1.5254    6.4809 H   0  0  0  0  0  0  0  0  0  0  0  0
    6.5088    2.1053    4.1978 H   0  0  0  0  0  0  0  0  0  0  0  0
    5.0759    1.7246    2.2699 H   0  0  0  0  0  0  0  0  0  0  0  0
    2.8771   -1.5722   -2.5419 H   0  0  0  0  0  0  0  0  0  0  0  0
    1.3588   -1.9355   -1.6907 H   0  0  0  0  0  0  0  0  0  0  0  0
    3.1006   -3.9614   -2.1215 H   0  0  0  0  0  0  0  0  0  0  0  0
    2.3104   -3.7985   -0.5447 H   0  0  0  0  0  0  0  0  0  0  0  0
    4.5036   -3.7669    0.2535 H   0  0  0  0  0  0  0  0  0  0  0  0
    5.4655   -0.9503   -2.0627 H   0  0  0  0  0  0  0  0  0  0  0  0
    7.4182   -1.1015   -3.5228 H   0  0  0  0  0  0  0  0  0  0  0  0
    9.0079   -2.4679   -4.3771 H   0  0  0  0  0  0  0  0  0  0  0  0
    7.7974   -5.2925   -2.6451 H   0  0  0  0  0  0  0  0  0  0  0  0
    5.8422   -5.1609   -1.1494 H   0  0  0  0  0  0  0  0  0  0  0  0
    4.8819   -0.9880    0.2211 H   0  0  0  0  0  0  0  0  0  0  0  0
    3.6935   -1.8512    1.2139 H   0  0  0  0  0  0  0  0  0  0  0  0
  1  2  2  0  0  0  0
  2  3  1  0  0  0  0
  2 14  1  0  0  0  0
  3  4  1  0  0  0  0
  3 26  1  0  0  0  0
  3 27  1  0  0  0  0
  4  5  1  0  0  0  0
  4 13  2  0  0  0  0
  5  6  2  0  0  0  0
  5 28  1  0  0  0  0
  6  7  1  0  0  0  0
  7  8  2  0  0  0  0
  7 29  1  0  0  0  0
  8  9  1  0  0  0  0
  8 13  1  0  0  0  0
  9 10  2  0  0  0  0
  9 30  1  0  0  0  0
 10 11  1  0  0  0  0
 10 31  1  0  0  0  0
 11 12  2  0  0  0  0
 11 32  1  0  0  0  0
 12 13  1  0  0  0  0
 12 33  1  0  0  0  0
 14 15  1  0  0  0  0
 14 25  1  0  0  0  0
 15 16  1  0  0  0  0
 15 34  1  0  0  0  0
 15 35  1  0  0  0  0
 16 17  1  0  0  0  0
 16 36  1  0  0  0  0
 16 37  1  0  0  0  0
 17 18  1  0  0  0  0
 17 25  1  0  0  0  0
 17 38  1  1  0  0  0
 18 19  1  0  0  0  0
 18 24  2  0  0  0  0
 19 20  2  0  0  0  0
 19 39  1  0  0  0  0
 20 21  1  0  0  0  0
 20 40  1  0  0  0  0
 21 22  1  0  0  0  0
 21 23  2  0  0  0  0
 22 41  1  0  0  0  0
 23 24  1  0  0  0  0
 23 42  1  0  0  0  0
 24 43  1  0  0  0  0
 25 44  1  0  0  0  0
 25 45  1  0  0  0  0
M  END
$$$$
