
 OpenBabel07202414133D

 49 52  0  0  0  0  0  0  0  0999 V2000
    2.3793    5.5873   -0.5127 C   0  0  0  0  0  0  0  0  0  0  0  0
    3.4540    4.6712   -1.0333 C   0  0  0  0  0  0  0  0  0  0  0  0
    4.4921    5.2500   -1.7884 C   0  0  0  0  0  0  0  0  0  0  0  0
    5.5499    4.4776   -2.2524 C   0  0  0  0  0  0  0  0  0  0  0  0
    6.5426    5.0623   -2.9349 F   0  0  0  0  0  0  0  0  0  0  0  0
    5.5989    3.1169   -2.0096 C   0  0  0  0  0  0  0  0  0  0  0  0
    4.5695    2.5261   -1.2778 C   0  0  0  0  0  0  0  0  0  0  0  0
    4.6783    0.6470   -0.9784 Br  0  0  0  0  0  0  0  0  0  0  0  0
    3.4860    3.2837   -0.7656 C   0  0  0  0  0  0  0  0  0  0  0  0
    2.5040    2.6337    0.0181 N   0  0  0  0  0  0  0  0  0  0  0  0
    1.0964    2.6001   -0.0624 C   0  0  0  0  0  0  0  0  0  0  0  0
    0.3996    2.1294    1.0597 C   0  0  0  0  0  0  0  0  0  0  0  0
   -0.9906    2.1109    1.0764 C   0  0  0  0  0  0  0  0  0  0  0  0
   -1.8212    1.5395    2.4699 Cl  0  0  0  0  0  0  0  0  0  0  0  0
   -1.7126    2.5741   -0.0215 C   0  0  0  0  0  0  0  0  0  0  0  0
   -1.0446    3.0555   -1.1577 C   0  0  0  0  0  0  0  0  0  0  0  0
   -1.8385    3.6920   -2.2787 C   0  0  0  0  0  0  0  0  0  0  0  0
   -1.5270    3.2896   -3.7000 C   0  0  0  0  0  0  0  0  0  0  0  0
   -1.5776    4.1628   -4.5955 O   0  0  0  0  0  0  0  0  0  0  0  0
   -1.4060    1.9547   -3.9402 N   0  0  0  0  0  0  0  0  0  0  0  0
   -1.1806    1.3038   -5.1882 C   0  0  0  0  0  0  0  0  0  0  0  0
   -1.8533    0.0600   -5.3318 C   0  0  0  0  0  0  0  0  0  0  0  0
   -1.6374   -0.8166   -6.3295 N   0  0  0  0  0  0  0  0  0  0  0  0
   -0.6546   -0.5142   -7.1832 C   0  0  0  0  0  0  0  0  0  0  0  0
    0.0705    0.6905   -7.1547 C   0  0  0  0  0  0  0  0  0  0  0  0
    1.1296    0.8841   -8.0195 C   0  0  0  0  0  0  0  0  0  0  0  0
    1.4504    2.1631   -8.4568 C   0  0  0  0  0  0  0  0  0  0  0  0
    1.0469    3.2097   -7.6689 C   0  0  0  0  0  0  0  0  0  0  0  0
    0.3003    2.9510   -6.4849 C   0  0  0  0  0  0  0  0  0  0  0  0
   -0.3030    1.6930   -6.2401 C   0  0  0  0  0  0  0  0  0  0  0  0
    0.3635    3.0641   -1.1626 C   0  0  0  0  0  0  0  0  0  0  0  0
    2.7335    6.6234   -0.4718 H   0  0  0  0  0  0  0  0  0  0  0  0
    2.0854    5.3190    0.5062 H   0  0  0  0  0  0  0  0  0  0  0  0
    1.5075    5.5688   -1.1716 H   0  0  0  0  0  0  0  0  0  0  0  0
    4.5004    6.3167   -1.9983 H   0  0  0  0  0  0  0  0  0  0  0  0
    6.4364    2.5392   -2.3865 H   0  0  0  0  0  0  0  0  0  0  0  0
    2.8638    1.7613    0.4068 H   0  0  0  0  0  0  0  0  0  0  0  0
    0.9494    1.8034    1.9402 H   0  0  0  0  0  0  0  0  0  0  0  0
   -2.8005    2.5883    0.0295 H   0  0  0  0  0  0  0  0  0  0  0  0
   -1.7099    4.7726   -2.1898 H   0  0  0  0  0  0  0  0  0  0  0  0
   -2.9185    3.4872   -2.1300 H   0  0  0  0  0  0  0  0  0  0  0  0
   -1.7346    1.3485   -3.1846 H   0  0  0  0  0  0  0  0  0  0  0  0
   -2.6233   -0.2337   -4.6366 H   0  0  0  0  0  0  0  0  0  0  0  0
   -0.4856   -1.2346   -7.9713 H   0  0  0  0  0  0  0  0  0  0  0  0
    1.8426    0.0757   -8.2162 H   0  0  0  0  0  0  0  0  0  0  0  0
    2.0640    2.3121   -9.3439 H   0  0  0  0  0  0  0  0  0  0  0  0
    1.3469    4.2193   -7.9125 H   0  0  0  0  0  0  0  0  0  0  0  0
    0.1472    3.8058   -5.8417 H   0  0  0  0  0  0  0  0  0  0  0  0
    0.8918    3.4502   -2.0323 H   0  0  0  0  0  0  0  0  0  0  0  0
  1  2  1  0  0  0  0
  1 32  1  0  0  0  0
  1 33  1  0  0  0  0
  1 34  1  0  0  0  0
  2  3  2  0  0  0  0
  2  9  1  0  0  0  0
  3  4  1  0  0  0  0
  3 35  1  0  0  0  0
  4  5  1  0  0  0  0
  4  6  2  0  0  0  0
  6  7  1  0  0  0  0
  6 36  1  0  0  0  0
  7  8  1  0  0  0  0
  7  9  2  0  0  0  0
  9 10  1  0  0  0  0
 10 11  1  0  0  0  0
 10 37  1  0  0  0  0
 11 12  2  0  0  0  0
 11 31  1  0  0  0  0
 12 13  1  0  0  0  0
 12 38  1  0  0  0  0
 13 14  1  0  0  0  0
 13 15  2  0  0  0  0
 15 16  1  0  0  0  0
 15 39  1  0  0  0  0
 16 17  1  0  0  0  0
 16 31  2  0  0  0  0
 17 18  1  0  0  0  0
 17 40  1  0  0  0  0
 17 41  1  0  0  0  0
 18 19  2  0  0  0  0
 18 20  1  0  0  0  0
 20 21  1  0  0  0  0
 20 42  1  0  0  0  0
 21 22  2  0  0  0  0
 21 30  1  0  0  0  0
 22 23  1  0  0  0  0
 22 43  1  0  0  0  0
 23 24  2  0  0  0  0
 24 25  1  0  0  0  0
 24 44  1  0  0  0  0
 25 26  2  0  0  0  0
 25 30  1  0  0  0  0
 26 27  1  0  0  0  0
 26 45  1  0  0  0  0
 27 28  2  0  0  0  0
 27 46  1  0  0  0  0
 28 29  1  0  0  0  0
 28 47  1  0  0  0  0
 29 30  2  0  0  0  0
 29 48  1  0  0  0  0
 31 49  1  0  0  0  0
M  END
$$$$
