
 OpenBabel07202414123D

 69 72  0  0  1  0  0  0  0  0999 V2000
    2.3456    1.4904    0.2082 C   0  0  0  0  0  0  0  0  0  0  0  0
    2.6215   -0.0295    0.1757 C   0  0  0  0  0  0  0  0  0  0  0  0
    3.5862   -0.3411    1.3419 C   0  0  0  0  0  0  0  0  0  0  0  0
    1.2763   -0.7423    0.4476 C   0  0  0  0  0  0  0  0  0  0  0  0
    3.2073   -0.5204   -1.1614 C   0  0  0  0  0  0  0  0  0  0  0  0
    3.3765    0.3001   -2.2839 C   0  0  0  0  0  0  0  0  0  0  0  0
    3.8227   -0.2073   -3.5288 C   0  0  0  0  0  0  0  0  0  0  0  0
    4.1406   -1.5577   -3.7123 C   0  0  0  0  0  0  0  0  0  0  0  0
    4.0702   -2.3477   -2.5471 C   0  0  0  0  0  0  0  0  0  0  0  0
    3.5863   -1.8571   -1.3205 C   0  0  0  0  0  0  0  0  0  0  0  0
    4.4514   -2.1572   -5.0321 N   0  0  0  0  0  0  0  0  0  0  0  0
    4.0987   -3.6068   -5.1385 C   0  0  3  0  0  0  0  0  0  0  0  0
    2.9506   -3.9295   -6.1097 C   0  0  0  0  0  0  0  0  0  0  0  0
    2.1701   -2.9405   -6.7347 C   0  0  0  0  0  0  0  0  0  0  0  0
    1.1212   -3.2908   -7.5819 C   0  0  0  0  0  0  0  0  0  0  0  0
    0.8371   -4.6308   -7.7460 C   0  0  0  0  0  0  0  0  0  0  0  0
    1.5280   -5.6157   -7.1374 N   0  0  0  0  0  0  0  0  0  0  0  0
    2.5544   -5.2479   -6.3330 C   0  0  0  0  0  0  0  0  0  0  0  0
    5.3503   -4.5662   -5.1009 C   0  0  0  0  0  0  0  0  0  0  0  0
    5.2225   -5.7616   -4.8375 O   0  0  0  0  0  0  0  0  0  0  0  0
    6.5940   -4.0574   -5.4510 N   0  0  0  0  0  0  0  0  0  0  0  0
    7.7791   -4.9106   -5.5523 C   0  0  0  0  0  0  0  0  0  0  0  0
    8.9946   -4.1801   -6.1422 C   0  0  0  0  0  0  0  0  0  0  0  0
   10.2407   -5.0403   -6.1775 C   0  0  0  0  0  0  0  0  0  0  0  0
   11.1057   -5.0817   -5.0741 C   0  0  0  0  0  0  0  0  0  0  0  0
   12.2520   -5.8864   -5.0921 C   0  0  0  0  0  0  0  0  0  0  0  0
   12.5455   -6.6671   -6.2068 C   0  0  0  0  0  0  0  0  0  0  0  0
   11.6905   -6.6213   -7.3013 C   0  0  0  0  0  0  0  0  0  0  0  0
   10.5477   -5.8217   -7.2991 C   0  0  0  0  0  0  0  0  0  0  0  0
   11.9734   -7.3631   -8.3908 F   0  0  0  0  0  0  0  0  0  0  0  0
    4.8923   -1.3540   -6.1282 C   0  0  0  0  0  0  0  0  0  0  0  0
    5.0979   -0.1419   -5.9999 O   0  0  0  0  0  0  0  0  0  0  0  0
    5.2292   -1.8668   -7.5239 C   0  0  0  0  0  0  0  0  0  0  0  0
    5.2887   -3.1814   -7.9934 C   0  0  0  0  0  0  0  0  0  0  0  0
    5.7554   -3.4982   -9.2685 C   0  0  0  0  0  0  0  0  0  0  0  0
    6.1431   -2.4677  -10.0921 C   0  0  0  0  0  0  0  0  0  0  0  0
    6.0670   -1.1760   -9.7262 N   0  0  0  0  0  0  0  0  0  0  0  0
    5.6118   -0.9082   -8.4687 C   0  0  0  0  0  0  0  0  0  0  0  0
    1.9410    1.7993    1.1800 H   0  0  0  0  0  0  0  0  0  0  0  0
    1.6115    1.7836   -0.5513 H   0  0  0  0  0  0  0  0  0  0  0  0
    3.2614    2.0678    0.0388 H   0  0  0  0  0  0  0  0  0  0  0  0
    3.1655   -0.0101    2.2998 H   0  0  0  0  0  0  0  0  0  0  0  0
    4.5470    0.1680    1.2071 H   0  0  0  0  0  0  0  0  0  0  0  0
    3.7897   -1.4126    1.4419 H   0  0  0  0  0  0  0  0  0  0  0  0
    0.8576   -0.4393    1.4158 H   0  0  0  0  0  0  0  0  0  0  0  0
    1.3809   -1.8327    0.4712 H   0  0  0  0  0  0  0  0  0  0  0  0
    0.5349   -0.4992   -0.3224 H   0  0  0  0  0  0  0  0  0  0  0  0
    3.1407    1.3611   -2.2417 H   0  0  0  0  0  0  0  0  0  0  0  0
    3.8517    0.5095   -4.3429 H   0  0  0  0  0  0  0  0  0  0  0  0
    4.3868   -3.3873   -2.5298 H   0  0  0  0  0  0  0  0  0  0  0  0
    3.5002   -2.5585   -0.4924 H   0  0  0  0  0  0  0  0  0  0  0  0
    3.5815   -3.8915   -4.2172 H   0  0  0  0  0  0  0  0  0  0  0  0
    2.3524   -1.8801   -6.5792 H   0  0  0  0  0  0  0  0  0  0  0  0
    0.5353   -2.5321   -8.0900 H   0  0  0  0  0  0  0  0  0  0  0  0
    0.0159   -4.9569   -8.3778 H   0  0  0  0  0  0  0  0  0  0  0  0
    3.0459   -6.0889   -5.8489 H   0  0  0  0  0  0  0  0  0  0  0  0
    6.6899   -3.0823   -5.6952 H   0  0  0  0  0  0  0  0  0  0  0  0
    7.5212   -5.7764   -6.1733 H   0  0  0  0  0  0  0  0  0  0  0  0
    8.0001   -5.2844   -4.5464 H   0  0  0  0  0  0  0  0  0  0  0  0
    9.2048   -3.2715   -5.5639 H   0  0  0  0  0  0  0  0  0  0  0  0
    8.7673   -3.8314   -7.1576 H   0  0  0  0  0  0  0  0  0  0  0  0
   10.8994   -4.4829   -4.1891 H   0  0  0  0  0  0  0  0  0  0  0  0
   12.9153   -5.9080   -4.2299 H   0  0  0  0  0  0  0  0  0  0  0  0
   13.4275   -7.2918   -6.2391 H   0  0  0  0  0  0  0  0  0  0  0  0
    9.9079   -5.8190   -8.1798 H   0  0  0  0  0  0  0  0  0  0  0  0
    5.0016   -4.0456   -7.4227 H   0  0  0  0  0  0  0  0  0  0  0  0
    5.8249   -4.5330   -9.5890 H   0  0  0  0  0  0  0  0  0  0  0  0
    6.5432   -2.6613  -11.0814 H   0  0  0  0  0  0  0  0  0  0  0  0
    5.5801    0.1572   -8.2465 H   0  0  0  0  0  0  0  0  0  0  0  0
  1  2  1  0  0  0  0
  1 39  1  0  0  0  0
  1 40  1  0  0  0  0
  1 41  1  0  0  0  0
  2  3  1  0  0  0  0
  2  4  1  0  0  0  0
  2  5  1  0  0  0  0
  3 42  1  0  0  0  0
  3 43  1  0  0  0  0
  3 44  1  0  0  0  0
  4 45  1  0  0  0  0
  4 46  1  0  0  0  0
  4 47  1  0  0  0  0
  5  6  1  0  0  0  0
  5 10  2  0  0  0  0
  6  7  2  0  0  0  0
  6 48  1  0  0  0  0
  7  8  1  0  0  0  0
  7 49  1  0  0  0  0
  8  9  2  0  0  0  0
  8 11  1  0  0  0  0
  9 10  1  0  0  0  0
  9 50  1  0  0  0  0
 10 51  1  0  0  0  0
 11 12  1  0  0  0  0
 11 31  1  0  0  0  0
 12 13  1  0  0  0  0
 12 19  1  0  0  0  0
 12 52  1  0  0  0  0
 13 14  1  0  0  0  0
 13 18  2  0  0  0  0
 14 15  2  0  0  0  0
 14 53  1  0  0  0  0
 15 16  1  0  0  0  0
 15 54  1  0  0  0  0
 16 17  2  0  0  0  0
 16 55  1  0  0  0  0
 17 18  1  0  0  0  0
 18 56  1  0  0  0  0
 19 20  2  0  0  0  0
 19 21  1  0  0  0  0
 21 22  1  0  0  0  0
 21 57  1  0  0  0  0
 22 23  1  0  0  0  0
 22 58  1  0  0  0  0
 22 59  1  0  0  0  0
 23 24  1  0  0  0  0
 23 60  1  0  0  0  0
 23 61  1  0  0  0  0
 24 25  1  0  0  0  0
 24 29  2  0  0  0  0
 25 26  2  0  0  0  0
 25 62  1  0  0  0  0
 26 27  1  0  0  0  0
 26 63  1  0  0  0  0
 27 28  2  0  0  0  0
 27 64  1  0  0  0  0
 28 29  1  0  0  0  0
 28 30  1  0  0  0  0
 29 65  1  0  0  0  0
 31 32  2  0  0  0  0
 31 33  1  0  0  0  0
 33 34  1  0  0  0  0
 33 38  2  0  0  0  0
 34 35  2  0  0  0  0
 34 66  1  0  0  0  0
 35 36  1  0  0  0  0
 35 67  1  0  0  0  0
 36 37  2  0  0  0  0
 36 68  1  0  0  0  0
 37 38  1  0  0  0  0
 38 69  1  0  0  0  0
M  END
$$$$
