
 OpenBabel07202414143D

 49 50  0  0  1  0  0  0  0  0999 V2000
    9.3852    2.6005    4.8639 C   0  0  0  0  0  0  0  0  0  0  0  0
    8.2474    3.0456    4.0545 N   0  0  0  0  0  0  0  0  0  0  0  0
    7.4744    1.8434    3.1626 S   0  0  0  0  0  0  0  0  0  0  0  0
    6.3899    2.4896    2.4667 O   0  0  0  0  0  0  0  0  0  0  0  0
    8.5184    1.1358    2.4593 O   0  0  0  0  0  0  0  0  0  0  0  0
    6.8613    0.8665    4.3047 O   0  0  0  0  0  0  0  0  0  0  0  0
    6.0466   -0.2006    3.8610 C   0  0  0  0  0  0  0  0  0  0  0  0
    6.8422   -1.2525    3.0928 C   0  0  0  0  0  0  0  0  0  0  0  0
    6.5569   -1.5872    1.9485 O   0  0  0  0  0  0  0  0  0  0  0  0
    7.8792   -1.7965    3.8192 N   0  0  0  0  0  0  0  0  0  0  0  0
    8.8324   -2.7219    3.2303 C   0  0  1  0  0  0  0  0  0  0  0  0
   10.0117   -1.9793    2.5995 C   0  0  0  0  0  0  0  0  0  0  0  0
    9.2793   -3.7266    4.2723 C   0  0  0  0  0  0  0  0  0  0  0  0
    9.0184   -5.0875    4.0765 C   0  0  0  0  0  0  0  0  0  0  0  0
    9.3951   -6.0156    5.0415 C   0  0  0  0  0  0  0  0  0  0  0  0
    9.0518   -7.6848    4.7963 Cl  0  0  0  0  0  0  0  0  0  0  0  0
   10.0321   -5.6070    6.2138 C   0  0  0  0  0  0  0  0  0  0  0  0
   10.3016   -4.2497    6.4577 C   0  0  0  0  0  0  0  0  0  0  0  0
   10.9167   -3.7959    7.7284 C   0  0  0  0  0  0  0  0  0  0  0  0
   11.7750   -2.6793    7.7729 C   0  0  0  0  0  0  0  0  0  0  0  0
   12.2884   -2.1985    8.9815 C   0  0  0  0  0  0  0  0  0  0  0  0
   11.9548   -2.8413   10.1720 C   0  0  0  0  0  0  0  0  0  0  0  0
   12.5352   -2.1975   11.7108 S   0  0  0  0  0  0  0  0  0  0  0  0
   11.2567   -1.1967   12.1421 N   0  0  0  0  0  0  0  0  0  0  0  0
   12.5646   -3.2562   12.6919 O   0  0  0  0  0  0  0  0  0  0  0  0
   13.6596   -1.3241   11.4704 O   0  0  0  0  0  0  0  0  0  0  0  0
   11.1548   -3.9817   10.1607 C   0  0  0  0  0  0  0  0  0  0  0  0
   10.6343   -4.4436    8.9482 C   0  0  0  0  0  0  0  0  0  0  0  0
    9.9222   -3.3276    5.4607 C   0  0  0  0  0  0  0  0  0  0  0  0
    9.7990    3.4621    5.3949 H   0  0  0  0  0  0  0  0  0  0  0  0
   10.1776    2.1835    4.2364 H   0  0  0  0  0  0  0  0  0  0  0  0
    9.0672    1.8630    5.6057 H   0  0  0  0  0  0  0  0  0  0  0  0
    8.4706    3.8157    3.4223 H   0  0  0  0  0  0  0  0  0  0  0  0
    5.2235    0.1691    3.2404 H   0  0  0  0  0  0  0  0  0  0  0  0
    5.6033   -0.6828    4.7397 H   0  0  0  0  0  0  0  0  0  0  0  0
    8.0809   -1.4066    4.7320 H   0  0  0  0  0  0  0  0  0  0  0  0
    8.3170   -3.2538    2.4205 H   0  0  0  0  0  0  0  0  0  0  0  0
   10.5407   -1.3536    3.3270 H   0  0  0  0  0  0  0  0  0  0  0  0
    9.6706   -1.3226    1.7922 H   0  0  0  0  0  0  0  0  0  0  0  0
   10.7344   -2.6839    2.1733 H   0  0  0  0  0  0  0  0  0  0  0  0
    8.5118   -5.4249    3.1748 H   0  0  0  0  0  0  0  0  0  0  0  0
   10.3156   -6.3637    6.9412 H   0  0  0  0  0  0  0  0  0  0  0  0
   12.0547   -2.1599    6.8584 H   0  0  0  0  0  0  0  0  0  0  0  0
   12.9296   -1.3198    8.9836 H   0  0  0  0  0  0  0  0  0  0  0  0
   10.8242   -1.5329   13.0026 H   0  0  0  0  0  0  0  0  0  0  0  0
   11.5699   -0.2271   12.1830 H   0  0  0  0  0  0  0  0  0  0  0  0
   10.9098   -4.5004   11.0851 H   0  0  0  0  0  0  0  0  0  0  0  0
    9.9745   -5.3091    8.9775 H   0  0  0  0  0  0  0  0  0  0  0  0
   10.1020   -2.2656    5.6198 H   0  0  0  0  0  0  0  0  0  0  0  0
  1  2  1  0  0  0  0
  1 30  1  0  0  0  0
  1 31  1  0  0  0  0
  1 32  1  0  0  0  0
  2  3  1  0  0  0  0
  2 33  1  0  0  0  0
  3  4  2  0  0  0  0
  3  5  2  0  0  0  0
  3  6  1  0  0  0  0
  6  7  1  0  0  0  0
  7  8  1  0  0  0  0
  7 34  1  0  0  0  0
  7 35  1  0  0  0  0
  8  9  2  0  0  0  0
  8 10  1  0  0  0  0
 10 11  1  0  0  0  0
 10 36  1  0  0  0  0
 11 12  1  0  0  0  0
 11 13  1  0  0  0  0
 11 37  1  6  0  0  0
 12 38  1  0  0  0  0
 12 39  1  0  0  0  0
 12 40  1  0  0  0  0
 13 14  1  0  0  0  0
 13 29  2  0  0  0  0
 14 15  2  0  0  0  0
 14 41  1  0  0  0  0
 15 16  1  0  0  0  0
 15 17  1  0  0  0  0
 17 18  2  0  0  0  0
 17 42  1  0  0  0  0
 18 19  1  0  0  0  0
 18 29  1  0  0  0  0
 19 20  1  0  0  0  0
 19 28  2  0  0  0  0
 20 21  2  0  0  0  0
 20 43  1  0  0  0  0
 21 22  1  0  0  0  0
 21 44  1  0  0  0  0
 22 23  1  0  0  0  0
 22 27  2  0  0  0  0
 23 24  1  0  0  0  0
 23 25  2  0  0  0  0
 23 26  2  0  0  0  0
 24 45  1  0  0  0  0
 24 46  1  0  0  0  0
 27 28  1  0  0  0  0
 27 47  1  0  0  0  0
 28 48  1  0  0  0  0
 29 49  1  0  0  0  0
M  END
$$$$
