
 OpenBabel07202414123D

 55 58  0  0  1  0  0  0  0  0999 V2000
    2.3432    1.5721   -3.4715 C   0  0  0  0  0  0  0  0  0  0  0  0
    2.0565    1.3371   -1.9939 C   0  0  0  0  0  0  0  0  0  0  0  0
    0.5641    1.0465   -1.8090 C   0  0  0  0  0  0  0  0  0  0  0  0
    2.9120    0.1922   -1.4284 C   0  0  0  0  0  0  0  0  0  0  0  0
    4.4196    0.4035   -1.5094 N   0  0  0  0  0  0  0  0  0  0  0  0
    5.1000   -0.8048   -0.9316 C   0  0  0  0  0  0  0  0  0  0  0  0
    6.6244   -0.8445   -1.2018 C   0  0  3  0  0  0  0  0  0  0  0  0
    7.1491   -1.9915   -0.2883 C   0  0  0  0  0  0  0  0  0  0  0  0
    6.8814   -1.2474   -2.6909 C   0  0  0  0  0  0  0  0  0  0  0  0
    7.5290   -2.2559   -2.9711 O   0  0  0  0  0  0  0  0  0  0  0  0
    6.3439   -0.3734   -3.6263 N   0  0  0  0  0  0  0  0  0  0  0  0
    6.2909   -0.5343   -5.0422 C   0  0  0  0  0  0  0  0  0  0  0  0
    6.7280   -1.6864   -5.6918 C   0  0  0  0  0  0  0  0  0  0  0  0
    6.4775   -1.9761   -6.9970 N   0  0  0  0  0  0  0  0  0  0  0  0
    5.8261   -1.0351   -7.7094 C   0  0  0  0  0  0  0  0  0  0  0  0
    5.4874    0.2213   -7.2196 C   0  0  0  0  0  0  0  0  0  0  0  0
    4.9540    1.2092   -8.0718 C   0  0  0  0  0  0  0  0  0  0  0  0
    4.6539    2.4794   -7.5874 C   0  0  0  0  0  0  0  0  0  0  0  0
    4.8571    2.7645   -6.2448 C   0  0  0  0  0  0  0  0  0  0  0  0
    5.3827    1.7877   -5.3924 C   0  0  0  0  0  0  0  0  0  0  0  0
    5.7162    0.4880   -5.8512 C   0  0  0  0  0  0  0  0  0  0  0  0
    7.3561    0.4608   -0.8556 C   0  0  0  0  0  0  0  0  0  0  0  0
    8.7616    0.4686   -0.6969 C   0  0  0  0  0  0  0  0  0  0  0  0
    9.4550    1.6374   -0.3602 C   0  0  0  0  0  0  0  0  0  0  0  0
   11.1507    1.5766   -0.0783 Cl  0  0  0  0  0  0  0  0  0  0  0  0
    8.7823    2.8452   -0.2310 C   0  0  0  0  0  0  0  0  0  0  0  0
    7.4024    2.8739   -0.4014 C   0  0  0  0  0  0  0  0  0  0  0  0
    6.6979    1.6900   -0.6799 C   0  0  0  0  0  0  0  0  0  0  0  0
    4.9360    1.8534   -0.7451 S   0  0  0  0  0  0  0  0  0  0  0  0
    4.6569    2.9464   -1.6443 O   0  0  0  0  0  0  0  0  0  0  0  0
    4.4625    1.8219    0.6232 O   0  0  0  0  0  0  0  0  0  0  0  0
    1.7547    2.4117   -3.8550 H   0  0  0  0  0  0  0  0  0  0  0  0
    2.1140    0.6864   -4.0721 H   0  0  0  0  0  0  0  0  0  0  0  0
    3.3921    1.8190   -3.6189 H   0  0  0  0  0  0  0  0  0  0  0  0
    2.2598    2.2619   -1.4446 H   0  0  0  0  0  0  0  0  0  0  0  0
    0.2828    0.0860   -2.2527 H   0  0  0  0  0  0  0  0  0  0  0  0
   -0.0421    1.8271   -2.2829 H   0  0  0  0  0  0  0  0  0  0  0  0
    0.3003    1.0242   -0.7465 H   0  0  0  0  0  0  0  0  0  0  0  0
    2.6774   -0.7276   -1.9810 H   0  0  0  0  0  0  0  0  0  0  0  0
    2.6400    0.0067   -0.3805 H   0  0  0  0  0  0  0  0  0  0  0  0
    4.6368   -1.7048   -1.3584 H   0  0  0  0  0  0  0  0  0  0  0  0
    4.8970   -0.8317    0.1484 H   0  0  0  0  0  0  0  0  0  0  0  0
    6.5731   -2.9126   -0.4420 H   0  0  0  0  0  0  0  0  0  0  0  0
    7.0675   -1.7202    0.7713 H   0  0  0  0  0  0  0  0  0  0  0  0
    8.1952   -2.2510   -0.4827 H   0  0  0  0  0  0  0  0  0  0  0  0
    5.7805    0.3859   -3.2551 H   0  0  0  0  0  0  0  0  0  0  0  0
    7.2951   -2.4637   -5.1948 H   0  0  0  0  0  0  0  0  0  0  0  0
    5.5923   -1.3284   -8.7305 H   0  0  0  0  0  0  0  0  0  0  0  0
    4.7977    1.0041   -9.1292 H   0  0  0  0  0  0  0  0  0  0  0  0
    4.2793    3.2495   -8.2579 H   0  0  0  0  0  0  0  0  0  0  0  0
    4.6219    3.7515   -5.8528 H   0  0  0  0  0  0  0  0  0  0  0  0
    5.5546    2.0813   -4.3606 H   0  0  0  0  0  0  0  0  0  0  0  0
    9.3407   -0.4462   -0.8159 H   0  0  0  0  0  0  0  0  0  0  0  0
    9.3177    3.7583    0.0150 H   0  0  0  0  0  0  0  0  0  0  0  0
    6.8708    3.8193   -0.2938 H   0  0  0  0  0  0  0  0  0  0  0  0
  1  2  1  0  0  0  0
  1 32  1  0  0  0  0
  1 33  1  0  0  0  0
  1 34  1  0  0  0  0
  2  3  1  0  0  0  0
  2  4  1  0  0  0  0
  2 35  1  0  0  0  0
  3 36  1  0  0  0  0
  3 37  1  0  0  0  0
  3 38  1  0  0  0  0
  4  5  1  0  0  0  0
  4 39  1  0  0  0  0
  4 40  1  0  0  0  0
  5  6  1  0  0  0  0
  5 29  1  0  0  0  0
  6  7  1  0  0  0  0
  6 41  1  0  0  0  0
  6 42  1  0  0  0  0
  7  8  1  0  0  0  0
  7  9  1  0  0  0  0
  7 22  1  0  0  0  0
  8 43  1  0  0  0  0
  8 44  1  0  0  0  0
  8 45  1  0  0  0  0
  9 10  2  0  0  0  0
  9 11  1  0  0  0  0
 11 12  1  0  0  0  0
 11 46  1  0  0  0  0
 12 13  1  0  0  0  0
 12 21  2  0  0  0  0
 13 14  2  0  0  0  0
 13 47  1  0  0  0  0
 14 15  1  0  0  0  0
 15 16  2  0  0  0  0
 15 48  1  0  0  0  0
 16 17  1  0  0  0  0
 16 21  1  0  0  0  0
 17 18  2  0  0  0  0
 17 49  1  0  0  0  0
 18 19  1  0  0  0  0
 18 50  1  0  0  0  0
 19 20  2  0  0  0  0
 19 51  1  0  0  0  0
 20 21  1  0  0  0  0
 20 52  1  0  0  0  0
 22 23  1  0  0  0  0
 22 28  2  0  0  0  0
 23 24  2  0  0  0  0
 23 53  1  0  0  0  0
 24 25  1  0  0  0  0
 24 26  1  0  0  0  0
 26 27  2  0  0  0  0
 26 54  1  0  0  0  0
 27 28  1  0  0  0  0
 27 55  1  0  0  0  0
 28 29  1  0  0  0  0
 29 30  2  0  0  0  0
 29 31  2  0  0  0  0
M  END
$$$$
