
 OpenBabel07202414143D

 43 46  0  0  1  0  0  0  0  0999 V2000
    1.1385    0.0501   -0.1270 C   0  0  0  0  0  0  0  0  0  0  0  0
    2.5844    0.0705    0.0073 N   0  0  0  0  0  0  0  0  0  0  0  0
    3.3424   -1.1172   -0.3711 C   0  0  0  0  0  0  0  0  0  0  0  0
    4.4074   -1.3555    0.6901 C   0  0  0  0  0  0  0  0  0  0  0  0
    5.3541   -0.1635    0.6606 C   0  0  1  0  0  0  0  0  0  0  0  0
    4.6577    1.1849    0.6138 C   0  0  0  0  0  0  0  0  0  0  0  0
    3.2916    1.2439    0.2469 C   0  0  0  0  0  0  0  0  0  0  0  0
    2.7014    2.5131    0.1307 C   0  0  0  0  0  0  0  0  0  0  0  0
    3.4368    3.6873    0.3256 C   0  0  0  0  0  0  0  0  0  0  0  0
    4.7847    3.6110    0.6450 C   0  0  0  0  0  0  0  0  0  0  0  0
    5.3992    2.3713    0.7841 C   0  0  0  0  0  0  0  0  0  0  0  0
    5.7004    5.0526    0.8483 Cl  0  0  0  0  0  0  0  0  0  0  0  0
    6.5104   -0.2894    1.6400 C   0  0  0  0  0  0  0  0  0  0  0  0
    7.6361   -0.2964    1.1313 O   0  0  0  0  0  0  0  0  0  0  0  0
    6.2782   -0.4153    3.0146 N   0  0  0  0  0  0  0  0  0  0  0  0
    7.3705   -0.6044    3.9448 C   0  0  0  0  0  0  0  0  0  0  0  0
    8.6840   -0.2774    3.5665 C   0  0  0  0  0  0  0  0  0  0  0  0
    9.8054   -0.6971    4.1754 N   0  0  0  0  0  0  0  0  0  0  0  0
    9.6353   -1.4446    5.2724 C   0  0  0  0  0  0  0  0  0  0  0  0
    8.4089   -1.6436    5.8908 C   0  0  0  0  0  0  0  0  0  0  0  0
    7.2265   -1.1804    5.2450 C   0  0  0  0  0  0  0  0  0  0  0  0
    6.0269   -1.3148    5.9997 C   0  0  0  0  0  0  0  0  0  0  0  0
    6.0315   -1.8509    7.3020 C   0  0  0  0  0  0  0  0  0  0  0  0
    7.2051   -2.3378    7.8697 C   0  0  0  0  0  0  0  0  0  0  0  0
    8.3876   -2.2584    7.1506 C   0  0  0  0  0  0  0  0  0  0  0  0
    0.7644   -0.9699   -0.2667 H   0  0  0  0  0  0  0  0  0  0  0  0
    0.7987    0.6432   -0.9817 H   0  0  0  0  0  0  0  0  0  0  0  0
    0.6765    0.4330    0.7894 H   0  0  0  0  0  0  0  0  0  0  0  0
    3.7922   -0.9790   -1.3649 H   0  0  0  0  0  0  0  0  0  0  0  0
    2.6966   -1.9993   -0.4432 H   0  0  0  0  0  0  0  0  0  0  0  0
    4.9548   -2.2799    0.4730 H   0  0  0  0  0  0  0  0  0  0  0  0
    3.9395   -1.4737    1.6726 H   0  0  0  0  0  0  0  0  0  0  0  0
    5.8427   -0.2210   -0.3284 H   0  0  0  0  0  0  0  0  0  0  0  0
    1.6596    2.6177   -0.1575 H   0  0  0  0  0  0  0  0  0  0  0  0
    2.9524    4.6522    0.2045 H   0  0  0  0  0  0  0  0  0  0  0  0
    6.4662    2.3313    0.9954 H   0  0  0  0  0  0  0  0  0  0  0  0
    5.3427   -0.6359    3.3284 H   0  0  0  0  0  0  0  0  0  0  0  0
    8.8819    0.3854    2.7328 H   0  0  0  0  0  0  0  0  0  0  0  0
   10.5573   -1.8486    5.6801 H   0  0  0  0  0  0  0  0  0  0  0  0
    5.0856   -0.9284    5.6162 H   0  0  0  0  0  0  0  0  0  0  0  0
    5.1179   -1.8684    7.8944 H   0  0  0  0  0  0  0  0  0  0  0  0
    7.2136   -2.7495    8.8769 H   0  0  0  0  0  0  0  0  0  0  0  0
    9.3074   -2.6255    7.6049 H   0  0  0  0  0  0  0  0  0  0  0  0
  1  2  1  0  0  0  0
  1 26  1  0  0  0  0
  1 27  1  0  0  0  0
  1 28  1  0  0  0  0
  2  3  1  0  0  0  0
  2  7  1  0  0  0  0
  3  4  1  0  0  0  0
  3 29  1  0  0  0  0
  3 30  1  0  0  0  0
  4  5  1  0  0  0  0
  4 31  1  0  0  0  0
  4 32  1  0  0  0  0
  5  6  1  0  0  0  0
  5 13  1  0  0  0  0
  5 33  1  6  0  0  0
  6  7  1  0  0  0  0
  6 11  2  0  0  0  0
  7  8  2  0  0  0  0
  8  9  1  0  0  0  0
  8 34  1  0  0  0  0
  9 10  2  0  0  0  0
  9 35  1  0  0  0  0
 10 11  1  0  0  0  0
 10 12  1  0  0  0  0
 11 36  1  0  0  0  0
 13 14  2  0  0  0  0
 13 15  1  0  0  0  0
 15 16  1  0  0  0  0
 15 37  1  0  0  0  0
 16 17  1  0  0  0  0
 16 21  2  0  0  0  0
 17 18  2  0  0  0  0
 17 38  1  0  0  0  0
 18 19  1  0  0  0  0
 19 20  2  0  0  0  0
 19 39  1  0  0  0  0
 20 21  1  0  0  0  0
 20 25  1  0  0  0  0
 21 22  1  0  0  0  0
 22 23  2  0  0  0  0
 22 40  1  0  0  0  0
 23 24  1  0  0  0  0
 23 41  1  0  0  0  0
 24 25  2  0  0  0  0
 24 42  1  0  0  0  0
 25 43  1  0  0  0  0
M  END
$$$$
