
 OpenBabel07202414193D

 50 53  0  0  0  0  0  0  0  0999 V2000
    1.2163    0.4276    0.2636 O   0  0  0  0  0  0  0  0  0  0  0  0
    2.2853    0.0155   -0.1938 C   0  0  0  0  0  0  0  0  0  0  0  0
    2.7346   -1.4088    0.1163 C   0  0  0  0  0  0  0  0  0  0  0  0
    3.7748   -1.4950    1.2151 C   0  0  0  0  0  0  0  0  0  0  0  0
    3.6714   -0.6387    2.3168 C   0  0  0  0  0  0  0  0  0  0  0  0
    4.5306   -0.6139    3.3572 N   0  0  0  0  0  0  0  0  0  0  0  0
    5.5422   -1.5025    3.3156 C   0  0  0  0  0  0  0  0  0  0  0  0
    5.7486   -2.4262    2.2947 C   0  0  0  0  0  0  0  0  0  0  0  0
    6.8311   -3.3249    2.3348 C   0  0  0  0  0  0  0  0  0  0  0  0
    7.0276   -4.2489    1.3123 C   0  0  0  0  0  0  0  0  0  0  0  0
    6.1378   -4.2916    0.2473 C   0  0  0  0  0  0  0  0  0  0  0  0
    5.0573   -3.4047    0.1990 C   0  0  0  0  0  0  0  0  0  0  0  0
    4.8363   -2.4413    1.2129 C   0  0  0  0  0  0  0  0  0  0  0  0
    3.1286    0.8210   -0.9499 N   0  0  0  0  0  0  0  0  0  0  0  0
    4.3585    0.3648   -1.5974 C   0  0  0  0  0  0  0  0  0  0  0  0
    5.5030    1.3242   -1.2992 C   0  0  0  0  0  0  0  0  0  0  0  0
    5.1689    2.7550   -1.7467 C   0  0  0  0  0  0  0  0  0  0  0  0
    5.0608    2.9082   -3.2806 C   0  0  0  0  0  0  0  0  0  0  0  0
    6.2928    2.5155   -4.0590 C   0  0  0  0  0  0  0  0  0  0  0  0
    7.5021    3.2028   -3.8915 C   0  0  0  0  0  0  0  0  0  0  0  0
    8.6063    2.8702   -4.6746 C   0  0  0  0  0  0  0  0  0  0  0  0
    9.7506    3.5478   -4.5167 F   0  0  0  0  0  0  0  0  0  0  0  0
    8.5385    1.8580   -5.6262 C   0  0  0  0  0  0  0  0  0  0  0  0
    7.3478    1.1537   -5.7892 C   0  0  0  0  0  0  0  0  0  0  0  0
    6.2412    1.4848   -5.0082 C   0  0  0  0  0  0  0  0  0  0  0  0
    5.1061    0.7934   -5.1840 F   0  0  0  0  0  0  0  0  0  0  0  0
    3.8570    3.1886   -1.0601 C   0  0  0  0  0  0  0  0  0  0  0  0
    2.7140    2.1889   -1.2669 C   0  0  0  0  0  0  0  0  0  0  0  0
    3.0597   -1.8626   -0.8232 H   0  0  0  0  0  0  0  0  0  0  0  0
    1.8539   -1.9855    0.4257 H   0  0  0  0  0  0  0  0  0  0  0  0
    2.8641    0.0863    2.4007 H   0  0  0  0  0  0  0  0  0  0  0  0
    6.2118   -1.4517    4.1734 H   0  0  0  0  0  0  0  0  0  0  0  0
    7.5302   -3.3076    3.1686 H   0  0  0  0  0  0  0  0  0  0  0  0
    7.8690   -4.9353    1.3514 H   0  0  0  0  0  0  0  0  0  0  0  0
    6.2819   -5.0173   -0.5514 H   0  0  0  0  0  0  0  0  0  0  0  0
    4.3862   -3.4900   -0.6510 H   0  0  0  0  0  0  0  0  0  0  0  0
    4.1572    0.2949   -2.6709 H   0  0  0  0  0  0  0  0  0  0  0  0
    4.6542   -0.6316   -1.2728 H   0  0  0  0  0  0  0  0  0  0  0  0
    6.4261    0.9653   -1.7647 H   0  0  0  0  0  0  0  0  0  0  0  0
    5.6834    1.3283   -0.2153 H   0  0  0  0  0  0  0  0  0  0  0  0
    5.9689    3.4154   -1.3881 H   0  0  0  0  0  0  0  0  0  0  0  0
    4.8444    3.9581   -3.5192 H   0  0  0  0  0  0  0  0  0  0  0  0
    4.1990    2.3495   -3.6616 H   0  0  0  0  0  0  0  0  0  0  0  0
    7.5962    4.0075   -3.1683 H   0  0  0  0  0  0  0  0  0  0  0  0
    9.4083    1.6301   -6.2341 H   0  0  0  0  0  0  0  0  0  0  0  0
    7.2692    0.3583   -6.5239 H   0  0  0  0  0  0  0  0  0  0  0  0
    3.5512    4.1816   -1.4095 H   0  0  0  0  0  0  0  0  0  0  0  0
    4.0449    3.2801    0.0182 H   0  0  0  0  0  0  0  0  0  0  0  0
    2.3747    2.1951   -2.3089 H   0  0  0  0  0  0  0  0  0  0  0  0
    1.8581    2.4927   -0.6550 H   0  0  0  0  0  0  0  0  0  0  0  0
  1  2  2  0  0  0  0
  2  3  1  0  0  0  0
  2 14  1  0  0  0  0
  3  4  1  0  0  0  0
  3 29  1  0  0  0  0
  3 30  1  0  0  0  0
  4  5  1  0  0  0  0
  4 13  2  0  0  0  0
  5  6  2  0  0  0  0
  5 31  1  0  0  0  0
  6  7  1  0  0  0  0
  7  8  2  0  0  0  0
  7 32  1  0  0  0  0
  8  9  1  0  0  0  0
  8 13  1  0  0  0  0
  9 10  2  0  0  0  0
  9 33  1  0  0  0  0
 10 11  1  0  0  0  0
 10 34  1  0  0  0  0
 11 12  2  0  0  0  0
 11 35  1  0  0  0  0
 12 13  1  0  0  0  0
 12 36  1  0  0  0  0
 14 15  1  0  0  0  0
 14 28  1  0  0  0  0
 15 16  1  0  0  0  0
 15 37  1  0  0  0  0
 15 38  1  0  0  0  0
 16 17  1  0  0  0  0
 16 39  1  0  0  0  0
 16 40  1  0  0  0  0
 17 18  1  0  0  0  0
 17 27  1  0  0  0  0
 17 41  1  0  0  0  0
 18 19  1  0  0  0  0
 18 42  1  0  0  0  0
 18 43  1  0  0  0  0
 19 20  1  0  0  0  0
 19 25  2  0  0  0  0
 20 21  2  0  0  0  0
 20 44  1  0  0  0  0
 21 22  1  0  0  0  0
 21 23  1  0  0  0  0
 23 24  2  0  0  0  0
 23 45  1  0  0  0  0
 24 25  1  0  0  0  0
 24 46  1  0  0  0  0
 25 26  1  0  0  0  0
 27 28  1  0  0  0  0
 27 47  1  0  0  0  0
 27 48  1  0  0  0  0
 28 49  1  0  0  0  0
 28 50  1  0  0  0  0
M  END
$$$$
