
 OpenBabel07202414153D

 35 37  0  0  0  0  0  0  0  0999 V2000
    9.1815    2.5934    4.1714 C   0  0  0  0  0  0  0  0  0  0  0  0
    8.0317    2.2154    3.4255 O   0  0  0  0  0  0  0  0  0  0  0  0
    7.5439    0.9488    3.6263 C   0  0  0  0  0  0  0  0  0  0  0  0
    8.0812    0.0007    4.5037 C   0  0  0  0  0  0  0  0  0  0  0  0
    7.5128   -1.2836    4.6355 C   0  0  0  0  0  0  0  0  0  0  0  0
    6.3847   -1.6038    3.8541 C   0  0  0  0  0  0  0  0  0  0  0  0
    5.8867   -0.6330    3.0045 C   0  0  0  0  0  0  0  0  0  0  0  0
    6.4195    0.6442    2.8546 C   0  0  0  0  0  0  0  0  0  0  0  0
    4.8139   -1.1269    2.3404 O   0  0  0  0  0  0  0  0  0  0  0  0
    4.5965   -2.4320    2.7249 N   0  0  0  0  0  0  0  0  0  0  0  0
    5.5425   -2.7313    3.6226 C   0  0  0  0  0  0  0  0  0  0  0  0
    5.6745   -3.9638    4.2449 N   0  0  0  0  0  0  0  0  0  0  0  0
    5.0229   -5.1055    3.8151 C   0  0  0  0  0  0  0  0  0  0  0  0
    4.3123   -5.2089    2.8155 O   0  0  0  0  0  0  0  0  0  0  0  0
    5.2906   -6.3255    4.6828 C   0  0  0  0  0  0  0  0  0  0  0  0
    6.5716   -7.0346    4.3138 C   0  0  0  0  0  0  0  0  0  0  0  0
    6.7724   -7.5150    3.0098 C   0  0  0  0  0  0  0  0  0  0  0  0
    7.9716   -8.1373    2.6565 C   0  0  0  0  0  0  0  0  0  0  0  0
    8.9789   -8.3001    3.6059 C   0  0  0  0  0  0  0  0  0  0  0  0
    8.7734   -7.8570    4.9102 C   0  0  0  0  0  0  0  0  0  0  0  0
    7.5771   -7.2333    5.2697 C   0  0  0  0  0  0  0  0  0  0  0  0
   10.0094   -8.0658    6.0893 Cl  0  0  0  0  0  0  0  0  0  0  0  0
    9.4331    3.6237    3.9013 H   0  0  0  0  0  0  0  0  0  0  0  0
   10.0402    1.9633    3.9174 H   0  0  0  0  0  0  0  0  0  0  0  0
    8.9772    2.5714    5.2465 H   0  0  0  0  0  0  0  0  0  0  0  0
    8.9592    0.2210    5.1043 H   0  0  0  0  0  0  0  0  0  0  0  0
    7.9573   -2.0043    5.3127 H   0  0  0  0  0  0  0  0  0  0  0  0
    5.9869    1.3577    2.1653 H   0  0  0  0  0  0  0  0  0  0  0  0
    6.3752   -4.0368    4.9683 H   0  0  0  0  0  0  0  0  0  0  0  0
    4.4474   -7.0192    4.5750 H   0  0  0  0  0  0  0  0  0  0  0  0
    5.2991   -6.0177    5.7356 H   0  0  0  0  0  0  0  0  0  0  0  0
    5.9956   -7.3982    2.2529 H   0  0  0  0  0  0  0  0  0  0  0  0
    8.1199   -8.4900    1.6382 H   0  0  0  0  0  0  0  0  0  0  0  0
    9.9152   -8.7738    3.3238 H   0  0  0  0  0  0  0  0  0  0  0  0
    7.4337   -6.9053    6.2962 H   0  0  0  0  0  0  0  0  0  0  0  0
  1  2  1  0  0  0  0
  1 23  1  0  0  0  0
  1 24  1  0  0  0  0
  1 25  1  0  0  0  0
  2  3  1  0  0  0  0
  3  4  1  0  0  0  0
  3  8  2  0  0  0  0
  4  5  2  0  0  0  0
  4 26  1  0  0  0  0
  5  6  1  0  0  0  0
  5 27  1  0  0  0  0
  6  7  2  0  0  0  0
  6 11  1  0  0  0  0
  7  8  1  0  0  0  0
  7  9  1  0  0  0  0
  8 28  1  0  0  0  0
  9 10  1  0  0  0  0
 10 11  2  0  0  0  0
 11 12  1  0  0  0  0
 12 13  1  0  0  0  0
 12 29  1  0  0  0  0
 13 14  2  0  0  0  0
 13 15  1  0  0  0  0
 15 16  1  0  0  0  0
 15 30  1  0  0  0  0
 15 31  1  0  0  0  0
 16 17  1  0  0  0  0
 16 21  2  0  0  0  0
 17 18  2  0  0  0  0
 17 32  1  0  0  0  0
 18 19  1  0  0  0  0
 18 33  1  0  0  0  0
 19 20  2  0  0  0  0
 19 34  1  0  0  0  0
 20 21  1  0  0  0  0
 20 22  1  0  0  0  0
 21 35  1  0  0  0  0
M  END
$$$$
