
 OpenBabel07202414133D

 68 72  0  0  1  0  0  0  0  0999 V2000
   13.6010   -2.4889   -5.4300 C   0  0  0  0  0  0  0  0  0  0  0  0
   12.9351   -3.7637   -5.6449 N   0  0  0  0  0  0  0  0  0  0  0  0
   13.6643   -5.0126   -5.8436 C   0  0  0  0  0  0  0  0  0  0  0  0
   13.9495   -5.7521   -4.5265 C   0  0  0  0  0  0  0  0  0  0  0  0
   12.7687   -6.1003   -3.8205 O   0  0  0  0  0  0  0  0  0  0  0  0
   11.5614   -3.8199   -5.4402 C   0  0  0  0  0  0  0  0  0  0  0  0
   10.8925   -5.0258   -5.6355 C   0  0  0  0  0  0  0  0  0  0  0  0
    9.5082   -5.0894   -5.5177 C   0  0  0  0  0  0  0  0  0  0  0  0
    8.7792   -3.9363   -5.2091 C   0  0  0  0  0  0  0  0  0  0  0  0
    7.2712   -3.8764   -5.1035 C   0  0  0  0  0  0  0  0  0  0  0  0
    6.7073   -3.5537   -6.3935 N   0  0  0  0  0  0  0  0  0  0  0  0
    5.2529   -3.4590   -6.4480 C   0  0  0  0  0  0  0  0  0  0  0  0
    4.7017   -3.1065   -7.8763 C   0  0  3  0  0  0  0  0  0  0  0  0
    5.1685   -4.2469   -8.8425 C   0  0  0  0  0  0  0  0  0  0  0  0
    5.8429   -5.1968   -8.4434 O   0  0  0  0  0  0  0  0  0  0  0  0
    4.7473   -4.1355  -10.1698 N   0  0  0  0  0  0  0  0  0  0  0  0
    5.1146   -5.1658  -11.0858 C   0  0  0  0  0  0  0  0  0  0  0  0
    4.6385   -6.4503  -10.7326 C   0  0  0  0  0  0  0  0  0  0  0  0
    4.8109   -7.5382  -11.4933 N   0  0  0  0  0  0  0  0  0  0  0  0
    5.4290   -7.3308  -12.6728 C   0  0  0  0  0  0  0  0  0  0  0  0
    5.9018   -6.0799  -13.1448 C   0  0  0  0  0  0  0  0  0  0  0  0
    6.3249   -5.8852  -14.4621 C   0  0  0  0  0  0  0  0  0  0  0  0
    6.6095   -4.6012  -14.9774 C   0  0  0  0  0  0  0  0  0  0  0  0
    7.4233   -3.7926  -14.2041 C   0  0  0  0  0  0  0  0  0  0  0  0
    6.7161   -3.8285  -12.9928 C   0  0  0  0  0  0  0  0  0  0  0  0
    5.8953   -4.9530  -12.3444 C   0  0  0  0  0  0  0  0  0  0  0  0
    5.2042   -1.7204   -8.3370 C   0  0  0  0  0  0  0  0  0  0  0  0
    4.4936   -0.5928   -7.5960 C   0  0  0  0  0  0  0  0  0  0  0  0
    3.0753   -0.6277   -7.8017 O   0  0  0  0  0  0  0  0  0  0  0  0
    2.4815   -1.8672   -7.7607 C   0  0  0  0  0  0  0  0  0  0  0  0
    1.0855   -1.9062   -7.6809 C   0  0  0  0  0  0  0  0  0  0  0  0
    0.4002   -3.1331   -7.6411 C   0  0  0  0  0  0  0  0  0  0  0  0
    1.1051   -4.3288   -7.6704 C   0  0  0  0  0  0  0  0  0  0  0  0
    0.2945   -5.8441   -7.6357 Cl  0  0  0  0  0  0  0  0  0  0  0  0
    2.4860   -4.3014   -7.7387 C   0  0  0  0  0  0  0  0  0  0  0  0
    3.1832   -3.0763   -7.8128 C   0  0  0  0  0  0  0  0  0  0  0  0
    9.5242   -2.7904   -4.9817 C   0  0  0  0  0  0  0  0  0  0  0  0
   10.8800   -2.7126   -5.0697 N   0  0  0  0  0  0  0  0  0  0  0  0
   14.6870   -2.5402   -5.5242 H   0  0  0  0  0  0  0  0  0  0  0  0
   13.4139   -2.1024   -4.4231 H   0  0  0  0  0  0  0  0  0  0  0  0
   13.2931   -1.7577   -6.1816 H   0  0  0  0  0  0  0  0  0  0  0  0
   14.6291   -4.7840   -6.3162 H   0  0  0  0  0  0  0  0  0  0  0  0
   13.1434   -5.6955   -6.5268 H   0  0  0  0  0  0  0  0  0  0  0  0
   14.5645   -5.1278   -3.8674 H   0  0  0  0  0  0  0  0  0  0  0  0
   14.4929   -6.6832   -4.7269 H   0  0  0  0  0  0  0  0  0  0  0  0
   12.3204   -5.2673   -3.5985 H   0  0  0  0  0  0  0  0  0  0  0  0
   11.4424   -5.9331   -5.8607 H   0  0  0  0  0  0  0  0  0  0  0  0
    9.0322   -6.0516   -5.6943 H   0  0  0  0  0  0  0  0  0  0  0  0
    6.9690   -3.1188   -4.3769 H   0  0  0  0  0  0  0  0  0  0  0  0
    6.9032   -4.8634   -4.7984 H   0  0  0  0  0  0  0  0  0  0  0  0
    7.0249   -4.3146   -6.9642 H   0  0  0  0  0  0  0  0  0  0  0  0
    4.9555   -2.6820   -5.7369 H   0  0  0  0  0  0  0  0  0  0  0  0
    4.8039   -4.4041   -6.1230 H   0  0  0  0  0  0  0  0  0  0  0  0
    4.8221   -3.1914  -10.5432 H   0  0  0  0  0  0  0  0  0  0  0  0
    4.0733   -6.6847   -9.8271 H   0  0  0  0  0  0  0  0  0  0  0  0
    5.4931   -8.2371  -13.2766 H   0  0  0  0  0  0  0  0  0  0  0  0
    6.6166   -6.7637  -15.0294 H   0  0  0  0  0  0  0  0  0  0  0  0
    5.7761   -3.8573  -15.1578 H   0  0  0  0  0  0  0  0  0  0  0  0
    7.9707   -3.8027  -15.1576 H   0  0  0  0  0  0  0  0  0  0  0  0
    6.6041   -2.8445  -12.5534 H   0  0  0  0  0  0  0  0  0  0  0  0
    5.0008   -1.5709   -9.4052 H   0  0  0  0  0  0  0  0  0  0  0  0
    6.2910   -1.6530   -8.2112 H   0  0  0  0  0  0  0  0  0  0  0  0
    4.8975    0.3792   -7.9014 H   0  0  0  0  0  0  0  0  0  0  0  0
    4.6906   -0.5396   -6.5324 H   0  0  0  0  0  0  0  0  0  0  0  0
    0.5132   -0.9832   -7.6394 H   0  0  0  0  0  0  0  0  0  0  0  0
   -0.6837   -3.1511   -7.5808 H   0  0  0  0  0  0  0  0  0  0  0  0
    3.0344   -5.2419   -7.7374 H   0  0  0  0  0  0  0  0  0  0  0  0
    9.0223   -1.8620   -4.7205 H   0  0  0  0  0  0  0  0  0  0  0  0
  1  2  1  0  0  0  0
  1 39  1  0  0  0  0
  1 40  1  0  0  0  0
  1 41  1  0  0  0  0
  2  3  1  0  0  0  0
  2  6  1  0  0  0  0
  3  4  1  0  0  0  0
  3 42  1  0  0  0  0
  3 43  1  0  0  0  0
  4  5  1  0  0  0  0
  4 44  1  0  0  0  0
  4 45  1  0  0  0  0
  5 46  1  0  0  0  0
  6  7  1  0  0  0  0
  6 38  2  0  0  0  0
  7  8  2  0  0  0  0
  7 47  1  0  0  0  0
  8  9  1  0  0  0  0
  8 48  1  0  0  0  0
  9 10  1  0  0  0  0
  9 37  2  0  0  0  0
 10 11  1  0  0  0  0
 10 49  1  0  0  0  0
 10 50  1  0  0  0  0
 11 12  1  0  0  0  0
 11 51  1  0  0  0  0
 12 13  1  0  0  0  0
 12 52  1  0  0  0  0
 12 53  1  0  0  0  0
 13 14  1  0  0  0  0
 13 27  1  0  0  0  0
 13 36  1  0  0  0  0
 14 15  2  0  0  0  0
 14 16  1  0  0  0  0
 16 17  1  0  0  0  0
 16 54  1  0  0  0  0
 17 18  1  0  0  0  0
 17 26  2  0  0  0  0
 18 19  2  0  0  0  0
 18 55  1  0  0  0  0
 19 20  1  0  0  0  0
 20 21  2  0  0  0  0
 20 56  1  0  0  0  0
 21 22  1  0  0  0  0
 21 26  1  0  0  0  0
 22 23  2  0  0  0  0
 22 57  1  0  0  0  0
 23 24  1  0  0  0  0
 23 58  1  0  0  0  0
 24 25  2  0  0  0  0
 24 59  1  0  0  0  0
 25 26  1  0  0  0  0
 25 60  1  0  0  0  0
 27 28  1  0  0  0  0
 27 61  1  0  0  0  0
 27 62  1  0  0  0  0
 28 29  1  0  0  0  0
 28 63  1  0  0  0  0
 28 64  1  0  0  0  0
 29 30  1  0  0  0  0
 30 31  1  0  0  0  0
 30 36  2  0  0  0  0
 31 32  2  0  0  0  0
 31 65  1  0  0  0  0
 32 33  1  0  0  0  0
 32 66  1  0  0  0  0
 33 34  1  0  0  0  0
 33 35  2  0  0  0  0
 35 36  1  0  0  0  0
 35 67  1  0  0  0  0
 37 38  1  0  0  0  0
 37 68  1  0  0  0  0
M  END
$$$$
