
 OpenBabel07202414203D

 35 37  0  0  0  0  0  0  0  0999 V2000
    1.2656    0.0350   -1.3821 O   0  0  0  0  0  0  0  0  0  0  0  0
    2.4590    0.0118   -0.7162 C   0  0  0  0  0  0  0  0  0  0  0  0
    3.2448   -1.1278   -0.7114 C   0  0  0  0  0  0  0  0  0  0  0  0
    4.4894   -1.1816   -0.1919 N   0  0  0  0  0  0  0  0  0  0  0  0
    4.9993   -0.0615    0.3440 C   0  0  0  0  0  0  0  0  0  0  0  0
    6.2858   -0.1170    0.8627 C   0  0  0  0  0  0  0  0  0  0  0  0
    6.8965    0.9911    1.4505 C   0  0  0  0  0  0  0  0  0  0  0  0
    6.2023    2.1884    1.5410 C   0  0  0  0  0  0  0  0  0  0  0  0
    4.9073    2.2727    1.0344 C   0  0  0  0  0  0  0  0  0  0  0  0
    4.2843    1.1611    0.4117 C   0  0  0  0  0  0  0  0  0  0  0  0
    2.9704    1.1700   -0.1231 C   0  0  0  0  0  0  0  0  0  0  0  0
    2.2051    2.3671   -0.0951 N   0  0  0  0  0  0  0  0  0  0  0  0
    0.9092    2.4091    0.4070 C   0  0  0  0  0  0  0  0  0  0  0  0
    0.3130    1.4667    0.9225 O   0  0  0  0  0  0  0  0  0  0  0  0
    0.2972    3.8011    0.3558 C   0  0  0  0  0  0  0  0  0  0  0  0
    0.6185    4.7034    1.5314 C   0  0  0  0  0  0  0  0  0  0  0  0
    0.8434    4.2071    2.8241 C   0  0  0  0  0  0  0  0  0  0  0  0
    1.0829    5.0761    3.8949 C   0  0  0  0  0  0  0  0  0  0  0  0
    1.0805    6.4557    3.6944 C   0  0  0  0  0  0  0  0  0  0  0  0
    0.8323    6.9604    2.4227 C   0  0  0  0  0  0  0  0  0  0  0  0
    0.7959    8.6646    2.1735 Cl  0  0  0  0  0  0  0  0  0  0  0  0
    0.5989    6.0982    1.3489 C   0  0  0  0  0  0  0  0  0  0  0  0
    0.9708   -0.8759   -1.5441 H   0  0  0  0  0  0  0  0  0  0  0  0
    2.9098   -2.0548   -1.1656 H   0  0  0  0  0  0  0  0  0  0  0  0
    6.8299   -1.0576    0.8102 H   0  0  0  0  0  0  0  0  0  0  0  0
    7.9075    0.9113    1.8418 H   0  0  0  0  0  0  0  0  0  0  0  0
    6.6616    3.0530    2.0147 H   0  0  0  0  0  0  0  0  0  0  0  0
    4.3836    3.2161    1.1542 H   0  0  0  0  0  0  0  0  0  0  0  0
    2.7122    3.2395   -0.0549 H   0  0  0  0  0  0  0  0  0  0  0  0
   -0.7909    3.6889    0.2832 H   0  0  0  0  0  0  0  0  0  0  0  0
    0.6283    4.2806   -0.5745 H   0  0  0  0  0  0  0  0  0  0  0  0
    0.8176    3.1361    3.0240 H   0  0  0  0  0  0  0  0  0  0  0  0
    1.2550    4.6743    4.8911 H   0  0  0  0  0  0  0  0  0  0  0  0
    1.2569    7.1256    4.5318 H   0  0  0  0  0  0  0  0  0  0  0  0
    0.3847    6.5179    0.3681 H   0  0  0  0  0  0  0  0  0  0  0  0
  1  2  1  0  0  0  0
  1 23  1  0  0  0  0
  2  3  1  0  0  0  0
  2 11  2  0  0  0  0
  3  4  2  0  0  0  0
  3 24  1  0  0  0  0
  4  5  1  0  0  0  0
  5  6  1  0  0  0  0
  5 10  2  0  0  0  0
  6  7  2  0  0  0  0
  6 25  1  0  0  0  0
  7  8  1  0  0  0  0
  7 26  1  0  0  0  0
  8  9  2  0  0  0  0
  8 27  1  0  0  0  0
  9 10  1  0  0  0  0
  9 28  1  0  0  0  0
 10 11  1  0  0  0  0
 11 12  1  0  0  0  0
 12 13  1  0  0  0  0
 12 29  1  0  0  0  0
 13 14  2  0  0  0  0
 13 15  1  0  0  0  0
 15 16  1  0  0  0  0
 15 30  1  0  0  0  0
 15 31  1  0  0  0  0
 16 17  1  0  0  0  0
 16 22  2  0  0  0  0
 17 18  2  0  0  0  0
 17 32  1  0  0  0  0
 18 19  1  0  0  0  0
 18 33  1  0  0  0  0
 19 20  2  0  0  0  0
 19 34  1  0  0  0  0
 20 21  1  0  0  0  0
 20 22  1  0  0  0  0
 22 35  1  0  0  0  0
M  END
$$$$
