
 OpenBabel07202414143D

 49 52  0  0  1  0  0  0  0  0999 V2000
    7.3959    1.8863   -1.5120 C   0  0  0  0  0  0  0  0  0  0  0  0
    6.4439    0.8258   -1.7156 N   0  0  0  0  0  0  0  0  0  0  0  0
    5.6597    0.4013   -0.6662 C   0  0  0  0  0  0  0  0  0  0  0  0
    5.7527    0.8655    0.4685 O   0  0  0  0  0  0  0  0  0  0  0  0
    4.5568   -0.5872   -1.0339 C   0  0  0  0  0  0  0  0  0  0  0  0
    4.8556   -1.5245   -2.1192 N   0  0  0  0  0  0  0  0  0  0  0  0
    5.7259   -2.6659   -1.8572 C   0  0  0  0  0  0  0  0  0  0  0  0
    5.0522   -3.9754   -2.2601 C   0  0  1  0  0  0  0  0  0  0  0  0
    4.0904   -4.4089   -1.1481 C   0  0  0  0  0  0  0  0  0  0  0  0
    4.4789   -5.1855   -0.2792 O   0  0  0  0  0  0  0  0  0  0  0  0
    2.8474   -3.8073   -1.1861 N   0  0  0  0  0  0  0  0  0  0  0  0
    1.7181   -4.0883   -0.3768 C   0  0  0  0  0  0  0  0  0  0  0  0
    1.7297   -5.0431    0.6411 C   0  0  0  0  0  0  0  0  0  0  0  0
    0.6344   -5.4538    1.3211 N   0  0  0  0  0  0  0  0  0  0  0  0
   -0.5319   -4.8565    1.0001 C   0  0  0  0  0  0  0  0  0  0  0  0
   -0.6626   -3.8178    0.0805 C   0  0  0  0  0  0  0  0  0  0  0  0
   -1.9013   -3.1816   -0.1196 C   0  0  0  0  0  0  0  0  0  0  0  0
   -2.0207   -2.1203   -1.0119 C   0  0  0  0  0  0  0  0  0  0  0  0
   -0.9108   -1.7003   -1.7318 C   0  0  0  0  0  0  0  0  0  0  0  0
    0.3213   -2.3369   -1.5532 C   0  0  0  0  0  0  0  0  0  0  0  0
    0.4859   -3.4090   -0.6380 C   0  0  0  0  0  0  0  0  0  0  0  0
    4.4165   -3.8466   -3.6370 C   0  0  0  0  0  0  0  0  0  0  0  0
    4.0649   -4.9992   -4.3582 C   0  0  0  0  0  0  0  0  0  0  0  0
    3.4301   -4.8857   -5.5967 C   0  0  0  0  0  0  0  0  0  0  0  0
    2.9732   -6.3049   -6.4532 Cl  0  0  0  0  0  0  0  0  0  0  0  0
    3.1486   -3.6321   -6.1368 C   0  0  0  0  0  0  0  0  0  0  0  0
    3.4998   -2.4765   -5.4327 C   0  0  0  0  0  0  0  0  0  0  0  0
    4.1272   -2.5776   -4.1857 C   0  0  0  0  0  0  0  0  0  0  0  0
    4.3181   -1.3325   -3.3832 C   0  0  0  0  0  0  0  0  0  0  0  0
    3.9142   -0.2505   -3.7759 O   0  0  0  0  0  0  0  0  0  0  0  0
    7.9955    2.0049   -2.4158 H   0  0  0  0  0  0  0  0  0  0  0  0
    8.0422    1.6393   -0.6637 H   0  0  0  0  0  0  0  0  0  0  0  0
    6.8580    2.8130   -1.2925 H   0  0  0  0  0  0  0  0  0  0  0  0
    6.0801    0.6598   -2.6487 H   0  0  0  0  0  0  0  0  0  0  0  0
    3.6684   -0.0035   -1.3001 H   0  0  0  0  0  0  0  0  0  0  0  0
    4.3136   -1.1832   -0.1480 H   0  0  0  0  0  0  0  0  0  0  0  0
    6.0383   -2.6692   -0.8073 H   0  0  0  0  0  0  0  0  0  0  0  0
    6.6257   -2.5184   -2.4700 H   0  0  0  0  0  0  0  0  0  0  0  0
    5.8270   -4.7522   -2.3228 H   0  0  0  0  0  0  0  0  0  0  0  0
    2.6842   -3.1690   -1.9492 H   0  0  0  0  0  0  0  0  0  0  0  0
    2.6370   -5.5435    0.9621 H   0  0  0  0  0  0  0  0  0  0  0  0
   -1.3933   -5.2466    1.5378 H   0  0  0  0  0  0  0  0  0  0  0  0
   -2.7786   -3.4940    0.4434 H   0  0  0  0  0  0  0  0  0  0  0  0
   -2.9751   -1.6149   -1.1361 H   0  0  0  0  0  0  0  0  0  0  0  0
   -0.9961   -0.8697   -2.4283 H   0  0  0  0  0  0  0  0  0  0  0  0
    1.1539   -1.9445   -2.1285 H   0  0  0  0  0  0  0  0  0  0  0  0
    4.2674   -5.9880   -3.9487 H   0  0  0  0  0  0  0  0  0  0  0  0
    2.6384   -3.5467   -7.0938 H   0  0  0  0  0  0  0  0  0  0  0  0
    3.2478   -1.5022   -5.8477 H   0  0  0  0  0  0  0  0  0  0  0  0
  1  2  1  0  0  0  0
  1 31  1  0  0  0  0
  1 32  1  0  0  0  0
  1 33  1  0  0  0  0
  2  3  1  0  0  0  0
  2 34  1  0  0  0  0
  3  4  2  0  0  0  0
  3  5  1  0  0  0  0
  5  6  1  0  0  0  0
  5 35  1  0  0  0  0
  5 36  1  0  0  0  0
  6  7  1  0  0  0  0
  6 29  1  0  0  0  0
  7  8  1  0  0  0  0
  7 37  1  0  0  0  0
  7 38  1  0  0  0  0
  8  9  1  0  0  0  0
  8 22  1  0  0  0  0
  8 39  1  6  0  0  0
  9 10  2  0  0  0  0
  9 11  1  0  0  0  0
 11 12  1  0  0  0  0
 11 40  1  0  0  0  0
 12 13  1  0  0  0  0
 12 21  2  0  0  0  0
 13 14  2  0  0  0  0
 13 41  1  0  0  0  0
 14 15  1  0  0  0  0
 15 16  2  0  0  0  0
 15 42  1  0  0  0  0
 16 17  1  0  0  0  0
 16 21  1  0  0  0  0
 17 18  2  0  0  0  0
 17 43  1  0  0  0  0
 18 19  1  0  0  0  0
 18 44  1  0  0  0  0
 19 20  2  0  0  0  0
 19 45  1  0  0  0  0
 20 21  1  0  0  0  0
 20 46  1  0  0  0  0
 22 23  1  0  0  0  0
 22 28  2  0  0  0  0
 23 24  2  0  0  0  0
 23 47  1  0  0  0  0
 24 25  1  0  0  0  0
 24 26  1  0  0  0  0
 26 27  2  0  0  0  0
 26 48  1  0  0  0  0
 27 28  1  0  0  0  0
 27 49  1  0  0  0  0
 28 29  1  0  0  0  0
 29 30  2  0  0  0  0
M  END
$$$$
