
 OpenBabel07202414163D

 38 41  0  0  1  0  0  0  0  0999 V2000
    0.7913   -4.4448   -0.5917 C   0  0  0  0  0  0  0  0  0  0  0  0
    1.7058   -3.4236   -0.0075 C   0  0  0  0  0  0  0  0  0  0  0  0
    3.0118   -3.3914   -0.1799 N   0  0  0  0  0  0  0  0  0  0  0  0
    3.5723   -2.3883    0.6147 C   0  0  0  0  0  0  0  0  0  0  0  0
    4.9527   -2.1210    0.7764 C   0  0  0  0  0  0  0  0  0  0  0  0
    5.9318   -2.8644    0.0509 N   0  0  0  0  0  0  0  0  0  0  0  0
    7.2287   -3.0379    0.4935 C   0  0  0  0  0  0  0  0  0  0  0  0
    7.5904   -2.7133    1.6283 O   0  0  0  0  0  0  0  0  0  0  0  0
    8.2244   -3.8014   -0.3914 C   0  0  3  0  0  0  0  0  0  0  0  0
    8.1198   -5.2957   -0.0690 C   0  0  0  0  0  0  0  0  0  0  0  0
    8.3238   -6.2488   -1.2355 C   0  0  0  0  0  0  0  0  0  0  0  0
    9.0495   -5.7378   -2.3372 O   0  0  0  0  0  0  0  0  0  0  0  0
    8.6260   -4.5169   -2.7624 C   0  0  0  0  0  0  0  0  0  0  0  0
    8.7581   -4.2760   -4.1328 C   0  0  0  0  0  0  0  0  0  0  0  0
    8.6129   -2.9871   -4.6300 C   0  0  0  0  0  0  0  0  0  0  0  0
    8.3702   -1.9425   -3.7421 C   0  0  0  0  0  0  0  0  0  0  0  0
    8.3925   -0.3222   -4.3265 Cl  0  0  0  0  0  0  0  0  0  0  0  0
    8.1775   -2.1893   -2.3752 C   0  0  0  0  0  0  0  0  0  0  0  0
    8.2610   -3.4940   -1.8733 C   0  0  0  0  0  0  0  0  0  0  0  0
    5.2542   -1.1006    1.6812 C   0  0  0  0  0  0  0  0  0  0  0  0
    4.3452   -0.3567    2.3629 N   0  0  0  0  0  0  0  0  0  0  0  0
    3.0329   -0.6186    2.1985 C   0  0  0  0  0  0  0  0  0  0  0  0
    2.6394   -1.6397    1.3409 C   0  0  0  0  0  0  0  0  0  0  0  0
    1.0537   -2.2026    1.0035 S   0  0  0  0  0  0  0  0  0  0  0  0
    1.3532   -5.1453   -1.2150 H   0  0  0  0  0  0  0  0  0  0  0  0
    0.0194   -3.9773   -1.2115 H   0  0  0  0  0  0  0  0  0  0  0  0
    0.3009   -5.0208    0.2020 H   0  0  0  0  0  0  0  0  0  0  0  0
    5.5727   -3.4376   -0.7069 H   0  0  0  0  0  0  0  0  0  0  0  0
    9.2122   -3.4660   -0.0374 H   0  0  0  0  0  0  0  0  0  0  0  0
    7.1636   -5.5459    0.4073 H   0  0  0  0  0  0  0  0  0  0  0  0
    8.8723   -5.5213    0.7001 H   0  0  0  0  0  0  0  0  0  0  0  0
    7.3630   -6.6218   -1.6066 H   0  0  0  0  0  0  0  0  0  0  0  0
    8.8756   -7.1279   -0.8793 H   0  0  0  0  0  0  0  0  0  0  0  0
    9.0140   -5.0940   -4.8017 H   0  0  0  0  0  0  0  0  0  0  0  0
    8.7485   -2.7976   -5.6917 H   0  0  0  0  0  0  0  0  0  0  0  0
    8.0361   -1.3448   -1.7038 H   0  0  0  0  0  0  0  0  0  0  0  0
    6.2822   -0.8067    1.8843 H   0  0  0  0  0  0  0  0  0  0  0  0
    2.3352   -0.0175    2.7706 H   0  0  0  0  0  0  0  0  0  0  0  0
  1  2  1  0  0  0  0
  1 25  1  0  0  0  0
  1 26  1  0  0  0  0
  1 27  1  0  0  0  0
  2  3  2  0  0  0  0
  2 24  1  0  0  0  0
  3  4  1  0  0  0  0
  4  5  1  0  0  0  0
  4 23  2  0  0  0  0
  5  6  1  0  0  0  0
  5 20  2  0  0  0  0
  6  7  1  0  0  0  0
  6 28  1  0  0  0  0
  7  8  2  0  0  0  0
  7  9  1  0  0  0  0
  9 10  1  0  0  0  0
  9 19  1  0  0  0  0
  9 29  1  0  0  0  0
 10 11  1  0  0  0  0
 10 30  1  0  0  0  0
 10 31  1  0  0  0  0
 11 12  1  0  0  0  0
 11 32  1  0  0  0  0
 11 33  1  0  0  0  0
 12 13  1  0  0  0  0
 13 14  1  0  0  0  0
 13 19  2  0  0  0  0
 14 15  2  0  0  0  0
 14 34  1  0  0  0  0
 15 16  1  0  0  0  0
 15 35  1  0  0  0  0
 16 17  1  0  0  0  0
 16 18  2  0  0  0  0
 18 19  1  0  0  0  0
 18 36  1  0  0  0  0
 20 21  1  0  0  0  0
 20 37  1  0  0  0  0
 21 22  2  0  0  0  0
 22 23  1  0  0  0  0
 22 38  1  0  0  0  0
 23 24  1  0  0  0  0
M  END
$$$$
