
 OpenBabel07202414183D

 40 43  0  0  1  0  0  0  0  0999 V2000
    2.3223   -4.1554    3.7784 C   0  0  0  0  0  0  0  0  0  0  0  0
    1.6026   -2.9842    4.2207 N   0  0  0  0  0  0  0  0  0  0  0  0
    1.9754   -2.4191    5.3833 N   0  0  0  0  0  0  0  0  0  0  0  0
    1.2000   -1.3415    5.4787 C   0  0  0  0  0  0  0  0  0  0  0  0
    0.3384   -1.2033    4.3750 C   0  0  0  0  0  0  0  0  0  0  0  0
   -0.6232   -0.2618    3.9995 C   0  0  0  0  0  0  0  0  0  0  0  0
   -1.3112   -0.4187    2.8512 N   0  0  0  0  0  0  0  0  0  0  0  0
   -1.0814   -1.5304    2.1065 C   0  0  0  0  0  0  0  0  0  0  0  0
   -0.1647   -2.5620    2.3934 C   0  0  0  0  0  0  0  0  0  0  0  0
   -0.0027   -3.6969    1.5453 N   0  0  0  0  0  0  0  0  0  0  0  0
   -0.9971   -4.1665    0.6911 C   0  0  0  0  0  0  0  0  0  0  0  0
   -2.1661   -3.7890    0.7503 O   0  0  0  0  0  0  0  0  0  0  0  0
   -0.5338   -5.1028   -0.4277 C   0  0  2  0  0  0  0  0  0  0  0  0
   -1.6896   -5.2785   -1.4493 C   0  0  0  0  0  0  0  0  0  0  0  0
   -1.1763   -5.6338   -2.8105 N   0  0  0  0  0  0  0  0  0  0  0  0
    0.1891   -6.6414   -2.8705 S   0  0  0  0  0  0  0  0  0  0  0  0
    1.3338   -5.7619   -2.9635 O   0  0  0  0  0  0  0  0  0  0  0  0
   -0.0739   -7.6765   -3.8400 O   0  0  0  0  0  0  0  0  0  0  0  0
    0.2241   -7.3537   -1.2372 C   0  0  0  0  0  0  0  0  0  0  0  0
    0.4398   -8.7289   -1.1196 C   0  0  0  0  0  0  0  0  0  0  0  0
    0.3648   -9.3171    0.1374 C   0  0  0  0  0  0  0  0  0  0  0  0
    0.0916   -8.5249    1.2551 C   0  0  0  0  0  0  0  0  0  0  0  0
   -0.0180   -9.2740    2.8016 Cl  0  0  0  0  0  0  0  0  0  0  0  0
   -0.1322   -7.1411    1.1380 C   0  0  0  0  0  0  0  0  0  0  0  0
   -0.0901   -6.5318   -0.1209 C   0  0  0  0  0  0  0  0  0  0  0  0
    0.5815   -2.3272    3.5638 C   0  0  0  0  0  0  0  0  0  0  0  0
    3.0721   -4.4226    4.5264 H   0  0  0  0  0  0  0  0  0  0  0  0
    2.8160   -3.9172    2.8337 H   0  0  0  0  0  0  0  0  0  0  0  0
    1.6152   -4.9782    3.6629 H   0  0  0  0  0  0  0  0  0  0  0  0
    1.2988   -0.6931    6.3418 H   0  0  0  0  0  0  0  0  0  0  0  0
   -0.8579    0.6177    4.5901 H   0  0  0  0  0  0  0  0  0  0  0  0
   -1.6736   -1.5398    1.1946 H   0  0  0  0  0  0  0  0  0  0  0  0
    0.8328   -4.2545    1.6459 H   0  0  0  0  0  0  0  0  0  0  0  0
    0.3033   -4.5749   -0.9037 H   0  0  0  0  0  0  0  0  0  0  0  0
   -2.2989   -4.3767   -1.5619 H   0  0  0  0  0  0  0  0  0  0  0  0
   -2.3731   -6.0821   -1.1336 H   0  0  0  0  0  0  0  0  0  0  0  0
   -0.9266   -4.7747   -3.3094 H   0  0  0  0  0  0  0  0  0  0  0  0
    0.6206   -9.3436   -2.0005 H   0  0  0  0  0  0  0  0  0  0  0  0
    0.4908  -10.3937    0.2335 H   0  0  0  0  0  0  0  0  0  0  0  0
   -0.4004   -6.5812    2.0303 H   0  0  0  0  0  0  0  0  0  0  0  0
  1  2  1  0  0  0  0
  1 27  1  0  0  0  0
  1 28  1  0  0  0  0
  1 29  1  0  0  0  0
  2  3  1  0  0  0  0
  2 26  1  0  0  0  0
  3  4  2  0  0  0  0
  4  5  1  0  0  0  0
  4 30  1  0  0  0  0
  5  6  1  0  0  0  0
  5 26  2  0  0  0  0
  6  7  2  0  0  0  0
  6 31  1  0  0  0  0
  7  8  1  0  0  0  0
  8  9  2  0  0  0  0
  8 32  1  0  0  0  0
  9 10  1  0  0  0  0
  9 26  1  0  0  0  0
 10 11  1  0  0  0  0
 10 33  1  0  0  0  0
 11 12  2  0  0  0  0
 13 14  1  0  0  0  0
 13 25  1  0  0  0  0
 13 11  1  0  0  0  0
 13 34  1  6  0  0  0
 14 15  1  0  0  0  0
 14 35  1  0  0  0  0
 14 36  1  0  0  0  0
 15 16  1  0  0  0  0
 15 37  1  0  0  0  0
 16 17  2  0  0  0  0
 16 18  2  0  0  0  0
 16 19  1  0  0  0  0
 19 20  1  0  0  0  0
 19 25  2  0  0  0  0
 20 21  2  0  0  0  0
 20 38  1  0  0  0  0
 21 22  1  0  0  0  0
 21 39  1  0  0  0  0
 22 23  1  0  0  0  0
 22 24  2  0  0  0  0
 24 25  1  0  0  0  0
 24 40  1  0  0  0  0
M  END
$$$$
