
 OpenBabel07202414193D

 51 54  0  0  0  0  0  0  0  0999 V2000
    6.1511   -2.0394   -1.2737 N   0  0  0  0  0  0  0  0  0  0  0  0
    5.5065   -1.1818   -0.6111 C   0  0  0  0  0  0  0  0  0  0  0  0
    4.7294   -0.1480    0.1875 C   0  0  0  0  0  0  0  0  0  0  0  0
    4.7540    1.1685   -0.5847 C   0  0  0  0  0  0  0  0  0  0  0  0
    3.8302    1.4158   -1.6169 C   0  0  0  0  0  0  0  0  0  0  0  0
    3.9725    2.5348   -2.4569 C   0  0  0  0  0  0  0  0  0  0  0  0
    5.0377    3.4177   -2.2789 C   0  0  0  0  0  0  0  0  0  0  0  0
    5.2467    4.5061   -3.1769 N   0  0  0  0  0  0  0  0  0  0  0  0
    6.0748    4.2067   -4.3701 C   0  0  0  0  0  0  0  0  0  0  0  0
    7.5698    4.3384   -4.1656 C   0  0  0  0  0  0  0  0  0  0  0  0
    8.1470    5.3350   -3.3621 C   0  0  0  0  0  0  0  0  0  0  0  0
    9.5302    5.3887   -3.1658 C   0  0  0  0  0  0  0  0  0  0  0  0
   10.3600    4.4514   -3.7761 C   0  0  0  0  0  0  0  0  0  0  0  0
    9.8067    3.4930   -4.6193 C   0  0  0  0  0  0  0  0  0  0  0  0
   10.8298    2.3435   -5.3896 Cl  0  0  0  0  0  0  0  0  0  0  0  0
    8.4271    3.4462   -4.8312 C   0  0  0  0  0  0  0  0  0  0  0  0
    4.5106    5.6713   -3.0068 C   0  0  0  0  0  0  0  0  0  0  0  0
    3.6388    5.7904   -2.1420 O   0  0  0  0  0  0  0  0  0  0  0  0
    4.8521    6.8683   -3.8822 C   0  0  0  0  0  0  0  0  0  0  0  0
    3.9663    7.1570   -5.0752 C   0  0  0  0  0  0  0  0  0  0  0  0
    2.7685    6.4762   -5.2883 C   0  0  0  0  0  0  0  0  0  0  0  0
    1.8876    6.7784   -6.2678 N   0  0  0  0  0  0  0  0  0  0  0  0
    2.2234    7.7845   -7.1002 C   0  0  0  0  0  0  0  0  0  0  0  0
    3.4345    8.4765   -7.0550 C   0  0  0  0  0  0  0  0  0  0  0  0
    3.7799    9.4272   -8.0362 C   0  0  0  0  0  0  0  0  0  0  0  0
    5.0035   10.0865   -7.9803 C   0  0  0  0  0  0  0  0  0  0  0  0
    5.8636    9.8521   -6.9213 C   0  0  0  0  0  0  0  0  0  0  0  0
    5.5207    8.9286   -5.9309 C   0  0  0  0  0  0  0  0  0  0  0  0
    4.3180    8.1778   -5.9994 C   0  0  0  0  0  0  0  0  0  0  0  0
    5.9212    3.2163   -1.2178 C   0  0  0  0  0  0  0  0  0  0  0  0
    5.7847    2.0988   -0.3804 C   0  0  0  0  0  0  0  0  0  0  0  0
    5.1805   -0.0189    1.1773 H   0  0  0  0  0  0  0  0  0  0  0  0
    3.6964   -0.4822    0.3328 H   0  0  0  0  0  0  0  0  0  0  0  0
    3.0095    0.7265   -1.8001 H   0  0  0  0  0  0  0  0  0  0  0  0
    3.2569    2.6913   -3.2594 H   0  0  0  0  0  0  0  0  0  0  0  0
    5.7728    4.8491   -5.2050 H   0  0  0  0  0  0  0  0  0  0  0  0
    5.8357    3.1833   -4.6846 H   0  0  0  0  0  0  0  0  0  0  0  0
    7.5320    6.0721   -2.8531 H   0  0  0  0  0  0  0  0  0  0  0  0
    9.9588    6.1532   -2.5216 H   0  0  0  0  0  0  0  0  0  0  0  0
   11.4305    4.4727   -3.5906 H   0  0  0  0  0  0  0  0  0  0  0  0
    8.0208    2.6937   -5.5049 H   0  0  0  0  0  0  0  0  0  0  0  0
    5.8879    6.7968   -4.2108 H   0  0  0  0  0  0  0  0  0  0  0  0
    4.8068    7.7446   -3.2208 H   0  0  0  0  0  0  0  0  0  0  0  0
    2.4559    5.6392   -4.6659 H   0  0  0  0  0  0  0  0  0  0  0  0
    1.4653    8.0293   -7.8373 H   0  0  0  0  0  0  0  0  0  0  0  0
    3.1045    9.6344   -8.8634 H   0  0  0  0  0  0  0  0  0  0  0  0
    5.2843   10.7856   -8.7709 H   0  0  0  0  0  0  0  0  0  0  0  0
    6.8161   10.3824   -6.8590 H   0  0  0  0  0  0  0  0  0  0  0  0
    6.2246    8.7872   -5.1169 H   0  0  0  0  0  0  0  0  0  0  0  0
    6.7353    3.9143   -1.0420 H   0  0  0  0  0  0  0  0  0  0  0  0
    6.5157    1.9488    0.4121 H   0  0  0  0  0  0  0  0  0  0  0  0
  1  2  3  0  0  0  0
  2  3  1  0  0  0  0
  3  4  1  0  0  0  0
  3 32  1  0  0  0  0
  3 33  1  0  0  0  0
  4  5  1  0  0  0  0
  4 31  2  0  0  0  0
  5  6  2  0  0  0  0
  5 34  1  0  0  0  0
  6  7  1  0  0  0  0
  6 35  1  0  0  0  0
  7  8  1  0  0  0  0
  7 30  2  0  0  0  0
  8  9  1  0  0  0  0
  8 17  1  0  0  0  0
  9 10  1  0  0  0  0
  9 36  1  0  0  0  0
  9 37  1  0  0  0  0
 10 11  1  0  0  0  0
 10 16  2  0  0  0  0
 11 12  2  0  0  0  0
 11 38  1  0  0  0  0
 12 13  1  0  0  0  0
 12 39  1  0  0  0  0
 13 14  2  0  0  0  0
 13 40  1  0  0  0  0
 14 15  1  0  0  0  0
 14 16  1  0  0  0  0
 16 41  1  0  0  0  0
 17 18  2  0  0  0  0
 17 19  1  0  0  0  0
 19 20  1  0  0  0  0
 19 42  1  0  0  0  0
 19 43  1  0  0  0  0
 20 21  1  0  0  0  0
 20 29  2  0  0  0  0
 21 22  2  0  0  0  0
 21 44  1  0  0  0  0
 22 23  1  0  0  0  0
 23 24  2  0  0  0  0
 23 45  1  0  0  0  0
 24 25  1  0  0  0  0
 24 29  1  0  0  0  0
 25 26  2  0  0  0  0
 25 46  1  0  0  0  0
 26 27  1  0  0  0  0
 26 47  1  0  0  0  0
 27 28  2  0  0  0  0
 27 48  1  0  0  0  0
 28 29  1  0  0  0  0
 28 49  1  0  0  0  0
 30 31  1  0  0  0  0
 30 50  1  0  0  0  0
 31 51  1  0  0  0  0
M  END
$$$$
