
 OpenBabel07202414173D

 60 65  0  0  1  0  0  0  0  0999 V2000
    0.9483    0.3123    0.0801 Cl  0  0  0  0  0  0  0  0  0  0  0  0
    2.6627    0.1811    0.0943 C   0  0  0  0  0  0  0  0  0  0  0  0
    3.4429    1.3233    0.0514 C   0  0  0  0  0  0  0  0  0  0  0  0
    4.8354    1.2091    0.0465 C   0  0  0  0  0  0  0  0  0  0  0  0
    5.4510   -0.0525    0.0991 C   0  0  0  0  0  0  0  0  0  0  0  0
    4.6653   -1.2255    0.1427 C   0  0  0  0  0  0  0  0  0  0  0  0
    3.2598   -1.0792    0.1311 C   0  0  0  0  0  0  0  0  0  0  0  0
    5.3232   -2.6196    0.2031 C   0  0  3  0  0  0  0  0  0  0  0  0
    6.8510   -2.5387    0.0192 C   0  0  0  0  0  0  0  0  0  0  0  0
    7.5197   -1.3551    0.6250 N   0  0  0  0  0  0  0  0  0  0  0  0
    7.8092   -1.2574    2.2895 S   0  0  0  0  0  0  0  0  0  0  0  0
    8.7340   -0.1581    2.4824 O   0  0  0  0  0  0  0  0  0  0  0  0
    6.5348   -1.2334    2.9698 O   0  0  0  0  0  0  0  0  0  0  0  0
    8.7110   -2.7665    2.6639 C   0  0  0  0  0  0  0  0  0  0  0  0
    8.8296   -2.9250    4.1720 C   0  0  0  0  0  0  0  0  0  0  0  0
    9.7439   -4.0832    4.6530 C   0  0  0  0  0  0  0  0  0  0  0  0
    8.7037   -4.2959    6.0754 S   0  0  0  0  0  0  0  0  0  0  0  0
    8.4055   -5.6939    6.2964 O   0  0  0  0  0  0  0  0  0  0  0  0
    9.0670   -3.3825    7.1378 O   0  0  0  0  0  0  0  0  0  0  0  0
    7.6047   -3.5534    4.9034 C   0  0  0  0  0  0  0  0  0  0  0  0
    6.9626   -0.1009    0.0665 C   0  0  0  0  0  0  0  0  0  0  0  0
    4.7406   -3.5505   -0.8999 C   0  0  0  0  0  0  0  0  0  0  0  0
    3.7503   -4.4764   -0.2055 C   0  0  0  0  0  0  0  0  0  0  0  0
    3.7142   -4.0570    1.1660 N   0  0  0  0  0  0  0  0  0  0  0  0
    2.7566   -4.5553    2.0948 C   0  0  0  0  0  0  0  0  0  0  0  0
    2.1579   -5.7940    1.8306 C   0  0  0  0  0  0  0  0  0  0  0  0
    1.0887   -6.3059    2.4694 N   0  0  0  0  0  0  0  0  0  0  0  0
    0.5973   -5.5600    3.4744 C   0  0  0  0  0  0  0  0  0  0  0  0
    1.1391   -4.3547    3.9126 C   0  0  0  0  0  0  0  0  0  0  0  0
    0.5728   -3.7043    5.0226 C   0  0  0  0  0  0  0  0  0  0  0  0
    1.0643   -2.4795    5.4501 C   0  0  0  0  0  0  0  0  0  0  0  0
    2.0911   -1.8728    4.7449 C   0  0  0  0  0  0  0  0  0  0  0  0
    2.6696   -2.5178    3.6363 C   0  0  0  0  0  0  0  0  0  0  0  0
    2.2417   -3.8008    3.2004 C   0  0  0  0  0  0  0  0  0  0  0  0
    4.9167   -3.4125    1.4599 C   0  0  0  0  0  0  0  0  0  0  0  0
    5.5832   -3.6010    2.4652 O   0  0  0  0  0  0  0  0  0  0  0  0
    2.9839    2.3058    0.0226 H   0  0  0  0  0  0  0  0  0  0  0  0
    5.4375    2.1164    0.0187 H   0  0  0  0  0  0  0  0  0  0  0  0
    2.6018   -1.9414    0.1618 H   0  0  0  0  0  0  0  0  0  0  0  0
    7.0628   -2.4523   -1.0602 H   0  0  0  0  0  0  0  0  0  0  0  0
    7.3557   -3.4634    0.3111 H   0  0  0  0  0  0  0  0  0  0  0  0
    9.6998   -2.6508    2.2057 H   0  0  0  0  0  0  0  0  0  0  0  0
    8.2151   -3.6295    2.2201 H   0  0  0  0  0  0  0  0  0  0  0  0
    9.1427   -1.9762    4.6333 H   0  0  0  0  0  0  0  0  0  0  0  0
   10.7683   -3.7930    4.8992 H   0  0  0  0  0  0  0  0  0  0  0  0
    9.7577   -4.9737    4.0162 H   0  0  0  0  0  0  0  0  0  0  0  0
    6.9008   -2.8431    5.3358 H   0  0  0  0  0  0  0  0  0  0  0  0
    7.0605   -4.3179    4.3432 H   0  0  0  0  0  0  0  0  0  0  0  0
    7.2977   -0.0054   -0.9739 H   0  0  0  0  0  0  0  0  0  0  0  0
    7.3765    0.7679    0.5924 H   0  0  0  0  0  0  0  0  0  0  0  0
    5.5181   -4.1651   -1.3721 H   0  0  0  0  0  0  0  0  0  0  0  0
    4.2558   -2.9968   -1.7124 H   0  0  0  0  0  0  0  0  0  0  0  0
    4.1381   -5.5028   -0.2387 H   0  0  0  0  0  0  0  0  0  0  0  0
    2.7568   -4.4407   -0.6593 H   0  0  0  0  0  0  0  0  0  0  0  0
    2.5530   -6.4551    1.0663 H   0  0  0  0  0  0  0  0  0  0  0  0
   -0.3016   -5.9690    3.9309 H   0  0  0  0  0  0  0  0  0  0  0  0
   -0.2486   -4.1624    5.5732 H   0  0  0  0  0  0  0  0  0  0  0  0
    0.6354   -1.9962    6.3294 H   0  0  0  0  0  0  0  0  0  0  0  0
    2.4559   -0.8964    5.0559 H   0  0  0  0  0  0  0  0  0  0  0  0
    3.4701   -1.9882    3.1260 H   0  0  0  0  0  0  0  0  0  0  0  0
  1  2  1  0  0  0  0
  2  3  1  0  0  0  0
  2  7  2  0  0  0  0
  3  4  2  0  0  0  0
  3 37  1  0  0  0  0
  4  5  1  0  0  0  0
  4 38  1  0  0  0  0
  5  6  2  0  0  0  0
  5 21  1  0  0  0  0
  6  7  1  0  0  0  0
  6  8  1  0  0  0  0
  7 39  1  0  0  0  0
  8  9  1  0  0  0  0
  8 22  1  0  0  0  0
  8 35  1  0  0  0  0
  9 10  1  0  0  0  0
  9 40  1  0  0  0  0
  9 41  1  0  0  0  0
 10 11  1  0  0  0  0
 10 21  1  0  0  0  0
 11 12  2  0  0  0  0
 11 13  2  0  0  0  0
 11 14  1  0  0  0  0
 14 15  1  0  0  0  0
 14 42  1  0  0  0  0
 14 43  1  0  0  0  0
 15 16  1  0  0  0  0
 15 20  1  0  0  0  0
 15 44  1  0  0  0  0
 16 17  1  0  0  0  0
 16 45  1  0  0  0  0
 16 46  1  0  0  0  0
 17 18  2  0  0  0  0
 17 19  2  0  0  0  0
 17 20  1  0  0  0  0
 20 47  1  0  0  0  0
 20 48  1  0  0  0  0
 21 49  1  0  0  0  0
 21 50  1  0  0  0  0
 22 23  1  0  0  0  0
 22 51  1  0  0  0  0
 22 52  1  0  0  0  0
 23 24  1  0  0  0  0
 23 53  1  0  0  0  0
 23 54  1  0  0  0  0
 24 25  1  0  0  0  0
 24 35  1  0  0  0  0
 25 26  1  0  0  0  0
 25 34  2  0  0  0  0
 26 27  2  0  0  0  0
 26 55  1  0  0  0  0
 27 28  1  0  0  0  0
 28 29  2  0  0  0  0
 28 56  1  0  0  0  0
 29 30  1  0  0  0  0
 29 34  1  0  0  0  0
 30 31  2  0  0  0  0
 30 57  1  0  0  0  0
 31 32  1  0  0  0  0
 31 58  1  0  0  0  0
 32 33  2  0  0  0  0
 32 59  1  0  0  0  0
 33 34  1  0  0  0  0
 33 60  1  0  0  0  0
 35 36  2  0  0  0  0
M  END
$$$$
