
 OpenBabel07202414163D

 59 63  0  0  0  0  0  0  0  0999 V2000
   -2.0479   -0.2615   -0.3438 Cl  0  0  0  0  0  0  0  0  0  0  0  0
   -0.3313   -0.1319   -0.2462 C   0  0  0  0  0  0  0  0  0  0  0  0
    0.2736    1.1288   -0.3064 C   0  0  0  0  0  0  0  0  0  0  0  0
    1.6588    1.2572   -0.1868 C   0  0  0  0  0  0  0  0  0  0  0  0
    2.3386    2.4818   -0.2562 N   0  0  0  0  0  0  0  0  0  0  0  0
    1.7428    3.7271    0.2637 C   0  0  0  0  0  0  0  0  0  0  0  0
    1.9693    3.8598    1.7760 C   0  0  0  0  0  0  0  0  0  0  0  0
    3.2558    3.9455    2.3418 C   0  0  0  0  0  0  0  0  0  0  0  0
    3.4297    4.0813    3.7248 C   0  0  0  0  0  0  0  0  0  0  0  0
    2.3229    4.1435    4.5661 C   0  0  0  0  0  0  0  0  0  0  0  0
    1.0423    4.0801    4.0256 C   0  0  0  0  0  0  0  0  0  0  0  0
    0.8655    3.9372    2.6443 C   0  0  0  0  0  0  0  0  0  0  0  0
    2.2731    4.9470   -0.4998 C   0  0  0  0  0  0  0  0  0  0  0  0
    1.4704    6.1004   -0.5913 C   0  0  0  0  0  0  0  0  0  0  0  0
    1.9569    7.2716   -1.1771 C   0  0  0  0  0  0  0  0  0  0  0  0
    3.2506    7.3088   -1.6899 C   0  0  0  0  0  0  0  0  0  0  0  0
    4.0452    6.1662   -1.6484 C   0  0  0  0  0  0  0  0  0  0  0  0
    3.5606    4.9942   -1.0614 C   0  0  0  0  0  0  0  0  0  0  0  0
    2.4212    0.0702   -0.1399 C   0  0  0  0  0  0  0  0  0  0  0  0
    1.8250   -1.2038   -0.0644 C   0  0  0  0  0  0  0  0  0  0  0  0
    2.6231   -2.4911   -0.0306 C   0  0  0  0  0  0  0  0  0  0  0  0
    3.9006   -2.5100    0.7893 C   0  0  0  0  0  0  0  0  0  0  0  0
    4.2368   -1.6194    1.5612 O   0  0  0  0  0  0  0  0  0  0  0  0
    4.6512   -3.6728    0.5666 N   0  0  0  0  0  0  0  0  0  0  0  0
    5.8934   -3.8444    1.2361 C   0  0  0  0  0  0  0  0  0  0  0  0
    5.9603   -3.7379    2.6229 C   0  0  0  0  0  0  0  0  0  0  0  0
    7.1226   -3.8554    3.3422 N   0  0  0  0  0  0  0  0  0  0  0  0
    8.2496   -3.8546    2.6044 C   0  0  0  0  0  0  0  0  0  0  0  0
    8.2906   -3.7477    1.2157 C   0  0  0  0  0  0  0  0  0  0  0  0
    9.4493   -3.3559    0.5308 C   0  0  0  0  0  0  0  0  0  0  0  0
    9.4745   -3.3242   -0.8609 C   0  0  0  0  0  0  0  0  0  0  0  0
    8.3868   -3.8113   -1.5744 C   0  0  0  0  0  0  0  0  0  0  0  0
    7.2007   -4.1164   -0.9038 C   0  0  0  0  0  0  0  0  0  0  0  0
    7.0974   -3.9501    0.4982 C   0  0  0  0  0  0  0  0  0  0  0  0
    0.4335   -1.2879   -0.1196 C   0  0  0  0  0  0  0  0  0  0  0  0
   -0.3599    1.9925   -0.4642 H   0  0  0  0  0  0  0  0  0  0  0  0
    3.2866    2.3791    0.0936 H   0  0  0  0  0  0  0  0  0  0  0  0
    0.6639    3.7203    0.0735 H   0  0  0  0  0  0  0  0  0  0  0  0
    4.1399    3.9264    1.7114 H   0  0  0  0  0  0  0  0  0  0  0  0
    4.4313    4.1465    4.1433 H   0  0  0  0  0  0  0  0  0  0  0  0
    2.4582    4.2482    5.6407 H   0  0  0  0  0  0  0  0  0  0  0  0
    0.1770    4.1430    4.6799 H   0  0  0  0  0  0  0  0  0  0  0  0
   -0.1478    3.8952    2.2511 H   0  0  0  0  0  0  0  0  0  0  0  0
    0.4585    6.0977   -0.1909 H   0  0  0  0  0  0  0  0  0  0  0  0
    1.3298    8.1585   -1.2211 H   0  0  0  0  0  0  0  0  0  0  0  0
    3.6393    8.2269   -2.1224 H   0  0  0  0  0  0  0  0  0  0  0  0
    5.0492    6.1880   -2.0643 H   0  0  0  0  0  0  0  0  0  0  0  0
    4.2064    4.1207   -1.0416 H   0  0  0  0  0  0  0  0  0  0  0  0
    3.5061    0.1512   -0.1334 H   0  0  0  0  0  0  0  0  0  0  0  0
    2.8512   -2.7738   -1.0645 H   0  0  0  0  0  0  0  0  0  0  0  0
    1.9956   -3.2791    0.4063 H   0  0  0  0  0  0  0  0  0  0  0  0
    4.5844   -4.0507   -0.3678 H   0  0  0  0  0  0  0  0  0  0  0  0
    5.0853   -3.5537    3.2307 H   0  0  0  0  0  0  0  0  0  0  0  0
    9.1631   -3.9427    3.1865 H   0  0  0  0  0  0  0  0  0  0  0  0
   10.3042   -2.9777    1.0868 H   0  0  0  0  0  0  0  0  0  0  0  0
   10.3415   -2.9276   -1.3831 H   0  0  0  0  0  0  0  0  0  0  0  0
    8.4431   -3.8984   -2.6566 H   0  0  0  0  0  0  0  0  0  0  0  0
    6.3557   -4.4625   -1.4932 H   0  0  0  0  0  0  0  0  0  0  0  0
   -0.0627   -2.2552   -0.0792 H   0  0  0  0  0  0  0  0  0  0  0  0
  1  2  1  0  0  0  0
  2  3  2  0  0  0  0
  2 35  1  0  0  0  0
  3  4  1  0  0  0  0
  3 36  1  0  0  0  0
  4  5  1  0  0  0  0
  4 19  2  0  0  0  0
  5  6  1  0  0  0  0
  5 37  1  0  0  0  0
  6  7  1  0  0  0  0
  6 13  1  0  0  0  0
  6 38  1  0  0  0  0
  7  8  2  0  0  0  0
  7 12  1  0  0  0  0
  8  9  1  0  0  0  0
  8 39  1  0  0  0  0
  9 10  2  0  0  0  0
  9 40  1  0  0  0  0
 10 11  1  0  0  0  0
 10 41  1  0  0  0  0
 11 12  2  0  0  0  0
 11 42  1  0  0  0  0
 12 43  1  0  0  0  0
 13 14  2  0  0  0  0
 13 18  1  0  0  0  0
 14 15  1  0  0  0  0
 14 44  1  0  0  0  0
 15 16  2  0  0  0  0
 15 45  1  0  0  0  0
 16 17  1  0  0  0  0
 16 46  1  0  0  0  0
 17 18  2  0  0  0  0
 17 47  1  0  0  0  0
 18 48  1  0  0  0  0
 19 20  1  0  0  0  0
 19 49  1  0  0  0  0
 20 21  1  0  0  0  0
 20 35  2  0  0  0  0
 21 22  1  0  0  0  0
 21 50  1  0  0  0  0
 21 51  1  0  0  0  0
 22 23  2  0  0  0  0
 22 24  1  0  0  0  0
 24 25  1  0  0  0  0
 24 52  1  0  0  0  0
 25 26  2  0  0  0  0
 25 34  1  0  0  0  0
 26 27  1  0  0  0  0
 26 53  1  0  0  0  0
 27 28  2  0  0  0  0
 28 29  1  0  0  0  0
 28 54  1  0  0  0  0
 29 30  2  0  0  0  0
 29 34  1  0  0  0  0
 30 31  1  0  0  0  0
 30 55  1  0  0  0  0
 31 32  2  0  0  0  0
 31 56  1  0  0  0  0
 32 33  1  0  0  0  0
 32 57  1  0  0  0  0
 33 34  2  0  0  0  0
 33 58  1  0  0  0  0
 35 59  1  0  0  0  0
M  END
$$$$
