
 OpenBabel07202414193D

 44 46  0  0  0  0  0  0  0  0999 V2000
    3.1611   -1.9889   -1.6496 O   0  0  0  0  0  0  0  0  0  0  0  0
    3.3442   -1.0397   -0.8943 C   0  0  0  0  0  0  0  0  0  0  0  0
    2.9354   -1.0726    0.4241 N   0  0  0  0  0  0  0  0  0  0  0  0
    2.2883   -2.2324    1.0129 C   0  0  0  0  0  0  0  0  0  0  0  0
    3.2570   -3.2876    1.5467 C   0  0  0  0  0  0  0  0  0  0  0  0
    4.1097   -2.7732    2.6950 C   0  0  0  0  0  0  0  0  0  0  0  0
    4.0378   -1.5966    3.0610 O   0  0  0  0  0  0  0  0  0  0  0  0
    4.9566   -3.6843    3.3171 N   0  0  0  0  0  0  0  0  0  0  0  0
    5.6610   -3.2871    4.5362 C   0  0  0  0  0  0  0  0  0  0  0  0
    7.1659   -3.4987    4.4028 C   0  0  0  0  0  0  0  0  0  0  0  0
    7.4870   -4.9246    3.9594 C   0  0  0  0  0  0  0  0  0  0  0  0
    6.7101   -5.2930    2.6960 C   0  0  0  0  0  0  0  0  0  0  0  0
    5.2102   -5.0547    2.8686 C   0  0  0  0  0  0  0  0  0  0  0  0
    4.0200    0.2064   -1.3606 C   0  0  0  0  0  0  0  0  0  0  0  0
    4.8189    0.9147   -0.4624 C   0  0  0  0  0  0  0  0  0  0  0  0
    5.4819    2.0556   -0.7583 N   0  0  0  0  0  0  0  0  0  0  0  0
    5.3639    2.5019   -2.0271 C   0  0  0  0  0  0  0  0  0  0  0  0
    4.6189    1.8743   -3.0285 C   0  0  0  0  0  0  0  0  0  0  0  0
    4.5646    2.4061   -4.3309 C   0  0  0  0  0  0  0  0  0  0  0  0
    3.8234    1.7752   -5.3294 C   0  0  0  0  0  0  0  0  0  0  0  0
    3.1283    0.6130   -5.0352 C   0  0  0  0  0  0  0  0  0  0  0  0
    3.1698    0.0816   -3.7399 C   0  0  0  0  0  0  0  0  0  0  0  0
    3.9205    0.6899   -2.7010 C   0  0  0  0  0  0  0  0  0  0  0  0
    3.0890   -0.2896    1.0493 H   0  0  0  0  0  0  0  0  0  0  0  0
    1.6453   -2.6881    0.2521 H   0  0  0  0  0  0  0  0  0  0  0  0
    1.6436   -1.8614    1.8165 H   0  0  0  0  0  0  0  0  0  0  0  0
    3.9005   -3.6485    0.7383 H   0  0  0  0  0  0  0  0  0  0  0  0
    2.6627   -4.1249    1.9326 H   0  0  0  0  0  0  0  0  0  0  0  0
    5.2658   -3.9023    5.3544 H   0  0  0  0  0  0  0  0  0  0  0  0
    5.4581   -2.2433    4.7937 H   0  0  0  0  0  0  0  0  0  0  0  0
    7.6573   -3.2870    5.3590 H   0  0  0  0  0  0  0  0  0  0  0  0
    7.5695   -2.7921    3.6672 H   0  0  0  0  0  0  0  0  0  0  0  0
    7.2325   -5.6248    4.7643 H   0  0  0  0  0  0  0  0  0  0  0  0
    8.5629   -5.0216    3.7761 H   0  0  0  0  0  0  0  0  0  0  0  0
    6.8957   -6.3412    2.4375 H   0  0  0  0  0  0  0  0  0  0  0  0
    7.0778   -4.6825    1.8618 H   0  0  0  0  0  0  0  0  0  0  0  0
    4.7979   -5.7332    3.6252 H   0  0  0  0  0  0  0  0  0  0  0  0
    4.7053   -5.2744    1.9264 H   0  0  0  0  0  0  0  0  0  0  0  0
    4.9783    0.5705    0.5562 H   0  0  0  0  0  0  0  0  0  0  0  0
    5.9177    3.4173   -2.2281 H   0  0  0  0  0  0  0  0  0  0  0  0
    5.1050    3.3170   -4.5797 H   0  0  0  0  0  0  0  0  0  0  0  0
    3.7921    2.1903   -6.3343 H   0  0  0  0  0  0  0  0  0  0  0  0
    2.5499    0.1088   -5.8043 H   0  0  0  0  0  0  0  0  0  0  0  0
    2.6108   -0.8335   -3.5619 H   0  0  0  0  0  0  0  0  0  0  0  0
  1  2  2  0  0  0  0
  2  3  1  0  0  0  0
  2 14  1  0  0  0  0
  3  4  1  0  0  0  0
  3 24  1  0  0  0  0
  4  5  1  0  0  0  0
  4 25  1  0  0  0  0
  4 26  1  0  0  0  0
  5  6  1  0  0  0  0
  5 27  1  0  0  0  0
  5 28  1  0  0  0  0
  6  7  2  0  0  0  0
  6  8  1  0  0  0  0
  8  9  1  0  0  0  0
  8 13  1  0  0  0  0
  9 10  1  0  0  0  0
  9 29  1  0  0  0  0
  9 30  1  0  0  0  0
 10 11  1  0  0  0  0
 10 31  1  0  0  0  0
 10 32  1  0  0  0  0
 11 12  1  0  0  0  0
 11 33  1  0  0  0  0
 11 34  1  0  0  0  0
 12 13  1  0  0  0  0
 12 35  1  0  0  0  0
 12 36  1  0  0  0  0
 13 37  1  0  0  0  0
 13 38  1  0  0  0  0
 14 15  1  0  0  0  0
 14 23  2  0  0  0  0
 15 16  2  0  0  0  0
 15 39  1  0  0  0  0
 16 17  1  0  0  0  0
 17 18  2  0  0  0  0
 17 40  1  0  0  0  0
 18 19  1  0  0  0  0
 18 23  1  0  0  0  0
 19 20  2  0  0  0  0
 19 41  1  0  0  0  0
 20 21  1  0  0  0  0
 20 42  1  0  0  0  0
 21 22  2  0  0  0  0
 21 43  1  0  0  0  0
 22 23  1  0  0  0  0
 22 44  1  0  0  0  0
M  END
$$$$
