
 OpenBabel07202414133D

 77 82  0  0  1  0  0  0  0  0999 V2000
   17.2589    5.6220    8.4919 C   0  0  0  0  0  0  0  0  0  0  0  0
   17.4519    4.9766    7.1248 C   0  0  0  0  0  0  0  0  0  0  0  0
   16.2923    4.1920    6.6658 N   0  0  0  0  0  0  0  0  0  0  0  0
   16.5777    3.5696    5.3448 C   0  0  0  0  0  0  0  0  0  0  0  0
   16.7298    4.5743    4.1809 C   0  0  0  0  0  0  0  0  0  0  0  0
   15.6079    5.5270    4.1214 N   0  0  0  0  0  0  0  0  0  0  0  0
   14.7441    5.5334    3.0339 C   0  0  0  0  0  0  0  0  0  0  0  0
   14.1964    6.7649    2.6199 C   0  0  0  0  0  0  0  0  0  0  0  0
   13.3933    6.8522    1.4774 C   0  0  0  0  0  0  0  0  0  0  0  0
   13.0993    5.7226    0.7089 C   0  0  0  0  0  0  0  0  0  0  0  0
   12.3591    5.7907   -0.4873 N   0  0  0  0  0  0  0  0  0  0  0  0
   12.1559    6.9489   -1.2285 C   0  0  0  0  0  0  0  0  0  0  0  0
   12.6005    8.0661   -0.9659 O   0  0  0  0  0  0  0  0  0  0  0  0
   11.3635    6.7276   -2.5217 C   0  0  0  0  0  0  0  0  0  0  0  0
   12.2142    6.4516   -3.7013 N   0  0  0  0  0  0  0  0  0  0  0  0
   12.9758    5.1998   -3.6348 C   0  0  0  0  0  0  0  0  0  0  0  0
   13.5477    4.8386   -5.0252 C   0  0  2  0  0  0  0  0  0  0  0  0
   14.5031    3.6306   -4.9811 C   0  0  0  0  0  0  0  0  0  0  0  0
   14.2386    2.6247   -5.6385 O   0  0  0  0  0  0  0  0  0  0  0  0
   15.6482    3.7880   -4.2124 N   0  0  0  0  0  0  0  0  0  0  0  0
   16.7069    2.8389   -4.0854 C   0  0  0  0  0  0  0  0  0  0  0  0
   16.8515    1.7592   -4.9586 C   0  0  0  0  0  0  0  0  0  0  0  0
   17.6653    0.7017   -4.7380 N   0  0  0  0  0  0  0  0  0  0  0  0
   18.4575    0.7742   -3.6528 C   0  0  0  0  0  0  0  0  0  0  0  0
   18.5947    1.9073   -2.8555 C   0  0  0  0  0  0  0  0  0  0  0  0
   19.6277    2.0044   -1.9058 C   0  0  0  0  0  0  0  0  0  0  0  0
   19.7295    3.1191   -1.0793 C   0  0  0  0  0  0  0  0  0  0  0  0
   18.7675    4.1169   -1.1600 C   0  0  0  0  0  0  0  0  0  0  0  0
   17.7529    4.0402   -2.1209 C   0  0  0  0  0  0  0  0  0  0  0  0
   17.6577    2.9564   -3.0295 C   0  0  0  0  0  0  0  0  0  0  0  0
   14.1743    6.0322   -5.7275 C   0  0  0  0  0  0  0  0  0  0  0  0
   14.9110    5.8509   -6.9108 C   0  0  0  0  0  0  0  0  0  0  0  0
   15.5245    6.9353   -7.5298 C   0  0  0  0  0  0  0  0  0  0  0  0
   16.4565    6.6871   -8.9536 Cl  0  0  0  0  0  0  0  0  0  0  0  0
   15.3954    8.2135   -6.9973 C   0  0  0  0  0  0  0  0  0  0  0  0
   14.6090    8.4144   -5.8612 C   0  0  0  0  0  0  0  0  0  0  0  0
   13.9674    7.3338   -5.2348 C   0  0  0  0  0  0  0  0  0  0  0  0
   13.0955    7.5906   -4.0204 C   0  0  0  0  0  0  0  0  0  0  0  0
   13.5750    4.4833    1.1518 C   0  0  0  0  0  0  0  0  0  0  0  0
   14.3906    4.4064    2.2858 C   0  0  0  0  0  0  0  0  0  0  0  0
   14.8288    3.1862    2.6479 F   0  0  0  0  0  0  0  0  0  0  0  0
   15.1393    6.0897    5.4009 C   0  0  0  0  0  0  0  0  0  0  0  0
   15.0631    5.0034    6.4999 C   0  0  0  0  0  0  0  0  0  0  0  0
   18.1650    6.1698    8.7714 H   0  0  0  0  0  0  0  0  0  0  0  0
   17.0659    4.8679    9.2606 H   0  0  0  0  0  0  0  0  0  0  0  0
   16.4381    6.3450    8.4942 H   0  0  0  0  0  0  0  0  0  0  0  0
   18.3169    4.3054    7.2005 H   0  0  0  0  0  0  0  0  0  0  0  0
   17.7307    5.7627    6.4149 H   0  0  0  0  0  0  0  0  0  0  0  0
   15.7576    2.8780    5.1100 H   0  0  0  0  0  0  0  0  0  0  0  0
   17.4778    2.9470    5.4120 H   0  0  0  0  0  0  0  0  0  0  0  0
   16.8738    4.0345    3.2384 H   0  0  0  0  0  0  0  0  0  0  0  0
   17.6530    5.1518    4.3115 H   0  0  0  0  0  0  0  0  0  0  0  0
   14.4424    7.6659    3.1561 H   0  0  0  0  0  0  0  0  0  0  0  0
   13.0124    7.8365    1.2223 H   0  0  0  0  0  0  0  0  0  0  0  0
   12.0716    4.9121   -0.9003 H   0  0  0  0  0  0  0  0  0  0  0  0
   10.7731    7.6349   -2.6928 H   0  0  0  0  0  0  0  0  0  0  0  0
   10.6293    5.9258   -2.3804 H   0  0  0  0  0  0  0  0  0  0  0  0
   12.3188    4.3812   -3.3143 H   0  0  0  0  0  0  0  0  0  0  0  0
   13.7696    5.2792   -2.8826 H   0  0  0  0  0  0  0  0  0  0  0  0
   12.6943    4.5336   -5.6493 H   0  0  0  0  0  0  0  0  0  0  0  0
   15.6768    4.5773   -3.5868 H   0  0  0  0  0  0  0  0  0  0  0  0
   16.3119    1.6963   -5.8992 H   0  0  0  0  0  0  0  0  0  0  0  0
   18.9876   -0.1467   -3.4199 H   0  0  0  0  0  0  0  0  0  0  0  0
   20.3875    1.2263   -1.8355 H   0  0  0  0  0  0  0  0  0  0  0  0
   20.5511    3.2050   -0.3730 H   0  0  0  0  0  0  0  0  0  0  0  0
   18.8114    4.9686   -0.4849 H   0  0  0  0  0  0  0  0  0  0  0  0
   17.0467    4.8639   -2.1501 H   0  0  0  0  0  0  0  0  0  0  0  0
   15.0085    4.8601   -7.3520 H   0  0  0  0  0  0  0  0  0  0  0  0
   15.8901    9.0573   -7.4697 H   0  0  0  0  0  0  0  0  0  0  0  0
   14.4932    9.4235   -5.4695 H   0  0  0  0  0  0  0  0  0  0  0  0
   12.4723    8.4695   -4.2295 H   0  0  0  0  0  0  0  0  0  0  0  0
   13.7657    7.8326   -3.1878 H   0  0  0  0  0  0  0  0  0  0  0  0
   13.3667    3.5685    0.6116 H   0  0  0  0  0  0  0  0  0  0  0  0
   14.1457    6.5458    5.3103 H   0  0  0  0  0  0  0  0  0  0  0  0
   15.8219    6.8904    5.7089 H   0  0  0  0  0  0  0  0  0  0  0  0
   14.2404    4.3182    6.2523 H   0  0  0  0  0  0  0  0  0  0  0  0
   14.7655    5.4571    7.4511 H   0  0  0  0  0  0  0  0  0  0  0  0
  1  2  1  0  0  0  0
  1 44  1  0  0  0  0
  1 45  1  0  0  0  0
  1 46  1  0  0  0  0
  2  3  1  0  0  0  0
  2 47  1  0  0  0  0
  2 48  1  0  0  0  0
  3  4  1  0  0  0  0
  3 43  1  0  0  0  0
  4  5  1  0  0  0  0
  4 49  1  0  0  0  0
  4 50  1  0  0  0  0
  5  6  1  0  0  0  0
  5 51  1  0  0  0  0
  5 52  1  0  0  0  0
  6  7  1  0  0  0  0
  6 42  1  0  0  0  0
  7  8  1  0  0  0  0
  7 40  2  0  0  0  0
  8  9  2  0  0  0  0
  8 53  1  0  0  0  0
  9 10  1  0  0  0  0
  9 54  1  0  0  0  0
 10 11  1  0  0  0  0
 10 39  2  0  0  0  0
 11 12  1  0  0  0  0
 11 55  1  0  0  0  0
 12 13  2  0  0  0  0
 12 14  1  0  0  0  0
 14 15  1  0  0  0  0
 14 56  1  0  0  0  0
 14 57  1  0  0  0  0
 15 16  1  0  0  0  0
 15 38  1  0  0  0  0
 16 17  1  0  0  0  0
 16 58  1  0  0  0  0
 16 59  1  0  0  0  0
 17 31  1  0  0  0  0
 17 18  1  0  0  0  0
 17 60  1  6  0  0  0
 18 19  2  0  0  0  0
 18 20  1  0  0  0  0
 20 21  1  0  0  0  0
 20 61  1  0  0  0  0
 21 22  1  0  0  0  0
 21 30  2  0  0  0  0
 22 23  2  0  0  0  0
 22 62  1  0  0  0  0
 23 24  1  0  0  0  0
 24 25  2  0  0  0  0
 24 63  1  0  0  0  0
 25 26  1  0  0  0  0
 25 30  1  0  0  0  0
 26 27  2  0  0  0  0
 26 64  1  0  0  0  0
 27 28  1  0  0  0  0
 27 65  1  0  0  0  0
 28 29  2  0  0  0  0
 28 66  1  0  0  0  0
 29 30  1  0  0  0  0
 29 67  1  0  0  0  0
 31 32  1  0  0  0  0
 31 37  2  0  0  0  0
 32 33  2  0  0  0  0
 32 68  1  0  0  0  0
 33 34  1  0  0  0  0
 33 35  1  0  0  0  0
 35 36  2  0  0  0  0
 35 69  1  0  0  0  0
 36 37  1  0  0  0  0
 36 70  1  0  0  0  0
 37 38  1  0  0  0  0
 38 71  1  0  0  0  0
 38 72  1  0  0  0  0
 39 40  1  0  0  0  0
 39 73  1  0  0  0  0
 40 41  1  0  0  0  0
 42 43  1  0  0  0  0
 42 74  1  0  0  0  0
 42 75  1  0  0  0  0
 43 76  1  0  0  0  0
 43 77  1  0  0  0  0
M  END
$$$$
