
 OpenBabel07202414203D

 39 42  0  0  1  0  0  0  0  0999 V2000
    0.9635   -0.0790    0.1292 O   0  0  0  0  0  0  0  0  0  0  0  0
    2.3734   -0.0360   -0.0701 C   0  0  3  0  0  0  0  0  0  0  0  0
    2.7327    0.0707   -1.5608 C   0  0  0  0  0  0  0  0  0  0  0  0
    1.9165    0.8063   -2.4423 C   0  0  0  0  0  0  0  0  0  0  0  0
    2.2441    0.9373   -3.7954 C   0  0  0  0  0  0  0  0  0  0  0  0
    3.4174    0.3734   -4.2893 C   0  0  0  0  0  0  0  0  0  0  0  0
    4.2662   -0.3043   -3.4234 C   0  0  0  0  0  0  0  0  0  0  0  0
    5.7473   -0.9579   -4.0074 Cl  0  0  0  0  0  0  0  0  0  0  0  0
    3.9336   -0.4536   -2.0757 C   0  0  0  0  0  0  0  0  0  0  0  0
    2.9298   -1.2622    0.6522 C   0  0  0  0  0  0  0  0  0  0  0  0
    4.2269   -0.8160    1.3031 C   0  0  0  0  0  0  0  0  0  0  0  0
    4.2768    0.6183    1.2158 N   0  0  0  0  0  0  0  0  0  0  0  0
    5.4821    1.3933    1.3534 C   0  0  0  0  0  0  0  0  0  0  0  0
    5.5687    2.6138    0.6584 C   0  0  0  0  0  0  0  0  0  0  0  0
    6.6450    3.4302    0.6146 N   0  0  0  0  0  0  0  0  0  0  0  0
    7.7145    3.0332    1.3196 C   0  0  0  0  0  0  0  0  0  0  0  0
    7.7824    1.8562    2.0566 C   0  0  0  0  0  0  0  0  0  0  0  0
    8.9636    1.5582    2.7600 C   0  0  0  0  0  0  0  0  0  0  0  0
    9.0781    0.3929    3.5064 C   0  0  0  0  0  0  0  0  0  0  0  0
    8.0078   -0.4813    3.5594 C   0  0  0  0  0  0  0  0  0  0  0  0
    6.8225   -0.1826    2.8744 C   0  0  0  0  0  0  0  0  0  0  0  0
    6.6543    0.9901    2.0841 C   0  0  0  0  0  0  0  0  0  0  0  0
    3.0829    1.1241    0.6608 C   0  0  0  0  0  0  0  0  0  0  0  0
    2.6965    2.2874    0.6663 O   0  0  0  0  0  0  0  0  0  0  0  0
    0.5290   -0.2674   -0.7170 H   0  0  0  0  0  0  0  0  0  0  0  0
    1.0224    1.3143   -2.0796 H   0  0  0  0  0  0  0  0  0  0  0  0
    1.5906    1.4977   -4.4601 H   0  0  0  0  0  0  0  0  0  0  0  0
    3.6736    0.4841   -5.3391 H   0  0  0  0  0  0  0  0  0  0  0  0
    4.6464   -0.9631   -1.4349 H   0  0  0  0  0  0  0  0  0  0  0  0
    3.0779   -2.1259   -0.0055 H   0  0  0  0  0  0  0  0  0  0  0  0
    2.2353   -1.6042    1.4317 H   0  0  0  0  0  0  0  0  0  0  0  0
    5.0940   -1.2677    0.8128 H   0  0  0  0  0  0  0  0  0  0  0  0
    4.1834   -1.1117    2.3546 H   0  0  0  0  0  0  0  0  0  0  0  0
    4.7602    2.9827    0.0338 H   0  0  0  0  0  0  0  0  0  0  0  0
    8.5554    3.7204    1.2696 H   0  0  0  0  0  0  0  0  0  0  0  0
    9.8075    2.2444    2.7340 H   0  0  0  0  0  0  0  0  0  0  0  0
    9.9943    0.1764    4.0485 H   0  0  0  0  0  0  0  0  0  0  0  0
    8.0809   -1.3960    4.1428 H   0  0  0  0  0  0  0  0  0  0  0  0
    6.0279   -0.9014    3.0045 H   0  0  0  0  0  0  0  0  0  0  0  0
  1  2  1  0  0  0  0
  1 25  1  0  0  0  0
  2  3  1  0  0  0  0
  2 10  1  0  0  0  0
  2 23  1  0  0  0  0
  3  4  1  0  0  0  0
  3  9  2  0  0  0  0
  4  5  2  0  0  0  0
  4 26  1  0  0  0  0
  5  6  1  0  0  0  0
  5 27  1  0  0  0  0
  6  7  2  0  0  0  0
  6 28  1  0  0  0  0
  7  8  1  0  0  0  0
  7  9  1  0  0  0  0
  9 29  1  0  0  0  0
 10 11  1  0  0  0  0
 10 30  1  0  0  0  0
 10 31  1  0  0  0  0
 11 12  1  0  0  0  0
 11 32  1  0  0  0  0
 11 33  1  0  0  0  0
 12 13  1  0  0  0  0
 12 23  1  0  0  0  0
 13 14  1  0  0  0  0
 13 22  2  0  0  0  0
 14 15  2  0  0  0  0
 14 34  1  0  0  0  0
 15 16  1  0  0  0  0
 16 17  2  0  0  0  0
 16 35  1  0  0  0  0
 17 18  1  0  0  0  0
 17 22  1  0  0  0  0
 18 19  2  0  0  0  0
 18 36  1  0  0  0  0
 19 20  1  0  0  0  0
 19 37  1  0  0  0  0
 20 21  2  0  0  0  0
 20 38  1  0  0  0  0
 21 22  1  0  0  0  0
 21 39  1  0  0  0  0
 23 24  2  0  0  0  0
M  END
$$$$
