
 OpenBabel07202414173D

 52 56  0  0  1  0  0  0  0  0999 V2000
    0.9117    0.0362   -0.0488 Cl  0  0  0  0  0  0  0  0  0  0  0  0
    2.6265   -0.0334    0.0454 C   0  0  0  0  0  0  0  0  0  0  0  0
    3.3681    1.1366   -0.0677 C   0  0  0  0  0  0  0  0  0  0  0  0
    4.7670    1.0950   -0.0513 C   0  0  0  0  0  0  0  0  0  0  0  0
    5.5477    2.2171   -0.2276 O   0  0  0  0  0  0  0  0  0  0  0  0
    4.9001    3.3103   -0.8961 C   0  0  0  0  0  0  0  0  0  0  0  0
    5.8860    4.2848   -1.5003 C   0  0  0  0  0  0  0  0  0  0  0  0
    7.1743    3.8980   -1.8559 C   0  0  0  0  0  0  0  0  0  0  0  0
    7.9947    4.8234   -2.4826 C   0  0  0  0  0  0  0  0  0  0  0  0
    7.6194    6.0818   -2.7914 N   0  0  0  0  0  0  0  0  0  0  0  0
    6.3593    6.4326   -2.4585 C   0  0  0  0  0  0  0  0  0  0  0  0
    5.4681    5.5833   -1.8199 C   0  0  0  0  0  0  0  0  0  0  0  0
    5.4176   -0.1367    0.1704 C   0  0  0  0  0  0  0  0  0  0  0  0
    4.6602   -1.3135    0.3128 C   0  0  0  0  0  0  0  0  0  0  0  0
    3.2616   -1.2548    0.2319 C   0  0  0  0  0  0  0  0  0  0  0  0
    5.3227   -2.6393    0.6207 C   0  0  3  0  0  0  0  0  0  0  0  0
    5.2248   -3.0519    2.1083 C   0  0  0  0  0  0  0  0  0  0  0  0
    5.2565   -4.2389    2.4197 O   0  0  0  0  0  0  0  0  0  0  0  0
    5.1606   -1.9973    2.9959 N   0  0  0  0  0  0  0  0  0  0  0  0
    4.8613   -2.0243    4.3816 C   0  0  0  0  0  0  0  0  0  0  0  0
    4.5945   -3.1965    5.0807 C   0  0  0  0  0  0  0  0  0  0  0  0
    4.0870   -3.2321    6.3341 N   0  0  0  0  0  0  0  0  0  0  0  0
    3.9061   -2.0418    6.9481 C   0  0  0  0  0  0  0  0  0  0  0  0
    4.2934   -0.8133    6.4179 C   0  0  0  0  0  0  0  0  0  0  0  0
    4.2384    0.3654    7.1828 C   0  0  0  0  0  0  0  0  0  0  0  0
    4.6386    1.5877    6.6455 C   0  0  0  0  0  0  0  0  0  0  0  0
    5.0565    1.6498    5.3252 C   0  0  0  0  0  0  0  0  0  0  0  0
    5.1158    0.4850    4.5560 C   0  0  0  0  0  0  0  0  0  0  0  0
    4.7645   -0.7862    5.0807 C   0  0  0  0  0  0  0  0  0  0  0  0
    6.7690   -2.6018    0.1486 C   0  0  0  0  0  0  0  0  0  0  0  0
    7.4407   -1.3364    0.6517 C   0  0  0  0  0  0  0  0  0  0  0  0
    6.7879   -0.1342    0.2263 O   0  0  0  0  0  0  0  0  0  0  0  0
    2.8293    2.0720   -0.1748 H   0  0  0  0  0  0  0  0  0  0  0  0
    4.2765    3.8422   -0.1680 H   0  0  0  0  0  0  0  0  0  0  0  0
    4.2833    2.9460   -1.7279 H   0  0  0  0  0  0  0  0  0  0  0  0
    7.5377    2.8945   -1.6582 H   0  0  0  0  0  0  0  0  0  0  0  0
    9.0042    4.5565   -2.7763 H   0  0  0  0  0  0  0  0  0  0  0  0
    6.0780    7.4471   -2.7194 H   0  0  0  0  0  0  0  0  0  0  0  0
    4.4656    5.9297   -1.5919 H   0  0  0  0  0  0  0  0  0  0  0  0
    2.6662   -2.1610    0.3275 H   0  0  0  0  0  0  0  0  0  0  0  0
    4.7974   -3.4184    0.0513 H   0  0  0  0  0  0  0  0  0  0  0  0
    5.1723   -1.0761    2.5907 H   0  0  0  0  0  0  0  0  0  0  0  0
    4.7600   -4.1813    4.6572 H   0  0  0  0  0  0  0  0  0  0  0  0
    3.4301   -2.1093    7.9230 H   0  0  0  0  0  0  0  0  0  0  0  0
    3.9158    0.3322    8.2206 H   0  0  0  0  0  0  0  0  0  0  0  0
    4.6345    2.4850    7.2593 H   0  0  0  0  0  0  0  0  0  0  0  0
    5.3630    2.5986    4.8925 H   0  0  0  0  0  0  0  0  0  0  0  0
    5.4868    0.5980    3.5415 H   0  0  0  0  0  0  0  0  0  0  0  0
    6.7836   -2.5961   -0.9496 H   0  0  0  0  0  0  0  0  0  0  0  0
    7.3184   -3.4899    0.4805 H   0  0  0  0  0  0  0  0  0  0  0  0
    8.4676   -1.3023    0.2680 H   0  0  0  0  0  0  0  0  0  0  0  0
    7.5197   -1.3282    1.7446 H   0  0  0  0  0  0  0  0  0  0  0  0
  1  2  1  0  0  0  0
  2  3  1  0  0  0  0
  2 15  2  0  0  0  0
  3  4  2  0  0  0  0
  3 33  1  0  0  0  0
  4  5  1  0  0  0  0
  4 13  1  0  0  0  0
  5  6  1  0  0  0  0
  6  7  1  0  0  0  0
  6 34  1  0  0  0  0
  6 35  1  0  0  0  0
  7  8  1  0  0  0  0
  7 12  2  0  0  0  0
  8  9  2  0  0  0  0
  8 36  1  0  0  0  0
  9 10  1  0  0  0  0
  9 37  1  0  0  0  0
 10 11  2  0  0  0  0
 11 12  1  0  0  0  0
 11 38  1  0  0  0  0
 12 39  1  0  0  0  0
 13 14  2  0  0  0  0
 13 32  1  0  0  0  0
 14 15  1  0  0  0  0
 14 16  1  0  0  0  0
 15 40  1  0  0  0  0
 16 17  1  0  0  0  0
 16 30  1  0  0  0  0
 16 41  1  0  0  0  0
 17 18  2  0  0  0  0
 17 19  1  0  0  0  0
 19 20  1  0  0  0  0
 19 42  1  0  0  0  0
 20 21  1  0  0  0  0
 20 29  2  0  0  0  0
 21 22  2  0  0  0  0
 21 43  1  0  0  0  0
 22 23  1  0  0  0  0
 23 24  2  0  0  0  0
 23 44  1  0  0  0  0
 24 25  1  0  0  0  0
 24 29  1  0  0  0  0
 25 26  2  0  0  0  0
 25 45  1  0  0  0  0
 26 27  1  0  0  0  0
 26 46  1  0  0  0  0
 27 28  2  0  0  0  0
 27 47  1  0  0  0  0
 28 29  1  0  0  0  0
 28 48  1  0  0  0  0
 30 31  1  0  0  0  0
 30 49  1  0  0  0  0
 30 50  1  0  0  0  0
 31 32  1  0  0  0  0
 31 51  1  0  0  0  0
 31 52  1  0  0  0  0
M  END
$$$$
