
 OpenBabel07202414203D

 35 37  0  0  0  0  0  0  0  0999 V2000
    2.0767    1.4400   -3.8044 C   0  0  0  0  0  0  0  0  0  0  0  0
    1.7208    1.8863   -2.5235 C   0  0  0  0  0  0  0  0  0  0  0  0
    2.7036    2.2683   -1.6001 C   0  0  0  0  0  0  0  0  0  0  0  0
    4.0495    2.1872   -1.9817 C   0  0  0  0  0  0  0  0  0  0  0  0
    4.4014    1.7365   -3.2556 C   0  0  0  0  0  0  0  0  0  0  0  0
    3.4201    1.3631   -4.1686 C   0  0  0  0  0  0  0  0  0  0  0  0
    6.0624    1.6252   -3.6927 Cl  0  0  0  0  0  0  0  0  0  0  0  0
    2.3418    2.6508   -0.1824 C   0  0  0  0  0  0  0  0  0  0  0  0
    1.3304    3.7702   -0.0552 C   0  0  0  0  0  0  0  0  0  0  0  0
    0.1364    3.5271    0.1259 O   0  0  0  0  0  0  0  0  0  0  0  0
    1.8646    5.0445   -0.1781 N   0  0  0  0  0  0  0  0  0  0  0  0
    1.0303    6.1787   -0.0832 C   0  0  0  0  0  0  0  0  0  0  0  0
    0.0996    6.3532    0.9424 C   0  0  0  0  0  0  0  0  0  0  0  0
   -0.7597    7.4109    1.0443 N   0  0  0  0  0  0  0  0  0  0  0  0
   -0.7275    8.3222    0.0454 C   0  0  0  0  0  0  0  0  0  0  0  0
    0.1504    8.2163   -1.0083 C   0  0  0  0  0  0  0  0  0  0  0  0
    1.0658    7.1610   -1.0519 C   0  0  0  0  0  0  0  0  0  0  0  0
    1.9211    7.2644   -2.2757 C   0  0  0  0  0  0  0  0  0  0  0  0
    1.0804    8.2011   -3.1520 C   0  0  0  0  0  0  0  0  0  0  0  0
    0.2796    9.1029   -2.2025 C   0  0  0  0  0  0  0  0  0  0  0  0
    1.3062    1.1325   -4.5050 H   0  0  0  0  0  0  0  0  0  0  0  0
    0.6664    1.9096   -2.2530 H   0  0  0  0  0  0  0  0  0  0  0  0
    4.8378    2.4450   -1.2753 H   0  0  0  0  0  0  0  0  0  0  0  0
    3.6931    0.9989   -5.1556 H   0  0  0  0  0  0  0  0  0  0  0  0
    3.2361    2.9349    0.3839 H   0  0  0  0  0  0  0  0  0  0  0  0
    1.9281    1.7680    0.3214 H   0  0  0  0  0  0  0  0  0  0  0  0
    2.6847    5.1219   -0.7673 H   0  0  0  0  0  0  0  0  0  0  0  0
    0.0219    5.6398    1.7608 H   0  0  0  0  0  0  0  0  0  0  0  0
   -1.4569    9.1254    0.1200 H   0  0  0  0  0  0  0  0  0  0  0  0
    2.0727    6.2973   -2.7674 H   0  0  0  0  0  0  0  0  0  0  0  0
    2.8876    7.7116   -2.0234 H   0  0  0  0  0  0  0  0  0  0  0  0
    0.3811    7.5964   -3.7484 H   0  0  0  0  0  0  0  0  0  0  0  0
    1.6897    8.7739   -3.8582 H   0  0  0  0  0  0  0  0  0  0  0  0
   -0.6945    9.3580   -2.6328 H   0  0  0  0  0  0  0  0  0  0  0  0
    0.8308   10.0124   -1.9486 H   0  0  0  0  0  0  0  0  0  0  0  0
  1  2  1  0  0  0  0
  1  6  2  0  0  0  0
  1 21  1  0  0  0  0
  2  3  2  0  0  0  0
  2 22  1  0  0  0  0
  3  4  1  0  0  0  0
  3  8  1  0  0  0  0
  4  5  2  0  0  0  0
  4 23  1  0  0  0  0
  5  6  1  0  0  0  0
  5  7  1  0  0  0  0
  6 24  1  0  0  0  0
  8  9  1  0  0  0  0
  8 25  1  0  0  0  0
  8 26  1  0  0  0  0
  9 10  2  0  0  0  0
  9 11  1  0  0  0  0
 11 12  1  0  0  0  0
 11 27  1  0  0  0  0
 12 13  1  0  0  0  0
 12 17  2  0  0  0  0
 13 14  2  0  0  0  0
 13 28  1  0  0  0  0
 14 15  1  0  0  0  0
 15 16  2  0  0  0  0
 15 29  1  0  0  0  0
 16 17  1  0  0  0  0
 16 20  1  0  0  0  0
 17 18  1  0  0  0  0
 18 19  1  0  0  0  0
 18 30  1  0  0  0  0
 18 31  1  0  0  0  0
 19 20  1  0  0  0  0
 19 32  1  0  0  0  0
 19 33  1  0  0  0  0
 20 34  1  0  0  0  0
 20 35  1  0  0  0  0
M  END
$$$$
