
 OpenBabel07202414143D

 43 46  0  0  1  0  0  0  0  0999 V2000
   12.8125    3.7598   -0.5533 C   0  0  0  0  0  0  0  0  0  0  0  0
   11.8637    2.7128   -0.2797 N   0  0  0  0  0  0  0  0  0  0  0  0
   11.4269    1.8379   -1.2520 C   0  0  0  0  0  0  0  0  0  0  0  0
   11.8432    1.8975   -2.4034 O   0  0  0  0  0  0  0  0  0  0  0  0
   10.4396    0.8580   -0.8098 C   0  0  0  0  0  0  0  0  0  0  0  0
    9.8866   -0.1637   -1.5551 C   0  0  0  0  0  0  0  0  0  0  0  0
    8.9152   -0.9497   -0.8357 C   0  0  0  0  0  0  0  0  0  0  0  0
    8.1069   -2.0446   -1.2275 C   0  0  0  0  0  0  0  0  0  0  0  0
    8.2189   -2.6751   -2.4852 N   0  0  0  0  0  0  0  0  0  0  0  0
    9.4196   -3.2574   -2.8699 C   0  0  0  0  0  0  0  0  0  0  0  0
   10.4530   -3.2219   -2.2039 O   0  0  0  0  0  0  0  0  0  0  0  0
    9.3822   -4.0188   -4.1975 C   0  0  3  0  0  0  0  0  0  0  0  0
    8.3380   -5.1477   -4.1982 C   0  0  0  0  0  0  0  0  0  0  0  0
    7.2778   -5.0214   -5.2873 C   0  0  0  0  0  0  0  0  0  0  0  0
    6.9262   -3.6711   -5.5823 O   0  0  0  0  0  0  0  0  0  0  0  0
    8.0179   -2.9774   -6.0283 C   0  0  0  0  0  0  0  0  0  0  0  0
    7.8622   -2.1346   -7.1248 C   0  0  0  0  0  0  0  0  0  0  0  0
    8.9415   -1.3646   -7.5612 C   0  0  0  0  0  0  0  0  0  0  0  0
   10.1517   -1.4138   -6.8699 C   0  0  0  0  0  0  0  0  0  0  0  0
   11.4606   -0.4160   -7.3695 Cl  0  0  0  0  0  0  0  0  0  0  0  0
   10.3066   -2.2632   -5.7743 C   0  0  0  0  0  0  0  0  0  0  0  0
    9.2395   -3.0750   -5.3622 C   0  0  0  0  0  0  0  0  0  0  0  0
    7.1531   -2.4868   -0.3156 C   0  0  0  0  0  0  0  0  0  0  0  0
    6.9991   -2.0007    0.9318 N   0  0  0  0  0  0  0  0  0  0  0  0
    7.8094   -0.9982    1.3375 C   0  0  0  0  0  0  0  0  0  0  0  0
    8.7465   -0.4507    0.4582 C   0  0  0  0  0  0  0  0  0  0  0  0
    9.8062    0.8624    0.7771 S   0  0  0  0  0  0  0  0  0  0  0  0
   13.0913    4.2337    0.3891 H   0  0  0  0  0  0  0  0  0  0  0  0
   12.3503    4.4936   -1.2181 H   0  0  0  0  0  0  0  0  0  0  0  0
   13.6972    3.3366   -1.0361 H   0  0  0  0  0  0  0  0  0  0  0  0
   11.4548    2.6442    0.6435 H   0  0  0  0  0  0  0  0  0  0  0  0
   10.1573   -0.3385   -2.5916 H   0  0  0  0  0  0  0  0  0  0  0  0
    7.3794   -3.0961   -2.8656 H   0  0  0  0  0  0  0  0  0  0  0  0
   10.3634   -4.5063   -4.2928 H   0  0  0  0  0  0  0  0  0  0  0  0
    7.8475   -5.2314   -3.2206 H   0  0  0  0  0  0  0  0  0  0  0  0
    8.8430   -6.1134   -4.3349 H   0  0  0  0  0  0  0  0  0  0  0  0
    6.3634   -5.5319   -4.9638 H   0  0  0  0  0  0  0  0  0  0  0  0
    7.5987   -5.5192   -6.2115 H   0  0  0  0  0  0  0  0  0  0  0  0
    6.9111   -2.0873   -7.6473 H   0  0  0  0  0  0  0  0  0  0  0  0
    8.8302   -0.7202   -8.4291 H   0  0  0  0  0  0  0  0  0  0  0  0
   11.2540   -2.2872   -5.2379 H   0  0  0  0  0  0  0  0  0  0  0  0
    6.4939   -3.3167   -0.5534 H   0  0  0  0  0  0  0  0  0  0  0  0
    7.6752   -0.6383    2.3511 H   0  0  0  0  0  0  0  0  0  0  0  0
  1  2  1  0  0  0  0
  1 28  1  0  0  0  0
  1 29  1  0  0  0  0
  1 30  1  0  0  0  0
  2  3  1  0  0  0  0
  2 31  1  0  0  0  0
  3  4  2  0  0  0  0
  3  5  1  0  0  0  0
  5  6  2  0  0  0  0
  5 27  1  0  0  0  0
  6  7  1  0  0  0  0
  6 32  1  0  0  0  0
  7  8  1  0  0  0  0
  7 26  2  0  0  0  0
  8  9  1  0  0  0  0
  8 23  2  0  0  0  0
  9 10  1  0  0  0  0
  9 33  1  0  0  0  0
 10 11  2  0  0  0  0
 10 12  1  0  0  0  0
 12 13  1  0  0  0  0
 12 22  1  0  0  0  0
 12 34  1  0  0  0  0
 13 14  1  0  0  0  0
 13 35  1  0  0  0  0
 13 36  1  0  0  0  0
 14 15  1  0  0  0  0
 14 37  1  0  0  0  0
 14 38  1  0  0  0  0
 15 16  1  0  0  0  0
 16 17  1  0  0  0  0
 16 22  2  0  0  0  0
 17 18  2  0  0  0  0
 17 39  1  0  0  0  0
 18 19  1  0  0  0  0
 18 40  1  0  0  0  0
 19 20  1  0  0  0  0
 19 21  2  0  0  0  0
 21 22  1  0  0  0  0
 21 41  1  0  0  0  0
 23 24  1  0  0  0  0
 23 42  1  0  0  0  0
 24 25  2  0  0  0  0
 25 26  1  0  0  0  0
 25 43  1  0  0  0  0
 26 27  1  0  0  0  0
M  END
$$$$
