
 OpenBabel07202414163D

 44 46  0  0  0  0  0  0  0  0999 V2000
    0.8205   -0.3047    0.2646 C   0  0  0  0  0  0  0  0  0  0  0  0
    2.3136   -0.1868    0.2384 C   0  0  0  0  0  0  0  0  0  0  0  0
    2.9958    0.0793   -0.9480 C   0  0  0  0  0  0  0  0  0  0  0  0
    4.4000    0.1661   -0.9524 C   0  0  0  0  0  0  0  0  0  0  0  0
    5.1596   -0.0183    0.2197 C   0  0  0  0  0  0  0  0  0  0  0  0
    6.6439    0.0026    0.1747 C   0  0  0  0  0  0  0  0  0  0  0  0
    7.3453   -0.4860   -0.9348 C   0  0  0  0  0  0  0  0  0  0  0  0
    8.7392   -0.4568   -0.9815 C   0  0  0  0  0  0  0  0  0  0  0  0
    9.5497   -1.0414   -2.3832 Cl  0  0  0  0  0  0  0  0  0  0  0  0
    9.4769    0.0339    0.0936 C   0  0  0  0  0  0  0  0  0  0  0  0
    8.8126    0.5027    1.2310 C   0  0  0  0  0  0  0  0  0  0  0  0
    9.5660    1.0707    2.4101 C   0  0  0  0  0  0  0  0  0  0  0  0
   10.5921    0.1594    3.0549 C   0  0  0  0  0  0  0  0  0  0  0  0
   11.7249    0.5799    3.2912 O   0  0  0  0  0  0  0  0  0  0  0  0
   10.1507   -1.1177    3.3779 N   0  0  0  0  0  0  0  0  0  0  0  0
   11.0632   -2.0424    3.9413 C   0  0  0  0  0  0  0  0  0  0  0  0
   11.8268   -1.7079    5.0642 C   0  0  0  0  0  0  0  0  0  0  0  0
   12.7921   -2.4931    5.5973 N   0  0  0  0  0  0  0  0  0  0  0  0
   13.0333   -3.6526    4.9577 C   0  0  0  0  0  0  0  0  0  0  0  0
   12.3124   -4.0908    3.8547 C   0  0  0  0  0  0  0  0  0  0  0  0
   11.2812   -3.2895    3.3447 C   0  0  0  0  0  0  0  0  0  0  0  0
   10.5460   -3.7250    2.1110 C   0  0  0  0  0  0  0  0  0  0  0  0
    7.4064    0.5050    1.2485 C   0  0  0  0  0  0  0  0  0  0  0  0
    4.4375   -0.2553    1.4039 C   0  0  0  0  0  0  0  0  0  0  0  0
    5.0889   -0.4409    2.5691 F   0  0  0  0  0  0  0  0  0  0  0  0
    3.0491   -0.3330    1.4146 C   0  0  0  0  0  0  0  0  0  0  0  0
    2.4088   -0.5624    2.5707 F   0  0  0  0  0  0  0  0  0  0  0  0
    0.4021   -0.3150   -0.7478 H   0  0  0  0  0  0  0  0  0  0  0  0
    0.3840    0.5386    0.8073 H   0  0  0  0  0  0  0  0  0  0  0  0
    0.5256   -1.2401    0.7511 H   0  0  0  0  0  0  0  0  0  0  0  0
    2.4575    0.2100   -1.8852 H   0  0  0  0  0  0  0  0  0  0  0  0
    4.8875    0.3895   -1.9004 H   0  0  0  0  0  0  0  0  0  0  0  0
    6.8068   -0.9018   -1.7846 H   0  0  0  0  0  0  0  0  0  0  0  0
   10.5635    0.0600    0.0335 H   0  0  0  0  0  0  0  0  0  0  0  0
    8.8785    1.3801    3.2042 H   0  0  0  0  0  0  0  0  0  0  0  0
   10.0867    1.9740    2.0709 H   0  0  0  0  0  0  0  0  0  0  0  0
    9.4097   -1.4902    2.7950 H   0  0  0  0  0  0  0  0  0  0  0  0
   11.6738   -0.7671    5.5866 H   0  0  0  0  0  0  0  0  0  0  0  0
   13.8596   -4.2355    5.3552 H   0  0  0  0  0  0  0  0  0  0  0  0
   12.5833   -5.0294    3.3828 H   0  0  0  0  0  0  0  0  0  0  0  0
   10.8467   -4.7298    1.7982 H   0  0  0  0  0  0  0  0  0  0  0  0
   10.7632   -3.0396    1.2850 H   0  0  0  0  0  0  0  0  0  0  0  0
    9.4673   -3.7450    2.2943 H   0  0  0  0  0  0  0  0  0  0  0  0
    6.9008    0.9210    2.1204 H   0  0  0  0  0  0  0  0  0  0  0  0
  1  2  1  0  0  0  0
  1 28  1  0  0  0  0
  1 29  1  0  0  0  0
  1 30  1  0  0  0  0
  2  3  1  0  0  0  0
  2 26  2  0  0  0  0
  3  4  2  0  0  0  0
  3 31  1  0  0  0  0
  4  5  1  0  0  0  0
  4 32  1  0  0  0  0
  5  6  1  0  0  0  0
  5 24  2  0  0  0  0
  6  7  1  0  0  0  0
  6 23  2  0  0  0  0
  7  8  2  0  0  0  0
  7 33  1  0  0  0  0
  8  9  1  0  0  0  0
  8 10  1  0  0  0  0
 10 11  2  0  0  0  0
 10 34  1  0  0  0  0
 11 12  1  0  0  0  0
 11 23  1  0  0  0  0
 12 13  1  0  0  0  0
 12 35  1  0  0  0  0
 12 36  1  0  0  0  0
 13 14  2  0  0  0  0
 13 15  1  0  0  0  0
 15 16  1  0  0  0  0
 15 37  1  0  0  0  0
 16 17  1  0  0  0  0
 16 21  2  0  0  0  0
 17 18  2  0  0  0  0
 17 38  1  0  0  0  0
 18 19  1  0  0  0  0
 19 20  2  0  0  0  0
 19 39  1  0  0  0  0
 20 21  1  0  0  0  0
 20 40  1  0  0  0  0
 21 22  1  0  0  0  0
 22 41  1  0  0  0  0
 22 42  1  0  0  0  0
 22 43  1  0  0  0  0
 23 44  1  0  0  0  0
 24 25  1  0  0  0  0
 24 26  1  0  0  0  0
 26 27  1  0  0  0  0
M  END
$$$$
