
 OpenBabel07202414193D

109115  0  0  1  0  0  0  0  0999 V2000
    6.4657    0.1773    0.0706 O   0  0  0  0  0  0  0  0  0  0  0  0
    5.7087    0.7305   -0.7164 C   0  0  0  0  0  0  0  0  0  0  0  0
    5.8138    2.1606   -1.1626 C   0  0  0  0  0  0  0  0  0  0  0  0
    7.1771    2.6140   -1.2199 N   0  0  0  0  0  0  0  0  0  0  0  0
    7.3967    3.5566   -2.4707 C   0  0  0  0  0  0  0  0  0  0  0  0
    9.4566    4.2082   -3.0876 C   0  0  0  0  0  0  0  0  0  0  0  0
    9.7894    5.2843   -4.0023 C   0  0  0  0  0  0  0  0  0  0  0  0
   11.1189    5.6675   -4.0458 C   0  0  0  0  0  0  0  0  0  0  0  0
   12.1368    5.0403   -3.2770 C   0  0  0  0  0  0  0  0  0  0  0  0
   13.7178    5.7384   -3.4122 Cl  0  0  0  0  0  0  0  0  0  0  0  0
   11.9376    4.0437   -2.2778 C   0  0  0  0  0  0  0  0  0  0  0  0
   10.6328    3.7253   -1.9385 C   0  0  0  0  0  0  0  0  0  0  0  0
   10.0313    2.6698   -0.4608 C   0  0  1  0  0  0  0  0  0  0  0  0
   10.7296    2.2601    0.8685 C   0  0  0  0  0  0  0  0  0  0  0  0
   10.1023    2.1531    1.9202 O   0  0  0  0  0  0  0  0  0  0  0  0
   12.0749    1.9784    0.7257 N   0  0  0  0  0  0  0  0  0  0  0  0
   13.0224    1.6305    1.7190 C   0  0  0  0  0  0  0  0  0  0  0  0
   12.7888    1.8093    3.0764 C   0  0  0  0  0  0  0  0  0  0  0  0
   13.5578    1.2617    4.0409 N   0  0  0  0  0  0  0  0  0  0  0  0
   14.6306    0.5532    3.6269 C   0  0  0  0  0  0  0  0  0  0  0  0
   15.0985    0.5014    2.3150 C   0  0  0  0  0  0  0  0  0  0  0  0
   16.3557   -0.0540    1.9726 C   0  0  0  0  0  0  0  0  0  0  0  0
   16.7861   -0.1417    0.6472 C   0  0  0  0  0  0  0  0  0  0  0  0
   15.9670    0.3278   -0.3530 C   0  0  0  0  0  0  0  0  0  0  0  0
   14.7926    0.9836    0.0081 C   0  0  0  0  0  0  0  0  0  0  0  0
   14.2772    1.0547    1.3280 C   0  0  0  0  0  0  0  0  0  0  0  0
    8.2230    2.4871   -0.1036 C   0  0  0  0  0  0  0  0  0  0  0  0
    4.5838    0.1226   -1.2286 N   0  0  0  0  0  0  0  0  0  0  0  0
    4.2744   -1.1964   -0.7639 C   0  0  0  0  0  0  0  0  0  0  0  0
    4.8424   -2.2896   -1.6599 C   0  0  0  0  0  0  0  0  0  0  0  0
    6.2653   -2.2589   -1.7042 O   0  0  0  0  0  0  0  0  0  0  0  0
    6.7856   -3.3771   -2.4229 C   0  0  0  0  0  0  0  0  0  0  0  0
    8.3018   -3.3285   -2.4212 C   0  0  0  0  0  0  0  0  0  0  0  0
    8.7964   -3.5404   -1.0968 O   0  0  0  0  0  0  0  0  0  0  0  0
   10.2174   -3.5539   -1.0253 C   0  0  0  0  0  0  0  0  0  0  0  0
   10.8189   -2.2833   -1.5606 C   0  0  0  0  0  0  0  0  0  0  0  0
   12.2432   -2.3642   -1.5236 O   0  0  0  0  0  0  0  0  0  0  0  0
   12.8189   -1.2441   -2.1783 C   0  0  0  0  0  0  0  0  0  0  0  0
   12.2977    0.0161   -1.5484 C   0  0  0  0  0  0  0  0  0  0  0  0
   12.7856    1.2101   -2.1469 O   0  0  0  0  0  0  0  0  0  0  0  0
   12.5581    1.3064   -3.5768 C   0  0  0  0  0  0  0  0  0  0  0  0
   11.0635    1.1296   -3.8666 C   0  0  0  0  0  0  0  0  0  0  0  0
   10.4853    1.3980   -5.1412 O   0  0  0  0  0  0  0  0  0  0  0  0
    9.1610    1.8001   -5.1089 C   0  0  0  0  0  0  0  0  0  0  0  0
    8.2958    1.6160   -6.1639 C   0  0  0  0  0  0  0  0  0  0  0  0
    6.9956    2.2986   -6.2322 C   0  0  0  0  0  0  0  0  0  0  0  0
    6.6089    3.5260   -5.4787 C   0  0  0  0  0  0  0  0  0  0  0  0
    7.6192    4.1036   -4.5998 C   0  0  0  0  0  0  0  0  0  0  0  0
    8.7034    2.8010   -4.2865 C   0  0  0  0  0  0  0  0  0  0  0  0
    8.9544    2.6346   -2.3491 C   0  0  0  0  0  0  0  0  0  0  0  0
    8.9446    1.4342   -2.1128 O   0  0  0  0  0  0  0  0  0  0  0  0
    8.5359    4.4412   -1.5612 N   0  0  0  0  0  0  0  0  0  0  0  0
    9.1793    5.4825   -0.5265 C   0  0  2  0  0  0  0  0  0  0  0  0
   10.7000    5.8955   -0.4288 C   0  0  0  0  0  0  0  0  0  0  0  0
   11.5783    5.0178    0.4462 C   0  0  0  0  0  0  0  0  0  0  0  0
   10.9596    4.9161    1.8007 C   0  0  0  0  0  0  0  0  0  0  0  0
   11.6411    4.7581    2.8054 O   0  0  0  0  0  0  0  0  0  0  0  0
    9.5781    4.9281    1.8342 N   0  0  0  0  0  0  0  0  0  0  0  0
    8.6547    5.3201    0.8797 C   0  0  0  0  0  0  0  0  0  0  0  0
    7.4670    5.4577    1.1630 O   0  0  0  0  0  0  0  0  0  0  0  0
    7.6760    5.3319   -2.9984 C   0  0  0  0  0  0  0  0  0  0  0  0
    7.0900    6.3896   -2.8956 O   0  0  0  0  0  0  0  0  0  0  0  0
    5.1714    2.8114   -0.5649 H   0  0  0  0  0  0  0  0  0  0  0  0
    5.4028    2.1782   -2.1880 H   0  0  0  0  0  0  0  0  0  0  0  0
    6.4160    4.1193   -2.4002 H   0  0  0  0  0  0  0  0  0  0  0  0
    7.2536    3.0653   -3.2592 H   0  0  0  0  0  0  0  0  0  0  0  0
    9.1073    5.8547   -4.6412 H   0  0  0  0  0  0  0  0  0  0  0  0
   11.3461    6.5546   -4.6387 H   0  0  0  0  0  0  0  0  0  0  0  0
   12.7956    3.6839   -1.7356 H   0  0  0  0  0  0  0  0  0  0  0  0
   10.3347    1.7119   -0.8857 H   0  0  0  0  0  0  0  0  0  0  0  0
   12.3782    1.8719   -0.2305 H   0  0  0  0  0  0  0  0  0  0  0  0
   11.9736    2.4216    3.4505 H   0  0  0  0  0  0  0  0  0  0  0  0
   15.1166   -0.0150    4.4131 H   0  0  0  0  0  0  0  0  0  0  0  0
   17.0308   -0.3832    2.7571 H   0  0  0  0  0  0  0  0  0  0  0  0
   17.7669   -0.5351    0.3977 H   0  0  0  0  0  0  0  0  0  0  0  0
   16.2420    0.2430   -1.4020 H   0  0  0  0  0  0  0  0  0  0  0  0
   14.2958    1.4950   -0.7942 H   0  0  0  0  0  0  0  0  0  0  0  0
    7.9269    3.1602    0.6951 H   0  0  0  0  0  0  0  0  0  0  0  0
    8.1634    1.5028    0.3587 H   0  0  0  0  0  0  0  0  0  0  0  0
    4.0315    0.5702   -1.9475 H   0  0  0  0  0  0  0  0  0  0  0  0
    3.1860   -1.2494   -0.7197 H   0  0  0  0  0  0  0  0  0  0  0  0
    4.6667   -1.2993    0.2536 H   0  0  0  0  0  0  0  0  0  0  0  0
    4.4660   -2.1675   -2.6800 H   0  0  0  0  0  0  0  0  0  0  0  0
    4.5181   -3.2516   -1.2549 H   0  0  0  0  0  0  0  0  0  0  0  0
    6.4327   -3.3199   -3.4574 H   0  0  0  0  0  0  0  0  0  0  0  0
    6.4436   -4.3027   -1.9525 H   0  0  0  0  0  0  0  0  0  0  0  0
    8.5933   -2.3418   -2.7939 H   0  0  0  0  0  0  0  0  0  0  0  0
    8.7101   -4.1068   -3.0738 H   0  0  0  0  0  0  0  0  0  0  0  0
   10.6254   -4.4209   -1.5494 H   0  0  0  0  0  0  0  0  0  0  0  0
   10.5058   -3.6441    0.0287 H   0  0  0  0  0  0  0  0  0  0  0  0
   10.4224   -1.4825   -0.9244 H   0  0  0  0  0  0  0  0  0  0  0  0
   10.5242   -2.0702   -2.5930 H   0  0  0  0  0  0  0  0  0  0  0  0
   12.5918   -1.2785   -3.2459 H   0  0  0  0  0  0  0  0  0  0  0  0
   13.9073   -1.2731   -2.0763 H   0  0  0  0  0  0  0  0  0  0  0  0
   12.5501   -0.0679   -0.4880 H   0  0  0  0  0  0  0  0  0  0  0  0
   11.2168    0.0971   -1.5183 H   0  0  0  0  0  0  0  0  0  0  0  0
   13.2091    0.6019   -4.0842 H   0  0  0  0  0  0  0  0  0  0  0  0
   12.9187    2.2993   -3.8641 H   0  0  0  0  0  0  0  0  0  0  0  0
   10.7170    1.8317   -3.1597 H   0  0  0  0  0  0  0  0  0  0  0  0
   10.6928    0.1613   -3.5352 H   0  0  0  0  0  0  0  0  0  0  0  0
    8.5933    0.8982   -6.9302 H   0  0  0  0  0  0  0  0  0  0  0  0
    6.2754    1.7962   -6.8999 H   0  0  0  0  0  0  0  0  0  0  0  0
    5.5160    3.7378   -5.4982 H   0  0  0  0  0  0  0  0  0  0  0  0
    8.7288    6.4145   -0.9013 H   0  0  0  0  0  0  0  0  0  0  0  0
   10.7921    6.8694    0.0472 H   0  0  0  0  0  0  0  0  0  0  0  0
   11.1220    6.0905   -1.4039 H   0  0  0  0  0  0  0  0  0  0  0  0
   12.6388    5.2803    0.4943 H   0  0  0  0  0  0  0  0  0  0  0  0
   11.6908    4.0332    0.0535 H   0  0  0  0  0  0  0  0  0  0  0  0
    9.1850    4.7002    2.7359 H   0  0  0  0  0  0  0  0  0  0  0  0
  1  2  2  0  0  0  0
  2  3  1  0  0  0  0
  2 28  1  0  0  0  0
  3  4  1  0  0  0  0
  3 63  1  0  0  0  0
  3 64  1  0  0  0  0
  4  5  1  0  0  0  0
  4 27  1  0  0  0  0
  5  6  1  0  0  0  0
  5 65  1  0  0  0  0
  5 66  1  0  0  0  0
  6  7  1  0  0  0  0
  6 12  2  0  0  0  0
  7  8  2  0  0  0  0
  7 67  1  0  0  0  0
  8  9  1  0  0  0  0
  8 68  1  0  0  0  0
  9 10  1  0  0  0  0
  9 11  2  0  0  0  0
 11 12  1  0  0  0  0
 11 69  1  0  0  0  0
 12 13  1  0  0  0  0
 13 27  1  0  0  0  0
 13 14  1  0  0  0  0
 13 70  1  6  0  0  0
 14 15  2  0  0  0  0
 14 16  1  0  0  0  0
 16 17  1  0  0  0  0
 16 71  1  0  0  0  0
 17 18  1  0  0  0  0
 17 26  2  0  0  0  0
 18 19  2  0  0  0  0
 18 72  1  0  0  0  0
 19 20  1  0  0  0  0
 20 21  2  0  0  0  0
 20 73  1  0  0  0  0
 21 22  1  0  0  0  0
 21 26  1  0  0  0  0
 22 23  2  0  0  0  0
 22 74  1  0  0  0  0
 23 24  1  0  0  0  0
 23 75  1  0  0  0  0
 24 25  2  0  0  0  0
 24 76  1  0  0  0  0
 25 26  1  0  0  0  0
 25 77  1  0  0  0  0
 27 78  1  0  0  0  0
 27 79  1  0  0  0  0
 28 29  1  0  0  0  0
 28 80  1  0  0  0  0
 29 30  1  0  0  0  0
 29 81  1  0  0  0  0
 29 82  1  0  0  0  0
 30 31  1  0  0  0  0
 30 83  1  0  0  0  0
 30 84  1  0  0  0  0
 31 32  1  0  0  0  0
 32 33  1  0  0  0  0
 32 85  1  0  0  0  0
 32 86  1  0  0  0  0
 33 34  1  0  0  0  0
 33 87  1  0  0  0  0
 33 88  1  0  0  0  0
 34 35  1  0  0  0  0
 35 36  1  0  0  0  0
 35 89  1  0  0  0  0
 35 90  1  0  0  0  0
 36 37  1  0  0  0  0
 36 91  1  0  0  0  0
 36 92  1  0  0  0  0
 37 38  1  0  0  0  0
 38 39  1  0  0  0  0
 38 93  1  0  0  0  0
 38 94  1  0  0  0  0
 39 40  1  0  0  0  0
 39 95  1  0  0  0  0
 39 96  1  0  0  0  0
 40 41  1  0  0  0  0
 41 42  1  0  0  0  0
 41 97  1  0  0  0  0
 41 98  1  0  0  0  0
 42 43  1  0  0  0  0
 42 99  1  0  0  0  0
 42100  1  0  0  0  0
 43 44  1  0  0  0  0
 44 45  1  0  0  0  0
 44 49  2  0  0  0  0
 45 46  2  0  0  0  0
 45101  1  0  0  0  0
 46 47  1  0  0  0  0
 46102  1  0  0  0  0
 47 48  2  0  0  0  0
 47103  1  0  0  0  0
 48 49  1  0  0  0  0
 48 61  1  0  0  0  0
 49 50  1  0  0  0  0
 50 51  2  0  0  0  0
 50 52  1  0  0  0  0
 52 53  1  0  0  0  0
 52 61  1  0  0  0  0
 53 54  1  0  0  0  0
 53 59  1  0  0  0  0
 53104  1  6  0  0  0
 54 55  1  0  0  0  0
 54105  1  0  0  0  0
 54106  1  0  0  0  0
 55 56  1  0  0  0  0
 55107  1  0  0  0  0
 55108  1  0  0  0  0
 56 57  2  0  0  0  0
 56 58  1  0  0  0  0
 58 59  1  0  0  0  0
 58109  1  0  0  0  0
 59 60  2  0  0  0  0
 61 62  2  0  0  0  0
M  END
$$$$
