
 OpenBabel07202414123D

 60 65  0  0  1  0  0  0  0  0999 V2000
    3.4204   -1.8293   -0.6210 C   0  0  0  0  0  0  0  0  0  0  0  0
    2.3677   -0.8661   -0.1137 C   0  0  0  0  0  0  0  0  0  0  0  0
    2.3746   -0.6413    1.3940 C   0  0  0  0  0  0  0  0  0  0  0  0
    3.9961    0.0895    1.7638 S   0  0  0  0  0  0  0  0  0  0  0  0
    5.0398   -0.8564    1.3791 O   0  0  0  0  0  0  0  0  0  0  0  0
    3.9373    1.4357    1.2648 O   0  0  0  0  0  0  0  0  0  0  0  0
    4.1433    0.1545    3.4362 N   0  0  0  0  0  0  0  0  0  0  0  0
    3.1801    0.9813    4.1799 C   0  0  0  0  0  0  0  0  0  0  0  0
    3.4746    2.4580    4.1110 C   0  0  0  0  0  0  0  0  0  0  0  0
    2.4240    3.3557    4.3818 C   0  0  0  0  0  0  0  0  0  0  0  0
    2.6433    4.7310    4.3759 C   0  0  0  0  0  0  0  0  0  0  0  0
    3.9173    5.2165    4.1272 C   0  0  0  0  0  0  0  0  0  0  0  0
    4.2216    6.9089    4.1714 Cl  0  0  0  0  0  0  0  0  0  0  0  0
    4.9681    4.3383    3.8592 C   0  0  0  0  0  0  0  0  0  0  0  0
    4.7761    2.9436    3.8275 C   0  0  0  0  0  0  0  0  0  0  0  0
    5.9511    1.9664    3.5077 C   0  0  3  0  0  0  0  0  0  0  0  0
    7.1622    2.3168    4.4053 C   0  0  0  0  0  0  0  0  0  0  0  0
    8.1209    3.0924    3.5219 C   0  0  0  0  0  0  0  0  0  0  0  0
    7.4363    3.3627    2.3001 N   0  0  0  0  0  0  0  0  0  0  0  0
    8.0052    4.1956    1.2735 C   0  0  0  0  0  0  0  0  0  0  0  0
    7.8336    3.8624   -0.0672 C   0  0  0  0  0  0  0  0  0  0  0  0
    8.5950    4.3721   -1.0652 N   0  0  0  0  0  0  0  0  0  0  0  0
    9.4306    5.3628   -0.7101 C   0  0  0  0  0  0  0  0  0  0  0  0
    9.3437    6.0711    0.4744 C   0  0  0  0  0  0  0  0  0  0  0  0
    9.8689    7.3857    0.5810 C   0  0  0  0  0  0  0  0  0  0  0  0
    9.8683    8.0622    1.7946 C   0  0  0  0  0  0  0  0  0  0  0  0
    9.4146    7.4000    2.9189 C   0  0  0  0  0  0  0  0  0  0  0  0
    8.8353    6.1250    2.7907 C   0  0  0  0  0  0  0  0  0  0  0  0
    8.7169    5.4230    1.5584 C   0  0  0  0  0  0  0  0  0  0  0  0
    6.6001    2.2242    2.0945 C   0  0  0  0  0  0  0  0  0  0  0  0
    6.5323    1.5701    1.0866 O   0  0  0  0  0  0  0  0  0  0  0  0
    5.5508    0.5155    3.8511 C   0  0  0  0  0  0  0  0  0  0  0  0
    1.0586   -0.8704   -0.8827 C   0  0  0  0  0  0  0  0  0  0  0  0
    1.9835    0.2984   -1.0179 C   0  0  0  0  0  0  0  0  0  0  0  0
    3.5066   -2.6803    0.0643 H   0  0  0  0  0  0  0  0  0  0  0  0
    4.3931   -1.3338   -0.7088 H   0  0  0  0  0  0  0  0  0  0  0  0
    3.1981   -2.2102   -1.6167 H   0  0  0  0  0  0  0  0  0  0  0  0
    2.2727   -1.5632    1.9621 H   0  0  0  0  0  0  0  0  0  0  0  0
    1.6343    0.1039    1.7050 H   0  0  0  0  0  0  0  0  0  0  0  0
    3.2094    0.6822    5.2403 H   0  0  0  0  0  0  0  0  0  0  0  0
    2.1651    0.7572    3.8423 H   0  0  0  0  0  0  0  0  0  0  0  0
    1.4229    2.9851    4.5940 H   0  0  0  0  0  0  0  0  0  0  0  0
    1.8222    5.4142    4.5707 H   0  0  0  0  0  0  0  0  0  0  0  0
    5.9437    4.7769    3.6803 H   0  0  0  0  0  0  0  0  0  0  0  0
    7.6779    1.4295    4.7866 H   0  0  0  0  0  0  0  0  0  0  0  0
    6.8690    2.9064    5.2817 H   0  0  0  0  0  0  0  0  0  0  0  0
    8.9837    2.4633    3.2722 H   0  0  0  0  0  0  0  0  0  0  0  0
    8.4786    3.9518    4.0715 H   0  0  0  0  0  0  0  0  0  0  0  0
    7.1094    3.1270   -0.4249 H   0  0  0  0  0  0  0  0  0  0  0  0
   10.2787    5.4978   -1.3741 H   0  0  0  0  0  0  0  0  0  0  0  0
   10.2076    7.9148   -0.3099 H   0  0  0  0  0  0  0  0  0  0  0  0
   10.2132    9.0909    1.8642 H   0  0  0  0  0  0  0  0  0  0  0  0
    9.4580    7.8810    3.8938 H   0  0  0  0  0  0  0  0  0  0  0  0
    8.4304    5.7379    3.7169 H   0  0  0  0  0  0  0  0  0  0  0  0
    5.5857    0.3817    4.9511 H   0  0  0  0  0  0  0  0  0  0  0  0
    6.2688   -0.2164    3.4667 H   0  0  0  0  0  0  0  0  0  0  0  0
    0.1117   -0.6826   -0.3987 H   0  0  0  0  0  0  0  0  0  0  0  0
    0.9739   -1.5302   -1.7470 H   0  0  0  0  0  0  0  0  0  0  0  0
    1.6448    1.2361   -0.5886 H   0  0  0  0  0  0  0  0  0  0  0  0
    2.5249    0.4307   -1.9478 H   0  0  0  0  0  0  0  0  0  0  0  0
  1  2  1  0  0  0  0
  1 35  1  0  0  0  0
  1 36  1  0  0  0  0
  1 37  1  0  0  0  0
  2  3  1  0  0  0  0
  2 33  1  0  0  0  0
  2 34  1  0  0  0  0
  3  4  1  0  0  0  0
  3 38  1  0  0  0  0
  3 39  1  0  0  0  0
  4  5  2  0  0  0  0
  4  6  2  0  0  0  0
  4  7  1  0  0  0  0
  7  8  1  0  0  0  0
  7 32  1  0  0  0  0
  8  9  1  0  0  0  0
  8 40  1  0  0  0  0
  8 41  1  0  0  0  0
  9 10  1  0  0  0  0
  9 15  2  0  0  0  0
 10 11  2  0  0  0  0
 10 42  1  0  0  0  0
 11 12  1  0  0  0  0
 11 43  1  0  0  0  0
 12 13  1  0  0  0  0
 12 14  2  0  0  0  0
 14 15  1  0  0  0  0
 14 44  1  0  0  0  0
 15 16  1  0  0  0  0
 16 17  1  0  0  0  0
 16 30  1  0  0  0  0
 16 32  1  0  0  0  0
 17 18  1  0  0  0  0
 17 45  1  0  0  0  0
 17 46  1  0  0  0  0
 18 19  1  0  0  0  0
 18 47  1  0  0  0  0
 18 48  1  0  0  0  0
 19 20  1  0  0  0  0
 19 30  1  0  0  0  0
 20 21  1  0  0  0  0
 20 29  2  0  0  0  0
 21 22  2  0  0  0  0
 21 49  1  0  0  0  0
 22 23  1  0  0  0  0
 23 24  2  0  0  0  0
 23 50  1  0  0  0  0
 24 25  1  0  0  0  0
 24 29  1  0  0  0  0
 25 26  2  0  0  0  0
 25 51  1  0  0  0  0
 26 27  1  0  0  0  0
 26 52  1  0  0  0  0
 27 28  2  0  0  0  0
 27 53  1  0  0  0  0
 28 29  1  0  0  0  0
 28 54  1  0  0  0  0
 30 31  2  0  0  0  0
 32 55  1  0  0  0  0
 32 56  1  0  0  0  0
 33 34  1  0  0  0  0
 33 57  1  0  0  0  0
 33 58  1  0  0  0  0
 34 59  1  0  0  0  0
 34 60  1  0  0  0  0
M  END
$$$$
