
 OpenBabel07202414143D

 58 61  0  0  1  0  0  0  0  0999 V2000
    5.6408   -2.7599   -1.5412 C   0  0  0  0  0  0  0  0  0  0  0  0
    5.5439   -1.4323   -0.9915 N   0  0  0  0  0  0  0  0  0  0  0  0
    4.6838   -0.5105   -1.5518 C   0  0  0  0  0  0  0  0  0  0  0  0
    3.9710   -0.7725   -2.5174 O   0  0  0  0  0  0  0  0  0  0  0  0
    4.7416    0.8859   -0.9161 C   0  0  0  0  0  0  0  0  0  0  0  0
    5.0957    1.8966   -1.9319 N   0  0  0  0  0  0  0  0  0  0  0  0
    6.4589    1.7247   -2.4774 C   0  0  0  0  0  0  0  0  0  0  0  0
    6.6098    2.5768   -3.7556 C   0  0  3  0  0  0  0  0  0  0  0  0
    5.7937    1.9785   -4.9279 C   0  0  0  0  0  0  0  0  0  0  0  0
    6.3313    1.7325   -6.0060 O   0  0  0  0  0  0  0  0  0  0  0  0
    4.4552    1.7879   -4.6330 N   0  0  0  0  0  0  0  0  0  0  0  0
    3.4707    1.0740   -5.3570 C   0  0  0  0  0  0  0  0  0  0  0  0
    3.7381    0.4333   -6.5648 C   0  0  0  0  0  0  0  0  0  0  0  0
    2.9133   -0.4730   -7.1413 N   0  0  0  0  0  0  0  0  0  0  0  0
    1.7195   -0.6608   -6.5446 C   0  0  0  0  0  0  0  0  0  0  0  0
    1.2411    0.1076   -5.4854 C   0  0  0  0  0  0  0  0  0  0  0  0
   -0.1148    0.0641   -5.1140 C   0  0  0  0  0  0  0  0  0  0  0  0
   -0.5918    0.8616   -4.0754 C   0  0  0  0  0  0  0  0  0  0  0  0
    0.3008    1.6341   -3.3442 C   0  0  0  0  0  0  0  0  0  0  0  0
   -0.2067    2.4191   -2.2750 N   0  0  0  0  0  0  0  0  0  0  0  0
   -0.2329    1.7594   -0.7163 S   0  0  0  0  0  0  0  0  0  0  0  0
   -1.8826    1.0919   -0.6561 C   0  0  0  0  0  0  0  0  0  0  0  0
    0.7271    0.6760   -0.6147 O   0  0  0  0  0  0  0  0  0  0  0  0
   -0.1748    2.8855    0.1751 O   0  0  0  0  0  0  0  0  0  0  0  0
    1.6538    1.6626   -3.6863 C   0  0  0  0  0  0  0  0  0  0  0  0
    2.1517    0.9575   -4.8202 C   0  0  0  0  0  0  0  0  0  0  0  0
    6.2312    4.0218   -3.4685 C   0  0  0  0  0  0  0  0  0  0  0  0
    6.7312    5.0574   -4.2718 C   0  0  0  0  0  0  0  0  0  0  0  0
    6.3393    6.3736   -4.0331 C   0  0  0  0  0  0  0  0  0  0  0  0
    6.9774    7.6458   -4.9998 Cl  0  0  0  0  0  0  0  0  0  0  0  0
    5.4401    6.6709   -3.0115 C   0  0  0  0  0  0  0  0  0  0  0  0
    4.9597    5.6512   -2.1897 C   0  0  0  0  0  0  0  0  0  0  0  0
    5.3594    4.3236   -2.3984 C   0  0  0  0  0  0  0  0  0  0  0  0
    4.9207    3.2579   -1.4105 C   0  0  0  0  0  0  0  0  0  0  0  0
    6.3936   -3.3196   -0.9823 H   0  0  0  0  0  0  0  0  0  0  0  0
    5.9284   -2.6946   -2.5942 H   0  0  0  0  0  0  0  0  0  0  0  0
    4.6685   -3.2548   -1.4619 H   0  0  0  0  0  0  0  0  0  0  0  0
    6.1493   -1.1699   -0.2261 H   0  0  0  0  0  0  0  0  0  0  0  0
    5.4372    0.9065   -0.0699 H   0  0  0  0  0  0  0  0  0  0  0  0
    3.7342    1.0799   -0.5284 H   0  0  0  0  0  0  0  0  0  0  0  0
    6.6655    0.6793   -2.7321 H   0  0  0  0  0  0  0  0  0  0  0  0
    7.2075    2.0252   -1.7299 H   0  0  0  0  0  0  0  0  0  0  0  0
    7.6682    2.5399   -4.0479 H   0  0  0  0  0  0  0  0  0  0  0  0
    4.2279    1.9501   -3.6547 H   0  0  0  0  0  0  0  0  0  0  0  0
    4.6522    0.6041   -7.1236 H   0  0  0  0  0  0  0  0  0  0  0  0
    1.1289   -1.4718   -6.9635 H   0  0  0  0  0  0  0  0  0  0  0  0
   -0.8228   -0.5348   -5.6814 H   0  0  0  0  0  0  0  0  0  0  0  0
   -1.6546    0.8926   -3.8628 H   0  0  0  0  0  0  0  0  0  0  0  0
    0.0698    3.3994   -2.2504 H   0  0  0  0  0  0  0  0  0  0  0  0
   -1.9736    0.2834   -1.3804 H   0  0  0  0  0  0  0  0  0  0  0  0
   -2.5975    1.8920   -0.8629 H   0  0  0  0  0  0  0  0  0  0  0  0
   -2.0522    0.6982    0.3548 H   0  0  0  0  0  0  0  0  0  0  0  0
    2.3209    2.2684   -3.0818 H   0  0  0  0  0  0  0  0  0  0  0  0
    7.4301    4.8382   -5.0769 H   0  0  0  0  0  0  0  0  0  0  0  0
    5.1219    7.6956   -2.8396 H   0  0  0  0  0  0  0  0  0  0  0  0
    4.2795    5.8991   -1.3774 H   0  0  0  0  0  0  0  0  0  0  0  0
    3.8573    3.4110   -1.1889 H   0  0  0  0  0  0  0  0  0  0  0  0
    5.4902    3.3974   -0.4830 H   0  0  0  0  0  0  0  0  0  0  0  0
  1  2  1  0  0  0  0
  1 35  1  0  0  0  0
  1 36  1  0  0  0  0
  1 37  1  0  0  0  0
  2  3  1  0  0  0  0
  2 38  1  0  0  0  0
  3  4  2  0  0  0  0
  3  5  1  0  0  0  0
  5  6  1  0  0  0  0
  5 39  1  0  0  0  0
  5 40  1  0  0  0  0
  6  7  1  0  0  0  0
  6 34  1  0  0  0  0
  7  8  1  0  0  0  0
  7 41  1  0  0  0  0
  7 42  1  0  0  0  0
  8  9  1  0  0  0  0
  8 27  1  0  0  0  0
  8 43  1  0  0  0  0
  9 10  2  0  0  0  0
  9 11  1  0  0  0  0
 11 12  1  0  0  0  0
 11 44  1  0  0  0  0
 12 13  1  0  0  0  0
 12 26  2  0  0  0  0
 13 14  2  0  0  0  0
 13 45  1  0  0  0  0
 14 15  1  0  0  0  0
 15 16  2  0  0  0  0
 15 46  1  0  0  0  0
 16 17  1  0  0  0  0
 16 26  1  0  0  0  0
 17 18  2  0  0  0  0
 17 47  1  0  0  0  0
 18 19  1  0  0  0  0
 18 48  1  0  0  0  0
 19 20  1  0  0  0  0
 19 25  2  0  0  0  0
 20 21  1  0  0  0  0
 20 49  1  0  0  0  0
 21 22  1  0  0  0  0
 21 23  2  0  0  0  0
 21 24  2  0  0  0  0
 22 50  1  0  0  0  0
 22 51  1  0  0  0  0
 22 52  1  0  0  0  0
 25 26  1  0  0  0  0
 25 53  1  0  0  0  0
 27 28  1  0  0  0  0
 27 33  2  0  0  0  0
 28 29  2  0  0  0  0
 28 54  1  0  0  0  0
 29 30  1  0  0  0  0
 29 31  1  0  0  0  0
 31 32  2  0  0  0  0
 31 55  1  0  0  0  0
 32 33  1  0  0  0  0
 32 56  1  0  0  0  0
 33 34  1  0  0  0  0
 34 57  1  0  0  0  0
 34 58  1  0  0  0  0
M  END
$$$$
