
 OpenBabel07202414213D

 68 72  0  0  1  0  0  0  0  0999 V2000
   -7.2226    4.0829    2.8589 C   0  0  0  0  0  0  0  0  0  0  0  0
   -5.9063    4.1208    3.2899 C   0  0  0  0  0  0  0  0  0  0  0  0
   -4.8635    4.2357    2.3623 C   0  0  0  0  0  0  0  0  0  0  0  0
   -5.1137    4.3205    0.9691 C   0  0  0  0  0  0  0  0  0  0  0  0
   -6.4637    4.2332    0.5533 C   0  0  0  0  0  0  0  0  0  0  0  0
   -7.5016    4.1254    1.4938 C   0  0  0  0  0  0  0  0  0  0  0  0
   -6.7456    4.2659   -0.8095 C   0  0  0  0  0  0  0  0  0  0  0  0
   -5.8198    4.3920   -1.7762 N   0  0  0  0  0  0  0  0  0  0  0  0
   -4.5374    4.5246   -1.3639 C   0  0  0  0  0  0  0  0  0  0  0  0
   -4.1168    4.5106   -0.0285 C   0  0  0  0  0  0  0  0  0  0  0  0
   -2.7579    4.7029    0.3621 N   0  0  0  0  0  0  0  0  0  0  0  0
   -1.6937    4.9257   -0.4681 C   0  0  0  0  0  0  0  0  0  0  0  0
   -1.7880    4.9556   -1.6980 O   0  0  0  0  0  0  0  0  0  0  0  0
   -0.2604    5.0568    0.1840 C   0  0  2  0  0  0  0  0  0  0  0  0
   -0.0288    5.2873    1.6968 C   0  0  0  0  0  0  0  0  0  0  0  0
   -0.6692    6.5473    2.2121 C   0  0  0  0  0  0  0  0  0  0  0  0
   -0.1904    7.7099    1.5721 O   0  0  0  0  0  0  0  0  0  0  0  0
    0.1493    7.5937    0.2571 C   0  0  0  0  0  0  0  0  0  0  0  0
    0.2912    6.3722   -0.4548 C   0  0  0  0  0  0  0  0  0  0  0  0
    0.6615    6.4698   -1.8074 C   0  0  0  0  0  0  0  0  0  0  0  0
    0.8038    7.7294   -2.4251 C   0  0  0  0  0  0  0  0  0  0  0  0
    0.6276    8.9106   -1.7085 C   0  0  0  0  0  0  0  0  0  0  0  0
    0.3247    8.8353   -0.3585 C   0  0  0  0  0  0  0  0  0  0  0  0
    1.1315    7.8327   -4.1138 Cl  0  0  0  0  0  0  0  0  0  0  0  0
    0.3770    3.6379   -0.1010 C   0  0  0  0  0  0  0  0  0  0  0  0
   -0.3157    2.5499    0.7902 C   0  0  0  0  0  0  0  0  0  0  0  0
   -1.4042    2.7707    1.3284 O   0  0  0  0  0  0  0  0  0  0  0  0
    0.3158    1.3494    1.0540 N   0  0  0  0  0  0  0  0  0  0  0  0
   -0.3806    0.3936    1.9381 C   0  0  0  0  0  0  0  0  0  0  0  0
    0.5768   -0.5938    2.6369 C   0  0  0  0  0  0  0  0  0  0  0  0
    1.5332   -1.2714    1.7323 N   0  0  0  0  0  0  0  0  0  0  0  0
    2.2362   -0.2319    0.9414 C   0  0  0  0  0  0  0  0  0  0  0  0
    1.3241    0.7530    0.1782 C   0  0  0  0  0  0  0  0  0  0  0  0
    0.8475   -2.2922    0.9013 C   0  0  0  0  0  0  0  0  0  0  0  0
    1.7102   -3.1331   -0.0630 C   0  0  0  0  0  0  0  0  0  0  0  0
    2.8495   -3.8901    0.6226 C   0  0  0  0  0  0  0  0  0  0  0  0
    3.6256   -4.6597   -0.3077 O   0  0  0  0  0  0  0  0  0  0  0  0
    0.9044   -4.0463   -0.6820 F   0  0  0  0  0  0  0  0  0  0  0  0
    2.1922   -2.3422   -1.0587 F   0  0  0  0  0  0  0  0  0  0  0  0
   -8.0318    4.0142    3.5771 H   0  0  0  0  0  0  0  0  0  0  0  0
   -5.6776    4.0679    4.3520 H   0  0  0  0  0  0  0  0  0  0  0  0
   -3.8527    4.2516    2.7566 H   0  0  0  0  0  0  0  0  0  0  0  0
   -8.5392    4.0854    1.1682 H   0  0  0  0  0  0  0  0  0  0  0  0
   -7.7647    4.1870   -1.1796 H   0  0  0  0  0  0  0  0  0  0  0  0
   -3.8538    4.6289   -2.1989 H   0  0  0  0  0  0  0  0  0  0  0  0
   -2.5185    4.3997    1.2999 H   0  0  0  0  0  0  0  0  0  0  0  0
    1.0604    5.3692    1.8554 H   0  0  0  0  0  0  0  0  0  0  0  0
   -0.3515    4.4728    2.3420 H   0  0  0  0  0  0  0  0  0  0  0  0
   -0.4249    6.6476    3.2758 H   0  0  0  0  0  0  0  0  0  0  0  0
   -1.7598    6.5136    2.1381 H   0  0  0  0  0  0  0  0  0  0  0  0
    0.7299    5.5806   -2.4312 H   0  0  0  0  0  0  0  0  0  0  0  0
    0.6931    9.8807   -2.1902 H   0  0  0  0  0  0  0  0  0  0  0  0
    0.1755    9.7472    0.2180 H   0  0  0  0  0  0  0  0  0  0  0  0
    0.2514    3.3373   -1.1476 H   0  0  0  0  0  0  0  0  0  0  0  0
    1.4494    3.6629    0.1228 H   0  0  0  0  0  0  0  0  0  0  0  0
   -1.1144   -0.1456    1.3277 H   0  0  0  0  0  0  0  0  0  0  0  0
   -0.9423    0.9340    2.7088 H   0  0  0  0  0  0  0  0  0  0  0  0
    0.0025   -1.3330    3.2098 H   0  0  0  0  0  0  0  0  0  0  0  0
    1.1613   -0.0389    3.3836 H   0  0  0  0  0  0  0  0  0  0  0  0
    2.9587   -0.6836    0.2564 H   0  0  0  0  0  0  0  0  0  0  0  0
    2.8451    0.3496    1.6466 H   0  0  0  0  0  0  0  0  0  0  0  0
    0.7857    0.2369   -0.6248 H   0  0  0  0  0  0  0  0  0  0  0  0
    1.9309    1.5337   -0.2864 H   0  0  0  0  0  0  0  0  0  0  0  0
    0.0455   -1.8362    0.3097 H   0  0  0  0  0  0  0  0  0  0  0  0
    0.3512   -3.0019    1.5779 H   0  0  0  0  0  0  0  0  0  0  0  0
    2.4464   -4.5935    1.3581 H   0  0  0  0  0  0  0  0  0  0  0  0
    3.5376   -3.2065    1.1267 H   0  0  0  0  0  0  0  0  0  0  0  0
    3.0011   -5.0647   -0.9381 H   0  0  0  0  0  0  0  0  0  0  0  0
  1  2  1  0  0  0  0
  1  6  2  0  0  0  0
  1 40  1  0  0  0  0
  2  3  2  0  0  0  0
  2 41  1  0  0  0  0
  3  4  1  0  0  0  0
  3 42  1  0  0  0  0
  4  5  1  0  0  0  0
  4 10  2  0  0  0  0
  5  6  1  0  0  0  0
  5  7  2  0  0  0  0
  6 43  1  0  0  0  0
  7  8  1  0  0  0  0
  7 44  1  0  0  0  0
  8  9  2  0  0  0  0
  9 10  1  0  0  0  0
  9 45  1  0  0  0  0
 10 11  1  0  0  0  0
 11 12  1  0  0  0  0
 11 46  1  0  0  0  0
 12 13  2  0  0  0  0
 14 15  1  0  0  0  0
 14 19  1  0  0  0  0
 14 25  1  0  0  0  0
 14 12  1  6  0  0  0
 15 16  1  0  0  0  0
 15 47  1  0  0  0  0
 15 48  1  0  0  0  0
 16 17  1  0  0  0  0
 16 49  1  0  0  0  0
 16 50  1  0  0  0  0
 17 18  1  0  0  0  0
 18 19  1  0  0  0  0
 18 23  2  0  0  0  0
 19 20  2  0  0  0  0
 20 21  1  0  0  0  0
 20 51  1  0  0  0  0
 21 22  2  0  0  0  0
 21 24  1  0  0  0  0
 22 23  1  0  0  0  0
 22 52  1  0  0  0  0
 23 53  1  0  0  0  0
 25 26  1  0  0  0  0
 25 54  1  0  0  0  0
 25 55  1  0  0  0  0
 26 27  2  0  0  0  0
 26 28  1  0  0  0  0
 28 29  1  0  0  0  0
 28 33  1  0  0  0  0
 29 30  1  0  0  0  0
 29 56  1  0  0  0  0
 29 57  1  0  0  0  0
 30 31  1  0  0  0  0
 30 58  1  0  0  0  0
 30 59  1  0  0  0  0
 31 32  1  0  0  0  0
 31 34  1  0  0  0  0
 32 33  1  0  0  0  0
 32 60  1  0  0  0  0
 32 61  1  0  0  0  0
 33 62  1  0  0  0  0
 33 63  1  0  0  0  0
 34 35  1  0  0  0  0
 34 64  1  0  0  0  0
 34 65  1  0  0  0  0
 35 36  1  0  0  0  0
 35 38  1  0  0  0  0
 35 39  1  0  0  0  0
 36 37  1  0  0  0  0
 36 66  1  0  0  0  0
 36 67  1  0  0  0  0
 37 68  1  0  0  0  0
M  END
$$$$
