
 OpenBabel07202414173D

 41 44  0  0  1  0  0  0  0  0999 V2000
    1.1880   -0.1580   -0.0327 Cl  0  0  0  0  0  0  0  0  0  0  0  0
    2.9052   -0.1383   -0.0042 C   0  0  0  0  0  0  0  0  0  0  0  0
    3.5849    1.0685   -0.1224 C   0  0  0  0  0  0  0  0  0  0  0  0
    4.9948    1.0840   -0.1293 C   0  0  0  0  0  0  0  0  0  0  0  0
    5.6457    2.3561   -0.2945 C   0  0  0  0  0  0  0  0  0  0  0  0
    6.1790    3.3681   -0.4193 N   0  0  0  0  0  0  0  0  0  0  0  0
    5.7234   -0.1094    0.0315 C   0  0  0  0  0  0  0  0  0  0  0  0
    5.0188   -1.3364    0.1258 C   0  0  0  0  0  0  0  0  0  0  0  0
    3.6127   -1.3353    0.1222 C   0  0  0  0  0  0  0  0  0  0  0  0
    5.7639   -2.6671    0.2234 C   0  0  3  0  0  0  0  0  0  0  0  0
    5.7604   -3.3450    1.6084 C   0  0  0  0  0  0  0  0  0  0  0  0
    5.8722   -4.5656    1.6915 O   0  0  0  0  0  0  0  0  0  0  0  0
    5.6385   -2.4980    2.6859 N   0  0  0  0  0  0  0  0  0  0  0  0
    5.5869   -2.8482    4.0525 C   0  0  0  0  0  0  0  0  0  0  0  0
    4.6031   -2.1800    4.7997 C   0  0  0  0  0  0  0  0  0  0  0  0
    4.5068   -2.1763    6.1406 N   0  0  0  0  0  0  0  0  0  0  0  0
    5.5118   -2.7880    6.7890 C   0  0  0  0  0  0  0  0  0  0  0  0
    6.5455   -3.4858    6.1640 C   0  0  0  0  0  0  0  0  0  0  0  0
    7.5851   -4.0225    6.9348 C   0  0  0  0  0  0  0  0  0  0  0  0
    8.2953   -5.1125    6.4703 C   0  0  0  0  0  0  0  0  0  0  0  0
    8.2208   -5.4175    5.1221 C   0  0  0  0  0  0  0  0  0  0  0  0
    7.4605   -4.6067    4.2619 C   0  0  0  0  0  0  0  0  0  0  0  0
    6.5192   -3.6637    4.7725 C   0  0  0  0  0  0  0  0  0  0  0  0
    7.2035   -2.5378   -0.2762 C   0  0  0  0  0  0  0  0  0  0  0  0
    7.8560   -1.3005    0.3147 C   0  0  0  0  0  0  0  0  0  0  0  0
    7.1202   -0.1149   -0.0852 N   0  0  0  0  0  0  0  0  0  0  0  0
    3.0220    1.9973   -0.2446 H   0  0  0  0  0  0  0  0  0  0  0  0
    3.0630   -2.2728    0.1897 H   0  0  0  0  0  0  0  0  0  0  0  0
    5.2456   -3.3699   -0.4443 H   0  0  0  0  0  0  0  0  0  0  0  0
    5.2173   -1.6004    2.4747 H   0  0  0  0  0  0  0  0  0  0  0  0
    3.8135   -1.6287    4.3007 H   0  0  0  0  0  0  0  0  0  0  0  0
    5.4242   -2.7681    7.8745 H   0  0  0  0  0  0  0  0  0  0  0  0
    7.8623   -3.5621    7.8829 H   0  0  0  0  0  0  0  0  0  0  0  0
    8.9193   -5.6882    7.1476 H   0  0  0  0  0  0  0  0  0  0  0  0
    8.7969   -6.2525    4.7288 H   0  0  0  0  0  0  0  0  0  0  0  0
    7.5569   -4.7897    3.1999 H   0  0  0  0  0  0  0  0  0  0  0  0
    7.1974   -2.4536   -1.3725 H   0  0  0  0  0  0  0  0  0  0  0  0
    7.7943   -3.4288   -0.0251 H   0  0  0  0  0  0  0  0  0  0  0  0
    8.8821   -1.2153   -0.0576 H   0  0  0  0  0  0  0  0  0  0  0  0
    7.9113   -1.3538    1.4066 H   0  0  0  0  0  0  0  0  0  0  0  0
    7.5856    0.7625    0.1468 H   0  0  0  0  0  0  0  0  0  0  0  0
  1  2  1  0  0  0  0
  2  3  1  0  0  0  0
  2  9  2  0  0  0  0
  3  4  2  0  0  0  0
  3 27  1  0  0  0  0
  4  5  1  0  0  0  0
  4  7  1  0  0  0  0
  5  6  3  0  0  0  0
  7  8  2  0  0  0  0
  7 26  1  0  0  0  0
  8  9  1  0  0  0  0
  8 10  1  0  0  0  0
  9 28  1  0  0  0  0
 10 11  1  0  0  0  0
 10 24  1  0  0  0  0
 10 29  1  0  0  0  0
 11 12  2  0  0  0  0
 11 13  1  0  0  0  0
 13 14  1  0  0  0  0
 13 30  1  0  0  0  0
 14 15  1  0  0  0  0
 14 23  2  0  0  0  0
 15 16  2  0  0  0  0
 15 31  1  0  0  0  0
 16 17  1  0  0  0  0
 17 18  2  0  0  0  0
 17 32  1  0  0  0  0
 18 19  1  0  0  0  0
 18 23  1  0  0  0  0
 19 20  2  0  0  0  0
 19 33  1  0  0  0  0
 20 21  1  0  0  0  0
 20 34  1  0  0  0  0
 21 22  2  0  0  0  0
 21 35  1  0  0  0  0
 22 23  1  0  0  0  0
 22 36  1  0  0  0  0
 24 25  1  0  0  0  0
 24 37  1  0  0  0  0
 24 38  1  0  0  0  0
 25 26  1  0  0  0  0
 25 39  1  0  0  0  0
 25 40  1  0  0  0  0
 26 41  1  0  0  0  0
M  END
$$$$
