
 OpenBabel07202414193D

 42 45  0  0  1  0  0  0  0  0999 V2000
    1.0657   -0.3386    0.0030 O   0  0  0  0  0  0  0  0  0  0  0  0
    2.2792   -0.1271    0.0604 C   0  0  0  0  0  0  0  0  0  0  0  0
    2.9576    0.6894   -1.0320 C   0  0  0  0  0  0  0  0  0  0  0  0
    3.0380    2.1788   -0.7703 C   0  0  0  0  0  0  0  0  0  0  0  0
    2.0077    2.8160   -0.0760 C   0  0  0  0  0  0  0  0  0  0  0  0
    1.9530    4.1399    0.1754 N   0  0  0  0  0  0  0  0  0  0  0  0
    2.9601    4.8884   -0.3193 C   0  0  0  0  0  0  0  0  0  0  0  0
    4.0353    4.3861   -1.0481 C   0  0  0  0  0  0  0  0  0  0  0  0
    5.0398    5.2405   -1.5392 C   0  0  0  0  0  0  0  0  0  0  0  0
    6.1072    4.7336   -2.2742 C   0  0  0  0  0  0  0  0  0  0  0  0
    6.1775    3.3708   -2.5295 C   0  0  0  0  0  0  0  0  0  0  0  0
    5.1803    2.5138   -2.0498 C   0  0  0  0  0  0  0  0  0  0  0  0
    4.0849    2.9930   -1.2906 C   0  0  0  0  0  0  0  0  0  0  0  0
    3.0557   -0.6205    1.0918 N   0  0  0  0  0  0  0  0  0  0  0  0
    2.4768   -1.5495    2.0661 C   0  0  0  0  0  0  0  0  0  0  0  0
    2.6730   -1.0281    3.4913 C   0  0  0  0  0  0  0  0  0  0  0  0
    4.0605   -0.7678    3.7555 O   0  0  0  0  0  0  0  0  0  0  0  0
    4.5800    0.2365    2.8559 C   0  0  1  0  0  0  0  0  0  0  0  0
    6.0166    0.5527    3.1836 C   0  0  0  0  0  0  0  0  0  0  0  0
    6.9559   -0.3783    3.7422 C   0  0  0  0  0  0  0  0  0  0  0  0
    8.2055    0.1697    3.9241 C   0  0  0  0  0  0  0  0  0  0  0  0
    8.2657    1.8024    3.4267 S   0  0  0  0  0  0  0  0  0  0  0  0
    6.6169    1.7820    2.9733 C   0  0  0  0  0  0  0  0  0  0  0  0
    4.4436   -0.2423    1.3890 C   0  0  0  0  0  0  0  0  0  0  0  0
    2.3894    0.5348   -1.9582 H   0  0  0  0  0  0  0  0  0  0  0  0
    3.9387    0.2423   -1.2129 H   0  0  0  0  0  0  0  0  0  0  0  0
    1.1495    2.2673    0.3095 H   0  0  0  0  0  0  0  0  0  0  0  0
    2.8671    5.9513   -0.1124 H   0  0  0  0  0  0  0  0  0  0  0  0
    4.9912    6.3119   -1.3542 H   0  0  0  0  0  0  0  0  0  0  0  0
    6.8777    5.4018   -2.6506 H   0  0  0  0  0  0  0  0  0  0  0  0
    7.0065    2.9692   -3.1073 H   0  0  0  0  0  0  0  0  0  0  0  0
    5.2805    1.4593   -2.2904 H   0  0  0  0  0  0  0  0  0  0  0  0
    3.0146   -2.4975    1.9434 H   0  0  0  0  0  0  0  0  0  0  0  0
    1.4172   -1.7370    1.8700 H   0  0  0  0  0  0  0  0  0  0  0  0
    2.3332   -1.7779    4.2128 H   0  0  0  0  0  0  0  0  0  0  0  0
    2.0976   -0.1110    3.6615 H   0  0  0  0  0  0  0  0  0  0  0  0
    3.9812    1.1468    2.9994 H   0  0  0  0  0  0  0  0  0  0  0  0
    6.7136   -1.4022    4.0040 H   0  0  0  0  0  0  0  0  0  0  0  0
    9.0854   -0.3107    4.3290 H   0  0  0  0  0  0  0  0  0  0  0  0
    6.1661    2.6790    2.5687 H   0  0  0  0  0  0  0  0  0  0  0  0
    5.0506   -1.1409    1.2209 H   0  0  0  0  0  0  0  0  0  0  0  0
    4.8058    0.5343    0.7134 H   0  0  0  0  0  0  0  0  0  0  0  0
  1  2  2  0  0  0  0
  2  3  1  0  0  0  0
  2 14  1  0  0  0  0
  3  4  1  0  0  0  0
  3 25  1  0  0  0  0
  3 26  1  0  0  0  0
  4  5  1  0  0  0  0
  4 13  2  0  0  0  0
  5  6  2  0  0  0  0
  5 27  1  0  0  0  0
  6  7  1  0  0  0  0
  7  8  2  0  0  0  0
  7 28  1  0  0  0  0
  8  9  1  0  0  0  0
  8 13  1  0  0  0  0
  9 10  2  0  0  0  0
  9 29  1  0  0  0  0
 10 11  1  0  0  0  0
 10 30  1  0  0  0  0
 11 12  2  0  0  0  0
 11 31  1  0  0  0  0
 12 13  1  0  0  0  0
 12 32  1  0  0  0  0
 14 15  1  0  0  0  0
 14 24  1  0  0  0  0
 15 16  1  0  0  0  0
 15 33  1  0  0  0  0
 15 34  1  0  0  0  0
 16 17  1  0  0  0  0
 16 35  1  0  0  0  0
 16 36  1  0  0  0  0
 17 18  1  0  0  0  0
 18 24  1  0  0  0  0
 18 19  1  0  0  0  0
 18 37  1  1  0  0  0
 19 20  1  0  0  0  0
 19 23  2  0  0  0  0
 20 21  2  0  0  0  0
 20 38  1  0  0  0  0
 21 22  1  0  0  0  0
 21 39  1  0  0  0  0
 22 23  1  0  0  0  0
 23 40  1  0  0  0  0
 24 41  1  0  0  0  0
 24 42  1  0  0  0  0
M  END
$$$$
