
 OpenBabel07202414143D

 57 61  0  0  1  0  0  0  0  0999 V2000
    6.9511    1.0129   -3.3219 C   0  0  0  0  0  0  0  0  0  0  0  0
    6.3817   -0.0378   -2.5201 N   0  0  0  0  0  0  0  0  0  0  0  0
    5.1096    0.0742   -2.0091 C   0  0  0  0  0  0  0  0  0  0  0  0
    4.3775    1.0372   -2.2349 O   0  0  0  0  0  0  0  0  0  0  0  0
    4.7056   -0.9999   -0.9957 C   0  0  0  0  0  0  0  0  0  0  0  0
    5.3114   -2.3312   -1.1002 N   0  0  0  0  0  0  0  0  0  0  0  0
    4.6708   -3.3869   -1.8754 C   0  0  0  0  0  0  0  0  0  0  0  0
    4.5950   -4.7131   -1.0824 C   0  0  2  0  0  0  0  0  0  0  0  0
    4.2347   -5.8090   -2.0969 C   0  0  0  0  0  0  0  0  0  0  0  0
    4.8682   -5.9954   -3.1320 O   0  0  0  0  0  0  0  0  0  0  0  0
    3.1572   -6.5627   -1.6171 N   0  0  0  0  0  0  0  0  0  0  0  0
    2.4861   -7.6267   -2.3194 C   0  0  0  0  0  0  0  0  0  0  0  0
    2.6637   -7.7742   -3.7075 C   0  0  0  0  0  0  0  0  0  0  0  0
    1.9983   -8.6456   -4.5058 N   0  0  0  0  0  0  0  0  0  0  0  0
    1.1052   -9.4416   -3.9072 C   0  0  0  0  0  0  0  0  0  0  0  0
    0.8749   -9.4249   -2.5449 C   0  0  0  0  0  0  0  0  0  0  0  0
    1.5773   -8.5336   -1.7011 C   0  0  0  0  0  0  0  0  0  0  0  0
    1.2905   -8.6253   -0.2049 C   0  0  0  0  0  0  0  0  0  0  0  0
    2.3523   -9.1662    0.7352 C   0  0  0  0  0  0  0  0  0  0  0  0
    1.1104   -9.9573    0.4949 C   0  0  0  0  0  0  0  0  0  0  0  0
    2.6498   -6.0254   -0.3867 C   0  0  0  0  0  0  0  0  0  0  0  0
    3.4720   -4.7952   -0.0179 C   0  0  2  0  0  0  0  0  0  0  0  0
    2.5508   -3.5929    0.1634 C   0  0  0  0  0  0  0  0  0  0  0  0
    5.9659   -4.9959   -0.4387 C   0  0  0  0  0  0  0  0  0  0  0  0
    6.2804   -6.2622    0.0942 C   0  0  0  0  0  0  0  0  0  0  0  0
    7.5303   -6.5017    0.6749 C   0  0  0  0  0  0  0  0  0  0  0  0
    7.8587   -8.0331    1.3877 Cl  0  0  0  0  0  0  0  0  0  0  0  0
    8.5010   -5.5060    0.7081 C   0  0  0  0  0  0  0  0  0  0  0  0
    8.1998   -4.2381    0.2148 C   0  0  0  0  0  0  0  0  0  0  0  0
    6.9281   -3.9720   -0.3180 C   0  0  0  0  0  0  0  0  0  0  0  0
    6.5757   -2.5527   -0.5912 C   0  0  0  0  0  0  0  0  0  0  0  0
    7.3476   -1.6405   -0.3159 O   0  0  0  0  0  0  0  0  0  0  0  0
    7.7614    0.5910   -3.9198 H   0  0  0  0  0  0  0  0  0  0  0  0
    7.3460    1.7841   -2.6550 H   0  0  0  0  0  0  0  0  0  0  0  0
    6.1926    1.4521   -3.9755 H   0  0  0  0  0  0  0  0  0  0  0  0
    7.0220   -0.6182   -1.9805 H   0  0  0  0  0  0  0  0  0  0  0  0
    3.6181   -1.1141   -1.0458 H   0  0  0  0  0  0  0  0  0  0  0  0
    4.9534   -0.6030   -0.0029 H   0  0  0  0  0  0  0  0  0  0  0  0
    5.2880   -3.5080   -2.7768 H   0  0  0  0  0  0  0  0  0  0  0  0
    3.6876   -3.0596   -2.2291 H   0  0  0  0  0  0  0  0  0  0  0  0
    3.3364   -7.1396   -4.2755 H   0  0  0  0  0  0  0  0  0  0  0  0
    0.5598  -10.1141   -4.5631 H   0  0  0  0  0  0  0  0  0  0  0  0
    0.1444  -10.1139   -2.1313 H   0  0  0  0  0  0  0  0  0  0  0  0
    0.6291   -7.8477    0.1751 H   0  0  0  0  0  0  0  0  0  0  0  0
    2.4681   -8.6924    1.7047 H   0  0  0  0  0  0  0  0  0  0  0  0
    3.2800   -9.5423    0.3184 H   0  0  0  0  0  0  0  0  0  0  0  0
    0.3859  -10.0078    1.3023 H   0  0  0  0  0  0  0  0  0  0  0  0
    1.2206  -10.8876   -0.0500 H   0  0  0  0  0  0  0  0  0  0  0  0
    2.7705   -6.7452    0.4190 H   0  0  0  0  0  0  0  0  0  0  0  0
    1.5902   -5.7835   -0.5259 H   0  0  0  0  0  0  0  0  0  0  0  0
    3.9057   -4.9740    0.9760 H   0  0  0  0  0  0  0  0  0  0  0  0
    2.0465   -3.3117   -0.7657 H   0  0  0  0  0  0  0  0  0  0  0  0
    3.1024   -2.7344    0.5535 H   0  0  0  0  0  0  0  0  0  0  0  0
    1.7706   -3.8243    0.8981 H   0  0  0  0  0  0  0  0  0  0  0  0
    5.5498   -7.0677    0.0829 H   0  0  0  0  0  0  0  0  0  0  0  0
    9.4777   -5.6953    1.1465 H   0  0  0  0  0  0  0  0  0  0  0  0
    8.9438   -3.4459    0.2850 H   0  0  0  0  0  0  0  0  0  0  0  0
  1  2  1  0  0  0  0
  1 33  1  0  0  0  0
  1 34  1  0  0  0  0
  1 35  1  0  0  0  0
  2  3  1  0  0  0  0
  2 36  1  0  0  0  0
  3  4  2  0  0  0  0
  3  5  1  0  0  0  0
  5  6  1  0  0  0  0
  5 37  1  0  0  0  0
  5 38  1  0  0  0  0
  6  7  1  0  0  0  0
  6 31  1  0  0  0  0
  7  8  1  0  0  0  0
  7 39  1  0  0  0  0
  7 40  1  0  0  0  0
  8  9  1  6  0  0  0
  8 22  1  0  0  0  0
  8 24  1  0  0  0  0
  9 10  2  0  0  0  0
  9 11  1  0  0  0  0
 11 12  1  0  0  0  0
 11 21  1  0  0  0  0
 12 13  1  0  0  0  0
 12 17  2  0  0  0  0
 13 14  2  0  0  0  0
 13 41  1  0  0  0  0
 14 15  1  0  0  0  0
 15 16  2  0  0  0  0
 15 42  1  0  0  0  0
 16 17  1  0  0  0  0
 16 43  1  0  0  0  0
 17 18  1  0  0  0  0
 18 19  1  0  0  0  0
 18 20  1  0  0  0  0
 18 44  1  0  0  0  0
 19 20  1  0  0  0  0
 19 45  1  0  0  0  0
 19 46  1  0  0  0  0
 20 47  1  0  0  0  0
 20 48  1  0  0  0  0
 21 22  1  0  0  0  0
 21 49  1  0  0  0  0
 21 50  1  0  0  0  0
 22 23  1  0  0  0  0
 22 51  1  1  0  0  0
 23 52  1  0  0  0  0
 23 53  1  0  0  0  0
 23 54  1  0  0  0  0
 24 25  1  0  0  0  0
 24 30  2  0  0  0  0
 25 26  2  0  0  0  0
 25 55  1  0  0  0  0
 26 27  1  0  0  0  0
 26 28  1  0  0  0  0
 28 29  2  0  0  0  0
 28 56  1  0  0  0  0
 29 30  1  0  0  0  0
 29 57  1  0  0  0  0
 30 31  1  0  0  0  0
 31 32  2  0  0  0  0
M  END
$$$$
