
 OpenBabel07202414193D

 43 46  0  0  1  0  0  0  0  0999 V2000
    2.5253    1.3486    0.4339 O   0  0  0  0  0  0  0  0  0  0  0  0
    2.2618    0.1516    0.2610 C   0  0  0  0  0  0  0  0  0  0  0  0
    1.1059   -0.1944   -0.6408 C   0  0  0  0  0  0  0  0  0  0  0  0
    1.1717    0.3579   -2.0385 C   0  0  0  0  0  0  0  0  0  0  0  0
    1.8684   -0.3726   -2.9972 C   0  0  0  0  0  0  0  0  0  0  0  0
    1.8806   -0.0919   -4.3126 N   0  0  0  0  0  0  0  0  0  0  0  0
    1.1678    0.9929   -4.6857 C   0  0  0  0  0  0  0  0  0  0  0  0
    0.4656    1.8323   -3.8116 C   0  0  0  0  0  0  0  0  0  0  0  0
   -0.2425    2.9559   -4.2675 C   0  0  0  0  0  0  0  0  0  0  0  0
   -0.9437    3.7629   -3.3681 C   0  0  0  0  0  0  0  0  0  0  0  0
   -0.9432    3.4554   -2.0155 C   0  0  0  0  0  0  0  0  0  0  0  0
   -0.2417    2.3427   -1.5526 C   0  0  0  0  0  0  0  0  0  0  0  0
    0.4701    1.5089   -2.4415 C   0  0  0  0  0  0  0  0  0  0  0  0
    3.0275   -0.8537    0.8604 N   0  0  0  0  0  0  0  0  0  0  0  0
    4.1924   -0.3586    1.6158 C   0  0  0  0  0  0  0  0  0  0  0  0
    5.4321   -1.2102    1.3711 C   0  0  0  0  0  0  0  0  0  0  0  0
    5.1654   -2.6739    1.6825 C   0  0  0  0  0  0  0  0  0  0  0  0
    3.9350   -3.1682    0.9320 C   0  0  0  0  0  0  0  0  0  0  0  0
    2.6924   -2.2861    1.1860 C   0  0  2  0  0  0  0  0  0  0  0  0
    1.4471   -2.8809    0.5729 C   0  0  0  0  0  0  0  0  0  0  0  0
    0.1274   -2.7313    0.9782 C   0  0  0  0  0  0  0  0  0  0  0  0
   -0.8322   -3.2203    0.1101 N   0  0  0  0  0  0  0  0  0  0  0  0
   -0.2465   -3.8134   -0.9054 C   0  0  0  0  0  0  0  0  0  0  0  0
    1.4632   -3.8913   -0.8392 S   0  0  0  0  0  0  0  0  0  0  0  0
    0.1724    0.0502   -0.1250 H   0  0  0  0  0  0  0  0  0  0  0  0
    1.0599   -1.2421   -0.8389 H   0  0  0  0  0  0  0  0  0  0  0  0
    2.4192   -1.2734   -2.7318 H   0  0  0  0  0  0  0  0  0  0  0  0
    1.1772    1.1809   -5.7560 H   0  0  0  0  0  0  0  0  0  0  0  0
   -0.2525    3.2089   -5.3232 H   0  0  0  0  0  0  0  0  0  0  0  0
   -1.4828    4.6346   -3.7285 H   0  0  0  0  0  0  0  0  0  0  0  0
   -1.4836    4.0823   -1.3076 H   0  0  0  0  0  0  0  0  0  0  0  0
   -0.2560    2.1439   -0.4833 H   0  0  0  0  0  0  0  0  0  0  0  0
    3.9216   -0.3642    2.6795 H   0  0  0  0  0  0  0  0  0  0  0  0
    4.4420    0.6771    1.3578 H   0  0  0  0  0  0  0  0  0  0  0  0
    6.2608   -0.8460    1.9860 H   0  0  0  0  0  0  0  0  0  0  0  0
    5.7396   -1.1083    0.3227 H   0  0  0  0  0  0  0  0  0  0  0  0
    5.0172   -2.8052    2.7603 H   0  0  0  0  0  0  0  0  0  0  0  0
    6.0350   -3.2752    1.3981 H   0  0  0  0  0  0  0  0  0  0  0  0
    3.7348   -4.2064    1.2234 H   0  0  0  0  0  0  0  0  0  0  0  0
    4.1755   -3.1708   -0.1397 H   0  0  0  0  0  0  0  0  0  0  0  0
    2.5070   -2.2809    2.2706 H   0  0  0  0  0  0  0  0  0  0  0  0
   -0.1998   -2.1751    1.8495 H   0  0  0  0  0  0  0  0  0  0  0  0
   -0.8017   -4.2304   -1.7368 H   0  0  0  0  0  0  0  0  0  0  0  0
  1  2  2  0  0  0  0
  2  3  1  0  0  0  0
  2 14  1  0  0  0  0
  3  4  1  0  0  0  0
  3 25  1  0  0  0  0
  3 26  1  0  0  0  0
  4  5  1  0  0  0  0
  4 13  2  0  0  0  0
  5  6  2  0  0  0  0
  5 27  1  0  0  0  0
  6  7  1  0  0  0  0
  7  8  2  0  0  0  0
  7 28  1  0  0  0  0
  8  9  1  0  0  0  0
  8 13  1  0  0  0  0
  9 10  2  0  0  0  0
  9 29  1  0  0  0  0
 10 11  1  0  0  0  0
 10 30  1  0  0  0  0
 11 12  2  0  0  0  0
 11 31  1  0  0  0  0
 12 13  1  0  0  0  0
 12 32  1  0  0  0  0
 14 15  1  0  0  0  0
 14 19  1  0  0  0  0
 15 16  1  0  0  0  0
 15 33  1  0  0  0  0
 15 34  1  0  0  0  0
 16 17  1  0  0  0  0
 16 35  1  0  0  0  0
 16 36  1  0  0  0  0
 17 18  1  0  0  0  0
 17 37  1  0  0  0  0
 17 38  1  0  0  0  0
 18 19  1  0  0  0  0
 18 39  1  0  0  0  0
 18 40  1  0  0  0  0
 19 20  1  0  0  0  0
 19 41  1  1  0  0  0
 20 21  2  0  0  0  0
 20 24  1  0  0  0  0
 21 22  1  0  0  0  0
 21 42  1  0  0  0  0
 22 23  2  0  0  0  0
 23 24  1  0  0  0  0
 23 43  1  0  0  0  0
M  END
$$$$
