
 OpenBabel07202414123D

 66 71  0  0  1  0  0  0  0  0999 V2000
    3.3428   -1.6620   -0.7212 C   0  0  0  0  0  0  0  0  0  0  0  0
    2.3185   -0.7203   -0.1223 C   0  0  0  0  0  0  0  0  0  0  0  0
    2.3607   -0.5684    1.4039 C   0  0  0  0  0  0  0  0  0  0  0  0
    3.9269    0.2484    1.7538 S   0  0  0  0  0  0  0  0  0  0  0  0
    4.9994   -0.6241    1.3192 O   0  0  0  0  0  0  0  0  0  0  0  0
    3.7795    1.6180    1.3056 O   0  0  0  0  0  0  0  0  0  0  0  0
    4.1031    0.2911    3.4385 N   0  0  0  0  0  0  0  0  0  0  0  0
    3.1368    1.0885    4.1979 C   0  0  0  0  0  0  0  0  0  0  0  0
    3.4412    2.5659    4.2066 C   0  0  0  0  0  0  0  0  0  0  0  0
    2.3811    3.4534    4.4803 C   0  0  0  0  0  0  0  0  0  0  0  0
    2.5952    4.8275    4.4984 C   0  0  0  0  0  0  0  0  0  0  0  0
    3.8683    5.3228    4.2547 C   0  0  0  0  0  0  0  0  0  0  0  0
    4.1435    7.0196    4.2705 Cl  0  0  0  0  0  0  0  0  0  0  0  0
    4.9297    4.4553    4.0015 C   0  0  0  0  0  0  0  0  0  0  0  0
    4.7489    3.0583    3.9686 C   0  0  0  0  0  0  0  0  0  0  0  0
    5.9254    2.0960    3.6593 C   0  0  3  0  0  0  0  0  0  0  0  0
    7.1524    2.4149    4.5638 C   0  0  0  0  0  0  0  0  0  0  0  0
    8.1308    3.2235    3.7113 C   0  0  0  0  0  0  0  0  0  0  0  0
    7.4958    3.3868    2.4369 N   0  0  0  0  0  0  0  0  0  0  0  0
    7.9961    4.2184    1.3927 C   0  0  0  0  0  0  0  0  0  0  0  0
    9.3450    4.5773    1.4026 C   0  0  0  0  0  0  0  0  0  0  0  0
    9.9264    5.4592    0.5632 N   0  0  0  0  0  0  0  0  0  0  0  0
    9.1288    5.9916   -0.3831 C   0  0  0  0  0  0  0  0  0  0  0  0
    7.7843    5.6719   -0.5654 C   0  0  0  0  0  0  0  0  0  0  0  0
    7.0669    6.2277   -1.6443 C   0  0  0  0  0  0  0  0  0  0  0  0
    5.7171    5.9314   -1.8180 C   0  0  0  0  0  0  0  0  0  0  0  0
    4.8441    6.5434   -3.2409 S   0  0  0  0  0  0  0  0  0  0  0  0
    4.9181    5.1893   -4.3880 C   0  0  0  0  0  0  0  0  0  0  0  0
    3.4588    6.7376   -2.8580 O   0  0  0  0  0  0  0  0  0  0  0  0
    5.6199    7.6377   -3.7948 O   0  0  0  0  0  0  0  0  0  0  0  0
    5.0476    5.1674   -0.8718 C   0  0  0  0  0  0  0  0  0  0  0  0
    5.7649    4.6121    0.1980 C   0  0  0  0  0  0  0  0  0  0  0  0
    7.1691    4.7901    0.3622 C   0  0  0  0  0  0  0  0  0  0  0  0
    6.5585    2.3719    2.2722 C   0  0  0  0  0  0  0  0  0  0  0  0
    6.3720    1.7988    1.2139 O   0  0  0  0  0  0  0  0  0  0  0  0
    5.5092    0.6210    3.8806 C   0  0  0  0  0  0  0  0  0  0  0  0
    0.9765   -0.6595   -0.8275 C   0  0  0  0  0  0  0  0  0  0  0  0
    1.9266    0.4915   -0.9519 C   0  0  0  0  0  0  0  0  0  0  0  0
    3.4988   -2.5298   -0.0715 H   0  0  0  0  0  0  0  0  0  0  0  0
    4.3001   -1.1532   -0.8739 H   0  0  0  0  0  0  0  0  0  0  0  0
    3.0372   -2.0311   -1.7047 H   0  0  0  0  0  0  0  0  0  0  0  0
    2.3280   -1.5339    1.9114 H   0  0  0  0  0  0  0  0  0  0  0  0
    1.5568    0.0841    1.7592 H   0  0  0  0  0  0  0  0  0  0  0  0
    3.1411    0.7342    5.2328 H   0  0  0  0  0  0  0  0  0  0  0  0
    2.1216    0.8997    3.8322 H   0  0  0  0  0  0  0  0  0  0  0  0
    1.3787    3.0752    4.6689 H   0  0  0  0  0  0  0  0  0  0  0  0
    1.7681    5.5030    4.6899 H   0  0  0  0  0  0  0  0  0  0  0  0
    5.9034    4.8991    3.8132 H   0  0  0  0  0  0  0  0  0  0  0  0
    7.6570    1.4995    4.8987 H   0  0  0  0  0  0  0  0  0  0  0  0
    6.8799    2.9625    5.4735 H   0  0  0  0  0  0  0  0  0  0  0  0
    9.0512    2.6431    3.5710 H   0  0  0  0  0  0  0  0  0  0  0  0
    8.3701    4.1917    4.1589 H   0  0  0  0  0  0  0  0  0  0  0  0
   10.0436    4.1251    2.0992 H   0  0  0  0  0  0  0  0  0  0  0  0
    9.6236    6.7250   -1.0164 H   0  0  0  0  0  0  0  0  0  0  0  0
    7.5722    6.8780   -2.3575 H   0  0  0  0  0  0  0  0  0  0  0  0
    4.4473    4.3119   -3.9411 H   0  0  0  0  0  0  0  0  0  0  0  0
    5.9617    4.9864   -4.6365 H   0  0  0  0  0  0  0  0  0  0  0  0
    4.3746    5.4781   -5.2912 H   0  0  0  0  0  0  0  0  0  0  0  0
    3.9785    4.9801   -0.9537 H   0  0  0  0  0  0  0  0  0  0  0  0
    5.1909    4.0151    0.9026 H   0  0  0  0  0  0  0  0  0  0  0  0
    5.5432    0.3944    4.9582 H   0  0  0  0  0  0  0  0  0  0  0  0
    6.2204   -0.0777    3.4264 H   0  0  0  0  0  0  0  0  0  0  0  0
    0.0757   -0.5096   -0.2454 H   0  0  0  0  0  0  0  0  0  0  0  0
    0.8250   -1.2711   -1.7112 H   0  0  0  0  0  0  0  0  0  0  0  0
    1.6647    1.4203   -0.4541 H   0  0  0  0  0  0  0  0  0  0  0  0
    2.4437    0.6503   -1.8938 H   0  0  0  0  0  0  0  0  0  0  0  0
  1  2  1  0  0  0  0
  1 39  1  0  0  0  0
  1 40  1  0  0  0  0
  1 41  1  0  0  0  0
  2  3  1  0  0  0  0
  2 37  1  0  0  0  0
  2 38  1  0  0  0  0
  3  4  1  0  0  0  0
  3 42  1  0  0  0  0
  3 43  1  0  0  0  0
  4  5  2  0  0  0  0
  4  6  2  0  0  0  0
  4  7  1  0  0  0  0
  7  8  1  0  0  0  0
  7 36  1  0  0  0  0
  8  9  1  0  0  0  0
  8 44  1  0  0  0  0
  8 45  1  0  0  0  0
  9 10  1  0  0  0  0
  9 15  2  0  0  0  0
 10 11  2  0  0  0  0
 10 46  1  0  0  0  0
 11 12  1  0  0  0  0
 11 47  1  0  0  0  0
 12 13  1  0  0  0  0
 12 14  2  0  0  0  0
 14 15  1  0  0  0  0
 14 48  1  0  0  0  0
 15 16  1  0  0  0  0
 16 17  1  0  0  0  0
 16 34  1  0  0  0  0
 16 36  1  0  0  0  0
 17 18  1  0  0  0  0
 17 49  1  0  0  0  0
 17 50  1  0  0  0  0
 18 19  1  0  0  0  0
 18 51  1  0  0  0  0
 18 52  1  0  0  0  0
 19 20  1  0  0  0  0
 19 34  1  0  0  0  0
 20 21  1  0  0  0  0
 20 33  2  0  0  0  0
 21 22  2  0  0  0  0
 21 53  1  0  0  0  0
 22 23  1  0  0  0  0
 23 24  2  0  0  0  0
 23 54  1  0  0  0  0
 24 25  1  0  0  0  0
 24 33  1  0  0  0  0
 25 26  2  0  0  0  0
 25 55  1  0  0  0  0
 26 27  1  0  0  0  0
 26 31  1  0  0  0  0
 27 28  1  0  0  0  0
 27 29  2  0  0  0  0
 27 30  2  0  0  0  0
 28 56  1  0  0  0  0
 28 57  1  0  0  0  0
 28 58  1  0  0  0  0
 31 32  2  0  0  0  0
 31 59  1  0  0  0  0
 32 33  1  0  0  0  0
 32 60  1  0  0  0  0
 34 35  2  0  0  0  0
 36 61  1  0  0  0  0
 36 62  1  0  0  0  0
 37 38  1  0  0  0  0
 37 63  1  0  0  0  0
 37 64  1  0  0  0  0
 38 65  1  0  0  0  0
 38 66  1  0  0  0  0
M  END
$$$$
