
 OpenBabel07202414123D

 38 40  0  0  0  0  0  0  0  0999 V2000
    1.0593   -0.0729   -0.1795 C   0  0  0  0  0  0  0  0  0  0  0  0
    2.5894    0.0823   -0.0051 C   0  0  0  0  0  0  0  0  0  0  0  0
    2.9493   -0.2492    1.4550 C   0  0  0  0  0  0  0  0  0  0  0  0
    3.2356   -0.9776   -0.9275 C   0  0  0  0  0  0  0  0  0  0  0  0
    3.0844    1.5110   -0.3127 C   0  0  0  0  0  0  0  0  0  0  0  0
    2.2710    2.6344   -0.1025 C   0  0  0  0  0  0  0  0  0  0  0  0
    2.7245    3.9322   -0.3863 C   0  0  0  0  0  0  0  0  0  0  0  0
    4.0122    4.1559   -0.8857 C   0  0  0  0  0  0  0  0  0  0  0  0
    4.8485    3.0477   -1.0524 C   0  0  0  0  0  0  0  0  0  0  0  0
    4.3928    1.7499   -0.7657 C   0  0  0  0  0  0  0  0  0  0  0  0
    4.4294    5.5087   -1.2384 C   0  0  0  0  0  0  0  0  0  0  0  0
    3.7565    6.6413   -1.1901 N   0  0  0  0  0  0  0  0  0  0  0  0
    4.5930    7.6180   -1.6913 N   0  0  0  0  0  0  0  0  0  0  0  0
    5.7195    7.0193   -2.0179 C   0  0  0  0  0  0  0  0  0  0  0  0
    5.6923    5.6748   -1.7462 O   0  0  0  0  0  0  0  0  0  0  0  0
    7.1326    7.8237   -2.6306 S   0  0  0  0  0  0  0  0  0  0  0  0
    6.4592    8.5504   -4.0778 C   0  0  0  0  0  0  0  0  0  0  0  0
    5.3589    9.3789   -4.2234 C   0  0  0  0  0  0  0  0  0  0  0  0
    5.1308    9.8633   -5.5040 N   0  0  0  0  0  0  0  0  0  0  0  0
    6.0732    9.4013   -6.3016 C   0  0  0  0  0  0  0  0  0  0  0  0
    7.2389    8.3757   -5.6028 S   0  0  0  0  0  0  0  0  0  0  0  0
    6.1418    9.7585   -7.7049 N   0  3  0  0  0  0  0  0  0  0  0  0
    5.2775   10.5339   -8.1366 O   0  0  0  0  0  0  0  0  0  0  0  0
    7.0599    9.2707   -8.3826 O   0  5  0  0  0  0  0  0  0  0  0  0
    0.7489   -1.1134   -0.0243 H   0  0  0  0  0  0  0  0  0  0  0  0
    0.7426    0.2193   -1.1874 H   0  0  0  0  0  0  0  0  0  0  0  0
    0.4939    0.5268    0.5417 H   0  0  0  0  0  0  0  0  0  0  0  0
    2.6053   -1.2530    1.7297 H   0  0  0  0  0  0  0  0  0  0  0  0
    2.4895    0.4612    2.1523 H   0  0  0  0  0  0  0  0  0  0  0  0
    4.0330   -0.2143    1.6181 H   0  0  0  0  0  0  0  0  0  0  0  0
    2.8196   -1.9743   -0.7366 H   0  0  0  0  0  0  0  0  0  0  0  0
    4.3164   -1.0628   -0.7735 H   0  0  0  0  0  0  0  0  0  0  0  0
    3.0615   -0.7423   -1.9841 H   0  0  0  0  0  0  0  0  0  0  0  0
    1.2607    2.5350    0.2873 H   0  0  0  0  0  0  0  0  0  0  0  0
    2.0497    4.7709   -0.2183 H   0  0  0  0  0  0  0  0  0  0  0  0
    5.8668    3.1693   -1.4157 H   0  0  0  0  0  0  0  0  0  0  0  0
    5.0951    0.9332   -0.9101 H   0  0  0  0  0  0  0  0  0  0  0  0
    4.6882    9.6859   -3.4270 H   0  0  0  0  0  0  0  0  0  0  0  0
  1  2  1  0  0  0  0
  1 25  1  0  0  0  0
  1 26  1  0  0  0  0
  1 27  1  0  0  0  0
  2  3  1  0  0  0  0
  2  4  1  0  0  0  0
  2  5  1  0  0  0  0
  3 28  1  0  0  0  0
  3 29  1  0  0  0  0
  3 30  1  0  0  0  0
  4 31  1  0  0  0  0
  4 32  1  0  0  0  0
  4 33  1  0  0  0  0
  5  6  1  0  0  0  0
  5 10  2  0  0  0  0
  6  7  2  0  0  0  0
  6 34  1  0  0  0  0
  7  8  1  0  0  0  0
  7 35  1  0  0  0  0
  8  9  2  0  0  0  0
  8 11  1  0  0  0  0
  9 10  1  0  0  0  0
  9 36  1  0  0  0  0
 10 37  1  0  0  0  0
 11 12  2  0  0  0  0
 11 15  1  0  0  0  0
 12 13  1  0  0  0  0
 13 14  2  0  0  0  0
 14 15  1  0  0  0  0
 14 16  1  0  0  0  0
 16 17  1  0  0  0  0
 17 18  2  0  0  0  0
 17 21  1  0  0  0  0
 18 19  1  0  0  0  0
 18 38  1  0  0  0  0
 19 20  2  0  0  0  0
 20 21  1  0  0  0  0
 20 22  1  0  0  0  0
 22 23  2  0  0  0  0
 22 24  1  0  0  0  0
M  CHG  2  22   1  24  -1
M  END
$$$$
