
 OpenBabel07202414183D

 34 36  0  0  0  0  0  0  0  0999 V2000
    1.3096   -0.4657   -1.7471 C   0  0  0  0  0  0  0  0  0  0  0  0
    2.7116   -0.3876   -1.4214 N   0  0  0  0  0  0  0  0  0  0  0  0
    3.4733    0.5723   -1.9803 N   0  0  0  0  0  0  0  0  0  0  0  0
    4.6992    0.2993   -1.5283 C   0  0  0  0  0  0  0  0  0  0  0  0
    4.7316   -0.8121   -0.6587 C   0  0  0  0  0  0  0  0  0  0  0  0
    5.7193   -1.5357    0.0242 C   0  0  0  0  0  0  0  0  0  0  0  0
    7.0722   -1.1389   -0.0394 N   0  0  0  0  0  0  0  0  0  0  0  0
    8.1038   -2.0452   -0.2124 C   0  0  0  0  0  0  0  0  0  0  0  0
    7.9483   -3.2561   -0.3693 O   0  0  0  0  0  0  0  0  0  0  0  0
    9.4828   -1.4178   -0.1965 C   0  0  0  0  0  0  0  0  0  0  0  0
    9.9274   -0.7948   -1.5001 C   0  0  0  0  0  0  0  0  0  0  0  0
    9.9761   -1.5426   -2.6866 C   0  0  0  0  0  0  0  0  0  0  0  0
   10.5083   -0.9899   -3.8571 C   0  0  0  0  0  0  0  0  0  0  0  0
   11.0001    0.3151   -3.8572 C   0  0  0  0  0  0  0  0  0  0  0  0
   10.9475    1.0668   -2.6876 C   0  0  0  0  0  0  0  0  0  0  0  0
   11.5714    2.6714   -2.6727 Cl  0  0  0  0  0  0  0  0  0  0  0  0
   10.4154    0.5221   -1.5162 C   0  0  0  0  0  0  0  0  0  0  0  0
    5.2646   -2.6427    0.7426 C   0  0  0  0  0  0  0  0  0  0  0  0
    3.9667   -3.0318    0.8329 N   0  0  0  0  0  0  0  0  0  0  0  0
    3.0225   -2.3407    0.1523 C   0  0  0  0  0  0  0  0  0  0  0  0
    3.4050   -1.2366   -0.5970 C   0  0  0  0  0  0  0  0  0  0  0  0
    1.0581    0.3192   -2.4646 H   0  0  0  0  0  0  0  0  0  0  0  0
    0.7337   -0.3299   -0.8284 H   0  0  0  0  0  0  0  0  0  0  0  0
    1.1094   -1.4466   -2.1870 H   0  0  0  0  0  0  0  0  0  0  0  0
    5.5260    0.9076   -1.8672 H   0  0  0  0  0  0  0  0  0  0  0  0
    7.2597   -0.1881   -0.3354 H   0  0  0  0  0  0  0  0  0  0  0  0
   10.2044   -2.1951    0.0843 H   0  0  0  0  0  0  0  0  0  0  0  0
    9.5066   -0.6763    0.6119 H   0  0  0  0  0  0  0  0  0  0  0  0
    9.6269   -2.5749   -2.7049 H   0  0  0  0  0  0  0  0  0  0  0  0
   10.5595   -1.5864   -4.7660 H   0  0  0  0  0  0  0  0  0  0  0  0
   11.4332    0.7320   -4.7629 H   0  0  0  0  0  0  0  0  0  0  0  0
   10.4136    1.1202   -0.6080 H   0  0  0  0  0  0  0  0  0  0  0  0
    5.9516   -3.2576    1.3208 H   0  0  0  0  0  0  0  0  0  0  0  0
    2.0039   -2.7050    0.2239 H   0  0  0  0  0  0  0  0  0  0  0  0
  1  2  1  0  0  0  0
  1 22  1  0  0  0  0
  1 23  1  0  0  0  0
  1 24  1  0  0  0  0
  2  3  1  0  0  0  0
  2 21  1  0  0  0  0
  3  4  2  0  0  0  0
  4  5  1  0  0  0  0
  4 25  1  0  0  0  0
  5  6  1  0  0  0  0
  5 21  2  0  0  0  0
  6  7  1  0  0  0  0
  6 18  2  0  0  0  0
  7  8  1  0  0  0  0
  7 26  1  0  0  0  0
  8  9  2  0  0  0  0
  8 10  1  0  0  0  0
 10 11  1  0  0  0  0
 10 27  1  0  0  0  0
 10 28  1  0  0  0  0
 11 12  1  0  0  0  0
 11 17  2  0  0  0  0
 12 13  2  0  0  0  0
 12 29  1  0  0  0  0
 13 14  1  0  0  0  0
 13 30  1  0  0  0  0
 14 15  2  0  0  0  0
 14 31  1  0  0  0  0
 15 16  1  0  0  0  0
 15 17  1  0  0  0  0
 17 32  1  0  0  0  0
 18 19  1  0  0  0  0
 18 33  1  0  0  0  0
 19 20  2  0  0  0  0
 20 21  1  0  0  0  0
 20 34  1  0  0  0  0
M  END
$$$$
