
 OpenBabel07202414203D

 59 63  0  0  0  0  0  0  0  0999 V2000
    2.2308   -0.2446   -0.3491 O   0  0  0  0  0  0  0  0  0  0  0  0
    0.8890   -0.2273   -0.5299 C   0  0  0  0  0  0  0  0  0  0  0  0
    0.0528    0.5355    0.2805 C   0  0  0  0  0  0  0  0  0  0  0  0
   -1.3250    0.5067    0.0607 C   0  0  0  0  0  0  0  0  0  0  0  0
   -1.8953   -0.2707   -0.9552 C   0  0  0  0  0  0  0  0  0  0  0  0
   -3.2573   -0.3133   -1.1320 N   0  0  0  0  0  0  0  0  0  0  0  0
   -4.1251    0.8368   -0.8180 C   0  0  0  0  0  0  0  0  0  0  0  0
   -5.3212    0.3901    0.0424 C   0  0  0  0  0  0  0  0  0  0  0  0
   -6.0013   -0.7347   -0.6189 N   0  0  0  0  0  0  0  0  0  0  0  0
   -7.3693   -0.8090   -0.6978 C   0  0  0  0  0  0  0  0  0  0  0  0
   -8.1822   -0.2041    0.2724 C   0  0  0  0  0  0  0  0  0  0  0  0
   -9.5794   -0.1920    0.1829 C   0  0  0  0  0  0  0  0  0  0  0  0
  -10.3905    0.5387    1.2291 C   0  0  0  0  0  0  0  0  0  0  0  0
  -10.1077    2.0341    1.3645 C   0  0  0  0  0  0  0  0  0  0  0  0
  -10.2205    2.5908    2.4590 O   0  0  0  0  0  0  0  0  0  0  0  0
   -9.8486    2.7201    0.1961 N   0  0  0  0  0  0  0  0  0  0  0  0
   -9.5988    4.1198    0.2160 C   0  0  0  0  0  0  0  0  0  0  0  0
   -8.6042    4.6535    1.0346 C   0  0  0  0  0  0  0  0  0  0  0  0
   -8.2646    5.9637    1.0712 N   0  0  0  0  0  0  0  0  0  0  0  0
   -8.9721    6.7832    0.2639 C   0  0  0  0  0  0  0  0  0  0  0  0
  -10.0035    6.3716   -0.5860 C   0  0  0  0  0  0  0  0  0  0  0  0
  -10.7148    7.2842   -1.3849 C   0  0  0  0  0  0  0  0  0  0  0  0
  -11.7642    6.8541   -2.1958 C   0  0  0  0  0  0  0  0  0  0  0  0
  -12.1201    5.5114   -2.2101 C   0  0  0  0  0  0  0  0  0  0  0  0
  -11.4150    4.5946   -1.4288 C   0  0  0  0  0  0  0  0  0  0  0  0
  -10.3310    4.9968   -0.6157 C   0  0  0  0  0  0  0  0  0  0  0  0
  -10.1786   -0.8693   -0.8841 C   0  0  0  0  0  0  0  0  0  0  0  0
   -9.3872   -1.4679   -1.8665 C   0  0  0  0  0  0  0  0  0  0  0  0
  -10.1361   -2.2250   -3.2202 Cl  0  0  0  0  0  0  0  0  0  0  0  0
   -7.9977   -1.4309   -1.7817 C   0  0  0  0  0  0  0  0  0  0  0  0
   -5.1372   -1.8992   -0.8733 C   0  0  0  0  0  0  0  0  0  0  0  0
   -3.9396   -1.4682   -1.7465 C   0  0  0  0  0  0  0  0  0  0  0  0
   -1.0236   -1.0215   -1.7585 C   0  0  0  0  0  0  0  0  0  0  0  0
    0.3578   -0.9971   -1.5513 C   0  0  0  0  0  0  0  0  0  0  0  0
    2.4451    0.3240    0.4020 H   0  0  0  0  0  0  0  0  0  0  0  0
    0.4521    1.1408    1.0892 H   0  0  0  0  0  0  0  0  0  0  0  0
   -1.9429    1.0855    0.7371 H   0  0  0  0  0  0  0  0  0  0  0  0
   -4.4900    1.2640   -1.7608 H   0  0  0  0  0  0  0  0  0  0  0  0
   -3.6087    1.6515   -0.3024 H   0  0  0  0  0  0  0  0  0  0  0  0
   -5.9813    1.2552    0.1700 H   0  0  0  0  0  0  0  0  0  0  0  0
   -4.9809    0.0747    1.0364 H   0  0  0  0  0  0  0  0  0  0  0  0
   -7.7118    0.2685    1.1328 H   0  0  0  0  0  0  0  0  0  0  0  0
  -10.1782    0.0873    2.2075 H   0  0  0  0  0  0  0  0  0  0  0  0
  -11.4621    0.4138    1.0406 H   0  0  0  0  0  0  0  0  0  0  0  0
  -10.2624    2.3313   -0.6405 H   0  0  0  0  0  0  0  0  0  0  0  0
   -7.9991    4.0197    1.6790 H   0  0  0  0  0  0  0  0  0  0  0  0
   -8.6767    7.8287    0.3209 H   0  0  0  0  0  0  0  0  0  0  0  0
  -10.4602    8.3418   -1.3734 H   0  0  0  0  0  0  0  0  0  0  0  0
  -12.3099    7.5684   -2.8067 H   0  0  0  0  0  0  0  0  0  0  0  0
  -12.9505    5.1728   -2.8244 H   0  0  0  0  0  0  0  0  0  0  0  0
  -11.7530    3.5633   -1.4415 H   0  0  0  0  0  0  0  0  0  0  0  0
  -11.2597   -0.9346   -0.9670 H   0  0  0  0  0  0  0  0  0  0  0  0
   -7.4030   -1.8523   -2.5892 H   0  0  0  0  0  0  0  0  0  0  0  0
   -5.6639   -2.7288   -1.3559 H   0  0  0  0  0  0  0  0  0  0  0  0
   -4.7684   -2.2788    0.0903 H   0  0  0  0  0  0  0  0  0  0  0  0
   -4.2940   -1.1863   -2.7448 H   0  0  0  0  0  0  0  0  0  0  0  0
   -3.2829   -2.3376   -1.8568 H   0  0  0  0  0  0  0  0  0  0  0  0
   -1.4015   -1.6249   -2.5762 H   0  0  0  0  0  0  0  0  0  0  0  0
    1.0120   -1.5808   -2.1931 H   0  0  0  0  0  0  0  0  0  0  0  0
  1  2  1  0  0  0  0
  1 35  1  0  0  0  0
  2  3  2  0  0  0  0
  2 34  1  0  0  0  0
  3  4  1  0  0  0  0
  3 36  1  0  0  0  0
  4  5  2  0  0  0  0
  4 37  1  0  0  0  0
  5  6  1  0  0  0  0
  5 33  1  0  0  0  0
  6  7  1  0  0  0  0
  6 32  1  0  0  0  0
  7  8  1  0  0  0  0
  7 38  1  0  0  0  0
  7 39  1  0  0  0  0
  8  9  1  0  0  0  0
  8 40  1  0  0  0  0
  8 41  1  0  0  0  0
  9 10  1  0  0  0  0
  9 31  1  0  0  0  0
 10 11  2  0  0  0  0
 10 30  1  0  0  0  0
 11 12  1  0  0  0  0
 11 42  1  0  0  0  0
 12 13  1  0  0  0  0
 12 27  2  0  0  0  0
 13 14  1  0  0  0  0
 13 43  1  0  0  0  0
 13 44  1  0  0  0  0
 14 15  2  0  0  0  0
 14 16  1  0  0  0  0
 16 17  1  0  0  0  0
 16 45  1  0  0  0  0
 17 18  2  0  0  0  0
 17 26  1  0  0  0  0
 18 19  1  0  0  0  0
 18 46  1  0  0  0  0
 19 20  2  0  0  0  0
 20 21  1  0  0  0  0
 20 47  1  0  0  0  0
 21 22  2  0  0  0  0
 21 26  1  0  0  0  0
 22 23  1  0  0  0  0
 22 48  1  0  0  0  0
 23 24  2  0  0  0  0
 23 49  1  0  0  0  0
 24 25  1  0  0  0  0
 24 50  1  0  0  0  0
 25 26  2  0  0  0  0
 25 51  1  0  0  0  0
 27 28  1  0  0  0  0
 27 52  1  0  0  0  0
 28 29  1  0  0  0  0
 28 30  2  0  0  0  0
 30 53  1  0  0  0  0
 31 32  1  0  0  0  0
 31 54  1  0  0  0  0
 31 55  1  0  0  0  0
 32 56  1  0  0  0  0
 32 57  1  0  0  0  0
 33 34  2  0  0  0  0
 33 58  1  0  0  0  0
 34 59  1  0  0  0  0
M  END
$$$$
