
 OpenBabel07202414123D

 68 70  0  0  1  0  0  0  0  0999 V2000
    5.4910    2.3697   -2.8068 C   0  0  0  0  0  0  0  0  0  0  0  0
    5.2211    1.2839   -1.7912 C   0  0  0  0  0  0  0  0  0  0  0  0
    4.2298    0.5630   -1.8814 O   0  0  0  0  0  0  0  0  0  0  0  0
    6.1851    1.0894   -0.6642 C   0  0  0  0  0  0  0  0  0  0  0  0
    7.3402    1.8719   -0.5539 C   0  0  0  0  0  0  0  0  0  0  0  0
    8.2469    1.6345    0.4781 C   0  0  0  0  0  0  0  0  0  0  0  0
    7.9909    0.6387    1.4216 C   0  0  0  0  0  0  0  0  0  0  0  0
    6.8144   -0.1280    1.3651 C   0  0  0  0  0  0  0  0  0  0  0  0
    6.4990   -1.1198    2.4819 C   0  0  0  0  0  0  0  0  0  0  0  0
    7.5601   -2.1168    2.6659 N   0  0  0  0  0  0  0  0  0  0  0  0
    7.5243   -3.1736    1.6272 C   0  0  0  0  0  0  0  0  0  0  0  0
    6.4743   -4.2862    1.8422 C   0  0  0  0  0  0  0  0  0  0  0  0
    6.4647   -4.8249    3.1986 N   0  0  0  0  0  0  0  0  0  0  0  0
    5.8564   -6.0658    3.4113 C   0  0  0  0  0  0  0  0  0  0  0  0
    5.3817   -6.7203    2.4824 O   0  0  0  0  0  0  0  0  0  0  0  0
    5.8522   -6.6314    4.8305 C   0  0  0  0  0  0  0  0  0  0  0  0
    4.8336   -6.1027    5.6601 O   0  0  0  0  0  0  0  0  0  0  0  0
    4.8976   -6.5752    7.2119 S   0  0  0  0  0  0  0  0  0  0  0  0
    5.1101   -8.0015    7.2261 O   0  0  0  0  0  0  0  0  0  0  0  0
    5.8236   -5.6955    7.8962 O   0  0  0  0  0  0  0  0  0  0  0  0
    3.3540   -6.2720    7.8560 N   0  0  0  0  0  0  0  0  0  0  0  0
    3.1803   -6.7455    9.2724 C   0  0  0  0  0  0  0  0  0  0  0  0
    2.8791   -8.2534    9.3330 C   0  0  0  0  0  0  0  0  0  0  0  0
    1.7388   -8.5933    8.5295 O   0  0  0  0  0  0  0  0  0  0  0  0
    1.9336   -8.2097    7.1603 C   0  0  0  0  0  0  0  0  0  0  0  0
    2.1787   -6.7039    7.0452 C   0  0  0  0  0  0  0  0  0  0  0  0
    6.5823   -3.8435    4.2730 C   0  0  0  0  0  0  0  0  0  0  0  0
    7.6546   -2.7604    4.0031 C   0  0  2  0  0  0  0  0  0  0  0  0
    7.7307   -1.7816    5.2016 C   0  0  0  0  0  0  0  0  0  0  0  0
    8.1941   -2.4303    6.5333 C   0  0  0  0  0  0  0  0  0  0  0  0
    9.5808   -3.0689    6.4264 C   0  0  0  0  0  0  0  0  0  0  0  0
    8.1898   -1.3932    7.6586 C   0  0  0  0  0  0  0  0  0  0  0  0
    5.9219    0.0994    0.3029 C   0  0  0  0  0  0  0  0  0  0  0  0
    4.7244    2.3374   -3.5868 H   0  0  0  0  0  0  0  0  0  0  0  0
    6.4605    2.2135   -3.2875 H   0  0  0  0  0  0  0  0  0  0  0  0
    5.4482    3.3524   -2.3287 H   0  0  0  0  0  0  0  0  0  0  0  0
    7.5623    2.6692   -1.2572 H   0  0  0  0  0  0  0  0  0  0  0  0
    9.1533    2.2310    0.5515 H   0  0  0  0  0  0  0  0  0  0  0  0
    8.7121    0.4637    2.2187 H   0  0  0  0  0  0  0  0  0  0  0  0
    5.5205   -1.5885    2.3262 H   0  0  0  0  0  0  0  0  0  0  0  0
    6.3926   -0.4936    3.3755 H   0  0  0  0  0  0  0  0  0  0  0  0
    8.5166   -3.6440    1.6132 H   0  0  0  0  0  0  0  0  0  0  0  0
    7.3992   -2.7431    0.6266 H   0  0  0  0  0  0  0  0  0  0  0  0
    6.6733   -5.1022    1.1367 H   0  0  0  0  0  0  0  0  0  0  0  0
    5.4649   -3.9122    1.6326 H   0  0  0  0  0  0  0  0  0  0  0  0
    6.8397   -6.4783    5.2816 H   0  0  0  0  0  0  0  0  0  0  0  0
    5.7175   -7.7173    4.7379 H   0  0  0  0  0  0  0  0  0  0  0  0
    2.3341   -6.1925    9.6981 H   0  0  0  0  0  0  0  0  0  0  0  0
    4.0588   -6.4965    9.8767 H   0  0  0  0  0  0  0  0  0  0  0  0
    2.6475   -8.5397   10.3637 H   0  0  0  0  0  0  0  0  0  0  0  0
    3.7305   -8.8644    9.0216 H   0  0  0  0  0  0  0  0  0  0  0  0
    1.0213   -8.4731    6.6157 H   0  0  0  0  0  0  0  0  0  0  0  0
    2.7507   -8.7949    6.7274 H   0  0  0  0  0  0  0  0  0  0  0  0
    1.3058   -6.1683    7.4436 H   0  0  0  0  0  0  0  0  0  0  0  0
    2.2876   -6.3895    6.0039 H   0  0  0  0  0  0  0  0  0  0  0  0
    6.8359   -4.3685    5.1939 H   0  0  0  0  0  0  0  0  0  0  0  0
    5.5920   -3.3951    4.4147 H   0  0  0  0  0  0  0  0  0  0  0  0
    8.6202   -3.2786    3.9630 H   0  0  0  0  0  0  0  0  0  0  0  0
    6.7397   -1.3392    5.3715 H   0  0  0  0  0  0  0  0  0  0  0  0
    8.4090   -0.9551    4.9544 H   0  0  0  0  0  0  0  0  0  0  0  0
    7.4838   -3.2104    6.8284 H   0  0  0  0  0  0  0  0  0  0  0  0
   10.3236   -2.3447    6.0764 H   0  0  0  0  0  0  0  0  0  0  0  0
    9.5813   -3.9208    5.7399 H   0  0  0  0  0  0  0  0  0  0  0  0
    9.9098   -3.4516    7.3983 H   0  0  0  0  0  0  0  0  0  0  0  0
    8.8552   -0.5555    7.4300 H   0  0  0  0  0  0  0  0  0  0  0  0
    8.5231   -1.8449    8.6001 H   0  0  0  0  0  0  0  0  0  0  0  0
    7.1815   -1.0004    7.8189 H   0  0  0  0  0  0  0  0  0  0  0  0
    5.0088   -0.4889    0.2276 H   0  0  0  0  0  0  0  0  0  0  0  0
  1  2  1  0  0  0  0
  1 34  1  0  0  0  0
  1 35  1  0  0  0  0
  1 36  1  0  0  0  0
  2  3  2  0  0  0  0
  2  4  1  0  0  0  0
  4  5  1  0  0  0  0
  4 33  2  0  0  0  0
  5  6  2  0  0  0  0
  5 37  1  0  0  0  0
  6  7  1  0  0  0  0
  6 38  1  0  0  0  0
  7  8  2  0  0  0  0
  7 39  1  0  0  0  0
  8  9  1  0  0  0  0
  8 33  1  0  0  0  0
  9 10  1  0  0  0  0
  9 40  1  0  0  0  0
  9 41  1  0  0  0  0
 10 11  1  0  0  0  0
 10 28  1  0  0  0  0
 11 12  1  0  0  0  0
 11 42  1  0  0  0  0
 11 43  1  0  0  0  0
 12 13  1  0  0  0  0
 12 44  1  0  0  0  0
 12 45  1  0  0  0  0
 13 14  1  0  0  0  0
 13 27  1  0  0  0  0
 14 15  2  0  0  0  0
 14 16  1  0  0  0  0
 16 17  1  0  0  0  0
 16 46  1  0  0  0  0
 16 47  1  0  0  0  0
 17 18  1  0  0  0  0
 18 19  2  0  0  0  0
 18 20  2  0  0  0  0
 18 21  1  0  0  0  0
 21 22  1  0  0  0  0
 21 26  1  0  0  0  0
 22 23  1  0  0  0  0
 22 48  1  0  0  0  0
 22 49  1  0  0  0  0
 23 24  1  0  0  0  0
 23 50  1  0  0  0  0
 23 51  1  0  0  0  0
 24 25  1  0  0  0  0
 25 26  1  0  0  0  0
 25 52  1  0  0  0  0
 25 53  1  0  0  0  0
 26 54  1  0  0  0  0
 26 55  1  0  0  0  0
 27 28  1  0  0  0  0
 27 56  1  0  0  0  0
 27 57  1  0  0  0  0
 28 29  1  0  0  0  0
 28 58  1  6  0  0  0
 29 30  1  0  0  0  0
 29 59  1  0  0  0  0
 29 60  1  0  0  0  0
 30 31  1  0  0  0  0
 30 32  1  0  0  0  0
 30 61  1  0  0  0  0
 31 62  1  0  0  0  0
 31 63  1  0  0  0  0
 31 64  1  0  0  0  0
 32 65  1  0  0  0  0
 32 66  1  0  0  0  0
 32 67  1  0  0  0  0
 33 68  1  0  0  0  0
M  END
$$$$
