
 OpenBabel07202414173D

 54 58  0  0  1  0  0  0  0  0999 V2000
    0.9734    0.0116   -0.0936 Cl  0  0  0  0  0  0  0  0  0  0  0  0
    2.6918    0.0056   -0.0114 C   0  0  0  0  0  0  0  0  0  0  0  0
    3.3955    1.2032   -0.0839 C   0  0  0  0  0  0  0  0  0  0  0  0
    4.7924    1.1950   -0.0213 C   0  0  0  0  0  0  0  0  0  0  0  0
    5.4974   -0.0089    0.1361 C   0  0  0  0  0  0  0  0  0  0  0  0
    4.7750   -1.2102    0.2251 C   0  0  0  0  0  0  0  0  0  0  0  0
    3.3716   -1.1991    0.1394 C   0  0  0  0  0  0  0  0  0  0  0  0
    5.4996   -2.5067    0.5029 C   0  0  3  0  0  0  0  0  0  0  0  0
    5.4283   -2.8636    1.9998 C   0  0  0  0  0  0  0  0  0  0  0  0
    5.4863   -2.0089    2.8795 O   0  0  0  0  0  0  0  0  0  0  0  0
    5.2660   -4.2201    2.2244 N   0  0  0  0  0  0  0  0  0  0  0  0
    5.0147   -4.8861    3.4531 C   0  0  0  0  0  0  0  0  0  0  0  0
    4.8718   -4.1942    4.6587 C   0  0  0  0  0  0  0  0  0  0  0  0
    4.6078   -4.7734    5.8507 N   0  0  0  0  0  0  0  0  0  0  0  0
    4.4591   -6.1100    5.8496 C   0  0  0  0  0  0  0  0  0  0  0  0
    4.5549   -6.9179    4.7182 C   0  0  0  0  0  0  0  0  0  0  0  0
    4.3424   -8.3032    4.8406 C   0  0  0  0  0  0  0  0  0  0  0  0
    4.4169   -9.1407    3.7367 C   0  0  0  0  0  0  0  0  0  0  0  0
    4.7287   -8.6032    2.4976 C   0  0  0  0  0  0  0  0  0  0  0  0
    4.9542   -7.2260    2.3589 C   0  0  0  0  0  0  0  0  0  0  0  0
    5.3660   -6.7214    0.7472 Cl  0  0  0  0  0  0  0  0  0  0  0  0
    4.8562   -6.3180    3.4663 C   0  0  0  0  0  0  0  0  0  0  0  0
    6.9469   -2.4686    0.0047 C   0  0  0  0  0  0  0  0  0  0  0  0
    7.6856   -1.2693    0.5043 N   0  0  0  0  0  0  0  0  0  0  0  0
    9.3702   -1.3051    0.1844 S   0  0  0  0  0  0  0  0  0  0  0  0
    9.7473   -2.6979    0.0989 O   0  0  0  0  0  0  0  0  0  0  0  0
    9.6328   -0.3910   -0.9066 O   0  0  0  0  0  0  0  0  0  0  0  0
   10.0755   -0.6250    1.6984 C   0  0  0  0  0  0  0  0  0  0  0  0
   11.5762   -0.5329    1.4747 C   0  0  0  0  0  0  0  0  0  0  0  0
   12.2769   -1.7748    1.2248 C   0  0  0  0  0  0  0  0  0  0  0  0
   12.8910   -2.7471    1.0586 N   0  0  0  0  0  0  0  0  0  0  0  0
   12.1546    0.7481    0.8923 C   0  0  0  0  0  0  0  0  0  0  0  0
   12.3614    0.4491    2.3444 C   0  0  0  0  0  0  0  0  0  0  0  0
    7.0155    0.0151    0.1445 C   0  0  0  0  0  0  0  0  0  0  0  0
    2.8647    2.1456   -0.1883 H   0  0  0  0  0  0  0  0  0  0  0  0
    5.3273    2.1398   -0.0899 H   0  0  0  0  0  0  0  0  0  0  0  0
    2.8084   -2.1272    0.2101 H   0  0  0  0  0  0  0  0  0  0  0  0
    4.9877   -3.2979   -0.0636 H   0  0  0  0  0  0  0  0  0  0  0  0
    5.3135   -4.8279    1.4142 H   0  0  0  0  0  0  0  0  0  0  0  0
    4.9516   -3.1150    4.7290 H   0  0  0  0  0  0  0  0  0  0  0  0
    4.2443   -6.5307    6.8293 H   0  0  0  0  0  0  0  0  0  0  0  0
    4.1068   -8.7426    5.8112 H   0  0  0  0  0  0  0  0  0  0  0  0
    4.2365  -10.2079    3.8406 H   0  0  0  0  0  0  0  0  0  0  0  0
    4.7964   -9.2618    1.6343 H   0  0  0  0  0  0  0  0  0  0  0  0
    6.9615   -2.4494   -1.0934 H   0  0  0  0  0  0  0  0  0  0  0  0
    7.4474   -3.3847    0.3361 H   0  0  0  0  0  0  0  0  0  0  0  0
    9.8323   -1.2958    2.5267 H   0  0  0  0  0  0  0  0  0  0  0  0
    9.6297    0.3600    1.8647 H   0  0  0  0  0  0  0  0  0  0  0  0
   11.4881    1.5677    0.6389 H   0  0  0  0  0  0  0  0  0  0  0  0
   13.0097    0.6756    0.2261 H   0  0  0  0  0  0  0  0  0  0  0  0
   11.8325    1.0511    3.0752 H   0  0  0  0  0  0  0  0  0  0  0  0
   13.3684    0.1825    2.6589 H   0  0  0  0  0  0  0  0  0  0  0  0
    7.3123    0.3107   -0.8683 H   0  0  0  0  0  0  0  0  0  0  0  0
    7.3480    0.7804    0.8545 H   0  0  0  0  0  0  0  0  0  0  0  0
  1  2  1  0  0  0  0
  2  3  1  0  0  0  0
  2  7  2  0  0  0  0
  3  4  2  0  0  0  0
  3 35  1  0  0  0  0
  4  5  1  0  0  0  0
  4 36  1  0  0  0  0
  5  6  2  0  0  0  0
  5 34  1  0  0  0  0
  6  7  1  0  0  0  0
  6  8  1  0  0  0  0
  7 37  1  0  0  0  0
  8  9  1  0  0  0  0
  8 23  1  0  0  0  0
  8 38  1  0  0  0  0
  9 10  2  0  0  0  0
  9 11  1  0  0  0  0
 11 12  1  0  0  0  0
 11 39  1  0  0  0  0
 12 13  1  0  0  0  0
 12 22  2  0  0  0  0
 13 14  2  0  0  0  0
 13 40  1  0  0  0  0
 14 15  1  0  0  0  0
 15 16  2  0  0  0  0
 15 41  1  0  0  0  0
 16 17  1  0  0  0  0
 16 22  1  0  0  0  0
 17 18  2  0  0  0  0
 17 42  1  0  0  0  0
 18 19  1  0  0  0  0
 18 43  1  0  0  0  0
 19 20  2  0  0  0  0
 19 44  1  0  0  0  0
 20 21  1  0  0  0  0
 20 22  1  0  0  0  0
 23 24  1  0  0  0  0
 23 45  1  0  0  0  0
 23 46  1  0  0  0  0
 24 25  1  0  0  0  0
 24 34  1  0  0  0  0
 25 26  2  0  0  0  0
 25 27  2  0  0  0  0
 25 28  1  0  0  0  0
 28 29  1  0  0  0  0
 28 47  1  0  0  0  0
 28 48  1  0  0  0  0
 29 30  1  0  0  0  0
 29 32  1  0  0  0  0
 29 33  1  0  0  0  0
 30 31  3  0  0  0  0
 32 33  1  0  0  0  0
 32 49  1  0  0  0  0
 32 50  1  0  0  0  0
 33 51  1  0  0  0  0
 33 52  1  0  0  0  0
 34 53  1  0  0  0  0
 34 54  1  0  0  0  0
M  END
$$$$
