
 OpenBabel07202414183D

 45 48  0  0  0  0  0  0  0  0999 V2000
    9.7147    7.5701   -5.4724 F   0  0  0  0  0  0  0  0  0  0  0  0
    9.9949    6.4889   -4.7260 C   0  0  0  0  0  0  0  0  0  0  0  0
   11.2947    6.1441   -4.6319 N   0  0  0  0  0  0  0  0  0  0  0  0
   11.5612    5.0253   -3.9264 C   0  0  0  0  0  0  0  0  0  0  0  0
   12.8517    4.6630   -3.8534 F   0  0  0  0  0  0  0  0  0  0  0  0
   10.5983    4.2317   -3.3006 C   0  0  0  0  0  0  0  0  0  0  0  0
   11.0975    2.7411   -2.5881 Cl  0  0  0  0  0  0  0  0  0  0  0  0
    9.2519    4.6286   -3.3731 C   0  0  0  0  0  0  0  0  0  0  0  0
    8.1888    3.9128   -2.7543 N   0  0  0  0  0  0  0  0  0  0  0  0
    8.0838    3.3503   -1.4635 C   0  0  0  0  0  0  0  0  0  0  0  0
    7.1258    2.3500   -1.2608 C   0  0  0  0  0  0  0  0  0  0  0  0
    6.9615    1.7592   -0.0082 C   0  0  0  0  0  0  0  0  0  0  0  0
    5.7488    0.5670    0.2310 Cl  0  0  0  0  0  0  0  0  0  0  0  0
    7.7552    2.1503    1.0515 C   0  0  0  0  0  0  0  0  0  0  0  0
    8.7447    3.1331    0.8687 C   0  0  0  0  0  0  0  0  0  0  0  0
    9.4824    3.6407    2.0746 C   0  0  0  0  0  0  0  0  0  0  0  0
   10.9964    3.6111    2.1130 C   0  0  0  0  0  0  0  0  0  0  0  0
   11.5458    4.4599    2.8234 O   0  0  0  0  0  0  0  0  0  0  0  0
   11.6931    2.6008    1.4444 N   0  0  0  0  0  0  0  0  0  0  0  0
   13.1027    2.5100    1.6933 C   0  0  0  0  0  0  0  0  0  0  0  0
   13.5618    2.6697    3.0072 C   0  0  0  0  0  0  0  0  0  0  0  0
   14.8259    2.9758    3.3534 N   0  0  0  0  0  0  0  0  0  0  0  0
   15.6561    3.2172    2.3259 C   0  0  0  0  0  0  0  0  0  0  0  0
   15.3476    2.9765    0.9897 C   0  0  0  0  0  0  0  0  0  0  0  0
   16.3011    3.2175   -0.0055 C   0  0  0  0  0  0  0  0  0  0  0  0
   16.1640    2.6204   -1.2499 C   0  0  0  0  0  0  0  0  0  0  0  0
   15.0024    1.9154   -1.5461 C   0  0  0  0  0  0  0  0  0  0  0  0
   13.9329    1.9088   -0.6378 C   0  0  0  0  0  0  0  0  0  0  0  0
   14.0793    2.4452    0.6661 C   0  0  0  0  0  0  0  0  0  0  0  0
    8.8932    3.7432   -0.3888 C   0  0  0  0  0  0  0  0  0  0  0  0
    8.9580    5.7816   -4.1297 C   0  0  0  0  0  0  0  0  0  0  0  0
    7.3203    6.3160   -4.3157 Cl  0  0  0  0  0  0  0  0  0  0  0  0
    7.2689    4.2095   -3.0901 H   0  0  0  0  0  0  0  0  0  0  0  0
    6.4862    2.0313   -2.0865 H   0  0  0  0  0  0  0  0  0  0  0  0
    7.5986    1.7126    2.0420 H   0  0  0  0  0  0  0  0  0  0  0  0
    9.1521    3.1136    2.9856 H   0  0  0  0  0  0  0  0  0  0  0  0
    9.1901    4.6893    2.2148 H   0  0  0  0  0  0  0  0  0  0  0  0
   11.3525    2.3532    0.5229 H   0  0  0  0  0  0  0  0  0  0  0  0
   12.8777    2.5947    3.8484 H   0  0  0  0  0  0  0  0  0  0  0  0
   16.6463    3.5549    2.6231 H   0  0  0  0  0  0  0  0  0  0  0  0
   17.1686    3.8398    0.2019 H   0  0  0  0  0  0  0  0  0  0  0  0
   16.9806    2.6790   -1.9654 H   0  0  0  0  0  0  0  0  0  0  0  0
   14.9279    1.3855   -2.4925 H   0  0  0  0  0  0  0  0  0  0  0  0
   13.0222    1.3875   -0.9196 H   0  0  0  0  0  0  0  0  0  0  0  0
    9.6106    4.5552   -0.5003 H   0  0  0  0  0  0  0  0  0  0  0  0
  1  2  1  0  0  0  0
  2  3  2  0  0  0  0
  2 31  1  0  0  0  0
  3  4  1  0  0  0  0
  4  5  1  0  0  0  0
  4  6  2  0  0  0  0
  6  7  1  0  0  0  0
  6  8  1  0  0  0  0
  8  9  1  0  0  0  0
  8 31  2  0  0  0  0
  9 10  1  0  0  0  0
  9 33  1  0  0  0  0
 10 11  2  0  0  0  0
 10 30  1  0  0  0  0
 11 12  1  0  0  0  0
 11 34  1  0  0  0  0
 12 13  1  0  0  0  0
 12 14  2  0  0  0  0
 14 15  1  0  0  0  0
 14 35  1  0  0  0  0
 15 16  1  0  0  0  0
 15 30  2  0  0  0  0
 16 17  1  0  0  0  0
 16 36  1  0  0  0  0
 16 37  1  0  0  0  0
 17 18  2  0  0  0  0
 17 19  1  0  0  0  0
 19 20  1  0  0  0  0
 19 38  1  0  0  0  0
 20 21  2  0  0  0  0
 20 29  1  0  0  0  0
 21 22  1  0  0  0  0
 21 39  1  0  0  0  0
 22 23  2  0  0  0  0
 23 24  1  0  0  0  0
 23 40  1  0  0  0  0
 24 25  2  0  0  0  0
 24 29  1  0  0  0  0
 25 26  1  0  0  0  0
 25 41  1  0  0  0  0
 26 27  2  0  0  0  0
 26 42  1  0  0  0  0
 27 28  1  0  0  0  0
 27 43  1  0  0  0  0
 28 29  2  0  0  0  0
 28 44  1  0  0  0  0
 30 45  1  0  0  0  0
 31 32  1  0  0  0  0
M  END
$$$$
