
 OpenBabel07202414113D

 59 62  0  0  1  0  0  0  0  0999 V2000
    3.7291    3.9026   -0.7355 C   0  0  0  0  0  0  0  0  0  0  0  0
    3.9107    3.5338   -2.0094 C   0  0  0  0  0  0  0  0  0  0  0  0
    3.0241    2.6349   -2.8339 C   0  0  0  0  0  0  0  0  0  0  0  0
    2.2904    1.5439   -2.1081 N   0  0  0  0  0  0  0  0  0  0  0  0
    1.0995    1.8549   -1.3934 C   0  0  0  0  0  0  0  0  0  0  0  0
    0.6785    3.0175   -1.3725 O   0  0  0  0  0  0  0  0  0  0  0  0
    0.2735    0.7400   -0.6592 C   0  0  2  0  0  0  0  0  0  0  0  0
   -0.6879   -0.0219   -1.5733 C   0  0  0  0  0  0  0  0  0  0  0  0
   -1.9638    0.6538   -1.7677 N   0  0  0  0  0  0  0  0  0  0  0  0
   -2.2445    1.2695   -3.0656 C   0  0  0  0  0  0  0  0  0  0  0  0
   -2.3952    0.3524   -4.2806 C   0  0  0  0  0  0  0  0  0  0  0  0
   -2.0873    0.7419   -5.4072 O   0  0  0  0  0  0  0  0  0  0  0  0
   -2.9996   -0.8635   -4.0569 N   0  0  0  0  0  0  0  0  0  0  0  0
   -3.2941   -1.7770   -5.1375 C   0  0  0  0  0  0  0  0  0  0  0  0
   -2.6620    1.1503   -0.6672 C   0  0  0  0  0  0  0  0  0  0  0  0
   -3.8403    1.4812   -0.7168 O   0  0  0  0  0  0  0  0  0  0  0  0
   -1.8772    1.3465    0.5890 C   0  0  0  0  0  0  0  0  0  0  0  0
   -2.5474    1.7391    1.7602 C   0  0  0  0  0  0  0  0  0  0  0  0
   -1.8363    1.9531    2.9429 C   0  0  0  0  0  0  0  0  0  0  0  0
   -0.4588    1.7613    2.9649 C   0  0  0  0  0  0  0  0  0  0  0  0
    0.4138    1.9823    4.4310 Cl  0  0  0  0  0  0  0  0  0  0  0  0
    0.2217    1.3817    1.8041 C   0  0  0  0  0  0  0  0  0  0  0  0
   -0.4747    1.1939    0.5943 C   0  0  0  0  0  0  0  0  0  0  0  0
    2.6968    0.1837   -2.3773 C   0  0  0  0  0  0  0  0  0  0  0  0
    2.8533   -0.6875   -1.3004 C   0  0  0  0  0  0  0  0  0  0  0  0
    3.0064   -2.0192   -1.3916 N   0  0  0  0  0  0  0  0  0  0  0  0
    3.2662   -2.4923   -2.6225 C   0  0  0  0  0  0  0  0  0  0  0  0
    3.4383   -1.6877   -3.7436 C   0  0  0  0  0  0  0  0  0  0  0  0
    4.0324   -2.2048   -4.9024 C   0  0  0  0  0  0  0  0  0  0  0  0
    4.2803   -1.3893   -5.9988 C   0  0  0  0  0  0  0  0  0  0  0  0
    3.7490   -0.1099   -6.0217 C   0  0  0  0  0  0  0  0  0  0  0  0
    3.0654    0.3713   -4.9076 C   0  0  0  0  0  0  0  0  0  0  0  0
    3.0418   -0.3284   -3.6668 C   0  0  0  0  0  0  0  0  0  0  0  0
    5.1328    4.1135   -2.6548 C   0  0  0  0  0  0  0  0  0  0  0  0
    5.9978    4.7762   -2.1016 O   0  0  0  0  0  0  0  0  0  0  0  0
    5.2430    3.8476   -3.9702 O   0  0  0  0  0  0  0  0  0  0  0  0
    2.8675    3.5851   -0.1642 H   0  0  0  0  0  0  0  0  0  0  0  0
    4.4190    4.5781   -0.2347 H   0  0  0  0  0  0  0  0  0  0  0  0
    3.7148    2.1656   -3.5280 H   0  0  0  0  0  0  0  0  0  0  0  0
    2.3032    3.2289   -3.4075 H   0  0  0  0  0  0  0  0  0  0  0  0
    0.9430   -0.0074   -0.2562 H   0  0  0  0  0  0  0  0  0  0  0  0
   -0.9484   -0.9706   -1.0748 H   0  0  0  0  0  0  0  0  0  0  0  0
   -0.2490   -0.2888   -2.5382 H   0  0  0  0  0  0  0  0  0  0  0  0
   -1.4068    1.9473   -3.2653 H   0  0  0  0  0  0  0  0  0  0  0  0
   -3.1527    1.8776   -3.0097 H   0  0  0  0  0  0  0  0  0  0  0  0
   -3.2865   -1.0880   -3.1107 H   0  0  0  0  0  0  0  0  0  0  0  0
   -3.1564   -1.3080   -6.1172 H   0  0  0  0  0  0  0  0  0  0  0  0
   -4.3319   -2.1114   -5.0407 H   0  0  0  0  0  0  0  0  0  0  0  0
   -2.6281   -2.6394   -5.0547 H   0  0  0  0  0  0  0  0  0  0  0  0
   -3.6252    1.8849    1.7508 H   0  0  0  0  0  0  0  0  0  0  0  0
   -2.3648    2.2673    3.8433 H   0  0  0  0  0  0  0  0  0  0  0  0
    1.2955    1.2124    1.8533 H   0  0  0  0  0  0  0  0  0  0  0  0
    2.8722   -0.3203   -0.2755 H   0  0  0  0  0  0  0  0  0  0  0  0
    3.3742   -3.5718   -2.6777 H   0  0  0  0  0  0  0  0  0  0  0  0
    4.3997   -3.2331   -4.9192 H   0  0  0  0  0  0  0  0  0  0  0  0
    4.8635   -1.7573   -6.8391 H   0  0  0  0  0  0  0  0  0  0  0  0
    3.8887    0.5267   -6.8924 H   0  0  0  0  0  0  0  0  0  0  0  0
    2.6091    1.3594   -5.0036 H   0  0  0  0  0  0  0  0  0  0  0  0
    6.0846    4.2858   -4.2135 H   0  0  0  0  0  0  0  0  0  0  0  0
  1  2  2  0  0  0  0
  1 37  1  0  0  0  0
  1 38  1  0  0  0  0
  2  3  1  0  0  0  0
  2 34  1  0  0  0  0
  3  4  1  0  0  0  0
  3 39  1  0  0  0  0
  3 40  1  0  0  0  0
  4  5  1  0  0  0  0
  4 24  1  0  0  0  0
  5  6  2  0  0  0  0
  5  7  1  0  0  0  0
  7  8  1  0  0  0  0
  7 23  1  0  0  0  0
  7 41  1  1  0  0  0
  8  9  1  0  0  0  0
  8 42  1  0  0  0  0
  8 43  1  0  0  0  0
  9 10  1  0  0  0  0
  9 15  1  0  0  0  0
 10 11  1  0  0  0  0
 10 44  1  0  0  0  0
 10 45  1  0  0  0  0
 11 12  2  0  0  0  0
 11 13  1  0  0  0  0
 13 14  1  0  0  0  0
 13 46  1  0  0  0  0
 14 47  1  0  0  0  0
 14 48  1  0  0  0  0
 14 49  1  0  0  0  0
 15 16  2  0  0  0  0
 15 17  1  0  0  0  0
 17 18  1  0  0  0  0
 17 23  2  0  0  0  0
 18 19  2  0  0  0  0
 18 50  1  0  0  0  0
 19 20  1  0  0  0  0
 19 51  1  0  0  0  0
 20 21  1  0  0  0  0
 20 22  2  0  0  0  0
 22 23  1  0  0  0  0
 22 52  1  0  0  0  0
 24 25  1  0  0  0  0
 24 33  2  0  0  0  0
 25 26  2  0  0  0  0
 25 53  1  0  0  0  0
 26 27  1  0  0  0  0
 27 28  2  0  0  0  0
 27 54  1  0  0  0  0
 28 29  1  0  0  0  0
 28 33  1  0  0  0  0
 29 30  2  0  0  0  0
 29 55  1  0  0  0  0
 30 31  1  0  0  0  0
 30 56  1  0  0  0  0
 31 32  2  0  0  0  0
 31 57  1  0  0  0  0
 32 33  1  0  0  0  0
 32 58  1  0  0  0  0
 34 35  2  0  0  0  0
 34 36  1  0  0  0  0
 36 59  1  0  0  0  0
M  END
$$$$
