
 OpenBabel07202414123D

 46 47  0  0  1  0  0  0  0  0999 V2000
    3.3354   -0.8751    1.9364 C   0  0  0  0  0  0  0  0  0  0  0  0
    2.5502   -0.2110    0.8004 C   0  0  0  0  0  0  0  0  0  0  0  0
    1.0745   -0.1218    1.2057 C   0  0  0  0  0  0  0  0  0  0  0  0
    3.0961    1.1891    0.4177 C   0  0  0  0  0  0  0  0  0  0  0  0
    4.6111    1.2354    0.1228 C   0  0  2  0  0  0  0  0  0  0  0  0
    5.1370    2.6748   -0.1274 C   0  0  0  0  0  0  0  0  0  0  0  0
    6.6102    2.7051   -0.2265 N   0  0  0  0  0  0  0  0  0  0  0  0
    7.4036    3.8137    0.0566 C   0  0  0  0  0  0  0  0  0  0  0  0
    8.6243    3.7986   -0.1287 O   0  0  0  0  0  0  0  0  0  0  0  0
    6.7426    5.0727    0.5806 C   0  0  0  0  0  0  0  0  0  0  0  0
    6.5259    4.9529    2.3343 Cl  0  0  0  0  0  0  0  0  0  0  0  0
    7.2442    1.6113   -0.9764 C   0  0  0  0  0  0  0  0  0  0  0  0
    6.5725    0.2433   -0.7751 C   0  0  0  0  0  0  0  0  0  0  0  0
    5.0931    0.2622   -0.8989 N   0  0  0  0  0  0  0  0  0  0  0  0
    4.6540    0.5519   -2.2825 C   0  0  0  0  0  0  0  0  0  0  0  0
    5.1775   -0.4782   -3.2737 C   0  0  0  0  0  0  0  0  0  0  0  0
    4.7740   -1.8187   -3.1655 C   0  0  0  0  0  0  0  0  0  0  0  0
    5.3732   -2.8069   -3.9496 C   0  0  0  0  0  0  0  0  0  0  0  0
    6.3757   -2.4668   -4.8555 C   0  0  0  0  0  0  0  0  0  0  0  0
    6.7566   -1.1339   -4.9966 C   0  0  0  0  0  0  0  0  0  0  0  0
    8.0072   -0.7171   -6.1031 Cl  0  0  0  0  0  0  0  0  0  0  0  0
    6.1593   -0.1414   -4.2178 C   0  0  0  0  0  0  0  0  0  0  0  0
    2.8143   -1.7633    2.3119 H   0  0  0  0  0  0  0  0  0  0  0  0
    3.4751   -0.1885    2.7780 H   0  0  0  0  0  0  0  0  0  0  0  0
    4.3225   -1.2042    1.5958 H   0  0  0  0  0  0  0  0  0  0  0  0
    2.6101   -0.8611   -0.0813 H   0  0  0  0  0  0  0  0  0  0  0  0
    0.9530    0.4135    2.1537 H   0  0  0  0  0  0  0  0  0  0  0  0
    0.6503   -1.1247    1.3347 H   0  0  0  0  0  0  0  0  0  0  0  0
    0.4847    0.3924    0.4421 H   0  0  0  0  0  0  0  0  0  0  0  0
    2.8967    1.8710    1.2578 H   0  0  0  0  0  0  0  0  0  0  0  0
    2.5284    1.5830   -0.4335 H   0  0  0  0  0  0  0  0  0  0  0  0
    5.0745    0.9347    1.0728 H   0  0  0  0  0  0  0  0  0  0  0  0
    4.8101    3.3230    0.6897 H   0  0  0  0  0  0  0  0  0  0  0  0
    4.7328    3.1016   -1.0528 H   0  0  0  0  0  0  0  0  0  0  0  0
    5.7836    5.2605    0.0942 H   0  0  0  0  0  0  0  0  0  0  0  0
    7.3957    5.9266    0.3698 H   0  0  0  0  0  0  0  0  0  0  0  0
    8.2989    1.5251   -0.6944 H   0  0  0  0  0  0  0  0  0  0  0  0
    7.2205    1.9007   -2.0336 H   0  0  0  0  0  0  0  0  0  0  0  0
    6.8190   -0.1265    0.2273 H   0  0  0  0  0  0  0  0  0  0  0  0
    7.0206   -0.4959   -1.4499 H   0  0  0  0  0  0  0  0  0  0  0  0
    4.9593    1.5508   -2.6177 H   0  0  0  0  0  0  0  0  0  0  0  0
    3.5588    0.5366   -2.3436 H   0  0  0  0  0  0  0  0  0  0  0  0
    4.0242   -2.0987   -2.4280 H   0  0  0  0  0  0  0  0  0  0  0  0
    5.0756   -3.8447   -3.8301 H   0  0  0  0  0  0  0  0  0  0  0  0
    6.8642   -3.2443   -5.4378 H   0  0  0  0  0  0  0  0  0  0  0  0
    6.4910    0.8898   -4.3229 H   0  0  0  0  0  0  0  0  0  0  0  0
  1  2  1  0  0  0  0
  1 23  1  0  0  0  0
  1 24  1  0  0  0  0
  1 25  1  0  0  0  0
  2  3  1  0  0  0  0
  2  4  1  0  0  0  0
  2 26  1  0  0  0  0
  3 27  1  0  0  0  0
  3 28  1  0  0  0  0
  3 29  1  0  0  0  0
  4  5  1  0  0  0  0
  4 30  1  0  0  0  0
  4 31  1  0  0  0  0
  5  6  1  0  0  0  0
  5 14  1  0  0  0  0
  5 32  1  1  0  0  0
  6  7  1  0  0  0  0
  6 33  1  0  0  0  0
  6 34  1  0  0  0  0
  7  8  1  0  0  0  0
  7 12  1  0  0  0  0
  8  9  2  0  0  0  0
  8 10  1  0  0  0  0
 10 11  1  0  0  0  0
 10 35  1  0  0  0  0
 10 36  1  0  0  0  0
 12 13  1  0  0  0  0
 12 37  1  0  0  0  0
 12 38  1  0  0  0  0
 13 14  1  0  0  0  0
 13 39  1  0  0  0  0
 13 40  1  0  0  0  0
 14 15  1  0  0  0  0
 15 16  1  0  0  0  0
 15 41  1  0  0  0  0
 15 42  1  0  0  0  0
 16 17  1  0  0  0  0
 16 22  2  0  0  0  0
 17 18  2  0  0  0  0
 17 43  1  0  0  0  0
 18 19  1  0  0  0  0
 18 44  1  0  0  0  0
 19 20  2  0  0  0  0
 19 45  1  0  0  0  0
 20 21  1  0  0  0  0
 20 22  1  0  0  0  0
 22 46  1  0  0  0  0
M  END
$$$$
