
 OpenBabel07202414153D

 23 23  0  0  0  0  0  0  0  0999 V2000
    0.9368   -0.0217    0.0248 C   0  0  0  0  0  0  0  0  0  0  0  0
    2.4120    0.0068    0.0248 N   0  3  0  0  0  0  0  0  0  0  0  0
    3.0955    1.1811    0.0248 C   0  0  0  0  0  0  0  0  0  0  0  0
    4.4913    1.1515    0.0235 C   0  0  0  0  0  0  0  0  0  0  0  0
    5.1185   -0.0747    0.0238 C   0  0  0  0  0  0  0  0  0  0  0  0
    4.4558   -1.2332    0.0279 N   0  0  0  0  0  0  0  0  0  0  0  0
    3.1136   -1.1498    0.0244 C   0  0  0  0  0  0  0  0  0  0  0  0
    2.4335   -2.4159    0.0228 C   0  0  0  0  0  0  0  0  0  0  0  0
    1.8018   -3.3895    0.0216 N   0  0  0  0  0  0  0  0  0  0  0  0
    6.4922   -0.0852    0.0229 O   0  0  0  0  0  0  0  0  0  0  0  0
    7.0535   -1.4014    0.0273 C   0  0  0  0  0  0  0  0  0  0  0  0
    2.3641    2.3402    0.0259 O   0  0  0  0  0  0  0  0  0  0  0  0
    3.0640    3.5833    0.0250 C   0  0  0  0  0  0  0  0  0  0  0  0
    0.5125    0.9826    0.0258 H   0  0  0  0  0  0  0  0  0  0  0  0
    0.6093   -0.5464    0.9271 H   0  0  0  0  0  0  0  0  0  0  0  0
    0.6097   -0.5445   -0.8787 H   0  0  0  0  0  0  0  0  0  0  0  0
    5.1029    2.0469    0.0218 H   0  0  0  0  0  0  0  0  0  0  0  0
    8.1433   -1.3086    0.0234 H   0  0  0  0  0  0  0  0  0  0  0  0
    6.7597   -1.9566   -0.8713 H   0  0  0  0  0  0  0  0  0  0  0  0
    6.7652   -1.9483    0.9327 H   0  0  0  0  0  0  0  0  0  0  0  0
    2.3209    4.3870    0.0324 H   0  0  0  0  0  0  0  0  0  0  0  0
    3.6654    3.6927   -0.8833 H   0  0  0  0  0  0  0  0  0  0  0  0
    3.6778    3.6881    0.9254 H   0  0  0  0  0  0  0  0  0  0  0  0
  1  2  1  0  0  0  0
  1 14  1  0  0  0  0
  1 15  1  0  0  0  0
  1 16  1  0  0  0  0
  2  3  1  0  0  0  0
  2  7  2  0  0  0  0
  3  4  2  0  0  0  0
  3 12  1  0  0  0  0
  4  5  1  0  0  0  0
  4 17  1  0  0  0  0
  5  6  2  0  0  0  0
  5 10  1  0  0  0  0
  6  7  1  0  0  0  0
  7  8  1  0  0  0  0
  8  9  3  0  0  0  0
 10 11  1  0  0  0  0
 11 18  1  0  0  0  0
 11 19  1  0  0  0  0
 11 20  1  0  0  0  0
 12 13  1  0  0  0  0
 13 21  1  0  0  0  0
 13 22  1  0  0  0  0
 13 23  1  0  0  0  0
M  CHG  1   2   1
M  END
$$$$
