
 OpenBabel07202414173D

 34 35  0  0  0  0  0  0  0  0999 V2000
    0.7795    0.1243    0.1296 Cl  0  0  0  0  0  0  0  0  0  0  0  0
    2.4753    0.2959    0.6292 C   0  0  0  0  0  0  0  0  0  0  0  0
    3.0882   -1.0370    1.0425 C   0  0  0  0  0  0  0  0  0  0  0  0
    2.4258   -2.0774    1.0989 O   0  0  0  0  0  0  0  0  0  0  0  0
    4.4582   -1.0437    1.3337 N   0  0  0  0  0  0  0  0  0  0  0  0
    5.2935    0.1567    1.3669 C   0  0  0  0  0  0  0  0  0  0  0  0
    5.9319    0.4940    2.7180 C   0  0  0  0  0  0  0  0  0  0  0  0
    6.5955   -0.5940    3.5504 C   0  0  0  0  0  0  0  0  0  0  0  0
    7.0490   -1.7679    2.8004 N   0  0  0  0  0  0  0  0  0  0  0  0
    8.3716   -1.6511    1.7582 S   0  0  0  0  0  0  0  0  0  0  0  0
    8.5817   -2.9311    1.1231 O   0  0  0  0  0  0  0  0  0  0  0  0
    8.2390   -0.4412    0.9732 O   0  0  0  0  0  0  0  0  0  0  0  0
    9.8338   -1.3487    2.7303 C   0  0  0  0  0  0  0  0  0  0  0  0
   10.7549   -0.3167    2.7165 C   0  0  0  0  0  0  0  0  0  0  0  0
   11.7718   -0.4866    3.6999 C   0  0  0  0  0  0  0  0  0  0  0  0
   11.5920   -1.6431    4.4273 C   0  0  0  0  0  0  0  0  0  0  0  0
   10.2097   -2.5165    3.9184 S   0  0  0  0  0  0  0  0  0  0  0  0
    5.9612   -2.7280    2.4864 C   0  0  0  0  0  0  0  0  0  0  0  0
    5.1567   -2.3415    1.2495 C   0  0  0  0  0  0  0  0  0  0  0  0
    2.5072    1.0008    1.4632 H   0  0  0  0  0  0  0  0  0  0  0  0
    3.0170    0.6904   -0.2354 H   0  0  0  0  0  0  0  0  0  0  0  0
    4.7089    1.0376    1.0931 H   0  0  0  0  0  0  0  0  0  0  0  0
    6.0237    0.0648    0.5622 H   0  0  0  0  0  0  0  0  0  0  0  0
    5.1649    0.9585    3.3529 H   0  0  0  0  0  0  0  0  0  0  0  0
    6.6691    1.2867    2.5418 H   0  0  0  0  0  0  0  0  0  0  0  0
    5.8932   -0.9259    4.3270 H   0  0  0  0  0  0  0  0  0  0  0  0
    7.4392   -0.1762    4.1135 H   0  0  0  0  0  0  0  0  0  0  0  0
   10.6941    0.5192    2.0293 H   0  0  0  0  0  0  0  0  0  0  0  0
   12.5929    0.2011    3.8646 H   0  0  0  0  0  0  0  0  0  0  0  0
   12.2058   -2.0210    5.2320 H   0  0  0  0  0  0  0  0  0  0  0  0
    5.2844   -2.8010    3.3479 H   0  0  0  0  0  0  0  0  0  0  0  0
    6.3876   -3.7296    2.3675 H   0  0  0  0  0  0  0  0  0  0  0  0
    4.4350   -3.1466    1.0661 H   0  0  0  0  0  0  0  0  0  0  0  0
    5.7964   -2.3071    0.3598 H   0  0  0  0  0  0  0  0  0  0  0  0
  1  2  1  0  0  0  0
  2  3  1  0  0  0  0
  2 20  1  0  0  0  0
  2 21  1  0  0  0  0
  3  4  2  0  0  0  0
  3  5  1  0  0  0  0
  5  6  1  0  0  0  0
  5 19  1  0  0  0  0
  6  7  1  0  0  0  0
  6 22  1  0  0  0  0
  6 23  1  0  0  0  0
  7  8  1  0  0  0  0
  7 24  1  0  0  0  0
  7 25  1  0  0  0  0
  8  9  1  0  0  0  0
  8 26  1  0  0  0  0
  8 27  1  0  0  0  0
  9 10  1  0  0  0  0
  9 18  1  0  0  0  0
 10 11  2  0  0  0  0
 10 12  2  0  0  0  0
 10 13  1  0  0  0  0
 13 14  2  0  0  0  0
 13 17  1  0  0  0  0
 14 15  1  0  0  0  0
 14 28  1  0  0  0  0
 15 16  2  0  0  0  0
 15 29  1  0  0  0  0
 16 17  1  0  0  0  0
 16 30  1  0  0  0  0
 18 19  1  0  0  0  0
 18 31  1  0  0  0  0
 18 32  1  0  0  0  0
 19 33  1  0  0  0  0
 19 34  1  0  0  0  0
M  END
$$$$
