
 OpenBabel07202414163D

 57 61  0  0  0  0  0  0  0  0999 V2000
   -2.0643   -0.2077   -0.1086 Cl  0  0  0  0  0  0  0  0  0  0  0  0
   -0.3462   -0.1033   -0.1376 C   0  0  0  0  0  0  0  0  0  0  0  0
    0.2698    1.1473   -0.1627 C   0  0  0  0  0  0  0  0  0  0  0  0
    1.6654    1.2634   -0.1320 C   0  0  0  0  0  0  0  0  0  0  0  0
    2.2430    2.5197   -0.0157 N   0  0  0  0  0  0  0  0  0  0  0  0
    3.5407    2.6489    0.6646 C   0  0  0  0  0  0  0  0  0  0  0  0
    3.6254    4.0580    1.2706 C   0  0  0  0  0  0  0  0  0  0  0  0
    3.4842    5.0793    0.2247 N   0  0  0  0  0  0  0  0  0  0  0  0
    4.2681    6.2166    0.0868 C   0  0  0  0  0  0  0  0  0  0  0  0
    4.0513    7.0685   -0.7699 O   0  0  0  0  0  0  0  0  0  0  0  0
    5.3991    6.4184    1.0474 C   0  0  0  0  0  0  0  0  0  0  0  0
    5.4153    7.6763    1.8877 C   0  0  0  0  0  0  0  0  0  0  0  0
    6.4515    7.4778    0.8225 C   0  0  0  0  0  0  0  0  0  0  0  0
    2.2666    4.9346   -0.5944 C   0  0  0  0  0  0  0  0  0  0  0  0
    2.0604    3.4912   -1.1184 C   0  0  0  0  0  0  0  0  0  0  0  0
    2.4160    0.0778   -0.1214 C   0  0  0  0  0  0  0  0  0  0  0  0
    1.8083   -1.1898   -0.1043 C   0  0  0  0  0  0  0  0  0  0  0  0
    2.6547   -2.4392   -0.1265 C   0  0  0  0  0  0  0  0  0  0  0  0
    3.6653   -2.5522    1.0032 C   0  0  0  0  0  0  0  0  0  0  0  0
    4.8195   -2.9094    0.7778 O   0  0  0  0  0  0  0  0  0  0  0  0
    3.1488   -2.3327    2.2678 N   0  0  0  0  0  0  0  0  0  0  0  0
    3.9285   -2.4269    3.4478 C   0  0  0  0  0  0  0  0  0  0  0  0
    5.2449   -1.9547    3.4815 C   0  0  0  0  0  0  0  0  0  0  0  0
    6.0339   -1.9709    4.5718 N   0  0  0  0  0  0  0  0  0  0  0  0
    5.5073   -2.5402    5.6884 C   0  0  0  0  0  0  0  0  0  0  0  0
    4.2266   -3.0759    5.7713 C   0  0  0  0  0  0  0  0  0  0  0  0
    3.7613   -3.7012    6.9436 C   0  0  0  0  0  0  0  0  0  0  0  0
    2.4926   -4.2703    6.9957 C   0  0  0  0  0  0  0  0  0  0  0  0
    1.6641   -4.2160    5.8810 C   0  0  0  0  0  0  0  0  0  0  0  0
    2.1043   -3.5911    4.7141 C   0  0  0  0  0  0  0  0  0  0  0  0
    3.3926   -3.0060    4.6253 C   0  0  0  0  0  0  0  0  0  0  0  0
    0.4131   -1.2704   -0.1069 C   0  0  0  0  0  0  0  0  0  0  0  0
   -0.3428    2.0452   -0.1472 H   0  0  0  0  0  0  0  0  0  0  0  0
    4.3590    2.4949   -0.0516 H   0  0  0  0  0  0  0  0  0  0  0  0
    3.6453    1.9217    1.4766 H   0  0  0  0  0  0  0  0  0  0  0  0
    4.5528    4.1441    1.8310 H   0  0  0  0  0  0  0  0  0  0  0  0
    2.8038    4.2140    1.9804 H   0  0  0  0  0  0  0  0  0  0  0  0
    5.8230    5.5240    1.4832 H   0  0  0  0  0  0  0  0  0  0  0  0
    5.7110    7.5871    2.9260 H   0  0  0  0  0  0  0  0  0  0  0  0
    4.6599    8.4337    1.7030 H   0  0  0  0  0  0  0  0  0  0  0  0
    7.4647    7.2505    1.1413 H   0  0  0  0  0  0  0  0  0  0  0  0
    6.3959    8.0783   -0.0757 H   0  0  0  0  0  0  0  0  0  0  0  0
    2.2672    5.6370   -1.4340 H   0  0  0  0  0  0  0  0  0  0  0  0
    1.4232    5.2038    0.0547 H   0  0  0  0  0  0  0  0  0  0  0  0
    2.7980    3.2830   -1.9049 H   0  0  0  0  0  0  0  0  0  0  0  0
    1.0657    3.4171   -1.5731 H   0  0  0  0  0  0  0  0  0  0  0  0
    3.5037    0.1325   -0.1335 H   0  0  0  0  0  0  0  0  0  0  0  0
    3.2072   -2.4527   -1.0742 H   0  0  0  0  0  0  0  0  0  0  0  0
    2.0293   -3.3402   -0.1073 H   0  0  0  0  0  0  0  0  0  0  0  0
    2.1444   -2.3439    2.3685 H   0  0  0  0  0  0  0  0  0  0  0  0
    5.7003   -1.4828    2.6170 H   0  0  0  0  0  0  0  0  0  0  0  0
    6.1804   -2.5671    6.5368 H   0  0  0  0  0  0  0  0  0  0  0  0
    4.4040   -3.7665    7.8185 H   0  0  0  0  0  0  0  0  0  0  0  0
    2.1554   -4.7698    7.9000 H   0  0  0  0  0  0  0  0  0  0  0  0
    0.6801   -4.6760    5.9111 H   0  0  0  0  0  0  0  0  0  0  0  0
    1.4347   -3.6021    3.8596 H   0  0  0  0  0  0  0  0  0  0  0  0
   -0.0869   -2.2358   -0.0923 H   0  0  0  0  0  0  0  0  0  0  0  0
  1  2  1  0  0  0  0
  2  3  2  0  0  0  0
  2 32  1  0  0  0  0
  3  4  1  0  0  0  0
  3 33  1  0  0  0  0
  4  5  1  0  0  0  0
  4 16  2  0  0  0  0
  5  6  1  0  0  0  0
  5 15  1  0  0  0  0
  6  7  1  0  0  0  0
  6 34  1  0  0  0  0
  6 35  1  0  0  0  0
  7  8  1  0  0  0  0
  7 36  1  0  0  0  0
  7 37  1  0  0  0  0
  8  9  1  0  0  0  0
  8 14  1  0  0  0  0
  9 10  2  0  0  0  0
  9 11  1  0  0  0  0
 11 12  1  0  0  0  0
 11 13  1  0  0  0  0
 11 38  1  0  0  0  0
 12 13  1  0  0  0  0
 12 39  1  0  0  0  0
 12 40  1  0  0  0  0
 13 41  1  0  0  0  0
 13 42  1  0  0  0  0
 14 15  1  0  0  0  0
 14 43  1  0  0  0  0
 14 44  1  0  0  0  0
 15 45  1  0  0  0  0
 15 46  1  0  0  0  0
 16 17  1  0  0  0  0
 16 47  1  0  0  0  0
 17 18  1  0  0  0  0
 17 32  2  0  0  0  0
 18 19  1  0  0  0  0
 18 48  1  0  0  0  0
 18 49  1  0  0  0  0
 19 20  2  0  0  0  0
 19 21  1  0  0  0  0
 21 22  1  0  0  0  0
 21 50  1  0  0  0  0
 22 23  2  0  0  0  0
 22 31  1  0  0  0  0
 23 24  1  0  0  0  0
 23 51  1  0  0  0  0
 24 25  2  0  0  0  0
 25 26  1  0  0  0  0
 25 52  1  0  0  0  0
 26 27  2  0  0  0  0
 26 31  1  0  0  0  0
 27 28  1  0  0  0  0
 27 53  1  0  0  0  0
 28 29  2  0  0  0  0
 28 54  1  0  0  0  0
 29 30  1  0  0  0  0
 29 55  1  0  0  0  0
 30 31  2  0  0  0  0
 30 56  1  0  0  0  0
 32 57  1  0  0  0  0
M  END
$$$$
