
 OpenBabel07202414123D

 65 68  0  0  1  0  0  0  0  0999 V2000
   12.6045   -3.6176    2.1743 C   0  0  0  0  0  0  0  0  0  0  0  0
   11.2338   -3.0773    1.7671 C   0  0  0  0  0  0  0  0  0  0  0  0
   10.1752   -3.5369    2.7655 C   0  0  0  0  0  0  0  0  0  0  0  0
   11.3080   -1.6449    1.7756 O   0  0  0  0  0  0  0  0  0  0  0  0
   10.5527   -0.9212    0.8977 C   0  0  0  0  0  0  0  0  0  0  0  0
    9.6788   -1.4211   -0.0544 C   0  0  0  0  0  0  0  0  0  0  0  0
    9.0137   -0.5559   -0.9435 C   0  0  0  0  0  0  0  0  0  0  0  0
    9.1559    0.8397   -0.9045 C   0  0  0  0  0  0  0  0  0  0  0  0
   10.0038    1.3268    0.1057 C   0  0  0  0  0  0  0  0  0  0  0  0
   10.7001    0.4625    0.9769 C   0  0  0  0  0  0  0  0  0  0  0  0
    8.4806    1.7269   -1.8588 N   0  0  0  0  0  0  0  0  0  0  0  0
    9.1250    3.0628   -2.1466 C   0  0  3  0  0  0  0  0  0  0  0  0
    9.7177    3.2197   -3.5615 C   0  0  0  0  0  0  0  0  0  0  0  0
   10.2299    4.4398   -4.0317 C   0  0  0  0  0  0  0  0  0  0  0  0
   10.8661    4.5244   -5.2714 C   0  0  0  0  0  0  0  0  0  0  0  0
   10.9937    3.3732   -6.0224 C   0  0  0  0  0  0  0  0  0  0  0  0
   10.5437    2.1713   -5.6135 N   0  0  0  0  0  0  0  0  0  0  0  0
    9.9394    2.1242   -4.3990 C   0  0  0  0  0  0  0  0  0  0  0  0
    8.3435    4.2805   -1.5329 C   0  0  0  0  0  0  0  0  0  0  0  0
    8.5531    5.4563   -1.8402 O   0  0  0  0  0  0  0  0  0  0  0  0
    7.5296    3.9831   -0.4397 N   0  0  0  0  0  0  0  0  0  0  0  0
    6.7362    5.0448    0.1686 C   0  0  0  0  0  0  0  0  0  0  0  0
    5.9931    4.5916    1.4278 C   0  0  0  0  0  0  0  0  0  0  0  0
    5.1151    5.6782    2.0088 C   0  0  0  0  0  0  0  0  0  0  0  0
    5.6023    6.5511    2.9947 C   0  0  0  0  0  0  0  0  0  0  0  0
    4.7863    7.5580    3.5255 C   0  0  0  0  0  0  0  0  0  0  0  0
    3.4771    7.7067    3.0717 C   0  0  0  0  0  0  0  0  0  0  0  0
    2.9957    6.8482    2.0915 C   0  0  0  0  0  0  0  0  0  0  0  0
    3.7979    5.8426    1.5579 C   0  0  0  0  0  0  0  0  0  0  0  0
    1.7370    6.9893    1.6538 F   0  0  0  0  0  0  0  0  0  0  0  0
    7.3492    1.2698   -2.5980 C   0  0  0  0  0  0  0  0  0  0  0  0
    6.8430    0.1556   -2.4581 O   0  0  0  0  0  0  0  0  0  0  0  0
    6.7266    2.1555   -3.5955 C   0  0  0  0  0  0  0  0  0  0  0  0
    6.1428    1.7349   -4.7782 C   0  0  0  0  0  0  0  0  0  0  0  0
    5.6457    2.8652   -5.3687 N   0  0  0  0  0  0  0  0  0  0  0  0
    5.9190    3.9089   -4.5360 C   0  0  0  0  0  0  0  0  0  0  0  0
    6.5643    3.5166   -3.4612 N   0  0  0  0  0  0  0  0  0  0  0  0
   12.5953   -4.7113    2.2405 H   0  0  0  0  0  0  0  0  0  0  0  0
   12.9263   -3.2095    3.1380 H   0  0  0  0  0  0  0  0  0  0  0  0
   13.3601   -3.3285    1.4356 H   0  0  0  0  0  0  0  0  0  0  0  0
   11.0296   -3.4819    0.7705 H   0  0  0  0  0  0  0  0  0  0  0  0
   10.2654   -2.9931    3.7125 H   0  0  0  0  0  0  0  0  0  0  0  0
   10.2502   -4.6102    2.9684 H   0  0  0  0  0  0  0  0  0  0  0  0
    9.1706   -3.3360    2.3800 H   0  0  0  0  0  0  0  0  0  0  0  0
    9.4878   -2.4830   -0.1577 H   0  0  0  0  0  0  0  0  0  0  0  0
    8.4054   -1.0580   -1.6896 H   0  0  0  0  0  0  0  0  0  0  0  0
   10.1452    2.3906    0.2832 H   0  0  0  0  0  0  0  0  0  0  0  0
   11.3621    0.8857    1.7266 H   0  0  0  0  0  0  0  0  0  0  0  0
   10.0545    3.0992   -1.5684 H   0  0  0  0  0  0  0  0  0  0  0  0
   10.1690    5.3485   -3.4384 H   0  0  0  0  0  0  0  0  0  0  0  0
   11.2644    5.4673   -5.6297 H   0  0  0  0  0  0  0  0  0  0  0  0
   11.4877    3.3839   -6.9889 H   0  0  0  0  0  0  0  0  0  0  0  0
    9.6476    1.1162   -4.1171 H   0  0  0  0  0  0  0  0  0  0  0  0
    7.1682    3.0367   -0.4113 H   0  0  0  0  0  0  0  0  0  0  0  0
    6.0329    5.4088   -0.5900 H   0  0  0  0  0  0  0  0  0  0  0  0
    7.4095    5.8775    0.4093 H   0  0  0  0  0  0  0  0  0  0  0  0
    6.7113    4.2548    2.1866 H   0  0  0  0  0  0  0  0  0  0  0  0
    5.3743    3.7141    1.2010 H   0  0  0  0  0  0  0  0  0  0  0  0
    6.6214    6.4518    3.3627 H   0  0  0  0  0  0  0  0  0  0  0  0
    5.1735    8.2257    4.2911 H   0  0  0  0  0  0  0  0  0  0  0  0
    2.8312    8.4797    3.4742 H   0  0  0  0  0  0  0  0  0  0  0  0
    3.3819    5.1934    0.7931 H   0  0  0  0  0  0  0  0  0  0  0  0
    6.0463    0.7529   -5.2244 H   0  0  0  0  0  0  0  0  0  0  0  0
    5.1551    2.9113   -6.2493 H   0  0  0  0  0  0  0  0  0  0  0  0
    5.6211    4.9251   -4.7631 H   0  0  0  0  0  0  0  0  0  0  0  0
  1  2  1  0  0  0  0
  1 38  1  0  0  0  0
  1 39  1  0  0  0  0
  1 40  1  0  0  0  0
  2  3  1  0  0  0  0
  2  4  1  0  0  0  0
  2 41  1  0  0  0  0
  3 42  1  0  0  0  0
  3 43  1  0  0  0  0
  3 44  1  0  0  0  0
  4  5  1  0  0  0  0
  5  6  1  0  0  0  0
  5 10  2  0  0  0  0
  6  7  2  0  0  0  0
  6 45  1  0  0  0  0
  7  8  1  0  0  0  0
  7 46  1  0  0  0  0
  8  9  2  0  0  0  0
  8 11  1  0  0  0  0
  9 10  1  0  0  0  0
  9 47  1  0  0  0  0
 10 48  1  0  0  0  0
 11 12  1  0  0  0  0
 11 31  1  0  0  0  0
 12 13  1  0  0  0  0
 12 19  1  0  0  0  0
 12 49  1  0  0  0  0
 13 14  1  0  0  0  0
 13 18  2  0  0  0  0
 14 15  2  0  0  0  0
 14 50  1  0  0  0  0
 15 16  1  0  0  0  0
 15 51  1  0  0  0  0
 16 17  2  0  0  0  0
 16 52  1  0  0  0  0
 17 18  1  0  0  0  0
 18 53  1  0  0  0  0
 19 20  2  0  0  0  0
 19 21  1  0  0  0  0
 21 22  1  0  0  0  0
 21 54  1  0  0  0  0
 22 23  1  0  0  0  0
 22 55  1  0  0  0  0
 22 56  1  0  0  0  0
 23 24  1  0  0  0  0
 23 57  1  0  0  0  0
 23 58  1  0  0  0  0
 24 25  1  0  0  0  0
 24 29  2  0  0  0  0
 25 26  2  0  0  0  0
 25 59  1  0  0  0  0
 26 27  1  0  0  0  0
 26 60  1  0  0  0  0
 27 28  2  0  0  0  0
 27 61  1  0  0  0  0
 28 29  1  0  0  0  0
 28 30  1  0  0  0  0
 29 62  1  0  0  0  0
 31 32  2  0  0  0  0
 31 33  1  0  0  0  0
 33 34  2  0  0  0  0
 33 37  1  0  0  0  0
 34 35  1  0  0  0  0
 34 63  1  0  0  0  0
 35 36  1  0  0  0  0
 35 64  1  0  0  0  0
 36 37  2  0  0  0  0
 36 65  1  0  0  0  0
M  END
$$$$
