
 OpenBabel07202414143D

 49 52  0  0  0  0  0  0  0  0999 V2000
    9.1624    3.8316    5.9713 C   0  0  0  0  0  0  0  0  0  0  0  0
    7.9977    3.9802    5.1641 O   0  0  0  0  0  0  0  0  0  0  0  0
    7.2714    2.8106    5.0707 C   0  0  0  0  0  0  0  0  0  0  0  0
    6.3867    2.6575    4.0068 C   0  0  0  0  0  0  0  0  0  0  0  0
    6.1210    4.0037    2.7029 Br  0  0  0  0  0  0  0  0  0  0  0  0
    5.6990    1.4495    3.8807 C   0  0  0  0  0  0  0  0  0  0  0  0
    5.8722    0.4492    4.8378 C   0  0  0  0  0  0  0  0  0  0  0  0
    5.2475   -0.8071    4.6578 N   0  0  0  0  0  0  0  0  0  0  0  0
    4.8048   -1.6563    5.6987 C   0  0  0  0  0  0  0  0  0  0  0  0
    4.8324   -3.0447    5.5406 C   0  0  0  0  0  0  0  0  0  0  0  0
    4.3469   -3.8747    6.5522 C   0  0  0  0  0  0  0  0  0  0  0  0
    4.4111   -5.5839    6.3542 Cl  0  0  0  0  0  0  0  0  0  0  0  0
    3.8127   -3.3398    7.7242 C   0  0  0  0  0  0  0  0  0  0  0  0
    3.7467   -1.9524    7.8891 C   0  0  0  0  0  0  0  0  0  0  0  0
    3.1974   -1.3439    9.1577 C   0  0  0  0  0  0  0  0  0  0  0  0
    2.1120   -0.3014    8.9419 C   0  0  0  0  0  0  0  0  0  0  0  0
    2.1244    0.7571    9.5634 O   0  0  0  0  0  0  0  0  0  0  0  0
    1.0942   -0.7013    8.0934 N   0  0  0  0  0  0  0  0  0  0  0  0
   -0.0152    0.1152    7.7724 C   0  0  0  0  0  0  0  0  0  0  0  0
    0.1310    1.4892    7.5683 C   0  0  0  0  0  0  0  0  0  0  0  0
   -0.8751    2.3238    7.2224 N   0  0  0  0  0  0  0  0  0  0  0  0
   -2.1016    1.7608    7.1062 C   0  0  0  0  0  0  0  0  0  0  0  0
   -2.3788    0.4106    7.3106 C   0  0  0  0  0  0  0  0  0  0  0  0
   -3.6909   -0.0877    7.2231 C   0  0  0  0  0  0  0  0  0  0  0  0
   -3.9582   -1.4327    7.4729 C   0  0  0  0  0  0  0  0  0  0  0  0
   -2.9193   -2.2948    7.8019 C   0  0  0  0  0  0  0  0  0  0  0  0
   -1.6113   -1.8121    7.8780 C   0  0  0  0  0  0  0  0  0  0  0  0
   -1.3066   -0.4496    7.6368 C   0  0  0  0  0  0  0  0  0  0  0  0
    4.2392   -1.1262    6.8682 C   0  0  0  0  0  0  0  0  0  0  0  0
    6.7738    0.7093    5.8706 C   0  0  0  0  0  0  0  0  0  0  0  0
    7.4685    1.8598    6.0142 N   0  0  0  0  0  0  0  0  0  0  0  0
    9.7886    4.7160    5.8232 H   0  0  0  0  0  0  0  0  0  0  0  0
    9.7529    2.9585    5.6678 H   0  0  0  0  0  0  0  0  0  0  0  0
    8.8991    3.7758    7.0329 H   0  0  0  0  0  0  0  0  0  0  0  0
    5.0176    1.2892    3.0501 H   0  0  0  0  0  0  0  0  0  0  0  0
    5.7407   -1.3264    3.9326 H   0  0  0  0  0  0  0  0  0  0  0  0
    5.2433   -3.4879    4.6376 H   0  0  0  0  0  0  0  0  0  0  0  0
    3.4493   -4.0064    8.5026 H   0  0  0  0  0  0  0  0  0  0  0  0
    4.0284   -0.8629    9.6871 H   0  0  0  0  0  0  0  0  0  0  0  0
    2.7912   -2.1160    9.8213 H   0  0  0  0  0  0  0  0  0  0  0  0
    1.0324   -1.6857    7.8738 H   0  0  0  0  0  0  0  0  0  0  0  0
    1.1011    1.9725    7.6379 H   0  0  0  0  0  0  0  0  0  0  0  0
   -2.8871    2.4718    6.8529 H   0  0  0  0  0  0  0  0  0  0  0  0
   -4.5177    0.5757    6.9822 H   0  0  0  0  0  0  0  0  0  0  0  0
   -4.9779   -1.8039    7.4256 H   0  0  0  0  0  0  0  0  0  0  0  0
   -3.1253   -3.3404    8.0172 H   0  0  0  0  0  0  0  0  0  0  0  0
   -0.8386   -2.5180    8.1706 H   0  0  0  0  0  0  0  0  0  0  0  0
    4.1732   -0.0434    6.9841 H   0  0  0  0  0  0  0  0  0  0  0  0
    6.9865   -0.0363    6.6327 H   0  0  0  0  0  0  0  0  0  0  0  0
  1  2  1  0  0  0  0
  1 32  1  0  0  0  0
  1 33  1  0  0  0  0
  1 34  1  0  0  0  0
  2  3  1  0  0  0  0
  3  4  2  0  0  0  0
  3 31  1  0  0  0  0
  4  5  1  0  0  0  0
  4  6  1  0  0  0  0
  6  7  2  0  0  0  0
  6 35  1  0  0  0  0
  7  8  1  0  0  0  0
  7 30  1  0  0  0  0
  8  9  1  0  0  0  0
  8 36  1  0  0  0  0
  9 10  2  0  0  0  0
  9 29  1  0  0  0  0
 10 11  1  0  0  0  0
 10 37  1  0  0  0  0
 11 12  1  0  0  0  0
 11 13  2  0  0  0  0
 13 14  1  0  0  0  0
 13 38  1  0  0  0  0
 14 15  1  0  0  0  0
 14 29  2  0  0  0  0
 15 16  1  0  0  0  0
 15 39  1  0  0  0  0
 15 40  1  0  0  0  0
 16 17  2  0  0  0  0
 16 18  1  0  0  0  0
 18 19  1  0  0  0  0
 18 41  1  0  0  0  0
 19 20  2  0  0  0  0
 19 28  1  0  0  0  0
 20 21  1  0  0  0  0
 20 42  1  0  0  0  0
 21 22  2  0  0  0  0
 22 23  1  0  0  0  0
 22 43  1  0  0  0  0
 23 24  2  0  0  0  0
 23 28  1  0  0  0  0
 24 25  1  0  0  0  0
 24 44  1  0  0  0  0
 25 26  2  0  0  0  0
 25 45  1  0  0  0  0
 26 27  1  0  0  0  0
 26 46  1  0  0  0  0
 27 28  2  0  0  0  0
 27 47  1  0  0  0  0
 29 48  1  0  0  0  0
 30 31  2  0  0  0  0
 30 49  1  0  0  0  0
M  END
$$$$
