
 OpenBabel07202414133D

 59 63  0  0  1  0  0  0  0  0999 V2000
    2.9934   -1.7996   -2.5430 C   0  0  0  0  0  0  0  0  0  0  0  0
    2.3637   -0.4572   -2.5698 N   0  0  0  0  0  0  0  0  0  0  0  0
    0.8879   -0.4782   -2.8266 C   0  0  0  0  0  0  0  0  0  0  0  0
    0.5358   -1.1758   -4.1402 C   0  0  0  0  0  0  0  0  0  0  0  0
   -0.9159   -1.2013   -4.3416 C   0  0  0  0  0  0  0  0  0  0  0  0
   -2.0635   -1.2658   -4.4982 N   0  0  0  0  0  0  0  0  0  0  0  0
    2.7997    0.4929   -1.2197 S   0  0  0  0  0  0  0  0  0  0  0  0
    2.1436    1.7713   -1.2293 O   0  0  0  0  0  0  0  0  0  0  0  0
    2.7165   -0.3482   -0.0455 O   0  0  0  0  0  0  0  0  0  0  0  0
    4.4351    0.7123   -1.5698 N   0  0  0  0  0  0  0  0  0  0  0  0
    5.1408    1.5321   -0.5704 C   0  0  0  0  0  0  0  0  0  0  0  0
    5.1114    3.0084   -0.8917 C   0  0  0  0  0  0  0  0  0  0  0  0
    5.4309    3.9102    0.1430 C   0  0  0  0  0  0  0  0  0  0  0  0
    5.4559    5.2821   -0.0924 C   0  0  0  0  0  0  0  0  0  0  0  0
    5.1667    5.7629   -1.3628 C   0  0  0  0  0  0  0  0  0  0  0  0
    5.2387    7.4538   -1.6726 Cl  0  0  0  0  0  0  0  0  0  0  0  0
    4.8451    4.8865   -2.4005 C   0  0  0  0  0  0  0  0  0  0  0  0
    4.8234    3.4941   -2.1938 C   0  0  0  0  0  0  0  0  0  0  0  0
    4.5509    2.5242   -3.3617 C   0  0  3  0  0  0  0  0  0  0  0  0
    5.4986    2.8475   -4.5451 C   0  0  0  0  0  0  0  0  0  0  0  0
    4.6593    3.5208   -5.6118 C   0  0  0  0  0  0  0  0  0  0  0  0
    3.3100    3.5418   -5.1393 N   0  0  0  0  0  0  0  0  0  0  0  0
    2.3370    4.5118   -5.5782 C   0  0  0  0  0  0  0  0  0  0  0  0
    1.3125    4.9125   -4.7119 C   0  0  0  0  0  0  0  0  0  0  0  0
    0.6390    6.0833   -4.8227 N   0  0  0  0  0  0  0  0  0  0  0  0
    0.9092    6.8336   -5.9092 C   0  0  0  0  0  0  0  0  0  0  0  0
    1.7156    6.4142   -6.9628 C   0  0  0  0  0  0  0  0  0  0  0  0
    1.7894    7.1431   -8.1676 C   0  0  0  0  0  0  0  0  0  0  0  0
    2.5441    6.6732   -9.2395 C   0  0  0  0  0  0  0  0  0  0  0  0
    3.2503    5.4882   -9.1160 C   0  0  0  0  0  0  0  0  0  0  0  0
    3.1841    4.7699   -7.9240 C   0  0  0  0  0  0  0  0  0  0  0  0
    2.4365    5.2076   -6.8074 C   0  0  0  0  0  0  0  0  0  0  0  0
    3.1696    2.7186   -4.0363 C   0  0  0  0  0  0  0  0  0  0  0  0
    2.0925    2.2188   -3.7298 O   0  0  0  0  0  0  0  0  0  0  0  0
    4.8435    1.0777   -2.9460 C   0  0  0  0  0  0  0  0  0  0  0  0
    2.9036   -2.2851   -3.5177 H   0  0  0  0  0  0  0  0  0  0  0  0
    2.5339   -2.4283   -1.7777 H   0  0  0  0  0  0  0  0  0  0  0  0
    4.0683   -1.7253   -2.3571 H   0  0  0  0  0  0  0  0  0  0  0  0
    0.5089    0.5493   -2.8801 H   0  0  0  0  0  0  0  0  0  0  0  0
    0.3860   -0.9671   -1.9856 H   0  0  0  0  0  0  0  0  0  0  0  0
    0.8851   -2.2145   -4.1347 H   0  0  0  0  0  0  0  0  0  0  0  0
    1.0297   -0.6814   -4.9854 H   0  0  0  0  0  0  0  0  0  0  0  0
    6.1873    1.2001   -0.5322 H   0  0  0  0  0  0  0  0  0  0  0  0
    4.7309    1.3500    0.4308 H   0  0  0  0  0  0  0  0  0  0  0  0
    5.6565    3.5425    1.1432 H   0  0  0  0  0  0  0  0  0  0  0  0
    5.6999    5.9654    0.7161 H   0  0  0  0  0  0  0  0  0  0  0  0
    4.6303    5.3081   -3.3782 H   0  0  0  0  0  0  0  0  0  0  0  0
    5.9331    1.9377   -4.9820 H   0  0  0  0  0  0  0  0  0  0  0  0
    6.3528    3.4736   -4.2643 H   0  0  0  0  0  0  0  0  0  0  0  0
    4.6901    2.8776   -6.4949 H   0  0  0  0  0  0  0  0  0  0  0  0
    5.0347    4.5181   -5.8462 H   0  0  0  0  0  0  0  0  0  0  0  0
    1.0260    4.3401   -3.8306 H   0  0  0  0  0  0  0  0  0  0  0  0
    0.4277    7.8090   -5.9132 H   0  0  0  0  0  0  0  0  0  0  0  0
    1.2151    8.0588   -8.2922 H   0  0  0  0  0  0  0  0  0  0  0  0
    2.5536    7.2103  -10.1830 H   0  0  0  0  0  0  0  0  0  0  0  0
    3.8290    5.0963   -9.9462 H   0  0  0  0  0  0  0  0  0  0  0  0
    3.6762    3.8056   -7.9199 H   0  0  0  0  0  0  0  0  0  0  0  0
    5.9377    0.9227   -2.9582 H   0  0  0  0  0  0  0  0  0  0  0  0
    4.4706    0.3575   -3.6795 H   0  0  0  0  0  0  0  0  0  0  0  0
  1  2  1  0  0  0  0
  1 36  1  0  0  0  0
  1 37  1  0  0  0  0
  1 38  1  0  0  0  0
  2  3  1  0  0  0  0
  2  7  1  0  0  0  0
  3  4  1  0  0  0  0
  3 39  1  0  0  0  0
  3 40  1  0  0  0  0
  4  5  1  0  0  0  0
  4 41  1  0  0  0  0
  4 42  1  0  0  0  0
  5  6  3  0  0  0  0
  7  8  2  0  0  0  0
  7  9  2  0  0  0  0
  7 10  1  0  0  0  0
 10 11  1  0  0  0  0
 10 35  1  0  0  0  0
 11 12  1  0  0  0  0
 11 43  1  0  0  0  0
 11 44  1  0  0  0  0
 12 13  1  0  0  0  0
 12 18  2  0  0  0  0
 13 14  2  0  0  0  0
 13 45  1  0  0  0  0
 14 15  1  0  0  0  0
 14 46  1  0  0  0  0
 15 16  1  0  0  0  0
 15 17  2  0  0  0  0
 17 18  1  0  0  0  0
 17 47  1  0  0  0  0
 18 19  1  0  0  0  0
 19 20  1  0  0  0  0
 19 33  1  0  0  0  0
 19 35  1  0  0  0  0
 20 21  1  0  0  0  0
 20 48  1  0  0  0  0
 20 49  1  0  0  0  0
 21 22  1  0  0  0  0
 21 50  1  0  0  0  0
 21 51  1  0  0  0  0
 22 23  1  0  0  0  0
 22 33  1  0  0  0  0
 23 24  1  0  0  0  0
 23 32  2  0  0  0  0
 24 25  2  0  0  0  0
 24 52  1  0  0  0  0
 25 26  1  0  0  0  0
 26 27  2  0  0  0  0
 26 53  1  0  0  0  0
 27 28  1  0  0  0  0
 27 32  1  0  0  0  0
 28 29  2  0  0  0  0
 28 54  1  0  0  0  0
 29 30  1  0  0  0  0
 29 55  1  0  0  0  0
 30 31  2  0  0  0  0
 30 56  1  0  0  0  0
 31 32  1  0  0  0  0
 31 57  1  0  0  0  0
 33 34  2  0  0  0  0
 35 58  1  0  0  0  0
 35 59  1  0  0  0  0
M  END
$$$$
