
 OpenBabel07202414163D

 58 60  0  0  1  0  0  0  0  0999 V2000
    1.6376    0.9776   -0.7510 C   0  0  0  0  0  0  0  0  0  0  0  0
    0.9352    0.8503    0.5693 C   0  0  0  0  0  0  0  0  0  0  0  0
    1.5320   -0.0314    1.4927 C   0  0  0  0  0  0  0  0  0  0  0  0
    0.9355   -0.2524    2.7209 C   0  0  0  0  0  0  0  0  0  0  0  0
   -0.2079    0.3363    3.1007 N   0  0  0  0  0  0  0  0  0  0  0  0
   -0.7717    1.1763    2.2012 C   0  0  0  0  0  0  0  0  0  0  0  0
   -0.2673    1.4962    0.9259 C   0  0  0  0  0  0  0  0  0  0  0  0
   -1.1181    2.4882    0.1173 C   0  0  3  0  0  0  0  0  0  0  0  0
   -0.4795    3.2560   -1.0550 C   0  0  0  0  0  0  0  0  0  0  0  0
   -0.1410    4.4345   -0.9220 O   0  0  0  0  0  0  0  0  0  0  0  0
   -0.3562    2.5979   -2.2608 N   0  0  0  0  0  0  0  0  0  0  0  0
    0.1046    3.3032   -3.4484 C   0  0  0  0  0  0  0  0  0  0  0  0
    0.8996    2.4239   -4.4051 C   0  0  0  0  0  0  0  0  0  0  0  0
    1.4174    3.2226   -5.5869 C   0  0  0  0  0  0  0  0  0  0  0  0
    2.6617    3.8650   -5.5239 C   0  0  0  0  0  0  0  0  0  0  0  0
    3.1192    4.6489   -6.5917 C   0  0  0  0  0  0  0  0  0  0  0  0
    2.3311    4.7935   -7.7308 C   0  0  0  0  0  0  0  0  0  0  0  0
    1.0980    4.1615   -7.7914 C   0  0  0  0  0  0  0  0  0  0  0  0
    0.6316    3.3857   -6.7359 C   0  0  0  0  0  0  0  0  0  0  0  0
    0.3351    4.3098   -8.8843 F   0  0  0  0  0  0  0  0  0  0  0  0
   -2.5307    2.0932   -0.1948 N   0  0  0  0  0  0  0  0  0  0  0  0
   -3.5307    3.1811   -0.1372 C   0  0  0  0  0  0  0  0  0  0  0  0
   -4.3661    3.4065   -1.3827 C   0  0  0  0  0  0  0  0  0  0  0  0
   -5.6617    3.9369   -1.2480 C   0  0  0  0  0  0  0  0  0  0  0  0
   -6.4878    4.1214   -2.3630 C   0  0  0  0  0  0  0  0  0  0  0  0
   -6.0215    3.7945   -3.6313 C   0  0  0  0  0  0  0  0  0  0  0  0
   -4.7236    3.3235   -3.7888 C   0  0  0  0  0  0  0  0  0  0  0  0
   -3.8948    3.1424   -2.6758 C   0  0  0  0  0  0  0  0  0  0  0  0
   -4.1330    2.9460   -5.3591 Cl  0  0  0  0  0  0  0  0  0  0  0  0
   -2.8471    0.7518   -0.3507 C   0  0  0  0  0  0  0  0  0  0  0  0
   -2.0017   -0.1286   -0.4822 O   0  0  0  0  0  0  0  0  0  0  0  0
   -4.2822    0.3612   -0.3356 C   0  0  0  0  0  0  0  0  0  0  0  0
   -4.6724   -0.7224    0.3517 C   0  0  0  0  0  0  0  0  0  0  0  0
    2.5381    0.3517   -0.7917 H   0  0  0  0  0  0  0  0  0  0  0  0
    1.9676    2.0045   -0.9258 H   0  0  0  0  0  0  0  0  0  0  0  0
    0.9966    0.6142   -1.5563 H   0  0  0  0  0  0  0  0  0  0  0  0
    2.4569   -0.5516    1.2603 H   0  0  0  0  0  0  0  0  0  0  0  0
    1.3735   -0.9386    3.4400 H   0  0  0  0  0  0  0  0  0  0  0  0
   -1.7118    1.6013    2.5475 H   0  0  0  0  0  0  0  0  0  0  0  0
   -1.2417    3.2952    0.8603 H   0  0  0  0  0  0  0  0  0  0  0  0
   -0.7706    1.6735   -2.3435 H   0  0  0  0  0  0  0  0  0  0  0  0
    0.7113    4.1655   -3.1461 H   0  0  0  0  0  0  0  0  0  0  0  0
   -0.7868    3.6991   -3.9464 H   0  0  0  0  0  0  0  0  0  0  0  0
    0.2904    1.5880   -4.7662 H   0  0  0  0  0  0  0  0  0  0  0  0
    1.7550    1.9634   -3.8858 H   0  0  0  0  0  0  0  0  0  0  0  0
    3.2883    3.7717   -4.6373 H   0  0  0  0  0  0  0  0  0  0  0  0
    4.0850    5.1447   -6.5301 H   0  0  0  0  0  0  0  0  0  0  0  0
    2.6676    5.4029   -8.5658 H   0  0  0  0  0  0  0  0  0  0  0  0
   -0.3436    2.9145   -6.8213 H   0  0  0  0  0  0  0  0  0  0  0  0
   -3.0303    4.1312    0.0874 H   0  0  0  0  0  0  0  0  0  0  0  0
   -4.1917    2.9549    0.7081 H   0  0  0  0  0  0  0  0  0  0  0  0
   -6.0496    4.2090   -0.2645 H   0  0  0  0  0  0  0  0  0  0  0  0
   -7.4933    4.5167   -2.2387 H   0  0  0  0  0  0  0  0  0  0  0  0
   -6.6732    3.9187   -4.4937 H   0  0  0  0  0  0  0  0  0  0  0  0
   -2.8889    2.7798   -2.8325 H   0  0  0  0  0  0  0  0  0  0  0  0
   -4.9865    0.9033   -0.9475 H   0  0  0  0  0  0  0  0  0  0  0  0
   -3.9724   -1.2989    0.9532 H   0  0  0  0  0  0  0  0  0  0  0  0
   -5.6982   -1.0713    0.3101 H   0  0  0  0  0  0  0  0  0  0  0  0
  1  2  1  0  0  0  0
  1 34  1  0  0  0  0
  1 35  1  0  0  0  0
  1 36  1  0  0  0  0
  2  3  1  0  0  0  0
  2  7  2  0  0  0  0
  3  4  2  0  0  0  0
  3 37  1  0  0  0  0
  4  5  1  0  0  0  0
  4 38  1  0  0  0  0
  5  6  2  0  0  0  0
  6  7  1  0  0  0  0
  6 39  1  0  0  0  0
  7  8  1  0  0  0  0
  8  9  1  0  0  0  0
  8 21  1  0  0  0  0
  8 40  1  0  0  0  0
  9 10  2  0  0  0  0
  9 11  1  0  0  0  0
 11 12  1  0  0  0  0
 11 41  1  0  0  0  0
 12 13  1  0  0  0  0
 12 42  1  0  0  0  0
 12 43  1  0  0  0  0
 13 14  1  0  0  0  0
 13 44  1  0  0  0  0
 13 45  1  0  0  0  0
 14 15  1  0  0  0  0
 14 19  2  0  0  0  0
 15 16  2  0  0  0  0
 15 46  1  0  0  0  0
 16 17  1  0  0  0  0
 16 47  1  0  0  0  0
 17 18  2  0  0  0  0
 17 48  1  0  0  0  0
 18 19  1  0  0  0  0
 18 20  1  0  0  0  0
 19 49  1  0  0  0  0
 21 22  1  0  0  0  0
 21 30  1  0  0  0  0
 22 23  1  0  0  0  0
 22 50  1  0  0  0  0
 22 51  1  0  0  0  0
 23 24  1  0  0  0  0
 23 28  2  0  0  0  0
 24 25  2  0  0  0  0
 24 52  1  0  0  0  0
 25 26  1  0  0  0  0
 25 53  1  0  0  0  0
 26 27  2  0  0  0  0
 26 54  1  0  0  0  0
 27 28  1  0  0  0  0
 27 29  1  0  0  0  0
 28 55  1  0  0  0  0
 30 31  2  0  0  0  0
 30 32  1  0  0  0  0
 32 33  2  0  0  0  0
 32 56  1  0  0  0  0
 33 57  1  0  0  0  0
 33 58  1  0  0  0  0
M  END
$$$$
