
 OpenBabel07202414153D

 48 51  0  0  1  0  0  0  0  0999 V2000
    0.7374   -0.6756   -2.5450 C   0  0  0  0  0  0  0  0  0  0  0  0
    2.4178   -0.8195   -3.0952 S   0  0  0  0  0  0  0  0  0  0  0  0
    2.7539   -2.2232   -3.0737 O   0  0  0  0  0  0  0  0  0  0  0  0
    2.5195   -0.0332   -4.3077 O   0  0  0  0  0  0  0  0  0  0  0  0
    3.3402    0.0052   -1.8060 C   0  0  0  0  0  0  0  0  0  0  0  0
    4.8753    0.1187   -2.0513 C   0  0  3  0  0  0  0  0  0  0  0  0
    5.2427    0.8943   -3.3809 C   0  0  0  0  0  0  0  0  0  0  0  0
    6.2377    0.6126   -4.0340 O   0  0  0  0  0  0  0  0  0  0  0  0
    4.4007    1.9589   -3.6726 N   0  0  0  0  0  0  0  0  0  0  0  0
    4.4636    2.9123   -4.7201 C   0  0  0  0  0  0  0  0  0  0  0  0
    5.5204    2.9937   -5.6222 C   0  0  0  0  0  0  0  0  0  0  0  0
    5.6927    4.0170   -6.4938 N   0  0  0  0  0  0  0  0  0  0  0  0
    4.7375    4.9708   -6.5109 C   0  0  0  0  0  0  0  0  0  0  0  0
    3.5637    4.9305   -5.7599 C   0  0  0  0  0  0  0  0  0  0  0  0
    2.5509    5.8955   -5.9354 C   0  0  0  0  0  0  0  0  0  0  0  0
    1.3690    5.8340   -5.2013 C   0  0  0  0  0  0  0  0  0  0  0  0
    1.1967    4.8234   -4.2682 C   0  0  0  0  0  0  0  0  0  0  0  0
    2.1983    3.8651   -4.0845 C   0  0  0  0  0  0  0  0  0  0  0  0
    3.4132    3.8806   -4.8278 C   0  0  0  0  0  0  0  0  0  0  0  0
    5.5595   -1.2702   -2.1067 C   0  0  0  0  0  0  0  0  0  0  0  0
    5.4262   -2.0109   -0.7849 C   0  0  0  0  0  0  0  0  0  0  0  0
    6.0137   -1.3079    0.3045 O   0  0  0  0  0  0  0  0  0  0  0  0
    5.9256    0.0545    0.2865 C   0  0  0  0  0  0  0  0  0  0  0  0
    6.3693    0.6679    1.4652 C   0  0  0  0  0  0  0  0  0  0  0  0
    6.3516    2.0534    1.5935 C   0  0  0  0  0  0  0  0  0  0  0  0
    5.9160    2.8237    0.5250 C   0  0  0  0  0  0  0  0  0  0  0  0
    5.8842    4.5387    0.6662 Cl  0  0  0  0  0  0  0  0  0  0  0  0
    5.4796    2.2200   -0.6607 C   0  0  0  0  0  0  0  0  0  0  0  0
    5.4575    0.8186   -0.7998 C   0  0  0  0  0  0  0  0  0  0  0  0
    0.0984   -1.1558   -3.2907 H   0  0  0  0  0  0  0  0  0  0  0  0
    0.4791    0.3821   -2.4637 H   0  0  0  0  0  0  0  0  0  0  0  0
    0.6349   -1.1787   -1.5837 H   0  0  0  0  0  0  0  0  0  0  0  0
    3.1184   -0.5393   -0.8818 H   0  0  0  0  0  0  0  0  0  0  0  0
    2.8797    0.9894   -1.6765 H   0  0  0  0  0  0  0  0  0  0  0  0
    3.6181    2.0976   -3.0646 H   0  0  0  0  0  0  0  0  0  0  0  0
    6.2977    2.2395   -5.6788 H   0  0  0  0  0  0  0  0  0  0  0  0
    4.9458    5.8011   -7.1814 H   0  0  0  0  0  0  0  0  0  0  0  0
    2.6658    6.6862   -6.6738 H   0  0  0  0  0  0  0  0  0  0  0  0
    0.5801    6.5629   -5.3696 H   0  0  0  0  0  0  0  0  0  0  0  0
    0.2752    4.7645   -3.6940 H   0  0  0  0  0  0  0  0  0  0  0  0
    1.9793    3.0767   -3.3740 H   0  0  0  0  0  0  0  0  0  0  0  0
    6.6328   -1.1519   -2.3126 H   0  0  0  0  0  0  0  0  0  0  0  0
    5.1682   -1.8835   -2.9238 H   0  0  0  0  0  0  0  0  0  0  0  0
    5.9361   -2.9781   -0.8532 H   0  0  0  0  0  0  0  0  0  0  0  0
    4.3860   -2.2342   -0.5283 H   0  0  0  0  0  0  0  0  0  0  0  0
    6.7247    0.0557    2.2921 H   0  0  0  0  0  0  0  0  0  0  0  0
    6.6810    2.5181    2.5190 H   0  0  0  0  0  0  0  0  0  0  0  0
    5.1665    2.8778   -1.4649 H   0  0  0  0  0  0  0  0  0  0  0  0
  1  2  1  0  0  0  0
  1 30  1  0  0  0  0
  1 31  1  0  0  0  0
  1 32  1  0  0  0  0
  2  3  2  0  0  0  0
  2  4  2  0  0  0  0
  2  5  1  0  0  0  0
  5  6  1  0  0  0  0
  5 33  1  0  0  0  0
  5 34  1  0  0  0  0
  6  7  1  0  0  0  0
  6 20  1  0  0  0  0
  6 29  1  0  0  0  0
  7  8  2  0  0  0  0
  7  9  1  0  0  0  0
  9 10  1  0  0  0  0
  9 35  1  0  0  0  0
 10 11  1  0  0  0  0
 10 19  2  0  0  0  0
 11 12  2  0  0  0  0
 11 36  1  0  0  0  0
 12 13  1  0  0  0  0
 13 14  2  0  0  0  0
 13 37  1  0  0  0  0
 14 15  1  0  0  0  0
 14 19  1  0  0  0  0
 15 16  2  0  0  0  0
 15 38  1  0  0  0  0
 16 17  1  0  0  0  0
 16 39  1  0  0  0  0
 17 18  2  0  0  0  0
 17 40  1  0  0  0  0
 18 19  1  0  0  0  0
 18 41  1  0  0  0  0
 20 21  1  0  0  0  0
 20 42  1  0  0  0  0
 20 43  1  0  0  0  0
 21 22  1  0  0  0  0
 21 44  1  0  0  0  0
 21 45  1  0  0  0  0
 22 23  1  0  0  0  0
 23 24  1  0  0  0  0
 23 29  2  0  0  0  0
 24 25  2  0  0  0  0
 24 46  1  0  0  0  0
 25 26  1  0  0  0  0
 25 47  1  0  0  0  0
 26 27  1  0  0  0  0
 26 28  2  0  0  0  0
 28 29  1  0  0  0  0
 28 48  1  0  0  0  0
M  END
$$$$
