
 OpenBabel07202414123D

 64 67  0  0  1  0  0  0  0  0999 V2000
    3.6181    1.9538    0.1462 C   0  0  0  0  0  0  0  0  0  0  0  0
    2.7600    0.6629    0.1999 C   0  0  0  0  0  0  0  0  0  0  0  0
    1.2948    1.1212    0.3813 C   0  0  0  0  0  0  0  0  0  0  0  0
    2.9008   -0.0325   -1.1675 C   0  0  0  0  0  0  0  0  0  0  0  0
    3.1547   -0.2912    1.3463 C   0  0  0  0  0  0  0  0  0  0  0  0
    4.2111   -0.0050    2.2103 C   0  0  0  0  0  0  0  0  0  0  0  0
    4.4715   -0.7990    3.3374 C   0  0  0  0  0  0  0  0  0  0  0  0
    3.6783   -1.9004    3.6939 C   0  0  0  0  0  0  0  0  0  0  0  0
    3.8669   -2.5674    4.9832 N   0  0  0  0  0  0  0  0  0  0  0  0
    3.4602   -4.0151    5.1195 C   0  0  3  0  0  0  0  0  0  0  0  0
    4.6692   -4.9349    5.5513 C   0  0  0  0  0  0  0  0  0  0  0  0
    4.5320   -6.1012    5.9271 O   0  0  0  0  0  0  0  0  0  0  0  0
    5.9399   -4.4158    5.4008 N   0  0  0  0  0  0  0  0  0  0  0  0
    7.0872   -5.2029    5.8312 C   0  0  0  0  0  0  0  0  0  0  0  0
    8.4151   -4.6880    5.2932 C   0  0  3  0  0  0  0  0  0  0  0  0
    8.7999   -3.2912    5.7375 C   0  0  0  0  0  0  0  0  0  0  0  0
    9.7436   -2.8506    4.6412 C   0  0  0  0  0  0  0  0  0  0  0  0
    9.3495   -3.6831    3.4337 C   0  0  0  0  0  0  0  0  0  0  0  0
    8.3562   -4.6190    3.8602 O   0  0  0  0  0  0  0  0  0  0  0  0
    2.1838   -4.3010    5.9286 C   0  0  0  0  0  0  0  0  0  0  0  0
    1.4065   -3.3168    6.5501 C   0  0  0  0  0  0  0  0  0  0  0  0
    0.4086   -3.6820    7.4587 C   0  0  0  0  0  0  0  0  0  0  0  0
    0.1674   -5.0259    7.6792 C   0  0  0  0  0  0  0  0  0  0  0  0
    0.7993   -6.0069    7.0134 N   0  0  0  0  0  0  0  0  0  0  0  0
    1.7800   -5.6236    6.1596 C   0  0  0  0  0  0  0  0  0  0  0  0
    4.3622   -1.7905    6.0790 C   0  0  0  0  0  0  0  0  0  0  0  0
    4.5742   -0.5805    6.0047 O   0  0  0  0  0  0  0  0  0  0  0  0
    4.6671   -2.4111    7.3638 C   0  0  0  0  0  0  0  0  0  0  0  0
    5.6357   -1.9516    8.2323 C   0  0  0  0  0  0  0  0  0  0  0  0
    5.5912   -2.7031    9.3606 O   0  0  0  0  0  0  0  0  0  0  0  0
    4.5833   -3.5854    9.1242 C   0  0  0  0  0  0  0  0  0  0  0  0
    4.0146   -3.4680    7.9470 N   0  0  0  0  0  0  0  0  0  0  0  0
    2.6982   -2.2669    2.7638 C   0  0  0  0  0  0  0  0  0  0  0  0
    2.4427   -1.4755    1.6146 C   0  0  0  0  0  0  0  0  0  0  0  0
    3.2933    2.6178   -0.6638 H   0  0  0  0  0  0  0  0  0  0  0  0
    4.6768    1.7290   -0.0289 H   0  0  0  0  0  0  0  0  0  0  0  0
    3.5424    2.5265    1.0789 H   0  0  0  0  0  0  0  0  0  0  0  0
    0.9831    1.7806   -0.4382 H   0  0  0  0  0  0  0  0  0  0  0  0
    1.1689    1.6792    1.3170 H   0  0  0  0  0  0  0  0  0  0  0  0
    0.5944    0.2798    0.4006 H   0  0  0  0  0  0  0  0  0  0  0  0
    2.5721    0.6293   -1.9783 H   0  0  0  0  0  0  0  0  0  0  0  0
    2.2993   -0.9454   -1.2318 H   0  0  0  0  0  0  0  0  0  0  0  0
    3.9436   -0.3036   -1.3685 H   0  0  0  0  0  0  0  0  0  0  0  0
    4.8475    0.8639    2.0679 H   0  0  0  0  0  0  0  0  0  0  0  0
    5.3229   -0.4930    3.9395 H   0  0  0  0  0  0  0  0  0  0  0  0
    3.2522   -4.3885    4.1087 H   0  0  0  0  0  0  0  0  0  0  0  0
    6.0818   -3.6658    4.7342 H   0  0  0  0  0  0  0  0  0  0  0  0
    6.9370   -6.2312    5.4825 H   0  0  0  0  0  0  0  0  0  0  0  0
    7.0882   -5.2184    6.9278 H   0  0  0  0  0  0  0  0  0  0  0  0
    9.2095   -5.3969    5.5608 H   0  0  0  0  0  0  0  0  0  0  0  0
    9.2602   -3.2755    6.7298 H   0  0  0  0  0  0  0  0  0  0  0  0
    7.9337   -2.6202    5.7601 H   0  0  0  0  0  0  0  0  0  0  0  0
   10.7844   -3.0565    4.9140 H   0  0  0  0  0  0  0  0  0  0  0  0
    9.6681   -1.7780    4.4376 H   0  0  0  0  0  0  0  0  0  0  0  0
   10.2039   -4.2426    3.0396 H   0  0  0  0  0  0  0  0  0  0  0  0
    8.9298   -3.0759    2.6274 H   0  0  0  0  0  0  0  0  0  0  0  0
    1.6128   -2.2607    6.4073 H   0  0  0  0  0  0  0  0  0  0  0  0
   -0.1414   -2.9316    8.0150 H   0  0  0  0  0  0  0  0  0  0  0  0
   -0.5534   -5.3597    8.4199 H   0  0  0  0  0  0  0  0  0  0  0  0
    2.2712   -6.4666    5.6777 H   0  0  0  0  0  0  0  0  0  0  0  0
    6.3647   -1.1551    8.1961 H   0  0  0  0  0  0  0  0  0  0  0  0
    4.3430   -4.2638    9.9238 H   0  0  0  0  0  0  0  0  0  0  0  0
    2.0457   -3.1210    2.9211 H   0  0  0  0  0  0  0  0  0  0  0  0
    1.6344   -1.7838    0.9525 H   0  0  0  0  0  0  0  0  0  0  0  0
  1  2  1  0  0  0  0
  1 35  1  0  0  0  0
  1 36  1  0  0  0  0
  1 37  1  0  0  0  0
  2  3  1  0  0  0  0
  2  4  1  0  0  0  0
  2  5  1  0  0  0  0
  3 38  1  0  0  0  0
  3 39  1  0  0  0  0
  3 40  1  0  0  0  0
  4 41  1  0  0  0  0
  4 42  1  0  0  0  0
  4 43  1  0  0  0  0
  5  6  1  0  0  0  0
  5 34  2  0  0  0  0
  6  7  2  0  0  0  0
  6 44  1  0  0  0  0
  7  8  1  0  0  0  0
  7 45  1  0  0  0  0
  8  9  1  0  0  0  0
  8 33  2  0  0  0  0
  9 10  1  0  0  0  0
  9 26  1  0  0  0  0
 10 11  1  0  0  0  0
 10 20  1  0  0  0  0
 10 46  1  0  0  0  0
 11 12  2  0  0  0  0
 11 13  1  0  0  0  0
 13 14  1  0  0  0  0
 13 47  1  0  0  0  0
 14 15  1  0  0  0  0
 14 48  1  0  0  0  0
 14 49  1  0  0  0  0
 15 16  1  0  0  0  0
 15 19  1  0  0  0  0
 15 50  1  0  0  0  0
 16 17  1  0  0  0  0
 16 51  1  0  0  0  0
 16 52  1  0  0  0  0
 17 18  1  0  0  0  0
 17 53  1  0  0  0  0
 17 54  1  0  0  0  0
 18 19  1  0  0  0  0
 18 55  1  0  0  0  0
 18 56  1  0  0  0  0
 20 21  1  0  0  0  0
 20 25  2  0  0  0  0
 21 22  2  0  0  0  0
 21 57  1  0  0  0  0
 22 23  1  0  0  0  0
 22 58  1  0  0  0  0
 23 24  2  0  0  0  0
 23 59  1  0  0  0  0
 24 25  1  0  0  0  0
 25 60  1  0  0  0  0
 26 27  2  0  0  0  0
 26 28  1  0  0  0  0
 28 29  2  0  0  0  0
 28 32  1  0  0  0  0
 29 30  1  0  0  0  0
 29 61  1  0  0  0  0
 30 31  1  0  0  0  0
 31 32  2  0  0  0  0
 31 62  1  0  0  0  0
 33 34  1  0  0  0  0
 33 63  1  0  0  0  0
 34 64  1  0  0  0  0
M  END
$$$$
