
 OpenBabel07202414173D

 36 39  0  0  1  0  0  0  0  0999 V2000
   10.8775   -1.1736    0.2804 Cl  0  0  0  0  0  0  0  0  0  0  0  0
    9.3529   -0.5295   -0.1828 C   0  0  0  0  0  0  0  0  0  0  0  0
    9.0441    0.7856   -0.3828 C   0  0  0  0  0  0  0  0  0  0  0  0
    7.6501    0.9829   -0.6973 C   0  0  0  0  0  0  0  0  0  0  0  0
    6.8710    2.1570   -0.8866 C   0  0  0  0  0  0  0  0  0  0  0  0
    7.4543    3.4474   -0.8755 N   0  0  0  0  0  0  0  0  0  0  0  0
    6.8537    4.5528   -0.2758 C   0  0  0  0  0  0  0  0  0  0  0  0
    5.8051    4.4805    0.3635 O   0  0  0  0  0  0  0  0  0  0  0  0
    7.5414    5.8989   -0.5404 C   0  0  3  0  0  0  0  0  0  0  0  0
    6.7706    7.0769    0.0760 C   0  0  0  0  0  0  0  0  0  0  0  0
    7.5592    8.3899    0.0613 C   0  0  0  0  0  0  0  0  0  0  0  0
    8.7137    8.3688   -0.7891 O   0  0  0  0  0  0  0  0  0  0  0  0
    9.5439    7.3316   -0.4483 C   0  0  0  0  0  0  0  0  0  0  0  0
   10.9140    7.5694   -0.4229 C   0  0  0  0  0  0  0  0  0  0  0  0
   11.7797    6.5265   -0.0983 C   0  0  0  0  0  0  0  0  0  0  0  0
   11.2564    5.2801    0.2411 C   0  0  0  0  0  0  0  0  0  0  0  0
   12.3176    3.9753    0.6078 Cl  0  0  0  0  0  0  0  0  0  0  0  0
    9.8771    5.0530    0.2325 C   0  0  0  0  0  0  0  0  0  0  0  0
    9.0071    6.0592   -0.1924 C   0  0  0  0  0  0  0  0  0  0  0  0
    5.5091    1.9718   -1.1250 C   0  0  0  0  0  0  0  0  0  0  0  0
    4.8934    0.7734   -1.2107 N   0  0  0  0  0  0  0  0  0  0  0  0
    5.6207   -0.3445   -1.0137 C   0  0  0  0  0  0  0  0  0  0  0  0
    6.9863   -0.2538   -0.7427 C   0  0  0  0  0  0  0  0  0  0  0  0
    8.0510   -1.5707   -0.4124 S   0  0  0  0  0  0  0  0  0  0  0  0
    9.7651    1.5836   -0.2651 H   0  0  0  0  0  0  0  0  0  0  0  0
    8.4297    3.5062   -1.1319 H   0  0  0  0  0  0  0  0  0  0  0  0
    7.4782    6.0133   -1.6335 H   0  0  0  0  0  0  0  0  0  0  0  0
    6.4763    6.8683    1.1147 H   0  0  0  0  0  0  0  0  0  0  0  0
    5.8252    7.2165   -0.4646 H   0  0  0  0  0  0  0  0  0  0  0  0
    7.8762    8.6642    1.0773 H   0  0  0  0  0  0  0  0  0  0  0  0
    6.9133    9.2079   -0.2819 H   0  0  0  0  0  0  0  0  0  0  0  0
   11.3035    8.5545   -0.6626 H   0  0  0  0  0  0  0  0  0  0  0  0
   12.8534    6.6918   -0.1085 H   0  0  0  0  0  0  0  0  0  0  0  0
    9.5149    4.0792    0.5428 H   0  0  0  0  0  0  0  0  0  0  0  0
    4.8538    2.8187   -1.3134 H   0  0  0  0  0  0  0  0  0  0  0  0
    5.0898   -1.2893   -1.0616 H   0  0  0  0  0  0  0  0  0  0  0  0
  1  2  1  0  0  0  0
  2  3  2  0  0  0  0
  2 24  1  0  0  0  0
  3  4  1  0  0  0  0
  3 25  1  0  0  0  0
  4  5  1  0  0  0  0
  4 23  2  0  0  0  0
  5  6  1  0  0  0  0
  5 20  2  0  0  0  0
  6  7  1  0  0  0  0
  6 26  1  0  0  0  0
  7  8  2  0  0  0  0
  7  9  1  0  0  0  0
  9 10  1  0  0  0  0
  9 19  1  0  0  0  0
  9 27  1  0  0  0  0
 10 11  1  0  0  0  0
 10 28  1  0  0  0  0
 10 29  1  0  0  0  0
 11 12  1  0  0  0  0
 11 30  1  0  0  0  0
 11 31  1  0  0  0  0
 12 13  1  0  0  0  0
 13 14  1  0  0  0  0
 13 19  2  0  0  0  0
 14 15  2  0  0  0  0
 14 32  1  0  0  0  0
 15 16  1  0  0  0  0
 15 33  1  0  0  0  0
 16 17  1  0  0  0  0
 16 18  2  0  0  0  0
 18 19  1  0  0  0  0
 18 34  1  0  0  0  0
 20 21  1  0  0  0  0
 20 35  1  0  0  0  0
 21 22  2  0  0  0  0
 22 23  1  0  0  0  0
 22 36  1  0  0  0  0
 23 24  1  0  0  0  0
M  END
$$$$
