
 OpenBabel07202414203D

 49 51  0  0  0  0  0  0  0  0999 V2000
   -2.7861   -0.4274    0.0068 C   0  0  0  0  0  0  0  0  0  0  0  0
   -1.6848   -1.1912   -0.3384 C   0  0  0  0  0  0  0  0  0  0  0  0
   -0.4565   -0.5624   -0.5528 C   0  0  0  0  0  0  0  0  0  0  0  0
   -0.2907    0.8297   -0.4226 C   0  0  0  0  0  0  0  0  0  0  0  0
   -1.4208    1.6053   -0.1249 C   0  0  0  0  0  0  0  0  0  0  0  0
   -2.6554    0.9596    0.1033 C   0  0  0  0  0  0  0  0  0  0  0  0
   -4.0884    1.8803    0.5602 S   0  0  0  0  0  0  0  0  0  0  0  0
   -3.9269    3.2486    0.1334 O   0  0  0  0  0  0  0  0  0  0  0  0
   -5.2785    1.1068    0.2449 O   0  0  0  0  0  0  0  0  0  0  0  0
   -3.9195    1.8474    2.2161 N   0  0  0  0  0  0  0  0  0  0  0  0
    1.1207    1.3829   -0.6559 C   0  0  0  0  0  0  0  0  0  0  0  0
    2.1845    0.5756    0.0207 N   0  0  0  0  0  0  0  0  0  0  0  0
    1.8881   -0.8693    0.0275 C   0  0  0  0  0  0  0  0  0  0  0  0
    0.7644   -1.3554   -0.8824 C   0  0  0  0  0  0  0  0  0  0  0  0
    3.5525    0.8880   -0.4546 C   0  0  0  0  0  0  0  0  0  0  0  0
    4.7112    0.0598    0.2036 C   0  0  0  0  0  0  0  0  0  0  0  0
    4.9341    0.2830    1.7050 C   0  0  0  0  0  0  0  0  0  0  0  0
    5.8316    1.4659    2.0731 C   0  0  0  0  0  0  0  0  0  0  0  0
    6.9771    1.6837    1.1864 N   0  0  0  0  0  0  0  0  0  0  0  0
    6.7415    1.5058   -0.2425 C   0  0  0  0  0  0  0  0  0  0  0  0
    6.0399    0.1983   -0.5412 C   0  0  0  0  0  0  0  0  0  0  0  0
    7.9546    2.5768    1.6552 C   0  0  0  0  0  0  0  0  0  0  0  0
    7.8935    3.0746    2.7833 O   0  0  0  0  0  0  0  0  0  0  0  0
    9.1399    2.8906    0.7565 C   0  0  0  0  0  0  0  0  0  0  0  0
    8.7260    4.2099   -0.3557 Cl  0  0  0  0  0  0  0  0  0  0  0  0
   -3.7363   -0.9186    0.2100 H   0  0  0  0  0  0  0  0  0  0  0  0
   -1.7747   -2.2718   -0.4106 H   0  0  0  0  0  0  0  0  0  0  0  0
   -1.3460    2.6863   -0.0464 H   0  0  0  0  0  0  0  0  0  0  0  0
   -3.3763    2.5850    2.6504 H   0  0  0  0  0  0  0  0  0  0  0  0
   -4.3689    1.1015    2.7255 H   0  0  0  0  0  0  0  0  0  0  0  0
    1.1727    2.4186   -0.2997 H   0  0  0  0  0  0  0  0  0  0  0  0
    1.2838    1.4037   -1.7423 H   0  0  0  0  0  0  0  0  0  0  0  0
    1.6356   -1.1155    1.0675 H   0  0  0  0  0  0  0  0  0  0  0  0
    2.7379   -1.4977   -0.2308 H   0  0  0  0  0  0  0  0  0  0  0  0
    0.5988   -2.4234   -0.7097 H   0  0  0  0  0  0  0  0  0  0  0  0
    1.0218   -1.2216   -1.9402 H   0  0  0  0  0  0  0  0  0  0  0  0
    3.7488    1.9561   -0.2995 H   0  0  0  0  0  0  0  0  0  0  0  0
    3.5896    0.7144   -1.5385 H   0  0  0  0  0  0  0  0  0  0  0  0
    4.4818   -1.0018    0.0952 H   0  0  0  0  0  0  0  0  0  0  0  0
    5.4214   -0.6238    2.0920 H   0  0  0  0  0  0  0  0  0  0  0  0
    3.9830    0.3550    2.2448 H   0  0  0  0  0  0  0  0  0  0  0  0
    6.2180    1.2938    3.0877 H   0  0  0  0  0  0  0  0  0  0  0  0
    5.2518    2.3938    2.1064 H   0  0  0  0  0  0  0  0  0  0  0  0
    7.6851    1.5073   -0.7914 H   0  0  0  0  0  0  0  0  0  0  0  0
    6.1548    2.3606   -0.5923 H   0  0  0  0  0  0  0  0  0  0  0  0
    6.6944   -0.6284   -0.2295 H   0  0  0  0  0  0  0  0  0  0  0  0
    5.8910    0.0831   -1.6205 H   0  0  0  0  0  0  0  0  0  0  0  0
    9.4685    2.0120    0.1957 H   0  0  0  0  0  0  0  0  0  0  0  0
    9.9811    3.2188    1.3742 H   0  0  0  0  0  0  0  0  0  0  0  0
  1  2  1  0  0  0  0
  1  6  2  0  0  0  0
  1 26  1  0  0  0  0
  2  3  2  0  0  0  0
  2 27  1  0  0  0  0
  3  4  1  0  0  0  0
  3 14  1  0  0  0  0
  4  5  2  0  0  0  0
  4 11  1  0  0  0  0
  5  6  1  0  0  0  0
  5 28  1  0  0  0  0
  6  7  1  0  0  0  0
  7  8  2  0  0  0  0
  7  9  2  0  0  0  0
  7 10  1  0  0  0  0
 10 29  1  0  0  0  0
 10 30  1  0  0  0  0
 11 12  1  0  0  0  0
 11 31  1  0  0  0  0
 11 32  1  0  0  0  0
 12 13  1  0  0  0  0
 12 15  1  0  0  0  0
 13 14  1  0  0  0  0
 13 33  1  0  0  0  0
 13 34  1  0  0  0  0
 14 35  1  0  0  0  0
 14 36  1  0  0  0  0
 15 16  1  0  0  0  0
 15 37  1  0  0  0  0
 15 38  1  0  0  0  0
 16 17  1  0  0  0  0
 16 21  1  0  0  0  0
 16 39  1  0  0  0  0
 17 18  1  0  0  0  0
 17 40  1  0  0  0  0
 17 41  1  0  0  0  0
 18 19  1  0  0  0  0
 18 42  1  0  0  0  0
 18 43  1  0  0  0  0
 19 20  1  0  0  0  0
 19 22  1  0  0  0  0
 20 21  1  0  0  0  0
 20 44  1  0  0  0  0
 20 45  1  0  0  0  0
 21 46  1  0  0  0  0
 21 47  1  0  0  0  0
 22 23  2  0  0  0  0
 22 24  1  0  0  0  0
 24 25  1  0  0  0  0
 24 48  1  0  0  0  0
 24 49  1  0  0  0  0
M  END
$$$$
