
 OpenBabel07202414113D

 53 55  0  0  1  0  0  0  0  0999 V2000
    3.7877   -7.6948   -3.2970 C   0  0  0  0  0  0  0  0  0  0  0  0
    4.3793   -6.7017   -3.9788 C   0  0  0  0  0  0  0  0  0  0  0  0
    5.7228   -6.2363   -3.5497 C   0  0  0  0  0  0  0  0  0  0  0  0
    6.2837   -6.7767   -2.6058 O   0  0  0  0  0  0  0  0  0  0  0  0
    6.2119   -5.1769   -4.2850 N   0  0  0  0  0  0  0  0  0  0  0  0
    7.4971   -4.6044   -4.1439 C   0  0  0  0  0  0  0  0  0  0  0  0
    8.5281   -5.2264   -3.4372 C   0  0  0  0  0  0  0  0  0  0  0  0
    9.7730   -4.6061   -3.2868 C   0  0  0  0  0  0  0  0  0  0  0  0
   10.0048   -3.3685   -3.8992 C   0  0  0  0  0  0  0  0  0  0  0  0
    8.9913   -2.7466   -4.6372 C   0  0  0  0  0  0  0  0  0  0  0  0
    7.7480   -3.3704   -4.7581 C   0  0  0  0  0  0  0  0  0  0  0  0
    6.7407   -2.7787   -5.4774 O   0  0  0  0  0  0  0  0  0  0  0  0
   10.8661   -5.2488   -2.5014 C   0  0  0  0  0  0  0  0  0  0  0  0
   12.0368   -5.0179   -2.7832 O   0  0  0  0  0  0  0  0  0  0  0  0
   10.4730   -6.0637   -1.4628 N   0  0  0  0  0  0  0  0  0  0  0  0
   11.3881   -6.9294   -0.7385 C   0  0  0  0  0  0  0  0  0  0  0  0
   10.8854   -7.2625    0.6931 C   0  0  2  0  0  0  0  0  0  0  0  0
   12.0247   -7.9088    1.5213 C   0  0  0  0  0  0  0  0  0  0  0  0
   12.4759   -9.3284    1.2366 C   0  0  0  0  0  0  0  0  0  0  0  0
   11.9597  -10.1352    0.2146 C   0  0  0  0  0  0  0  0  0  0  0  0
   12.4527  -11.4242   -0.0028 C   0  0  0  0  0  0  0  0  0  0  0  0
   13.4637  -11.9333    0.8050 C   0  0  0  0  0  0  0  0  0  0  0  0
   13.9744  -11.1572    1.8404 C   0  0  0  0  0  0  0  0  0  0  0  0
   13.4842   -9.8673    2.0546 C   0  0  0  0  0  0  0  0  0  0  0  0
    9.5565   -8.0152    0.7499 C   0  0  0  0  0  0  0  0  0  0  0  0
    9.1373   -8.6953    1.8960 C   0  0  0  0  0  0  0  0  0  0  0  0
    7.9102   -9.3571    1.8953 C   0  0  0  0  0  0  0  0  0  0  0  0
    7.1127   -9.3108    0.7636 C   0  0  0  0  0  0  0  0  0  0  0  0
    7.5828   -8.6049   -0.3257 C   0  0  0  0  0  0  0  0  0  0  0  0
    8.7716   -7.9595   -0.3542 N   0  0  0  0  0  0  0  0  0  0  0  0
    2.8200   -8.0831   -3.5868 H   0  0  0  0  0  0  0  0  0  0  0  0
    4.2640   -8.1467   -2.4301 H   0  0  0  0  0  0  0  0  0  0  0  0
    3.9164   -6.2610   -4.8505 H   0  0  0  0  0  0  0  0  0  0  0  0
    5.5962   -4.6733   -4.9159 H   0  0  0  0  0  0  0  0  0  0  0  0
    8.3864   -6.2205   -3.0318 H   0  0  0  0  0  0  0  0  0  0  0  0
   10.9773   -2.8891   -3.7980 H   0  0  0  0  0  0  0  0  0  0  0  0
    9.1913   -1.7835   -5.0952 H   0  0  0  0  0  0  0  0  0  0  0  0
    7.0845   -1.9508   -5.8560 H   0  0  0  0  0  0  0  0  0  0  0  0
    9.4947   -6.3248   -1.3531 H   0  0  0  0  0  0  0  0  0  0  0  0
   12.3651   -6.4330   -0.6944 H   0  0  0  0  0  0  0  0  0  0  0  0
   11.5088   -7.8266   -1.3525 H   0  0  0  0  0  0  0  0  0  0  0  0
   10.6739   -6.2939    1.1711 H   0  0  0  0  0  0  0  0  0  0  0  0
   12.9107   -7.2648    1.4313 H   0  0  0  0  0  0  0  0  0  0  0  0
   11.7450   -7.8636    2.5830 H   0  0  0  0  0  0  0  0  0  0  0  0
   11.1620   -9.7963   -0.4398 H   0  0  0  0  0  0  0  0  0  0  0  0
   12.0427  -12.0264   -0.8099 H   0  0  0  0  0  0  0  0  0  0  0  0
   13.8499  -12.9323    0.6271 H   0  0  0  0  0  0  0  0  0  0  0  0
   14.7589  -11.5528    2.4795 H   0  0  0  0  0  0  0  0  0  0  0  0
   13.8995   -9.2771    2.8695 H   0  0  0  0  0  0  0  0  0  0  0  0
    9.7487   -8.7392    2.7901 H   0  0  0  0  0  0  0  0  0  0  0  0
    7.5842   -9.9062    2.7738 H   0  0  0  0  0  0  0  0  0  0  0  0
    6.1512   -9.8088    0.7277 H   0  0  0  0  0  0  0  0  0  0  0  0
    6.9982   -8.5428   -1.2373 H   0  0  0  0  0  0  0  0  0  0  0  0
  1  2  2  0  0  0  0
  1 31  1  0  0  0  0
  1 32  1  0  0  0  0
  2  3  1  0  0  0  0
  2 33  1  0  0  0  0
  3  4  2  0  0  0  0
  3  5  1  0  0  0  0
  5  6  1  0  0  0  0
  5 34  1  0  0  0  0
  6  7  1  0  0  0  0
  6 11  2  0  0  0  0
  7  8  2  0  0  0  0
  7 35  1  0  0  0  0
  8  9  1  0  0  0  0
  8 13  1  0  0  0  0
  9 10  2  0  0  0  0
  9 36  1  0  0  0  0
 10 11  1  0  0  0  0
 10 37  1  0  0  0  0
 11 12  1  0  0  0  0
 12 38  1  0  0  0  0
 13 14  2  0  0  0  0
 13 15  1  0  0  0  0
 15 16  1  0  0  0  0
 15 39  1  0  0  0  0
 16 40  1  0  0  0  0
 16 41  1  0  0  0  0
 17 25  1  0  0  0  0
 17 18  1  0  0  0  0
 17 16  1  0  0  0  0
 17 42  1  1  0  0  0
 18 19  1  0  0  0  0
 18 43  1  0  0  0  0
 18 44  1  0  0  0  0
 19 20  1  0  0  0  0
 19 24  2  0  0  0  0
 20 21  2  0  0  0  0
 20 45  1  0  0  0  0
 21 22  1  0  0  0  0
 21 46  1  0  0  0  0
 22 23  2  0  0  0  0
 22 47  1  0  0  0  0
 23 24  1  0  0  0  0
 23 48  1  0  0  0  0
 24 49  1  0  0  0  0
 25 26  1  0  0  0  0
 25 30  2  0  0  0  0
 26 27  2  0  0  0  0
 26 50  1  0  0  0  0
 27 28  1  0  0  0  0
 27 51  1  0  0  0  0
 28 29  2  0  0  0  0
 28 52  1  0  0  0  0
 29 30  1  0  0  0  0
 29 53  1  0  0  0  0
M  END
$$$$
