
 OpenBabel07202414143D

 49 52  0  0  1  0  0  0  0  0999 V2000
    1.2535   -2.5768    2.1735 C   0  0  0  0  0  0  0  0  0  0  0  0
    2.4985   -2.2899    1.5284 O   0  0  0  0  0  0  0  0  0  0  0  0
    2.7535   -0.8946    1.2079 C   0  0  3  0  0  0  0  0  0  0  0  0
    2.9324   -0.0822    2.5470 C   0  0  0  0  0  0  0  0  0  0  0  0
    2.6937    1.1047    2.6611 O   0  0  0  0  0  0  0  0  0  0  0  0
    3.4227   -0.9213    3.5563 N   0  0  0  0  0  0  0  0  0  0  0  0
    3.7806   -0.6261    4.8890 C   0  0  0  0  0  0  0  0  0  0  0  0
    3.7957    0.6693    5.3998 C   0  0  0  0  0  0  0  0  0  0  0  0
    4.2713    0.9958    6.6262 N   0  0  0  0  0  0  0  0  0  0  0  0
    4.7096   -0.0175    7.4010 C   0  0  0  0  0  0  0  0  0  0  0  0
    4.6536   -1.3648    7.0473 C   0  0  0  0  0  0  0  0  0  0  0  0
    5.0383   -2.3714    7.9575 C   0  0  0  0  0  0  0  0  0  0  0  0
    5.0007   -3.7149    7.5945 C   0  0  0  0  0  0  0  0  0  0  0  0
    4.6047   -4.0453    6.3047 C   0  0  0  0  0  0  0  0  0  0  0  0
    4.7058   -5.7324    5.7576 S   0  0  0  0  0  0  0  0  0  0  0  0
    6.3570   -5.7943    5.0938 C   0  0  0  0  0  0  0  0  0  0  0  0
    4.6508   -6.5828    6.9304 O   0  0  0  0  0  0  0  0  0  0  0  0
    3.7676   -5.8938    4.6663 O   0  0  0  0  0  0  0  0  0  0  0  0
    4.1753   -3.0623    5.4035 C   0  0  0  0  0  0  0  0  0  0  0  0
    4.1901   -1.6890    5.7509 C   0  0  0  0  0  0  0  0  0  0  0  0
    1.6407   -0.2993    0.3337 C   0  0  0  0  0  0  0  0  0  0  0  0
    1.6039   -1.0849   -0.9705 C   0  0  0  0  0  0  0  0  0  0  0  0
    2.7719   -0.8396   -1.7494 O   0  0  0  0  0  0  0  0  0  0  0  0
    3.9483   -0.8700   -1.0487 C   0  0  0  0  0  0  0  0  0  0  0  0
    5.0942   -0.8361   -1.8517 C   0  0  0  0  0  0  0  0  0  0  0  0
    6.3590   -0.8259   -1.2715 C   0  0  0  0  0  0  0  0  0  0  0  0
    6.4680   -0.8512    0.1128 C   0  0  0  0  0  0  0  0  0  0  0  0
    8.0276   -0.8324    0.8435 Cl  0  0  0  0  0  0  0  0  0  0  0  0
    5.3264   -0.8814    0.9217 C   0  0  0  0  0  0  0  0  0  0  0  0
    4.0354   -0.8823    0.3561 C   0  0  0  0  0  0  0  0  0  0  0  0
    1.1893   -3.6593    2.3075 H   0  0  0  0  0  0  0  0  0  0  0  0
    0.3955   -2.2673    1.5746 H   0  0  0  0  0  0  0  0  0  0  0  0
    1.1975   -2.1145    3.1628 H   0  0  0  0  0  0  0  0  0  0  0  0
    3.5194   -1.8787    3.2464 H   0  0  0  0  0  0  0  0  0  0  0  0
    3.4344    1.5223    4.8340 H   0  0  0  0  0  0  0  0  0  0  0  0
    5.1268    0.2975    8.3547 H   0  0  0  0  0  0  0  0  0  0  0  0
    5.3669   -2.1109    8.9632 H   0  0  0  0  0  0  0  0  0  0  0  0
    5.2906   -4.4821    8.3098 H   0  0  0  0  0  0  0  0  0  0  0  0
    7.0650   -5.5419    5.8861 H   0  0  0  0  0  0  0  0  0  0  0  0
    6.4315   -5.0806    4.2702 H   0  0  0  0  0  0  0  0  0  0  0  0
    6.5462   -6.8065    4.7305 H   0  0  0  0  0  0  0  0  0  0  0  0
    3.8278   -3.3934    4.4293 H   0  0  0  0  0  0  0  0  0  0  0  0
    1.8436    0.7577    0.1173 H   0  0  0  0  0  0  0  0  0  0  0  0
    0.6615   -0.3375    0.8211 H   0  0  0  0  0  0  0  0  0  0  0  0
    0.7435   -0.7755   -1.5730 H   0  0  0  0  0  0  0  0  0  0  0  0
    1.5058   -2.1666   -0.8153 H   0  0  0  0  0  0  0  0  0  0  0  0
    4.9962   -0.8129   -2.9343 H   0  0  0  0  0  0  0  0  0  0  0  0
    7.2438   -0.7965   -1.9010 H   0  0  0  0  0  0  0  0  0  0  0  0
    5.4708   -0.8871    1.9975 H   0  0  0  0  0  0  0  0  0  0  0  0
  1  2  1  0  0  0  0
  1 31  1  0  0  0  0
  1 32  1  0  0  0  0
  1 33  1  0  0  0  0
  2  3  1  0  0  0  0
  3  4  1  0  0  0  0
  3 21  1  0  0  0  0
  3 30  1  0  0  0  0
  4  5  2  0  0  0  0
  4  6  1  0  0  0  0
  6  7  1  0  0  0  0
  6 34  1  0  0  0  0
  7  8  1  0  0  0  0
  7 20  2  0  0  0  0
  8  9  2  0  0  0  0
  8 35  1  0  0  0  0
  9 10  1  0  0  0  0
 10 11  2  0  0  0  0
 10 36  1  0  0  0  0
 11 12  1  0  0  0  0
 11 20  1  0  0  0  0
 12 13  2  0  0  0  0
 12 37  1  0  0  0  0
 13 14  1  0  0  0  0
 13 38  1  0  0  0  0
 14 15  1  0  0  0  0
 14 19  2  0  0  0  0
 15 16  1  0  0  0  0
 15 17  2  0  0  0  0
 15 18  2  0  0  0  0
 16 39  1  0  0  0  0
 16 40  1  0  0  0  0
 16 41  1  0  0  0  0
 19 20  1  0  0  0  0
 19 42  1  0  0  0  0
 21 22  1  0  0  0  0
 21 43  1  0  0  0  0
 21 44  1  0  0  0  0
 22 23  1  0  0  0  0
 22 45  1  0  0  0  0
 22 46  1  0  0  0  0
 23 24  1  0  0  0  0
 24 25  1  0  0  0  0
 24 30  2  0  0  0  0
 25 26  2  0  0  0  0
 25 47  1  0  0  0  0
 26 27  1  0  0  0  0
 26 48  1  0  0  0  0
 27 28  1  0  0  0  0
 27 29  2  0  0  0  0
 29 30  1  0  0  0  0
 29 49  1  0  0  0  0
M  END
$$$$
