
 OpenBabel07202414123D

 43 46  0  0  1  0  0  0  0  0999 V2000
    0.9490    0.0888   -0.1091 C   0  0  0  0  0  0  0  0  0  0  0  0
    2.4915    0.1271   -0.2305 C   0  0  3  0  0  0  0  0  0  0  0  0
    2.8618    0.7640   -1.6041 C   0  0  0  0  0  0  0  0  0  0  0  0
    2.0845    0.6945   -2.5538 O   0  0  0  0  0  0  0  0  0  0  0  0
    4.1264    1.3215   -1.6805 N   0  0  0  0  0  0  0  0  0  0  0  0
    4.7111    2.0477   -2.7563 C   0  0  0  0  0  0  0  0  0  0  0  0
    4.0985    2.1515   -4.0100 C   0  0  0  0  0  0  0  0  0  0  0  0
    4.6019    2.8439   -5.0557 N   0  0  0  0  0  0  0  0  0  0  0  0
    5.7610    3.4933   -4.8483 C   0  0  0  0  0  0  0  0  0  0  0  0
    6.4641    3.4953   -3.6465 C   0  0  0  0  0  0  0  0  0  0  0  0
    7.6458    4.2498   -3.5434 C   0  0  0  0  0  0  0  0  0  0  0  0
    8.3675    4.2962   -2.3575 C   0  0  0  0  0  0  0  0  0  0  0  0
    7.9295    3.5561   -1.2719 C   0  0  0  0  0  0  0  0  0  0  0  0
    6.7657    2.7797   -1.3661 C   0  0  0  0  0  0  0  0  0  0  0  0
    6.4079    1.8555    0.0594 Cl  0  0  0  0  0  0  0  0  0  0  0  0
    5.9602    2.7387   -2.5533 C   0  0  0  0  0  0  0  0  0  0  0  0
    3.0306   -1.3204   -0.3003 C   0  0  0  0  0  0  0  0  0  0  0  0
    2.7222   -2.0422    0.9557 N   0  0  0  0  0  0  0  0  0  0  0  0
    3.6310   -1.5145    2.2737 S   0  0  0  0  0  0  0  0  0  0  0  0
    2.9456   -1.9485    3.4675 O   0  0  0  0  0  0  0  0  0  0  0  0
    5.0056   -1.8638    1.9932 O   0  0  0  0  0  0  0  0  0  0  0  0
    3.5111    0.2528    2.1530 C   0  0  0  0  0  0  0  0  0  0  0  0
    3.9381    0.9799    3.2747 C   0  0  0  0  0  0  0  0  0  0  0  0
    3.8825    2.3714    3.2646 C   0  0  0  0  0  0  0  0  0  0  0  0
    3.3840    3.0289    2.1451 C   0  0  0  0  0  0  0  0  0  0  0  0
    3.3267    4.7477    2.1214 Cl  0  0  0  0  0  0  0  0  0  0  0  0
    2.9358    2.3070    1.0341 C   0  0  0  0  0  0  0  0  0  0  0  0
    3.0112    0.8974    0.9999 C   0  0  0  0  0  0  0  0  0  0  0  0
    0.4962   -0.5125   -0.9056 H   0  0  0  0  0  0  0  0  0  0  0  0
    0.5208    1.0959   -0.1810 H   0  0  0  0  0  0  0  0  0  0  0  0
    0.6249   -0.3333    0.8496 H   0  0  0  0  0  0  0  0  0  0  0  0
    4.6776    1.3270   -0.8280 H   0  0  0  0  0  0  0  0  0  0  0  0
    3.1545    1.6726   -4.2442 H   0  0  0  0  0  0  0  0  0  0  0  0
    6.1219    4.0418   -5.7167 H   0  0  0  0  0  0  0  0  0  0  0  0
    8.0123    4.8263   -4.3939 H   0  0  0  0  0  0  0  0  0  0  0  0
    9.2693    4.8983   -2.2822 H   0  0  0  0  0  0  0  0  0  0  0  0
    8.5009    3.5806   -0.3464 H   0  0  0  0  0  0  0  0  0  0  0  0
    4.1106   -1.3539   -0.4918 H   0  0  0  0  0  0  0  0  0  0  0  0
    2.5623   -1.8702   -1.1268 H   0  0  0  0  0  0  0  0  0  0  0  0
    2.8338   -3.0548    0.8680 H   0  0  0  0  0  0  0  0  0  0  0  0
    4.3152    0.4632    4.1562 H   0  0  0  0  0  0  0  0  0  0  0  0
    4.2225    2.9323    4.1316 H   0  0  0  0  0  0  0  0  0  0  0  0
    2.5319    2.8599    0.1865 H   0  0  0  0  0  0  0  0  0  0  0  0
  1  2  1  0  0  0  0
  1 29  1  0  0  0  0
  1 30  1  0  0  0  0
  1 31  1  0  0  0  0
  2  3  1  0  0  0  0
  2 17  1  0  0  0  0
  2 28  1  0  0  0  0
  3  4  2  0  0  0  0
  3  5  1  0  0  0  0
  5  6  1  0  0  0  0
  5 32  1  0  0  0  0
  6  7  1  0  0  0  0
  6 16  2  0  0  0  0
  7  8  2  0  0  0  0
  7 33  1  0  0  0  0
  8  9  1  0  0  0  0
  9 10  2  0  0  0  0
  9 34  1  0  0  0  0
 10 11  1  0  0  0  0
 10 16  1  0  0  0  0
 11 12  2  0  0  0  0
 11 35  1  0  0  0  0
 12 13  1  0  0  0  0
 12 36  1  0  0  0  0
 13 14  2  0  0  0  0
 13 37  1  0  0  0  0
 14 15  1  0  0  0  0
 14 16  1  0  0  0  0
 17 18  1  0  0  0  0
 17 38  1  0  0  0  0
 17 39  1  0  0  0  0
 18 19  1  0  0  0  0
 18 40  1  0  0  0  0
 19 20  2  0  0  0  0
 19 21  2  0  0  0  0
 19 22  1  0  0  0  0
 22 23  1  0  0  0  0
 22 28  2  0  0  0  0
 23 24  2  0  0  0  0
 23 41  1  0  0  0  0
 24 25  1  0  0  0  0
 24 42  1  0  0  0  0
 25 26  1  0  0  0  0
 25 27  2  0  0  0  0
 27 28  1  0  0  0  0
 27 43  1  0  0  0  0
M  END
$$$$
