
 OpenBabel07202414123D

 57 60  0  0  0  0  0  0  0  0999 V2000
    1.2163   -0.2084   -0.0094 C   0  0  0  0  0  0  0  0  0  0  0  0
   -0.2825   -0.4061   -0.3470 C   0  0  0  0  0  0  0  0  0  0  0  0
   -1.0492    0.7137    0.3945 C   0  0  0  0  0  0  0  0  0  0  0  0
   -0.6960   -1.7208    0.2270 C   0  0  0  0  0  0  0  0  0  0  0  0
   -1.0157   -2.7312    0.7146 N   0  0  0  0  0  0  0  0  0  0  0  0
   -0.5905   -0.3530   -1.8644 C   0  0  0  0  0  0  0  0  0  0  0  0
    0.4121   -0.2281   -2.8449 C   0  0  0  0  0  0  0  0  0  0  0  0
    0.1105   -0.2536   -4.2188 C   0  0  0  0  0  0  0  0  0  0  0  0
   -1.2098   -0.3925   -4.6546 C   0  0  0  0  0  0  0  0  0  0  0  0
   -1.5071   -0.5031   -6.0486 N   0  0  0  0  0  0  0  0  0  0  0  0
   -1.7371    0.7274   -6.8309 C   0  0  0  0  0  0  0  0  0  0  0  0
   -1.6956    2.0630   -6.1134 C   0  0  0  0  0  0  0  0  0  0  0  0
   -0.5170    2.8282   -6.0850 C   0  0  0  0  0  0  0  0  0  0  0  0
   -0.4701    4.0295   -5.3748 C   0  0  0  0  0  0  0  0  0  0  0  0
   -1.6020    4.4841   -4.6896 C   0  0  0  0  0  0  0  0  0  0  0  0
   -2.7700    3.7480   -4.7431 C   0  0  0  0  0  0  0  0  0  0  0  0
   -4.1763    4.3205   -3.9098 Cl  0  0  0  0  0  0  0  0  0  0  0  0
   -2.8331    2.5544   -5.4471 C   0  0  0  0  0  0  0  0  0  0  0  0
   -1.4951   -1.7990   -6.6223 C   0  0  0  0  0  0  0  0  0  0  0  0
   -1.2855   -2.8097   -5.9506 O   0  0  0  0  0  0  0  0  0  0  0  0
   -1.6424   -1.8953   -8.1515 C   0  0  0  0  0  0  0  0  0  0  0  0
   -2.2993   -3.1091   -8.8050 C   0  0  0  0  0  0  0  0  0  0  0  0
   -2.9547   -4.1033   -8.0843 C   0  0  0  0  0  0  0  0  0  0  0  0
   -3.7661   -5.0376   -8.6357 N   0  0  0  0  0  0  0  0  0  0  0  0
   -3.8368   -5.0744   -9.9818 C   0  0  0  0  0  0  0  0  0  0  0  0
   -3.0617   -4.2846  -10.8214 C   0  0  0  0  0  0  0  0  0  0  0  0
   -2.9938   -4.5324  -12.2070 C   0  0  0  0  0  0  0  0  0  0  0  0
   -2.2120   -3.7310  -13.0322 C   0  0  0  0  0  0  0  0  0  0  0  0
   -1.5710   -2.6238  -12.4957 C   0  0  0  0  0  0  0  0  0  0  0  0
   -1.6412   -2.3683  -11.1194 C   0  0  0  0  0  0  0  0  0  0  0  0
   -2.3260   -3.2302  -10.2316 C   0  0  0  0  0  0  0  0  0  0  0  0
   -2.2228   -0.4886   -3.7031 C   0  0  0  0  0  0  0  0  0  0  0  0
   -1.9175   -0.4706   -2.3297 C   0  0  0  0  0  0  0  0  0  0  0  0
    1.3839   -0.2045    1.0768 H   0  0  0  0  0  0  0  0  0  0  0  0
    1.5957    0.7448   -0.3968 H   0  0  0  0  0  0  0  0  0  0  0  0
    1.8366   -1.0160   -0.4172 H   0  0  0  0  0  0  0  0  0  0  0  0
   -0.7906    0.7343    1.4603 H   0  0  0  0  0  0  0  0  0  0  0  0
   -2.1357    0.5777    0.3448 H   0  0  0  0  0  0  0  0  0  0  0  0
   -0.8151    1.6998   -0.0235 H   0  0  0  0  0  0  0  0  0  0  0  0
    1.4608   -0.1331   -2.5702 H   0  0  0  0  0  0  0  0  0  0  0  0
    0.9220   -0.1869   -4.9373 H   0  0  0  0  0  0  0  0  0  0  0  0
   -2.7242    0.6309   -7.3010 H   0  0  0  0  0  0  0  0  0  0  0  0
   -1.0111    0.7406   -7.6533 H   0  0  0  0  0  0  0  0  0  0  0  0
    0.3708    2.4947   -6.6123 H   0  0  0  0  0  0  0  0  0  0  0  0
    0.4520    4.6104   -5.3444 H   0  0  0  0  0  0  0  0  0  0  0  0
   -1.5439    5.4078   -4.1160 H   0  0  0  0  0  0  0  0  0  0  0  0
   -3.7724    2.0025   -5.4983 H   0  0  0  0  0  0  0  0  0  0  0  0
   -0.6219   -1.7981   -8.5406 H   0  0  0  0  0  0  0  0  0  0  0  0
   -2.2344   -1.0491   -8.5043 H   0  0  0  0  0  0  0  0  0  0  0  0
   -2.8649   -4.2022   -7.0064 H   0  0  0  0  0  0  0  0  0  0  0  0
   -4.5554   -5.7873  -10.3801 H   0  0  0  0  0  0  0  0  0  0  0  0
   -3.5065   -5.3910  -12.6412 H   0  0  0  0  0  0  0  0  0  0  0  0
   -2.1050   -3.9677  -14.0879 H   0  0  0  0  0  0  0  0  0  0  0  0
   -0.9931   -1.9654  -13.1385 H   0  0  0  0  0  0  0  0  0  0  0  0
   -1.1133   -1.4944  -10.7485 H   0  0  0  0  0  0  0  0  0  0  0  0
   -3.2567   -0.6035   -4.0154 H   0  0  0  0  0  0  0  0  0  0  0  0
   -2.7420   -0.5837   -1.6265 H   0  0  0  0  0  0  0  0  0  0  0  0
  1  2  1  0  0  0  0
  1 34  1  0  0  0  0
  1 35  1  0  0  0  0
  1 36  1  0  0  0  0
  2  3  1  0  0  0  0
  2  4  1  0  0  0  0
  2  6  1  0  0  0  0
  3 37  1  0  0  0  0
  3 38  1  0  0  0  0
  3 39  1  0  0  0  0
  4  5  3  0  0  0  0
  6  7  1  0  0  0  0
  6 33  2  0  0  0  0
  7  8  2  0  0  0  0
  7 40  1  0  0  0  0
  8  9  1  0  0  0  0
  8 41  1  0  0  0  0
  9 10  1  0  0  0  0
  9 32  2  0  0  0  0
 10 11  1  0  0  0  0
 10 19  1  0  0  0  0
 11 12  1  0  0  0  0
 11 42  1  0  0  0  0
 11 43  1  0  0  0  0
 12 13  1  0  0  0  0
 12 18  2  0  0  0  0
 13 14  2  0  0  0  0
 13 44  1  0  0  0  0
 14 15  1  0  0  0  0
 14 45  1  0  0  0  0
 15 16  2  0  0  0  0
 15 46  1  0  0  0  0
 16 17  1  0  0  0  0
 16 18  1  0  0  0  0
 18 47  1  0  0  0  0
 19 20  2  0  0  0  0
 19 21  1  0  0  0  0
 21 22  1  0  0  0  0
 21 48  1  0  0  0  0
 21 49  1  0  0  0  0
 22 23  1  0  0  0  0
 22 31  2  0  0  0  0
 23 24  2  0  0  0  0
 23 50  1  0  0  0  0
 24 25  1  0  0  0  0
 25 26  2  0  0  0  0
 25 51  1  0  0  0  0
 26 27  1  0  0  0  0
 26 31  1  0  0  0  0
 27 28  2  0  0  0  0
 27 52  1  0  0  0  0
 28 29  1  0  0  0  0
 28 53  1  0  0  0  0
 29 30  2  0  0  0  0
 29 54  1  0  0  0  0
 30 31  1  0  0  0  0
 30 55  1  0  0  0  0
 32 33  1  0  0  0  0
 32 56  1  0  0  0  0
 33 57  1  0  0  0  0
M  END
$$$$
