
 OpenBabel07202414153D

 48 51  0  0  0  0  0  0  0  0999 V2000
    4.3281   -4.2840    3.4199 C   0  0  0  0  0  0  0  0  0  0  0  0
    3.9451   -3.9256    2.0895 O   0  0  0  0  0  0  0  0  0  0  0  0
    4.4241   -2.7425    1.5724 C   0  0  0  0  0  0  0  0  0  0  0  0
    4.1080   -2.3157    0.2986 C   0  0  0  0  0  0  0  0  0  0  0  0
    4.5205   -1.0688   -0.1398 C   0  0  0  0  0  0  0  0  0  0  0  0
    5.2385   -0.2798    0.7227 C   0  0  0  0  0  0  0  0  0  0  0  0
    5.5145   -0.7236    2.0013 C   0  0  0  0  0  0  0  0  0  0  0  0
    6.2306    0.0950    2.8955 O   0  0  0  0  0  0  0  0  0  0  0  0
    7.0246   -0.5129    3.8627 C   0  0  0  0  0  0  0  0  0  0  0  0
    7.6205   -1.7423    3.6381 C   0  0  0  0  0  0  0  0  0  0  0  0
    8.3263   -2.3923    4.6379 C   0  0  0  0  0  0  0  0  0  0  0  0
    8.9821   -3.9496    4.3233 Cl  0  0  0  0  0  0  0  0  0  0  0  0
    8.5207   -1.7697    5.8737 C   0  0  0  0  0  0  0  0  0  0  0  0
    7.9667   -0.5192    6.1354 C   0  0  0  0  0  0  0  0  0  0  0  0
    8.1315    0.1479    7.4068 N   0  0  0  0  0  0  0  0  0  0  0  0
    8.4865   -0.5671    8.5670 C   0  0  0  0  0  0  0  0  0  0  0  0
    8.6792   -1.7837    8.5915 O   0  0  0  0  0  0  0  0  0  0  0  0
    8.6615    0.1706    9.8810 C   0  0  0  0  0  0  0  0  0  0  0  0
    7.3697    0.2300   10.6347 C   0  0  0  0  0  0  0  0  0  0  0  0
    6.4827    1.2940   10.4504 C   0  0  0  0  0  0  0  0  0  0  0  0
    5.2564    1.5250   11.0123 N   0  0  0  0  0  0  0  0  0  0  0  0
    4.9298    0.4267   11.7092 C   0  0  0  0  0  0  0  0  0  0  0  0
    5.7537   -0.6585   12.1049 C   0  0  0  0  0  0  0  0  0  0  0  0
    5.1613   -1.4481   13.0200 C   0  0  0  0  0  0  0  0  0  0  0  0
    5.8717   -2.5499   13.2354 C   0  0  0  0  0  0  0  0  0  0  0  0
    6.5283   -3.6142   13.4673 C   0  0  0  0  0  0  0  0  0  0  0  0
    7.3285   -2.3491   12.2388 C   0  0  0  0  0  0  0  0  0  0  0  0
    6.9865   -0.8889   11.5556 C   0  0  0  0  0  0  0  0  0  0  0  0
    7.2256    0.0748    5.1033 C   0  0  0  0  0  0  0  0  0  0  0  0
    5.1183   -1.9539    2.4338 N   0  0  0  0  0  0  0  0  0  0  0  0
    3.8690   -5.2514    3.6858 H   0  0  0  0  0  0  0  0  0  0  0  0
    3.9747   -3.5420    4.1352 H   0  0  0  0  0  0  0  0  0  0  0  0
    5.4062   -4.3978    3.5108 H   0  0  0  0  0  0  0  0  0  0  0  0
    3.5281   -2.9380   -0.3568 H   0  0  0  0  0  0  0  0  0  0  0  0
    4.2936   -0.7153   -1.1364 H   0  0  0  0  0  0  0  0  0  0  0  0
    5.5807    0.6881    0.4064 H   0  0  0  0  0  0  0  0  0  0  0  0
    7.4791   -2.2201    2.6806 H   0  0  0  0  0  0  0  0  0  0  0  0
    9.1200   -2.2733    6.6153 H   0  0  0  0  0  0  0  0  0  0  0  0
    7.9736    1.1603    7.4383 H   0  0  0  0  0  0  0  0  0  0  0  0
    9.0235    1.1874    9.7086 H   0  0  0  0  0  0  0  0  0  0  0  0
    9.3764   -0.3403   10.5284 H   0  0  0  0  0  0  0  0  0  0  0  0
    6.7491    2.0969    9.7567 H   0  0  0  0  0  0  0  0  0  0  0  0
    3.9451    0.5499   12.4151 H   0  0  0  0  0  0  0  0  0  0  0  0
    4.2813   -1.5240   13.5149 H   0  0  0  0  0  0  0  0  0  0  0  0
    6.9947   -3.5713   13.1553 H   0  0  0  0  0  0  0  0  0  0  0  0
    5.5304   -4.1323   14.3787 H   0  0  0  0  0  0  0  0  0  0  0  0
    8.3955   -2.2764   11.5753 H   0  0  0  0  0  0  0  0  0  0  0  0
    6.7663    1.0272    5.2633 H   0  0  0  0  0  0  0  0  0  0  0  0
  1  2  1  0  0  0  0
  1 31  1  0  0  0  0
  1 32  1  0  0  0  0
  1 33  1  0  0  0  0
  2  3  1  0  0  0  0
  3  4  1  0  0  0  0
  3 30  2  0  0  0  0
  4  5  2  0  0  0  0
  4 34  1  0  0  0  0
  5  6  1  0  0  0  0
  5 35  1  0  0  0  0
  6  7  2  0  0  0  0
  6 36  1  0  0  0  0
  7  8  1  0  0  0  0
  7 30  1  0  0  0  0
  8  9  1  0  0  0  0
  9 10  1  0  0  0  0
  9 29  2  0  0  0  0
 10 11  2  0  0  0  0
 10 37  1  0  0  0  0
 11 12  1  0  0  0  0
 11 13  1  0  0  0  0
 13 14  2  0  0  0  0
 13 38  1  0  0  0  0
 14 15  1  0  0  0  0
 14 29  1  0  0  0  0
 15 16  1  0  0  0  0
 15 39  1  0  0  0  0
 16 17  2  0  0  0  0
 16 18  1  0  0  0  0
 18 19  1  0  0  0  0
 18 40  1  0  0  0  0
 18 41  1  0  0  0  0
 19 20  1  0  0  0  0
 19 28  2  0  0  0  0
 20 21  2  0  0  0  0
 20 42  1  0  0  0  0
 21 22  1  0  0  0  0
 22 23  2  0  0  0  0
 22 43  1  0  0  0  0
 23 24  1  0  0  0  0
 23 28  1  0  0  0  0
 24 25  2  0  0  0  0
 24 44  1  0  0  0  0
 25 26  1  0  0  0  0
 25 45  1  0  0  0  0
 26 27  2  0  0  0  0
 26 46  1  0  0  0  0
 27 28  1  0  0  0  0
 27 47  1  0  0  0  0
 29 48  1  0  0  0  0
M  END
$$$$
