
 OpenBabel07202414193D

 57 61  0  0  1  0  0  0  0  0999 V2000
    1.0911    0.6623    0.0233 O   0  0  0  0  0  0  0  0  0  0  0  0
    2.2092    0.1760    0.1830 C   0  0  0  0  0  0  0  0  0  0  0  0
    2.8801    0.2767    1.3896 N   0  0  0  0  0  0  0  0  0  0  0  0
    2.2057    0.8382    2.5397 C   0  0  0  0  0  0  0  0  0  0  0  0
    3.2283    1.2120    3.5533 C   0  0  0  0  0  0  0  0  0  0  0  0
    3.9773    2.3700    3.6122 C   0  0  0  0  0  0  0  0  0  0  0  0
    4.8277    2.4050    4.7508 C   0  0  0  0  0  0  0  0  0  0  0  0
    4.7078    1.2691    5.5201 C   0  0  0  0  0  0  0  0  0  0  0  0
    3.5842    0.1631    4.8583 S   0  0  0  0  0  0  0  0  0  0  0  0
    2.9915   -0.5311   -0.9338 C   0  0  2  0  0  0  0  0  0  0  0  0
    2.8057    0.3912   -2.1597 C   0  0  0  0  0  0  0  0  0  0  0  0
    3.4234   -0.1153   -3.3926 N   0  0  0  0  0  0  0  0  0  0  0  0
    4.1663    0.6146   -4.3321 C   0  0  0  0  0  0  0  0  0  0  0  0
    4.5932    0.0828   -5.3557 O   0  0  0  0  0  0  0  0  0  0  0  0
    4.4891    2.0572   -4.1010 C   0  0  0  0  0  0  0  0  0  0  0  0
    3.4829    2.9156   -3.6681 C   0  0  0  0  0  0  0  0  0  0  0  0
    3.6720    4.1957   -3.2790 N   0  0  0  0  0  0  0  0  0  0  0  0
    4.9216    4.6809   -3.4180 C   0  0  0  0  0  0  0  0  0  0  0  0
    5.9846    3.9737   -3.9770 C   0  0  0  0  0  0  0  0  0  0  0  0
    7.2257    4.6019   -4.1846 C   0  0  0  0  0  0  0  0  0  0  0  0
    8.2690    3.9243   -4.8067 C   0  0  0  0  0  0  0  0  0  0  0  0
    8.0884    2.6057   -5.2021 C   0  0  0  0  0  0  0  0  0  0  0  0
    6.8709    1.9574   -4.9584 C   0  0  0  0  0  0  0  0  0  0  0  0
    5.7749    2.6212   -4.3486 C   0  0  0  0  0  0  0  0  0  0  0  0
    3.0271   -1.4991   -3.7064 C   0  0  0  0  0  0  0  0  0  0  0  0
    3.2455   -2.4455   -2.5092 C   0  0  0  0  0  0  0  0  0  0  0  0
    2.5867   -1.9350   -1.2759 N   0  0  0  0  0  0  0  0  0  0  0  0
    1.6130   -2.6643   -0.6298 C   0  0  0  0  0  0  0  0  0  0  0  0
    0.7080   -3.4784   -1.3262 C   0  0  0  0  0  0  0  0  0  0  0  0
   -0.3054   -4.1984   -0.6725 C   0  0  0  0  0  0  0  0  0  0  0  0
   -0.4516   -4.1099    0.7098 C   0  0  0  0  0  0  0  0  0  0  0  0
   -1.7346   -4.9909    1.4547 Cl  0  0  0  0  0  0  0  0  0  0  0  0
    0.4436   -3.3294    1.4326 C   0  0  0  0  0  0  0  0  0  0  0  0
    0.3462   -3.1465    3.1505 Cl  0  0  0  0  0  0  0  0  0  0  0  0
    1.4739   -2.6505    0.7644 C   0  0  0  0  0  0  0  0  0  0  0  0
    3.6587   -0.3500    1.5653 H   0  0  0  0  0  0  0  0  0  0  0  0
    1.4923    0.0904    2.9116 H   0  0  0  0  0  0  0  0  0  0  0  0
    1.6297    1.7178    2.2284 H   0  0  0  0  0  0  0  0  0  0  0  0
    3.9062    3.1617    2.8743 H   0  0  0  0  0  0  0  0  0  0  0  0
    5.4890    3.2260    5.0009 H   0  0  0  0  0  0  0  0  0  0  0  0
    5.2247    1.0351    6.4411 H   0  0  0  0  0  0  0  0  0  0  0  0
    4.0569   -0.5497   -0.6725 H   0  0  0  0  0  0  0  0  0  0  0  0
    3.2064    1.3666   -1.8824 H   0  0  0  0  0  0  0  0  0  0  0  0
    1.7398    0.5192   -2.3934 H   0  0  0  0  0  0  0  0  0  0  0  0
    2.4499    2.5868   -3.5927 H   0  0  0  0  0  0  0  0  0  0  0  0
    5.0418    5.7084   -3.0820 H   0  0  0  0  0  0  0  0  0  0  0  0
    7.3776    5.6386   -3.8888 H   0  0  0  0  0  0  0  0  0  0  0  0
    9.2130    4.4293   -4.9956 H   0  0  0  0  0  0  0  0  0  0  0  0
    8.8899    2.0778   -5.7138 H   0  0  0  0  0  0  0  0  0  0  0  0
    6.7778    0.9282   -5.3000 H   0  0  0  0  0  0  0  0  0  0  0  0
    3.5735   -1.8800   -4.5751 H   0  0  0  0  0  0  0  0  0  0  0  0
    1.9629   -1.4730   -3.9728 H   0  0  0  0  0  0  0  0  0  0  0  0
    4.3212   -2.5142   -2.3052 H   0  0  0  0  0  0  0  0  0  0  0  0
    2.9237   -3.4601   -2.7696 H   0  0  0  0  0  0  0  0  0  0  0  0
    0.7462   -3.5491   -2.4113 H   0  0  0  0  0  0  0  0  0  0  0  0
   -0.9847   -4.8139   -1.2563 H   0  0  0  0  0  0  0  0  0  0  0  0
    2.1944   -2.1252    1.3783 H   0  0  0  0  0  0  0  0  0  0  0  0
  1  2  2  0  0  0  0
  2  3  1  0  0  0  0
  2 10  1  0  0  0  0
  3  4  1  0  0  0  0
  3 36  1  0  0  0  0
  4  5  1  0  0  0  0
  4 37  1  0  0  0  0
  4 38  1  0  0  0  0
  5  6  2  0  0  0  0
  5  9  1  0  0  0  0
  6  7  1  0  0  0  0
  6 39  1  0  0  0  0
  7  8  2  0  0  0  0
  7 40  1  0  0  0  0
  8  9  1  0  0  0  0
  8 41  1  0  0  0  0
 10 11  1  0  0  0  0
 10 27  1  0  0  0  0
 10 42  1  1  0  0  0
 11 12  1  0  0  0  0
 11 43  1  0  0  0  0
 11 44  1  0  0  0  0
 12 13  1  0  0  0  0
 12 25  1  0  0  0  0
 13 14  2  0  0  0  0
 13 15  1  0  0  0  0
 15 16  1  0  0  0  0
 15 24  2  0  0  0  0
 16 17  2  0  0  0  0
 16 45  1  0  0  0  0
 17 18  1  0  0  0  0
 18 19  2  0  0  0  0
 18 46  1  0  0  0  0
 19 20  1  0  0  0  0
 19 24  1  0  0  0  0
 20 21  2  0  0  0  0
 20 47  1  0  0  0  0
 21 22  1  0  0  0  0
 21 48  1  0  0  0  0
 22 23  2  0  0  0  0
 22 49  1  0  0  0  0
 23 24  1  0  0  0  0
 23 50  1  0  0  0  0
 25 26  1  0  0  0  0
 25 51  1  0  0  0  0
 25 52  1  0  0  0  0
 26 27  1  0  0  0  0
 26 53  1  0  0  0  0
 26 54  1  0  0  0  0
 27 28  1  0  0  0  0
 28 29  1  0  0  0  0
 28 35  2  0  0  0  0
 29 30  2  0  0  0  0
 29 55  1  0  0  0  0
 30 31  1  0  0  0  0
 30 56  1  0  0  0  0
 31 32  1  0  0  0  0
 31 33  2  0  0  0  0
 33 34  1  0  0  0  0
 33 35  1  0  0  0  0
 35 57  1  0  0  0  0
M  END
$$$$
