
 OpenBabel07202414153D

 44 46  0  0  1  0  0  0  0  0999 V2000
    2.3680    0.5917   -1.2882 C   0  0  0  0  0  0  0  0  0  0  0  0
    2.0402    0.4093    0.0840 O   0  0  0  0  0  0  0  0  0  0  0  0
    2.9173    0.9168    1.0055 C   0  0  0  0  0  0  0  0  0  0  0  0
    3.7595    2.0037    0.7360 C   0  0  0  0  0  0  0  0  0  0  0  0
    4.5758    2.5481    1.7338 C   0  0  0  0  0  0  0  0  0  0  0  0
    4.5673    2.0208    3.0300 C   0  0  0  0  0  0  0  0  0  0  0  0
    5.4325    2.6482    4.1031 C   0  0  3  0  0  0  0  0  0  0  0  0
    4.6917    3.7705    4.8328 C   0  0  0  0  0  0  0  0  0  0  0  0
    4.8349    3.3075    6.2562 C   0  0  0  0  0  0  0  0  0  0  0  0
    4.3027    4.0803    7.3958 C   0  0  0  0  0  0  0  0  0  0  0  0
    3.9568    3.3873    8.5641 C   0  0  0  0  0  0  0  0  0  0  0  0
    3.5164    4.0854    9.6864 C   0  0  0  0  0  0  0  0  0  0  0  0
    3.4339    5.4763    9.6473 C   0  0  0  0  0  0  0  0  0  0  0  0
    3.7718    6.1683    8.4816 C   0  0  0  0  0  0  0  0  0  0  0  0
    4.2006    5.4695    7.3506 C   0  0  0  0  0  0  0  0  0  0  0  0
    5.4548    2.1782    6.4236 N   0  0  0  0  0  0  0  0  0  0  0  0
    5.8294    1.7437    5.1859 N   0  0  0  0  0  0  0  0  0  0  0  0
    6.7005    0.6692    5.0318 C   0  0  0  0  0  0  0  0  0  0  0  0
    7.1478    0.3338    3.9357 O   0  0  0  0  0  0  0  0  0  0  0  0
    7.0582   -0.0072    6.3480 C   0  0  0  0  0  0  0  0  0  0  0  0
    8.0290   -1.4738    6.0989 Cl  0  0  0  0  0  0  0  0  0  0  0  0
    3.7114    0.9451    3.2999 C   0  0  0  0  0  0  0  0  0  0  0  0
    2.9047    0.3791    2.3025 C   0  0  0  0  0  0  0  0  0  0  0  0
    2.1289   -0.6531    2.7650 O   0  0  0  0  0  0  0  0  0  0  0  0
    1.8396   -1.6934    1.8402 C   0  0  0  0  0  0  0  0  0  0  0  0
    1.6315    0.0404   -1.8809 H   0  0  0  0  0  0  0  0  0  0  0  0
    3.3577    0.1813   -1.5147 H   0  0  0  0  0  0  0  0  0  0  0  0
    2.2971    1.6431   -1.5825 H   0  0  0  0  0  0  0  0  0  0  0  0
    3.7823    2.4762   -0.2415 H   0  0  0  0  0  0  0  0  0  0  0  0
    5.2115    3.3960    1.4859 H   0  0  0  0  0  0  0  0  0  0  0  0
    6.3571    3.0228    3.6483 H   0  0  0  0  0  0  0  0  0  0  0  0
    3.6314    3.8487    4.5740 H   0  0  0  0  0  0  0  0  0  0  0  0
    5.1837    4.7362    4.6771 H   0  0  0  0  0  0  0  0  0  0  0  0
    4.0307    2.3016    8.6050 H   0  0  0  0  0  0  0  0  0  0  0  0
    3.2506    3.5466   10.5912 H   0  0  0  0  0  0  0  0  0  0  0  0
    3.1095    6.0228   10.5300 H   0  0  0  0  0  0  0  0  0  0  0  0
    3.7168    7.2532    8.4652 H   0  0  0  0  0  0  0  0  0  0  0  0
    4.4816    6.0335    6.4652 H   0  0  0  0  0  0  0  0  0  0  0  0
    6.1527   -0.3013    6.8852 H   0  0  0  0  0  0  0  0  0  0  0  0
    7.6491    0.6811    6.9593 H   0  0  0  0  0  0  0  0  0  0  0  0
    3.6694    0.5161    4.2994 H   0  0  0  0  0  0  0  0  0  0  0  0
    1.5725   -2.5830    2.4202 H   0  0  0  0  0  0  0  0  0  0  0  0
    2.7052   -1.9535    1.2206 H   0  0  0  0  0  0  0  0  0  0  0  0
    0.9704   -1.4349    1.2306 H   0  0  0  0  0  0  0  0  0  0  0  0
  1  2  1  0  0  0  0
  1 26  1  0  0  0  0
  1 27  1  0  0  0  0
  1 28  1  0  0  0  0
  2  3  1  0  0  0  0
  3  4  1  0  0  0  0
  3 23  2  0  0  0  0
  4  5  2  0  0  0  0
  4 29  1  0  0  0  0
  5  6  1  0  0  0  0
  5 30  1  0  0  0  0
  6  7  1  0  0  0  0
  6 22  2  0  0  0  0
  7  8  1  0  0  0  0
  7 17  1  0  0  0  0
  7 31  1  0  0  0  0
  8  9  1  0  0  0  0
  8 32  1  0  0  0  0
  8 33  1  0  0  0  0
  9 10  1  0  0  0  0
  9 16  2  0  0  0  0
 10 11  1  0  0  0  0
 10 15  2  0  0  0  0
 11 12  2  0  0  0  0
 11 34  1  0  0  0  0
 12 13  1  0  0  0  0
 12 35  1  0  0  0  0
 13 14  2  0  0  0  0
 13 36  1  0  0  0  0
 14 15  1  0  0  0  0
 14 37  1  0  0  0  0
 15 38  1  0  0  0  0
 16 17  1  0  0  0  0
 17 18  1  0  0  0  0
 18 19  2  0  0  0  0
 18 20  1  0  0  0  0
 20 21  1  0  0  0  0
 20 39  1  0  0  0  0
 20 40  1  0  0  0  0
 22 23  1  0  0  0  0
 22 41  1  0  0  0  0
 23 24  1  0  0  0  0
 24 25  1  0  0  0  0
 25 42  1  0  0  0  0
 25 43  1  0  0  0  0
 25 44  1  0  0  0  0
M  END
$$$$
