
 OpenBabel07202414153D

 67 70  0  0  1  0  0  0  0  0999 V2000
    2.9702    7.5300    5.7570 C   0  0  0  0  0  0  0  0  0  0  0  0
    2.4118    6.8300    4.6490 O   0  0  0  0  0  0  0  0  0  0  0  0
    3.3079    6.6663    3.6111 C   0  0  0  0  0  0  0  0  0  0  0  0
    2.8393    5.9817    2.4951 C   0  0  0  0  0  0  0  0  0  0  0  0
    3.6958    5.7986    1.4060 C   0  0  0  0  0  0  0  0  0  0  0  0
    3.3183    5.0127    0.1722 C   0  0  0  0  0  0  0  0  0  0  0  0
    1.8490    5.0106   -0.2664 C   0  0  0  0  0  0  0  0  0  0  0  0
    1.3412    6.2981   -0.7283 N   0  0  0  0  0  0  0  0  0  0  0  0
    0.2197    6.3228   -1.5614 C   0  0  0  0  0  0  0  0  0  0  0  0
   -0.2182    5.2842   -2.0458 O   0  0  0  0  0  0  0  0  0  0  0  0
   -0.4666    7.7224   -1.7595 C   0  0  3  0  0  0  0  0  0  0  0  0
   -1.1734    7.8203   -3.0868 N   0  0  0  0  0  0  0  0  0  0  0  0
   -0.7860    8.6407   -4.1775 C   0  0  0  0  0  0  0  0  0  0  0  0
   -1.3957    8.6163   -5.2518 O   0  0  0  0  0  0  0  0  0  0  0  0
    0.3088    9.6111   -4.0792 C   0  0  0  0  0  0  0  0  0  0  0  0
    0.6361   10.4689   -5.1152 C   0  0  0  0  0  0  0  0  0  0  0  0
    1.6628   11.2662   -4.7229 O   0  0  0  0  0  0  0  0  0  0  0  0
    1.9170   10.8550   -3.4547 C   0  0  0  0  0  0  0  0  0  0  0  0
    1.1482    9.8811   -3.0167 N   0  0  0  0  0  0  0  0  0  0  0  0
   -2.2564    6.8929   -3.3454 C   0  0  0  0  0  0  0  0  0  0  0  0
   -2.2361    6.0977   -4.5028 C   0  0  0  0  0  0  0  0  0  0  0  0
   -3.2983    5.2462   -4.8236 C   0  0  0  0  0  0  0  0  0  0  0  0
   -4.3915    5.1442   -3.9706 C   0  0  0  0  0  0  0  0  0  0  0  0
   -5.4553    4.3029   -4.1409 O   0  0  0  0  0  0  0  0  0  0  0  0
   -5.2247    3.0929   -4.8771 C   0  0  0  0  0  0  0  0  0  0  0  0
   -4.2227    2.1809   -4.1655 C   0  0  0  0  0  0  0  0  0  0  0  0
   -6.5690    2.3730   -4.9758 C   0  0  0  0  0  0  0  0  0  0  0  0
   -4.4398    5.9467   -2.8339 C   0  0  0  0  0  0  0  0  0  0  0  0
   -3.3784    6.8037   -2.5167 C   0  0  0  0  0  0  0  0  0  0  0  0
   -1.3154    8.1702   -0.5708 C   0  0  0  0  0  0  0  0  0  0  0  0
   -1.9957    9.3986   -0.6009 C   0  0  0  0  0  0  0  0  0  0  0  0
   -2.8071    9.7775    0.4668 C   0  0  0  0  0  0  0  0  0  0  0  0
   -2.8862    8.9360    1.5610 C   0  0  0  0  0  0  0  0  0  0  0  0
   -2.2254    7.7646    1.6479 N   0  0  0  0  0  0  0  0  0  0  0  0
   -1.4692    7.4045    0.5848 C   0  0  0  0  0  0  0  0  0  0  0  0
    5.0046    6.2849    1.5204 C   0  0  0  0  0  0  0  0  0  0  0  0
    5.3809    6.9523    2.6761 C   0  0  0  0  0  0  0  0  0  0  0  0
    4.5580    7.1610    3.7212 N   0  0  0  0  0  0  0  0  0  0  0  0
    2.1811    7.6597    6.5038 H   0  0  0  0  0  0  0  0  0  0  0  0
    3.3178    8.5283    5.4680 H   0  0  0  0  0  0  0  0  0  0  0  0
    3.7773    6.9517    6.2205 H   0  0  0  0  0  0  0  0  0  0  0  0
    1.8268    5.5945    2.5093 H   0  0  0  0  0  0  0  0  0  0  0  0
    3.6160    3.9724    0.3588 H   0  0  0  0  0  0  0  0  0  0  0  0
    3.9225    5.3680   -0.6728 H   0  0  0  0  0  0  0  0  0  0  0  0
    1.1895    4.6694    0.5385 H   0  0  0  0  0  0  0  0  0  0  0  0
    1.7455    4.2867   -1.0827 H   0  0  0  0  0  0  0  0  0  0  0  0
    1.5724    7.1257   -0.1883 H   0  0  0  0  0  0  0  0  0  0  0  0
    0.3747    8.4054   -1.7463 H   0  0  0  0  0  0  0  0  0  0  0  0
    0.2487   10.6259   -6.1132 H   0  0  0  0  0  0  0  0  0  0  0  0
    2.7157   11.3656   -2.9353 H   0  0  0  0  0  0  0  0  0  0  0  0
   -1.3789    6.1180   -5.1718 H   0  0  0  0  0  0  0  0  0  0  0  0
   -3.2320    4.6734   -5.7414 H   0  0  0  0  0  0  0  0  0  0  0  0
   -4.8998    3.3221   -5.8985 H   0  0  0  0  0  0  0  0  0  0  0  0
   -4.5466    1.9746   -3.1396 H   0  0  0  0  0  0  0  0  0  0  0  0
   -3.2327    2.6403   -4.0909 H   0  0  0  0  0  0  0  0  0  0  0  0
   -4.1066    1.2332   -4.6992 H   0  0  0  0  0  0  0  0  0  0  0  0
   -6.9669    2.1489   -3.9795 H   0  0  0  0  0  0  0  0  0  0  0  0
   -6.4748    1.4355   -5.5330 H   0  0  0  0  0  0  0  0  0  0  0  0
   -7.3103    3.0041   -5.4771 H   0  0  0  0  0  0  0  0  0  0  0  0
   -5.3081    5.9052   -2.1811 H   0  0  0  0  0  0  0  0  0  0  0  0
   -3.5039    7.4271   -1.6421 H   0  0  0  0  0  0  0  0  0  0  0  0
   -1.9344   10.0449   -1.4740 H   0  0  0  0  0  0  0  0  0  0  0  0
   -3.3744   10.7012    0.4400 H   0  0  0  0  0  0  0  0  0  0  0  0
   -3.5052    9.1836    2.4188 H   0  0  0  0  0  0  0  0  0  0  0  0
   -0.9960    6.4349    0.7125 H   0  0  0  0  0  0  0  0  0  0  0  0
    5.7329    6.1380    0.7284 H   0  0  0  0  0  0  0  0  0  0  0  0
    6.3880    7.3419    2.7951 H   0  0  0  0  0  0  0  0  0  0  0  0
  1  2  1  0  0  0  0
  1 39  1  0  0  0  0
  1 40  1  0  0  0  0
  1 41  1  0  0  0  0
  2  3  1  0  0  0  0
  3  4  1  0  0  0  0
  3 38  2  0  0  0  0
  4  5  2  0  0  0  0
  4 42  1  0  0  0  0
  5  6  1  0  0  0  0
  5 36  1  0  0  0  0
  6  7  1  0  0  0  0
  6 43  1  0  0  0  0
  6 44  1  0  0  0  0
  7  8  1  0  0  0  0
  7 45  1  0  0  0  0
  7 46  1  0  0  0  0
  8  9  1  0  0  0  0
  8 47  1  0  0  0  0
  9 10  2  0  0  0  0
  9 11  1  0  0  0  0
 11 12  1  0  0  0  0
 11 30  1  0  0  0  0
 11 48  1  0  0  0  0
 12 13  1  0  0  0  0
 12 20  1  0  0  0  0
 13 14  2  0  0  0  0
 13 15  1  0  0  0  0
 15 16  2  0  0  0  0
 15 19  1  0  0  0  0
 16 17  1  0  0  0  0
 16 49  1  0  0  0  0
 17 18  1  0  0  0  0
 18 19  2  0  0  0  0
 18 50  1  0  0  0  0
 20 21  1  0  0  0  0
 20 29  2  0  0  0  0
 21 22  2  0  0  0  0
 21 51  1  0  0  0  0
 22 23  1  0  0  0  0
 22 52  1  0  0  0  0
 23 24  1  0  0  0  0
 23 28  2  0  0  0  0
 24 25  1  0  0  0  0
 25 26  1  0  0  0  0
 25 27  1  0  0  0  0
 25 53  1  0  0  0  0
 26 54  1  0  0  0  0
 26 55  1  0  0  0  0
 26 56  1  0  0  0  0
 27 57  1  0  0  0  0
 27 58  1  0  0  0  0
 27 59  1  0  0  0  0
 28 29  1  0  0  0  0
 28 60  1  0  0  0  0
 29 61  1  0  0  0  0
 30 31  1  0  0  0  0
 30 35  2  0  0  0  0
 31 32  2  0  0  0  0
 31 62  1  0  0  0  0
 32 33  1  0  0  0  0
 32 63  1  0  0  0  0
 33 34  2  0  0  0  0
 33 64  1  0  0  0  0
 34 35  1  0  0  0  0
 35 65  1  0  0  0  0
 36 37  2  0  0  0  0
 36 66  1  0  0  0  0
 37 38  1  0  0  0  0
 37 67  1  0  0  0  0
M  END
$$$$
