
 OpenBabel07202414163D

 49 53  0  0  0  0  0  0  0  0999 V2000
   -2.0875   -0.2964    0.1175 Cl  0  0  0  0  0  0  0  0  0  0  0  0
   -0.3732   -0.1464    0.0448 C   0  0  0  0  0  0  0  0  0  0  0  0
    0.2054    1.1242    0.0105 C   0  0  0  0  0  0  0  0  0  0  0  0
    1.5960    1.2469   -0.0547 C   0  0  0  0  0  0  0  0  0  0  0  0
    2.2855    2.5926   -0.0546 C   0  0  0  0  0  0  0  0  0  0  0  0
    1.9421    3.5224   -1.2037 C   0  0  0  0  0  0  0  0  0  0  0  0
    1.6846    4.7067   -0.9967 O   0  0  0  0  0  0  0  0  0  0  0  0
    1.9935    2.9423   -2.4589 N   0  0  0  0  0  0  0  0  0  0  0  0
    1.7334    3.6758   -3.6426 C   0  0  0  0  0  0  0  0  0  0  0  0
    2.3179    4.9264   -3.8565 C   0  0  0  0  0  0  0  0  0  0  0  0
    2.1622    5.6619   -4.9812 N   0  0  0  0  0  0  0  0  0  0  0  0
    1.3486    5.1421   -5.9247 C   0  0  0  0  0  0  0  0  0  0  0  0
    0.6826    3.9179   -5.8161 C   0  0  0  0  0  0  0  0  0  0  0  0
   -0.1929    3.4647   -6.8181 C   0  0  0  0  0  0  0  0  0  0  0  0
   -0.8853    2.2649   -6.6684 C   0  0  0  0  0  0  0  0  0  0  0  0
   -0.7029    1.5011   -5.5230 C   0  0  0  0  0  0  0  0  0  0  0  0
    0.1748    1.9329   -4.5281 C   0  0  0  0  0  0  0  0  0  0  0  0
    0.8891    3.1487   -4.6476 C   0  0  0  0  0  0  0  0  0  0  0  0
    2.3748    0.0776   -0.0748 C   0  0  0  0  0  0  0  0  0  0  0  0
    1.8111   -1.2070   -0.0475 C   0  0  0  0  0  0  0  0  0  0  0  0
    2.5893   -2.3854   -0.1517 N   0  0  0  0  0  0  0  0  0  0  0  0
    3.8835   -2.5333   -0.5466 C   0  0  0  0  0  0  0  0  0  0  0  0
    4.6478   -1.5915   -1.1123 N   0  0  0  0  0  0  0  0  0  0  0  0
    5.8200   -2.1913   -1.3309 N   0  0  0  0  0  0  0  0  0  0  0  0
    5.8640   -3.5000   -0.9514 C   0  0  0  0  0  0  0  0  0  0  0  0
    4.6021   -3.7696   -0.4282 C   0  0  0  0  0  0  0  0  0  0  0  0
    4.3406   -5.0671    0.0580 C   0  0  0  0  0  0  0  0  0  0  0  0
    5.3614   -6.0264   -0.0123 C   0  0  0  0  0  0  0  0  0  0  0  0
    5.0316   -7.7761    0.6308 Br  0  0  0  0  0  0  0  0  0  0  0  0
    6.6140   -5.7227   -0.5439 C   0  0  0  0  0  0  0  0  0  0  0  0
    6.8935   -4.4419   -1.0268 C   0  0  0  0  0  0  0  0  0  0  0  0
    0.4155   -1.3008    0.0120 C   0  0  0  0  0  0  0  0  0  0  0  0
   -0.4261    2.0091    0.0453 H   0  0  0  0  0  0  0  0  0  0  0  0
    3.3753    2.4679   -0.0741 H   0  0  0  0  0  0  0  0  0  0  0  0
    2.0439    3.1005    0.8864 H   0  0  0  0  0  0  0  0  0  0  0  0
    1.8812    1.9369   -2.4988 H   0  0  0  0  0  0  0  0  0  0  0  0
    2.9836    5.3723   -3.1220 H   0  0  0  0  0  0  0  0  0  0  0  0
    1.2282    5.7713   -6.8039 H   0  0  0  0  0  0  0  0  0  0  0  0
   -0.3603    4.0601   -7.7139 H   0  0  0  0  0  0  0  0  0  0  0  0
   -1.5791    1.9352   -7.4376 H   0  0  0  0  0  0  0  0  0  0  0  0
   -1.2569    0.5751   -5.3896 H   0  0  0  0  0  0  0  0  0  0  0  0
    0.2583    1.3190   -3.6349 H   0  0  0  0  0  0  0  0  0  0  0  0
    3.4577    0.1838   -0.0864 H   0  0  0  0  0  0  0  0  0  0  0  0
    2.0812   -3.2152    0.1310 H   0  0  0  0  0  0  0  0  0  0  0  0
    6.5622   -1.6438   -1.7531 H   0  0  0  0  0  0  0  0  0  0  0  0
    3.3735   -5.3162    0.4807 H   0  0  0  0  0  0  0  0  0  0  0  0
    7.3918   -6.4822   -0.5872 H   0  0  0  0  0  0  0  0  0  0  0  0
    7.8657   -4.1974   -1.4391 H   0  0  0  0  0  0  0  0  0  0  0  0
   -0.0668   -2.2745    0.0257 H   0  0  0  0  0  0  0  0  0  0  0  0
  1  2  1  0  0  0  0
  2  3  2  0  0  0  0
  2 32  1  0  0  0  0
  3  4  1  0  0  0  0
  3 33  1  0  0  0  0
  4  5  1  0  0  0  0
  4 19  2  0  0  0  0
  5  6  1  0  0  0  0
  5 34  1  0  0  0  0
  5 35  1  0  0  0  0
  6  7  2  0  0  0  0
  6  8  1  0  0  0  0
  8  9  1  0  0  0  0
  8 36  1  0  0  0  0
  9 10  2  0  0  0  0
  9 18  1  0  0  0  0
 10 11  1  0  0  0  0
 10 37  1  0  0  0  0
 11 12  2  0  0  0  0
 12 13  1  0  0  0  0
 12 38  1  0  0  0  0
 13 14  2  0  0  0  0
 13 18  1  0  0  0  0
 14 15  1  0  0  0  0
 14 39  1  0  0  0  0
 15 16  2  0  0  0  0
 15 40  1  0  0  0  0
 16 17  1  0  0  0  0
 16 41  1  0  0  0  0
 17 18  2  0  0  0  0
 17 42  1  0  0  0  0
 19 20  1  0  0  0  0
 19 43  1  0  0  0  0
 20 21  1  0  0  0  0
 20 32  2  0  0  0  0
 21 22  1  0  0  0  0
 21 44  1  0  0  0  0
 22 23  2  0  0  0  0
 22 26  1  0  0  0  0
 23 24  1  0  0  0  0
 24 25  1  0  0  0  0
 24 45  1  0  0  0  0
 25 26  2  0  0  0  0
 25 31  1  0  0  0  0
 26 27  1  0  0  0  0
 27 28  2  0  0  0  0
 27 46  1  0  0  0  0
 28 29  1  0  0  0  0
 28 30  1  0  0  0  0
 30 31  2  0  0  0  0
 30 47  1  0  0  0  0
 31 48  1  0  0  0  0
 32 49  1  0  0  0  0
M  END
$$$$
