
 OpenBabel07202414133D

 49 52  0  0  0  0  0  0  0  0999 V2000
    1.1700    0.0268    0.2604 C   0  0  0  0  0  0  0  0  0  0  0  0
    2.3311   -0.8038   -0.0781 N   0  0  0  0  0  0  0  0  0  0  0  0
    2.5121   -1.0609   -1.5120 C   0  0  0  0  0  0  0  0  0  0  0  0
    3.1506   -1.4077    0.8841 C   0  0  0  0  0  0  0  0  0  0  0  0
    3.0397   -1.2207    2.2783 C   0  0  0  0  0  0  0  0  0  0  0  0
    3.8664   -1.9041    3.2454 C   0  0  0  0  0  0  0  0  0  0  0  0
    4.8411   -2.8486    2.8705 C   0  0  0  0  0  0  0  0  0  0  0  0
    5.0104   -2.9805    1.4903 C   0  0  0  0  0  0  0  0  0  0  0  0
    4.1857   -2.2827    0.5370 C   0  0  0  0  0  0  0  0  0  0  0  0
    5.7215   -3.5755    3.8237 N   0  0  0  0  0  0  0  0  0  0  0  0
    6.9533   -2.7998    4.2336 C   0  0  0  0  0  0  0  0  0  0  0  0
    8.2539   -3.1019    3.4873 C   0  0  0  0  0  0  0  0  0  0  0  0
    9.5277   -2.4444    3.7739 C   0  0  0  0  0  0  0  0  0  0  0  0
   10.6040   -2.9199    3.0209 C   0  0  0  0  0  0  0  0  0  0  0  0
   10.0712   -4.0977    1.9051 S   0  0  0  0  0  0  0  0  0  0  0  0
    8.4489   -3.9949    2.4508 C   0  0  0  0  0  0  0  0  0  0  0  0
    5.2489   -4.8274    4.4720 C   0  0  0  0  0  0  0  0  0  0  0  0
    4.1502   -5.3105    4.1877 O   0  0  0  0  0  0  0  0  0  0  0  0
    6.1646   -5.5132    5.5159 C   0  0  0  0  0  0  0  0  0  0  0  0
    6.1285   -6.9135    6.1240 N   0  0  0  0  0  0  0  0  0  0  0  0
    5.2918   -7.8878    6.7346 C   0  0  0  0  0  0  0  0  0  0  0  0
    3.9185   -8.2168    6.9027 C   0  0  0  0  0  0  0  0  0  0  0  0
    3.5499   -9.3744    7.6673 C   0  0  0  0  0  0  0  0  0  0  0  0
    4.4747  -10.2307    8.2397 C   0  0  0  0  0  0  0  0  0  0  0  0
    5.8251   -9.9538    8.0469 C   0  0  0  0  0  0  0  0  0  0  0  0
    6.2099   -8.7929    7.3276 C   0  0  0  0  0  0  0  0  0  0  0  0
    7.4766   -8.3858    7.1070 N   0  0  0  0  0  0  0  0  0  0  0  0
    7.4384   -7.2650    6.4249 N   0  0  0  0  0  0  0  0  0  0  0  0
    0.6020    0.3202   -0.6346 H   0  0  0  0  0  0  0  0  0  0  0  0
    1.4760    0.9622    0.7387 H   0  0  0  0  0  0  0  0  0  0  0  0
    0.4615   -0.5103    0.8985 H   0  0  0  0  0  0  0  0  0  0  0  0
    1.7165   -0.6113   -2.1213 H   0  0  0  0  0  0  0  0  0  0  0  0
    2.4882   -2.1319   -1.7362 H   0  0  0  0  0  0  0  0  0  0  0  0
    3.4514   -0.6266   -1.8689 H   0  0  0  0  0  0  0  0  0  0  0  0
    2.2919   -0.5168    2.6531 H   0  0  0  0  0  0  0  0  0  0  0  0
    3.7054   -1.6629    4.2929 H   0  0  0  0  0  0  0  0  0  0  0  0
    5.7780   -3.6391    1.0942 H   0  0  0  0  0  0  0  0  0  0  0  0
    4.4035   -2.4790   -0.5104 H   0  0  0  0  0  0  0  0  0  0  0  0
    7.1416   -2.9779    5.2980 H   0  0  0  0  0  0  0  0  0  0  0  0
    6.7533   -1.7234    4.1247 H   0  0  0  0  0  0  0  0  0  0  0  0
    9.6750   -1.6634    4.5157 H   0  0  0  0  0  0  0  0  0  0  0  0
   11.6306   -2.6357    3.0784 H   0  0  0  0  0  0  0  0  0  0  0  0
    7.7148   -4.6251    1.9720 H   0  0  0  0  0  0  0  0  0  0  0  0
    6.3163   -4.8530    6.3777 H   0  0  0  0  0  0  0  0  0  0  0  0
    7.1145   -5.5729    4.9629 H   0  0  0  0  0  0  0  0  0  0  0  0
    3.1171   -7.6418    6.4529 H   0  0  0  0  0  0  0  0  0  0  0  0
    2.5001   -9.6398    7.8260 H   0  0  0  0  0  0  0  0  0  0  0  0
    4.1913  -11.1108    8.8178 H   0  0  0  0  0  0  0  0  0  0  0  0
    6.5861  -10.6175    8.4472 H   0  0  0  0  0  0  0  0  0  0  0  0
  1  2  1  0  0  0  0
  1 29  1  0  0  0  0
  1 30  1  0  0  0  0
  1 31  1  0  0  0  0
  2  3  1  0  0  0  0
  2  4  1  0  0  0  0
  3 32  1  0  0  0  0
  3 33  1  0  0  0  0
  3 34  1  0  0  0  0
  4  5  1  0  0  0  0
  4  9  2  0  0  0  0
  5  6  2  0  0  0  0
  5 35  1  0  0  0  0
  6  7  1  0  0  0  0
  6 36  1  0  0  0  0
  7  8  2  0  0  0  0
  7 10  1  0  0  0  0
  8  9  1  0  0  0  0
  8 37  1  0  0  0  0
  9 38  1  0  0  0  0
 10 11  1  0  0  0  0
 10 17  1  0  0  0  0
 11 12  1  0  0  0  0
 11 39  1  0  0  0  0
 11 40  1  0  0  0  0
 12 13  1  0  0  0  0
 12 16  2  0  0  0  0
 13 14  2  0  0  0  0
 13 41  1  0  0  0  0
 14 15  1  0  0  0  0
 14 42  1  0  0  0  0
 15 16  1  0  0  0  0
 16 43  1  0  0  0  0
 17 18  2  0  0  0  0
 17 19  1  0  0  0  0
 19 20  1  0  0  0  0
 19 44  1  0  0  0  0
 19 45  1  0  0  0  0
 20 21  1  0  0  0  0
 20 28  1  0  0  0  0
 21 22  1  0  0  0  0
 21 26  2  0  0  0  0
 22 23  2  0  0  0  0
 22 46  1  0  0  0  0
 23 24  1  0  0  0  0
 23 47  1  0  0  0  0
 24 25  2  0  0  0  0
 24 48  1  0  0  0  0
 25 26  1  0  0  0  0
 25 49  1  0  0  0  0
 26 27  1  0  0  0  0
 27 28  2  0  0  0  0
M  END
$$$$
