
 OpenBabel07202414173D

 37 40  0  0  1  0  0  0  0  0999 V2000
    1.1804   -0.1325    0.1204 Cl  0  0  0  0  0  0  0  0  0  0  0  0
    2.8978   -0.1308    0.1598 C   0  0  0  0  0  0  0  0  0  0  0  0
    3.5909    1.0752    0.1005 C   0  0  0  0  0  0  0  0  0  0  0  0
    4.9856    1.0698    0.1339 C   0  0  0  0  0  0  0  0  0  0  0  0
    5.6840   -0.1347    0.2202 C   0  0  0  0  0  0  0  0  0  0  0  0
    4.9959   -1.3521    0.2570 C   0  0  0  0  0  0  0  0  0  0  0  0
    3.5920   -1.3421    0.2419 C   0  0  0  0  0  0  0  0  0  0  0  0
    5.7622   -2.6506    0.2641 C   0  0  3  0  0  0  0  0  0  0  0  0
    5.8740   -3.3275    1.6138 C   0  0  0  0  0  0  0  0  0  0  0  0
    6.1534   -4.5165    1.7189 O   0  0  0  0  0  0  0  0  0  0  0  0
    5.6867   -2.5200    2.7939 N   0  0  0  0  0  0  0  0  0  0  0  0
    5.6816   -3.1013    4.0589 C   0  0  0  0  0  0  0  0  0  0  0  0
    6.3075   -4.2567    4.4869 C   0  0  0  0  0  0  0  0  0  0  0  0
    5.8312   -4.6540    5.7099 N   0  0  0  0  0  0  0  0  0  0  0  0
    4.9265   -3.7560    6.0321 C   0  0  0  0  0  0  0  0  0  0  0  0
    3.9559   -3.7301    7.0699 C   0  0  0  0  0  0  0  0  0  0  0  0
    3.1574   -2.6527    7.2074 C   0  0  0  0  0  0  0  0  0  0  0  0
    3.3054   -1.4793    6.3536 C   0  0  0  0  0  0  0  0  0  0  0  0
    4.1682   -1.5315    5.3259 C   0  0  0  0  0  0  0  0  0  0  0  0
    4.9284   -2.6876    5.1399 N   0  0  0  0  0  0  0  0  0  0  0  0
    7.1719   -2.4292   -0.2749 C   0  0  0  0  0  0  0  0  0  0  0  0
    7.7896   -1.2307    0.4280 C   0  0  0  0  0  0  0  0  0  0  0  0
    7.0452   -0.0296    0.2213 O   0  0  0  0  0  0  0  0  0  0  0  0
    3.0561    2.0178    0.0093 H   0  0  0  0  0  0  0  0  0  0  0  0
    5.5298    2.0097    0.0697 H   0  0  0  0  0  0  0  0  0  0  0  0
    3.0251   -2.2728    0.2588 H   0  0  0  0  0  0  0  0  0  0  0  0
    5.2421   -3.3577   -0.3986 H   0  0  0  0  0  0  0  0  0  0  0  0
    5.3650   -1.5633    2.7007 H   0  0  0  0  0  0  0  0  0  0  0  0
    7.0325   -4.8650    3.9611 H   0  0  0  0  0  0  0  0  0  0  0  0
    3.8416   -4.6100    7.6938 H   0  0  0  0  0  0  0  0  0  0  0  0
    2.3674   -2.6446    7.9530 H   0  0  0  0  0  0  0  0  0  0  0  0
    2.6905   -0.6104    6.5550 H   0  0  0  0  0  0  0  0  0  0  0  0
    4.3027   -0.7089    4.6369 H   0  0  0  0  0  0  0  0  0  0  0  0
    7.1189   -2.2302   -1.3520 H   0  0  0  0  0  0  0  0  0  0  0  0
    7.7984   -3.3168   -0.1306 H   0  0  0  0  0  0  0  0  0  0  0  0
    8.7992   -1.0607    0.0408 H   0  0  0  0  0  0  0  0  0  0  0  0
    7.8881   -1.3974    1.5073 H   0  0  0  0  0  0  0  0  0  0  0  0
  1  2  1  0  0  0  0
  2  3  1  0  0  0  0
  2  7  2  0  0  0  0
  3  4  2  0  0  0  0
  3 24  1  0  0  0  0
  4  5  1  0  0  0  0
  4 25  1  0  0  0  0
  5  6  2  0  0  0  0
  5 23  1  0  0  0  0
  6  7  1  0  0  0  0
  6  8  1  0  0  0  0
  7 26  1  0  0  0  0
  8  9  1  0  0  0  0
  8 21  1  0  0  0  0
  8 27  1  0  0  0  0
  9 10  2  0  0  0  0
  9 11  1  0  0  0  0
 11 12  1  0  0  0  0
 11 28  1  0  0  0  0
 12 13  2  0  0  0  0
 12 20  1  0  0  0  0
 13 14  1  0  0  0  0
 13 29  1  0  0  0  0
 14 15  2  0  0  0  0
 15 16  1  0  0  0  0
 15 20  1  0  0  0  0
 16 17  2  0  0  0  0
 16 30  1  0  0  0  0
 17 18  1  0  0  0  0
 17 31  1  0  0  0  0
 18 19  2  0  0  0  0
 18 32  1  0  0  0  0
 19 20  1  0  0  0  0
 19 33  1  0  0  0  0
 21 22  1  0  0  0  0
 21 34  1  0  0  0  0
 21 35  1  0  0  0  0
 22 23  1  0  0  0  0
 22 36  1  0  0  0  0
 22 37  1  0  0  0  0
M  END
$$$$
