
 OpenBabel07202414123D

 65 67  0  0  1  0  0  0  0  0999 V2000
    9.6110    2.7529    4.7270 C   0  0  0  0  0  0  0  0  0  0  0  0
    9.5627    1.2047    4.7635 C   0  0  0  0  0  0  0  0  0  0  0  0
   10.0058    0.7142    3.3660 C   0  0  0  0  0  0  0  0  0  0  0  0
   10.6010    0.7341    5.8015 C   0  0  0  0  0  0  0  0  0  0  0  0
    8.1682    0.6487    5.1124 C   0  0  0  0  0  0  0  0  0  0  0  0
    7.0733    1.4805    5.3465 C   0  0  0  0  0  0  0  0  0  0  0  0
    5.7872    0.9590    5.5620 C   0  0  0  0  0  0  0  0  0  0  0  0
    5.5029   -0.4156    5.5264 C   0  0  0  0  0  0  0  0  0  0  0  0
    4.1136   -0.9105    5.5489 N   0  0  0  0  0  0  0  0  0  0  0  0
    3.8845   -2.3148    6.0441 C   0  0  3  0  0  0  0  0  0  0  0  0
    2.8999   -2.3961    7.2749 C   0  0  0  0  0  0  0  0  0  0  0  0
    2.0218   -1.5713    7.5122 O   0  0  0  0  0  0  0  0  0  0  0  0
    3.0259   -3.5253    8.0681 N   0  0  0  0  0  0  0  0  0  0  0  0
    1.9811   -3.9125    9.0051 C   0  0  0  0  0  0  0  0  0  0  0  0
    2.5316   -4.8034   10.1133 C   0  0  0  0  0  0  0  0  0  0  0  0
    1.4871   -5.1602   11.1370 C   0  0  0  0  0  0  0  0  0  0  0  0
    1.2695   -4.3218   12.2408 C   0  0  0  0  0  0  0  0  0  0  0  0
    0.3111   -4.6473   13.2029 C   0  0  0  0  0  0  0  0  0  0  0  0
   -0.4439   -5.8103   13.0646 C   0  0  0  0  0  0  0  0  0  0  0  0
   -0.2407   -6.6311   11.9626 C   0  0  0  0  0  0  0  0  0  0  0  0
   -0.9714   -7.7450   11.8246 F   0  0  0  0  0  0  0  0  0  0  0  0
    0.7124   -6.3191   10.9991 C   0  0  0  0  0  0  0  0  0  0  0  0
    3.5426   -3.3949    4.9992 C   0  0  0  0  0  0  0  0  0  0  0  0
    3.7652   -4.7424    5.3101 C   0  0  0  0  0  0  0  0  0  0  0  0
    3.3011   -5.7995    4.6014 N   0  0  0  0  0  0  0  0  0  0  0  0
    2.5983   -5.5236    3.4822 C   0  0  0  0  0  0  0  0  0  0  0  0
    2.4038   -4.2382    3.0094 C   0  0  0  0  0  0  0  0  0  0  0  0
    1.7040   -4.0143    1.7850 C   0  0  0  0  0  0  0  0  0  0  0  0
    1.1379   -3.8411    0.7922 N   0  0  0  0  0  0  0  0  0  0  0  0
    2.9023   -3.1693    3.7716 C   0  0  0  0  0  0  0  0  0  0  0  0
    3.1104   -0.0518    5.0327 C   0  0  0  0  0  0  0  0  0  0  0  0
    3.3451    1.0436    4.5116 O   0  0  0  0  0  0  0  0  0  0  0  0
    1.6759   -0.4729    5.0007 C   0  0  0  0  0  0  0  0  0  0  0  0
    0.7367    0.3659    4.5351 C   0  0  0  0  0  0  0  0  0  0  0  0
    6.6203   -1.2545    5.4138 C   0  0  0  0  0  0  0  0  0  0  0  0
    7.9191   -0.7322    5.1976 C   0  0  0  0  0  0  0  0  0  0  0  0
   10.6139    3.1190    4.4787 H   0  0  0  0  0  0  0  0  0  0  0  0
    9.3393    3.1872    5.6964 H   0  0  0  0  0  0  0  0  0  0  0  0
    8.9261    3.1578    3.9713 H   0  0  0  0  0  0  0  0  0  0  0  0
   11.0259    1.0501    3.1388 H   0  0  0  0  0  0  0  0  0  0  0  0
    9.3509    1.1063    2.5790 H   0  0  0  0  0  0  0  0  0  0  0  0
   10.0025   -0.3778    3.2868 H   0  0  0  0  0  0  0  0  0  0  0  0
   11.6092    1.0697    5.5289 H   0  0  0  0  0  0  0  0  0  0  0  0
   10.6389   -0.3571    5.8834 H   0  0  0  0  0  0  0  0  0  0  0  0
   10.3756    1.1347    6.7961 H   0  0  0  0  0  0  0  0  0  0  0  0
    7.1635    2.5637    5.3413 H   0  0  0  0  0  0  0  0  0  0  0  0
    5.0084    1.6965    5.7437 H   0  0  0  0  0  0  0  0  0  0  0  0
    4.8284   -2.6366    6.5013 H   0  0  0  0  0  0  0  0  0  0  0  0
    3.8775   -4.0691    8.0537 H   0  0  0  0  0  0  0  0  0  0  0  0
    1.2129   -4.4448    8.4286 H   0  0  0  0  0  0  0  0  0  0  0  0
    1.5083   -3.0141    9.4162 H   0  0  0  0  0  0  0  0  0  0  0  0
    3.3692   -4.2965   10.6092 H   0  0  0  0  0  0  0  0  0  0  0  0
    2.9602   -5.7189    9.6859 H   0  0  0  0  0  0  0  0  0  0  0  0
    1.8497   -3.4081   12.3611 H   0  0  0  0  0  0  0  0  0  0  0  0
    0.1540   -3.9943   14.0578 H   0  0  0  0  0  0  0  0  0  0  0  0
   -1.1902   -6.0791   13.8044 H   0  0  0  0  0  0  0  0  0  0  0  0
    0.8412   -6.9850   10.1515 H   0  0  0  0  0  0  0  0  0  0  0  0
    4.3308   -5.0462    6.1872 H   0  0  0  0  0  0  0  0  0  0  0  0
    2.1914   -6.3893    2.9664 H   0  0  0  0  0  0  0  0  0  0  0  0
    2.7499   -2.1612    3.3939 H   0  0  0  0  0  0  0  0  0  0  0  0
    1.3702   -1.4553    5.3163 H   0  0  0  0  0  0  0  0  0  0  0  0
    0.9797    1.3715    4.1994 H   0  0  0  0  0  0  0  0  0  0  0  0
   -0.3033    0.0645    4.4826 H   0  0  0  0  0  0  0  0  0  0  0  0
    6.5373   -2.3355    5.4124 H   0  0  0  0  0  0  0  0  0  0  0  0
    8.7352   -1.4391    5.0567 H   0  0  0  0  0  0  0  0  0  0  0  0
  1  2  1  0  0  0  0
  1 37  1  0  0  0  0
  1 38  1  0  0  0  0
  1 39  1  0  0  0  0
  2  3  1  0  0  0  0
  2  4  1  0  0  0  0
  2  5  1  0  0  0  0
  3 40  1  0  0  0  0
  3 41  1  0  0  0  0
  3 42  1  0  0  0  0
  4 43  1  0  0  0  0
  4 44  1  0  0  0  0
  4 45  1  0  0  0  0
  5  6  1  0  0  0  0
  5 36  2  0  0  0  0
  6  7  2  0  0  0  0
  6 46  1  0  0  0  0
  7  8  1  0  0  0  0
  7 47  1  0  0  0  0
  8  9  1  0  0  0  0
  8 35  2  0  0  0  0
  9 10  1  0  0  0  0
  9 31  1  0  0  0  0
 10 11  1  0  0  0  0
 10 23  1  0  0  0  0
 10 48  1  0  0  0  0
 11 12  2  0  0  0  0
 11 13  1  0  0  0  0
 13 14  1  0  0  0  0
 13 49  1  0  0  0  0
 14 15  1  0  0  0  0
 14 50  1  0  0  0  0
 14 51  1  0  0  0  0
 15 16  1  0  0  0  0
 15 52  1  0  0  0  0
 15 53  1  0  0  0  0
 16 17  1  0  0  0  0
 16 22  2  0  0  0  0
 17 18  2  0  0  0  0
 17 54  1  0  0  0  0
 18 19  1  0  0  0  0
 18 55  1  0  0  0  0
 19 20  2  0  0  0  0
 19 56  1  0  0  0  0
 20 21  1  0  0  0  0
 20 22  1  0  0  0  0
 22 57  1  0  0  0  0
 23 24  1  0  0  0  0
 23 30  2  0  0  0  0
 24 25  2  0  0  0  0
 24 58  1  0  0  0  0
 25 26  1  0  0  0  0
 26 27  2  0  0  0  0
 26 59  1  0  0  0  0
 27 28  1  0  0  0  0
 27 30  1  0  0  0  0
 28 29  3  0  0  0  0
 30 60  1  0  0  0  0
 31 32  2  0  0  0  0
 31 33  1  0  0  0  0
 33 34  2  0  0  0  0
 33 61  1  0  0  0  0
 34 62  1  0  0  0  0
 34 63  1  0  0  0  0
 35 36  1  0  0  0  0
 35 64  1  0  0  0  0
 36 65  1  0  0  0  0
M  END
$$$$
