
 OpenBabel07202414123D

 43 46  0  0  1  0  0  0  0  0999 V2000
    0.9983    0.1284   -0.1854 C   0  0  0  0  0  0  0  0  0  0  0  0
    2.5437    0.1805   -0.2750 C   0  0  3  0  0  0  0  0  0  0  0  0
    2.9363    0.9271   -1.5901 C   0  0  0  0  0  0  0  0  0  0  0  0
    2.0827    1.3244   -2.3725 O   0  0  0  0  0  0  0  0  0  0  0  0
    4.3025    1.0851   -1.7847 N   0  0  0  0  0  0  0  0  0  0  0  0
    4.9608    1.6237   -2.9294 C   0  0  0  0  0  0  0  0  0  0  0  0
    4.2781    2.1524   -4.0276 C   0  0  0  0  0  0  0  0  0  0  0  0
    4.8580    2.4809   -5.2078 N   0  0  0  0  0  0  0  0  0  0  0  0
    6.1966    2.3496   -5.2808 C   0  0  0  0  0  0  0  0  0  0  0  0
    7.0095    1.9933   -4.2082 C   0  0  0  0  0  0  0  0  0  0  0  0
    8.4123    2.0347   -4.3217 C   0  0  0  0  0  0  0  0  0  0  0  0
    9.2215    1.6880   -3.2448 C   0  0  0  0  0  0  0  0  0  0  0  0
    8.6397    1.2675   -2.0557 C   0  0  0  0  0  0  0  0  0  0  0  0
    7.2456    1.2244   -1.9344 C   0  0  0  0  0  0  0  0  0  0  0  0
    6.3845    1.6032   -2.9978 C   0  0  0  0  0  0  0  0  0  0  0  0
    3.0736   -1.2713   -0.3735 C   0  0  0  0  0  0  0  0  0  0  0  0
    2.6925   -2.0320    0.8401 N   0  0  0  0  0  0  0  0  0  0  0  0
    3.5230   -1.5605    2.2340 S   0  0  0  0  0  0  0  0  0  0  0  0
    2.7572   -2.0057    3.3676 O   0  0  0  0  0  0  0  0  0  0  0  0
    4.9040   -1.9407    2.0286 O   0  0  0  0  0  0  0  0  0  0  0  0
    3.4689    0.2139    2.1483 C   0  0  0  0  0  0  0  0  0  0  0  0
    3.8632    0.9003    3.3082 C   0  0  0  0  0  0  0  0  0  0  0  0
    3.8394    2.2923    3.3335 C   0  0  0  0  0  0  0  0  0  0  0  0
    3.4138    2.9910    2.2083 C   0  0  0  0  0  0  0  0  0  0  0  0
    3.3648    4.7098    2.2434 Cl  0  0  0  0  0  0  0  0  0  0  0  0
    3.0167    2.3100    1.0535 C   0  0  0  0  0  0  0  0  0  0  0  0
    3.0484    0.9012    0.9893 C   0  0  0  0  0  0  0  0  0  0  0  0
    0.5753   -0.4370   -1.0246 H   0  0  0  0  0  0  0  0  0  0  0  0
    0.5584    1.1324   -0.2138 H   0  0  0  0  0  0  0  0  0  0  0  0
    0.6546   -0.3463    0.7416 H   0  0  0  0  0  0  0  0  0  0  0  0
    4.9076    0.7108   -1.0690 H   0  0  0  0  0  0  0  0  0  0  0  0
    3.2094    2.3420   -4.0198 H   0  0  0  0  0  0  0  0  0  0  0  0
    6.6144    2.5530   -6.2642 H   0  0  0  0  0  0  0  0  0  0  0  0
    8.8824    2.3710   -5.2442 H   0  0  0  0  0  0  0  0  0  0  0  0
   10.3039    1.7563   -3.3276 H   0  0  0  0  0  0  0  0  0  0  0  0
    9.2650    0.9895   -1.2145 H   0  0  0  0  0  0  0  0  0  0  0  0
    6.8574    0.9190   -0.9689 H   0  0  0  0  0  0  0  0  0  0  0  0
    4.1616   -1.3200   -0.5007 H   0  0  0  0  0  0  0  0  0  0  0  0
    2.6456   -1.7835   -1.2434 H   0  0  0  0  0  0  0  0  0  0  0  0
    2.7936   -3.0438    0.7290 H   0  0  0  0  0  0  0  0  0  0  0  0
    4.1802    0.3519    4.1944 H   0  0  0  0  0  0  0  0  0  0  0  0
    4.1402    2.8238    4.2333 H   0  0  0  0  0  0  0  0  0  0  0  0
    2.6610    2.8954    0.2045 H   0  0  0  0  0  0  0  0  0  0  0  0
  1  2  1  0  0  0  0
  1 28  1  0  0  0  0
  1 29  1  0  0  0  0
  1 30  1  0  0  0  0
  2  3  1  0  0  0  0
  2 16  1  0  0  0  0
  2 27  1  0  0  0  0
  3  4  2  0  0  0  0
  3  5  1  0  0  0  0
  5  6  1  0  0  0  0
  5 31  1  0  0  0  0
  6  7  1  0  0  0  0
  6 15  2  0  0  0  0
  7  8  2  0  0  0  0
  7 32  1  0  0  0  0
  8  9  1  0  0  0  0
  9 10  2  0  0  0  0
  9 33  1  0  0  0  0
 10 11  1  0  0  0  0
 10 15  1  0  0  0  0
 11 12  2  0  0  0  0
 11 34  1  0  0  0  0
 12 13  1  0  0  0  0
 12 35  1  0  0  0  0
 13 14  2  0  0  0  0
 13 36  1  0  0  0  0
 14 15  1  0  0  0  0
 14 37  1  0  0  0  0
 16 17  1  0  0  0  0
 16 38  1  0  0  0  0
 16 39  1  0  0  0  0
 17 18  1  0  0  0  0
 17 40  1  0  0  0  0
 18 19  2  0  0  0  0
 18 20  2  0  0  0  0
 18 21  1  0  0  0  0
 21 22  1  0  0  0  0
 21 27  2  0  0  0  0
 22 23  2  0  0  0  0
 22 41  1  0  0  0  0
 23 24  1  0  0  0  0
 23 42  1  0  0  0  0
 24 25  1  0  0  0  0
 24 26  2  0  0  0  0
 26 27  1  0  0  0  0
 26 43  1  0  0  0  0
M  END
$$$$
