
 OpenBabel07202414173D

 57 62  0  0  1  0  0  0  0  0999 V2000
    0.8224    0.1727    0.0921 Cl  0  0  0  0  0  0  0  0  0  0  0  0
    2.5395    0.0766    0.0990 C   0  0  0  0  0  0  0  0  0  0  0  0
    3.2933    1.2413    0.1012 C   0  0  0  0  0  0  0  0  0  0  0  0
    4.6803    1.1541    0.1169 C   0  0  0  0  0  0  0  0  0  0  0  0
    5.3217   -0.0971    0.1516 C   0  0  0  0  0  0  0  0  0  0  0  0
    4.5633   -1.2945    0.1528 C   0  0  0  0  0  0  0  0  0  0  0  0
    3.1600   -1.1761    0.1117 C   0  0  0  0  0  0  0  0  0  0  0  0
    5.2609   -2.6683    0.2218 C   0  0  3  0  0  0  0  0  0  0  0  0
    6.7843   -2.5418    0.0566 C   0  0  0  0  0  0  0  0  0  0  0  0
    7.3872   -1.3472    0.7030 N   0  0  0  0  0  0  0  0  0  0  0  0
    7.7338   -1.2779    2.3518 S   0  0  0  0  0  0  0  0  0  0  0  0
    8.5672   -0.1022    2.5542 O   0  0  0  0  0  0  0  0  0  0  0  0
    6.4864   -1.3559    3.0723 O   0  0  0  0  0  0  0  0  0  0  0  0
    8.7533   -2.7459    2.6401 C   0  0  0  0  0  0  0  0  0  0  0  0
   10.1054   -2.4755    2.0057 C   0  0  0  0  0  0  0  0  0  0  0  0
   10.1413   -2.4187    0.5562 C   0  0  0  0  0  0  0  0  0  0  0  0
   10.1697   -2.4120   -0.5958 N   0  0  0  0  0  0  0  0  0  0  0  0
   11.1158   -1.6488    2.7867 C   0  0  0  0  0  0  0  0  0  0  0  0
   11.3263   -3.1241    2.6471 C   0  0  0  0  0  0  0  0  0  0  0  0
    6.8312   -0.1055    0.1462 C   0  0  0  0  0  0  0  0  0  0  0  0
    4.7202   -3.6659   -0.8311 C   0  0  0  0  0  0  0  0  0  0  0  0
    3.9575   -4.6831   -0.0158 C   0  0  0  0  0  0  0  0  0  0  0  0
    3.6742   -5.7901   -0.4459 O   0  0  0  0  0  0  0  0  0  0  0  0
    3.7633   -4.1605    1.2271 N   0  0  0  0  0  0  0  0  0  0  0  0
    3.0003   -4.7247    2.2860 C   0  0  0  0  0  0  0  0  0  0  0  0
    2.6505   -6.0743    2.3053 C   0  0  0  0  0  0  0  0  0  0  0  0
    1.9814   -6.6756    3.3159 N   0  0  0  0  0  0  0  0  0  0  0  0
    1.5192   -5.8743    4.2956 C   0  0  0  0  0  0  0  0  0  0  0  0
    1.6161   -4.4872    4.2873 C   0  0  0  0  0  0  0  0  0  0  0  0
    0.8691   -3.7098    5.1883 C   0  0  0  0  0  0  0  0  0  0  0  0
    0.8990   -2.3195    5.1280 C   0  0  0  0  0  0  0  0  0  0  0  0
    1.7601   -1.7000    4.2370 C   0  0  0  0  0  0  0  0  0  0  0  0
    2.5365   -2.4697    3.3641 C   0  0  0  0  0  0  0  0  0  0  0  0
    2.4345   -3.8861    3.3002 C   0  0  0  0  0  0  0  0  0  0  0  0
    4.9149   -3.4658    1.4788 C   0  0  0  0  0  0  0  0  0  0  0  0
    5.6656   -3.6877    2.4211 O   0  0  0  0  0  0  0  0  0  0  0  0
    2.8133    2.2159    0.0921 H   0  0  0  0  0  0  0  0  0  0  0  0
    5.2678    2.0721    0.1167 H   0  0  0  0  0  0  0  0  0  0  0  0
    2.5188   -2.0539    0.1143 H   0  0  0  0  0  0  0  0  0  0  0  0
    7.0103   -2.4328   -1.0164 H   0  0  0  0  0  0  0  0  0  0  0  0
    7.3077   -3.4564    0.3479 H   0  0  0  0  0  0  0  0  0  0  0  0
    8.2683   -3.6351    2.2337 H   0  0  0  0  0  0  0  0  0  0  0  0
    8.8234   -2.8696    3.7256 H   0  0  0  0  0  0  0  0  0  0  0  0
   10.8347   -1.2631    3.7620 H   0  0  0  0  0  0  0  0  0  0  0  0
   11.7581   -0.9692    2.2334 H   0  0  0  0  0  0  0  0  0  0  0  0
   11.1941   -3.7410    3.5284 H   0  0  0  0  0  0  0  0  0  0  0  0
   12.1400   -3.4517    2.0067 H   0  0  0  0  0  0  0  0  0  0  0  0
    7.1848   -0.0005   -0.8869 H   0  0  0  0  0  0  0  0  0  0  0  0
    7.2170    0.7673    0.6848 H   0  0  0  0  0  0  0  0  0  0  0  0
    5.5202   -4.1819   -1.3731 H   0  0  0  0  0  0  0  0  0  0  0  0
    4.0357   -3.2170   -1.5576 H   0  0  0  0  0  0  0  0  0  0  0  0
    2.9062   -6.7582    1.5030 H   0  0  0  0  0  0  0  0  0  0  0  0
    1.0150   -6.3969    5.1051 H   0  0  0  0  0  0  0  0  0  0  0  0
    0.2003   -4.1867    5.9043 H   0  0  0  0  0  0  0  0  0  0  0  0
    0.2554   -1.7268    5.7714 H   0  0  0  0  0  0  0  0  0  0  0  0
    1.8191   -0.6143    4.1992 H   0  0  0  0  0  0  0  0  0  0  0  0
    3.2037   -1.9227    2.7092 H   0  0  0  0  0  0  0  0  0  0  0  0
  1  2  1  0  0  0  0
  2  3  1  0  0  0  0
  2  7  2  0  0  0  0
  3  4  2  0  0  0  0
  3 37  1  0  0  0  0
  4  5  1  0  0  0  0
  4 38  1  0  0  0  0
  5  6  2  0  0  0  0
  5 20  1  0  0  0  0
  6  7  1  0  0  0  0
  6  8  1  0  0  0  0
  7 39  1  0  0  0  0
  8  9  1  0  0  0  0
  8 21  1  0  0  0  0
  8 35  1  0  0  0  0
  9 10  1  0  0  0  0
  9 40  1  0  0  0  0
  9 41  1  0  0  0  0
 10 11  1  0  0  0  0
 10 20  1  0  0  0  0
 11 12  2  0  0  0  0
 11 13  2  0  0  0  0
 11 14  1  0  0  0  0
 14 15  1  0  0  0  0
 14 42  1  0  0  0  0
 14 43  1  0  0  0  0
 15 16  1  0  0  0  0
 15 18  1  0  0  0  0
 15 19  1  0  0  0  0
 16 17  3  0  0  0  0
 18 19  1  0  0  0  0
 18 44  1  0  0  0  0
 18 45  1  0  0  0  0
 19 46  1  0  0  0  0
 19 47  1  0  0  0  0
 20 48  1  0  0  0  0
 20 49  1  0  0  0  0
 21 22  1  0  0  0  0
 21 50  1  0  0  0  0
 21 51  1  0  0  0  0
 22 23  2  0  0  0  0
 22 24  1  0  0  0  0
 24 25  1  0  0  0  0
 24 35  1  0  0  0  0
 25 26  1  0  0  0  0
 25 34  2  0  0  0  0
 26 27  2  0  0  0  0
 26 52  1  0  0  0  0
 27 28  1  0  0  0  0
 28 29  2  0  0  0  0
 28 53  1  0  0  0  0
 29 30  1  0  0  0  0
 29 34  1  0  0  0  0
 30 31  2  0  0  0  0
 30 54  1  0  0  0  0
 31 32  1  0  0  0  0
 31 55  1  0  0  0  0
 32 33  2  0  0  0  0
 32 56  1  0  0  0  0
 33 34  1  0  0  0  0
 33 57  1  0  0  0  0
 35 36  2  0  0  0  0
M  END
$$$$
