
 OpenBabel07202414163D

 39 41  0  0  1  0  0  0  0  0999 V2000
   -2.4313    2.1055    1.4399 C   0  0  0  0  0  0  0  0  0  0  0  0
   -1.4539    1.0531    1.0052 C   0  0  0  0  0  0  0  0  0  0  0  0
   -0.0760    1.2833    1.0706 C   0  0  0  0  0  0  0  0  0  0  0  0
    0.8228    0.3039    0.6561 C   0  0  0  0  0  0  0  0  0  0  0  0
    0.3569   -0.9159    0.1718 C   0  0  0  0  0  0  0  0  0  0  0  0
   -1.0224   -1.1743    0.0935 C   0  0  0  0  0  0  0  0  0  0  0  0
   -1.5056   -2.5518   -0.3493 C   0  0  3  0  0  0  0  0  0  0  0  0
   -1.8941   -3.3309    0.9236 C   0  0  0  0  0  0  0  0  0  0  0  0
   -2.5353   -4.6258    0.7042 N   0  0  0  0  0  0  0  0  0  0  0  0
   -2.6703   -5.5844    1.7249 C   0  0  0  0  0  0  0  0  0  0  0  0
   -3.4365   -6.5411    1.5944 O   0  0  0  0  0  0  0  0  0  0  0  0
   -1.8239   -5.3717    2.9763 C   0  0  0  0  0  0  0  0  0  0  0  0
   -2.0493   -6.6779    4.1600 Cl  0  0  0  0  0  0  0  0  0  0  0  0
   -3.4755   -4.7681   -0.4025 C   0  0  0  0  0  0  0  0  0  0  0  0
   -3.4832   -3.6755   -1.4419 C   0  0  0  0  0  0  0  0  0  0  0  0
   -4.4048   -3.7863   -2.5018 C   0  0  0  0  0  0  0  0  0  0  0  0
   -4.4453   -2.8305   -3.5147 C   0  0  0  0  0  0  0  0  0  0  0  0
   -3.5699   -1.7516   -3.4823 C   0  0  0  0  0  0  0  0  0  0  0  0
   -2.6441   -1.6366   -2.4433 C   0  0  0  0  0  0  0  0  0  0  0  0
   -2.5927   -2.5876   -1.4076 C   0  0  0  0  0  0  0  0  0  0  0  0
   -1.9172   -0.1740    0.5123 C   0  0  0  0  0  0  0  0  0  0  0  0
   -1.9210    2.9753    1.8668 H   0  0  0  0  0  0  0  0  0  0  0  0
   -3.1021    1.7045    2.2063 H   0  0  0  0  0  0  0  0  0  0  0  0
   -3.0226    2.4463    0.5844 H   0  0  0  0  0  0  0  0  0  0  0  0
    0.3041    2.2284    1.4537 H   0  0  0  0  0  0  0  0  0  0  0  0
    1.8927    0.4912    0.7156 H   0  0  0  0  0  0  0  0  0  0  0  0
    1.0771   -1.6687   -0.1415 H   0  0  0  0  0  0  0  0  0  0  0  0
   -0.6609   -3.0808   -0.8153 H   0  0  0  0  0  0  0  0  0  0  0  0
   -2.5707   -2.7544    1.5635 H   0  0  0  0  0  0  0  0  0  0  0  0
   -0.9795   -3.4945    1.5079 H   0  0  0  0  0  0  0  0  0  0  0  0
   -2.1078   -4.4369    3.4666 H   0  0  0  0  0  0  0  0  0  0  0  0
   -0.7650   -5.3597    2.7082 H   0  0  0  0  0  0  0  0  0  0  0  0
   -4.4858   -4.8488    0.0200 H   0  0  0  0  0  0  0  0  0  0  0  0
   -3.2395   -5.7195   -0.8960 H   0  0  0  0  0  0  0  0  0  0  0  0
   -5.0888   -4.6308   -2.5449 H   0  0  0  0  0  0  0  0  0  0  0  0
   -5.1485   -2.9371   -4.3366 H   0  0  0  0  0  0  0  0  0  0  0  0
   -3.5901   -1.0089   -4.2753 H   0  0  0  0  0  0  0  0  0  0  0  0
   -1.9507   -0.7973   -2.4599 H   0  0  0  0  0  0  0  0  0  0  0  0
   -2.9920   -0.3546    0.4642 H   0  0  0  0  0  0  0  0  0  0  0  0
  1  2  1  0  0  0  0
  1 22  1  0  0  0  0
  1 23  1  0  0  0  0
  1 24  1  0  0  0  0
  2  3  1  0  0  0  0
  2 21  2  0  0  0  0
  3  4  2  0  0  0  0
  3 25  1  0  0  0  0
  4  5  1  0  0  0  0
  4 26  1  0  0  0  0
  5  6  2  0  0  0  0
  5 27  1  0  0  0  0
  6  7  1  0  0  0  0
  6 21  1  0  0  0  0
  7  8  1  0  0  0  0
  7 20  1  0  0  0  0
  7 28  1  0  0  0  0
  8  9  1  0  0  0  0
  8 29  1  0  0  0  0
  8 30  1  0  0  0  0
  9 10  1  0  0  0  0
  9 14  1  0  0  0  0
 10 11  2  0  0  0  0
 10 12  1  0  0  0  0
 12 13  1  0  0  0  0
 12 31  1  0  0  0  0
 12 32  1  0  0  0  0
 14 15  1  0  0  0  0
 14 33  1  0  0  0  0
 14 34  1  0  0  0  0
 15 16  1  0  0  0  0
 15 20  2  0  0  0  0
 16 17  2  0  0  0  0
 16 35  1  0  0  0  0
 17 18  1  0  0  0  0
 17 36  1  0  0  0  0
 18 19  2  0  0  0  0
 18 37  1  0  0  0  0
 19 20  1  0  0  0  0
 19 38  1  0  0  0  0
 21 39  1  0  0  0  0
M  END
$$$$
