
 OpenBabel07202414153D

 45 48  0  0  1  0  0  0  0  0999 V2000
    2.1192   -0.7186    0.7375 C   0  0  0  0  0  0  0  0  0  0  0  0
    2.1685    0.0870    2.3203 S   0  0  0  0  0  0  0  0  0  0  0  0
    0.8052    0.3223    2.7447 O   0  0  0  0  0  0  0  0  0  0  0  0
    3.0948   -0.6385    3.1707 O   0  0  0  0  0  0  0  0  0  0  0  0
    2.9017    1.6752    1.9860 C   0  0  0  0  0  0  0  0  0  0  0  0
    2.0535    2.7322    1.6690 C   0  0  0  0  0  0  0  0  0  0  0  0
    2.5849    4.0090    1.4713 C   0  0  0  0  0  0  0  0  0  0  0  0
    3.9715    4.2556    1.4788 C   0  0  0  0  0  0  0  0  0  0  0  0
    4.5443    5.5220    1.1943 C   0  0  0  0  0  0  0  0  0  0  0  0
    3.7970    6.6735    0.8010 N   0  0  0  0  0  0  0  0  0  0  0  0
    3.0058    6.7507   -0.3442 C   0  0  0  0  0  0  0  0  0  0  0  0
    2.8765    5.8425   -1.1543 O   0  0  0  0  0  0  0  0  0  0  0  0
    2.2999    8.1073   -0.5894 C   0  0  3  0  0  0  0  0  0  0  0  0
    3.1213    9.1069   -1.4087 C   0  0  0  0  0  0  0  0  0  0  0  0
    3.9596   10.0043   -0.5160 C   0  0  0  0  0  0  0  0  0  0  0  0
    3.1800   10.7186    0.4450 O   0  0  0  0  0  0  0  0  0  0  0  0
    2.2391    9.9844    1.1090 C   0  0  0  0  0  0  0  0  0  0  0  0
    1.7123   10.5656    2.2644 C   0  0  0  0  0  0  0  0  0  0  0  0
    0.7369    9.8988    3.0086 C   0  0  0  0  0  0  0  0  0  0  0  0
    0.2717    8.6599    2.5793 C   0  0  0  0  0  0  0  0  0  0  0  0
   -0.9212    7.8235    3.4911 Cl  0  0  0  0  0  0  0  0  0  0  0  0
    0.7698    8.0894    1.4099 C   0  0  0  0  0  0  0  0  0  0  0  0
    1.7696    8.7437    0.6708 C   0  0  0  0  0  0  0  0  0  0  0  0
    5.9159    5.6603    1.3978 C   0  0  0  0  0  0  0  0  0  0  0  0
    6.7439    4.6641    1.7818 N   0  0  0  0  0  0  0  0  0  0  0  0
    6.1832    3.4494    1.9918 C   0  0  0  0  0  0  0  0  0  0  0  0
    4.8138    3.1775    1.8634 C   0  0  0  0  0  0  0  0  0  0  0  0
    4.2772    1.8923    2.1198 C   0  0  0  0  0  0  0  0  0  0  0  0
    1.6057   -1.6779    0.8629 H   0  0  0  0  0  0  0  0  0  0  0  0
    3.1348   -0.8962    0.3812 H   0  0  0  0  0  0  0  0  0  0  0  0
    1.5610   -0.0978    0.0351 H   0  0  0  0  0  0  0  0  0  0  0  0
    0.9816    2.5972    1.5835 H   0  0  0  0  0  0  0  0  0  0  0  0
    1.8786    4.8174    1.3054 H   0  0  0  0  0  0  0  0  0  0  0  0
    4.0770    7.5503    1.2263 H   0  0  0  0  0  0  0  0  0  0  0  0
    1.4237    7.8609   -1.2067 H   0  0  0  0  0  0  0  0  0  0  0  0
    2.4205    9.7516   -1.9610 H   0  0  0  0  0  0  0  0  0  0  0  0
    3.7477    8.6056   -2.1529 H   0  0  0  0  0  0  0  0  0  0  0  0
    4.4662   10.7553   -1.1333 H   0  0  0  0  0  0  0  0  0  0  0  0
    4.7423    9.4446    0.0073 H   0  0  0  0  0  0  0  0  0  0  0  0
    2.0636   11.5425    2.5883 H   0  0  0  0  0  0  0  0  0  0  0  0
    0.3415   10.3529    3.9132 H   0  0  0  0  0  0  0  0  0  0  0  0
    0.3731    7.1355    1.0678 H   0  0  0  0  0  0  0  0  0  0  0  0
    6.4187    6.6047    1.2139 H   0  0  0  0  0  0  0  0  0  0  0  0
    6.8831    2.6811    2.2910 H   0  0  0  0  0  0  0  0  0  0  0  0
    4.9267    1.0702    2.4238 H   0  0  0  0  0  0  0  0  0  0  0  0
  1  2  1  0  0  0  0
  1 29  1  0  0  0  0
  1 30  1  0  0  0  0
  1 31  1  0  0  0  0
  2  3  2  0  0  0  0
  2  4  2  0  0  0  0
  2  5  1  0  0  0  0
  5  6  1  0  0  0  0
  5 28  2  0  0  0  0
  6  7  2  0  0  0  0
  6 32  1  0  0  0  0
  7  8  1  0  0  0  0
  7 33  1  0  0  0  0
  8  9  1  0  0  0  0
  8 27  2  0  0  0  0
  9 10  1  0  0  0  0
  9 24  2  0  0  0  0
 10 11  1  0  0  0  0
 10 34  1  0  0  0  0
 11 12  2  0  0  0  0
 11 13  1  0  0  0  0
 13 14  1  0  0  0  0
 13 23  1  0  0  0  0
 13 35  1  0  0  0  0
 14 15  1  0  0  0  0
 14 36  1  0  0  0  0
 14 37  1  0  0  0  0
 15 16  1  0  0  0  0
 15 38  1  0  0  0  0
 15 39  1  0  0  0  0
 16 17  1  0  0  0  0
 17 18  1  0  0  0  0
 17 23  2  0  0  0  0
 18 19  2  0  0  0  0
 18 40  1  0  0  0  0
 19 20  1  0  0  0  0
 19 41  1  0  0  0  0
 20 21  1  0  0  0  0
 20 22  2  0  0  0  0
 22 23  1  0  0  0  0
 22 42  1  0  0  0  0
 24 25  1  0  0  0  0
 24 43  1  0  0  0  0
 25 26  2  0  0  0  0
 26 27  1  0  0  0  0
 26 44  1  0  0  0  0
 27 28  1  0  0  0  0
 28 45  1  0  0  0  0
M  END
$$$$
