
 OpenBabel07202414143D

 57 60  0  0  1  0  0  0  0  0999 V2000
    2.7611    2.4961    2.6782 C   0  0  0  0  0  0  0  0  0  0  0  0
    3.6576    1.3724    2.5634 N   0  0  0  0  0  0  0  0  0  0  0  0
    3.5996    0.5647    1.4500 C   0  0  0  0  0  0  0  0  0  0  0  0
    2.7816    0.7445    0.5470 O   0  0  0  0  0  0  0  0  0  0  0  0
    4.7137   -0.4744    1.3127 C   0  0  0  0  0  0  0  0  0  0  0  0
    5.2811   -1.0535    2.5371 N   0  0  0  0  0  0  0  0  0  0  0  0
    4.7066   -2.2807    3.1046 C   0  0  0  0  0  0  0  0  0  0  0  0
    5.7189   -3.4574    3.2081 C   0  0  3  0  0  0  0  0  0  0  0  0
    5.9196   -4.0863    1.8214 C   0  0  0  0  0  0  0  0  0  0  0  0
    5.5438   -3.4677    0.8108 O   0  0  0  0  0  0  0  0  0  0  0  0
    6.3497   -5.3303    1.5015 N   0  0  0  0  0  0  0  0  0  0  0  0
    7.0454   -6.4827    1.9292 C   0  0  0  0  0  0  0  0  0  0  0  0
    7.9347   -6.5585    3.0033 C   0  0  0  0  0  0  0  0  0  0  0  0
    8.9730   -7.4201    3.0648 N   0  0  0  0  0  0  0  0  0  0  0  0
    9.0162   -8.3508    2.1113 C   0  0  0  0  0  0  0  0  0  0  0  0
    7.9120   -8.6777    1.3414 C   0  0  0  0  0  0  0  0  0  0  0  0
    7.7292   -9.9511    0.8027 C   0  0  0  0  0  0  0  0  0  0  0  0
    6.6437  -10.1948   -0.0286 C   0  0  0  0  0  0  0  0  0  0  0  0
    5.8250   -9.1324   -0.3960 C   0  0  0  0  0  0  0  0  0  0  0  0
    4.8173   -9.3014   -1.3804 N   0  0  0  0  0  0  0  0  0  0  0  0
    5.3566   -9.4939   -2.9888 S   0  0  0  0  0  0  0  0  0  0  0  0
    5.0270   -7.8990   -3.6755 C   0  0  0  0  0  0  0  0  0  0  0  0
    6.7805   -9.7311   -3.0291 O   0  0  0  0  0  0  0  0  0  0  0  0
    4.4216  -10.4168   -3.5892 O   0  0  0  0  0  0  0  0  0  0  0  0
    5.9649   -7.8796    0.1774 C   0  0  0  0  0  0  0  0  0  0  0  0
    6.9718   -7.6506    1.1292 C   0  0  0  0  0  0  0  0  0  0  0  0
    6.9780   -2.8953    3.8250 C   0  0  0  0  0  0  0  0  0  0  0  0
    7.7910   -3.7226    4.5929 C   0  0  0  0  0  0  0  0  0  0  0  0
    9.1110   -3.3849    4.8618 C   0  0  0  0  0  0  0  0  0  0  0  0
   10.1830   -4.5760    5.4823 Cl  0  0  0  0  0  0  0  0  0  0  0  0
    9.5613   -2.1067    4.5763 C   0  0  0  0  0  0  0  0  0  0  0  0
    8.6745   -1.1751    4.0287 C   0  0  0  0  0  0  0  0  0  0  0  0
    7.3858   -1.5670    3.6330 C   0  0  0  0  0  0  0  0  0  0  0  0
    6.4946   -0.5695    2.9843 C   0  0  0  0  0  0  0  0  0  0  0  0
    6.8512    0.5916    2.8249 O   0  0  0  0  0  0  0  0  0  0  0  0
    2.9504    3.0130    3.6208 H   0  0  0  0  0  0  0  0  0  0  0  0
    1.7283    2.1352    2.6521 H   0  0  0  0  0  0  0  0  0  0  0  0
    2.9180    3.1800    1.8377 H   0  0  0  0  0  0  0  0  0  0  0  0
    4.5351    1.3761    3.0766 H   0  0  0  0  0  0  0  0  0  0  0  0
    5.5221    0.0107    0.7502 H   0  0  0  0  0  0  0  0  0  0  0  0
    4.3310   -1.2901    0.6932 H   0  0  0  0  0  0  0  0  0  0  0  0
    3.8011   -2.5551    2.5515 H   0  0  0  0  0  0  0  0  0  0  0  0
    4.3888   -2.0088    4.1208 H   0  0  0  0  0  0  0  0  0  0  0  0
    5.2720   -4.2235    3.8527 H   0  0  0  0  0  0  0  0  0  0  0  0
    6.2244   -5.3752    0.4934 H   0  0  0  0  0  0  0  0  0  0  0  0
    7.9371   -5.9269    3.8517 H   0  0  0  0  0  0  0  0  0  0  0  0
   10.0022   -8.7390    1.8731 H   0  0  0  0  0  0  0  0  0  0  0  0
    8.3780  -10.7762    1.0964 H   0  0  0  0  0  0  0  0  0  0  0  0
    6.4583  -11.1982   -0.4007 H   0  0  0  0  0  0  0  0  0  0  0  0
    4.1392  -10.0388   -1.1729 H   0  0  0  0  0  0  0  0  0  0  0  0
    5.6481   -7.1600   -3.1718 H   0  0  0  0  0  0  0  0  0  0  0  0
    3.9684   -7.6723   -3.5630 H   0  0  0  0  0  0  0  0  0  0  0  0
    5.2805   -7.9500   -4.7398 H   0  0  0  0  0  0  0  0  0  0  0  0
    5.2457   -7.1046   -0.0714 H   0  0  0  0  0  0  0  0  0  0  0  0
    7.3797   -4.6529    4.9634 H   0  0  0  0  0  0  0  0  0  0  0  0
   10.5874   -1.8269    4.7965 H   0  0  0  0  0  0  0  0  0  0  0  0
    9.0104   -0.1521    3.8748 H   0  0  0  0  0  0  0  0  0  0  0  0
  1  2  1  0  0  0  0
  1 36  1  0  0  0  0
  1 37  1  0  0  0  0
  1 38  1  0  0  0  0
  2  3  1  0  0  0  0
  2 39  1  0  0  0  0
  3  4  2  0  0  0  0
  3  5  1  0  0  0  0
  5  6  1  0  0  0  0
  5 40  1  0  0  0  0
  5 41  1  0  0  0  0
  6  7  1  0  0  0  0
  6 34  1  0  0  0  0
  7  8  1  0  0  0  0
  7 42  1  0  0  0  0
  7 43  1  0  0  0  0
  8  9  1  0  0  0  0
  8 27  1  0  0  0  0
  8 44  1  0  0  0  0
  9 10  2  0  0  0  0
  9 11  1  0  0  0  0
 11 12  1  0  0  0  0
 11 45  1  0  0  0  0
 12 13  1  0  0  0  0
 12 26  2  0  0  0  0
 13 14  2  0  0  0  0
 13 46  1  0  0  0  0
 14 15  1  0  0  0  0
 15 16  2  0  0  0  0
 15 47  1  0  0  0  0
 16 17  1  0  0  0  0
 16 26  1  0  0  0  0
 17 18  2  0  0  0  0
 17 48  1  0  0  0  0
 18 19  1  0  0  0  0
 18 49  1  0  0  0  0
 19 20  1  0  0  0  0
 19 25  2  0  0  0  0
 20 21  1  0  0  0  0
 20 50  1  0  0  0  0
 21 22  1  0  0  0  0
 21 23  2  0  0  0  0
 21 24  2  0  0  0  0
 22 51  1  0  0  0  0
 22 52  1  0  0  0  0
 22 53  1  0  0  0  0
 25 26  1  0  0  0  0
 25 54  1  0  0  0  0
 27 28  1  0  0  0  0
 27 33  2  0  0  0  0
 28 29  2  0  0  0  0
 28 55  1  0  0  0  0
 29 30  1  0  0  0  0
 29 31  1  0  0  0  0
 31 32  2  0  0  0  0
 31 56  1  0  0  0  0
 32 33  1  0  0  0  0
 32 57  1  0  0  0  0
 33 34  1  0  0  0  0
 34 35  2  0  0  0  0
M  END
$$$$
