
 OpenBabel07202414143D

 57 60  0  0  0  0  0  0  0  0999 V2000
    2.1722   -1.8261   -0.7675 C   0  0  0  0  0  0  0  0  0  0  0  0
    3.5695   -1.7430   -0.5178 O   0  0  0  0  0  0  0  0  0  0  0  0
    4.0025   -2.0297    0.7517 C   0  0  0  0  0  0  0  0  0  0  0  0
    3.2691   -2.8258    1.6414 C   0  0  0  0  0  0  0  0  0  0  0  0
    3.7899   -3.1597    2.8917 C   0  0  0  0  0  0  0  0  0  0  0  0
    5.0646   -2.7310    3.2578 C   0  0  0  0  0  0  0  0  0  0  0  0
    5.8408   -1.9718    2.3621 C   0  0  0  0  0  0  0  0  0  0  0  0
    7.2699   -1.6376    2.7391 C   0  0  0  0  0  0  0  0  0  0  0  0
    7.3508   -0.3565    3.4377 N   0  0  0  0  0  0  0  0  0  0  0  0
    8.6186    0.0500    3.8897 C   0  0  0  0  0  0  0  0  0  0  0  0
    8.8988    1.4220    4.0009 C   0  0  0  0  0  0  0  0  0  0  0  0
   10.1284    1.8875    4.5004 C   0  0  0  0  0  0  0  0  0  0  0  0
   10.4165    3.3654    4.5904 C   0  0  0  0  0  0  0  0  0  0  0  0
   10.0404    4.0680    5.8841 C   0  0  0  0  0  0  0  0  0  0  0  0
   10.4587    5.2061    6.1006 O   0  0  0  0  0  0  0  0  0  0  0  0
    9.2166    3.3709    6.7545 N   0  0  0  0  0  0  0  0  0  0  0  0
    8.8279    3.9574    7.9844 C   0  0  0  0  0  0  0  0  0  0  0  0
    8.2046    5.2041    8.0055 C   0  0  0  0  0  0  0  0  0  0  0  0
    7.8187    5.8418    9.1308 N   0  0  0  0  0  0  0  0  0  0  0  0
    8.2135    5.2774   10.2908 C   0  0  0  0  0  0  0  0  0  0  0  0
    8.9558    4.0961   10.3874 C   0  0  0  0  0  0  0  0  0  0  0  0
    9.5448    3.6912   11.5934 C   0  0  0  0  0  0  0  0  0  0  0  0
   10.2716    2.5047   11.6635 C   0  0  0  0  0  0  0  0  0  0  0  0
   10.3268    1.6627   10.5604 C   0  0  0  0  0  0  0  0  0  0  0  0
    9.7709    2.0694    9.3461 C   0  0  0  0  0  0  0  0  0  0  0  0
    9.1566    3.3398    9.2128 C   0  0  0  0  0  0  0  0  0  0  0  0
   11.0758    0.9584    4.9525 C   0  0  0  0  0  0  0  0  0  0  0  0
   10.7896   -0.4015    4.8915 C   0  0  0  0  0  0  0  0  0  0  0  0
   11.9437   -1.5387    5.4722 Cl  0  0  0  0  0  0  0  0  0  0  0  0
    9.5750   -0.8509    4.3819 C   0  0  0  0  0  0  0  0  0  0  0  0
    5.2859   -1.5780    1.1263 C   0  0  0  0  0  0  0  0  0  0  0  0
    6.1060   -0.8046    0.3373 O   0  0  0  0  0  0  0  0  0  0  0  0
    5.4601    0.2221   -0.4109 C   0  0  0  0  0  0  0  0  0  0  0  0
    1.9953   -1.4568   -1.7825 H   0  0  0  0  0  0  0  0  0  0  0  0
    1.6103   -1.1891   -0.0764 H   0  0  0  0  0  0  0  0  0  0  0  0
    1.8189   -2.8611   -0.7321 H   0  0  0  0  0  0  0  0  0  0  0  0
    2.2964   -3.2288    1.3795 H   0  0  0  0  0  0  0  0  0  0  0  0
    3.2143   -3.7836    3.5715 H   0  0  0  0  0  0  0  0  0  0  0  0
    5.4674   -3.0192    4.2203 H   0  0  0  0  0  0  0  0  0  0  0  0
    7.9077   -1.6335    1.8470 H   0  0  0  0  0  0  0  0  0  0  0  0
    7.6301   -2.4596    3.3726 H   0  0  0  0  0  0  0  0  0  0  0  0
    6.9023    0.3666    2.8760 H   0  0  0  0  0  0  0  0  0  0  0  0
    8.1487    2.1430    3.6801 H   0  0  0  0  0  0  0  0  0  0  0  0
    9.9000    3.8888    3.7779 H   0  0  0  0  0  0  0  0  0  0  0  0
   11.4911    3.5225    4.4293 H   0  0  0  0  0  0  0  0  0  0  0  0
    9.3313    2.3655    6.7430 H   0  0  0  0  0  0  0  0  0  0  0  0
    7.9879    5.7393    7.0855 H   0  0  0  0  0  0  0  0  0  0  0  0
    7.9211    5.8289   11.1797 H   0  0  0  0  0  0  0  0  0  0  0  0
    9.5013    4.3383   12.4658 H   0  0  0  0  0  0  0  0  0  0  0  0
   10.7937    2.2400   12.5792 H   0  0  0  0  0  0  0  0  0  0  0  0
   10.8386    0.7064   10.6290 H   0  0  0  0  0  0  0  0  0  0  0  0
    9.8559    1.3932    8.5014 H   0  0  0  0  0  0  0  0  0  0  0  0
   12.0290    1.2951    5.3508 H   0  0  0  0  0  0  0  0  0  0  0  0
    9.3817   -1.9138    4.3917 H   0  0  0  0  0  0  0  0  0  0  0  0
    6.1894    1.0218   -0.5739 H   0  0  0  0  0  0  0  0  0  0  0  0
    4.6077    0.6592    0.1214 H   0  0  0  0  0  0  0  0  0  0  0  0
    5.1655   -0.1505   -1.3963 H   0  0  0  0  0  0  0  0  0  0  0  0
  1  2  1  0  0  0  0
  1 34  1  0  0  0  0
  1 35  1  0  0  0  0
  1 36  1  0  0  0  0
  2  3  1  0  0  0  0
  3  4  2  0  0  0  0
  3 31  1  0  0  0  0
  4  5  1  0  0  0  0
  4 37  1  0  0  0  0
  5  6  2  0  0  0  0
  5 38  1  0  0  0  0
  6  7  1  0  0  0  0
  6 39  1  0  0  0  0
  7  8  1  0  0  0  0
  7 31  2  0  0  0  0
  8  9  1  0  0  0  0
  8 40  1  0  0  0  0
  8 41  1  0  0  0  0
  9 10  1  0  0  0  0
  9 42  1  0  0  0  0
 10 11  2  0  0  0  0
 10 30  1  0  0  0  0
 11 12  1  0  0  0  0
 11 43  1  0  0  0  0
 12 13  1  0  0  0  0
 12 27  2  0  0  0  0
 13 14  1  0  0  0  0
 13 44  1  0  0  0  0
 13 45  1  0  0  0  0
 14 15  2  0  0  0  0
 14 16  1  0  0  0  0
 16 17  1  0  0  0  0
 16 46  1  0  0  0  0
 17 18  2  0  0  0  0
 17 26  1  0  0  0  0
 18 19  1  0  0  0  0
 18 47  1  0  0  0  0
 19 20  2  0  0  0  0
 20 21  1  0  0  0  0
 20 48  1  0  0  0  0
 21 22  2  0  0  0  0
 21 26  1  0  0  0  0
 22 23  1  0  0  0  0
 22 49  1  0  0  0  0
 23 24  2  0  0  0  0
 23 50  1  0  0  0  0
 24 25  1  0  0  0  0
 24 51  1  0  0  0  0
 25 26  2  0  0  0  0
 25 52  1  0  0  0  0
 27 28  1  0  0  0  0
 27 53  1  0  0  0  0
 28 29  1  0  0  0  0
 28 30  2  0  0  0  0
 30 54  1  0  0  0  0
 31 32  1  0  0  0  0
 32 33  1  0  0  0  0
 33 55  1  0  0  0  0
 33 56  1  0  0  0  0
 33 57  1  0  0  0  0
M  END
$$$$
