
 OpenBabel07202414113D

 45 47  0  0  1  0  0  0  0  0999 V2000
    3.7482   -2.5155   -2.8546 C   0  0  0  0  0  0  0  0  0  0  0  0
    3.4048   -1.2501   -2.6012 C   0  0  0  0  0  0  0  0  0  0  0  0
    3.7073   -0.6428   -1.2739 C   0  0  0  0  0  0  0  0  0  0  0  0
    3.0344   -1.0473   -0.3319 O   0  0  0  0  0  0  0  0  0  0  0  0
    4.6698    0.3923   -1.2362 N   0  0  0  0  0  0  0  0  0  0  0  0
    5.0135    1.0190    0.0357 C   0  0  0  0  0  0  0  0  0  0  0  0
    4.8446    0.3467    1.2580 C   0  0  0  0  0  0  0  0  0  0  0  0
    5.2509    0.9060    2.4803 C   0  0  0  0  0  0  0  0  0  0  0  0
    5.8473    2.1582    2.5092 C   0  0  0  0  0  0  0  0  0  0  0  0
    6.0105    2.8635    1.3271 C   0  0  0  0  0  0  0  0  0  0  0  0
    5.5858    2.3033    0.1144 C   0  0  0  0  0  0  0  0  0  0  0  0
    6.5141    2.9657    4.2968 I   0  0  0  0  0  0  0  0  0  0  0  0
    5.3974    0.7833   -2.4848 C   0  0  3  0  0  0  0  0  0  0  0  0
    5.1560    2.1902   -2.9779 C   0  0  0  0  0  0  0  0  0  0  0  0
    6.0854    2.9227   -3.6921 C   0  0  0  0  0  0  0  0  0  0  0  0
    5.8754    4.1835   -4.1171 N   0  0  0  0  0  0  0  0  0  0  0  0
    4.6715    4.7063   -3.8445 C   0  0  0  0  0  0  0  0  0  0  0  0
    3.6739    4.0803   -3.2093 N   0  0  0  0  0  0  0  0  0  0  0  0
    3.9360    2.8247   -2.8019 C   0  0  0  0  0  0  0  0  0  0  0  0
    6.8654    0.2649   -2.5546 C   0  0  0  0  0  0  0  0  0  0  0  0
    7.1914   -0.4547   -3.5026 O   0  0  0  0  0  0  0  0  0  0  0  0
    7.7434    0.6984   -1.5773 N   0  0  0  0  0  0  0  0  0  0  0  0
    9.1168    0.3826   -1.4775 C   0  0  0  0  0  0  0  0  0  0  0  0
    9.8639   -0.1585   -2.5264 C   0  0  0  0  0  0  0  0  0  0  0  0
   11.1959   -0.5359   -2.3305 C   0  0  0  0  0  0  0  0  0  0  0  0
   11.7910   -0.3607   -1.0855 C   0  0  0  0  0  0  0  0  0  0  0  0
   11.0760    0.2288   -0.0453 C   0  0  0  0  0  0  0  0  0  0  0  0
    9.7460    0.6117   -0.2455 C   0  0  0  0  0  0  0  0  0  0  0  0
   13.4080   -0.8857   -0.8292 Cl  0  0  0  0  0  0  0  0  0  0  0  0
    3.5125   -2.9734   -3.8120 H   0  0  0  0  0  0  0  0  0  0  0  0
    4.2510   -3.1334   -2.1126 H   0  0  0  0  0  0  0  0  0  0  0  0
    2.8699   -0.6378   -3.3166 H   0  0  0  0  0  0  0  0  0  0  0  0
    4.4301   -0.6570    1.3106 H   0  0  0  0  0  0  0  0  0  0  0  0
    5.1009    0.3359    3.3942 H   0  0  0  0  0  0  0  0  0  0  0  0
    6.4645    3.8523    1.3207 H   0  0  0  0  0  0  0  0  0  0  0  0
    5.7370    2.9369   -0.7500 H   0  0  0  0  0  0  0  0  0  0  0  0
    4.9556    0.2194   -3.3119 H   0  0  0  0  0  0  0  0  0  0  0  0
    7.0625    2.5255   -3.9571 H   0  0  0  0  0  0  0  0  0  0  0  0
    4.4893    5.7259   -4.1654 H   0  0  0  0  0  0  0  0  0  0  0  0
    3.1076    2.3424   -2.2863 H   0  0  0  0  0  0  0  0  0  0  0  0
    7.3548    1.1292   -0.7524 H   0  0  0  0  0  0  0  0  0  0  0  0
    9.4403   -0.3036   -3.5154 H   0  0  0  0  0  0  0  0  0  0  0  0
   11.7520   -0.9781   -3.1529 H   0  0  0  0  0  0  0  0  0  0  0  0
   11.5429    0.3748    0.9255 H   0  0  0  0  0  0  0  0  0  0  0  0
    9.2052    1.0536    0.5884 H   0  0  0  0  0  0  0  0  0  0  0  0
  1  2  2  0  0  0  0
  1 30  1  0  0  0  0
  1 31  1  0  0  0  0
  2  3  1  0  0  0  0
  2 32  1  0  0  0  0
  3  4  2  0  0  0  0
  3  5  1  0  0  0  0
  5  6  1  0  0  0  0
  5 13  1  0  0  0  0
  6  7  1  0  0  0  0
  6 11  2  0  0  0  0
  7  8  2  0  0  0  0
  7 33  1  0  0  0  0
  8  9  1  0  0  0  0
  8 34  1  0  0  0  0
  9 10  2  0  0  0  0
  9 12  1  0  0  0  0
 10 11  1  0  0  0  0
 10 35  1  0  0  0  0
 11 36  1  0  0  0  0
 13 14  1  0  0  0  0
 13 20  1  0  0  0  0
 13 37  1  0  0  0  0
 14 15  1  0  0  0  0
 14 19  2  0  0  0  0
 15 16  2  0  0  0  0
 15 38  1  0  0  0  0
 16 17  1  0  0  0  0
 17 18  2  0  0  0  0
 17 39  1  0  0  0  0
 18 19  1  0  0  0  0
 19 40  1  0  0  0  0
 20 21  2  0  0  0  0
 20 22  1  0  0  0  0
 22 23  1  0  0  0  0
 22 41  1  0  0  0  0
 23 24  1  0  0  0  0
 23 28  2  0  0  0  0
 24 25  2  0  0  0  0
 24 42  1  0  0  0  0
 25 26  1  0  0  0  0
 25 43  1  0  0  0  0
 26 27  2  0  0  0  0
 26 29  1  0  0  0  0
 27 28  1  0  0  0  0
 27 44  1  0  0  0  0
 28 45  1  0  0  0  0
M  END
$$$$
