
 OpenBabel07202414183D

 38 41  0  0  1  0  0  0  0  0999 V2000
    1.1017    0.1063   -0.1241 Cl  0  0  0  0  0  0  0  0  0  0  0  0
    2.8162    0.0114   -0.0403 C   0  0  0  0  0  0  0  0  0  0  0  0
    3.5807    1.1691   -0.1630 C   0  0  0  0  0  0  0  0  0  0  0  0
    4.9725    1.0894   -0.0999 C   0  0  0  0  0  0  0  0  0  0  0  0
    5.5963   -0.1408    0.1079 C   0  0  0  0  0  0  0  0  0  0  0  0
    4.8313   -1.3062    0.2474 C   0  0  0  0  0  0  0  0  0  0  0  0
    3.4320   -1.2233    0.1647 C   0  0  0  0  0  0  0  0  0  0  0  0
    5.5012   -2.6248    0.5752 C   0  0  2  0  0  0  0  0  0  0  0  0
    5.4312   -3.0064    2.0706 C   0  0  0  0  0  0  0  0  0  0  0  0
    5.5000   -4.1867    2.4133 O   0  0  0  0  0  0  0  0  0  0  0  0
    5.3654   -1.9318    2.9363 N   0  0  0  0  0  0  0  0  0  0  0  0
    5.1358   -1.9320    4.3337 C   0  0  0  0  0  0  0  0  0  0  0  0
    4.9465   -3.0892    5.0823 C   0  0  0  0  0  0  0  0  0  0  0  0
    4.4633   -3.1018    6.3491 N   0  0  0  0  0  0  0  0  0  0  0  0
    4.2383   -1.9051    6.9260 C   0  0  0  0  0  0  0  0  0  0  0  0
    4.5725   -0.6847    6.3356 C   0  0  0  0  0  0  0  0  0  0  0  0
    4.4923    0.5303    7.0348 C   0  0  0  0  0  0  0  0  0  0  0  0
    4.7898    1.7309    6.4972 N   0  0  0  0  0  0  0  0  0  0  0  0
    5.1776    1.7367    5.2091 C   0  0  0  0  0  0  0  0  0  0  0  0
    5.2981    0.5904    4.4374 C   0  0  0  0  0  0  0  0  0  0  0  0
    5.0107   -0.6782    5.0059 C   0  0  0  0  0  0  0  0  0  0  0  0
    6.9464   -2.5729    0.0889 C   0  0  0  0  0  0  0  0  0  0  0  0
    7.6198   -1.3051    0.5894 C   0  0  0  0  0  0  0  0  0  0  0  0
    6.9595   -0.1078    0.1717 O   0  0  0  0  0  0  0  0  0  0  0  0
    3.1022    2.1341   -0.3109 H   0  0  0  0  0  0  0  0  0  0  0  0
    5.5715    1.9907   -0.2040 H   0  0  0  0  0  0  0  0  0  0  0  0
    2.8217   -2.1178    0.2715 H   0  0  0  0  0  0  0  0  0  0  0  0
    4.9779   -3.4188    0.0190 H   0  0  0  0  0  0  0  0  0  0  0  0
    5.2913   -1.0261    2.5069 H   0  0  0  0  0  0  0  0  0  0  0  0
    5.1509   -4.0808    4.6880 H   0  0  0  0  0  0  0  0  0  0  0  0
    3.7631   -1.9517    7.9015 H   0  0  0  0  0  0  0  0  0  0  0  0
    4.2070    0.5623    8.0793 H   0  0  0  0  0  0  0  0  0  0  0  0
    5.4059    2.7136    4.7949 H   0  0  0  0  0  0  0  0  0  0  0  0
    5.6450    0.7074    3.4182 H   0  0  0  0  0  0  0  0  0  0  0  0
    6.9532   -2.5629   -1.0100 H   0  0  0  0  0  0  0  0  0  0  0  0
    7.5076   -3.4560    0.4152 H   0  0  0  0  0  0  0  0  0  0  0  0
    8.6420   -1.2604    0.1979 H   0  0  0  0  0  0  0  0  0  0  0  0
    7.7037   -1.2928    1.6821 H   0  0  0  0  0  0  0  0  0  0  0  0
  1  2  1  0  0  0  0
  2  3  1  0  0  0  0
  2  7  2  0  0  0  0
  3  4  2  0  0  0  0
  3 25  1  0  0  0  0
  4  5  1  0  0  0  0
  4 26  1  0  0  0  0
  5  6  2  0  0  0  0
  5 24  1  0  0  0  0
  6  7  1  0  0  0  0
  6  8  1  0  0  0  0
  7 27  1  0  0  0  0
  8  9  1  0  0  0  0
  8 22  1  0  0  0  0
  8 28  1  6  0  0  0
  9 10  2  0  0  0  0
  9 11  1  0  0  0  0
 11 12  1  0  0  0  0
 11 29  1  0  0  0  0
 12 13  1  0  0  0  0
 12 21  2  0  0  0  0
 13 14  2  0  0  0  0
 13 30  1  0  0  0  0
 14 15  1  0  0  0  0
 15 16  2  0  0  0  0
 15 31  1  0  0  0  0
 16 17  1  0  0  0  0
 16 21  1  0  0  0  0
 17 18  2  0  0  0  0
 17 32  1  0  0  0  0
 18 19  1  0  0  0  0
 19 20  2  0  0  0  0
 19 33  1  0  0  0  0
 20 21  1  0  0  0  0
 20 34  1  0  0  0  0
 22 23  1  0  0  0  0
 22 35  1  0  0  0  0
 22 36  1  0  0  0  0
 23 24  1  0  0  0  0
 23 37  1  0  0  0  0
 23 38  1  0  0  0  0
M  END
$$$$
