
 OpenBabel07202414153D

 41 43  0  0  0  0  0  0  0  0999 V2000
    0.9797    1.5785   -1.4361 C   0  0  0  0  0  0  0  0  0  0  0  0
    2.3986    1.5769   -1.5409 O   0  0  0  0  0  0  0  0  0  0  0  0
    2.9947    1.0240   -0.3706 C   0  0  0  0  0  0  0  0  0  0  0  0
    4.4974    1.1060   -0.4668 C   0  0  0  0  0  0  0  0  0  0  0  0
    5.2833   -0.0441   -0.3764 C   0  0  0  0  0  0  0  0  0  0  0  0
    6.6704    0.0602   -0.3849 C   0  0  0  0  0  0  0  0  0  0  0  0
    7.2979    1.3173   -0.4635 C   0  0  0  0  0  0  0  0  0  0  0  0
    8.6871    1.4168   -0.4436 C   0  0  0  0  0  0  0  0  0  0  0  0
    9.3708    2.5761   -0.4824 N   0  0  0  0  0  0  0  0  0  0  0  0
    8.6278    3.7089   -0.5732 C   0  0  0  0  0  0  0  0  0  0  0  0
    7.2321    3.7546   -0.6329 C   0  0  0  0  0  0  0  0  0  0  0  0
    6.5204    4.9874   -0.7257 N   0  0  0  0  0  0  0  0  0  0  0  0
    7.0704    6.2136   -1.0747 C   0  0  0  0  0  0  0  0  0  0  0  0
    8.2326    6.3964   -1.4372 O   0  0  0  0  0  0  0  0  0  0  0  0
    6.1054    7.3863   -0.9977 C   0  0  0  0  0  0  0  0  0  0  0  0
    5.3505    7.6507   -2.2792 C   0  0  0  0  0  0  0  0  0  0  0  0
    6.0330    7.8964   -3.4819 C   0  0  0  0  0  0  0  0  0  0  0  0
    5.3313    8.1902   -4.6545 C   0  0  0  0  0  0  0  0  0  0  0  0
    3.9389    8.2491   -4.6399 C   0  0  0  0  0  0  0  0  0  0  0  0
    3.2544    8.0150   -3.4501 C   0  0  0  0  0  0  0  0  0  0  0  0
    1.5351    8.0946   -3.4239 Cl  0  0  0  0  0  0  0  0  0  0  0  0
    3.9499    7.7225   -2.2750 C   0  0  0  0  0  0  0  0  0  0  0  0
    6.5372    2.5103   -0.5615 C   0  0  0  0  0  0  0  0  0  0  0  0
    5.1272    2.3592   -0.5856 C   0  0  0  0  0  0  0  0  0  0  0  0
    0.5611    1.9820   -2.3617 H   0  0  0  0  0  0  0  0  0  0  0  0
    0.6623    2.2137   -0.6033 H   0  0  0  0  0  0  0  0  0  0  0  0
    0.6025    0.5607   -1.2954 H   0  0  0  0  0  0  0  0  0  0  0  0
    2.6673   -0.0150   -0.2498 H   0  0  0  0  0  0  0  0  0  0  0  0
    2.6759    1.5917    0.5123 H   0  0  0  0  0  0  0  0  0  0  0  0
    4.8249   -1.0265   -0.2942 H   0  0  0  0  0  0  0  0  0  0  0  0
    7.2669   -0.8493   -0.3162 H   0  0  0  0  0  0  0  0  0  0  0  0
    9.3197    0.5338   -0.3869 H   0  0  0  0  0  0  0  0  0  0  0  0
    9.2368    4.6060   -0.5619 H   0  0  0  0  0  0  0  0  0  0  0  0
    5.5152    4.9506   -0.6373 H   0  0  0  0  0  0  0  0  0  0  0  0
    6.6888    8.2824   -0.7454 H   0  0  0  0  0  0  0  0  0  0  0  0
    5.4173    7.2325   -0.1581 H   0  0  0  0  0  0  0  0  0  0  0  0
    7.1225    7.8691   -3.5142 H   0  0  0  0  0  0  0  0  0  0  0  0
    5.8736    8.3782   -5.5789 H   0  0  0  0  0  0  0  0  0  0  0  0
    3.3975    8.4819   -5.5531 H   0  0  0  0  0  0  0  0  0  0  0  0
    3.3939    7.5648   -1.3537 H   0  0  0  0  0  0  0  0  0  0  0  0
    4.4784    3.2227   -0.6963 H   0  0  0  0  0  0  0  0  0  0  0  0
  1  2  1  0  0  0  0
  1 25  1  0  0  0  0
  1 26  1  0  0  0  0
  1 27  1  0  0  0  0
  2  3  1  0  0  0  0
  3  4  1  0  0  0  0
  3 28  1  0  0  0  0
  3 29  1  0  0  0  0
  4  5  1  0  0  0  0
  4 24  2  0  0  0  0
  5  6  2  0  0  0  0
  5 30  1  0  0  0  0
  6  7  1  0  0  0  0
  6 31  1  0  0  0  0
  7  8  1  0  0  0  0
  7 23  2  0  0  0  0
  8  9  2  0  0  0  0
  8 32  1  0  0  0  0
  9 10  1  0  0  0  0
 10 11  2  0  0  0  0
 10 33  1  0  0  0  0
 11 12  1  0  0  0  0
 11 23  1  0  0  0  0
 12 13  1  0  0  0  0
 12 34  1  0  0  0  0
 13 14  2  0  0  0  0
 13 15  1  0  0  0  0
 15 16  1  0  0  0  0
 15 35  1  0  0  0  0
 15 36  1  0  0  0  0
 16 17  1  0  0  0  0
 16 22  2  0  0  0  0
 17 18  2  0  0  0  0
 17 37  1  0  0  0  0
 18 19  1  0  0  0  0
 18 38  1  0  0  0  0
 19 20  2  0  0  0  0
 19 39  1  0  0  0  0
 20 21  1  0  0  0  0
 20 22  1  0  0  0  0
 22 40  1  0  0  0  0
 23 24  1  0  0  0  0
 24 41  1  0  0  0  0
M  END
$$$$
