
 OpenBabel07202414123D

 60 63  0  0  1  0  0  0  0  0999 V2000
    1.1430   -0.0353    0.5192 C   0  0  0  0  0  0  0  0  0  0  0  0
    2.5291   -0.6635    0.4189 C   0  0  0  0  0  0  0  0  0  0  0  0
    2.4994   -2.1061    0.9209 C   0  0  0  0  0  0  0  0  0  0  0  0
    2.9311   -0.6253   -0.9600 O   0  0  0  0  0  0  0  0  0  0  0  0
    4.2682   -0.6115   -1.2445 C   0  0  0  0  0  0  0  0  0  0  0  0
    5.2892   -0.5642   -0.3131 C   0  0  0  0  0  0  0  0  0  0  0  0
    6.6265   -0.5660   -0.7235 C   0  0  0  0  0  0  0  0  0  0  0  0
    7.0191   -0.6770   -2.0683 C   0  0  0  0  0  0  0  0  0  0  0  0
    8.4395   -0.7903   -2.4137 N   0  0  0  0  0  0  0  0  0  0  0  0
    8.9520   -0.4303   -3.7754 C   0  0  3  0  0  0  0  0  0  0  0  0
    9.0869   -1.6736   -4.7123 C   0  0  0  0  0  0  0  0  0  0  0  0
   10.0891   -1.8763   -5.3999 O   0  0  0  0  0  0  0  0  0  0  0  0
    7.9426   -2.4173   -4.8962 N   0  0  0  0  0  0  0  0  0  0  0  0
    7.9022   -3.5909   -5.7565 C   0  0  0  0  0  0  0  0  0  0  0  0
    8.1949   -4.8693   -4.9682 C   0  0  0  0  0  0  0  0  0  0  0  0
    7.1684   -5.0498   -3.8862 C   0  0  0  0  0  0  0  0  0  0  0  0
    6.9365   -4.1458   -2.9533 N   0  0  0  0  0  0  0  0  0  0  0  0
    5.9043   -4.5630   -2.1410 C   0  0  0  0  0  0  0  0  0  0  0  0
    5.3567   -5.7804   -2.4665 C   0  0  0  0  0  0  0  0  0  0  0  0
    6.1586   -6.4362   -3.8349 S   0  0  0  0  0  0  0  0  0  0  0  0
    8.3431    0.7775   -4.4920 C   0  0  0  0  0  0  0  0  0  0  0  0
    7.8624    1.8976   -3.8019 C   0  0  0  0  0  0  0  0  0  0  0  0
    7.3819    3.0015   -4.5026 C   0  0  0  0  0  0  0  0  0  0  0  0
    7.4322    2.9806   -5.8836 C   0  0  0  0  0  0  0  0  0  0  0  0
    7.9226    1.9458   -6.5922 N   0  0  0  0  0  0  0  0  0  0  0  0
    8.3731    0.8820   -5.8863 C   0  0  0  0  0  0  0  0  0  0  0  0
    9.3299   -1.3633   -1.4341 C   0  0  0  0  0  0  0  0  0  0  0  0
    8.9243   -1.8354   -0.3684 O   0  0  0  0  0  0  0  0  0  0  0  0
   10.7880   -1.4325   -1.6269 C   0  0  0  0  0  0  0  0  0  0  0  0
   11.6559   -1.8383   -0.6271 C   0  0  0  0  0  0  0  0  0  0  0  0
   12.9274   -1.8165   -1.1067 O   0  0  0  0  0  0  0  0  0  0  0  0
   12.7742   -1.4022   -2.3931 C   0  0  0  0  0  0  0  0  0  0  0  0
   11.5357   -1.1525   -2.7501 N   0  0  0  0  0  0  0  0  0  0  0  0
    5.9735   -0.6508   -3.0017 C   0  0  0  0  0  0  0  0  0  0  0  0
    4.6200   -0.6304   -2.5937 C   0  0  0  0  0  0  0  0  0  0  0  0
    0.7804   -0.0523    1.5525 H   0  0  0  0  0  0  0  0  0  0  0  0
    0.4205   -0.5513   -0.1201 H   0  0  0  0  0  0  0  0  0  0  0  0
    1.1801    1.0083    0.1879 H   0  0  0  0  0  0  0  0  0  0  0  0
    3.1757   -0.0464    1.0510 H   0  0  0  0  0  0  0  0  0  0  0  0
    1.9572   -2.7558    0.2255 H   0  0  0  0  0  0  0  0  0  0  0  0
    2.0307   -2.1756    1.9078 H   0  0  0  0  0  0  0  0  0  0  0  0
    3.5128   -2.5128    1.0038 H   0  0  0  0  0  0  0  0  0  0  0  0
    5.1094   -0.5283    0.7544 H   0  0  0  0  0  0  0  0  0  0  0  0
    7.3504   -0.4596    0.0792 H   0  0  0  0  0  0  0  0  0  0  0  0
    9.9640   -0.0576   -3.6348 H   0  0  0  0  0  0  0  0  0  0  0  0
    7.3117   -2.4664   -4.0980 H   0  0  0  0  0  0  0  0  0  0  0  0
    8.6217   -3.4763   -6.5746 H   0  0  0  0  0  0  0  0  0  0  0  0
    6.8978   -3.6287   -6.1949 H   0  0  0  0  0  0  0  0  0  0  0  0
    9.1858   -4.8017   -4.5038 H   0  0  0  0  0  0  0  0  0  0  0  0
    8.2091   -5.7238   -5.6536 H   0  0  0  0  0  0  0  0  0  0  0  0
    5.5863   -3.9300   -1.3202 H   0  0  0  0  0  0  0  0  0  0  0  0
    4.5452   -6.3048   -1.9830 H   0  0  0  0  0  0  0  0  0  0  0  0
    7.8468    1.9215   -2.7151 H   0  0  0  0  0  0  0  0  0  0  0  0
    6.9823    3.8635   -3.9803 H   0  0  0  0  0  0  0  0  0  0  0  0
    7.0853    3.8208   -6.4747 H   0  0  0  0  0  0  0  0  0  0  0  0
    8.7930    0.1029   -6.5169 H   0  0  0  0  0  0  0  0  0  0  0  0
   11.5284   -2.1515    0.3995 H   0  0  0  0  0  0  0  0  0  0  0  0
   13.6749   -1.3147   -2.9815 H   0  0  0  0  0  0  0  0  0  0  0  0
    6.1478   -0.6739   -4.0721 H   0  0  0  0  0  0  0  0  0  0  0  0
    3.8363   -0.6424   -3.3499 H   0  0  0  0  0  0  0  0  0  0  0  0
  1  2  1  0  0  0  0
  1 36  1  0  0  0  0
  1 37  1  0  0  0  0
  1 38  1  0  0  0  0
  2  3  1  0  0  0  0
  2  4  1  0  0  0  0
  2 39  1  0  0  0  0
  3 40  1  0  0  0  0
  3 41  1  0  0  0  0
  3 42  1  0  0  0  0
  4  5  1  0  0  0  0
  5  6  1  0  0  0  0
  5 35  2  0  0  0  0
  6  7  2  0  0  0  0
  6 43  1  0  0  0  0
  7  8  1  0  0  0  0
  7 44  1  0  0  0  0
  8  9  1  0  0  0  0
  8 34  2  0  0  0  0
  9 10  1  0  0  0  0
  9 27  1  0  0  0  0
 10 11  1  0  0  0  0
 10 21  1  0  0  0  0
 10 45  1  0  0  0  0
 11 12  2  0  0  0  0
 11 13  1  0  0  0  0
 13 14  1  0  0  0  0
 13 46  1  0  0  0  0
 14 15  1  0  0  0  0
 14 47  1  0  0  0  0
 14 48  1  0  0  0  0
 15 16  1  0  0  0  0
 15 49  1  0  0  0  0
 15 50  1  0  0  0  0
 16 17  2  0  0  0  0
 16 20  1  0  0  0  0
 17 18  1  0  0  0  0
 18 19  2  0  0  0  0
 18 51  1  0  0  0  0
 19 20  1  0  0  0  0
 19 52  1  0  0  0  0
 21 22  1  0  0  0  0
 21 26  2  0  0  0  0
 22 23  2  0  0  0  0
 22 53  1  0  0  0  0
 23 24  1  0  0  0  0
 23 54  1  0  0  0  0
 24 25  2  0  0  0  0
 24 55  1  0  0  0  0
 25 26  1  0  0  0  0
 26 56  1  0  0  0  0
 27 28  2  0  0  0  0
 27 29  1  0  0  0  0
 29 30  2  0  0  0  0
 29 33  1  0  0  0  0
 30 31  1  0  0  0  0
 30 57  1  0  0  0  0
 31 32  1  0  0  0  0
 32 33  2  0  0  0  0
 32 58  1  0  0  0  0
 34 35  1  0  0  0  0
 34 59  1  0  0  0  0
 35 60  1  0  0  0  0
M  END
$$$$
