
 OpenBabel07202414173D

 65 70  0  0  1  0  0  0  0  0999 V2000
    0.7530    0.3380   -0.0662 Cl  0  0  0  0  0  0  0  0  0  0  0  0
    2.4703    0.2403   -0.0995 C   0  0  0  0  0  0  0  0  0  0  0  0
    3.2270    1.4033   -0.1208 C   0  0  0  0  0  0  0  0  0  0  0  0
    4.6133    1.3124   -0.1597 C   0  0  0  0  0  0  0  0  0  0  0  0
    5.2529    0.0584   -0.1486 C   0  0  0  0  0  0  0  0  0  0  0  0
    4.4915   -1.1368   -0.1108 C   0  0  0  0  0  0  0  0  0  0  0  0
    3.0884   -1.0120   -0.1046 C   0  0  0  0  0  0  0  0  0  0  0  0
    5.1816   -2.5224   -0.0726 C   0  0  3  0  0  0  0  0  0  0  0  0
    6.7019   -2.3966   -0.2815 C   0  0  0  0  0  0  0  0  0  0  0  0
    7.3281   -1.2028    0.3547 N   0  0  0  0  0  0  0  0  0  0  0  0
    7.6330   -1.1393    2.0151 S   0  0  0  0  0  0  0  0  0  0  0  0
    8.3552    0.0902    2.2581 O   0  0  0  0  0  0  0  0  0  0  0  0
    6.3779   -1.3187    2.7058 O   0  0  0  0  0  0  0  0  0  0  0  0
    8.7467   -2.5382    2.3109 C   0  0  0  0  0  0  0  0  0  0  0  0
   10.1839   -2.4007    1.7336 C   0  0  0  0  0  0  0  0  0  0  0  0
   10.1064   -2.2710    0.2622 C   0  0  0  0  0  0  0  0  0  0  0  0
   10.0553   -2.2250   -0.8979 N   0  0  0  0  0  0  0  0  0  0  0  0
   10.9973   -3.7022    2.0179 C   0  0  0  0  0  0  0  0  0  0  0  0
   11.5773   -3.7782    3.4256 C   0  0  0  0  0  0  0  0  0  0  0  0
   12.2891   -2.5930    3.7560 O   0  0  0  0  0  0  0  0  0  0  0  0
   11.4617   -1.4367    3.7121 C   0  0  0  0  0  0  0  0  0  0  0  0
   11.0052   -1.2132    2.2833 C   0  0  0  0  0  0  0  0  0  0  0  0
    6.7612    0.0367   -0.2137 C   0  0  0  0  0  0  0  0  0  0  0  0
    4.6002   -3.4641   -1.1675 C   0  0  0  0  0  0  0  0  0  0  0  0
    3.6359   -4.4059   -0.4524 C   0  0  0  0  0  0  0  0  0  0  0  0
    3.5895   -3.9599    0.9119 N   0  0  0  0  0  0  0  0  0  0  0  0
    2.6756   -4.4981    1.8674 C   0  0  0  0  0  0  0  0  0  0  0  0
    2.0516   -5.7171    1.5789 C   0  0  0  0  0  0  0  0  0  0  0  0
    1.0227   -6.2607    2.2595 N   0  0  0  0  0  0  0  0  0  0  0  0
    0.6016   -5.5701    3.3337 C   0  0  0  0  0  0  0  0  0  0  0  0
    1.1775   -4.3895    3.7954 C   0  0  0  0  0  0  0  0  0  0  0  0
    0.6879   -3.8034    4.9765 C   0  0  0  0  0  0  0  0  0  0  0  0
    1.2110   -2.6043    5.4376 C   0  0  0  0  0  0  0  0  0  0  0  0
    2.1918   -1.9610    4.6954 C   0  0  0  0  0  0  0  0  0  0  0  0
    2.6930   -2.5423    3.5164 C   0  0  0  0  0  0  0  0  0  0  0  0
    2.2322   -3.8013    3.0418 C   0  0  0  0  0  0  0  0  0  0  0  0
    4.8180   -3.3514    1.1764 C   0  0  0  0  0  0  0  0  0  0  0  0
    5.5371   -3.6440    2.1209 O   0  0  0  0  0  0  0  0  0  0  0  0
    2.7472    2.3773   -0.1051 H   0  0  0  0  0  0  0  0  0  0  0  0
    5.2021    2.2296   -0.1818 H   0  0  0  0  0  0  0  0  0  0  0  0
    2.4470   -1.8876   -0.0935 H   0  0  0  0  0  0  0  0  0  0  0  0
    6.8949   -2.2823   -1.3620 H   0  0  0  0  0  0  0  0  0  0  0  0
    7.2364   -3.3105   -0.0088 H   0  0  0  0  0  0  0  0  0  0  0  0
    8.2472   -3.4269    1.9082 H   0  0  0  0  0  0  0  0  0  0  0  0
    8.7688   -2.6668    3.3970 H   0  0  0  0  0  0  0  0  0  0  0  0
   11.8482   -3.7396    1.3213 H   0  0  0  0  0  0  0  0  0  0  0  0
   10.4002   -4.5995    1.8131 H   0  0  0  0  0  0  0  0  0  0  0  0
   12.2908   -4.6079    3.4789 H   0  0  0  0  0  0  0  0  0  0  0  0
   10.8039   -3.9606    4.1777 H   0  0  0  0  0  0  0  0  0  0  0  0
   12.0611   -0.5840    4.0457 H   0  0  0  0  0  0  0  0  0  0  0  0
   10.6259   -1.5473    4.4116 H   0  0  0  0  0  0  0  0  0  0  0  0
   11.9016   -1.0904    1.6589 H   0  0  0  0  0  0  0  0  0  0  0  0
   10.4923   -0.2577    2.2078 H   0  0  0  0  0  0  0  0  0  0  0  0
    7.0734    0.1208   -1.2635 H   0  0  0  0  0  0  0  0  0  0  0  0
    7.1789    0.9184    0.2854 H   0  0  0  0  0  0  0  0  0  0  0  0
    5.3824   -4.0673   -1.6474 H   0  0  0  0  0  0  0  0  0  0  0  0
    4.0936   -2.9224   -1.9741 H   0  0  0  0  0  0  0  0  0  0  0  0
    4.0580   -5.4196   -0.4654 H   0  0  0  0  0  0  0  0  0  0  0  0
    2.6425   -4.4124   -0.9079 H   0  0  0  0  0  0  0  0  0  0  0  0
    2.3826   -6.3383    0.7535 H   0  0  0  0  0  0  0  0  0  0  0  0
   -0.2612   -6.0076    3.8311 H   0  0  0  0  0  0  0  0  0  0  0  0
   -0.0959   -4.2913    5.5548 H   0  0  0  0  0  0  0  0  0  0  0  0
    0.8490   -2.1722    6.3694 H   0  0  0  0  0  0  0  0  0  0  0  0
    2.5875   -1.0058    5.0384 H   0  0  0  0  0  0  0  0  0  0  0  0
    3.4613   -1.9886    2.9821 H   0  0  0  0  0  0  0  0  0  0  0  0
  1  2  1  0  0  0  0
  2  3  1  0  0  0  0
  2  7  2  0  0  0  0
  3  4  2  0  0  0  0
  3 39  1  0  0  0  0
  4  5  1  0  0  0  0
  4 40  1  0  0  0  0
  5  6  2  0  0  0  0
  5 23  1  0  0  0  0
  6  7  1  0  0  0  0
  6  8  1  0  0  0  0
  7 41  1  0  0  0  0
  8  9  1  0  0  0  0
  8 24  1  0  0  0  0
  8 37  1  0  0  0  0
  9 10  1  0  0  0  0
  9 42  1  0  0  0  0
  9 43  1  0  0  0  0
 10 11  1  0  0  0  0
 10 23  1  0  0  0  0
 11 12  2  0  0  0  0
 11 13  2  0  0  0  0
 11 14  1  0  0  0  0
 14 15  1  0  0  0  0
 14 44  1  0  0  0  0
 14 45  1  0  0  0  0
 15 16  1  0  0  0  0
 15 18  1  0  0  0  0
 15 22  1  0  0  0  0
 16 17  3  0  0  0  0
 18 19  1  0  0  0  0
 18 46  1  0  0  0  0
 18 47  1  0  0  0  0
 19 20  1  0  0  0  0
 19 48  1  0  0  0  0
 19 49  1  0  0  0  0
 20 21  1  0  0  0  0
 21 22  1  0  0  0  0
 21 50  1  0  0  0  0
 21 51  1  0  0  0  0
 22 52  1  0  0  0  0
 22 53  1  0  0  0  0
 23 54  1  0  0  0  0
 23 55  1  0  0  0  0
 24 25  1  0  0  0  0
 24 56  1  0  0  0  0
 24 57  1  0  0  0  0
 25 26  1  0  0  0  0
 25 58  1  0  0  0  0
 25 59  1  0  0  0  0
 26 27  1  0  0  0  0
 26 37  1  0  0  0  0
 27 28  1  0  0  0  0
 27 36  2  0  0  0  0
 28 29  2  0  0  0  0
 28 60  1  0  0  0  0
 29 30  1  0  0  0  0
 30 31  2  0  0  0  0
 30 61  1  0  0  0  0
 31 32  1  0  0  0  0
 31 36  1  0  0  0  0
 32 33  2  0  0  0  0
 32 62  1  0  0  0  0
 33 34  1  0  0  0  0
 33 63  1  0  0  0  0
 34 35  2  0  0  0  0
 34 64  1  0  0  0  0
 35 36  1  0  0  0  0
 35 65  1  0  0  0  0
 37 38  2  0  0  0  0
M  END
$$$$
