
 OpenBabel07202414133D

 44 45  0  0  0  0  0  0  0  0999 V2000
    3.4140   -2.4229   -2.0213 C   0  0  0  0  0  0  0  0  0  0  0  0
    3.4748   -1.1003   -2.7725 C   0  0  0  0  0  0  0  0  0  0  0  0
    3.2855    0.0149   -1.8178 N   0  0  0  0  0  0  0  0  0  0  0  0
    1.9804    0.6130   -1.7381 C   0  0  0  0  0  0  0  0  0  0  0  0
    1.4408    1.3592   -2.7886 C   0  0  0  0  0  0  0  0  0  0  0  0
    0.1391    1.8679   -2.6979 C   0  0  0  0  0  0  0  0  0  0  0  0
   -0.6284    1.6215   -1.5615 C   0  0  0  0  0  0  0  0  0  0  0  0
   -0.0935    0.8730   -0.5099 C   0  0  0  0  0  0  0  0  0  0  0  0
    1.2077    0.3756   -0.5971 C   0  0  0  0  0  0  0  0  0  0  0  0
    4.6507    0.9396   -1.3889 S   0  0  0  0  0  0  0  0  0  0  0  0
    4.3330    1.7207   -0.2044 O   0  0  0  0  0  0  0  0  0  0  0  0
    5.8088    0.0821   -1.4022 O   0  0  0  0  0  0  0  0  0  0  0  0
    4.8401    2.0975   -2.7366 C   0  0  0  0  0  0  0  0  0  0  0  0
    4.2636    3.3650   -2.6125 C   0  0  0  0  0  0  0  0  0  0  0  0
    4.3602    4.2841   -3.6578 C   0  0  0  0  0  0  0  0  0  0  0  0
    5.0946    3.9663   -4.8001 C   0  0  0  0  0  0  0  0  0  0  0  0
    5.1857    4.7504   -5.9255 O   0  0  0  0  0  0  0  0  0  0  0  0
    4.5230    6.0079   -5.8924 C   0  0  0  0  0  0  0  0  0  0  0  0
    5.7652    2.7294   -4.8739 C   0  0  0  0  0  0  0  0  0  0  0  0
    6.6308    2.5286   -5.9702 N   0  0  0  0  0  0  0  0  0  0  0  0
    6.7008    1.3697   -6.7140 C   0  0  0  0  0  0  0  0  0  0  0  0
    5.9681    0.3947   -6.5352 O   0  0  0  0  0  0  0  0  0  0  0  0
    7.6496    1.4240   -7.9024 C   0  0  0  0  0  0  0  0  0  0  0  0
    9.1347    2.3237   -7.5231 Cl  0  0  0  0  0  0  0  0  0  0  0  0
    5.6255    1.7806   -3.8531 C   0  0  0  0  0  0  0  0  0  0  0  0
    3.5102   -3.2623   -2.7176 H   0  0  0  0  0  0  0  0  0  0  0  0
    2.4668   -2.5356   -1.4831 H   0  0  0  0  0  0  0  0  0  0  0  0
    4.2240   -2.4981   -1.2874 H   0  0  0  0  0  0  0  0  0  0  0  0
    2.7061   -1.0844   -3.5536 H   0  0  0  0  0  0  0  0  0  0  0  0
    4.4355   -1.0243   -3.2896 H   0  0  0  0  0  0  0  0  0  0  0  0
    2.0151    1.5392   -3.6937 H   0  0  0  0  0  0  0  0  0  0  0  0
   -0.2822    2.4432   -3.5229 H   0  0  0  0  0  0  0  0  0  0  0  0
   -1.6439    2.0054   -1.4923 H   0  0  0  0  0  0  0  0  0  0  0  0
   -0.6956    0.6722    0.3749 H   0  0  0  0  0  0  0  0  0  0  0  0
    1.6148   -0.2131    0.2226 H   0  0  0  0  0  0  0  0  0  0  0  0
    3.7213    3.6387   -1.7075 H   0  0  0  0  0  0  0  0  0  0  0  0
    3.8468    5.2332   -3.5472 H   0  0  0  0  0  0  0  0  0  0  0  0
    4.6679    6.4866   -6.8656 H   0  0  0  0  0  0  0  0  0  0  0  0
    4.9746    6.6484   -5.1300 H   0  0  0  0  0  0  0  0  0  0  0  0
    3.4433    5.9014   -5.7357 H   0  0  0  0  0  0  0  0  0  0  0  0
    6.9509    3.3792   -6.4265 H   0  0  0  0  0  0  0  0  0  0  0  0
    7.1578    1.9090   -8.7498 H   0  0  0  0  0  0  0  0  0  0  0  0
    7.9411    0.4069   -8.1772 H   0  0  0  0  0  0  0  0  0  0  0  0
    6.1626    0.8368   -3.9011 H   0  0  0  0  0  0  0  0  0  0  0  0
  1  2  1  0  0  0  0
  1 26  1  0  0  0  0
  1 27  1  0  0  0  0
  1 28  1  0  0  0  0
  2  3  1  0  0  0  0
  2 29  1  0  0  0  0
  2 30  1  0  0  0  0
  3  4  1  0  0  0  0
  3 10  1  0  0  0  0
  4  5  1  0  0  0  0
  4  9  2  0  0  0  0
  5  6  2  0  0  0  0
  5 31  1  0  0  0  0
  6  7  1  0  0  0  0
  6 32  1  0  0  0  0
  7  8  2  0  0  0  0
  7 33  1  0  0  0  0
  8  9  1  0  0  0  0
  8 34  1  0  0  0  0
  9 35  1  0  0  0  0
 10 11  2  0  0  0  0
 10 12  2  0  0  0  0
 10 13  1  0  0  0  0
 13 14  1  0  0  0  0
 13 25  2  0  0  0  0
 14 15  2  0  0  0  0
 14 36  1  0  0  0  0
 15 16  1  0  0  0  0
 15 37  1  0  0  0  0
 16 17  1  0  0  0  0
 16 19  2  0  0  0  0
 17 18  1  0  0  0  0
 18 38  1  0  0  0  0
 18 39  1  0  0  0  0
 18 40  1  0  0  0  0
 19 20  1  0  0  0  0
 19 25  1  0  0  0  0
 20 21  1  0  0  0  0
 20 41  1  0  0  0  0
 21 22  2  0  0  0  0
 21 23  1  0  0  0  0
 23 24  1  0  0  0  0
 23 42  1  0  0  0  0
 23 43  1  0  0  0  0
 25 44  1  0  0  0  0
M  END
$$$$
