
 OpenBabel07202414133D

 44 47  0  0  0  0  0  0  0  0999 V2000
    1.5366   -0.7410    0.0648 C   0  0  0  0  0  0  0  0  0  0  0  0
    3.0093   -0.4358    0.3165 C   0  0  0  0  0  0  0  0  0  0  0  0
    3.1879    0.2253    1.9763 S   0  0  0  0  0  0  0  0  0  0  0  0
    2.3586    1.4003    2.0915 O   0  0  0  0  0  0  0  0  0  0  0  0
    3.0577   -0.8738    2.9159 O   0  0  0  0  0  0  0  0  0  0  0  0
    4.7745    0.7619    2.1026 N   0  0  0  0  0  0  0  0  0  0  0  0
    6.0585   -0.0050    2.0693 C   0  0  0  0  0  0  0  0  0  0  0  0
    6.6721    0.9991    3.0867 C   0  0  0  0  0  0  0  0  0  0  0  0
    5.2280    1.3897    3.3976 C   0  0  0  0  0  0  0  0  0  0  0  0
    7.5034    0.4199    4.1798 N   0  0  0  0  0  0  0  0  0  0  0  0
    7.0118   -0.3438    5.2978 C   0  0  0  0  0  0  0  0  0  0  0  0
    8.7396    1.0818    4.2465 C   0  0  0  0  0  0  0  0  0  0  0  0
    9.5879    0.8848    5.1033 O   0  0  0  0  0  0  0  0  0  0  0  0
    8.7913    2.0144    3.2154 N   0  0  0  0  0  0  0  0  0  0  0  0
    9.9734    2.6443    2.7914 C   0  0  0  0  0  0  0  0  0  0  0  0
   10.0804    4.0332    2.8314 C   0  0  0  0  0  0  0  0  0  0  0  0
   11.1440    4.7236    2.3719 N   0  0  0  0  0  0  0  0  0  0  0  0
   12.1297    3.9956    1.7991 C   0  0  0  0  0  0  0  0  0  0  0  0
   12.1163    2.6047    1.6616 C   0  0  0  0  0  0  0  0  0  0  0  0
   13.1470    1.9141    0.9939 C   0  0  0  0  0  0  0  0  0  0  0  0
   13.0871    0.5293    0.8292 C   0  0  0  0  0  0  0  0  0  0  0  0
   12.0118   -0.1815    1.3371 C   0  0  0  0  0  0  0  0  0  0  0  0
   10.9874    0.4908    2.0079 C   0  0  0  0  0  0  0  0  0  0  0  0
   11.0155    1.8948    2.1840 C   0  0  0  0  0  0  0  0  0  0  0  0
    7.6095    2.1212    2.5093 C   0  0  0  0  0  0  0  0  0  0  0  0
    7.3839    2.9177    1.6052 O   0  0  0  0  0  0  0  0  0  0  0  0
    1.3891   -1.2444   -0.8944 H   0  0  0  0  0  0  0  0  0  0  0  0
    0.9454    0.1820    0.0571 H   0  0  0  0  0  0  0  0  0  0  0  0
    1.1254   -1.3800    0.8545 H   0  0  0  0  0  0  0  0  0  0  0  0
    3.3719    0.3053   -0.4013 H   0  0  0  0  0  0  0  0  0  0  0  0
    3.6072   -1.3483    0.2474 H   0  0  0  0  0  0  0  0  0  0  0  0
    6.5265   -0.0107    1.0796 H   0  0  0  0  0  0  0  0  0  0  0  0
    5.9539   -1.0363    2.4219 H   0  0  0  0  0  0  0  0  0  0  0  0
    5.0077    2.4578    3.4458 H   0  0  0  0  0  0  0  0  0  0  0  0
    4.7828    0.8876    4.2639 H   0  0  0  0  0  0  0  0  0  0  0  0
    6.1902   -0.9894    4.9826 H   0  0  0  0  0  0  0  0  0  0  0  0
    6.6740    0.3517    6.0722 H   0  0  0  0  0  0  0  0  0  0  0  0
    7.8196   -0.9548    5.7122 H   0  0  0  0  0  0  0  0  0  0  0  0
    9.2895    4.6483    3.2552 H   0  0  0  0  0  0  0  0  0  0  0  0
   12.9571    4.5896    1.4173 H   0  0  0  0  0  0  0  0  0  0  0  0
   13.9913    2.4551    0.5774 H   0  0  0  0  0  0  0  0  0  0  0  0
   13.8811    0.0095    0.2963 H   0  0  0  0  0  0  0  0  0  0  0  0
   11.9556   -1.2620    1.2088 H   0  0  0  0  0  0  0  0  0  0  0  0
   10.1640   -0.1130    2.3771 H   0  0  0  0  0  0  0  0  0  0  0  0
  1  2  1  0  0  0  0
  1 27  1  0  0  0  0
  1 28  1  0  0  0  0
  1 29  1  0  0  0  0
  2  3  1  0  0  0  0
  2 30  1  0  0  0  0
  2 31  1  0  0  0  0
  3  4  2  0  0  0  0
  3  5  2  0  0  0  0
  3  6  1  0  0  0  0
  6  7  1  0  0  0  0
  6  9  1  0  0  0  0
  7  8  1  0  0  0  0
  7 32  1  0  0  0  0
  7 33  1  0  0  0  0
  8  9  1  0  0  0  0
  8 10  1  0  0  0  0
  8 25  1  0  0  0  0
  9 34  1  0  0  0  0
  9 35  1  0  0  0  0
 10 11  1  0  0  0  0
 10 12  1  0  0  0  0
 11 36  1  0  0  0  0
 11 37  1  0  0  0  0
 11 38  1  0  0  0  0
 12 13  2  0  0  0  0
 12 14  1  0  0  0  0
 14 15  1  0  0  0  0
 14 25  1  0  0  0  0
 15 16  1  0  0  0  0
 15 24  2  0  0  0  0
 16 17  2  0  0  0  0
 16 39  1  0  0  0  0
 17 18  1  0  0  0  0
 18 19  2  0  0  0  0
 18 40  1  0  0  0  0
 19 20  1  0  0  0  0
 19 24  1  0  0  0  0
 20 21  2  0  0  0  0
 20 41  1  0  0  0  0
 21 22  1  0  0  0  0
 21 42  1  0  0  0  0
 22 23  2  0  0  0  0
 22 43  1  0  0  0  0
 23 24  1  0  0  0  0
 23 44  1  0  0  0  0
 25 26  2  0  0  0  0
M  END
$$$$
