
 OpenBabel07202414203D

 59 62  0  0  0  0  0  0  0  0999 V2000
    1.5990    0.9666    0.5632 C   0  0  0  0  0  0  0  0  0  0  0  0
    1.0438    0.8480   -0.7065 C   0  0  0  0  0  0  0  0  0  0  0  0
   -0.3479    0.8653   -0.8737 C   0  0  0  0  0  0  0  0  0  0  0  0
   -1.2215    0.9922    0.2243 C   0  0  0  0  0  0  0  0  0  0  0  0
   -0.6249    1.0777    1.4985 C   0  0  0  0  0  0  0  0  0  0  0  0
    0.7641    1.0795    1.6678 C   0  0  0  0  0  0  0  0  0  0  0  0
   -2.6956    1.0738    0.0563 C   0  0  0  0  0  0  0  0  0  0  0  0
   -3.3721    0.4427   -1.0085 C   0  0  0  0  0  0  0  0  0  0  0  0
   -4.7599    0.5676   -1.1764 C   0  0  0  0  0  0  0  0  0  0  0  0
   -5.5171    1.3039   -0.2624 C   0  0  0  0  0  0  0  0  0  0  0  0
   -4.8754    1.9290    0.8023 C   0  0  0  0  0  0  0  0  0  0  0  0
   -3.4891    1.8166    0.9520 C   0  0  0  0  0  0  0  0  0  0  0  0
   -6.9149    1.4454   -0.4306 N   0  0  0  0  0  0  0  0  0  0  0  0
   -7.3905    2.0741   -1.6722 C   0  0  0  0  0  0  0  0  0  0  0  0
   -8.0807    3.4363   -1.4328 C   0  0  0  0  0  0  0  0  0  0  0  0
   -8.1682    3.9270   -0.3047 O   0  0  0  0  0  0  0  0  0  0  0  0
   -8.5614    4.1143   -2.5602 N   0  0  0  0  0  0  0  0  0  0  0  0
   -8.2812    3.7373   -3.9481 C   0  0  0  0  0  0  0  0  0  0  0  0
   -7.1138    4.5827   -4.5025 C   0  0  0  0  0  0  0  0  0  0  0  0
   -7.3080    6.0390   -4.3378 N   0  0  0  0  0  0  0  0  0  0  0  0
   -7.6611    6.3613   -2.9344 C   0  0  0  0  0  0  0  0  0  0  0  0
   -8.8632    5.5410   -2.4192 C   0  0  0  0  0  0  0  0  0  0  0  0
   -7.8622    0.8887    0.4257 C   0  0  0  0  0  0  0  0  0  0  0  0
   -9.0686    0.9601    0.1621 O   0  0  0  0  0  0  0  0  0  0  0  0
   -7.4146    0.0910    1.6391 C   0  0  0  0  0  0  0  0  0  0  0  0
   -7.3356   -1.3129    1.3105 N   0  0  0  0  0  0  0  0  0  0  0  0
   -8.3486   -2.1399    0.9316 C   0  0  0  0  0  0  0  0  0  0  0  0
   -7.7111   -3.3074    0.5746 C   0  0  0  0  0  0  0  0  0  0  0  0
   -6.3673   -3.1751    0.8291 N   0  0  0  0  0  0  0  0  0  0  0  0
   -6.1517   -1.9516    1.2936 N   0  0  0  0  0  0  0  0  0  0  0  0
   -8.2596   -4.5357   -0.0518 C   0  0  0  0  0  0  0  0  0  0  0  0
   -9.2742   -5.1326    0.8129 N   0  0  0  0  0  0  0  0  0  0  0  0
    2.6779    0.9706    0.6924 H   0  0  0  0  0  0  0  0  0  0  0  0
    1.6927    0.7543   -1.5737 H   0  0  0  0  0  0  0  0  0  0  0  0
   -0.7359    0.7985   -1.8864 H   0  0  0  0  0  0  0  0  0  0  0  0
   -1.2394    1.1462    2.3931 H   0  0  0  0  0  0  0  0  0  0  0  0
    1.1867    1.1723    2.6649 H   0  0  0  0  0  0  0  0  0  0  0  0
   -2.8255   -0.1754   -1.7188 H   0  0  0  0  0  0  0  0  0  0  0  0
   -5.2393    0.0508   -2.0040 H   0  0  0  0  0  0  0  0  0  0  0  0
   -5.4352    2.5341    1.5113 H   0  0  0  0  0  0  0  0  0  0  0  0
   -3.0294    2.3458    1.7830 H   0  0  0  0  0  0  0  0  0  0  0  0
   -8.0878    1.3905   -2.1664 H   0  0  0  0  0  0  0  0  0  0  0  0
   -6.5360    2.2685   -2.3301 H   0  0  0  0  0  0  0  0  0  0  0  0
   -9.1918    3.9313   -4.5296 H   0  0  0  0  0  0  0  0  0  0  0  0
   -8.0581    2.6728   -4.0384 H   0  0  0  0  0  0  0  0  0  0  0  0
   -6.9812    4.3642   -5.5675 H   0  0  0  0  0  0  0  0  0  0  0  0
   -6.1822    4.2956   -4.0006 H   0  0  0  0  0  0  0  0  0  0  0  0
   -8.0798    6.3358   -4.9353 H   0  0  0  0  0  0  0  0  0  0  0  0
   -7.8828    7.4314   -2.8642 H   0  0  0  0  0  0  0  0  0  0  0  0
   -6.7850    6.1734   -2.3011 H   0  0  0  0  0  0  0  0  0  0  0  0
   -9.7574    5.7596   -3.0164 H   0  0  0  0  0  0  0  0  0  0  0  0
   -9.0853    5.8070   -1.3815 H   0  0  0  0  0  0  0  0  0  0  0  0
   -8.1624    0.2031    2.4320 H   0  0  0  0  0  0  0  0  0  0  0  0
   -6.4638    0.4099    2.0638 H   0  0  0  0  0  0  0  0  0  0  0  0
   -9.3823   -1.8280    0.8896 H   0  0  0  0  0  0  0  0  0  0  0  0
   -7.4602   -5.2593   -0.2408 H   0  0  0  0  0  0  0  0  0  0  0  0
   -8.7102   -4.2763   -1.0155 H   0  0  0  0  0  0  0  0  0  0  0  0
   -8.8301   -5.3943    1.6929 H   0  0  0  0  0  0  0  0  0  0  0  0
   -9.5937   -6.0000    0.3870 H   0  0  0  0  0  0  0  0  0  0  0  0
  1  2  1  0  0  0  0
  1  6  2  0  0  0  0
  1 33  1  0  0  0  0
  2  3  2  0  0  0  0
  2 34  1  0  0  0  0
  3  4  1  0  0  0  0
  3 35  1  0  0  0  0
  4  5  2  0  0  0  0
  4  7  1  0  0  0  0
  5  6  1  0  0  0  0
  5 36  1  0  0  0  0
  6 37  1  0  0  0  0
  7  8  1  0  0  0  0
  7 12  2  0  0  0  0
  8  9  2  0  0  0  0
  8 38  1  0  0  0  0
  9 10  1  0  0  0  0
  9 39  1  0  0  0  0
 10 11  2  0  0  0  0
 10 13  1  0  0  0  0
 11 12  1  0  0  0  0
 11 40  1  0  0  0  0
 12 41  1  0  0  0  0
 13 14  1  0  0  0  0
 13 23  1  0  0  0  0
 14 15  1  0  0  0  0
 14 42  1  0  0  0  0
 14 43  1  0  0  0  0
 15 16  2  0  0  0  0
 15 17  1  0  0  0  0
 17 18  1  0  0  0  0
 17 22  1  0  0  0  0
 18 19  1  0  0  0  0
 18 44  1  0  0  0  0
 18 45  1  0  0  0  0
 19 20  1  0  0  0  0
 19 46  1  0  0  0  0
 19 47  1  0  0  0  0
 20 21  1  0  0  0  0
 20 48  1  0  0  0  0
 21 22  1  0  0  0  0
 21 49  1  0  0  0  0
 21 50  1  0  0  0  0
 22 51  1  0  0  0  0
 22 52  1  0  0  0  0
 23 24  2  0  0  0  0
 23 25  1  0  0  0  0
 25 26  1  0  0  0  0
 25 53  1  0  0  0  0
 25 54  1  0  0  0  0
 26 27  1  0  0  0  0
 26 30  1  0  0  0  0
 27 28  2  0  0  0  0
 27 55  1  0  0  0  0
 28 29  1  0  0  0  0
 28 31  1  0  0  0  0
 29 30  2  0  0  0  0
 31 32  1  0  0  0  0
 31 56  1  0  0  0  0
 31 57  1  0  0  0  0
 32 58  1  0  0  0  0
 32 59  1  0  0  0  0
M  END
$$$$
