
 OpenBabel07202414153D

 38 40  0  0  0  0  0  0  0  0999 V2000
    6.3295    4.3823   -3.3902 C   0  0  0  0  0  0  0  0  0  0  0  0
    5.6886    3.6315   -2.3604 O   0  0  0  0  0  0  0  0  0  0  0  0
    6.5145    3.0042   -1.4619 C   0  0  0  0  0  0  0  0  0  0  0  0
    7.8683    3.3229   -1.2860 C   0  0  0  0  0  0  0  0  0  0  0  0
    8.6539    2.6120   -0.3759 C   0  0  0  0  0  0  0  0  0  0  0  0
    8.0915    1.5723    0.3548 C   0  0  0  0  0  0  0  0  0  0  0  0
    9.0653    0.6841    1.4591 Cl  0  0  0  0  0  0  0  0  0  0  0  0
    6.7393    1.2630    0.2131 C   0  0  0  0  0  0  0  0  0  0  0  0
    5.9266    1.9983   -0.6694 C   0  0  0  0  0  0  0  0  0  0  0  0
    4.4404    1.7071   -0.7080 C   0  0  0  0  0  0  0  0  0  0  0  0
    4.0366    0.5929   -1.6533 C   0  0  0  0  0  0  0  0  0  0  0  0
    3.8152   -0.5461   -1.2514 O   0  0  0  0  0  0  0  0  0  0  0  0
    3.9651    0.9944   -2.9746 N   0  0  0  0  0  0  0  0  0  0  0  0
    3.6291    0.1056   -4.0243 C   0  0  0  0  0  0  0  0  0  0  0  0
    2.5357   -0.7561   -3.9209 C   0  0  0  0  0  0  0  0  0  0  0  0
    2.1282   -1.5954   -4.9017 N   0  0  0  0  0  0  0  0  0  0  0  0
    2.8666   -1.6016   -6.0343 C   0  0  0  0  0  0  0  0  0  0  0  0
    3.9970   -0.7973   -6.2484 C   0  0  0  0  0  0  0  0  0  0  0  0
    4.7553   -0.8977   -7.4243 C   0  0  0  0  0  0  0  0  0  0  0  0
    5.9048   -0.1266   -7.5955 C   0  0  0  0  0  0  0  0  0  0  0  0
    6.3045    0.7514   -6.5953 C   0  0  0  0  0  0  0  0  0  0  0  0
    5.5538    0.8598   -5.4246 C   0  0  0  0  0  0  0  0  0  0  0  0
    4.3858    0.0910   -5.2208 C   0  0  0  0  0  0  0  0  0  0  0  0
    5.5531    4.7662   -4.0580 H   0  0  0  0  0  0  0  0  0  0  0  0
    6.9924    3.7399   -3.9807 H   0  0  0  0  0  0  0  0  0  0  0  0
    6.8721    5.2443   -2.9888 H   0  0  0  0  0  0  0  0  0  0  0  0
    8.3443    4.1349   -1.8269 H   0  0  0  0  0  0  0  0  0  0  0  0
    9.6999    2.8775   -0.2425 H   0  0  0  0  0  0  0  0  0  0  0  0
    6.3096    0.4570    0.8054 H   0  0  0  0  0  0  0  0  0  0  0  0
    3.8710    2.6113   -0.9533 H   0  0  0  0  0  0  0  0  0  0  0  0
    4.1004    1.4247    0.2969 H   0  0  0  0  0  0  0  0  0  0  0  0
    4.5026    1.8217   -3.2044 H   0  0  0  0  0  0  0  0  0  0  0  0
    1.9075   -0.7702   -3.0341 H   0  0  0  0  0  0  0  0  0  0  0  0
    2.5179   -2.2995   -6.7887 H   0  0  0  0  0  0  0  0  0  0  0  0
    4.4703   -1.5959   -8.2098 H   0  0  0  0  0  0  0  0  0  0  0  0
    6.4996   -0.2263   -8.4994 H   0  0  0  0  0  0  0  0  0  0  0  0
    7.2119    1.3358   -6.7119 H   0  0  0  0  0  0  0  0  0  0  0  0
    5.9272    1.5254   -4.6525 H   0  0  0  0  0  0  0  0  0  0  0  0
  1  2  1  0  0  0  0
  1 24  1  0  0  0  0
  1 25  1  0  0  0  0
  1 26  1  0  0  0  0
  2  3  1  0  0  0  0
  3  4  1  0  0  0  0
  3  9  2  0  0  0  0
  4  5  2  0  0  0  0
  4 27  1  0  0  0  0
  5  6  1  0  0  0  0
  5 28  1  0  0  0  0
  6  7  1  0  0  0  0
  6  8  2  0  0  0  0
  8  9  1  0  0  0  0
  8 29  1  0  0  0  0
  9 10  1  0  0  0  0
 10 11  1  0  0  0  0
 10 30  1  0  0  0  0
 10 31  1  0  0  0  0
 11 12  2  0  0  0  0
 11 13  1  0  0  0  0
 13 14  1  0  0  0  0
 13 32  1  0  0  0  0
 14 15  1  0  0  0  0
 14 23  2  0  0  0  0
 15 16  2  0  0  0  0
 15 33  1  0  0  0  0
 16 17  1  0  0  0  0
 17 18  2  0  0  0  0
 17 34  1  0  0  0  0
 18 19  1  0  0  0  0
 18 23  1  0  0  0  0
 19 20  2  0  0  0  0
 19 35  1  0  0  0  0
 20 21  1  0  0  0  0
 20 36  1  0  0  0  0
 21 22  2  0  0  0  0
 21 37  1  0  0  0  0
 22 23  1  0  0  0  0
 22 38  1  0  0  0  0
M  END
$$$$
