
 OpenBabel07202414133D

 65 69  0  0  1  0  0  0  0  0999 V2000
    4.3050   -3.3325   -4.6248 C   0  0  0  0  0  0  0  0  0  0  0  0
    5.0385   -3.3481   -5.9625 C   0  0  0  0  0  0  0  0  0  0  0  0
    4.2515   -2.7739   -7.1844 C   0  0  2  0  0  0  0  0  0  0  0  0
    3.8722   -1.2895   -6.9278 C   0  0  0  0  0  0  0  0  0  0  0  0
    4.8587   -0.3109   -6.7019 C   0  0  0  0  0  0  0  0  0  0  0  0
    4.5210    1.0242   -6.4277 C   0  0  0  0  0  0  0  0  0  0  0  0
    3.1879    1.4316   -6.3900 C   0  0  0  0  0  0  0  0  0  0  0  0
    2.8650    2.7611   -6.0162 N   0  0  0  0  0  0  0  0  0  0  0  0
    1.6934    3.4564   -6.3992 C   0  0  0  0  0  0  0  0  0  0  0  0
    1.0470    4.3180   -5.4930 C   0  0  0  0  0  0  0  0  0  0  0  0
   -0.1214    5.0083   -5.8472 C   0  0  0  0  0  0  0  0  0  0  0  0
   -0.7924    5.9585   -4.8770 C   0  0  0  0  0  0  0  0  0  0  0  0
   -1.1917    5.3293   -3.5445 C   0  0  0  0  0  0  0  0  0  0  0  0
   -0.5731    5.5529   -2.5079 O   0  0  0  0  0  0  0  0  0  0  0  0
   -2.2748    4.4949   -3.6673 N   0  0  0  0  0  0  0  0  0  0  0  0
   -2.9658    3.8203   -2.6261 C   0  0  0  0  0  0  0  0  0  0  0  0
   -3.2358    2.4736   -2.8644 C   0  0  0  0  0  0  0  0  0  0  0  0
   -4.1640    1.7417   -2.2189 N   0  0  0  0  0  0  0  0  0  0  0  0
   -4.8874    2.4046   -1.2995 C   0  0  0  0  0  0  0  0  0  0  0  0
   -4.6729    3.7340   -0.9142 C   0  0  0  0  0  0  0  0  0  0  0  0
   -3.6318    4.4613   -1.5406 C   0  0  0  0  0  0  0  0  0  0  0  0
   -3.4061    5.7759   -1.0599 C   0  0  0  0  0  0  0  0  0  0  0  0
   -4.1924    6.3403   -0.0485 C   0  0  0  0  0  0  0  0  0  0  0  0
   -5.2627    5.6311    0.4814 C   0  0  0  0  0  0  0  0  0  0  0  0
   -5.5011    4.3314    0.0494 C   0  0  0  0  0  0  0  0  0  0  0  0
   -0.6240    4.8526   -7.1509 C   0  0  0  0  0  0  0  0  0  0  0  0
    0.0375    4.0387   -8.0686 C   0  0  0  0  0  0  0  0  0  0  0  0
   -0.5831    3.8743   -9.6667 Cl  0  0  0  0  0  0  0  0  0  0  0  0
    1.1915    3.3562   -7.7069 C   0  0  0  0  0  0  0  0  0  0  0  0
    2.2011    0.4688   -6.5938 C   0  0  0  0  0  0  0  0  0  0  0  0
    2.5346   -0.8613   -6.8618 C   0  0  0  0  0  0  0  0  0  0  0  0
    2.9854   -3.6245   -7.4977 C   0  0  0  0  0  0  0  0  0  0  0  0
    3.3011   -5.0172   -8.0085 C   0  0  0  0  0  0  0  0  0  0  0  0
    4.1178   -4.9197   -9.2650 C   0  0  0  0  0  0  0  0  0  0  0  0
    4.1341   -5.8081  -10.1115 O   0  0  0  0  0  0  0  0  0  0  0  0
    4.9229   -3.8165   -9.3727 N   0  0  0  0  0  0  0  0  0  0  0  0
    5.2165   -2.8905   -8.4003 C   0  0  0  0  0  0  0  0  0  0  0  0
    6.2768   -2.2696   -8.4902 O   0  0  0  0  0  0  0  0  0  0  0  0
    4.9367   -3.7900   -3.8552 H   0  0  0  0  0  0  0  0  0  0  0  0
    3.3721   -3.9001   -4.6604 H   0  0  0  0  0  0  0  0  0  0  0  0
    4.0832   -2.3122   -4.2982 H   0  0  0  0  0  0  0  0  0  0  0  0
    5.3498   -4.3791   -6.1707 H   0  0  0  0  0  0  0  0  0  0  0  0
    5.9790   -2.7965   -5.8289 H   0  0  0  0  0  0  0  0  0  0  0  0
    5.9168   -0.5691   -6.7330 H   0  0  0  0  0  0  0  0  0  0  0  0
    5.3164    1.7476   -6.2607 H   0  0  0  0  0  0  0  0  0  0  0  0
    3.0468    2.8635   -5.0173 H   0  0  0  0  0  0  0  0  0  0  0  0
    1.4619    4.4501   -4.4942 H   0  0  0  0  0  0  0  0  0  0  0  0
   -1.6996    6.3806   -5.3275 H   0  0  0  0  0  0  0  0  0  0  0  0
   -0.1237    6.8024   -4.6832 H   0  0  0  0  0  0  0  0  0  0  0  0
   -2.3688    4.0642   -4.5805 H   0  0  0  0  0  0  0  0  0  0  0  0
   -2.6872    1.9241   -3.6287 H   0  0  0  0  0  0  0  0  0  0  0  0
   -5.6890    1.8143   -0.8559 H   0  0  0  0  0  0  0  0  0  0  0  0
   -2.5798    6.3710   -1.4425 H   0  0  0  0  0  0  0  0  0  0  0  0
   -3.9685    7.3379    0.3235 H   0  0  0  0  0  0  0  0  0  0  0  0
   -5.9015    6.0825    1.2384 H   0  0  0  0  0  0  0  0  0  0  0  0
   -6.3468    3.7880    0.4692 H   0  0  0  0  0  0  0  0  0  0  0  0
   -1.5196    5.3828   -7.4615 H   0  0  0  0  0  0  0  0  0  0  0  0
    1.7094    2.7465   -8.4391 H   0  0  0  0  0  0  0  0  0  0  0  0
    1.1491    0.7342   -6.5287 H   0  0  0  0  0  0  0  0  0  0  0  0
    1.6988   -1.5411   -6.9959 H   0  0  0  0  0  0  0  0  0  0  0  0
    2.3980   -3.1303   -8.2853 H   0  0  0  0  0  0  0  0  0  0  0  0
    2.3318   -3.7051   -6.6219 H   0  0  0  0  0  0  0  0  0  0  0  0
    2.3631   -5.5306   -8.2488 H   0  0  0  0  0  0  0  0  0  0  0  0
    3.8408   -5.6197   -7.2732 H   0  0  0  0  0  0  0  0  0  0  0  0
    5.5723   -3.8412  -10.1478 H   0  0  0  0  0  0  0  0  0  0  0  0
  1  2  1  0  0  0  0
  1 39  1  0  0  0  0
  1 40  1  0  0  0  0
  1 41  1  0  0  0  0
  2 42  1  0  0  0  0
  2 43  1  0  0  0  0
  3  2  1  1  0  0  0
  3  4  1  0  0  0  0
  3 32  1  0  0  0  0
  3 37  1  0  0  0  0
  4  5  2  0  0  0  0
  4 31  1  0  0  0  0
  5  6  1  0  0  0  0
  5 44  1  0  0  0  0
  6  7  2  0  0  0  0
  6 45  1  0  0  0  0
  7  8  1  0  0  0  0
  7 30  1  0  0  0  0
  8  9  1  0  0  0  0
  8 46  1  0  0  0  0
  9 10  2  0  0  0  0
  9 29  1  0  0  0  0
 10 11  1  0  0  0  0
 10 47  1  0  0  0  0
 11 12  1  0  0  0  0
 11 26  2  0  0  0  0
 12 13  1  0  0  0  0
 12 48  1  0  0  0  0
 12 49  1  0  0  0  0
 13 14  2  0  0  0  0
 13 15  1  0  0  0  0
 15 16  1  0  0  0  0
 15 50  1  0  0  0  0
 16 17  2  0  0  0  0
 16 21  1  0  0  0  0
 17 18  1  0  0  0  0
 17 51  1  0  0  0  0
 18 19  2  0  0  0  0
 19 20  1  0  0  0  0
 19 52  1  0  0  0  0
 20 21  2  0  0  0  0
 20 25  1  0  0  0  0
 21 22  1  0  0  0  0
 22 23  2  0  0  0  0
 22 53  1  0  0  0  0
 23 24  1  0  0  0  0
 23 54  1  0  0  0  0
 24 25  2  0  0  0  0
 24 55  1  0  0  0  0
 25 56  1  0  0  0  0
 26 27  1  0  0  0  0
 26 57  1  0  0  0  0
 27 28  1  0  0  0  0
 27 29  2  0  0  0  0
 29 58  1  0  0  0  0
 30 31  2  0  0  0  0
 30 59  1  0  0  0  0
 31 60  1  0  0  0  0
 32 33  1  0  0  0  0
 32 61  1  0  0  0  0
 32 62  1  0  0  0  0
 33 34  1  0  0  0  0
 33 63  1  0  0  0  0
 33 64  1  0  0  0  0
 34 35  2  0  0  0  0
 34 36  1  0  0  0  0
 36 37  1  0  0  0  0
 36 65  1  0  0  0  0
 37 38  2  0  0  0  0
M  END
$$$$
