
 OpenBabel07202414173D

 54 58  0  0  1  0  0  0  0  0999 V2000
    1.0163   -0.0996    0.1321 Cl  0  0  0  0  0  0  0  0  0  0  0  0
    2.7344   -0.1541    0.0510 C   0  0  0  0  0  0  0  0  0  0  0  0
    3.4604    1.0300    0.1063 C   0  0  0  0  0  0  0  0  0  0  0  0
    4.8527    0.9824    0.0841 C   0  0  0  0  0  0  0  0  0  0  0  0
    5.5292   -0.2473   -0.0069 C   0  0  0  0  0  0  0  0  0  0  0  0
    4.7942   -1.4399   -0.1492 C   0  0  0  0  0  0  0  0  0  0  0  0
    3.3889   -1.3815   -0.0723 C   0  0  0  0  0  0  0  0  0  0  0  0
    5.5115   -2.7749   -0.3240 C   0  0  1  0  0  0  0  0  0  0  0  0
    4.9066   -3.6556   -1.4469 C   0  0  0  0  0  0  0  0  0  0  0  0
    4.4645   -3.1691   -2.4826 O   0  0  0  0  0  0  0  0  0  0  0  0
    4.9431   -5.0173   -1.1605 N   0  0  0  0  0  0  0  0  0  0  0  0
    4.3193   -6.0792   -1.8864 C   0  0  0  0  0  0  0  0  0  0  0  0
    3.4935   -5.8741   -2.9911 C   0  0  0  0  0  0  0  0  0  0  0  0
    2.7483   -6.8404   -3.5870 N   0  0  0  0  0  0  0  0  0  0  0  0
    2.8699   -8.0905   -3.0988 C   0  0  0  0  0  0  0  0  0  0  0  0
    3.7475   -8.4534   -2.0831 C   0  0  0  0  0  0  0  0  0  0  0  0
    3.9064   -9.8045   -1.7105 C   0  0  0  0  0  0  0  0  0  0  0  0
    4.8037  -10.1659   -0.7104 C   0  0  0  0  0  0  0  0  0  0  0  0
    5.5216   -9.1812   -0.0489 C   0  0  0  0  0  0  0  0  0  0  0  0
    5.3638   -7.8367   -0.4055 C   0  0  0  0  0  0  0  0  0  0  0  0
    4.4897   -7.4288   -1.4408 C   0  0  0  0  0  0  0  0  0  0  0  0
    7.0169   -2.6161   -0.6223 C   0  0  0  0  0  0  0  0  0  0  0  0
    7.6611   -1.5639    0.2488 N   0  0  0  0  0  0  0  0  0  0  0  0
    9.3850   -1.5281    0.1189 S   0  0  0  0  0  0  0  0  0  0  0  0
    9.8007   -2.8978   -0.0723 O   0  0  0  0  0  0  0  0  0  0  0  0
    9.7301   -0.4928   -0.8331 O   0  0  0  0  0  0  0  0  0  0  0  0
    9.9161   -1.0072    1.7661 C   0  0  0  0  0  0  0  0  0  0  0  0
   11.4259   -0.8153    1.7098 C   0  0  0  0  0  0  0  0  0  0  0  0
   12.2155   -1.9630    1.3112 C   0  0  0  0  0  0  0  0  0  0  0  0
   12.8942   -2.8622    1.0428 N   0  0  0  0  0  0  0  0  0  0  0  0
   11.9876    0.5749    1.4409 C   0  0  0  0  0  0  0  0  0  0  0  0
   12.0750    0.0105    2.8248 C   0  0  0  0  0  0  0  0  0  0  0  0
    7.0408   -0.2342   -0.0230 C   0  0  0  0  0  0  0  0  0  0  0  0
    2.9524    1.9888    0.1692 H   0  0  0  0  0  0  0  0  0  0  0  0
    5.4120    1.9153    0.1303 H   0  0  0  0  0  0  0  0  0  0  0  0
    2.7933   -2.2904   -0.1297 H   0  0  0  0  0  0  0  0  0  0  0  0
    5.3969   -3.2997    0.6349 H   0  0  0  0  0  0  0  0  0  0  0  0
    5.3999   -5.2841   -0.3049 H   0  0  0  0  0  0  0  0  0  0  0  0
    3.3731   -4.9043   -3.4621 H   0  0  0  0  0  0  0  0  0  0  0  0
    2.2196   -8.8238   -3.5715 H   0  0  0  0  0  0  0  0  0  0  0  0
    3.3542  -10.5877   -2.2264 H   0  0  0  0  0  0  0  0  0  0  0  0
    4.9491  -11.2130   -0.4573 H   0  0  0  0  0  0  0  0  0  0  0  0
    6.2233   -9.4555    0.7357 H   0  0  0  0  0  0  0  0  0  0  0  0
    5.9772   -7.1223    0.1345 H   0  0  0  0  0  0  0  0  0  0  0  0
    7.1894   -2.3654   -1.6762 H   0  0  0  0  0  0  0  0  0  0  0  0
    7.4888   -3.5866   -0.4274 H   0  0  0  0  0  0  0  0  0  0  0  0
    9.6416   -1.7900    2.4795 H   0  0  0  0  0  0  0  0  0  0  0  0
    9.4038   -0.0734    2.0152 H   0  0  0  0  0  0  0  0  0  0  0  0
   11.3099    1.4070    1.2855 H   0  0  0  0  0  0  0  0  0  0  0  0
   12.9074    0.6637    0.8689 H   0  0  0  0  0  0  0  0  0  0  0  0
   11.4556    0.4481    3.5987 H   0  0  0  0  0  0  0  0  0  0  0  0
   13.0646   -0.2720    3.1828 H   0  0  0  0  0  0  0  0  0  0  0  0
    7.3442    0.1299   -1.0112 H   0  0  0  0  0  0  0  0  0  0  0  0
    7.3885    0.4668    0.7449 H   0  0  0  0  0  0  0  0  0  0  0  0
  1  2  1  0  0  0  0
  2  3  1  0  0  0  0
  2  7  2  0  0  0  0
  3  4  2  0  0  0  0
  3 34  1  0  0  0  0
  4  5  1  0  0  0  0
  4 35  1  0  0  0  0
  5  6  2  0  0  0  0
  5 33  1  0  0  0  0
  6  7  1  0  0  0  0
  6  8  1  0  0  0  0
  7 36  1  0  0  0  0
  8 22  1  0  0  0  0
  8  9  1  0  0  0  0
  8 37  1  1  0  0  0
  9 10  2  0  0  0  0
  9 11  1  0  0  0  0
 11 12  1  0  0  0  0
 11 38  1  0  0  0  0
 12 13  1  0  0  0  0
 12 21  2  0  0  0  0
 13 14  2  0  0  0  0
 13 39  1  0  0  0  0
 14 15  1  0  0  0  0
 15 16  2  0  0  0  0
 15 40  1  0  0  0  0
 16 17  1  0  0  0  0
 16 21  1  0  0  0  0
 17 18  2  0  0  0  0
 17 41  1  0  0  0  0
 18 19  1  0  0  0  0
 18 42  1  0  0  0  0
 19 20  2  0  0  0  0
 19 43  1  0  0  0  0
 20 21  1  0  0  0  0
 20 44  1  0  0  0  0
 22 23  1  0  0  0  0
 22 45  1  0  0  0  0
 22 46  1  0  0  0  0
 23 24  1  0  0  0  0
 23 33  1  0  0  0  0
 24 25  2  0  0  0  0
 24 26  2  0  0  0  0
 24 27  1  0  0  0  0
 27 28  1  0  0  0  0
 27 47  1  0  0  0  0
 27 48  1  0  0  0  0
 28 29  1  0  0  0  0
 28 31  1  0  0  0  0
 28 32  1  0  0  0  0
 29 30  3  0  0  0  0
 31 32  1  0  0  0  0
 31 49  1  0  0  0  0
 31 50  1  0  0  0  0
 32 51  1  0  0  0  0
 32 52  1  0  0  0  0
 33 53  1  0  0  0  0
 33 54  1  0  0  0  0
M  END
$$$$
