
 OpenBabel07202414123D

 63 66  0  0  1  0  0  0  0  0999 V2000
    1.2613   -2.6939   -0.5236 C   0  0  0  0  0  0  0  0  0  0  0  0
    2.7817   -2.6867   -0.4161 C   0  0  0  0  0  0  0  0  0  0  0  0
    3.2914   -4.0314    0.0980 C   0  0  0  0  0  0  0  0  0  0  0  0
    3.3079   -2.4232   -1.7252 O   0  0  0  0  0  0  0  0  0  0  0  0
    4.5403   -1.8421   -1.8193 C   0  0  0  0  0  0  0  0  0  0  0  0
    5.3317   -1.4361   -0.7594 C   0  0  0  0  0  0  0  0  0  0  0  0
    6.5910   -0.8697   -0.9855 C   0  0  0  0  0  0  0  0  0  0  0  0
    7.1466   -0.7208   -2.2655 C   0  0  0  0  0  0  0  0  0  0  0  0
    8.5193   -0.2188   -2.4164 N   0  0  0  0  0  0  0  0  0  0  0  0
    9.0240    0.3153   -3.7098 C   0  0  3  0  0  0  0  0  0  0  0  0
    9.7300   -0.8056   -4.5435 C   0  0  0  0  0  0  0  0  0  0  0  0
   10.9485   -0.9750   -4.5120 O   0  0  0  0  0  0  0  0  0  0  0  0
    8.9130   -1.6203   -5.2947 N   0  0  0  0  0  0  0  0  0  0  0  0
    9.4057   -2.5636   -6.2790 C   0  0  0  0  0  0  0  0  0  0  0  0
    8.3085   -3.5732   -6.6117 C   0  0  0  0  0  0  0  0  0  0  0  0
    8.8028   -4.6533   -7.5233 C   0  0  0  0  0  0  0  0  0  0  0  0
    9.4213   -5.7934   -7.0074 C   0  0  0  0  0  0  0  0  0  0  0  0
    9.9057   -6.7642   -7.8740 C   0  0  0  0  0  0  0  0  0  0  0  0
    9.7546   -6.5601   -9.2346 C   0  0  0  0  0  0  0  0  0  0  0  0
    9.1611   -5.4723   -9.7704 N   0  0  0  0  0  0  0  0  0  0  0  0
    8.7004   -4.5441   -8.9050 C   0  0  0  0  0  0  0  0  0  0  0  0
    8.1035    1.2343   -4.5223 C   0  0  0  0  0  0  0  0  0  0  0  0
    7.1193    2.0302   -3.9218 C   0  0  0  0  0  0  0  0  0  0  0  0
    6.3261    2.8687   -4.6980 C   0  0  0  0  0  0  0  0  0  0  0  0
    6.5670    2.9265   -6.0565 C   0  0  0  0  0  0  0  0  0  0  0  0
    7.5370    2.2203   -6.6718 N   0  0  0  0  0  0  0  0  0  0  0  0
    8.2924    1.4165   -5.8897 C   0  0  0  0  0  0  0  0  0  0  0  0
    9.4484   -0.4964   -1.3478 C   0  0  0  0  0  0  0  0  0  0  0  0
    9.1541   -1.2181   -0.3904 O   0  0  0  0  0  0  0  0  0  0  0  0
   10.8214    0.0249   -1.3411 C   0  0  0  0  0  0  0  0  0  0  0  0
   11.8141   -0.5087   -0.5397 C   0  0  0  0  0  0  0  0  0  0  0  0
   12.9573    0.2026   -0.7166 O   0  0  0  0  0  0  0  0  0  0  0  0
   12.5958    1.1604   -1.6110 C   0  0  0  0  0  0  0  0  0  0  0  0
   11.3374    1.1278   -1.9941 N   0  0  0  0  0  0  0  0  0  0  0  0
    6.2842   -1.0442   -3.3214 C   0  0  0  0  0  0  0  0  0  0  0  0
    5.0170   -1.6218   -3.1066 C   0  0  0  0  0  0  0  0  0  0  0  0
    0.8018   -2.8954    0.4498 H   0  0  0  0  0  0  0  0  0  0  0  0
    0.9140   -3.4403   -1.2443 H   0  0  0  0  0  0  0  0  0  0  0  0
    0.9070   -1.7180   -0.8742 H   0  0  0  0  0  0  0  0  0  0  0  0
    3.0236   -1.8839    0.2876 H   0  0  0  0  0  0  0  0  0  0  0  0
    3.1611   -4.8179   -0.6531 H   0  0  0  0  0  0  0  0  0  0  0  0
    2.7743   -4.3289    1.0155 H   0  0  0  0  0  0  0  0  0  0  0  0
    4.3630   -3.9854    0.3187 H   0  0  0  0  0  0  0  0  0  0  0  0
    5.0260   -1.5425    0.2747 H   0  0  0  0  0  0  0  0  0  0  0  0
    7.1134   -0.5318   -0.0941 H   0  0  0  0  0  0  0  0  0  0  0  0
    9.8241    1.0181   -3.4899 H   0  0  0  0  0  0  0  0  0  0  0  0
    7.9356   -1.4016   -5.3575 H   0  0  0  0  0  0  0  0  0  0  0  0
   10.3129   -3.0467   -5.9022 H   0  0  0  0  0  0  0  0  0  0  0  0
    9.6846   -1.9891   -7.1721 H   0  0  0  0  0  0  0  0  0  0  0  0
    7.4512   -3.0602   -7.0706 H   0  0  0  0  0  0  0  0  0  0  0  0
    7.9185   -4.0226   -5.6914 H   0  0  0  0  0  0  0  0  0  0  0  0
    9.5305   -5.9247   -5.9325 H   0  0  0  0  0  0  0  0  0  0  0  0
   10.3921   -7.6551   -7.4967 H   0  0  0  0  0  0  0  0  0  0  0  0
   10.1209   -7.2880   -9.9518 H   0  0  0  0  0  0  0  0  0  0  0  0
    8.2321   -3.6824   -9.3744 H   0  0  0  0  0  0  0  0  0  0  0  0
    6.9513    1.9972   -2.8479 H   0  0  0  0  0  0  0  0  0  0  0  0
    5.5416    3.4668   -4.2476 H   0  0  0  0  0  0  0  0  0  0  0  0
    5.9802    3.5720   -6.7046 H   0  0  0  0  0  0  0  0  0  0  0  0
    9.0947    0.9196   -6.4358 H   0  0  0  0  0  0  0  0  0  0  0  0
   11.8534   -1.3291    0.1651 H   0  0  0  0  0  0  0  0  0  0  0  0
   13.3710    1.8509   -1.9101 H   0  0  0  0  0  0  0  0  0  0  0  0
    6.5236   -0.8609   -4.3556 H   0  0  0  0  0  0  0  0  0  0  0  0
    4.4025   -1.8998   -3.9616 H   0  0  0  0  0  0  0  0  0  0  0  0
  1  2  1  0  0  0  0
  1 37  1  0  0  0  0
  1 38  1  0  0  0  0
  1 39  1  0  0  0  0
  2  3  1  0  0  0  0
  2  4  1  0  0  0  0
  2 40  1  0  0  0  0
  3 41  1  0  0  0  0
  3 42  1  0  0  0  0
  3 43  1  0  0  0  0
  4  5  1  0  0  0  0
  5  6  1  0  0  0  0
  5 36  2  0  0  0  0
  6  7  2  0  0  0  0
  6 44  1  0  0  0  0
  7  8  1  0  0  0  0
  7 45  1  0  0  0  0
  8  9  1  0  0  0  0
  8 35  2  0  0  0  0
  9 10  1  0  0  0  0
  9 28  1  0  0  0  0
 10 11  1  0  0  0  0
 10 22  1  0  0  0  0
 10 46  1  0  0  0  0
 11 12  2  0  0  0  0
 11 13  1  0  0  0  0
 13 14  1  0  0  0  0
 13 47  1  0  0  0  0
 14 15  1  0  0  0  0
 14 48  1  0  0  0  0
 14 49  1  0  0  0  0
 15 16  1  0  0  0  0
 15 50  1  0  0  0  0
 15 51  1  0  0  0  0
 16 17  1  0  0  0  0
 16 21  2  0  0  0  0
 17 18  2  0  0  0  0
 17 52  1  0  0  0  0
 18 19  1  0  0  0  0
 18 53  1  0  0  0  0
 19 20  2  0  0  0  0
 19 54  1  0  0  0  0
 20 21  1  0  0  0  0
 21 55  1  0  0  0  0
 22 23  1  0  0  0  0
 22 27  2  0  0  0  0
 23 24  2  0  0  0  0
 23 56  1  0  0  0  0
 24 25  1  0  0  0  0
 24 57  1  0  0  0  0
 25 26  2  0  0  0  0
 25 58  1  0  0  0  0
 26 27  1  0  0  0  0
 27 59  1  0  0  0  0
 28 29  2  0  0  0  0
 28 30  1  0  0  0  0
 30 31  2  0  0  0  0
 30 34  1  0  0  0  0
 31 32  1  0  0  0  0
 31 60  1  0  0  0  0
 32 33  1  0  0  0  0
 33 34  2  0  0  0  0
 33 61  1  0  0  0  0
 35 36  1  0  0  0  0
 35 62  1  0  0  0  0
 36 63  1  0  0  0  0
M  END
$$$$
