
 OpenBabel07202414193D

 46 49  0  0  1  0  0  0  0  0999 V2000
    2.9232   -0.6491   -0.8180 O   0  0  0  0  0  0  0  0  0  0  0  0
    2.3941    0.3216   -0.2802 C   0  0  0  0  0  0  0  0  0  0  0  0
    0.8968    0.3274   -0.0092 C   0  0  0  0  0  0  0  0  0  0  0  0
    0.4880   -0.2097    1.3375 C   0  0  0  0  0  0  0  0  0  0  0  0
    1.1528   -1.3307    1.8426 C   0  0  0  0  0  0  0  0  0  0  0  0
    0.8088   -1.9793    2.9706 N   0  0  0  0  0  0  0  0  0  0  0  0
   -0.2823   -1.5191    3.6140 C   0  0  0  0  0  0  0  0  0  0  0  0
   -1.0419   -0.4208    3.2129 C   0  0  0  0  0  0  0  0  0  0  0  0
   -2.1851   -0.0327    3.9346 C   0  0  0  0  0  0  0  0  0  0  0  0
   -2.9338    1.0699    3.5347 C   0  0  0  0  0  0  0  0  0  0  0  0
   -2.5339    1.8061    2.4275 C   0  0  0  0  0  0  0  0  0  0  0  0
   -1.4065    1.4171    1.6955 C   0  0  0  0  0  0  0  0  0  0  0  0
   -0.6380    0.2806    2.0563 C   0  0  0  0  0  0  0  0  0  0  0  0
    3.0754    1.4823    0.0131 N   0  0  0  0  0  0  0  0  0  0  0  0
    2.6366    2.5331    0.9139 C   0  0  0  0  0  0  0  0  0  0  0  0
    2.9494    3.7689    0.1076 C   0  0  0  0  0  0  0  0  0  0  0  0
    4.3271    3.4334   -0.4630 C   0  0  0  0  0  0  0  0  0  0  0  0
    4.3046    1.8954   -0.6857 C   0  0  2  0  0  0  0  0  0  0  0  0
    4.3572    1.5013   -2.1768 C   0  0  0  0  0  0  0  0  0  0  0  0
    5.5046    2.1170   -2.9325 C   0  0  0  0  0  0  0  0  0  0  0  0
    6.8243    1.8217   -2.6039 C   0  0  0  0  0  0  0  0  0  0  0  0
    7.8456    2.4517   -3.3076 C   0  0  0  0  0  0  0  0  0  0  0  0
    7.5241    3.3420   -4.3248 C   0  0  0  0  0  0  0  0  0  0  0  0
    6.1867    3.5666   -4.5983 C   0  0  0  0  0  0  0  0  0  0  0  0
    5.1762    2.9833   -3.9214 N   0  0  0  0  0  0  0  0  0  0  0  0
    0.4185   -0.2899   -0.7803 H   0  0  0  0  0  0  0  0  0  0  0  0
    0.5250    1.3376   -0.1979 H   0  0  0  0  0  0  0  0  0  0  0  0
    2.0041   -1.7713    1.3266 H   0  0  0  0  0  0  0  0  0  0  0  0
   -0.5427   -2.0901    4.5014 H   0  0  0  0  0  0  0  0  0  0  0  0
   -2.5092   -0.6044    4.7996 H   0  0  0  0  0  0  0  0  0  0  0  0
   -3.8258    1.3520    4.0877 H   0  0  0  0  0  0  0  0  0  0  0  0
   -3.1022    2.6834    2.1257 H   0  0  0  0  0  0  0  0  0  0  0  0
   -1.1400    2.0310    0.8404 H   0  0  0  0  0  0  0  0  0  0  0  0
    3.2674    2.4816    1.8110 H   0  0  0  0  0  0  0  0  0  0  0  0
    1.5970    2.4649    1.2281 H   0  0  0  0  0  0  0  0  0  0  0  0
    2.9363    4.6866    0.6986 H   0  0  0  0  0  0  0  0  0  0  0  0
    2.2229    3.8672   -0.7101 H   0  0  0  0  0  0  0  0  0  0  0  0
    5.0999    3.6842    0.2728 H   0  0  0  0  0  0  0  0  0  0  0  0
    4.5238    4.0215   -1.3626 H   0  0  0  0  0  0  0  0  0  0  0  0
    5.1526    1.4445   -0.1538 H   0  0  0  0  0  0  0  0  0  0  0  0
    4.4468    0.4146   -2.2878 H   0  0  0  0  0  0  0  0  0  0  0  0
    3.4125    1.7811   -2.6598 H   0  0  0  0  0  0  0  0  0  0  0  0
    7.0604    1.1164   -1.8126 H   0  0  0  0  0  0  0  0  0  0  0  0
    8.8845    2.2490   -3.0648 H   0  0  0  0  0  0  0  0  0  0  0  0
    8.2951    3.8458   -4.8948 H   0  0  0  0  0  0  0  0  0  0  0  0
    5.8797    4.2427   -5.3902 H   0  0  0  0  0  0  0  0  0  0  0  0
  1  2  2  0  0  0  0
  2  3  1  0  0  0  0
  2 14  1  0  0  0  0
  3  4  1  0  0  0  0
  3 26  1  0  0  0  0
  3 27  1  0  0  0  0
  4  5  1  0  0  0  0
  4 13  2  0  0  0  0
  5  6  2  0  0  0  0
  5 28  1  0  0  0  0
  6  7  1  0  0  0  0
  7  8  2  0  0  0  0
  7 29  1  0  0  0  0
  8  9  1  0  0  0  0
  8 13  1  0  0  0  0
  9 10  2  0  0  0  0
  9 30  1  0  0  0  0
 10 11  1  0  0  0  0
 10 31  1  0  0  0  0
 11 12  2  0  0  0  0
 11 32  1  0  0  0  0
 12 13  1  0  0  0  0
 12 33  1  0  0  0  0
 14 15  1  0  0  0  0
 14 18  1  0  0  0  0
 15 16  1  0  0  0  0
 15 34  1  0  0  0  0
 15 35  1  0  0  0  0
 16 17  1  0  0  0  0
 16 36  1  0  0  0  0
 16 37  1  0  0  0  0
 17 18  1  0  0  0  0
 17 38  1  0  0  0  0
 17 39  1  0  0  0  0
 18 19  1  0  0  0  0
 18 40  1  1  0  0  0
 19 20  1  0  0  0  0
 19 41  1  0  0  0  0
 19 42  1  0  0  0  0
 20 21  1  0  0  0  0
 20 25  2  0  0  0  0
 21 22  2  0  0  0  0
 21 43  1  0  0  0  0
 22 23  1  0  0  0  0
 22 44  1  0  0  0  0
 23 24  2  0  0  0  0
 23 45  1  0  0  0  0
 24 25  1  0  0  0  0
 24 46  1  0  0  0  0
M  END
$$$$
