
 OpenBabel07202414203D

 56 59  0  0  1  0  0  0  0  0999 V2000
    2.4495   -2.0074   -1.1963 O   0  0  0  0  0  0  0  0  0  0  0  0
    2.2535   -0.6864   -0.6837 C   0  0  0  0  0  0  0  0  0  0  0  0
    3.0481    0.3316   -1.5360 C   0  0  1  0  0  0  0  0  0  0  0  0
    2.8918    1.7664   -0.9820 C   0  0  0  0  0  0  0  0  0  0  0  0
    1.4755    2.3083   -0.9736 C   0  0  0  0  0  0  0  0  0  0  0  0
    0.8766    2.7121    0.2292 C   0  0  0  0  0  0  0  0  0  0  0  0
   -0.4185    3.2401    0.2399 C   0  0  0  0  0  0  0  0  0  0  0  0
   -1.1294    3.3725   -0.9505 C   0  0  0  0  0  0  0  0  0  0  0  0
   -0.5448    2.9772   -2.1511 C   0  0  0  0  0  0  0  0  0  0  0  0
    0.7498    2.4518   -2.1647 C   0  0  0  0  0  0  0  0  0  0  0  0
    4.4956   -0.0403   -1.5428 N   0  0  0  0  0  0  0  0  0  0  0  0
    5.1412   -0.2820   -2.7709 C   0  0  0  0  0  0  0  0  0  0  0  0
    4.7581    0.3263   -3.9673 C   0  0  0  0  0  0  0  0  0  0  0  0
    5.4183    0.0345   -5.1607 C   0  0  0  0  0  0  0  0  0  0  0  0
    4.8561    0.7404   -6.6280 Cl  0  0  0  0  0  0  0  0  0  0  0  0
    6.5420   -0.7901   -5.1778 C   0  0  0  0  0  0  0  0  0  0  0  0
    7.0496   -1.2965   -3.9780 C   0  0  0  0  0  0  0  0  0  0  0  0
    8.4236   -1.9353   -3.9411 C   0  0  0  0  0  0  0  0  0  0  0  0
    8.6566   -3.1261   -4.8645 C   0  0  0  0  0  0  0  0  0  0  0  0
    9.2387   -3.0172   -5.9374 O   0  0  0  0  0  0  0  0  0  0  0  0
    8.1452   -4.2975   -4.3483 N   0  0  0  0  0  0  0  0  0  0  0  0
    8.3679   -5.6215   -4.8136 C   0  0  0  0  0  0  0  0  0  0  0  0
    7.2388   -6.4452   -4.8183 C   0  0  0  0  0  0  0  0  0  0  0  0
    7.2488   -7.7826   -4.9706 N   0  0  0  0  0  0  0  0  0  0  0  0
    8.4657   -8.3438   -5.0993 C   0  0  0  0  0  0  0  0  0  0  0  0
    9.6688   -7.6472   -5.1475 C   0  0  0  0  0  0  0  0  0  0  0  0
    9.6381   -6.2235   -5.0548 C   0  0  0  0  0  0  0  0  0  0  0  0
   10.8968   -5.5699   -5.1500 C   0  0  0  0  0  0  0  0  0  0  0  0
   12.1002   -6.2747   -5.3068 C   0  0  0  0  0  0  0  0  0  0  0  0
   12.0968   -7.6615   -5.3321 C   0  0  0  0  0  0  0  0  0  0  0  0
   10.8868   -8.3431   -5.2554 C   0  0  0  0  0  0  0  0  0  0  0  0
    6.3309   -1.0433   -2.7867 C   0  0  0  0  0  0  0  0  0  0  0  0
    1.6322   -2.5064   -1.0248 H   0  0  0  0  0  0  0  0  0  0  0  0
    2.5821   -0.6802    0.3603 H   0  0  0  0  0  0  0  0  0  0  0  0
    1.1818   -0.4645   -0.7181 H   0  0  0  0  0  0  0  0  0  0  0  0
    2.6267    0.2659   -2.5440 H   0  0  0  0  0  0  0  0  0  0  0  0
    3.5064    2.4593   -1.5725 H   0  0  0  0  0  0  0  0  0  0  0  0
    3.3044    1.8052    0.0354 H   0  0  0  0  0  0  0  0  0  0  0  0
    1.4147    2.6295    1.1704 H   0  0  0  0  0  0  0  0  0  0  0  0
   -0.8691    3.5566    1.1775 H   0  0  0  0  0  0  0  0  0  0  0  0
   -2.1323    3.7928   -0.9432 H   0  0  0  0  0  0  0  0  0  0  0  0
   -1.0954    3.0880   -3.0834 H   0  0  0  0  0  0  0  0  0  0  0  0
    1.1892    2.1676   -3.1180 H   0  0  0  0  0  0  0  0  0  0  0  0
    4.6494   -0.8377   -0.9225 H   0  0  0  0  0  0  0  0  0  0  0  0
    3.9404    1.0397   -3.9904 H   0  0  0  0  0  0  0  0  0  0  0  0
    7.0543   -0.9792   -6.1189 H   0  0  0  0  0  0  0  0  0  0  0  0
    8.6706   -2.2478   -2.9186 H   0  0  0  0  0  0  0  0  0  0  0  0
    9.1605   -1.1652   -4.2025 H   0  0  0  0  0  0  0  0  0  0  0  0
    7.3154   -4.1709   -3.7805 H   0  0  0  0  0  0  0  0  0  0  0  0
    6.2443   -6.0202   -4.7066 H   0  0  0  0  0  0  0  0  0  0  0  0
    8.4448   -9.4328   -5.1591 H   0  0  0  0  0  0  0  0  0  0  0  0
   10.9568   -4.4866   -5.1370 H   0  0  0  0  0  0  0  0  0  0  0  0
   13.0390   -5.7323   -5.4060 H   0  0  0  0  0  0  0  0  0  0  0  0
   13.0292   -8.2125   -5.4220 H   0  0  0  0  0  0  0  0  0  0  0  0
   10.8993   -9.4311   -5.2685 H   0  0  0  0  0  0  0  0  0  0  0  0
    6.7198   -1.4203   -1.8409 H   0  0  0  0  0  0  0  0  0  0  0  0
  1  2  1  0  0  0  0
  1 33  1  0  0  0  0
  2  3  1  0  0  0  0
  2 34  1  0  0  0  0
  2 35  1  0  0  0  0
  3  4  1  0  0  0  0
  3 11  1  0  0  0  0
  3 36  1  6  0  0  0
  4  5  1  0  0  0  0
  4 37  1  0  0  0  0
  4 38  1  0  0  0  0
  5  6  2  0  0  0  0
  5 10  1  0  0  0  0
  6  7  1  0  0  0  0
  6 39  1  0  0  0  0
  7  8  2  0  0  0  0
  7 40  1  0  0  0  0
  8  9  1  0  0  0  0
  8 41  1  0  0  0  0
  9 10  2  0  0  0  0
  9 42  1  0  0  0  0
 10 43  1  0  0  0  0
 11 12  1  0  0  0  0
 11 44  1  0  0  0  0
 12 13  2  0  0  0  0
 12 32  1  0  0  0  0
 13 14  1  0  0  0  0
 13 45  1  0  0  0  0
 14 15  1  0  0  0  0
 14 16  2  0  0  0  0
 16 17  1  0  0  0  0
 16 46  1  0  0  0  0
 17 18  1  0  0  0  0
 17 32  2  0  0  0  0
 18 19  1  0  0  0  0
 18 47  1  0  0  0  0
 18 48  1  0  0  0  0
 19 20  2  0  0  0  0
 19 21  1  0  0  0  0
 21 22  1  0  0  0  0
 21 49  1  0  0  0  0
 22 23  2  0  0  0  0
 22 27  1  0  0  0  0
 23 24  1  0  0  0  0
 23 50  1  0  0  0  0
 24 25  2  0  0  0  0
 25 26  1  0  0  0  0
 25 51  1  0  0  0  0
 26 27  2  0  0  0  0
 26 31  1  0  0  0  0
 27 28  1  0  0  0  0
 28 29  2  0  0  0  0
 28 52  1  0  0  0  0
 29 30  1  0  0  0  0
 29 53  1  0  0  0  0
 30 31  2  0  0  0  0
 30 54  1  0  0  0  0
 31 55  1  0  0  0  0
 32 56  1  0  0  0  0
M  END
$$$$
