
 OpenBabel07202414133D

 37 39  0  0  0  0  0  0  0  0999 V2000
    1.0257    0.0954   -0.0242 C   0  0  0  0  0  0  0  0  0  0  0  0
    2.4779    0.0322   -0.0777 N   0  0  0  0  0  0  0  0  0  0  0  0
    3.1236   -0.9632    0.7092 C   0  0  0  0  0  0  0  0  0  0  0  0
    3.4663   -0.6758    2.0339 C   0  0  0  0  0  0  0  0  0  0  0  0
    4.0213   -1.5654    2.8883 N   0  0  0  0  0  0  0  0  0  0  0  0
    4.2021   -2.8206    2.4210 C   0  0  0  0  0  0  0  0  0  0  0  0
    3.8697   -3.2393    1.1328 C   0  0  0  0  0  0  0  0  0  0  0  0
    3.3403   -2.2797    0.2371 C   0  0  0  0  0  0  0  0  0  0  0  0
    3.0501   -2.7078   -1.0805 C   0  0  0  0  0  0  0  0  0  0  0  0
    3.2224   -4.0416   -1.4668 C   0  0  0  0  0  0  0  0  0  0  0  0
    3.7008   -4.9788   -0.5583 C   0  0  0  0  0  0  0  0  0  0  0  0
    4.0396   -4.5777    0.7312 C   0  0  0  0  0  0  0  0  0  0  0  0
    3.1214    0.9620   -0.8895 C   0  0  0  0  0  0  0  0  0  0  0  0
    2.4878    1.8074   -1.5305 O   0  0  0  0  0  0  0  0  0  0  0  0
    4.6352    0.9247   -0.9896 C   0  0  0  0  0  0  0  0  0  0  0  0
    5.3310    1.8161    0.0083 C   0  0  0  0  0  0  0  0  0  0  0  0
    6.2545    1.2721    0.9120 C   0  0  0  0  0  0  0  0  0  0  0  0
    6.9652    2.0984    1.7836 C   0  0  0  0  0  0  0  0  0  0  0  0
    6.7642    3.4777    1.7572 C   0  0  0  0  0  0  0  0  0  0  0  0
    5.8347    4.0241    0.8749 C   0  0  0  0  0  0  0  0  0  0  0  0
    5.1151    3.2028    0.0075 C   0  0  0  0  0  0  0  0  0  0  0  0
    5.5938    5.7274    0.8341 Cl  0  0  0  0  0  0  0  0  0  0  0  0
    0.6058   -0.6102    0.6984 H   0  0  0  0  0  0  0  0  0  0  0  0
    0.6325   -0.1213   -1.0231 H   0  0  0  0  0  0  0  0  0  0  0  0
    0.7217    1.1130    0.2449 H   0  0  0  0  0  0  0  0  0  0  0  0
    3.2877    0.3047    2.4661 H   0  0  0  0  0  0  0  0  0  0  0  0
    4.6318   -3.5109    3.1451 H   0  0  0  0  0  0  0  0  0  0  0  0
    2.6924   -2.0005   -1.8212 H   0  0  0  0  0  0  0  0  0  0  0  0
    2.9752   -4.3479   -2.4809 H   0  0  0  0  0  0  0  0  0  0  0  0
    3.8167   -6.0191   -0.8540 H   0  0  0  0  0  0  0  0  0  0  0  0
    4.4249   -5.3200    1.4279 H   0  0  0  0  0  0  0  0  0  0  0  0
    4.9038    1.2614   -2.0016 H   0  0  0  0  0  0  0  0  0  0  0  0
    5.0035   -0.1009   -0.9262 H   0  0  0  0  0  0  0  0  0  0  0  0
    6.4374    0.1989    0.9373 H   0  0  0  0  0  0  0  0  0  0  0  0
    7.6856    1.6655    2.4731 H   0  0  0  0  0  0  0  0  0  0  0  0
    7.3398    4.1193    2.4183 H   0  0  0  0  0  0  0  0  0  0  0  0
    4.3994    3.6460   -0.6834 H   0  0  0  0  0  0  0  0  0  0  0  0
  1  2  1  0  0  0  0
  1 23  1  0  0  0  0
  1 24  1  0  0  0  0
  1 25  1  0  0  0  0
  2  3  1  0  0  0  0
  2 13  1  0  0  0  0
  3  4  1  0  0  0  0
  3  8  2  0  0  0  0
  4  5  2  0  0  0  0
  4 26  1  0  0  0  0
  5  6  1  0  0  0  0
  6  7  2  0  0  0  0
  6 27  1  0  0  0  0
  7  8  1  0  0  0  0
  7 12  1  0  0  0  0
  8  9  1  0  0  0  0
  9 10  2  0  0  0  0
  9 28  1  0  0  0  0
 10 11  1  0  0  0  0
 10 29  1  0  0  0  0
 11 12  2  0  0  0  0
 11 30  1  0  0  0  0
 12 31  1  0  0  0  0
 13 14  2  0  0  0  0
 13 15  1  0  0  0  0
 15 16  1  0  0  0  0
 15 32  1  0  0  0  0
 15 33  1  0  0  0  0
 16 17  1  0  0  0  0
 16 21  2  0  0  0  0
 17 18  2  0  0  0  0
 17 34  1  0  0  0  0
 18 19  1  0  0  0  0
 18 35  1  0  0  0  0
 19 20  2  0  0  0  0
 19 36  1  0  0  0  0
 20 21  1  0  0  0  0
 20 22  1  0  0  0  0
 21 37  1  0  0  0  0
M  END
$$$$
