
 OpenBabel07202414143D

 53 56  0  0  1  0  0  0  0  0999 V2000
    4.0916   -1.6187    0.0620 C   0  0  0  0  0  0  0  0  0  0  0  0
    3.3906   -0.9749    1.1639 N   0  0  0  0  0  0  0  0  0  0  0  0
    4.1133    0.1547    1.7887 C   0  0  2  0  0  0  0  0  0  0  0  0
    3.2195    0.6769    2.9180 C   0  0  0  0  0  0  0  0  0  0  0  0
    4.4141    1.2684    0.7659 C   0  0  0  0  0  0  0  0  0  0  0  0
    5.1450    2.4495    1.2431 N   0  0  0  0  0  0  0  0  0  0  0  0
    6.6065    2.4114    1.3006 C   0  0  0  0  0  0  0  0  0  0  0  0
    7.2331    3.4268    0.3432 C   0  0  1  0  0  0  0  0  0  0  0  0
    7.1885    2.9113   -1.1001 C   0  0  0  0  0  0  0  0  0  0  0  0
    8.2286    2.6059   -1.6796 O   0  0  0  0  0  0  0  0  0  0  0  0
    5.9159    2.8232   -1.6363 N   0  0  0  0  0  0  0  0  0  0  0  0
    5.5378    2.4521   -2.9486 C   0  0  0  0  0  0  0  0  0  0  0  0
    6.4417    1.9330   -3.8742 C   0  0  0  0  0  0  0  0  0  0  0  0
    6.1546    1.7051   -5.1756 N   0  0  0  0  0  0  0  0  0  0  0  0
    4.8944    1.9794   -5.5696 C   0  0  0  0  0  0  0  0  0  0  0  0
    3.8692    2.3967   -4.7222 C   0  0  0  0  0  0  0  0  0  0  0  0
    2.5578    2.5709   -5.2013 C   0  0  0  0  0  0  0  0  0  0  0  0
    1.5312    2.9677   -4.3470 C   0  0  0  0  0  0  0  0  0  0  0  0
    1.8097    3.2145   -3.0117 C   0  0  0  0  0  0  0  0  0  0  0  0
    3.1142    3.0652   -2.5299 C   0  0  0  0  0  0  0  0  0  0  0  0
    4.1848    2.6416   -3.3654 C   0  0  0  0  0  0  0  0  0  0  0  0
    6.5764    4.7850    0.5267 C   0  0  0  0  0  0  0  0  0  0  0  0
    7.2399    5.9549    0.1209 C   0  0  0  0  0  0  0  0  0  0  0  0
    6.6115    7.1966    0.2428 C   0  0  0  0  0  0  0  0  0  0  0  0
    7.4258    8.6205   -0.2753 Cl  0  0  0  0  0  0  0  0  0  0  0  0
    5.3239    7.2914    0.7667 C   0  0  0  0  0  0  0  0  0  0  0  0
    4.6552    6.1365    1.1761 C   0  0  0  0  0  0  0  0  0  0  0  0
    5.2760    4.8861    1.0636 C   0  0  0  0  0  0  0  0  0  0  0  0
    4.4724    3.6564    1.3438 C   0  0  0  0  0  0  0  0  0  0  0  0
    3.2546    3.7474    1.4735 O   0  0  0  0  0  0  0  0  0  0  0  0
    3.4840   -2.4472   -0.3143 H   0  0  0  0  0  0  0  0  0  0  0  0
    5.0573   -2.0220    0.3799 H   0  0  0  0  0  0  0  0  0  0  0  0
    4.2398   -0.9456   -0.7884 H   0  0  0  0  0  0  0  0  0  0  0  0
    3.1704   -1.6717    1.8755 H   0  0  0  0  0  0  0  0  0  0  0  0
    5.0504   -0.2079    2.2278 H   0  0  0  0  0  0  0  0  0  0  0  0
    2.2466    1.0083    2.5348 H   0  0  0  0  0  0  0  0  0  0  0  0
    3.6826    1.5223    3.4360 H   0  0  0  0  0  0  0  0  0  0  0  0
    3.0352   -0.1033    3.6655 H   0  0  0  0  0  0  0  0  0  0  0  0
    3.4719    1.5996    0.3146 H   0  0  0  0  0  0  0  0  0  0  0  0
    5.0214    0.8648   -0.0493 H   0  0  0  0  0  0  0  0  0  0  0  0
    6.9669    1.3935    1.1135 H   0  0  0  0  0  0  0  0  0  0  0  0
    6.8812    2.6749    2.3308 H   0  0  0  0  0  0  0  0  0  0  0  0
    8.2949    3.5240    0.6099 H   0  0  0  0  0  0  0  0  0  0  0  0
    5.1668    3.1515   -1.0467 H   0  0  0  0  0  0  0  0  0  0  0  0
    7.4571    1.6610   -3.6054 H   0  0  0  0  0  0  0  0  0  0  0  0
    4.7213    1.8415   -6.6340 H   0  0  0  0  0  0  0  0  0  0  0  0
    2.3234    2.3755   -6.2451 H   0  0  0  0  0  0  0  0  0  0  0  0
    0.5156    3.0681   -4.7200 H   0  0  0  0  0  0  0  0  0  0  0  0
    1.0153    3.5178   -2.3330 H   0  0  0  0  0  0  0  0  0  0  0  0
    3.2564    3.2711   -1.4744 H   0  0  0  0  0  0  0  0  0  0  0  0
    8.2397    5.9004   -0.3078 H   0  0  0  0  0  0  0  0  0  0  0  0
    4.8267    8.2559    0.8401 H   0  0  0  0  0  0  0  0  0  0  0  0
    3.6355    6.2125    1.5519 H   0  0  0  0  0  0  0  0  0  0  0  0
  1  2  1  0  0  0  0
  1 31  1  0  0  0  0
  1 32  1  0  0  0  0
  1 33  1  0  0  0  0
  2 34  1  0  0  0  0
  3  5  1  0  0  0  0
  3  4  1  0  0  0  0
  3  2  1  0  0  0  0
  3 35  1  1  0  0  0
  4 36  1  0  0  0  0
  4 37  1  0  0  0  0
  4 38  1  0  0  0  0
  5  6  1  0  0  0  0
  5 39  1  0  0  0  0
  5 40  1  0  0  0  0
  6  7  1  0  0  0  0
  6 29  1  0  0  0  0
  7  8  1  0  0  0  0
  7 41  1  0  0  0  0
  7 42  1  0  0  0  0
  8  9  1  0  0  0  0
  8 22  1  0  0  0  0
  8 43  1  1  0  0  0
  9 10  2  0  0  0  0
  9 11  1  0  0  0  0
 11 12  1  0  0  0  0
 11 44  1  0  0  0  0
 12 13  1  0  0  0  0
 12 21  2  0  0  0  0
 13 14  2  0  0  0  0
 13 45  1  0  0  0  0
 14 15  1  0  0  0  0
 15 16  2  0  0  0  0
 15 46  1  0  0  0  0
 16 17  1  0  0  0  0
 16 21  1  0  0  0  0
 17 18  2  0  0  0  0
 17 47  1  0  0  0  0
 18 19  1  0  0  0  0
 18 48  1  0  0  0  0
 19 20  2  0  0  0  0
 19 49  1  0  0  0  0
 20 21  1  0  0  0  0
 20 50  1  0  0  0  0
 22 23  1  0  0  0  0
 22 28  2  0  0  0  0
 23 24  2  0  0  0  0
 23 51  1  0  0  0  0
 24 25  1  0  0  0  0
 24 26  1  0  0  0  0
 26 27  2  0  0  0  0
 26 52  1  0  0  0  0
 27 28  1  0  0  0  0
 27 53  1  0  0  0  0
 28 29  1  0  0  0  0
 29 30  2  0  0  0  0
M  END
$$$$
