
 OpenBabel07202414193D

 51 55  0  0  0  0  0  0  0  0999 V2000
    1.1787   -0.6973    0.4104 O   0  0  0  0  0  0  0  0  0  0  0  0
    2.3786   -0.4290    0.2795 C   0  0  0  0  0  0  0  0  0  0  0  0
    3.1161    0.2657    1.4216 C   0  0  0  0  0  0  0  0  0  0  0  0
    3.6255   -0.6431    2.4274 N   0  0  0  0  0  0  0  0  0  0  0  0
    4.9567   -0.7086    2.6441 N   0  0  0  0  0  0  0  0  0  0  0  0
    5.1759   -1.6376    3.5622 N   0  0  0  0  0  0  0  0  0  0  0  0
    3.9637   -2.0679    4.0202 C   0  0  0  0  0  0  0  0  0  0  0  0
    3.6516   -2.9910    5.0274 C   0  0  0  0  0  0  0  0  0  0  0  0
    2.3042   -3.2059    5.3371 C   0  0  0  0  0  0  0  0  0  0  0  0
    1.2955   -2.5288    4.6466 C   0  0  0  0  0  0  0  0  0  0  0  0
    1.5915   -1.6272    3.6142 C   0  0  0  0  0  0  0  0  0  0  0  0
    2.9429   -1.4204    3.3289 C   0  0  0  0  0  0  0  0  0  0  0  0
    3.0509   -0.6383   -0.9299 N   0  0  0  0  0  0  0  0  0  0  0  0
    2.3221   -1.1893   -2.0786 C   0  0  0  0  0  0  0  0  0  0  0  0
    1.8249   -0.0976   -2.9867 C   0  0  0  0  0  0  0  0  0  0  0  0
    0.8365    0.8857   -2.6388 C   0  0  0  0  0  0  0  0  0  0  0  0
    0.5634    1.7588   -3.6683 C   0  0  0  0  0  0  0  0  0  0  0  0
    1.4586    1.3890   -5.0743 S   0  0  0  0  0  0  0  0  0  0  0  0
    2.2156    0.0621   -4.3059 C   0  0  0  0  0  0  0  0  0  0  0  0
    4.4670   -0.6724   -1.0108 C   0  0  0  0  0  0  0  0  0  0  0  0
    5.1845   -1.5688   -0.2299 C   0  0  0  0  0  0  0  0  0  0  0  0
    6.5734   -1.4649   -0.1316 C   0  0  0  0  0  0  0  0  0  0  0  0
    7.2914   -0.4990   -0.8559 C   0  0  0  0  0  0  0  0  0  0  0  0
    8.7516   -0.3117   -0.6505 C   0  0  0  0  0  0  0  0  0  0  0  0
    9.5881   -1.3739   -0.2568 C   0  0  0  0  0  0  0  0  0  0  0  0
   10.9538   -1.1853   -0.0166 C   0  0  0  0  0  0  0  0  0  0  0  0
   11.5233    0.0724   -0.1777 C   0  0  0  0  0  0  0  0  0  0  0  0
   10.7259    1.1414   -0.5699 C   0  0  0  0  0  0  0  0  0  0  0  0
    9.3577    0.9515   -0.7947 C   0  0  0  0  0  0  0  0  0  0  0  0
    6.5496    0.3087   -1.7414 C   0  0  0  0  0  0  0  0  0  0  0  0
    5.1510    0.2298   -1.8179 C   0  0  0  0  0  0  0  0  0  0  0  0
    2.4157    0.9421    1.9255 H   0  0  0  0  0  0  0  0  0  0  0  0
    3.9348    0.8916    1.0530 H   0  0  0  0  0  0  0  0  0  0  0  0
    4.4411   -3.5077    5.5618 H   0  0  0  0  0  0  0  0  0  0  0  0
    2.0425   -3.9021    6.1304 H   0  0  0  0  0  0  0  0  0  0  0  0
    0.2561   -2.7056    4.9150 H   0  0  0  0  0  0  0  0  0  0  0  0
    0.8008   -1.1138    3.0756 H   0  0  0  0  0  0  0  0  0  0  0  0
    1.4695   -1.7836   -1.7288 H   0  0  0  0  0  0  0  0  0  0  0  0
    2.9771   -1.8766   -2.6297 H   0  0  0  0  0  0  0  0  0  0  0  0
    0.3474    0.9457   -1.6729 H   0  0  0  0  0  0  0  0  0  0  0  0
   -0.1276    2.5910   -3.6668 H   0  0  0  0  0  0  0  0  0  0  0  0
    2.9165   -0.5423   -4.8665 H   0  0  0  0  0  0  0  0  0  0  0  0
    4.6775   -2.3267    0.3688 H   0  0  0  0  0  0  0  0  0  0  0  0
    7.0723   -2.1141    0.5852 H   0  0  0  0  0  0  0  0  0  0  0  0
    9.1870   -2.3761   -0.1248 H   0  0  0  0  0  0  0  0  0  0  0  0
   11.5676   -2.0243    0.3007 H   0  0  0  0  0  0  0  0  0  0  0  0
   12.5835    0.2202    0.0083 H   0  0  0  0  0  0  0  0  0  0  0  0
   11.1619    2.1296   -0.6903 H   0  0  0  0  0  0  0  0  0  0  0  0
    8.7648    1.8229   -1.0619 H   0  0  0  0  0  0  0  0  0  0  0  0
    7.0529    1.0448   -2.3640 H   0  0  0  0  0  0  0  0  0  0  0  0
    4.6170    0.9249   -2.4610 H   0  0  0  0  0  0  0  0  0  0  0  0
  1  2  2  0  0  0  0
  2  3  1  0  0  0  0
  2 13  1  0  0  0  0
  3  4  1  0  0  0  0
  3 32  1  0  0  0  0
  3 33  1  0  0  0  0
  4  5  1  0  0  0  0
  4 12  1  0  0  0  0
  5  6  2  0  0  0  0
  6  7  1  0  0  0  0
  7  8  1  0  0  0  0
  7 12  2  0  0  0  0
  8  9  2  0  0  0  0
  8 34  1  0  0  0  0
  9 10  1  0  0  0  0
  9 35  1  0  0  0  0
 10 11  2  0  0  0  0
 10 36  1  0  0  0  0
 11 12  1  0  0  0  0
 11 37  1  0  0  0  0
 13 14  1  0  0  0  0
 13 20  1  0  0  0  0
 14 15  1  0  0  0  0
 14 38  1  0  0  0  0
 14 39  1  0  0  0  0
 15 16  1  0  0  0  0
 15 19  2  0  0  0  0
 16 17  2  0  0  0  0
 16 40  1  0  0  0  0
 17 18  1  0  0  0  0
 17 41  1  0  0  0  0
 18 19  1  0  0  0  0
 19 42  1  0  0  0  0
 20 21  1  0  0  0  0
 20 31  2  0  0  0  0
 21 22  2  0  0  0  0
 21 43  1  0  0  0  0
 22 23  1  0  0  0  0
 22 44  1  0  0  0  0
 23 24  1  0  0  0  0
 23 30  2  0  0  0  0
 24 25  1  0  0  0  0
 24 29  2  0  0  0  0
 25 26  2  0  0  0  0
 25 45  1  0  0  0  0
 26 27  1  0  0  0  0
 26 46  1  0  0  0  0
 27 28  2  0  0  0  0
 27 47  1  0  0  0  0
 28 29  1  0  0  0  0
 28 48  1  0  0  0  0
 29 49  1  0  0  0  0
 30 31  1  0  0  0  0
 30 50  1  0  0  0  0
 31 51  1  0  0  0  0
M  END
$$$$
