
 OpenBabel07202414203D

 37 40  0  0  0  0  0  0  0  0999 V2000
    1.5939    0.2790   -1.4664 O   0  0  0  0  0  0  0  0  0  0  0  0
    2.6965   -0.0608   -0.7415 C   0  0  0  0  0  0  0  0  0  0  0  0
    3.2235   -1.3338   -0.7847 C   0  0  0  0  0  0  0  0  0  0  0  0
    4.3759   -1.5836   -0.0333 C   0  0  0  0  0  0  0  0  0  0  0  0
    5.0026   -2.9384   -0.1325 C   0  0  0  0  0  0  0  0  0  0  0  0
    6.2271   -3.0653   -0.1585 O   0  0  0  0  0  0  0  0  0  0  0  0
    4.1710   -4.0521   -0.2432 N   0  0  0  0  0  0  0  0  0  0  0  0
    4.8288   -5.2623   -0.5353 N   0  0  0  0  0  0  0  0  0  0  0  0
    4.3678   -6.4827   -0.1756 C   0  0  0  0  0  0  0  0  0  0  0  0
    3.1838   -6.8864    0.2348 N   0  0  0  0  0  0  0  0  0  0  0  0
    3.3265   -8.2381    0.5040 C   0  0  0  0  0  0  0  0  0  0  0  0
    2.4078   -9.1854    0.9931 C   0  0  0  0  0  0  0  0  0  0  0  0
    2.8420  -10.5023    1.2216 C   0  0  0  0  0  0  0  0  0  0  0  0
    4.1611  -10.8813    0.9591 C   0  0  0  0  0  0  0  0  0  0  0  0
    5.0824   -9.9668    0.4420 C   0  0  0  0  0  0  0  0  0  0  0  0
    4.6233   -8.6625    0.2328 C   0  0  0  0  0  0  0  0  0  0  0  0
    5.2400   -7.5402   -0.2473 N   0  0  0  0  0  0  0  0  0  0  0  0
    4.9844   -0.5257    0.7120 C   0  0  0  0  0  0  0  0  0  0  0  0
    6.1769   -0.6119    1.4825 C   0  0  0  0  0  0  0  0  0  0  0  0
    6.6970    0.4938    2.1634 C   0  0  0  0  0  0  0  0  0  0  0  0
    6.0297    1.7064    2.1121 C   0  0  0  0  0  0  0  0  0  0  0  0
    4.8562    1.8062    1.3701 C   0  0  0  0  0  0  0  0  0  0  0  0
    4.3304    0.7268    0.6718 C   0  0  0  0  0  0  0  0  0  0  0  0
    3.2114    0.9457   -0.0275 N   0  0  0  0  0  0  0  0  0  0  0  0
    1.3717   -0.4481   -2.0638 H   0  0  0  0  0  0  0  0  0  0  0  0
    2.7806   -2.0929   -1.4163 H   0  0  0  0  0  0  0  0  0  0  0  0
    3.1560   -4.0743   -0.2330 H   0  0  0  0  0  0  0  0  0  0  0  0
    5.8438   -5.1081   -0.5472 H   0  0  0  0  0  0  0  0  0  0  0  0
    1.3827   -8.8995    1.2008 H   0  0  0  0  0  0  0  0  0  0  0  0
    2.1450  -11.2406    1.6157 H   0  0  0  0  0  0  0  0  0  0  0  0
    4.4792  -11.9034    1.1591 H   0  0  0  0  0  0  0  0  0  0  0  0
    6.1057  -10.2571    0.2308 H   0  0  0  0  0  0  0  0  0  0  0  0
    6.1871   -7.4872   -0.5832 H   0  0  0  0  0  0  0  0  0  0  0  0
    6.7295   -1.5461    1.5522 H   0  0  0  0  0  0  0  0  0  0  0  0
    7.6219    0.4035    2.7270 H   0  0  0  0  0  0  0  0  0  0  0  0
    6.4211    2.5733    2.6323 H   0  0  0  0  0  0  0  0  0  0  0  0
    4.3368    2.7619    1.3253 H   0  0  0  0  0  0  0  0  0  0  0  0
  1  2  1  0  0  0  0
  1 25  1  0  0  0  0
  2  3  1  0  0  0  0
  2 24  2  0  0  0  0
  3  4  2  0  0  0  0
  3 26  1  0  0  0  0
  4  5  1  0  0  0  0
  4 18  1  0  0  0  0
  5  6  2  0  0  0  0
  5  7  1  0  0  0  0
  7  8  1  0  0  0  0
  7 27  1  0  0  0  0
  8  9  1  0  0  0  0
  8 28  1  0  0  0  0
  9 10  2  0  0  0  0
  9 17  1  0  0  0  0
 10 11  1  0  0  0  0
 11 12  1  0  0  0  0
 11 16  2  0  0  0  0
 12 13  2  0  0  0  0
 12 29  1  0  0  0  0
 13 14  1  0  0  0  0
 13 30  1  0  0  0  0
 14 15  2  0  0  0  0
 14 31  1  0  0  0  0
 15 16  1  0  0  0  0
 15 32  1  0  0  0  0
 16 17  1  0  0  0  0
 17 33  1  0  0  0  0
 18 19  1  0  0  0  0
 18 23  2  0  0  0  0
 19 20  2  0  0  0  0
 19 34  1  0  0  0  0
 20 21  1  0  0  0  0
 20 35  1  0  0  0  0
 21 22  2  0  0  0  0
 21 36  1  0  0  0  0
 22 23  1  0  0  0  0
 22 37  1  0  0  0  0
 23 24  1  0  0  0  0
M  END
$$$$
