
 OpenBabel07202414163D

 31 32  0  0  0  0  0  0  0  0999 V2000
    1.7325    2.5106    0.7312 C   0  0  0  0  0  0  0  0  0  0  0  0
    1.0845    1.4077   -0.0590 C   0  0  0  0  0  0  0  0  0  0  0  0
    1.8955    0.3347   -0.4689 C   0  0  0  0  0  0  0  0  0  0  0  0
    1.3328   -0.7140   -1.1763 C   0  0  0  0  0  0  0  0  0  0  0  0
    0.0274   -0.7837   -1.4808 N   0  0  0  0  0  0  0  0  0  0  0  0
   -0.7458    0.2576   -1.0803 C   0  0  0  0  0  0  0  0  0  0  0  0
   -0.2850    1.3804   -0.3855 C   0  0  0  0  0  0  0  0  0  0  0  0
   -1.1381    2.4529   -0.0080 N   0  0  0  0  0  0  0  0  0  0  0  0
   -2.4151    2.6746   -0.4956 C   0  0  0  0  0  0  0  0  0  0  0  0
   -2.9794    2.0128   -1.3645 O   0  0  0  0  0  0  0  0  0  0  0  0
   -3.1142    3.8807    0.1138 C   0  0  0  0  0  0  0  0  0  0  0  0
   -2.7886    5.1759   -0.5897 C   0  0  0  0  0  0  0  0  0  0  0  0
   -3.0092    5.3200   -1.9683 C   0  0  0  0  0  0  0  0  0  0  0  0
   -2.7099    6.5207   -2.6155 C   0  0  0  0  0  0  0  0  0  0  0  0
   -2.1976    7.5964   -1.8907 C   0  0  0  0  0  0  0  0  0  0  0  0
   -1.9982    7.4668   -0.5191 C   0  0  0  0  0  0  0  0  0  0  0  0
   -2.2944    6.2694    0.1347 C   0  0  0  0  0  0  0  0  0  0  0  0
   -1.3181    8.9262    0.4725 Br  0  0  0  0  0  0  0  0  0  0  0  0
    2.8213    2.5000    0.6035 H   0  0  0  0  0  0  0  0  0  0  0  0
    1.5165    2.3852    1.7968 H   0  0  0  0  0  0  0  0  0  0  0  0
    1.3919    3.4955    0.3996 H   0  0  0  0  0  0  0  0  0  0  0  0
    2.9583    0.3137   -0.2498 H   0  0  0  0  0  0  0  0  0  0  0  0
    1.9348   -1.5491   -1.5216 H   0  0  0  0  0  0  0  0  0  0  0  0
   -1.7914    0.1232   -1.3357 H   0  0  0  0  0  0  0  0  0  0  0  0
   -0.7343    3.1805    0.5671 H   0  0  0  0  0  0  0  0  0  0  0  0
   -2.8595    3.9336    1.1788 H   0  0  0  0  0  0  0  0  0  0  0  0
   -4.1960    3.7084    0.0670 H   0  0  0  0  0  0  0  0  0  0  0  0
   -3.4161    4.4954   -2.5534 H   0  0  0  0  0  0  0  0  0  0  0  0
   -2.8791    6.6149   -3.6859 H   0  0  0  0  0  0  0  0  0  0  0  0
   -1.9637    8.5263   -2.4023 H   0  0  0  0  0  0  0  0  0  0  0  0
   -2.1463    6.1917    1.2088 H   0  0  0  0  0  0  0  0  0  0  0  0
  1  2  1  0  0  0  0
  1 19  1  0  0  0  0
  1 20  1  0  0  0  0
  1 21  1  0  0  0  0
  2  3  1  0  0  0  0
  2  7  2  0  0  0  0
  3  4  2  0  0  0  0
  3 22  1  0  0  0  0
  4  5  1  0  0  0  0
  4 23  1  0  0  0  0
  5  6  2  0  0  0  0
  6  7  1  0  0  0  0
  6 24  1  0  0  0  0
  7  8  1  0  0  0  0
  8  9  1  0  0  0  0
  8 25  1  0  0  0  0
  9 10  2  0  0  0  0
  9 11  1  0  0  0  0
 11 12  1  0  0  0  0
 11 26  1  0  0  0  0
 11 27  1  0  0  0  0
 12 13  1  0  0  0  0
 12 17  2  0  0  0  0
 13 14  2  0  0  0  0
 13 28  1  0  0  0  0
 14 15  1  0  0  0  0
 14 29  1  0  0  0  0
 15 16  2  0  0  0  0
 15 30  1  0  0  0  0
 16 17  1  0  0  0  0
 16 18  1  0  0  0  0
 17 31  1  0  0  0  0
M  END
$$$$
