
 OpenBabel07202414163D

 49 52  0  0  1  0  0  0  0  0999 V2000
   -1.5487   -0.1077   -2.5392 C   0  0  0  0  0  0  0  0  0  0  0  0
   -1.2851   -0.3693   -1.0814 C   0  0  0  0  0  0  0  0  0  0  0  0
   -0.7741   -1.6322   -0.7303 C   0  0  0  0  0  0  0  0  0  0  0  0
   -0.5333   -1.9199    0.6031 C   0  0  0  0  0  0  0  0  0  0  0  0
   -0.7833   -1.0575    1.6023 N   0  0  0  0  0  0  0  0  0  0  0  0
   -1.2746    0.1593    1.2494 C   0  0  0  0  0  0  0  0  0  0  0  0
   -1.5326    0.5706   -0.0638 C   0  0  0  0  0  0  0  0  0  0  0  0
   -2.0550    1.8522   -0.3723 N   0  0  0  0  0  0  0  0  0  0  0  0
   -2.1464    2.9544    0.4750 C   0  0  0  0  0  0  0  0  0  0  0  0
   -1.6717    3.0295    1.6079 O   0  0  0  0  0  0  0  0  0  0  0  0
   -2.8992    4.1815   -0.1116 C   0  0  3  0  0  0  0  0  0  0  0  0
   -2.2591    4.6383   -1.4155 C   0  0  0  0  0  0  0  0  0  0  0  0
   -0.9491    5.1323   -1.4161 C   0  0  0  0  0  0  0  0  0  0  0  0
   -0.3242    5.4453   -2.6216 C   0  0  0  0  0  0  0  0  0  0  0  0
   -0.9972    5.2802   -3.8368 C   0  0  0  0  0  0  0  0  0  0  0  0
   -2.3029    4.8210   -3.8431 C   0  0  0  0  0  0  0  0  0  0  0  0
   -2.9334    4.5065   -2.6452 C   0  0  0  0  0  0  0  0  0  0  0  0
   -3.1535    4.5964   -5.3169 Cl  0  0  0  0  0  0  0  0  0  0  0  0
   -4.3580    3.8287   -0.3171 C   0  0  0  0  0  0  0  0  0  0  0  0
   -4.6245    2.6565   -0.6020 O   0  0  0  0  0  0  0  0  0  0  0  0
   -5.4519    4.8792   -0.3355 C   0  0  0  0  0  0  0  0  0  0  0  0
   -5.1955    6.2013   -0.4135 C   0  0  0  0  0  0  0  0  0  0  0  0
   -6.2817    7.2241   -0.3271 C   0  0  0  0  0  0  0  0  0  0  0  0
   -6.0219    8.3907   -0.5747 O   0  0  0  0  0  0  0  0  0  0  0  0
   -7.4875    6.7693    0.1203 N   0  0  0  0  0  0  0  0  0  0  0  0
   -7.7598    5.4163    0.3558 C   0  0  0  0  0  0  0  0  0  0  0  0
   -6.8525    4.4593   -0.0970 C   0  0  0  0  0  0  0  0  0  0  0  0
   -7.2269    3.1167   -0.0516 C   0  0  0  0  0  0  0  0  0  0  0  0
   -8.1975    2.7181    0.8485 C   0  0  0  0  0  0  0  0  0  0  0  0
   -9.0003    3.6764    1.4521 C   0  0  0  0  0  0  0  0  0  0  0  0
   -8.8736    5.0209    1.0919 C   0  0  0  0  0  0  0  0  0  0  0  0
   -0.9934   -0.8118   -3.1716 H   0  0  0  0  0  0  0  0  0  0  0  0
   -1.2215    0.8945   -2.8303 H   0  0  0  0  0  0  0  0  0  0  0  0
   -2.6140   -0.2277   -2.7595 H   0  0  0  0  0  0  0  0  0  0  0  0
   -0.5552   -2.3836   -1.4835 H   0  0  0  0  0  0  0  0  0  0  0  0
   -0.1247   -2.8795    0.9046 H   0  0  0  0  0  0  0  0  0  0  0  0
   -1.4918    0.7920    2.1042 H   0  0  0  0  0  0  0  0  0  0  0  0
   -2.4634    1.9504   -1.2993 H   0  0  0  0  0  0  0  0  0  0  0  0
   -2.8353    4.9822    0.6389 H   0  0  0  0  0  0  0  0  0  0  0  0
   -0.3963    5.2469   -0.4815 H   0  0  0  0  0  0  0  0  0  0  0  0
    0.7010    5.8016   -2.6189 H   0  0  0  0  0  0  0  0  0  0  0  0
   -0.4910    5.5043   -4.7699 H   0  0  0  0  0  0  0  0  0  0  0  0
   -3.9537    4.1333   -2.7029 H   0  0  0  0  0  0  0  0  0  0  0  0
   -4.2033    6.6276   -0.5107 H   0  0  0  0  0  0  0  0  0  0  0  0
   -8.2091    7.4659    0.2760 H   0  0  0  0  0  0  0  0  0  0  0  0
   -6.7006    2.3454   -0.6044 H   0  0  0  0  0  0  0  0  0  0  0  0
   -8.2759    1.6640    1.1009 H   0  0  0  0  0  0  0  0  0  0  0  0
   -9.7255    3.3666    2.1980 H   0  0  0  0  0  0  0  0  0  0  0  0
   -9.5732    5.7467    1.4916 H   0  0  0  0  0  0  0  0  0  0  0  0
  1  2  1  0  0  0  0
  1 32  1  0  0  0  0
  1 33  1  0  0  0  0
  1 34  1  0  0  0  0
  2  3  1  0  0  0  0
  2  7  2  0  0  0  0
  3  4  2  0  0  0  0
  3 35  1  0  0  0  0
  4  5  1  0  0  0  0
  4 36  1  0  0  0  0
  5  6  2  0  0  0  0
  6  7  1  0  0  0  0
  6 37  1  0  0  0  0
  7  8  1  0  0  0  0
  8  9  1  0  0  0  0
  8 38  1  0  0  0  0
  9 10  2  0  0  0  0
  9 11  1  0  0  0  0
 11 12  1  0  0  0  0
 11 19  1  0  0  0  0
 11 39  1  0  0  0  0
 12 13  1  0  0  0  0
 12 17  2  0  0  0  0
 13 14  2  0  0  0  0
 13 40  1  0  0  0  0
 14 15  1  0  0  0  0
 14 41  1  0  0  0  0
 15 16  2  0  0  0  0
 15 42  1  0  0  0  0
 16 17  1  0  0  0  0
 16 18  1  0  0  0  0
 17 43  1  0  0  0  0
 19 20  2  0  0  0  0
 19 21  1  0  0  0  0
 21 22  2  0  0  0  0
 21 27  1  0  0  0  0
 22 23  1  0  0  0  0
 22 44  1  0  0  0  0
 23 24  2  0  0  0  0
 23 25  1  0  0  0  0
 25 26  1  0  0  0  0
 25 45  1  0  0  0  0
 26 27  1  0  0  0  0
 26 31  2  0  0  0  0
 27 28  2  0  0  0  0
 28 29  1  0  0  0  0
 28 46  1  0  0  0  0
 29 30  2  0  0  0  0
 29 47  1  0  0  0  0
 30 31  1  0  0  0  0
 30 48  1  0  0  0  0
 31 49  1  0  0  0  0
M  END
$$$$
