
 OpenBabel07202414153D

 42 45  0  0  1  0  0  0  0  0999 V2000
    1.2119   -0.1758    0.2141 C   0  0  0  0  0  0  0  0  0  0  0  0
    2.7289   -0.2830    0.2982 C   0  0  2  0  0  0  0  0  0  0  0  0
    3.1513   -1.4314    1.2049 C   0  0  0  0  0  0  0  0  0  0  0  0
    4.6815   -1.5323    1.2206 C   0  0  2  0  0  0  0  0  0  0  0  0
    5.1281   -2.3809    2.4183 C   0  0  0  0  0  0  0  0  0  0  0  0
    5.6536   -3.4762    2.2380 O   0  0  0  0  0  0  0  0  0  0  0  0
    4.8806   -1.7872    3.6443 N   0  0  0  0  0  0  0  0  0  0  0  0
    5.2713   -2.2684    4.9241 C   0  0  0  0  0  0  0  0  0  0  0  0
    5.8175   -3.5388    5.1129 C   0  0  0  0  0  0  0  0  0  0  0  0
    6.3337   -3.9893    6.2794 N   0  0  0  0  0  0  0  0  0  0  0  0
    6.2712   -3.1464    7.3278 C   0  0  0  0  0  0  0  0  0  0  0  0
    5.6569   -1.8951    7.3007 C   0  0  0  0  0  0  0  0  0  0  0  0
    5.5485   -1.1238    8.4718 C   0  0  0  0  0  0  0  0  0  0  0  0
    4.9065    0.1113    8.4539 C   0  0  0  0  0  0  0  0  0  0  0  0
    4.3976    0.6010    7.2600 C   0  0  0  0  0  0  0  0  0  0  0  0
    4.5183   -0.1485    6.0854 C   0  0  0  0  0  0  0  0  0  0  0  0
    5.1376   -1.4287    6.0698 C   0  0  0  0  0  0  0  0  0  0  0  0
    5.3379   -0.1637    1.1906 C   0  0  0  0  0  0  0  0  0  0  0  0
    6.7308   -0.0265    1.3184 C   0  0  0  0  0  0  0  0  0  0  0  0
    7.3163    1.2417    1.3195 C   0  0  0  0  0  0  0  0  0  0  0  0
    9.0215    1.3971    1.4869 Cl  0  0  0  0  0  0  0  0  0  0  0  0
    6.5296    2.3834    1.1906 C   0  0  0  0  0  0  0  0  0  0  0  0
    5.1500    2.2554    1.0364 C   0  0  0  0  0  0  0  0  0  0  0  0
    4.5643    0.9886    1.0112 C   0  0  0  0  0  0  0  0  0  0  0  0
    3.2087    0.9590    0.8317 O   0  0  0  0  0  0  0  0  0  0  0  0
    0.7693   -1.0875   -0.1977 H   0  0  0  0  0  0  0  0  0  0  0  0
    0.9270    0.6695   -0.4221 H   0  0  0  0  0  0  0  0  0  0  0  0
    0.7757    0.0145    1.2011 H   0  0  0  0  0  0  0  0  0  0  0  0
    3.1244   -0.4169   -0.7178 H   0  0  0  0  0  0  0  0  0  0  0  0
    2.7215   -2.3832    0.8707 H   0  0  0  0  0  0  0  0  0  0  0  0
    2.7624   -1.2483    2.2153 H   0  0  0  0  0  0  0  0  0  0  0  0
    5.0010   -2.0550    0.3086 H   0  0  0  0  0  0  0  0  0  0  0  0
    4.5280   -0.8410    3.6135 H   0  0  0  0  0  0  0  0  0  0  0  0
    5.8605   -4.2774    4.3193 H   0  0  0  0  0  0  0  0  0  0  0  0
    6.7389   -3.5264    8.2324 H   0  0  0  0  0  0  0  0  0  0  0  0
    5.9467   -1.4939    9.4145 H   0  0  0  0  0  0  0  0  0  0  0  0
    4.7995    0.6842    9.3716 H   0  0  0  0  0  0  0  0  0  0  0  0
    3.8962    1.5665    7.2387 H   0  0  0  0  0  0  0  0  0  0  0  0
    4.0928    0.2860    5.1863 H   0  0  0  0  0  0  0  0  0  0  0  0
    7.3652   -0.9062    1.4227 H   0  0  0  0  0  0  0  0  0  0  0  0
    6.9823    3.3717    1.1976 H   0  0  0  0  0  0  0  0  0  0  0  0
    4.5314    3.1415    0.9190 H   0  0  0  0  0  0  0  0  0  0  0  0
  1  2  1  0  0  0  0
  1 26  1  0  0  0  0
  1 27  1  0  0  0  0
  1 28  1  0  0  0  0
  2  3  1  0  0  0  0
  2 25  1  0  0  0  0
  2 29  1  6  0  0  0
  3  4  1  0  0  0  0
  3 30  1  0  0  0  0
  3 31  1  0  0  0  0
  4 18  1  0  0  0  0
  4  5  1  0  0  0  0
  4 32  1  6  0  0  0
  5  6  2  0  0  0  0
  5  7  1  0  0  0  0
  7  8  1  0  0  0  0
  7 33  1  0  0  0  0
  8  9  1  0  0  0  0
  8 17  2  0  0  0  0
  9 10  2  0  0  0  0
  9 34  1  0  0  0  0
 10 11  1  0  0  0  0
 11 12  2  0  0  0  0
 11 35  1  0  0  0  0
 12 13  1  0  0  0  0
 12 17  1  0  0  0  0
 13 14  2  0  0  0  0
 13 36  1  0  0  0  0
 14 15  1  0  0  0  0
 14 37  1  0  0  0  0
 15 16  2  0  0  0  0
 15 38  1  0  0  0  0
 16 17  1  0  0  0  0
 16 39  1  0  0  0  0
 18 19  1  0  0  0  0
 18 24  2  0  0  0  0
 19 20  2  0  0  0  0
 19 40  1  0  0  0  0
 20 21  1  0  0  0  0
 20 22  1  0  0  0  0
 22 23  2  0  0  0  0
 22 41  1  0  0  0  0
 23 24  1  0  0  0  0
 23 42  1  0  0  0  0
 24 25  1  0  0  0  0
M  END
$$$$
