
 OpenBabel07202414183D

 54 58  0  0  1  0  0  0  0  0999 V2000
    2.6954   -2.5207   -4.6258 C   0  0  0  0  0  0  0  0  0  0  0  0
    3.7655   -2.1967   -3.7148 N   0  0  0  0  0  0  0  0  0  0  0  0
    4.8356   -1.5510   -4.2303 N   0  0  0  0  0  0  0  0  0  0  0  0
    5.5896   -1.2832   -3.1709 C   0  0  0  0  0  0  0  0  0  0  0  0
    5.0085   -1.7525   -1.9787 C   0  0  0  0  0  0  0  0  0  0  0  0
    5.3991   -1.6912   -0.6438 C   0  0  0  0  0  0  0  0  0  0  0  0
    4.6104   -2.2113    0.3066 N   0  0  0  0  0  0  0  0  0  0  0  0
    3.4726   -2.8489   -0.0803 C   0  0  0  0  0  0  0  0  0  0  0  0
    2.9864   -3.0491   -1.3938 C   0  0  0  0  0  0  0  0  0  0  0  0
    1.7996   -3.8347   -1.6844 N   0  0  0  0  0  0  0  0  0  0  0  0
    1.2573   -4.7277   -0.7617 C   0  0  0  0  0  0  0  0  0  0  0  0
    1.7512   -4.8776    0.3611 O   0  0  0  0  0  0  0  0  0  0  0  0
   -0.0172   -5.5820   -1.0435 C   0  0  3  0  0  0  0  0  0  0  0  0
   -0.7055   -5.7471   -2.4161 C   0  0  0  0  0  0  0  0  0  0  0  0
    0.0201   -6.6209   -3.3968 N   0  0  0  0  0  0  0  0  0  0  0  0
    0.0587   -6.2242   -5.0213 S   0  0  0  0  0  0  0  0  0  0  0  0
    0.0783   -4.7760   -5.0601 O   0  0  0  0  0  0  0  0  0  0  0  0
    1.1256   -6.9730   -5.6455 O   0  0  0  0  0  0  0  0  0  0  0  0
   -1.5068   -6.7794   -5.7534 C   0  0  0  0  0  0  0  0  0  0  0  0
   -1.5680   -8.2899   -5.8030 C   0  0  0  0  0  0  0  0  0  0  0  0
   -1.6635   -8.9371   -4.5226 C   0  0  0  0  0  0  0  0  0  0  0  0
   -1.7935   -9.4832   -3.5037 N   0  0  0  0  0  0  0  0  0  0  0  0
   -2.4616   -8.8984   -6.8969 C   0  0  0  0  0  0  0  0  0  0  0  0
   -0.9784   -9.0801   -6.9676 C   0  0  0  0  0  0  0  0  0  0  0  0
    1.1850   -7.3482   -2.8349 C   0  0  0  0  0  0  0  0  0  0  0  0
    0.8500   -7.8908   -1.4656 C   0  0  0  0  0  0  0  0  0  0  0  0
    1.0717   -9.2200   -1.1034 C   0  0  0  0  0  0  0  0  0  0  0  0
    0.7063   -9.6630    0.1700 C   0  0  0  0  0  0  0  0  0  0  0  0
    0.1513   -8.7724    1.0906 C   0  0  0  0  0  0  0  0  0  0  0  0
   -0.2856   -9.3325    2.6589 Cl  0  0  0  0  0  0  0  0  0  0  0  0
   -0.0710   -7.4407    0.7444 C   0  0  0  0  0  0  0  0  0  0  0  0
    0.2533   -7.0063   -0.5465 C   0  0  0  0  0  0  0  0  0  0  0  0
    3.8091   -2.3969   -2.3498 C   0  0  0  0  0  0  0  0  0  0  0  0
    2.9653   -2.1837   -5.6320 H   0  0  0  0  0  0  0  0  0  0  0  0
    1.7971   -1.9949   -4.2962 H   0  0  0  0  0  0  0  0  0  0  0  0
    2.5612   -3.6019   -4.6253 H   0  0  0  0  0  0  0  0  0  0  0  0
    6.5239   -0.7498   -3.3024 H   0  0  0  0  0  0  0  0  0  0  0  0
    6.3171   -1.2197   -0.3092 H   0  0  0  0  0  0  0  0  0  0  0  0
    2.9261   -3.1930    0.7920 H   0  0  0  0  0  0  0  0  0  0  0  0
    1.4719   -3.8578   -2.6417 H   0  0  0  0  0  0  0  0  0  0  0  0
   -0.7774   -5.1322   -0.3863 H   0  0  0  0  0  0  0  0  0  0  0  0
   -0.9754   -4.7787   -2.8390 H   0  0  0  0  0  0  0  0  0  0  0  0
   -1.6599   -6.2727   -2.2347 H   0  0  0  0  0  0  0  0  0  0  0  0
   -1.5159   -6.3604   -6.7675 H   0  0  0  0  0  0  0  0  0  0  0  0
   -2.3403   -6.3435   -5.1953 H   0  0  0  0  0  0  0  0  0  0  0  0
   -2.9203   -8.2625   -7.6485 H   0  0  0  0  0  0  0  0  0  0  0  0
   -3.0636   -9.7764   -6.6702 H   0  0  0  0  0  0  0  0  0  0  0  0
   -0.4446   -8.5609   -7.7564 H   0  0  0  0  0  0  0  0  0  0  0  0
   -0.5933  -10.0805   -6.7835 H   0  0  0  0  0  0  0  0  0  0  0  0
    2.0247   -6.6466   -2.7441 H   0  0  0  0  0  0  0  0  0  0  0  0
    1.5004   -8.1652   -3.4891 H   0  0  0  0  0  0  0  0  0  0  0  0
    1.4962   -9.9242   -1.8143 H   0  0  0  0  0  0  0  0  0  0  0  0
    0.8481  -10.7072    0.4352 H   0  0  0  0  0  0  0  0  0  0  0  0
   -0.4940   -6.7526    1.4721 H   0  0  0  0  0  0  0  0  0  0  0  0
  1  2  1  0  0  0  0
  1 34  1  0  0  0  0
  1 35  1  0  0  0  0
  1 36  1  0  0  0  0
  2  3  1  0  0  0  0
  2 33  1  0  0  0  0
  3  4  2  0  0  0  0
  4  5  1  0  0  0  0
  4 37  1  0  0  0  0
  5  6  1  0  0  0  0
  5 33  2  0  0  0  0
  6  7  2  0  0  0  0
  6 38  1  0  0  0  0
  7  8  1  0  0  0  0
  8  9  2  0  0  0  0
  8 39  1  0  0  0  0
  9 10  1  0  0  0  0
  9 33  1  0  0  0  0
 10 11  1  0  0  0  0
 10 40  1  0  0  0  0
 11 12  2  0  0  0  0
 11 13  1  0  0  0  0
 13 14  1  0  0  0  0
 13 32  1  0  0  0  0
 13 41  1  0  0  0  0
 14 15  1  0  0  0  0
 14 42  1  0  0  0  0
 14 43  1  0  0  0  0
 15 16  1  0  0  0  0
 15 25  1  0  0  0  0
 16 17  2  0  0  0  0
 16 18  2  0  0  0  0
 16 19  1  0  0  0  0
 19 20  1  0  0  0  0
 19 44  1  0  0  0  0
 19 45  1  0  0  0  0
 20 21  1  0  0  0  0
 20 23  1  0  0  0  0
 20 24  1  0  0  0  0
 21 22  3  0  0  0  0
 23 24  1  0  0  0  0
 23 46  1  0  0  0  0
 23 47  1  0  0  0  0
 24 48  1  0  0  0  0
 24 49  1  0  0  0  0
 25 26  1  0  0  0  0
 25 50  1  0  0  0  0
 25 51  1  0  0  0  0
 26 27  1  0  0  0  0
 26 32  2  0  0  0  0
 27 28  2  0  0  0  0
 27 52  1  0  0  0  0
 28 29  1  0  0  0  0
 28 53  1  0  0  0  0
 29 30  1  0  0  0  0
 29 31  2  0  0  0  0
 31 32  1  0  0  0  0
 31 54  1  0  0  0  0
M  END
$$$$
