
 OpenBabel07202414123D

 59 63  0  0  1  0  0  0  0  0999 V2000
    1.1519    0.3296   -0.1027 C   0  0  0  0  0  0  0  0  0  0  0  0
    2.6997    0.3864   -0.1912 C   0  0  3  0  0  0  0  0  0  0  0  0
    3.0834    1.1153   -1.5223 C   0  0  0  0  0  0  0  0  0  0  0  0
    2.2129    1.4671   -2.3211 O   0  0  0  0  0  0  0  0  0  0  0  0
    4.4391    1.3367   -1.7116 N   0  0  0  0  0  0  0  0  0  0  0  0
    5.0706    1.9087   -2.8600 C   0  0  0  0  0  0  0  0  0  0  0  0
    4.3592    2.4011   -3.9569 C   0  0  0  0  0  0  0  0  0  0  0  0
    4.9170    2.7746   -5.1339 N   0  0  0  0  0  0  0  0  0  0  0  0
    6.2585    2.7026   -5.2208 C   0  0  0  0  0  0  0  0  0  0  0  0
    7.0947    2.3654   -4.1600 C   0  0  0  0  0  0  0  0  0  0  0  0
    8.4941    2.4348   -4.3005 C   0  0  0  0  0  0  0  0  0  0  0  0
    9.3216    2.1184   -3.2241 C   0  0  0  0  0  0  0  0  0  0  0  0
   11.0901    2.1805   -3.4092 S   0  0  0  0  0  0  0  0  0  0  0  0
   11.5293    3.8138   -2.8732 C   0  0  0  0  0  0  0  0  0  0  0  0
   11.6531    1.2316   -2.4716 O   0  0  0  0  0  0  0  0  0  0  0  0
   11.3739    2.0832   -4.8304 O   0  0  0  0  0  0  0  0  0  0  0  0
    8.7715    1.6856   -2.0220 C   0  0  0  0  0  0  0  0  0  0  0  0
    7.3807    1.6102   -1.8833 C   0  0  0  0  0  0  0  0  0  0  0  0
    6.4969    1.9530   -2.9400 C   0  0  0  0  0  0  0  0  0  0  0  0
    3.2367   -1.0811   -0.2651 C   0  0  0  0  0  0  0  0  0  0  0  0
    2.9052   -1.8134    0.9965 N   0  0  0  0  0  0  0  0  0  0  0  0
    3.0314   -3.2986    0.9512 C   0  0  0  0  0  0  0  0  0  0  0  0
    2.1680   -3.9682   -0.0737 C   0  0  0  0  0  0  0  0  0  0  0  0
    2.2165   -5.4802   -0.1441 C   0  0  0  0  0  0  0  0  0  0  0  0
    2.7729   -4.6616   -1.2711 C   0  0  0  0  0  0  0  0  0  0  0  0
    3.7989   -1.2259    2.3332 S   0  0  0  0  0  0  0  0  0  0  0  0
    3.1427   -1.6718    3.5402 O   0  0  0  0  0  0  0  0  0  0  0  0
    5.1953   -1.5000    2.0746 O   0  0  0  0  0  0  0  0  0  0  0  0
    3.6245    0.5264    2.2227 C   0  0  0  0  0  0  0  0  0  0  0  0
    3.9913    1.2485    3.3704 C   0  0  0  0  0  0  0  0  0  0  0  0
    3.9226    2.6373    3.3686 C   0  0  0  0  0  0  0  0  0  0  0  0
    3.4798    3.2959    2.2262 C   0  0  0  0  0  0  0  0  0  0  0  0
    3.3887    5.0118    2.2224 Cl  0  0  0  0  0  0  0  0  0  0  0  0
    3.1060    2.5737    1.0845 C   0  0  0  0  0  0  0  0  0  0  0  0
    3.1815    1.1640    1.0504 C   0  0  0  0  0  0  0  0  0  0  0  0
    0.7273   -0.2251   -0.9479 H   0  0  0  0  0  0  0  0  0  0  0  0
    0.7098    1.3336   -0.1213 H   0  0  0  0  0  0  0  0  0  0  0  0
    0.8108   -0.1540    0.8195 H   0  0  0  0  0  0  0  0  0  0  0  0
    5.0573    0.9986   -0.9880 H   0  0  0  0  0  0  0  0  0  0  0  0
    3.2812    2.5262   -3.9517 H   0  0  0  0  0  0  0  0  0  0  0  0
    6.6560    2.9426   -6.2049 H   0  0  0  0  0  0  0  0  0  0  0  0
    8.9338    2.7440   -5.2489 H   0  0  0  0  0  0  0  0  0  0  0  0
   11.2593    3.9336   -1.8220 H   0  0  0  0  0  0  0  0  0  0  0  0
   11.0163    4.5502   -3.4944 H   0  0  0  0  0  0  0  0  0  0  0  0
   12.6106    3.9250   -2.9888 H   0  0  0  0  0  0  0  0  0  0  0  0
    9.4087    1.3962   -1.1881 H   0  0  0  0  0  0  0  0  0  0  0  0
    7.0090    1.2897   -0.9146 H   0  0  0  0  0  0  0  0  0  0  0  0
    4.3208   -1.1103   -0.4317 H   0  0  0  0  0  0  0  0  0  0  0  0
    2.7829   -1.5870   -1.1260 H   0  0  0  0  0  0  0  0  0  0  0  0
    2.7098   -3.6933    1.9236 H   0  0  0  0  0  0  0  0  0  0  0  0
    4.0807   -3.5799    0.8067 H   0  0  0  0  0  0  0  0  0  0  0  0
    1.1833   -3.5225   -0.1528 H   0  0  0  0  0  0  0  0  0  0  0  0
    1.2904   -6.0194   -0.3111 H   0  0  0  0  0  0  0  0  0  0  0  0
    2.9177   -6.0118    0.4933 H   0  0  0  0  0  0  0  0  0  0  0  0
    2.2203   -4.6603   -2.2035 H   0  0  0  0  0  0  0  0  0  0  0  0
    3.8502   -4.6523   -1.3962 H   0  0  0  0  0  0  0  0  0  0  0  0
    4.3290    0.7278    4.2640 H   0  0  0  0  0  0  0  0  0  0  0  0
    4.2079    3.1925    4.2583 H   0  0  0  0  0  0  0  0  0  0  0  0
    2.7363    3.1316    0.2238 H   0  0  0  0  0  0  0  0  0  0  0  0
  1  2  1  0  0  0  0
  1 36  1  0  0  0  0
  1 37  1  0  0  0  0
  1 38  1  0  0  0  0
  2  3  1  0  0  0  0
  2 20  1  0  0  0  0
  2 35  1  0  0  0  0
  3  4  2  0  0  0  0
  3  5  1  0  0  0  0
  5  6  1  0  0  0  0
  5 39  1  0  0  0  0
  6  7  1  0  0  0  0
  6 19  2  0  0  0  0
  7  8  2  0  0  0  0
  7 40  1  0  0  0  0
  8  9  1  0  0  0  0
  9 10  2  0  0  0  0
  9 41  1  0  0  0  0
 10 11  1  0  0  0  0
 10 19  1  0  0  0  0
 11 12  2  0  0  0  0
 11 42  1  0  0  0  0
 12 13  1  0  0  0  0
 12 17  1  0  0  0  0
 13 14  1  0  0  0  0
 13 15  2  0  0  0  0
 13 16  2  0  0  0  0
 14 43  1  0  0  0  0
 14 44  1  0  0  0  0
 14 45  1  0  0  0  0
 17 18  2  0  0  0  0
 17 46  1  0  0  0  0
 18 19  1  0  0  0  0
 18 47  1  0  0  0  0
 20 21  1  0  0  0  0
 20 48  1  0  0  0  0
 20 49  1  0  0  0  0
 21 22  1  0  0  0  0
 21 26  1  0  0  0  0
 22 23  1  0  0  0  0
 22 50  1  0  0  0  0
 22 51  1  0  0  0  0
 23 24  1  0  0  0  0
 23 25  1  0  0  0  0
 23 52  1  0  0  0  0
 24 25  1  0  0  0  0
 24 53  1  0  0  0  0
 24 54  1  0  0  0  0
 25 55  1  0  0  0  0
 25 56  1  0  0  0  0
 26 27  2  0  0  0  0
 26 28  2  0  0  0  0
 26 29  1  0  0  0  0
 29 30  1  0  0  0  0
 29 35  2  0  0  0  0
 30 31  2  0  0  0  0
 30 57  1  0  0  0  0
 31 32  1  0  0  0  0
 31 58  1  0  0  0  0
 32 33  1  0  0  0  0
 32 34  2  0  0  0  0
 34 35  1  0  0  0  0
 34 59  1  0  0  0  0
M  END
$$$$
