
 OpenBabel07202414193D

 43 46  0  0  0  0  0  0  0  0999 V2000
    1.5246    0.9194   -0.7690 O   0  0  0  0  0  0  0  0  0  0  0  0
    2.2881    0.4218    0.0593 C   0  0  0  0  0  0  0  0  0  0  0  0
    2.7484   -0.9039   -0.0962 N   0  0  0  0  0  0  0  0  0  0  0  0
    2.4604   -1.5327   -1.4069 C   0  0  0  0  0  0  0  0  0  0  0  0
    2.4849   -3.0783   -1.4036 C   0  0  0  0  0  0  0  0  0  0  0  0
    3.7018   -3.5493   -0.7305 N   0  0  0  0  0  0  0  0  0  0  0  0
    4.2738   -4.7813   -1.0080 C   0  0  0  0  0  0  0  0  0  0  0  0
    5.6404   -4.9818   -0.7307 C   0  0  0  0  0  0  0  0  0  0  0  0
    6.2835   -6.1895   -1.0128 C   0  0  0  0  0  0  0  0  0  0  0  0
    5.5693   -7.2393   -1.5768 C   0  0  0  0  0  0  0  0  0  0  0  0
    4.2167   -7.0648   -1.8673 C   0  0  0  0  0  0  0  0  0  0  0  0
    3.5813   -5.8454   -1.5900 C   0  0  0  0  0  0  0  0  0  0  0  0
    3.8144   -3.0458    0.6464 C   0  0  0  0  0  0  0  0  0  0  0  0
    3.9109   -1.5099    0.5954 C   0  0  0  0  0  0  0  0  0  0  0  0
    2.7064    1.2664    1.2204 C   0  0  0  0  0  0  0  0  0  0  0  0
    2.7974    0.6853    2.4786 C   0  0  0  0  0  0  0  0  0  0  0  0
    3.3315    1.2796    3.5666 N   0  0  0  0  0  0  0  0  0  0  0  0
    3.6993    2.5689    3.4197 C   0  0  0  0  0  0  0  0  0  0  0  0
    3.4875    3.3226    2.2669 C   0  0  0  0  0  0  0  0  0  0  0  0
    3.7731    4.7007    2.2516 C   0  0  0  0  0  0  0  0  0  0  0  0
    3.4792    5.4757    1.1333 C   0  0  0  0  0  0  0  0  0  0  0  0
    2.9270    4.8749    0.0123 C   0  0  0  0  0  0  0  0  0  0  0  0
    2.6926    3.4931   -0.0009 C   0  0  0  0  0  0  0  0  0  0  0  0
    2.9577    2.6691    1.1246 C   0  0  0  0  0  0  0  0  0  0  0  0
    3.2355   -1.1637   -2.0942 H   0  0  0  0  0  0  0  0  0  0  0  0
    1.4954   -1.1901   -1.7946 H   0  0  0  0  0  0  0  0  0  0  0  0
    2.4490   -3.4209   -2.4478 H   0  0  0  0  0  0  0  0  0  0  0  0
    1.5965   -3.4655   -0.8901 H   0  0  0  0  0  0  0  0  0  0  0  0
    6.2321   -4.1657   -0.3237 H   0  0  0  0  0  0  0  0  0  0  0  0
    7.3437   -6.2980   -0.7983 H   0  0  0  0  0  0  0  0  0  0  0  0
    6.0637   -8.1764   -1.8000 H   0  0  0  0  0  0  0  0  0  0  0  0
    3.6535   -7.8821   -2.3081 H   0  0  0  0  0  0  0  0  0  0  0  0
    2.5236   -5.7578   -1.8213 H   0  0  0  0  0  0  0  0  0  0  0  0
    4.6809   -3.4444    1.1850 H   0  0  0  0  0  0  0  0  0  0  0  0
    2.9229   -3.3477    1.2155 H   0  0  0  0  0  0  0  0  0  0  0  0
    4.8057   -1.2076    0.0383 H   0  0  0  0  0  0  0  0  0  0  0  0
    4.0398   -1.1456    1.6094 H   0  0  0  0  0  0  0  0  0  0  0  0
    2.4455   -0.3263    2.6580 H   0  0  0  0  0  0  0  0  0  0  0  0
    4.1510    3.0096    4.3045 H   0  0  0  0  0  0  0  0  0  0  0  0
    4.1935    5.1874    3.1292 H   0  0  0  0  0  0  0  0  0  0  0  0
    3.6668    6.5464    1.1448 H   0  0  0  0  0  0  0  0  0  0  0  0
    2.6619    5.4769   -0.8543 H   0  0  0  0  0  0  0  0  0  0  0  0
    2.2424    3.0810   -0.9019 H   0  0  0  0  0  0  0  0  0  0  0  0
  1  2  2  0  0  0  0
  2  3  1  0  0  0  0
  2 15  1  0  0  0  0
  3  4  1  0  0  0  0
  3 14  1  0  0  0  0
  4  5  1  0  0  0  0
  4 25  1  0  0  0  0
  4 26  1  0  0  0  0
  5  6  1  0  0  0  0
  5 27  1  0  0  0  0
  5 28  1  0  0  0  0
  6  7  1  0  0  0  0
  6 13  1  0  0  0  0
  7  8  1  0  0  0  0
  7 12  2  0  0  0  0
  8  9  2  0  0  0  0
  8 29  1  0  0  0  0
  9 10  1  0  0  0  0
  9 30  1  0  0  0  0
 10 11  2  0  0  0  0
 10 31  1  0  0  0  0
 11 12  1  0  0  0  0
 11 32  1  0  0  0  0
 12 33  1  0  0  0  0
 13 14  1  0  0  0  0
 13 34  1  0  0  0  0
 13 35  1  0  0  0  0
 14 36  1  0  0  0  0
 14 37  1  0  0  0  0
 15 16  1  0  0  0  0
 15 24  2  0  0  0  0
 16 17  2  0  0  0  0
 16 38  1  0  0  0  0
 17 18  1  0  0  0  0
 18 19  2  0  0  0  0
 18 39  1  0  0  0  0
 19 20  1  0  0  0  0
 19 24  1  0  0  0  0
 20 21  2  0  0  0  0
 20 40  1  0  0  0  0
 21 22  1  0  0  0  0
 21 41  1  0  0  0  0
 22 23  2  0  0  0  0
 22 42  1  0  0  0  0
 23 24  1  0  0  0  0
 23 43  1  0  0  0  0
M  END
$$$$
