
 OpenBabel07202414193D

 47 50  0  0  1  0  0  0  0  0999 V2000
    1.1383    0.3384    0.1379 O   0  0  0  0  0  0  0  0  0  0  0  0
    2.2609    0.1017   -0.3139 C   0  0  0  0  0  0  0  0  0  0  0  0
    2.8310   -1.3133   -0.2620 C   0  0  0  0  0  0  0  0  0  0  0  0
    3.6282   -1.6054    0.9981 C   0  0  0  0  0  0  0  0  0  0  0  0
    3.2307   -1.0339    2.2124 C   0  0  0  0  0  0  0  0  0  0  0  0
    3.8625   -1.2053    3.3928 N   0  0  0  0  0  0  0  0  0  0  0  0
    4.9465   -2.0063    3.3803 C   0  0  0  0  0  0  0  0  0  0  0  0
    5.4284   -2.6662    2.2545 C   0  0  0  0  0  0  0  0  0  0  0  0
    6.5613   -3.4968    2.3322 C   0  0  0  0  0  0  0  0  0  0  0  0
    7.0204   -4.1805    1.2103 C   0  0  0  0  0  0  0  0  0  0  0  0
    6.3449   -4.0490    0.0042 C   0  0  0  0  0  0  0  0  0  0  0  0
    5.2230   -3.2162   -0.0867 C   0  0  0  0  0  0  0  0  0  0  0  0
    4.7440   -2.4863    1.0271 C   0  0  0  0  0  0  0  0  0  0  0  0
    3.0609    1.1093   -0.8024 N   0  0  0  0  0  0  0  0  0  0  0  0
    2.6949    2.5047   -0.6411 C   0  0  0  0  0  0  0  0  0  0  0  0
    3.9695    3.3078   -0.9082 C   0  0  0  0  0  0  0  0  0  0  0  0
    5.1103    2.2775   -0.9671 C   0  0  1  0  0  0  0  0  0  0  0  0
    5.9611    2.6624   -1.9658 F   0  0  0  0  0  0  0  0  0  0  0  0
    5.8594    1.9838    0.3255 C   0  0  0  0  0  0  0  0  0  0  0  0
    5.2819    2.1228    1.5928 C   0  0  0  0  0  0  0  0  0  0  0  0
    5.9589    1.6910    2.7357 C   0  0  0  0  0  0  0  0  0  0  0  0
    7.2209    1.1118    2.6295 C   0  0  0  0  0  0  0  0  0  0  0  0
    7.8308    0.9680    1.3777 C   0  0  0  0  0  0  0  0  0  0  0  0
    9.1802    0.3104    1.2380 C   0  0  0  0  0  0  0  0  0  0  0  0
    9.6863   -0.1576    2.4143 F   0  0  0  0  0  0  0  0  0  0  0  0
    9.1541   -0.7602    0.3949 F   0  0  0  0  0  0  0  0  0  0  0  0
   10.1241    1.1545    0.7365 F   0  0  0  0  0  0  0  0  0  0  0  0
    7.1476    1.4218    0.2370 C   0  0  0  0  0  0  0  0  0  0  0  0
    4.3787    0.9999   -1.4084 C   0  0  0  0  0  0  0  0  0  0  0  0
    3.4195   -1.4726   -1.1688 H   0  0  0  0  0  0  0  0  0  0  0  0
    1.9931   -2.0189   -0.3185 H   0  0  0  0  0  0  0  0  0  0  0  0
    2.3545   -0.3929    2.2838 H   0  0  0  0  0  0  0  0  0  0  0  0
    5.4293   -2.1180    4.3479 H   0  0  0  0  0  0  0  0  0  0  0  0
    7.0901   -3.6220    3.2752 H   0  0  0  0  0  0  0  0  0  0  0  0
    7.8955   -4.8217    1.2811 H   0  0  0  0  0  0  0  0  0  0  0  0
    6.6868   -4.5974   -0.8698 H   0  0  0  0  0  0  0  0  0  0  0  0
    4.7221   -3.1641   -1.0495 H   0  0  0  0  0  0  0  0  0  0  0  0
    2.2986    2.6776    0.3647 H   0  0  0  0  0  0  0  0  0  0  0  0
    1.9114    2.7494   -1.3663 H   0  0  0  0  0  0  0  0  0  0  0  0
    4.1257    4.0895   -0.1578 H   0  0  0  0  0  0  0  0  0  0  0  0
    3.8794    3.8185   -1.8753 H   0  0  0  0  0  0  0  0  0  0  0  0
    4.2817    2.5252    1.7234 H   0  0  0  0  0  0  0  0  0  0  0  0
    5.4791    1.7721    3.7098 H   0  0  0  0  0  0  0  0  0  0  0  0
    7.7174    0.7545    3.5304 H   0  0  0  0  0  0  0  0  0  0  0  0
    7.6130    1.2990   -0.7422 H   0  0  0  0  0  0  0  0  0  0  0  0
    4.8977    0.0800   -1.1330 H   0  0  0  0  0  0  0  0  0  0  0  0
    4.2343    0.9956   -2.4954 H   0  0  0  0  0  0  0  0  0  0  0  0
  1  2  2  0  0  0  0
  2  3  1  0  0  0  0
  2 14  1  0  0  0  0
  3  4  1  0  0  0  0
  3 30  1  0  0  0  0
  3 31  1  0  0  0  0
  4  5  1  0  0  0  0
  4 13  2  0  0  0  0
  5  6  2  0  0  0  0
  5 32  1  0  0  0  0
  6  7  1  0  0  0  0
  7  8  2  0  0  0  0
  7 33  1  0  0  0  0
  8  9  1  0  0  0  0
  8 13  1  0  0  0  0
  9 10  2  0  0  0  0
  9 34  1  0  0  0  0
 10 11  1  0  0  0  0
 10 35  1  0  0  0  0
 11 12  2  0  0  0  0
 11 36  1  0  0  0  0
 12 13  1  0  0  0  0
 12 37  1  0  0  0  0
 14 15  1  0  0  0  0
 14 29  1  0  0  0  0
 15 16  1  0  0  0  0
 15 38  1  0  0  0  0
 15 39  1  0  0  0  0
 16 17  1  0  0  0  0
 16 40  1  0  0  0  0
 16 41  1  0  0  0  0
 17 18  1  6  0  0  0
 17 19  1  0  0  0  0
 17 29  1  0  0  0  0
 19 20  1  0  0  0  0
 19 28  2  0  0  0  0
 20 21  2  0  0  0  0
 20 42  1  0  0  0  0
 21 22  1  0  0  0  0
 21 43  1  0  0  0  0
 22 23  2  0  0  0  0
 22 44  1  0  0  0  0
 23 24  1  0  0  0  0
 23 28  1  0  0  0  0
 24 25  1  0  0  0  0
 24 26  1  0  0  0  0
 24 27  1  0  0  0  0
 28 45  1  0  0  0  0
 29 46  1  0  0  0  0
 29 47  1  0  0  0  0
M  END
$$$$
