
 OpenBabel07202414143D

 42 45  0  0  1  0  0  0  0  0999 V2000
    3.4179   -0.0425   -0.0696 C   0  0  0  0  0  0  0  0  0  0  0  0
    2.0085    0.2873    0.0275 N   0  0  0  0  0  0  0  0  0  0  0  0
    1.5741    1.5824   -0.4610 C   0  0  0  0  0  0  0  0  0  0  0  0
    0.2638    2.0215    0.1935 C   0  0  1  0  0  0  0  0  0  0  0  0
   -0.1017    3.3530   -0.4475 C   0  0  0  0  0  0  0  0  0  0  0  0
    0.0601    4.4093    0.1602 O   0  0  0  0  0  0  0  0  0  0  0  0
   -0.5753    3.2661   -1.7465 N   0  0  0  0  0  0  0  0  0  0  0  0
   -0.9330    4.4052   -2.5051 C   0  0  0  0  0  0  0  0  0  0  0  0
   -0.1054    5.5283   -2.5501 C   0  0  0  0  0  0  0  0  0  0  0  0
   -0.3509    6.6250   -3.3005 N   0  0  0  0  0  0  0  0  0  0  0  0
   -1.4992    6.6173   -4.0108 C   0  0  0  0  0  0  0  0  0  0  0  0
   -2.4221    5.5676   -4.0224 C   0  0  0  0  0  0  0  0  0  0  0  0
   -3.6258    5.6517   -4.7449 C   0  0  0  0  0  0  0  0  0  0  0  0
   -4.5565    4.6153   -4.7011 C   0  0  0  0  0  0  0  0  0  0  0  0
   -4.2925    3.4801   -3.9463 C   0  0  0  0  0  0  0  0  0  0  0  0
   -3.0938    3.3774   -3.2396 C   0  0  0  0  0  0  0  0  0  0  0  0
   -2.1308    4.4157   -3.2587 C   0  0  0  0  0  0  0  0  0  0  0  0
   -0.7772    0.9246    0.0858 C   0  0  0  0  0  0  0  0  0  0  0  0
   -2.1555    1.1919    0.1537 C   0  0  0  0  0  0  0  0  0  0  0  0
   -3.0853    0.1555    0.0329 C   0  0  0  0  0  0  0  0  0  0  0  0
   -2.6565   -1.1570   -0.1362 C   0  0  0  0  0  0  0  0  0  0  0  0
   -1.2927   -1.4454   -0.1413 C   0  0  0  0  0  0  0  0  0  0  0  0
   -0.3521   -0.4148   -0.0169 C   0  0  0  0  0  0  0  0  0  0  0  0
    1.0991   -0.7699    0.0501 C   0  0  0  0  0  0  0  0  0  0  0  0
    1.4359   -1.9446    0.1233 O   0  0  0  0  0  0  0  0  0  0  0  0
    4.0278    0.8625   -0.0016 H   0  0  0  0  0  0  0  0  0  0  0  0
    3.6048   -0.5478   -1.0220 H   0  0  0  0  0  0  0  0  0  0  0  0
    3.6871   -0.7150    0.7505 H   0  0  0  0  0  0  0  0  0  0  0  0
    1.4773    1.4973   -1.5512 H   0  0  0  0  0  0  0  0  0  0  0  0
    2.3528    2.3265   -0.2545 H   0  0  0  0  0  0  0  0  0  0  0  0
    0.4267    2.1986    1.2649 H   0  0  0  0  0  0  0  0  0  0  0  0
   -0.9895    2.3850   -2.0239 H   0  0  0  0  0  0  0  0  0  0  0  0
    0.8305    5.5665   -1.9987 H   0  0  0  0  0  0  0  0  0  0  0  0
   -1.6738    7.5253   -4.5831 H   0  0  0  0  0  0  0  0  0  0  0  0
   -3.8554    6.5404   -5.3292 H   0  0  0  0  0  0  0  0  0  0  0  0
   -5.4935    4.7008   -5.2450 H   0  0  0  0  0  0  0  0  0  0  0  0
   -5.0239    2.6775   -3.8917 H   0  0  0  0  0  0  0  0  0  0  0  0
   -2.9484    2.4836   -2.6396 H   0  0  0  0  0  0  0  0  0  0  0  0
   -2.5225    2.2064    0.3094 H   0  0  0  0  0  0  0  0  0  0  0  0
   -4.1495    0.3772    0.0697 H   0  0  0  0  0  0  0  0  0  0  0  0
   -3.3809   -1.9611   -0.2327 H   0  0  0  0  0  0  0  0  0  0  0  0
   -0.9625   -2.4791   -0.2322 H   0  0  0  0  0  0  0  0  0  0  0  0
  1  2  1  0  0  0  0
  1 26  1  0  0  0  0
  1 27  1  0  0  0  0
  1 28  1  0  0  0  0
  2  3  1  0  0  0  0
  2 24  1  0  0  0  0
  3  4  1  0  0  0  0
  3 29  1  0  0  0  0
  3 30  1  0  0  0  0
  4  5  1  0  0  0  0
  4 18  1  0  0  0  0
  4 31  1  1  0  0  0
  5  6  2  0  0  0  0
  5  7  1  0  0  0  0
  7  8  1  0  0  0  0
  7 32  1  0  0  0  0
  8  9  1  0  0  0  0
  8 17  2  0  0  0  0
  9 10  2  0  0  0  0
  9 33  1  0  0  0  0
 10 11  1  0  0  0  0
 11 12  2  0  0  0  0
 11 34  1  0  0  0  0
 12 13  1  0  0  0  0
 12 17  1  0  0  0  0
 13 14  2  0  0  0  0
 13 35  1  0  0  0  0
 14 15  1  0  0  0  0
 14 36  1  0  0  0  0
 15 16  2  0  0  0  0
 15 37  1  0  0  0  0
 16 17  1  0  0  0  0
 16 38  1  0  0  0  0
 18 19  1  0  0  0  0
 18 23  2  0  0  0  0
 19 20  2  0  0  0  0
 19 39  1  0  0  0  0
 20 21  1  0  0  0  0
 20 40  1  0  0  0  0
 21 22  2  0  0  0  0
 21 41  1  0  0  0  0
 22 23  1  0  0  0  0
 22 42  1  0  0  0  0
 23 24  1  0  0  0  0
 24 25  2  0  0  0  0
M  END
$$$$
