
 OpenBabel07202414153D

 47 50  0  0  1  0  0  0  0  0999 V2000
    1.0807   -0.4344    2.4936 C   0  0  0  0  0  0  0  0  0  0  0  0
    2.6794    0.2720    2.8114 S   0  0  0  0  0  0  0  0  0  0  0  0
    2.5714    1.7107    2.7287 O   0  0  0  0  0  0  0  0  0  0  0  0
    3.2294   -0.3982    3.9672 O   0  0  0  0  0  0  0  0  0  0  0  0
    3.5093   -0.2233    1.3997 N   0  0  0  0  0  0  0  0  0  0  0  0
    4.9042   -0.4784    1.6145 C   0  0  0  0  0  0  0  0  0  0  0  0
    5.8230    0.5492    1.4374 C   0  0  0  0  0  0  0  0  0  0  0  0
    7.1539    0.3314    1.7625 C   0  0  0  0  0  0  0  0  0  0  0  0
    7.5666   -0.8959    2.3075 C   0  0  0  0  0  0  0  0  0  0  0  0
    8.8958   -1.0774    2.6624 C   0  0  0  0  0  0  0  0  0  0  0  0
    9.3853   -2.1926    3.2273 N   0  0  0  0  0  0  0  0  0  0  0  0
    8.4963   -3.1912    3.4453 C   0  0  0  0  0  0  0  0  0  0  0  0
    7.1349   -3.1684    3.1153 C   0  0  0  0  0  0  0  0  0  0  0  0
    6.2679   -4.2905    3.3642 N   0  0  0  0  0  0  0  0  0  0  0  0
    6.7035   -5.5531    3.7268 C   0  0  0  0  0  0  0  0  0  0  0  0
    7.8900   -5.8651    3.8534 O   0  0  0  0  0  0  0  0  0  0  0  0
    5.6919   -6.6831    3.8235 C   0  0  3  0  0  0  0  0  0  0  0  0
    5.4310   -7.2621    2.4307 C   0  0  0  0  0  0  0  0  0  0  0  0
    4.1174   -6.9684    1.9077 N   0  0  0  0  0  0  0  0  0  0  0  0
    3.0076   -7.1359    2.6991 C   0  0  0  0  0  0  0  0  0  0  0  0
    1.9209   -7.4180    2.2140 O   0  0  0  0  0  0  0  0  0  0  0  0
    3.1903   -6.8973    4.1546 C   0  0  0  0  0  0  0  0  0  0  0  0
    2.0799   -7.0360    4.9991 C   0  0  0  0  0  0  0  0  0  0  0  0
    2.2013   -6.7696    6.3619 C   0  0  0  0  0  0  0  0  0  0  0  0
    3.4256   -6.3437    6.8727 C   0  0  0  0  0  0  0  0  0  0  0  0
    3.5704   -6.0130    8.5552 Cl  0  0  0  0  0  0  0  0  0  0  0  0
    4.5461   -6.2239    6.0417 C   0  0  0  0  0  0  0  0  0  0  0  0
    4.4477   -6.5254    4.6720 C   0  0  0  0  0  0  0  0  0  0  0  0
    6.6457   -1.9614    2.5252 C   0  0  0  0  0  0  0  0  0  0  0  0
    5.3071   -1.7158    2.1352 C   0  0  0  0  0  0  0  0  0  0  0  0
    0.4651   -0.2755    3.3817 H   0  0  0  0  0  0  0  0  0  0  0  0
    1.1971   -1.5043    2.3129 H   0  0  0  0  0  0  0  0  0  0  0  0
    0.6346    0.0668    1.6329 H   0  0  0  0  0  0  0  0  0  0  0  0
    3.3618    0.5027    0.6914 H   0  0  0  0  0  0  0  0  0  0  0  0
    5.5159    1.5268    1.0747 H   0  0  0  0  0  0  0  0  0  0  0  0
    7.8696    1.1404    1.6221 H   0  0  0  0  0  0  0  0  0  0  0  0
    9.6403   -0.2966    2.5094 H   0  0  0  0  0  0  0  0  0  0  0  0
    8.9668   -4.0305    3.9461 H   0  0  0  0  0  0  0  0  0  0  0  0
    5.2765   -4.1562    3.2128 H   0  0  0  0  0  0  0  0  0  0  0  0
    6.2544   -7.4713    4.3532 H   0  0  0  0  0  0  0  0  0  0  0  0
    5.4884   -8.3574    2.4858 H   0  0  0  0  0  0  0  0  0  0  0  0
    6.1688   -6.9372    1.6896 H   0  0  0  0  0  0  0  0  0  0  0  0
    3.9327   -7.2108    0.9401 H   0  0  0  0  0  0  0  0  0  0  0  0
    1.1231   -7.3678    4.5982 H   0  0  0  0  0  0  0  0  0  0  0  0
    1.3416   -6.8990    7.0153 H   0  0  0  0  0  0  0  0  0  0  0  0
    5.5032   -5.9468    6.4795 H   0  0  0  0  0  0  0  0  0  0  0  0
    4.5428   -2.4775    2.2581 H   0  0  0  0  0  0  0  0  0  0  0  0
  1  2  1  0  0  0  0
  1 31  1  0  0  0  0
  1 32  1  0  0  0  0
  1 33  1  0  0  0  0
  2  3  2  0  0  0  0
  2  4  2  0  0  0  0
  2  5  1  0  0  0  0
  5  6  1  0  0  0  0
  5 34  1  0  0  0  0
  6  7  1  0  0  0  0
  6 30  2  0  0  0  0
  7  8  2  0  0  0  0
  7 35  1  0  0  0  0
  8  9  1  0  0  0  0
  8 36  1  0  0  0  0
  9 10  1  0  0  0  0
  9 29  2  0  0  0  0
 10 11  2  0  0  0  0
 10 37  1  0  0  0  0
 11 12  1  0  0  0  0
 12 13  2  0  0  0  0
 12 38  1  0  0  0  0
 13 14  1  0  0  0  0
 13 29  1  0  0  0  0
 14 15  1  0  0  0  0
 14 39  1  0  0  0  0
 15 16  2  0  0  0  0
 15 17  1  0  0  0  0
 17 18  1  0  0  0  0
 17 28  1  0  0  0  0
 17 40  1  0  0  0  0
 18 19  1  0  0  0  0
 18 41  1  0  0  0  0
 18 42  1  0  0  0  0
 19 20  1  0  0  0  0
 19 43  1  0  0  0  0
 20 21  2  0  0  0  0
 20 22  1  0  0  0  0
 22 23  1  0  0  0  0
 22 28  2  0  0  0  0
 23 24  2  0  0  0  0
 23 44  1  0  0  0  0
 24 25  1  0  0  0  0
 24 45  1  0  0  0  0
 25 26  1  0  0  0  0
 25 27  2  0  0  0  0
 27 28  1  0  0  0  0
 27 46  1  0  0  0  0
 29 30  1  0  0  0  0
 30 47  1  0  0  0  0
M  END
$$$$
