
 OpenBabel07202414183D

 65 69  0  0  1  0  0  0  0  0999 V2000
    5.2914   -5.9202   -3.1985 F   0  0  0  0  0  0  0  0  0  0  0  0
    4.1395   -6.3815   -2.6692 C   0  0  0  0  0  0  0  0  0  0  0  0
    3.3057   -5.3243   -2.5321 F   0  0  0  0  0  0  0  0  0  0  0  0
    3.5828   -7.2201   -3.5742 F   0  0  0  0  0  0  0  0  0  0  0  0
    4.3333   -7.1091   -1.3154 C   0  0  0  0  0  0  0  0  0  0  0  0
    5.7070   -7.2726   -0.7445 N   0  0  0  0  0  0  0  0  0  0  0  0
    6.5964   -8.0706   -1.6219 C   0  0  0  0  0  0  0  0  0  0  0  0
    6.2579   -9.5701   -1.6601 C   0  0  0  0  0  0  0  0  0  0  0  0
    6.2871  -10.1414   -0.3475 O   0  0  0  0  0  0  0  0  0  0  0  0
    5.3756   -9.4619    0.5282 C   0  0  0  0  0  0  0  0  0  0  0  0
    5.6858   -7.9545    0.5950 C   0  0  3  0  0  0  0  0  0  0  0  0
    4.7232   -7.2422    1.5457 C   0  0  0  0  0  0  0  0  0  0  0  0
    3.7542   -7.7954    2.0628 O   0  0  0  0  0  0  0  0  0  0  0  0
    5.0266   -5.9144    1.7423 N   0  0  0  0  0  0  0  0  0  0  0  0
    4.2581   -5.0143    2.5842 C   0  0  0  0  0  0  0  0  0  0  0  0
    4.7850   -4.9288    4.0516 C   0  0  3  0  0  0  0  0  0  0  0  0
    6.2243   -4.3283    4.0022 C   0  0  0  0  0  0  0  0  0  0  0  0
    6.7499   -4.0324    2.9291 O   0  0  0  0  0  0  0  0  0  0  0  0
    6.8387   -4.1615    5.2305 N   0  0  0  0  0  0  0  0  0  0  0  0
    8.1892   -3.7733    5.4742 C   0  0  0  0  0  0  0  0  0  0  0  0
    9.0936   -3.4710    4.4523 C   0  0  0  0  0  0  0  0  0  0  0  0
   10.4225   -3.2784    4.6287 N   0  0  0  0  0  0  0  0  0  0  0  0
   10.8729   -3.3244    5.8955 C   0  0  0  0  0  0  0  0  0  0  0  0
   10.0596   -3.4726    7.0158 C   0  0  0  0  0  0  0  0  0  0  0  0
   10.5947   -3.3672    8.3128 C   0  0  0  0  0  0  0  0  0  0  0  0
    9.7717   -3.4879    9.4305 C   0  0  0  0  0  0  0  0  0  0  0  0
    8.4202   -3.7469    9.2610 C   0  0  0  0  0  0  0  0  0  0  0  0
    7.8817   -3.8700    7.9819 C   0  0  0  0  0  0  0  0  0  0  0  0
    8.6789   -3.7169    6.8124 C   0  0  0  0  0  0  0  0  0  0  0  0
    4.8087   -6.3242    4.7160 C   0  0  0  0  0  0  0  0  0  0  0  0
    3.3831   -6.8040    4.9470 C   0  0  0  0  0  0  0  0  0  0  0  0
    2.7279   -5.9749    5.9055 O   0  0  0  0  0  0  0  0  0  0  0  0
    2.8335   -4.6319    5.6668 C   0  0  0  0  0  0  0  0  0  0  0  0
    1.9024   -3.8441    6.3455 C   0  0  0  0  0  0  0  0  0  0  0  0
    1.9218   -2.4584    6.2042 C   0  0  0  0  0  0  0  0  0  0  0  0
    2.8810   -1.8665    5.3892 C   0  0  0  0  0  0  0  0  0  0  0  0
    2.9127   -0.1557    5.2178 Cl  0  0  0  0  0  0  0  0  0  0  0  0
    3.8163   -2.6477    4.7046 C   0  0  0  0  0  0  0  0  0  0  0  0
    3.8083   -4.0485    4.8381 C   0  0  0  0  0  0  0  0  0  0  0  0
    3.8299   -8.0803   -1.3811 H   0  0  0  0  0  0  0  0  0  0  0  0
    3.7387   -6.5240   -0.6042 H   0  0  0  0  0  0  0  0  0  0  0  0
    7.6167   -7.9588   -1.2287 H   0  0  0  0  0  0  0  0  0  0  0  0
    6.6243   -7.6672   -2.6371 H   0  0  0  0  0  0  0  0  0  0  0  0
    7.0019  -10.0986   -2.2644 H   0  0  0  0  0  0  0  0  0  0  0  0
    5.2766   -9.7516   -2.1124 H   0  0  0  0  0  0  0  0  0  0  0  0
    5.4873   -9.9104    1.5217 H   0  0  0  0  0  0  0  0  0  0  0  0
    4.3483   -9.6643    0.2031 H   0  0  0  0  0  0  0  0  0  0  0  0
    6.6907   -7.8418    1.0278 H   0  0  0  0  0  0  0  0  0  0  0  0
    5.8786   -5.5485    1.3210 H   0  0  0  0  0  0  0  0  0  0  0  0
    3.2073   -5.3187    2.5475 H   0  0  0  0  0  0  0  0  0  0  0  0
    4.3069   -4.0318    2.0986 H   0  0  0  0  0  0  0  0  0  0  0  0
    6.2899   -4.4040    6.0412 H   0  0  0  0  0  0  0  0  0  0  0  0
    8.7940   -3.3662    3.4157 H   0  0  0  0  0  0  0  0  0  0  0  0
   11.9522   -3.2235    5.9903 H   0  0  0  0  0  0  0  0  0  0  0  0
   11.6529   -3.1550    8.4591 H   0  0  0  0  0  0  0  0  0  0  0  0
   10.1866   -3.3689   10.4280 H   0  0  0  0  0  0  0  0  0  0  0  0
    7.7722   -3.8494   10.1326 H   0  0  0  0  0  0  0  0  0  0  0  0
    6.8140   -4.0511    7.9145 H   0  0  0  0  0  0  0  0  0  0  0  0
    5.3087   -6.2797    5.6921 H   0  0  0  0  0  0  0  0  0  0  0  0
    5.3788   -7.0471    4.1252 H   0  0  0  0  0  0  0  0  0  0  0  0
    3.3934   -7.8238    5.3451 H   0  0  0  0  0  0  0  0  0  0  0  0
    2.7674   -6.8311    4.0424 H   0  0  0  0  0  0  0  0  0  0  0  0
    1.1499   -4.3171    6.9724 H   0  0  0  0  0  0  0  0  0  0  0  0
    1.1848   -1.8544    6.7258 H   0  0  0  0  0  0  0  0  0  0  0  0
    4.5433   -2.1543    4.0623 H   0  0  0  0  0  0  0  0  0  0  0  0
  1  2  1  0  0  0  0
  2  3  1  0  0  0  0
  2  4  1  0  0  0  0
  2  5  1  0  0  0  0
  5  6  1  0  0  0  0
  5 40  1  0  0  0  0
  5 41  1  0  0  0  0
  6  7  1  0  0  0  0
  6 11  1  0  0  0  0
  7  8  1  0  0  0  0
  7 42  1  0  0  0  0
  7 43  1  0  0  0  0
  8  9  1  0  0  0  0
  8 44  1  0  0  0  0
  8 45  1  0  0  0  0
  9 10  1  0  0  0  0
 10 11  1  0  0  0  0
 10 46  1  0  0  0  0
 10 47  1  0  0  0  0
 11 12  1  0  0  0  0
 11 48  1  0  0  0  0
 12 13  2  0  0  0  0
 12 14  1  0  0  0  0
 14 15  1  0  0  0  0
 14 49  1  0  0  0  0
 15 16  1  0  0  0  0
 15 50  1  0  0  0  0
 15 51  1  0  0  0  0
 16 17  1  0  0  0  0
 16 30  1  0  0  0  0
 16 39  1  0  0  0  0
 17 18  2  0  0  0  0
 17 19  1  0  0  0  0
 19 20  1  0  0  0  0
 19 52  1  0  0  0  0
 20 21  1  0  0  0  0
 20 29  2  0  0  0  0
 21 22  2  0  0  0  0
 21 53  1  0  0  0  0
 22 23  1  0  0  0  0
 23 24  2  0  0  0  0
 23 54  1  0  0  0  0
 24 25  1  0  0  0  0
 24 29  1  0  0  0  0
 25 26  2  0  0  0  0
 25 55  1  0  0  0  0
 26 27  1  0  0  0  0
 26 56  1  0  0  0  0
 27 28  2  0  0  0  0
 27 57  1  0  0  0  0
 28 29  1  0  0  0  0
 28 58  1  0  0  0  0
 30 31  1  0  0  0  0
 30 59  1  0  0  0  0
 30 60  1  0  0  0  0
 31 32  1  0  0  0  0
 31 61  1  0  0  0  0
 31 62  1  0  0  0  0
 32 33  1  0  0  0  0
 33 34  1  0  0  0  0
 33 39  2  0  0  0  0
 34 35  2  0  0  0  0
 34 63  1  0  0  0  0
 35 36  1  0  0  0  0
 35 64  1  0  0  0  0
 36 37  1  0  0  0  0
 36 38  2  0  0  0  0
 38 39  1  0  0  0  0
 38 65  1  0  0  0  0
M  END
$$$$
