
 OpenBabel07202414113D

 45 48  0  0  1  0  0  0  0  0999 V2000
    1.4446   -0.0678   -1.1638 C   0  0  0  0  0  0  0  0  0  0  0  0
    2.5776   -0.0415   -0.1593 C   0  0  0  0  0  0  0  0  0  0  0  0
    2.7267    0.9894    0.4972 O   0  0  0  0  0  0  0  0  0  0  0  0
    3.3455   -1.2166   -0.0382 N   0  0  0  0  0  0  0  0  0  0  0  0
    2.9748   -2.4221   -0.7870 C   0  0  0  0  0  0  0  0  0  0  0  0
    3.2367   -3.7016   -0.0159 C   0  0  0  0  0  0  0  0  0  0  0  0
    4.7204   -3.8068    0.2934 C   0  0  3  0  0  0  0  0  0  0  0  0
    5.5433   -4.1435   -0.9680 C   0  0  0  0  0  0  0  0  0  0  0  0
    6.3619   -3.3705   -1.4514 O   0  0  0  0  0  0  0  0  0  0  0  0
    5.2507   -5.4056   -1.4641 N   0  0  0  0  0  0  0  0  0  0  0  0
    5.9456   -6.1242   -2.4735 C   0  0  0  0  0  0  0  0  0  0  0  0
    7.1503   -5.6849   -3.0238 C   0  0  0  0  0  0  0  0  0  0  0  0
    7.9298   -6.4262   -3.8457 N   0  0  0  0  0  0  0  0  0  0  0  0
    7.4583   -7.6388   -4.1957 C   0  0  0  0  0  0  0  0  0  0  0  0
    6.2097   -8.1348   -3.8277 C   0  0  0  0  0  0  0  0  0  0  0  0
    5.7262   -9.3422   -4.3633 C   0  0  0  0  0  0  0  0  0  0  0  0
    4.4604   -9.8135   -4.0263 C   0  0  0  0  0  0  0  0  0  0  0  0
    3.6890   -9.1120   -3.1105 C   0  0  0  0  0  0  0  0  0  0  0  0
    4.1687   -7.9199   -2.5581 C   0  0  0  0  0  0  0  0  0  0  0  0
    5.4304   -7.3773   -2.9219 C   0  0  0  0  0  0  0  0  0  0  0  0
    5.1879   -2.5436    0.9771 C   0  0  0  0  0  0  0  0  0  0  0  0
    6.3169   -2.6379    1.8247 C   0  0  0  0  0  0  0  0  0  0  0  0
    6.8273   -1.5101    2.4517 C   0  0  0  0  0  0  0  0  0  0  0  0
    8.1827   -1.6460    3.4994 Cl  0  0  0  0  0  0  0  0  0  0  0  0
    6.2410   -0.2755    2.2271 C   0  0  0  0  0  0  0  0  0  0  0  0
    5.1150   -0.1751    1.3962 C   0  0  0  0  0  0  0  0  0  0  0  0
    4.5473   -1.2952    0.7701 C   0  0  0  0  0  0  0  0  0  0  0  0
    1.0055    0.9324   -1.2371 H   0  0  0  0  0  0  0  0  0  0  0  0
    0.6557   -0.7465   -0.8290 H   0  0  0  0  0  0  0  0  0  0  0  0
    1.8111   -0.3448   -2.1555 H   0  0  0  0  0  0  0  0  0  0  0  0
    3.5183   -2.4001   -1.7391 H   0  0  0  0  0  0  0  0  0  0  0  0
    1.9111   -2.4193   -1.0316 H   0  0  0  0  0  0  0  0  0  0  0  0
    2.8752   -4.5595   -0.5934 H   0  0  0  0  0  0  0  0  0  0  0  0
    2.6658   -3.6891    0.9217 H   0  0  0  0  0  0  0  0  0  0  0  0
    4.8556   -4.6464    0.9915 H   0  0  0  0  0  0  0  0  0  0  0  0
    4.5131   -5.9142   -1.0012 H   0  0  0  0  0  0  0  0  0  0  0  0
    7.5712   -4.7083   -2.8099 H   0  0  0  0  0  0  0  0  0  0  0  0
    8.1355   -8.2186   -4.8184 H   0  0  0  0  0  0  0  0  0  0  0  0
    6.3207   -9.9036   -5.0817 H   0  0  0  0  0  0  0  0  0  0  0  0
    4.0747  -10.7194   -4.4870 H   0  0  0  0  0  0  0  0  0  0  0  0
    2.7025   -9.4797   -2.8382 H   0  0  0  0  0  0  0  0  0  0  0  0
    3.5080   -7.4063   -1.8667 H   0  0  0  0  0  0  0  0  0  0  0  0
    6.7970   -3.6005    1.9895 H   0  0  0  0  0  0  0  0  0  0  0  0
    6.6453    0.6214    2.6888 H   0  0  0  0  0  0  0  0  0  0  0  0
    4.7263    0.8273    1.2518 H   0  0  0  0  0  0  0  0  0  0  0  0
  1  2  1  0  0  0  0
  1 28  1  0  0  0  0
  1 29  1  0  0  0  0
  1 30  1  0  0  0  0
  2  3  2  0  0  0  0
  2  4  1  0  0  0  0
  4  5  1  0  0  0  0
  4 27  1  0  0  0  0
  5  6  1  0  0  0  0
  5 31  1  0  0  0  0
  5 32  1  0  0  0  0
  6  7  1  0  0  0  0
  6 33  1  0  0  0  0
  6 34  1  0  0  0  0
  7  8  1  0  0  0  0
  7 21  1  0  0  0  0
  7 35  1  0  0  0  0
  8  9  2  0  0  0  0
  8 10  1  0  0  0  0
 10 11  1  0  0  0  0
 10 36  1  0  0  0  0
 11 12  1  0  0  0  0
 11 20  2  0  0  0  0
 12 13  2  0  0  0  0
 12 37  1  0  0  0  0
 13 14  1  0  0  0  0
 14 15  2  0  0  0  0
 14 38  1  0  0  0  0
 15 16  1  0  0  0  0
 15 20  1  0  0  0  0
 16 17  2  0  0  0  0
 16 39  1  0  0  0  0
 17 18  1  0  0  0  0
 17 40  1  0  0  0  0
 18 19  2  0  0  0  0
 18 41  1  0  0  0  0
 19 20  1  0  0  0  0
 19 42  1  0  0  0  0
 21 22  1  0  0  0  0
 21 27  2  0  0  0  0
 22 23  2  0  0  0  0
 22 43  1  0  0  0  0
 23 24  1  0  0  0  0
 23 25  1  0  0  0  0
 25 26  2  0  0  0  0
 25 44  1  0  0  0  0
 26 27  1  0  0  0  0
 26 45  1  0  0  0  0
M  END
$$$$
