
 OpenBabel07202414173D

 58 61  0  0  1  0  0  0  0  0999 V2000
    0.9817    0.0603   -0.6024 Cl  0  0  0  0  0  0  0  0  0  0  0  0
    2.7391    0.1860   -0.8136 C   0  0  0  0  0  0  0  0  0  0  0  0
    3.3327    1.3589   -0.0410 C   0  0  0  0  0  0  0  0  0  0  0  0
    2.6381    2.1627    0.5807 O   0  0  0  0  0  0  0  0  0  0  0  0
    4.7262    1.4681   -0.0518 N   0  0  0  0  0  0  0  0  0  0  0  0
    5.6311    0.6263   -0.8440 C   0  0  0  0  0  0  0  0  0  0  0  0
    6.9014    0.2552   -0.0516 C   0  0  0  0  0  0  0  0  0  0  0  0
    7.5974    1.4517    0.5381 N   0  0  0  0  0  0  0  0  0  0  0  0
    8.4975    2.4017   -0.5724 S   0  0  0  0  0  0  0  0  0  0  0  0
    7.7103    2.5973   -1.7661 O   0  0  0  0  0  0  0  0  0  0  0  0
    9.0985    3.5111    0.1308 O   0  0  0  0  0  0  0  0  0  0  0  0
    9.8678    1.4817   -1.1139 C   0  0  0  0  0  0  0  0  0  0  0  0
    9.8667    0.6239   -2.2577 C   0  0  0  0  0  0  0  0  0  0  0  0
   11.1071    0.0668   -2.4870 C   0  0  0  0  0  0  0  0  0  0  0  0
   12.2611    0.5652   -1.3235 S   0  0  0  0  0  0  0  0  0  0  0  0
   11.1120    1.5443   -0.5191 C   0  0  0  0  0  0  0  0  0  0  0  0
    6.6049    2.2264    1.3962 C   0  0  1  0  0  0  0  0  0  0  0  0
    7.2151    3.3915    2.1723 C   0  0  0  0  0  0  0  0  0  0  0  0
    6.7536    4.5284    2.1431 O   0  0  0  0  0  0  0  0  0  0  0  0
    8.2851    3.0125    2.9618 N   0  0  0  0  0  0  0  0  0  0  0  0
    8.9963    3.9490    3.8131 C   0  0  0  0  0  0  0  0  0  0  0  0
    8.7369    3.6526    5.2899 C   0  0  0  0  0  0  0  0  0  0  0  0
    9.0941    2.4204    5.8680 C   0  0  0  0  0  0  0  0  0  0  0  0
    8.9789    2.2153    7.2436 C   0  0  0  0  0  0  0  0  0  0  0  0
    8.4912    3.2315    8.0610 C   0  0  0  0  0  0  0  0  0  0  0  0
    8.1064    4.4482    7.5026 C   0  0  0  0  0  0  0  0  0  0  0  0
    8.2262    4.6580    6.1269 C   0  0  0  0  0  0  0  0  0  0  0  0
   10.5006    3.9974    3.5445 C   0  0  0  0  0  0  0  0  0  0  0  0
   11.1755    5.2181    3.7286 C   0  0  0  0  0  0  0  0  0  0  0  0
   12.5679    5.2864    3.6645 C   0  0  0  0  0  0  0  0  0  0  0  0
   13.3092    4.1365    3.4109 C   0  0  0  0  0  0  0  0  0  0  0  0
   12.6605    2.9224    3.2014 C   0  0  0  0  0  0  0  0  0  0  0  0
   11.2663    2.8524    3.2659 C   0  0  0  0  0  0  0  0  0  0  0  0
    5.3616    2.6411    0.5882 C   0  0  0  0  0  0  0  0  0  0  0  0
    2.9397    0.3090   -1.8811 H   0  0  0  0  0  0  0  0  0  0  0  0
    3.1652   -0.7517   -0.4490 H   0  0  0  0  0  0  0  0  0  0  0  0
    5.8601    1.1774   -1.7586 H   0  0  0  0  0  0  0  0  0  0  0  0
    5.1396   -0.2944   -1.1644 H   0  0  0  0  0  0  0  0  0  0  0  0
    7.5882   -0.3333   -0.6638 H   0  0  0  0  0  0  0  0  0  0  0  0
    6.6099   -0.3950    0.7867 H   0  0  0  0  0  0  0  0  0  0  0  0
    9.0110    0.4507   -2.8995 H   0  0  0  0  0  0  0  0  0  0  0  0
   11.3999   -0.5957   -3.2889 H   0  0  0  0  0  0  0  0  0  0  0  0
   11.4105    2.1448    0.3306 H   0  0  0  0  0  0  0  0  0  0  0  0
    6.2656    1.5256    2.1754 H   0  0  0  0  0  0  0  0  0  0  0  0
    8.6548    2.0829    2.8443 H   0  0  0  0  0  0  0  0  0  0  0  0
    8.5988    4.9475    3.5888 H   0  0  0  0  0  0  0  0  0  0  0  0
    9.5052    1.6224    5.2574 H   0  0  0  0  0  0  0  0  0  0  0  0
    9.2905    1.2698    7.6791 H   0  0  0  0  0  0  0  0  0  0  0  0
    8.4185    3.0777    9.1344 H   0  0  0  0  0  0  0  0  0  0  0  0
    7.7287    5.2427    8.1413 H   0  0  0  0  0  0  0  0  0  0  0  0
    7.9410    5.6245    5.7147 H   0  0  0  0  0  0  0  0  0  0  0  0
   10.6152    6.1233    3.9584 H   0  0  0  0  0  0  0  0  0  0  0  0
   13.0708    6.2338    3.8356 H   0  0  0  0  0  0  0  0  0  0  0  0
   14.3947    4.1851    3.3874 H   0  0  0  0  0  0  0  0  0  0  0  0
   13.2411    2.0243    3.0123 H   0  0  0  0  0  0  0  0  0  0  0  0
   10.7963    1.8831    3.1344 H   0  0  0  0  0  0  0  0  0  0  0  0
    5.6184    3.3483   -0.2098 H   0  0  0  0  0  0  0  0  0  0  0  0
    4.6456    3.1514    1.2428 H   0  0  0  0  0  0  0  0  0  0  0  0
  1  2  1  0  0  0  0
  2  3  1  0  0  0  0
  2 35  1  0  0  0  0
  2 36  1  0  0  0  0
  3  4  2  0  0  0  0
  3  5  1  0  0  0  0
  5  6  1  0  0  0  0
  5 34  1  0  0  0  0
  6  7  1  0  0  0  0
  6 37  1  0  0  0  0
  6 38  1  0  0  0  0
  7  8  1  0  0  0  0
  7 39  1  0  0  0  0
  7 40  1  0  0  0  0
  8  9  1  0  0  0  0
  8 17  1  0  0  0  0
  9 10  2  0  0  0  0
  9 11  2  0  0  0  0
  9 12  1  0  0  0  0
 12 13  1  0  0  0  0
 12 16  2  0  0  0  0
 13 14  2  0  0  0  0
 13 41  1  0  0  0  0
 14 15  1  0  0  0  0
 14 42  1  0  0  0  0
 15 16  1  0  0  0  0
 16 43  1  0  0  0  0
 17 18  1  0  0  0  0
 17 34  1  0  0  0  0
 17 44  1  1  0  0  0
 18 19  2  0  0  0  0
 18 20  1  0  0  0  0
 20 21  1  0  0  0  0
 20 45  1  0  0  0  0
 21 22  1  0  0  0  0
 21 28  1  0  0  0  0
 21 46  1  0  0  0  0
 22 23  1  0  0  0  0
 22 27  2  0  0  0  0
 23 24  2  0  0  0  0
 23 47  1  0  0  0  0
 24 25  1  0  0  0  0
 24 48  1  0  0  0  0
 25 26  2  0  0  0  0
 25 49  1  0  0  0  0
 26 27  1  0  0  0  0
 26 50  1  0  0  0  0
 27 51  1  0  0  0  0
 28 29  1  0  0  0  0
 28 33  2  0  0  0  0
 29 30  2  0  0  0  0
 29 52  1  0  0  0  0
 30 31  1  0  0  0  0
 30 53  1  0  0  0  0
 31 32  2  0  0  0  0
 31 54  1  0  0  0  0
 32 33  1  0  0  0  0
 32 55  1  0  0  0  0
 33 56  1  0  0  0  0
 34 57  1  0  0  0  0
 34 58  1  0  0  0  0
M  END
$$$$
