
 OpenBabel07202414173D

 63 67  0  0  1  0  0  0  0  0999 V2000
    0.8782   -0.1753   -0.0210 Cl  0  0  0  0  0  0  0  0  0  0  0  0
    2.5943   -0.1534    0.1012 C   0  0  0  0  0  0  0  0  0  0  0  0
    3.2733    1.0561   -0.0285 C   0  0  0  0  0  0  0  0  0  0  0  0
    4.6623    1.0739    0.0505 C   0  0  0  0  0  0  0  0  0  0  0  0
    5.3825   -0.1122    0.2735 C   0  0  0  0  0  0  0  0  0  0  0  0
    4.6975   -1.3331    0.4169 C   0  0  0  0  0  0  0  0  0  0  0  0
    3.2944   -1.3423    0.3227 C   0  0  0  0  0  0  0  0  0  0  0  0
    5.4677   -2.6228    0.7017 C   0  0  3  0  0  0  0  0  0  0  0  0
    5.3127   -3.0715    2.1825 C   0  0  0  0  0  0  0  0  0  0  0  0
    4.3153   -2.7736    2.8337 O   0  0  0  0  0  0  0  0  0  0  0  0
    6.3004   -3.9226    2.6483 N   0  0  0  0  0  0  0  0  0  0  0  0
    6.4402   -4.4751    3.9502 C   0  0  0  0  0  0  0  0  0  0  0  0
    5.5344   -4.2458    4.9850 C   0  0  0  0  0  0  0  0  0  0  0  0
    5.7518   -4.5871    6.2768 N   0  0  0  0  0  0  0  0  0  0  0  0
    6.8985   -5.2445    6.5433 C   0  0  0  0  0  0  0  0  0  0  0  0
    7.8118   -5.6629    5.5773 C   0  0  0  0  0  0  0  0  0  0  0  0
    8.9127   -6.4701    5.9194 C   0  0  0  0  0  0  0  0  0  0  0  0
    9.8029   -6.9118    4.9441 C   0  0  0  0  0  0  0  0  0  0  0  0
    9.6223   -6.5245    3.6246 C   0  0  0  0  0  0  0  0  0  0  0  0
    8.5384   -5.7149    3.2769 C   0  0  0  0  0  0  0  0  0  0  0  0
    7.5920   -5.2673    4.2382 C   0  0  0  0  0  0  0  0  0  0  0  0
    6.9152   -2.4682    0.1863 C   0  0  0  0  0  0  0  0  0  0  0  0
    7.5750   -1.2565    0.7888 N   0  0  0  0  0  0  0  0  0  0  0  0
    9.2754   -1.2313    0.5770 S   0  0  0  0  0  0  0  0  0  0  0  0
    9.7861   -2.3936    1.2736 O   0  0  0  0  0  0  0  0  0  0  0  0
    9.5123   -1.0438   -0.8324 O   0  0  0  0  0  0  0  0  0  0  0  0
    9.7897    0.2458    1.4815 C   0  0  0  0  0  0  0  0  0  0  0  0
   11.2960    0.6244    1.3826 C   0  0  0  0  0  0  0  0  0  0  0  0
   11.6250    0.9204   -0.0715 C   0  0  0  0  0  0  0  0  0  0  0  0
   11.8979    1.1660   -1.2779 N   0  0  0  0  0  0  0  0  0  0  0  0
   12.2569   -0.4714    1.9053 C   0  0  0  0  0  0  0  0  0  0  0  0
   12.1071   -0.7824    3.3935 C   0  0  0  0  0  0  0  0  0  0  0  0
   12.4367    0.6490    4.4041 S   0  0  0  0  0  0  0  0  0  0  0  0
   11.9568    0.3765    5.7405 O   0  0  0  0  0  0  0  0  0  0  0  0
   13.8008    1.0612    4.1596 O   0  0  0  0  0  0  0  0  0  0  0  0
   11.3609    1.8618    3.6731 C   0  0  0  0  0  0  0  0  0  0  0  0
   11.5478    1.9529    2.1622 C   0  0  0  0  0  0  0  0  0  0  0  0
    6.8901   -0.0337    0.2834 C   0  0  0  0  0  0  0  0  0  0  0  0
    2.7293    1.9802   -0.1926 H   0  0  0  0  0  0  0  0  0  0  0  0
    5.1846    2.0232   -0.0608 H   0  0  0  0  0  0  0  0  0  0  0  0
    2.7418   -2.2715    0.4438 H   0  0  0  0  0  0  0  0  0  0  0  0
    5.0046   -3.4255    0.1092 H   0  0  0  0  0  0  0  0  0  0  0  0
    7.1164   -4.0415    2.0759 H   0  0  0  0  0  0  0  0  0  0  0  0
    4.5783   -3.7572    4.8306 H   0  0  0  0  0  0  0  0  0  0  0  0
    7.0637   -5.4446    7.5992 H   0  0  0  0  0  0  0  0  0  0  0  0
    9.0637   -6.7878    6.9493 H   0  0  0  0  0  0  0  0  0  0  0  0
   10.6281   -7.5665    5.2123 H   0  0  0  0  0  0  0  0  0  0  0  0
   10.3147   -6.8639    2.8572 H   0  0  0  0  0  0  0  0  0  0  0  0
    8.4410   -5.4701    2.2223 H   0  0  0  0  0  0  0  0  0  0  0  0
    6.9004   -2.3566   -0.9072 H   0  0  0  0  0  0  0  0  0  0  0  0
    7.5078   -3.3659    0.3794 H   0  0  0  0  0  0  0  0  0  0  0  0
    9.4816    0.0742    2.5167 H   0  0  0  0  0  0  0  0  0  0  0  0
    9.2074    1.0777    1.0761 H   0  0  0  0  0  0  0  0  0  0  0  0
   13.2930   -0.1555    1.7186 H   0  0  0  0  0  0  0  0  0  0  0  0
   12.1355   -1.3963    1.3312 H   0  0  0  0  0  0  0  0  0  0  0  0
   12.8216   -1.5556    3.6961 H   0  0  0  0  0  0  0  0  0  0  0  0
   11.1023   -1.1373    3.6368 H   0  0  0  0  0  0  0  0  0  0  0  0
   11.6025    2.8201    4.1422 H   0  0  0  0  0  0  0  0  0  0  0  0
   10.3333    1.6030    3.9419 H   0  0  0  0  0  0  0  0  0  0  0  0
   12.5673    2.3021    1.9552 H   0  0  0  0  0  0  0  0  0  0  0  0
   10.8812    2.7374    1.7783 H   0  0  0  0  0  0  0  0  0  0  0  0
    7.2198    0.1836   -0.7389 H   0  0  0  0  0  0  0  0  0  0  0  0
    7.1561    0.7992    0.9403 H   0  0  0  0  0  0  0  0  0  0  0  0
  1  2  1  0  0  0  0
  2  3  1  0  0  0  0
  2  7  2  0  0  0  0
  3  4  2  0  0  0  0
  3 39  1  0  0  0  0
  4  5  1  0  0  0  0
  4 40  1  0  0  0  0
  5  6  2  0  0  0  0
  5 38  1  0  0  0  0
  6  7  1  0  0  0  0
  6  8  1  0  0  0  0
  7 41  1  0  0  0  0
  8  9  1  0  0  0  0
  8 22  1  0  0  0  0
  8 42  1  0  0  0  0
  9 10  2  0  0  0  0
  9 11  1  0  0  0  0
 11 12  1  0  0  0  0
 11 43  1  0  0  0  0
 12 13  1  0  0  0  0
 12 21  2  0  0  0  0
 13 14  2  0  0  0  0
 13 44  1  0  0  0  0
 14 15  1  0  0  0  0
 15 16  2  0  0  0  0
 15 45  1  0  0  0  0
 16 17  1  0  0  0  0
 16 21  1  0  0  0  0
 17 18  2  0  0  0  0
 17 46  1  0  0  0  0
 18 19  1  0  0  0  0
 18 47  1  0  0  0  0
 19 20  2  0  0  0  0
 19 48  1  0  0  0  0
 20 21  1  0  0  0  0
 20 49  1  0  0  0  0
 22 23  1  0  0  0  0
 22 50  1  0  0  0  0
 22 51  1  0  0  0  0
 23 24  1  0  0  0  0
 23 38  1  0  0  0  0
 24 25  2  0  0  0  0
 24 26  2  0  0  0  0
 24 27  1  0  0  0  0
 27 28  1  0  0  0  0
 27 52  1  0  0  0  0
 27 53  1  0  0  0  0
 28 29  1  0  0  0  0
 28 31  1  0  0  0  0
 28 37  1  0  0  0  0
 29 30  3  0  0  0  0
 31 32  1  0  0  0  0
 31 54  1  0  0  0  0
 31 55  1  0  0  0  0
 32 33  1  0  0  0  0
 32 56  1  0  0  0  0
 32 57  1  0  0  0  0
 33 34  2  0  0  0  0
 33 35  2  0  0  0  0
 33 36  1  0  0  0  0
 36 37  1  0  0  0  0
 36 58  1  0  0  0  0
 36 59  1  0  0  0  0
 37 60  1  0  0  0  0
 37 61  1  0  0  0  0
 38 62  1  0  0  0  0
 38 63  1  0  0  0  0
M  END
$$$$
