
 OpenBabel07202414133D

 40 41  0  0  1  0  0  0  0  0999 V2000
    0.7468    0.0192   -0.1311 C   0  0  0  0  0  0  0  0  0  0  0  0
    2.2632    0.0899   -0.0483 C   0  0  0  0  0  0  0  0  0  0  0  0
    2.8377   -1.3066    0.2023 C   0  0  0  0  0  0  0  0  0  0  0  0
    4.3789   -1.3734    0.3139 C   0  0  3  0  0  0  0  0  0  0  0  0
    4.8473   -0.4198    1.4181 C   0  0  0  0  0  0  0  0  0  0  0  0
    5.4524    0.6125    1.1366 O   0  0  0  0  0  0  0  0  0  0  0  0
    4.5089   -0.8034    2.6963 N   0  0  0  0  0  0  0  0  0  0  0  0
    4.8561   -0.0174    3.8265 C   0  0  0  0  0  0  0  0  0  0  0  0
    4.5523    1.3427    3.8933 C   0  0  0  0  0  0  0  0  0  0  0  0
    4.8143    2.1272    4.9711 N   0  0  0  0  0  0  0  0  0  0  0  0
    5.4455    1.5333    6.0048 C   0  0  0  0  0  0  0  0  0  0  0  0
    5.8035    0.1921    6.0229 C   0  0  0  0  0  0  0  0  0  0  0  0
    5.5087   -0.6121    4.9141 C   0  0  0  0  0  0  0  0  0  0  0  0
    5.9890   -2.0311    4.8674 C   0  0  0  0  0  0  0  0  0  0  0  0
    4.9226   -2.8002    0.5067 C   0  0  0  0  0  0  0  0  0  0  0  0
    4.0748   -3.9250    0.5582 C   0  0  0  0  0  0  0  0  0  0  0  0
    4.5801   -5.2082    0.7783 C   0  0  0  0  0  0  0  0  0  0  0  0
    5.9468   -5.4017    0.9427 C   0  0  0  0  0  0  0  0  0  0  0  0
    6.8040   -4.3085    0.8573 C   0  0  0  0  0  0  0  0  0  0  0  0
    8.4976   -4.5484    1.0534 Cl  0  0  0  0  0  0  0  0  0  0  0  0
    6.3042   -3.0189    0.6309 C   0  0  0  0  0  0  0  0  0  0  0  0
    0.3213    1.0076   -0.3387 H   0  0  0  0  0  0  0  0  0  0  0  0
    0.3171   -0.3393    0.8120 H   0  0  0  0  0  0  0  0  0  0  0  0
    0.4225   -0.6614   -0.9292 H   0  0  0  0  0  0  0  0  0  0  0  0
    2.5384    0.7775    0.7566 H   0  0  0  0  0  0  0  0  0  0  0  0
    2.6629    0.4968   -0.9832 H   0  0  0  0  0  0  0  0  0  0  0  0
    2.5131   -1.9483   -0.6245 H   0  0  0  0  0  0  0  0  0  0  0  0
    2.3814   -1.7056    1.1206 H   0  0  0  0  0  0  0  0  0  0  0  0
    4.8000   -1.0073   -0.6326 H   0  0  0  0  0  0  0  0  0  0  0  0
    4.4310   -1.8035    2.8464 H   0  0  0  0  0  0  0  0  0  0  0  0
    4.0444    1.8480    3.0816 H   0  0  0  0  0  0  0  0  0  0  0  0
    5.6608    2.1835    6.8478 H   0  0  0  0  0  0  0  0  0  0  0  0
    6.3358   -0.2046    6.8792 H   0  0  0  0  0  0  0  0  0  0  0  0
    6.5761   -2.2878    5.7495 H   0  0  0  0  0  0  0  0  0  0  0  0
    6.6327   -2.1773    3.9960 H   0  0  0  0  0  0  0  0  0  0  0  0
    5.1399   -2.7219    4.8106 H   0  0  0  0  0  0  0  0  0  0  0  0
    2.9975   -3.8383    0.4312 H   0  0  0  0  0  0  0  0  0  0  0  0
    3.9000   -6.0576    0.8196 H   0  0  0  0  0  0  0  0  0  0  0  0
    6.3320   -6.3979    1.1261 H   0  0  0  0  0  0  0  0  0  0  0  0
    7.0003   -2.1860    0.5599 H   0  0  0  0  0  0  0  0  0  0  0  0
  1  2  1  0  0  0  0
  1 22  1  0  0  0  0
  1 23  1  0  0  0  0
  1 24  1  0  0  0  0
  2  3  1  0  0  0  0
  2 25  1  0  0  0  0
  2 26  1  0  0  0  0
  3  4  1  0  0  0  0
  3 27  1  0  0  0  0
  3 28  1  0  0  0  0
  4  5  1  0  0  0  0
  4 15  1  0  0  0  0
  4 29  1  0  0  0  0
  5  6  2  0  0  0  0
  5  7  1  0  0  0  0
  7  8  1  0  0  0  0
  7 30  1  0  0  0  0
  8  9  1  0  0  0  0
  8 13  2  0  0  0  0
  9 10  2  0  0  0  0
  9 31  1  0  0  0  0
 10 11  1  0  0  0  0
 11 12  2  0  0  0  0
 11 32  1  0  0  0  0
 12 13  1  0  0  0  0
 12 33  1  0  0  0  0
 13 14  1  0  0  0  0
 14 34  1  0  0  0  0
 14 35  1  0  0  0  0
 14 36  1  0  0  0  0
 15 16  1  0  0  0  0
 15 21  2  0  0  0  0
 16 17  2  0  0  0  0
 16 37  1  0  0  0  0
 17 18  1  0  0  0  0
 17 38  1  0  0  0  0
 18 19  2  0  0  0  0
 18 39  1  0  0  0  0
 19 20  1  0  0  0  0
 19 21  1  0  0  0  0
 21 40  1  0  0  0  0
M  END
$$$$
