
 OpenBabel07202414123D

 67 70  0  0  1  0  0  0  0  0999 V2000
    0.8715   -0.1084    0.1704 C   0  0  0  0  0  0  0  0  0  0  0  0
    2.4156    0.0336    0.1732 C   0  0  0  0  0  0  0  0  0  0  0  0
    2.9103   -0.1338    1.6217 C   0  0  0  0  0  0  0  0  0  0  0  0
    2.9514   -1.1385   -0.6795 C   0  0  0  0  0  0  0  0  0  0  0  0
    2.8886    1.4003   -0.3541 C   0  0  0  0  0  0  0  0  0  0  0  0
    2.0669    2.5249   -0.2847 C   0  0  0  0  0  0  0  0  0  0  0  0
    2.4592    3.7677   -0.8104 C   0  0  0  0  0  0  0  0  0  0  0  0
    3.7111    3.9884   -1.3988 C   0  0  0  0  0  0  0  0  0  0  0  0
    4.0789    5.2829   -1.9981 N   0  0  0  0  0  0  0  0  0  0  0  0
    5.1379    5.2794   -3.0598 C   0  0  3  0  0  0  0  0  0  0  0  0
    4.4825    5.4394   -4.4719 C   0  0  0  0  0  0  0  0  0  0  0  0
    3.6456    6.2927   -4.7600 O   0  0  0  0  0  0  0  0  0  0  0  0
    4.8367    4.4781   -5.4155 N   0  0  0  0  0  0  0  0  0  0  0  0
    4.2235    4.5044   -6.7384 C   0  0  0  0  0  0  0  0  0  0  0  0
    4.5640    3.2748   -7.5803 C   0  0  0  0  0  0  0  0  0  0  0  0
    3.9186    3.3026   -8.9458 C   0  0  0  0  0  0  0  0  0  0  0  0
    2.6587    2.7188   -9.1567 C   0  0  0  0  0  0  0  0  0  0  0  0
    2.0685    2.7259  -10.4242 C   0  0  0  0  0  0  0  0  0  0  0  0
    2.7267    3.3258  -11.4985 C   0  0  0  0  0  0  0  0  0  0  0  0
    3.9670    3.9148  -11.2860 C   0  0  0  0  0  0  0  0  0  0  0  0
    4.6038    4.4909  -12.3172 F   0  0  0  0  0  0  0  0  0  0  0  0
    4.5649    3.9137  -10.0293 C   0  0  0  0  0  0  0  0  0  0  0  0
    6.4053    6.0730   -2.7612 C   0  0  0  0  0  0  0  0  0  0  0  0
    6.8167    6.3556   -1.4473 C   0  0  0  0  0  0  0  0  0  0  0  0
    8.0291    7.0005   -1.2079 C   0  0  0  0  0  0  0  0  0  0  0  0
    8.8261    7.3191   -2.2915 C   0  0  0  0  0  0  0  0  0  0  0  0
    8.4845    7.0570   -3.5699 N   0  0  0  0  0  0  0  0  0  0  0  0
    7.2811    6.4653   -3.7735 C   0  0  0  0  0  0  0  0  0  0  0  0
    3.3232    6.4639   -1.6982 C   0  0  0  0  0  0  0  0  0  0  0  0
    2.4241    6.4748   -0.8528 O   0  0  0  0  0  0  0  0  0  0  0  0
    3.5515    7.7331   -2.3811 C   0  0  0  0  0  0  0  0  0  0  0  0
    4.6883    8.2497   -2.8043 N   0  0  0  0  0  0  0  0  0  0  0  0
    4.3827    9.4944   -3.2947 C   0  0  0  0  0  0  0  0  0  0  0  0
    3.0404    9.7565   -3.1589 C   0  0  0  0  0  0  0  0  0  0  0  0
    2.5257    8.6320   -2.5841 N   0  0  0  0  0  0  0  0  0  0  0  0
    4.5711    2.8759   -1.3832 C   0  0  0  0  0  0  0  0  0  0  0  0
    4.1677    1.6124   -0.8850 C   0  0  0  0  0  0  0  0  0  0  0  0
    0.5636   -1.1159    0.4752 H   0  0  0  0  0  0  0  0  0  0  0  0
    0.4577    0.0746   -0.8287 H   0  0  0  0  0  0  0  0  0  0  0  0
    0.3885    0.5830    0.8695 H   0  0  0  0  0  0  0  0  0  0  0  0
    2.5639   -1.0810    2.0516 H   0  0  0  0  0  0  0  0  0  0  0  0
    2.5421    0.6748    2.2643 H   0  0  0  0  0  0  0  0  0  0  0  0
    4.0047   -0.1255    1.6762 H   0  0  0  0  0  0  0  0  0  0  0  0
    2.5540   -2.0975   -0.3219 H   0  0  0  0  0  0  0  0  0  0  0  0
    4.0411   -1.2200   -0.6430 H   0  0  0  0  0  0  0  0  0  0  0  0
    2.6540   -1.0311   -1.7297 H   0  0  0  0  0  0  0  0  0  0  0  0
    1.0820    2.4799    0.1724 H   0  0  0  0  0  0  0  0  0  0  0  0
    1.6945    4.5326   -0.7510 H   0  0  0  0  0  0  0  0  0  0  0  0
    5.5456    4.2682   -3.1151 H   0  0  0  0  0  0  0  0  0  0  0  0
    5.5139    3.7590   -5.1940 H   0  0  0  0  0  0  0  0  0  0  0  0
    4.5588    5.4228   -7.2343 H   0  0  0  0  0  0  0  0  0  0  0  0
    3.1372    4.5868   -6.6075 H   0  0  0  0  0  0  0  0  0  0  0  0
    4.2541    2.3638   -7.0520 H   0  0  0  0  0  0  0  0  0  0  0  0
    5.6522    3.1906   -7.6958 H   0  0  0  0  0  0  0  0  0  0  0  0
    2.1266    2.2458   -8.3326 H   0  0  0  0  0  0  0  0  0  0  0  0
    1.0969    2.2625  -10.5770 H   0  0  0  0  0  0  0  0  0  0  0  0
    2.2856    3.3330  -12.4904 H   0  0  0  0  0  0  0  0  0  0  0  0
    5.5348    4.3867   -9.9126 H   0  0  0  0  0  0  0  0  0  0  0  0
    6.1868    6.1020   -0.5976 H   0  0  0  0  0  0  0  0  0  0  0  0
    8.3421    7.2486   -0.1994 H   0  0  0  0  0  0  0  0  0  0  0  0
    9.7880    7.8058   -2.1553 H   0  0  0  0  0  0  0  0  0  0  0  0
    7.0521    6.3090   -4.8243 H   0  0  0  0  0  0  0  0  0  0  0  0
    5.1448   10.1382   -3.7108 H   0  0  0  0  0  0  0  0  0  0  0  0
    2.4286   10.6099   -3.4116 H   0  0  0  0  0  0  0  0  0  0  0  0
    1.5635    8.4549   -2.3291 H   0  0  0  0  0  0  0  0  0  0  0  0
    5.6036    2.9365   -1.7136 H   0  0  0  0  0  0  0  0  0  0  0  0
    4.8946    0.8031   -0.9122 H   0  0  0  0  0  0  0  0  0  0  0  0
  1  2  1  0  0  0  0
  1 38  1  0  0  0  0
  1 39  1  0  0  0  0
  1 40  1  0  0  0  0
  2  3  1  0  0  0  0
  2  4  1  0  0  0  0
  2  5  1  0  0  0  0
  3 41  1  0  0  0  0
  3 42  1  0  0  0  0
  3 43  1  0  0  0  0
  4 44  1  0  0  0  0
  4 45  1  0  0  0  0
  4 46  1  0  0  0  0
  5  6  1  0  0  0  0
  5 37  2  0  0  0  0
  6  7  2  0  0  0  0
  6 47  1  0  0  0  0
  7  8  1  0  0  0  0
  7 48  1  0  0  0  0
  8  9  1  0  0  0  0
  8 36  2  0  0  0  0
  9 10  1  0  0  0  0
  9 29  1  0  0  0  0
 10 11  1  0  0  0  0
 10 23  1  0  0  0  0
 10 49  1  0  0  0  0
 11 12  2  0  0  0  0
 11 13  1  0  0  0  0
 13 14  1  0  0  0  0
 13 50  1  0  0  0  0
 14 15  1  0  0  0  0
 14 51  1  0  0  0  0
 14 52  1  0  0  0  0
 15 16  1  0  0  0  0
 15 53  1  0  0  0  0
 15 54  1  0  0  0  0
 16 17  1  0  0  0  0
 16 22  2  0  0  0  0
 17 18  2  0  0  0  0
 17 55  1  0  0  0  0
 18 19  1  0  0  0  0
 18 56  1  0  0  0  0
 19 20  2  0  0  0  0
 19 57  1  0  0  0  0
 20 21  1  0  0  0  0
 20 22  1  0  0  0  0
 22 58  1  0  0  0  0
 23 24  1  0  0  0  0
 23 28  2  0  0  0  0
 24 25  2  0  0  0  0
 24 59  1  0  0  0  0
 25 26  1  0  0  0  0
 25 60  1  0  0  0  0
 26 27  2  0  0  0  0
 26 61  1  0  0  0  0
 27 28  1  0  0  0  0
 28 62  1  0  0  0  0
 29 30  2  0  0  0  0
 29 31  1  0  0  0  0
 31 32  2  0  0  0  0
 31 35  1  0  0  0  0
 32 33  1  0  0  0  0
 33 34  2  0  0  0  0
 33 63  1  0  0  0  0
 34 35  1  0  0  0  0
 34 64  1  0  0  0  0
 35 65  1  0  0  0  0
 36 37  1  0  0  0  0
 36 66  1  0  0  0  0
 37 67  1  0  0  0  0
M  END
$$$$
