
 OpenBabel07202414153D

 50 53  0  0  1  0  0  0  0  0999 V2000
    1.1834    0.4057    0.7267 C   0  0  0  0  0  0  0  0  0  0  0  0
    2.5373    0.1676    0.3401 O   0  0  0  0  0  0  0  0  0  0  0  0
    2.9591    1.1880   -0.5574 C   0  0  0  0  0  0  0  0  0  0  0  0
    4.4335    1.0389   -0.9750 C   0  0  0  0  0  0  0  0  0  0  0  0
    4.8005    2.0627   -1.9779 N   0  0  0  0  0  0  0  0  0  0  0  0
    6.1700    1.8722   -2.5078 C   0  0  0  0  0  0  0  0  0  0  0  0
    6.3901    2.7710   -3.7540 C   0  0  3  0  0  0  0  0  0  0  0  0
    5.5994    2.2082   -4.9645 C   0  0  0  0  0  0  0  0  0  0  0  0
    6.1586    1.8708   -6.0089 O   0  0  0  0  0  0  0  0  0  0  0  0
    4.2402    2.1550   -4.7196 N   0  0  0  0  0  0  0  0  0  0  0  0
    3.1919    1.5845   -5.4695 C   0  0  0  0  0  0  0  0  0  0  0  0
    3.4067    0.7940   -6.5912 C   0  0  0  0  0  0  0  0  0  0  0  0
    2.4554    0.0082   -7.1491 N   0  0  0  0  0  0  0  0  0  0  0  0
    1.2101    0.1060   -6.6357 C   0  0  0  0  0  0  0  0  0  0  0  0
    0.8293    1.0340   -5.6676 C   0  0  0  0  0  0  0  0  0  0  0  0
   -0.5249    1.2702   -5.3603 C   0  0  0  0  0  0  0  0  0  0  0  0
   -0.8840    2.2484   -4.4345 C   0  0  0  0  0  0  0  0  0  0  0  0
    0.1040    2.9390   -3.7458 C   0  0  0  0  0  0  0  0  0  0  0  0
    1.4506    2.6923   -4.0265 C   0  0  0  0  0  0  0  0  0  0  0  0
    1.8497    1.7694   -5.0288 C   0  0  0  0  0  0  0  0  0  0  0  0
    6.0051    4.2165   -3.4451 C   0  0  0  0  0  0  0  0  0  0  0  0
    6.4778    5.2745   -4.2326 C   0  0  0  0  0  0  0  0  0  0  0  0
    6.0574    6.5822   -3.9738 C   0  0  0  0  0  0  0  0  0  0  0  0
    6.6677    7.8829   -4.9201 Cl  0  0  0  0  0  0  0  0  0  0  0  0
    5.1512    6.8535   -2.9515 C   0  0  0  0  0  0  0  0  0  0  0  0
    4.6874    5.8142   -2.1536 C   0  0  0  0  0  0  0  0  0  0  0  0
    5.1205    4.4990   -2.3831 C   0  0  0  0  0  0  0  0  0  0  0  0
    4.6582    3.4215   -1.4330 C   0  0  0  0  0  0  0  0  0  0  0  0
    0.8685   -0.3683    1.4280 H   0  0  0  0  0  0  0  0  0  0  0  0
    0.5282    0.3744   -0.1483 H   0  0  0  0  0  0  0  0  0  0  0  0
    1.0912    1.3814    1.2178 H   0  0  0  0  0  0  0  0  0  0  0  0
    2.8139    2.1447   -0.0471 H   0  0  0  0  0  0  0  0  0  0  0  0
    2.3247    1.1596   -1.4503 H   0  0  0  0  0  0  0  0  0  0  0  0
    4.5691    0.0346   -1.3969 H   0  0  0  0  0  0  0  0  0  0  0  0
    5.0823    1.0882   -0.0905 H   0  0  0  0  0  0  0  0  0  0  0  0
    6.3309    0.8244   -2.7906 H   0  0  0  0  0  0  0  0  0  0  0  0
    6.9116    2.1174   -1.7345 H   0  0  0  0  0  0  0  0  0  0  0  0
    7.4571    2.7362   -4.0099 H   0  0  0  0  0  0  0  0  0  0  0  0
    3.9938    2.3919   -3.7618 H   0  0  0  0  0  0  0  0  0  0  0  0
    4.3753    0.7306   -7.0752 H   0  0  0  0  0  0  0  0  0  0  0  0
    0.4952   -0.5978   -7.0553 H   0  0  0  0  0  0  0  0  0  0  0  0
   -1.3104    0.7384   -5.8940 H   0  0  0  0  0  0  0  0  0  0  0  0
   -1.9324    2.4851   -4.2684 H   0  0  0  0  0  0  0  0  0  0  0  0
   -0.1683    3.6978   -3.0162 H   0  0  0  0  0  0  0  0  0  0  0  0
    2.1845    3.2894   -3.4929 H   0  0  0  0  0  0  0  0  0  0  0  0
    7.1751    5.0849   -5.0457 H   0  0  0  0  0  0  0  0  0  0  0  0
    4.8083    7.8676   -2.7648 H   0  0  0  0  0  0  0  0  0  0  0  0
    3.9877    6.0314   -1.3476 H   0  0  0  0  0  0  0  0  0  0  0  0
    3.5957    3.6166   -1.2525 H   0  0  0  0  0  0  0  0  0  0  0  0
    5.2009    3.5286   -0.4859 H   0  0  0  0  0  0  0  0  0  0  0  0
  1  2  1  0  0  0  0
  1 29  1  0  0  0  0
  1 30  1  0  0  0  0
  1 31  1  0  0  0  0
  2  3  1  0  0  0  0
  3  4  1  0  0  0  0
  3 32  1  0  0  0  0
  3 33  1  0  0  0  0
  4  5  1  0  0  0  0
  4 34  1  0  0  0  0
  4 35  1  0  0  0  0
  5  6  1  0  0  0  0
  5 28  1  0  0  0  0
  6  7  1  0  0  0  0
  6 36  1  0  0  0  0
  6 37  1  0  0  0  0
  7  8  1  0  0  0  0
  7 21  1  0  0  0  0
  7 38  1  0  0  0  0
  8  9  2  0  0  0  0
  8 10  1  0  0  0  0
 10 11  1  0  0  0  0
 10 39  1  0  0  0  0
 11 12  1  0  0  0  0
 11 20  2  0  0  0  0
 12 13  2  0  0  0  0
 12 40  1  0  0  0  0
 13 14  1  0  0  0  0
 14 15  2  0  0  0  0
 14 41  1  0  0  0  0
 15 16  1  0  0  0  0
 15 20  1  0  0  0  0
 16 17  2  0  0  0  0
 16 42  1  0  0  0  0
 17 18  1  0  0  0  0
 17 43  1  0  0  0  0
 18 19  2  0  0  0  0
 18 44  1  0  0  0  0
 19 20  1  0  0  0  0
 19 45  1  0  0  0  0
 21 22  1  0  0  0  0
 21 27  2  0  0  0  0
 22 23  2  0  0  0  0
 22 46  1  0  0  0  0
 23 24  1  0  0  0  0
 23 25  1  0  0  0  0
 25 26  2  0  0  0  0
 25 47  1  0  0  0  0
 26 27  1  0  0  0  0
 26 48  1  0  0  0  0
 27 28  1  0  0  0  0
 28 49  1  0  0  0  0
 28 50  1  0  0  0  0
M  END
$$$$
