
 OpenBabel07202414123D

 58 61  0  0  1  0  0  0  0  0999 V2000
    4.5251   -1.5121    0.9877 C   0  0  0  0  0  0  0  0  0  0  0  0
    3.4243   -1.2721   -0.0358 C   0  0  3  0  0  0  0  0  0  0  0  0
    2.5252   -0.2150    0.4216 N   0  0  0  0  0  0  0  0  0  0  0  0
    1.2100   -0.1728   -0.0008 C   0  0  0  0  0  0  0  0  0  0  0  0
    0.7486   -1.0231   -0.7622 O   0  0  0  0  0  0  0  0  0  0  0  0
    0.4123    1.0298    0.5557 C   0  0  0  0  0  0  0  0  0  0  0  0
   -0.7864    1.5505   -0.2885 C   0  0  0  0  0  0  0  0  0  0  0  0
   -0.4203    2.9666    0.1941 C   0  0  0  0  0  0  0  0  0  0  0  0
    1.0187    2.4498    0.3734 C   0  0  0  0  0  0  0  0  0  0  0  0
    4.0356   -0.9284   -1.4082 C   0  0  0  0  0  0  0  0  0  0  0  0
    4.3671   -1.8051   -2.2047 O   0  0  0  0  0  0  0  0  0  0  0  0
    4.3373    0.3986   -1.6220 N   0  0  0  0  0  0  0  0  0  0  0  0
    4.8713    0.8696   -2.8950 C   0  0  3  0  0  0  0  0  0  0  0  0
    4.3358    2.3008   -3.1556 C   0  0  0  0  0  0  0  0  0  0  0  0
    4.1715    3.1058   -2.2354 O   0  0  0  0  0  0  0  0  0  0  0  0
    4.0597    2.5735   -4.4892 N   0  0  0  0  0  0  0  0  0  0  0  0
    3.6245    3.8461   -4.9373 C   0  0  0  0  0  0  0  0  0  0  0  0
    4.2735    5.0105   -4.5207 C   0  0  0  0  0  0  0  0  0  0  0  0
    3.9636    6.2542   -4.9511 N   0  0  0  0  0  0  0  0  0  0  0  0
    2.9336    6.3463   -5.8204 C   0  0  0  0  0  0  0  0  0  0  0  0
    2.1908    5.2606   -6.2899 C   0  0  0  0  0  0  0  0  0  0  0  0
    1.1025    5.4419   -7.1645 C   0  0  0  0  0  0  0  0  0  0  0  0
    0.3465    4.3511   -7.5916 C   0  0  0  0  0  0  0  0  0  0  0  0
    0.6715    3.0731   -7.1545 C   0  0  0  0  0  0  0  0  0  0  0  0
    1.7591    2.8810   -6.2996 C   0  0  0  0  0  0  0  0  0  0  0  0
    2.5493    3.9664   -5.8512 C   0  0  0  0  0  0  0  0  0  0  0  0
    6.3923    0.8174   -2.9084 C   0  0  0  0  0  0  0  0  0  0  0  0
    7.1886    1.8962   -2.4863 C   0  0  0  0  0  0  0  0  0  0  0  0
    8.5824    1.8260   -2.5422 C   0  0  0  0  0  0  0  0  0  0  0  0
    9.2050    0.6620   -2.9891 C   0  0  0  0  0  0  0  0  0  0  0  0
    8.4309   -0.4293   -3.3727 C   0  0  0  0  0  0  0  0  0  0  0  0
    9.1981   -1.8774   -3.8975 Cl  0  0  0  0  0  0  0  0  0  0  0  0
    7.0382   -0.3564   -3.3356 C   0  0  0  0  0  0  0  0  0  0  0  0
    4.0978   -1.8009    1.9547 H   0  0  0  0  0  0  0  0  0  0  0  0
    5.1305   -0.6132    1.1469 H   0  0  0  0  0  0  0  0  0  0  0  0
    5.1965   -2.3128    0.6600 H   0  0  0  0  0  0  0  0  0  0  0  0
    2.8380   -2.1907   -0.1642 H   0  0  0  0  0  0  0  0  0  0  0  0
    2.8751    0.5077    1.0374 H   0  0  0  0  0  0  0  0  0  0  0  0
    0.1122    0.8421    1.5979 H   0  0  0  0  0  0  0  0  0  0  0  0
   -1.7735    1.1906    0.0132 H   0  0  0  0  0  0  0  0  0  0  0  0
   -0.6727    1.4099   -1.3702 H   0  0  0  0  0  0  0  0  0  0  0  0
   -0.9062    3.2508    1.1346 H   0  0  0  0  0  0  0  0  0  0  0  0
   -0.5515    3.7695   -0.5348 H   0  0  0  0  0  0  0  0  0  0  0  0
    1.5610    2.8471    1.2350 H   0  0  0  0  0  0  0  0  0  0  0  0
    1.6423    2.5590   -0.5221 H   0  0  0  0  0  0  0  0  0  0  0  0
    3.9847    1.0975   -0.9792 H   0  0  0  0  0  0  0  0  0  0  0  0
    4.4827    0.2208   -3.6904 H   0  0  0  0  0  0  0  0  0  0  0  0
    3.8505    1.7818   -5.0848 H   0  0  0  0  0  0  0  0  0  0  0  0
    5.1213    4.9746   -3.8421 H   0  0  0  0  0  0  0  0  0  0  0  0
    2.7013    7.3636   -6.1294 H   0  0  0  0  0  0  0  0  0  0  0  0
    0.8223    6.4383   -7.5002 H   0  0  0  0  0  0  0  0  0  0  0  0
   -0.5055    4.5019   -8.2493 H   0  0  0  0  0  0  0  0  0  0  0  0
    0.0701    2.2223   -7.4658 H   0  0  0  0  0  0  0  0  0  0  0  0
    1.9491    1.8679   -5.9567 H   0  0  0  0  0  0  0  0  0  0  0  0
    6.7403    2.8170   -2.1148 H   0  0  0  0  0  0  0  0  0  0  0  0
    9.1830    2.6776   -2.2318 H   0  0  0  0  0  0  0  0  0  0  0  0
   10.2898    0.6092   -3.0289 H   0  0  0  0  0  0  0  0  0  0  0  0
    6.4516   -1.2247   -3.6336 H   0  0  0  0  0  0  0  0  0  0  0  0
  1  2  1  0  0  0  0
  1 34  1  0  0  0  0
  1 35  1  0  0  0  0
  1 36  1  0  0  0  0
  2  3  1  0  0  0  0
  2 10  1  0  0  0  0
  2 37  1  0  0  0  0
  3  4  1  0  0  0  0
  3 38  1  0  0  0  0
  4  5  2  0  0  0  0
  4  6  1  0  0  0  0
  6  7  1  0  0  0  0
  6  9  1  0  0  0  0
  6 39  1  0  0  0  0
  7  8  1  0  0  0  0
  7 40  1  0  0  0  0
  7 41  1  0  0  0  0
  8  9  1  0  0  0  0
  8 42  1  0  0  0  0
  8 43  1  0  0  0  0
  9 44  1  0  0  0  0
  9 45  1  0  0  0  0
 10 11  2  0  0  0  0
 10 12  1  0  0  0  0
 12 13  1  0  0  0  0
 12 46  1  0  0  0  0
 13 14  1  0  0  0  0
 13 27  1  0  0  0  0
 13 47  1  0  0  0  0
 14 15  2  0  0  0  0
 14 16  1  0  0  0  0
 16 17  1  0  0  0  0
 16 48  1  0  0  0  0
 17 18  1  0  0  0  0
 17 26  2  0  0  0  0
 18 19  2  0  0  0  0
 18 49  1  0  0  0  0
 19 20  1  0  0  0  0
 20 21  2  0  0  0  0
 20 50  1  0  0  0  0
 21 22  1  0  0  0  0
 21 26  1  0  0  0  0
 22 23  2  0  0  0  0
 22 51  1  0  0  0  0
 23 24  1  0  0  0  0
 23 52  1  0  0  0  0
 24 25  2  0  0  0  0
 24 53  1  0  0  0  0
 25 26  1  0  0  0  0
 25 54  1  0  0  0  0
 27 28  1  0  0  0  0
 27 33  2  0  0  0  0
 28 29  2  0  0  0  0
 28 55  1  0  0  0  0
 29 30  1  0  0  0  0
 29 56  1  0  0  0  0
 30 31  2  0  0  0  0
 30 57  1  0  0  0  0
 31 32  1  0  0  0  0
 31 33  1  0  0  0  0
 33 58  1  0  0  0  0
M  END
$$$$
