
 OpenBabel07202414183D

 46 49  0  0  0  0  0  0  0  0999 V2000
    7.8876    5.0427    2.0807 F   0  0  0  0  0  0  0  0  0  0  0  0
    7.5565    3.8534    1.5572 C   0  0  0  0  0  0  0  0  0  0  0  0
    8.5399    3.0280    1.0346 C   0  0  0  0  0  0  0  0  0  0  0  0
   10.1990    3.4857    1.0489 Cl  0  0  0  0  0  0  0  0  0  0  0  0
    8.1795    1.8040    0.4862 C   0  0  0  0  0  0  0  0  0  0  0  0
    6.8418    1.3739    0.4648 C   0  0  0  0  0  0  0  0  0  0  0  0
    6.4874    0.1350   -0.0807 N   0  0  0  0  0  0  0  0  0  0  0  0
    7.3055   -0.9987   -0.0992 C   0  0  0  0  0  0  0  0  0  0  0  0
    7.1750   -1.9270   -1.1465 C   0  0  0  0  0  0  0  0  0  0  0  0
    7.8807   -3.0968   -1.1286 C   0  0  0  0  0  0  0  0  0  0  0  0
    7.7611   -4.2857   -2.3589 Cl  0  0  0  0  0  0  0  0  0  0  0  0
    8.7253   -3.3220   -0.0787 C   0  0  0  0  0  0  0  0  0  0  0  0
    8.9069   -2.4256    0.9791 C   0  0  0  0  0  0  0  0  0  0  0  0
    9.8708   -2.7146    2.0884 C   0  0  0  0  0  0  0  0  0  0  0  0
    9.1924   -2.7737    3.4590 C   0  0  0  0  0  0  0  0  0  0  0  0
    8.5552   -1.8984    4.0399 O   0  0  0  0  0  0  0  0  0  0  0  0
    9.4802   -3.8454    4.2212 N   0  0  0  0  0  0  0  0  0  0  0  0
    8.9436   -3.6430    5.5137 C   0  0  0  0  0  0  0  0  0  0  0  0
   10.0875   -3.6934    6.3507 C   0  0  0  0  0  0  0  0  0  0  0  0
    9.3358   -4.6316    6.7238 N   0  0  0  0  0  0  0  0  0  0  0  0
    8.5822   -5.6009    7.1238 C   0  0  0  0  0  0  0  0  0  0  0  0
    7.4613   -5.4560    6.3899 C   0  0  0  0  0  0  0  0  0  0  0  0
    6.4772   -6.3621    6.7166 C   0  0  0  0  0  0  0  0  0  0  0  0
    5.1731   -6.2214    6.2969 C   0  0  0  0  0  0  0  0  0  0  0  0
    4.9526   -5.5827    5.1030 C   0  0  0  0  0  0  0  0  0  0  0  0
    6.0319   -4.7809    4.5953 C   0  0  0  0  0  0  0  0  0  0  0  0
    7.4101   -4.4733    5.3933 C   0  0  0  0  0  0  0  0  0  0  0  0
    8.1726   -1.2495    0.9677 C   0  0  0  0  0  0  0  0  0  0  0  0
    5.8669    2.2112    0.9939 C   0  0  0  0  0  0  0  0  0  0  0  0
    6.2240    3.4467    1.5336 C   0  0  0  0  0  0  0  0  0  0  0  0
    4.9817    4.4530    2.1696 Cl  0  0  0  0  0  0  0  0  0  0  0  0
    8.9570    1.1744    0.0631 H   0  0  0  0  0  0  0  0  0  0  0  0
    5.5869    0.0357   -0.5357 H   0  0  0  0  0  0  0  0  0  0  0  0
    6.4899   -1.7522   -1.9646 H   0  0  0  0  0  0  0  0  0  0  0  0
    9.2292   -4.2630   -0.1677 H   0  0  0  0  0  0  0  0  0  0  0  0
   10.6753   -1.9577    2.0537 H   0  0  0  0  0  0  0  0  0  0  0  0
   10.3441   -3.6880    1.9214 H   0  0  0  0  0  0  0  0  0  0  0  0
   10.4499   -4.0284    4.4567 H   0  0  0  0  0  0  0  0  0  0  0  0
   10.8752   -3.8445    7.1086 H   0  0  0  0  0  0  0  0  0  0  0  0
    8.9237   -6.1103    7.9623 H   0  0  0  0  0  0  0  0  0  0  0  0
    6.7633   -7.1772    7.3649 H   0  0  0  0  0  0  0  0  0  0  0  0
    4.3790   -6.6018    6.9326 H   0  0  0  0  0  0  0  0  0  0  0  0
    3.9610   -5.7003    4.6396 H   0  0  0  0  0  0  0  0  0  0  0  0
    5.7570   -4.3429    3.6146 H   0  0  0  0  0  0  0  0  0  0  0  0
    8.2508   -0.5535    1.8008 H   0  0  0  0  0  0  0  0  0  0  0  0
    4.8252    1.9083    0.9841 H   0  0  0  0  0  0  0  0  0  0  0  0
  1  2  1  0  0  0  0
  2  3  2  0  0  0  0
  2 30  1  0  0  0  0
  3  4  1  0  0  0  0
  3  5  1  0  0  0  0
  5  6  2  0  0  0  0
  5 32  1  0  0  0  0
  6  7  1  0  0  0  0
  6 29  1  0  0  0  0
  7  8  1  0  0  0  0
  7 33  1  0  0  0  0
  8  9  2  0  0  0  0
  8 28  1  0  0  0  0
  9 10  1  0  0  0  0
  9 34  1  0  0  0  0
 10 11  1  0  0  0  0
 10 12  2  0  0  0  0
 12 13  1  0  0  0  0
 12 35  1  0  0  0  0
 13 14  1  0  0  0  0
 13 28  2  0  0  0  0
 14 15  1  0  0  0  0
 14 36  1  0  0  0  0
 14 37  1  0  0  0  0
 15 16  2  0  0  0  0
 15 17  1  0  0  0  0
 17 18  1  0  0  0  0
 17 38  1  0  0  0  0
 18 19  2  0  0  0  0
 18 27  1  0  0  0  0
 19 20  1  0  0  0  0
 19 39  1  0  0  0  0
 20 21  2  0  0  0  0
 21 22  1  0  0  0  0
 21 40  1  0  0  0  0
 22 23  2  0  0  0  0
 22 27  1  0  0  0  0
 23 24  1  0  0  0  0
 23 41  1  0  0  0  0
 24 25  2  0  0  0  0
 24 42  1  0  0  0  0
 25 26  1  0  0  0  0
 25 43  1  0  0  0  0
 26 27  2  0  0  0  0
 26 44  1  0  0  0  0
 28 45  1  0  0  0  0
 29 30  2  0  0  0  0
 29 46  1  0  0  0  0
 30 31  1  0  0  0  0
M  END
$$$$
