
 OpenBabel07202414203D

 66 71  0  0  1  0  0  0  0  0999 V2000
    0.9011   -0.5551    1.2800 O   0  0  0  0  0  0  0  0  0  0  0  0
    1.9706    0.0558    0.5681 C   0  0  0  0  0  0  0  0  0  0  0  0
    2.6948    1.0247    1.4889 C   0  0  0  0  0  0  0  0  0  0  0  0
    3.7555    1.6592    0.7779 O   0  0  0  0  0  0  0  0  0  0  0  0
    4.5229    2.5210    1.5158 C   0  0  0  0  0  0  0  0  0  0  0  0
    4.3044    2.8673    2.8453 C   0  0  0  0  0  0  0  0  0  0  0  0
    5.1994    3.7043    3.5051 C   0  0  0  0  0  0  0  0  0  0  0  0
    6.3225    4.2086    2.8395 C   0  0  0  0  0  0  0  0  0  0  0  0
    7.2685    4.9647    3.5297 C   0  0  0  0  0  0  0  0  0  0  0  0
    8.4139    5.4193    2.9925 N   0  0  0  0  0  0  0  0  0  0  0  0
    8.6090    5.1272    1.6882 C   0  0  0  0  0  0  0  0  0  0  0  0
    7.6998    4.4456    0.8644 C   0  0  0  0  0  0  0  0  0  0  0  0
    8.0209    4.3840   -0.5065 N   0  0  0  0  0  0  0  0  0  0  0  0
    7.1681    4.5272   -1.6401 C   0  0  0  0  0  0  0  0  0  0  0  0
    8.1401    4.7564   -2.8125 C   0  0  0  0  0  0  0  0  0  0  0  0
    9.5730    4.4638   -2.2537 C   0  0  3  0  0  0  0  0  0  0  0  0
   10.3377    3.4589   -3.1335 C   0  0  0  0  0  0  0  0  0  0  0  0
   11.8142    3.4486   -2.9324 N   0  0  0  0  0  0  0  0  0  0  0  0
   12.5477    2.7457   -1.5593 S   0  0  0  0  0  0  0  0  0  0  0  0
   13.9584    2.7185   -1.8763 O   0  0  0  0  0  0  0  0  0  0  0  0
   12.1179    3.4817   -0.3910 O   0  0  0  0  0  0  0  0  0  0  0  0
   11.9583    1.0428   -1.5542 C   0  0  0  0  0  0  0  0  0  0  0  0
   12.4094    0.4054   -0.2562 C   0  0  0  0  0  0  0  0  0  0  0  0
   13.8298    0.4186    0.0150 C   0  0  0  0  0  0  0  0  0  0  0  0
   14.9679    0.3704    0.2519 N   0  0  0  0  0  0  0  0  0  0  0  0
   11.4685    0.3547    0.9349 C   0  0  0  0  0  0  0  0  0  0  0  0
   11.7129   -0.8943    0.1453 C   0  0  0  0  0  0  0  0  0  0  0  0
   12.3873    4.7800   -3.2461 C   0  0  0  0  0  0  0  0  0  0  0  0
   11.6895    5.9052   -2.5179 C   0  0  0  0  0  0  0  0  0  0  0  0
   12.3978    7.1079   -2.3281 C   0  0  0  0  0  0  0  0  0  0  0  0
   11.8103    8.1878   -1.6750 C   0  0  0  0  0  0  0  0  0  0  0  0
   10.5056    8.0766   -1.2184 C   0  0  0  0  0  0  0  0  0  0  0  0
    9.7627    9.4054   -0.4165 Cl  0  0  0  0  0  0  0  0  0  0  0  0
    9.7855    6.8949   -1.4085 C   0  0  0  0  0  0  0  0  0  0  0  0
   10.3592    5.7798   -2.0561 C   0  0  0  0  0  0  0  0  0  0  0  0
    9.1912    3.7881   -0.9435 C   0  0  0  0  0  0  0  0  0  0  0  0
    9.6486    2.7652   -0.4591 O   0  0  0  0  0  0  0  0  0  0  0  0
    6.5352    3.9248    1.4690 C   0  0  0  0  0  0  0  0  0  0  0  0
    5.6213    3.0557    0.8372 C   0  0  0  0  0  0  0  0  0  0  0  0
    0.4673   -1.1747    0.6716 H   0  0  0  0  0  0  0  0  0  0  0  0
    1.5700    0.5809   -0.3051 H   0  0  0  0  0  0  0  0  0  0  0  0
    2.6557   -0.7198    0.2099 H   0  0  0  0  0  0  0  0  0  0  0  0
    3.0855    0.4657    2.3490 H   0  0  0  0  0  0  0  0  0  0  0  0
    1.9778    1.7736    1.8472 H   0  0  0  0  0  0  0  0  0  0  0  0
    3.4641    2.4824    3.4131 H   0  0  0  0  0  0  0  0  0  0  0  0
    5.0290    3.9308    4.5557 H   0  0  0  0  0  0  0  0  0  0  0  0
    7.1409    5.2088    4.5818 H   0  0  0  0  0  0  0  0  0  0  0  0
    9.5428    5.5231    1.2920 H   0  0  0  0  0  0  0  0  0  0  0  0
    6.4408    5.3326   -1.5165 H   0  0  0  0  0  0  0  0  0  0  0  0
    6.6520    3.5796   -1.8250 H   0  0  0  0  0  0  0  0  0  0  0  0
    8.0375    5.7789   -3.1955 H   0  0  0  0  0  0  0  0  0  0  0  0
    7.8762    4.0931   -3.6452 H   0  0  0  0  0  0  0  0  0  0  0  0
   10.1852    3.7328   -4.1880 H   0  0  0  0  0  0  0  0  0  0  0  0
    9.9372    2.4421   -3.0574 H   0  0  0  0  0  0  0  0  0  0  0  0
   12.4112    0.5453   -2.4167 H   0  0  0  0  0  0  0  0  0  0  0  0
   10.8739    1.0176   -1.6564 H   0  0  0  0  0  0  0  0  0  0  0  0
   10.4908    0.8164    0.8610 H   0  0  0  0  0  0  0  0  0  0  0  0
   11.8930    0.4252    1.9320 H   0  0  0  0  0  0  0  0  0  0  0  0
   10.8992   -1.2720   -0.4639 H   0  0  0  0  0  0  0  0  0  0  0  0
   12.3001   -1.6795    0.6118 H   0  0  0  0  0  0  0  0  0  0  0  0
   12.3000    4.9484   -4.3271 H   0  0  0  0  0  0  0  0  0  0  0  0
   13.4604    4.8014   -3.0291 H   0  0  0  0  0  0  0  0  0  0  0  0
   13.4255    7.2014   -2.6768 H   0  0  0  0  0  0  0  0  0  0  0  0
   12.3752    9.1034   -1.5229 H   0  0  0  0  0  0  0  0  0  0  0  0
    8.7660    6.8635   -1.0350 H   0  0  0  0  0  0  0  0  0  0  0  0
    5.7891    2.7154   -0.1770 H   0  0  0  0  0  0  0  0  0  0  0  0
  1  2  1  0  0  0  0
  1 40  1  0  0  0  0
  2  3  1  0  0  0  0
  2 41  1  0  0  0  0
  2 42  1  0  0  0  0
  3  4  1  0  0  0  0
  3 43  1  0  0  0  0
  3 44  1  0  0  0  0
  4  5  1  0  0  0  0
  5  6  1  0  0  0  0
  5 39  2  0  0  0  0
  6  7  2  0  0  0  0
  6 45  1  0  0  0  0
  7  8  1  0  0  0  0
  7 46  1  0  0  0  0
  8  9  1  0  0  0  0
  8 38  2  0  0  0  0
  9 10  2  0  0  0  0
  9 47  1  0  0  0  0
 10 11  1  0  0  0  0
 11 12  2  0  0  0  0
 11 48  1  0  0  0  0
 12 13  1  0  0  0  0
 12 38  1  0  0  0  0
 13 14  1  0  0  0  0
 13 36  1  0  0  0  0
 14 15  1  0  0  0  0
 14 49  1  0  0  0  0
 14 50  1  0  0  0  0
 15 16  1  0  0  0  0
 15 51  1  0  0  0  0
 15 52  1  0  0  0  0
 16 17  1  0  0  0  0
 16 35  1  0  0  0  0
 16 36  1  0  0  0  0
 17 18  1  0  0  0  0
 17 53  1  0  0  0  0
 17 54  1  0  0  0  0
 18 19  1  0  0  0  0
 18 28  1  0  0  0  0
 19 20  2  0  0  0  0
 19 21  2  0  0  0  0
 19 22  1  0  0  0  0
 22 23  1  0  0  0  0
 22 55  1  0  0  0  0
 22 56  1  0  0  0  0
 23 24  1  0  0  0  0
 23 26  1  0  0  0  0
 23 27  1  0  0  0  0
 24 25  3  0  0  0  0
 26 27  1  0  0  0  0
 26 57  1  0  0  0  0
 26 58  1  0  0  0  0
 27 59  1  0  0  0  0
 27 60  1  0  0  0  0
 28 29  1  0  0  0  0
 28 61  1  0  0  0  0
 28 62  1  0  0  0  0
 29 30  1  0  0  0  0
 29 35  2  0  0  0  0
 30 31  2  0  0  0  0
 30 63  1  0  0  0  0
 31 32  1  0  0  0  0
 31 64  1  0  0  0  0
 32 33  1  0  0  0  0
 32 34  2  0  0  0  0
 34 35  1  0  0  0  0
 34 65  1  0  0  0  0
 36 37  2  0  0  0  0
 38 39  1  0  0  0  0
 39 66  1  0  0  0  0
M  END
$$$$
