
 OpenBabel07202414153D

 41 43  0  0  1  0  0  0  0  0999 V2000
    1.4399    0.9886   -0.6370 C   0  0  0  0  0  0  0  0  0  0  0  0
    2.3872    0.0949   -0.0619 O   0  0  0  0  0  0  0  0  0  0  0  0
    3.0742   -0.7116   -0.9297 C   0  0  0  0  0  0  0  0  0  0  0  0
    3.2941   -0.3441   -2.2668 C   0  0  0  0  0  0  0  0  0  0  0  0
    4.0112   -1.1632   -3.1373 C   0  0  0  0  0  0  0  0  0  0  0  0
    4.5647   -2.3607   -2.6883 C   0  0  0  0  0  0  0  0  0  0  0  0
    5.3252   -3.2984   -3.6056 C   0  0  3  0  0  0  0  0  0  0  0  0
    4.3720   -4.3090   -4.2313 C   0  0  0  0  0  0  0  0  0  0  0  0
    4.5833   -4.0312   -5.6935 C   0  0  0  0  0  0  0  0  0  0  0  0
    3.8541   -4.7095   -6.7404 C   0  0  0  0  0  0  0  0  0  0  0  0
    4.0155   -4.5791   -8.1082 C   0  0  0  0  0  0  0  0  0  0  0  0
    3.0925   -5.3760   -8.8474 C   0  0  0  0  0  0  0  0  0  0  0  0
    2.2597   -6.0946   -8.0221 C   0  0  0  0  0  0  0  0  0  0  0  0
    2.6036   -5.8212   -6.3722 S   0  0  0  0  0  0  0  0  0  0  0  0
    5.4800   -3.1287   -5.9643 N   0  0  0  0  0  0  0  0  0  0  0  0
    5.9542   -2.6636   -4.7652 N   0  0  0  0  0  0  0  0  0  0  0  0
    7.0198   -1.7729   -4.6852 C   0  0  0  0  0  0  0  0  0  0  0  0
    7.4828   -1.4042   -3.6064 O   0  0  0  0  0  0  0  0  0  0  0  0
    7.5494   -1.3231   -6.0388 C   0  0  0  0  0  0  0  0  0  0  0  0
    8.8282   -0.1005   -5.8742 Cl  0  0  0  0  0  0  0  0  0  0  0  0
    4.3503   -2.7277   -1.3463 C   0  0  0  0  0  0  0  0  0  0  0  0
    3.6095   -1.9187   -0.4629 C   0  0  0  0  0  0  0  0  0  0  0  0
    3.5040   -2.4869    0.7799 O   0  0  0  0  0  0  0  0  0  0  0  0
    2.8123   -1.7835    1.8001 C   0  0  0  0  0  0  0  0  0  0  0  0
    0.8442    1.4131    0.1771 H   0  0  0  0  0  0  0  0  0  0  0  0
    0.7558    0.4619   -1.3133 H   0  0  0  0  0  0  0  0  0  0  0  0
    1.9384    1.8184   -1.1452 H   0  0  0  0  0  0  0  0  0  0  0  0
    2.9241    0.5959   -2.6656 H   0  0  0  0  0  0  0  0  0  0  0  0
    4.1430   -0.8389   -4.1693 H   0  0  0  0  0  0  0  0  0  0  0  0
    6.1206   -3.7973   -3.0378 H   0  0  0  0  0  0  0  0  0  0  0  0
    3.3215   -4.1571   -3.9601 H   0  0  0  0  0  0  0  0  0  0  0  0
    4.6643   -5.3382   -3.9976 H   0  0  0  0  0  0  0  0  0  0  0  0
    4.7579   -3.9306   -8.5595 H   0  0  0  0  0  0  0  0  0  0  0  0
    3.0400   -5.4139   -9.9288 H   0  0  0  0  0  0  0  0  0  0  0  0
    1.4656   -6.7711   -8.3073 H   0  0  0  0  0  0  0  0  0  0  0  0
    6.7468   -0.8790   -6.6323 H   0  0  0  0  0  0  0  0  0  0  0  0
    7.9779   -2.1810   -6.5651 H   0  0  0  0  0  0  0  0  0  0  0  0
    4.7613   -3.6615   -0.9687 H   0  0  0  0  0  0  0  0  0  0  0  0
    2.7904   -2.4248    2.6869 H   0  0  0  0  0  0  0  0  0  0  0  0
    1.7703   -1.5919    1.5258 H   0  0  0  0  0  0  0  0  0  0  0  0
    3.3437   -0.8658    2.0739 H   0  0  0  0  0  0  0  0  0  0  0  0
  1  2  1  0  0  0  0
  1 25  1  0  0  0  0
  1 26  1  0  0  0  0
  1 27  1  0  0  0  0
  2  3  1  0  0  0  0
  3  4  1  0  0  0  0
  3 22  2  0  0  0  0
  4  5  2  0  0  0  0
  4 28  1  0  0  0  0
  5  6  1  0  0  0  0
  5 29  1  0  0  0  0
  6  7  1  0  0  0  0
  6 21  2  0  0  0  0
  7  8  1  0  0  0  0
  7 16  1  0  0  0  0
  7 30  1  0  0  0  0
  8  9  1  0  0  0  0
  8 31  1  0  0  0  0
  8 32  1  0  0  0  0
  9 10  1  0  0  0  0
  9 15  2  0  0  0  0
 10 11  2  0  0  0  0
 10 14  1  0  0  0  0
 11 12  1  0  0  0  0
 11 33  1  0  0  0  0
 12 13  2  0  0  0  0
 12 34  1  0  0  0  0
 13 14  1  0  0  0  0
 13 35  1  0  0  0  0
 15 16  1  0  0  0  0
 16 17  1  0  0  0  0
 17 18  2  0  0  0  0
 17 19  1  0  0  0  0
 19 20  1  0  0  0  0
 19 36  1  0  0  0  0
 19 37  1  0  0  0  0
 21 22  1  0  0  0  0
 21 38  1  0  0  0  0
 22 23  1  0  0  0  0
 23 24  1  0  0  0  0
 24 39  1  0  0  0  0
 24 40  1  0  0  0  0
 24 41  1  0  0  0  0
M  END
$$$$
