
 OpenBabel07202414133D

 61 64  0  0  1  0  0  0  0  0999 V2000
    1.0728   -3.7965    0.2722 C   0  0  0  0  0  0  0  0  0  0  0  0
    2.4250   -3.1061    0.2796 C   0  0  0  0  0  0  0  0  0  0  0  0
    3.0547   -3.3473   -0.9791 O   0  0  0  0  0  0  0  0  0  0  0  0
    4.3060   -2.8312   -1.1531 C   0  0  0  0  0  0  0  0  0  0  0  0
    5.0184   -2.0715   -0.2421 C   0  0  0  0  0  0  0  0  0  0  0  0
    6.3136   -1.6161   -0.5546 C   0  0  0  0  0  0  0  0  0  0  0  0
    6.9659   -1.9084   -1.7686 C   0  0  0  0  0  0  0  0  0  0  0  0
    8.3495   -1.4653   -2.0332 N   0  0  0  0  0  0  0  0  0  0  0  0
    8.9103   -1.4446   -3.4248 C   0  0  3  0  0  0  0  0  0  0  0  0
    9.6851   -2.7638   -3.7811 C   0  0  0  0  0  0  0  0  0  0  0  0
   10.9133   -2.8167   -3.8566 O   0  0  0  0  0  0  0  0  0  0  0  0
    8.9241   -3.8729   -4.0644 N   0  0  0  0  0  0  0  0  0  0  0  0
    9.4718   -5.1195   -4.5682 C   0  0  0  0  0  0  0  0  0  0  0  0
    8.4258   -6.2264   -4.4431 C   0  0  0  0  0  0  0  0  0  0  0  0
    8.9624   -7.5874   -4.7714 C   0  0  0  0  0  0  0  0  0  0  0  0
    9.6004   -8.3454   -3.7790 C   0  0  0  0  0  0  0  0  0  0  0  0
   10.0985   -9.6178   -4.0689 C   0  0  0  0  0  0  0  0  0  0  0  0
    9.9651  -10.1374   -5.3525 C   0  0  0  0  0  0  0  0  0  0  0  0
    9.3386   -9.3847   -6.3388 C   0  0  0  0  0  0  0  0  0  0  0  0
    9.2121   -9.8844   -7.5738 F   0  0  0  0  0  0  0  0  0  0  0  0
    8.8370   -8.1164   -6.0619 C   0  0  0  0  0  0  0  0  0  0  0  0
    8.0300   -0.9135   -4.5632 C   0  0  0  0  0  0  0  0  0  0  0  0
    7.0195    0.0363   -4.3562 C   0  0  0  0  0  0  0  0  0  0  0  0
    6.3001    0.5466   -5.4349 C   0  0  0  0  0  0  0  0  0  0  0  0
    6.6358    0.1225   -6.7069 C   0  0  0  0  0  0  0  0  0  0  0  0
    7.6235   -0.7582   -6.9603 N   0  0  0  0  0  0  0  0  0  0  0  0
    8.3063   -1.2372   -5.8942 C   0  0  0  0  0  0  0  0  0  0  0  0
    9.2087   -1.1643   -0.9123 C   0  0  0  0  0  0  0  0  0  0  0  0
    8.8434   -1.3231    0.2550 O   0  0  0  0  0  0  0  0  0  0  0  0
   10.5910   -0.6704   -1.0668 C   0  0  0  0  0  0  0  0  0  0  0  0
   11.3770   -0.2891    0.0083 C   0  0  0  0  0  0  0  0  0  0  0  0
   12.6150    0.0468   -0.4390 O   0  0  0  0  0  0  0  0  0  0  0  0
   12.5262   -0.1390   -1.7811 C   0  0  0  0  0  0  0  0  0  0  0  0
   11.3471   -0.5220   -2.2099 N   0  0  0  0  0  0  0  0  0  0  0  0
    6.1747   -2.5995   -2.6977 C   0  0  0  0  0  0  0  0  0  0  0  0
    4.8884   -3.0812   -2.3877 C   0  0  0  0  0  0  0  0  0  0  0  0
    0.5520   -3.6432    1.2220 H   0  0  0  0  0  0  0  0  0  0  0  0
    1.1893   -4.8720    0.1029 H   0  0  0  0  0  0  0  0  0  0  0  0
    0.4470   -3.4111   -0.5395 H   0  0  0  0  0  0  0  0  0  0  0  0
    3.0305   -3.5175    1.0957 H   0  0  0  0  0  0  0  0  0  0  0  0
    2.2758   -2.0302    0.4272 H   0  0  0  0  0  0  0  0  0  0  0  0
    4.6087   -1.7996    0.7253 H   0  0  0  0  0  0  0  0  0  0  0  0
    6.7634   -0.9817    0.2035 H   0  0  0  0  0  0  0  0  0  0  0  0
    9.6628   -0.6605   -3.4452 H   0  0  0  0  0  0  0  0  0  0  0  0
    7.9290   -3.8349   -3.9630 H   0  0  0  0  0  0  0  0  0  0  0  0
   10.3853   -5.3552   -4.0088 H   0  0  0  0  0  0  0  0  0  0  0  0
    9.7581   -4.9631   -5.6195 H   0  0  0  0  0  0  0  0  0  0  0  0
    7.5642   -5.9983   -5.0866 H   0  0  0  0  0  0  0  0  0  0  0  0
    8.0200   -6.2371   -3.4213 H   0  0  0  0  0  0  0  0  0  0  0  0
    9.7128   -7.9524   -2.7730 H   0  0  0  0  0  0  0  0  0  0  0  0
   10.5870  -10.1998   -3.2896 H   0  0  0  0  0  0  0  0  0  0  0  0
   10.3432  -11.1250   -5.5925 H   0  0  0  0  0  0  0  0  0  0  0  0
    8.3570   -7.5564   -6.8548 H   0  0  0  0  0  0  0  0  0  0  0  0
    6.7781    0.3898   -3.3563 H   0  0  0  0  0  0  0  0  0  0  0  0
    5.5034    1.2659   -5.2843 H   0  0  0  0  0  0  0  0  0  0  0  0
    6.1152    0.5013   -7.5816 H   0  0  0  0  0  0  0  0  0  0  0  0
    9.1245   -1.8986   -6.1731 H   0  0  0  0  0  0  0  0  0  0  0  0
   11.2148   -0.2296    1.0751 H   0  0  0  0  0  0  0  0  0  0  0  0
   13.4243    0.0405   -2.3578 H   0  0  0  0  0  0  0  0  0  0  0  0
    6.4792   -2.7783   -3.7162 H   0  0  0  0  0  0  0  0  0  0  0  0
    4.3332   -3.6455   -3.1347 H   0  0  0  0  0  0  0  0  0  0  0  0
  1  2  1  0  0  0  0
  1 37  1  0  0  0  0
  1 38  1  0  0  0  0
  1 39  1  0  0  0  0
  2  3  1  0  0  0  0
  2 40  1  0  0  0  0
  2 41  1  0  0  0  0
  3  4  1  0  0  0  0
  4  5  1  0  0  0  0
  4 36  2  0  0  0  0
  5  6  2  0  0  0  0
  5 42  1  0  0  0  0
  6  7  1  0  0  0  0
  6 43  1  0  0  0  0
  7  8  1  0  0  0  0
  7 35  2  0  0  0  0
  8  9  1  0  0  0  0
  8 28  1  0  0  0  0
  9 10  1  0  0  0  0
  9 22  1  0  0  0  0
  9 44  1  0  0  0  0
 10 11  2  0  0  0  0
 10 12  1  0  0  0  0
 12 13  1  0  0  0  0
 12 45  1  0  0  0  0
 13 14  1  0  0  0  0
 13 46  1  0  0  0  0
 13 47  1  0  0  0  0
 14 15  1  0  0  0  0
 14 48  1  0  0  0  0
 14 49  1  0  0  0  0
 15 16  1  0  0  0  0
 15 21  2  0  0  0  0
 16 17  2  0  0  0  0
 16 50  1  0  0  0  0
 17 18  1  0  0  0  0
 17 51  1  0  0  0  0
 18 19  2  0  0  0  0
 18 52  1  0  0  0  0
 19 20  1  0  0  0  0
 19 21  1  0  0  0  0
 21 53  1  0  0  0  0
 22 23  1  0  0  0  0
 22 27  2  0  0  0  0
 23 24  2  0  0  0  0
 23 54  1  0  0  0  0
 24 25  1  0  0  0  0
 24 55  1  0  0  0  0
 25 26  2  0  0  0  0
 25 56  1  0  0  0  0
 26 27  1  0  0  0  0
 27 57  1  0  0  0  0
 28 29  2  0  0  0  0
 28 30  1  0  0  0  0
 30 31  2  0  0  0  0
 30 34  1  0  0  0  0
 31 32  1  0  0  0  0
 31 58  1  0  0  0  0
 32 33  1  0  0  0  0
 33 34  2  0  0  0  0
 33 59  1  0  0  0  0
 35 36  1  0  0  0  0
 35 60  1  0  0  0  0
 36 61  1  0  0  0  0
M  END
$$$$
