
 OpenBabel07202414123D

 68 70  0  0  1  0  0  0  0  0999 V2000
    3.4034    7.2819    0.5000 C   0  0  0  0  0  0  0  0  0  0  0  0
    4.2605    6.2309   -0.2147 C   0  0  0  0  0  0  0  0  0  0  0  0
    3.5015    5.5340   -1.3502 C   0  0  0  0  0  0  0  0  0  0  0  0
    5.4931    6.9295   -0.8083 C   0  0  0  0  0  0  0  0  0  0  0  0
    4.7951    5.2672    0.7255 O   0  0  0  0  0  0  0  0  0  0  0  0
    3.9555    4.4623    1.4325 C   0  0  0  0  0  0  0  0  0  0  0  0
    2.7328    4.4741    1.3765 O   0  0  0  0  0  0  0  0  0  0  0  0
    4.7281    3.5410    2.3576 C   0  0  0  0  0  0  0  0  0  0  0  0
    6.1793    3.6197    2.2502 N   0  0  0  0  0  0  0  0  0  0  0  0
    6.9357    2.7570    3.0067 C   0  0  0  0  0  0  0  0  0  0  0  0
    6.4047    1.8795    3.6873 O   0  0  0  0  0  0  0  0  0  0  0  0
    8.4511    3.0398    3.1101 C   0  0  3  0  0  0  0  0  0  0  0  0
    9.1489    3.4235    1.8321 N   0  0  0  0  0  0  0  0  0  0  0  0
    9.4675    4.7033    1.3308 C   0  0  0  0  0  0  0  0  0  0  0  0
   10.1115    4.8602    0.2890 O   0  0  0  0  0  0  0  0  0  0  0  0
    9.0723    5.9122    2.0302 C   0  0  0  0  0  0  0  0  0  0  0  0
    9.8402    7.0622    2.0538 C   0  0  0  0  0  0  0  0  0  0  0  0
    9.1875    8.0009    2.7833 O   0  0  0  0  0  0  0  0  0  0  0  0
    8.0258    7.3846    3.1307 C   0  0  0  0  0  0  0  0  0  0  0  0
    7.8663    6.1636    2.6529 N   0  0  0  0  0  0  0  0  0  0  0  0
    9.6044    2.3180    1.0241 C   0  0  0  0  0  0  0  0  0  0  0  0
   10.9494    2.2462    0.6489 C   0  0  0  0  0  0  0  0  0  0  0  0
   11.3971    1.3014   -0.2822 C   0  0  0  0  0  0  0  0  0  0  0  0
   10.5202    0.3920   -0.8799 C   0  0  0  0  0  0  0  0  0  0  0  0
   10.9797   -0.5771   -1.9928 C   0  0  0  0  0  0  0  0  0  0  0  0
   12.4929   -0.4756   -2.3075 C   0  0  0  0  0  0  0  0  0  0  0  0
   10.6952   -2.0380   -1.5897 C   0  0  0  0  0  0  0  0  0  0  0  0
   10.2337   -0.2730   -3.3114 C   0  0  0  0  0  0  0  0  0  0  0  0
    9.1776    0.4244   -0.4455 C   0  0  0  0  0  0  0  0  0  0  0  0
    8.7261    1.3641    0.5051 C   0  0  0  0  0  0  0  0  0  0  0  0
    8.8096    3.8241    4.3715 C   0  0  0  0  0  0  0  0  0  0  0  0
   10.0613    3.6976    4.9830 C   0  0  0  0  0  0  0  0  0  0  0  0
   10.3532    4.4337    6.1333 C   0  0  0  0  0  0  0  0  0  0  0  0
    9.3909    5.2922    6.6373 C   0  0  0  0  0  0  0  0  0  0  0  0
    8.1639    5.4238    6.1031 N   0  0  0  0  0  0  0  0  0  0  0  0
    7.8967    4.6682    5.0119 C   0  0  0  0  0  0  0  0  0  0  0  0
    3.0635    8.0570   -0.1944 H   0  0  0  0  0  0  0  0  0  0  0  0
    3.9731    7.7618    1.3045 H   0  0  0  0  0  0  0  0  0  0  0  0
    2.5160    6.8470    0.9681 H   0  0  0  0  0  0  0  0  0  0  0  0
    3.1269    6.2580   -2.0811 H   0  0  0  0  0  0  0  0  0  0  0  0
    2.6447    4.9590   -0.9881 H   0  0  0  0  0  0  0  0  0  0  0  0
    4.1528    4.8218   -1.8700 H   0  0  0  0  0  0  0  0  0  0  0  0
    5.2157    7.6433   -1.5908 H   0  0  0  0  0  0  0  0  0  0  0  0
    6.1900    6.1979   -1.2341 H   0  0  0  0  0  0  0  0  0  0  0  0
    6.0497    7.4670   -0.0314 H   0  0  0  0  0  0  0  0  0  0  0  0
    4.4234    2.5092    2.1531 H   0  0  0  0  0  0  0  0  0  0  0  0
    4.4623    3.8008    3.3884 H   0  0  0  0  0  0  0  0  0  0  0  0
    6.5841    4.5119    1.9685 H   0  0  0  0  0  0  0  0  0  0  0  0
    8.8485    2.0337    3.3308 H   0  0  0  0  0  0  0  0  0  0  0  0
   10.8002    7.3372    1.6404 H   0  0  0  0  0  0  0  0  0  0  0  0
    7.3607    7.9504    3.7675 H   0  0  0  0  0  0  0  0  0  0  0  0
   11.6699    2.9574    1.0453 H   0  0  0  0  0  0  0  0  0  0  0  0
   12.4508    1.3366   -0.5441 H   0  0  0  0  0  0  0  0  0  0  0  0
   13.1041   -0.7139   -1.4293 H   0  0  0  0  0  0  0  0  0  0  0  0
   12.7664    0.5298   -2.6509 H   0  0  0  0  0  0  0  0  0  0  0  0
   12.7834   -1.1720   -3.1030 H   0  0  0  0  0  0  0  0  0  0  0  0
   11.2141   -2.3009   -0.6611 H   0  0  0  0  0  0  0  0  0  0  0  0
   11.0351   -2.7327   -2.3680 H   0  0  0  0  0  0  0  0  0  0  0  0
    9.6267   -2.2246   -1.4399 H   0  0  0  0  0  0  0  0  0  0  0  0
   10.4498    0.7416   -3.6661 H   0  0  0  0  0  0  0  0  0  0  0  0
    9.1476   -0.3638   -3.2059 H   0  0  0  0  0  0  0  0  0  0  0  0
   10.5393   -0.9691   -4.1032 H   0  0  0  0  0  0  0  0  0  0  0  0
    8.4460   -0.2575   -0.8755 H   0  0  0  0  0  0  0  0  0  0  0  0
    7.6677    1.3801    0.7438 H   0  0  0  0  0  0  0  0  0  0  0  0
   10.8055    3.0111    4.5872 H   0  0  0  0  0  0  0  0  0  0  0  0
   11.3109    4.3379    6.6325 H   0  0  0  0  0  0  0  0  0  0  0  0
    9.5813    5.9065    7.5126 H   0  0  0  0  0  0  0  0  0  0  0  0
    6.8860    4.8139    4.6376 H   0  0  0  0  0  0  0  0  0  0  0  0
  1  2  1  0  0  0  0
  1 37  1  0  0  0  0
  1 38  1  0  0  0  0
  1 39  1  0  0  0  0
  2  3  1  0  0  0  0
  2  4  1  0  0  0  0
  2  5  1  0  0  0  0
  3 40  1  0  0  0  0
  3 41  1  0  0  0  0
  3 42  1  0  0  0  0
  4 43  1  0  0  0  0
  4 44  1  0  0  0  0
  4 45  1  0  0  0  0
  5  6  1  0  0  0  0
  6  7  2  0  0  0  0
  6  8  1  0  0  0  0
  8  9  1  0  0  0  0
  8 46  1  0  0  0  0
  8 47  1  0  0  0  0
  9 10  1  0  0  0  0
  9 48  1  0  0  0  0
 10 11  2  0  0  0  0
 10 12  1  0  0  0  0
 12 13  1  0  0  0  0
 12 31  1  0  0  0  0
 12 49  1  0  0  0  0
 13 14  1  0  0  0  0
 13 21  1  0  0  0  0
 14 15  2  0  0  0  0
 14 16  1  0  0  0  0
 16 17  2  0  0  0  0
 16 20  1  0  0  0  0
 17 18  1  0  0  0  0
 17 50  1  0  0  0  0
 18 19  1  0  0  0  0
 19 20  2  0  0  0  0
 19 51  1  0  0  0  0
 21 22  1  0  0  0  0
 21 30  2  0  0  0  0
 22 23  2  0  0  0  0
 22 52  1  0  0  0  0
 23 24  1  0  0  0  0
 23 53  1  0  0  0  0
 24 25  1  0  0  0  0
 24 29  2  0  0  0  0
 25 26  1  0  0  0  0
 25 27  1  0  0  0  0
 25 28  1  0  0  0  0
 26 54  1  0  0  0  0
 26 55  1  0  0  0  0
 26 56  1  0  0  0  0
 27 57  1  0  0  0  0
 27 58  1  0  0  0  0
 27 59  1  0  0  0  0
 28 60  1  0  0  0  0
 28 61  1  0  0  0  0
 28 62  1  0  0  0  0
 29 30  1  0  0  0  0
 29 63  1  0  0  0  0
 30 64  1  0  0  0  0
 31 32  1  0  0  0  0
 31 36  2  0  0  0  0
 32 33  2  0  0  0  0
 32 65  1  0  0  0  0
 33 34  1  0  0  0  0
 33 66  1  0  0  0  0
 34 35  2  0  0  0  0
 34 67  1  0  0  0  0
 35 36  1  0  0  0  0
 36 68  1  0  0  0  0
M  END
$$$$
