
 OpenBabel07202414143D

 43 46  0  0  1  0  0  0  0  0999 V2000
    1.4470    0.0363   -0.4547 C   0  0  0  0  0  0  0  0  0  0  0  0
    2.7699   -0.1207    0.0308 O   0  0  0  0  0  0  0  0  0  0  0  0
    3.2453    0.8223    1.0258 C   0  0  3  0  0  0  0  0  0  0  0  0
    4.6933    0.2898    1.3836 C   0  0  0  0  0  0  0  0  0  0  0  0
    5.2421    0.5493    2.4516 O   0  0  0  0  0  0  0  0  0  0  0  0
    5.2694   -0.4462    0.3493 N   0  0  0  0  0  0  0  0  0  0  0  0
    6.5950   -0.9431    0.2554 C   0  0  0  0  0  0  0  0  0  0  0  0
    7.5114   -0.8265    1.3038 C   0  0  0  0  0  0  0  0  0  0  0  0
    8.8116   -1.1981    1.2409 N   0  0  0  0  0  0  0  0  0  0  0  0
    9.2241   -1.7430    0.0803 C   0  0  0  0  0  0  0  0  0  0  0  0
    8.4016   -1.9831   -1.0170 C   0  0  0  0  0  0  0  0  0  0  0  0
    8.9108   -2.6245   -2.1624 C   0  0  0  0  0  0  0  0  0  0  0  0
    8.0893   -2.8877   -3.2552 C   0  0  0  0  0  0  0  0  0  0  0  0
    6.7594   -2.4853   -3.2261 C   0  0  0  0  0  0  0  0  0  0  0  0
    6.2516   -1.8385   -2.0906 C   0  0  0  0  0  0  0  0  0  0  0  0
    7.0467   -1.5758   -0.9427 C   0  0  0  0  0  0  0  0  0  0  0  0
    2.4217    0.8168    2.3274 C   0  0  0  0  0  0  0  0  0  0  0  0
    1.2266    1.7511    2.2664 C   0  0  0  0  0  0  0  0  0  0  0  0
    1.5751    3.0885    1.9304 O   0  0  0  0  0  0  0  0  0  0  0  0
    2.4547    3.2337    0.8964 C   0  0  0  0  0  0  0  0  0  0  0  0
    2.4727    4.5093    0.3221 C   0  0  0  0  0  0  0  0  0  0  0  0
    3.3535    4.8043   -0.7156 C   0  0  0  0  0  0  0  0  0  0  0  0
    4.2248    3.8214   -1.1681 C   0  0  0  0  0  0  0  0  0  0  0  0
    5.3343    4.1788   -2.4333 Cl  0  0  0  0  0  0  0  0  0  0  0  0
    4.2035    2.5425   -0.6078 C   0  0  0  0  0  0  0  0  0  0  0  0
    3.3138    2.2255    0.4377 C   0  0  0  0  0  0  0  0  0  0  0  0
    1.3119   -0.6634   -1.2843 H   0  0  0  0  0  0  0  0  0  0  0  0
    1.2668    1.0446   -0.8363 H   0  0  0  0  0  0  0  0  0  0  0  0
    0.7174   -0.2334    0.3113 H   0  0  0  0  0  0  0  0  0  0  0  0
    4.6417   -0.5973   -0.4328 H   0  0  0  0  0  0  0  0  0  0  0  0
    7.2362   -0.4283    2.2746 H   0  0  0  0  0  0  0  0  0  0  0  0
   10.2816   -1.9971    0.0608 H   0  0  0  0  0  0  0  0  0  0  0  0
    9.9516   -2.9407   -2.2006 H   0  0  0  0  0  0  0  0  0  0  0  0
    8.4885   -3.4079   -4.1230 H   0  0  0  0  0  0  0  0  0  0  0  0
    6.1139   -2.6917   -4.0753 H   0  0  0  0  0  0  0  0  0  0  0  0
    5.2004   -1.5580   -2.1202 H   0  0  0  0  0  0  0  0  0  0  0  0
    3.0400    1.1764    3.1614 H   0  0  0  0  0  0  0  0  0  0  0  0
    2.0951   -0.1974    2.5823 H   0  0  0  0  0  0  0  0  0  0  0  0
    0.7560    1.7876    3.2561 H   0  0  0  0  0  0  0  0  0  0  0  0
    0.4458    1.4131    1.5816 H   0  0  0  0  0  0  0  0  0  0  0  0
    1.7899    5.2745    0.6847 H   0  0  0  0  0  0  0  0  0  0  0  0
    3.3574    5.7967   -1.1573 H   0  0  0  0  0  0  0  0  0  0  0  0
    4.8945    1.7992   -0.9958 H   0  0  0  0  0  0  0  0  0  0  0  0
  1  2  1  0  0  0  0
  1 27  1  0  0  0  0
  1 28  1  0  0  0  0
  1 29  1  0  0  0  0
  2  3  1  0  0  0  0
  3  4  1  0  0  0  0
  3 17  1  0  0  0  0
  3 26  1  0  0  0  0
  4  5  2  0  0  0  0
  4  6  1  0  0  0  0
  6  7  1  0  0  0  0
  6 30  1  0  0  0  0
  7  8  1  0  0  0  0
  7 16  2  0  0  0  0
  8  9  2  0  0  0  0
  8 31  1  0  0  0  0
  9 10  1  0  0  0  0
 10 11  2  0  0  0  0
 10 32  1  0  0  0  0
 11 12  1  0  0  0  0
 11 16  1  0  0  0  0
 12 13  2  0  0  0  0
 12 33  1  0  0  0  0
 13 14  1  0  0  0  0
 13 34  1  0  0  0  0
 14 15  2  0  0  0  0
 14 35  1  0  0  0  0
 15 16  1  0  0  0  0
 15 36  1  0  0  0  0
 17 18  1  0  0  0  0
 17 37  1  0  0  0  0
 17 38  1  0  0  0  0
 18 19  1  0  0  0  0
 18 39  1  0  0  0  0
 18 40  1  0  0  0  0
 19 20  1  0  0  0  0
 20 21  1  0  0  0  0
 20 26  2  0  0  0  0
 21 22  2  0  0  0  0
 21 41  1  0  0  0  0
 22 23  1  0  0  0  0
 22 42  1  0  0  0  0
 23 24  1  0  0  0  0
 23 25  2  0  0  0  0
 25 26  1  0  0  0  0
 25 43  1  0  0  0  0
M  END
$$$$
