
 OpenBabel07202414183D

 48 51  0  0  0  0  0  0  0  0999 V2000
    0.4628   -6.9511   -3.7545 F   0  0  0  0  0  0  0  0  0  0  0  0
    0.7118   -7.0563   -2.4126 C   0  0  0  0  0  0  0  0  0  0  0  0
   -0.4981   -7.3354   -1.8472 F   0  0  0  0  0  0  0  0  0  0  0  0
    1.4650   -8.1840   -2.2744 F   0  0  0  0  0  0  0  0  0  0  0  0
    1.3732   -5.8153   -1.8285 C   0  0  0  0  0  0  0  0  0  0  0  0
    1.6809   -4.7385   -2.6594 C   0  0  0  0  0  0  0  0  0  0  0  0
    2.2407   -3.5971   -2.0998 C   0  0  0  0  0  0  0  0  0  0  0  0
    2.4621   -3.5531   -0.7270 C   0  0  0  0  0  0  0  0  0  0  0  0
    2.1603   -4.6658    0.0526 C   0  0  0  0  0  0  0  0  0  0  0  0
    2.3856   -4.5854    1.4434 N   0  0  0  0  0  0  0  0  0  0  0  0
    2.6967   -5.6543    2.3093 C   0  0  0  0  0  0  0  0  0  0  0  0
    2.2578   -5.6333    3.6441 C   0  0  0  0  0  0  0  0  0  0  0  0
    2.6505   -6.6269    4.5596 C   0  0  0  0  0  0  0  0  0  0  0  0
    2.1230   -6.6411    5.9744 C   0  0  0  0  0  0  0  0  0  0  0  0
    2.3257   -5.3448    6.7349 C   0  0  0  0  0  0  0  0  0  0  0  0
    1.3902   -4.5776    6.9441 O   0  0  0  0  0  0  0  0  0  0  0  0
    3.6341   -5.1238    7.1307 N   0  0  0  0  0  0  0  0  0  0  0  0
    4.0338   -4.0337    7.9509 C   0  0  0  0  0  0  0  0  0  0  0  0
    3.1980   -3.5501    8.9604 C   0  0  0  0  0  0  0  0  0  0  0  0
    3.5180   -2.5444    9.8056 N   0  0  0  0  0  0  0  0  0  0  0  0
    4.7326   -1.9857    9.6331 C   0  0  0  0  0  0  0  0  0  0  0  0
    5.6629   -2.3870    8.6723 C   0  0  0  0  0  0  0  0  0  0  0  0
    6.9126   -1.7519    8.5627 C   0  0  0  0  0  0  0  0  0  0  0  0
    7.8216   -2.1368    7.5806 C   0  0  0  0  0  0  0  0  0  0  0  0
    7.4817   -3.1430    6.6849 C   0  0  0  0  0  0  0  0  0  0  0  0
    6.2445   -3.7847    6.7865 C   0  0  0  0  0  0  0  0  0  0  0  0
    5.3108   -3.4398    7.7940 C   0  0  0  0  0  0  0  0  0  0  0  0
    3.5000   -7.6506    4.1211 C   0  0  0  0  0  0  0  0  0  0  0  0
    3.9360   -7.6798    2.7979 C   0  0  0  0  0  0  0  0  0  0  0  0
    5.0043   -8.9280    2.2837 Cl  0  0  0  0  0  0  0  0  0  0  0  0
    3.5354   -6.6969    1.8969 C   0  0  0  0  0  0  0  0  0  0  0  0
    1.6330   -5.7840   -0.4876 N   0  0  0  0  0  0  0  0  0  0  0  0
    1.4838   -4.7807   -3.7274 H   0  0  0  0  0  0  0  0  0  0  0  0
    2.4998   -2.7465   -2.7248 H   0  0  0  0  0  0  0  0  0  0  0  0
    2.9022   -2.6698   -0.2750 H   0  0  0  0  0  0  0  0  0  0  0  0
    1.7665   -3.8938    1.8515 H   0  0  0  0  0  0  0  0  0  0  0  0
    1.5852   -4.8414    3.9731 H   0  0  0  0  0  0  0  0  0  0  0  0
    2.5867   -7.4473    6.5567 H   0  0  0  0  0  0  0  0  0  0  0  0
    1.0483   -6.8589    5.9496 H   0  0  0  0  0  0  0  0  0  0  0  0
    4.3560   -5.6233    6.6288 H   0  0  0  0  0  0  0  0  0  0  0  0
    2.2284   -3.9978    9.1612 H   0  0  0  0  0  0  0  0  0  0  0  0
    4.9440   -1.1645   10.3149 H   0  0  0  0  0  0  0  0  0  0  0  0
    7.1839   -0.9472    9.2442 H   0  0  0  0  0  0  0  0  0  0  0  0
    8.7875   -1.6433    7.5076 H   0  0  0  0  0  0  0  0  0  0  0  0
    8.1760   -3.4265    5.8978 H   0  0  0  0  0  0  0  0  0  0  0  0
    6.0123   -4.5390    6.0397 H   0  0  0  0  0  0  0  0  0  0  0  0
    3.8180   -8.4353    4.8038 H   0  0  0  0  0  0  0  0  0  0  0  0
    3.8968   -6.7294    0.8724 H   0  0  0  0  0  0  0  0  0  0  0  0
  1  2  1  0  0  0  0
  2  3  1  0  0  0  0
  2  4  1  0  0  0  0
  2  5  1  0  0  0  0
  5  6  2  0  0  0  0
  5 32  1  0  0  0  0
  6  7  1  0  0  0  0
  6 33  1  0  0  0  0
  7  8  2  0  0  0  0
  7 34  1  0  0  0  0
  8  9  1  0  0  0  0
  8 35  1  0  0  0  0
  9 10  1  0  0  0  0
  9 32  2  0  0  0  0
 10 11  1  0  0  0  0
 10 36  1  0  0  0  0
 11 12  2  0  0  0  0
 11 31  1  0  0  0  0
 12 13  1  0  0  0  0
 12 37  1  0  0  0  0
 13 14  1  0  0  0  0
 13 28  2  0  0  0  0
 14 15  1  0  0  0  0
 14 38  1  0  0  0  0
 14 39  1  0  0  0  0
 15 16  2  0  0  0  0
 15 17  1  0  0  0  0
 17 18  1  0  0  0  0
 17 40  1  0  0  0  0
 18 19  2  0  0  0  0
 18 27  1  0  0  0  0
 19 20  1  0  0  0  0
 19 41  1  0  0  0  0
 20 21  2  0  0  0  0
 21 22  1  0  0  0  0
 21 42  1  0  0  0  0
 22 23  2  0  0  0  0
 22 27  1  0  0  0  0
 23 24  1  0  0  0  0
 23 43  1  0  0  0  0
 24 25  2  0  0  0  0
 24 44  1  0  0  0  0
 25 26  1  0  0  0  0
 25 45  1  0  0  0  0
 26 27  2  0  0  0  0
 26 46  1  0  0  0  0
 28 29  1  0  0  0  0
 28 47  1  0  0  0  0
 29 30  1  0  0  0  0
 29 31  2  0  0  0  0
 31 48  1  0  0  0  0
M  END
$$$$
