
 OpenBabel07202414113D

 45 48  0  0  1  0  0  0  0  0999 V2000
    1.5157    1.0212    0.2911 C   0  0  0  0  0  0  0  0  0  0  0  0
    2.7094    0.1730   -0.0945 C   0  0  0  0  0  0  0  0  0  0  0  0
    2.9456   -0.8108    0.6071 O   0  0  0  0  0  0  0  0  0  0  0  0
    3.4300    0.5683   -1.2409 N   0  0  0  0  0  0  0  0  0  0  0  0
    3.0057    1.7420   -2.0147 C   0  0  0  0  0  0  0  0  0  0  0  0
    3.2671    1.6122   -3.5039 C   0  0  0  0  0  0  0  0  0  0  0  0
    4.7547    1.4220   -3.7438 C   0  0  1  0  0  0  0  0  0  0  0  0
    5.5504    2.7265   -3.5092 C   0  0  0  0  0  0  0  0  0  0  0  0
    6.3580    2.8575   -2.6065 O   0  0  0  0  0  0  0  0  0  0  0  0
    5.2288    3.7005   -4.4392 N   0  0  0  0  0  0  0  0  0  0  0  0
    5.8652    4.9493   -4.6578 C   0  0  0  0  0  0  0  0  0  0  0  0
    7.0112    5.3507   -3.9750 C   0  0  0  0  0  0  0  0  0  0  0  0
    7.7730    6.4136   -4.3307 N   0  0  0  0  0  0  0  0  0  0  0  0
    7.3139    7.1732   -5.3456 C   0  0  0  0  0  0  0  0  0  0  0  0
    6.0759    6.9927   -5.9626 C   0  0  0  0  0  0  0  0  0  0  0  0
    5.5598    7.9553   -6.8490 C   0  0  0  0  0  0  0  0  0  0  0  0
    4.3041    7.7873   -7.4312 C   0  0  0  0  0  0  0  0  0  0  0  0
    3.5915    6.6225   -7.1946 C   0  0  0  0  0  0  0  0  0  0  0  0
    4.1058    5.6501   -6.3297 C   0  0  0  0  0  0  0  0  0  0  0  0
    5.3384    5.8317   -5.6473 C   0  0  0  0  0  0  0  0  0  0  0  0
    5.2485    0.2577   -2.9118 C   0  0  0  0  0  0  0  0  0  0  0  0
    6.3574   -0.4666   -3.4026 C   0  0  0  0  0  0  0  0  0  0  0  0
    6.8960   -1.5164   -2.6708 C   0  0  0  0  0  0  0  0  0  0  0  0
    8.2298   -2.4045   -3.2918 Cl  0  0  0  0  0  0  0  0  0  0  0  0
    6.3548   -1.8433   -1.4397 C   0  0  0  0  0  0  0  0  0  0  0  0
    5.2389   -1.1453   -0.9579 C   0  0  0  0  0  0  0  0  0  0  0  0
    4.6375   -0.1041   -1.6857 C   0  0  0  0  0  0  0  0  0  0  0  0
    1.0618    0.6089    1.1986 H   0  0  0  0  0  0  0  0  0  0  0  0
    0.7508    0.9886   -0.4888 H   0  0  0  0  0  0  0  0  0  0  0  0
    1.8250    2.0473    0.5042 H   0  0  0  0  0  0  0  0  0  0  0  0
    3.5088    2.6179   -1.5882 H   0  0  0  0  0  0  0  0  0  0  0  0
    1.9331    1.9129   -1.9063 H   0  0  0  0  0  0  0  0  0  0  0  0
    2.8799    2.4945   -4.0244 H   0  0  0  0  0  0  0  0  0  0  0  0
    2.7169    0.7466   -3.8970 H   0  0  0  0  0  0  0  0  0  0  0  0
    4.8865    1.1631   -4.8046 H   0  0  0  0  0  0  0  0  0  0  0  0
    4.5355    3.4471   -5.1276 H   0  0  0  0  0  0  0  0  0  0  0  0
    7.3887    4.8252   -3.1047 H   0  0  0  0  0  0  0  0  0  0  0  0
    7.9879    7.9702   -5.6502 H   0  0  0  0  0  0  0  0  0  0  0  0
    6.1075    8.8768   -7.0437 H   0  0  0  0  0  0  0  0  0  0  0  0
    3.8800    8.5709   -8.0510 H   0  0  0  0  0  0  0  0  0  0  0  0
    2.6194    6.4728   -7.6571 H   0  0  0  0  0  0  0  0  0  0  0  0
    3.4906    4.7732   -6.1647 H   0  0  0  0  0  0  0  0  0  0  0  0
    6.7999   -0.2073   -4.3618 H   0  0  0  0  0  0  0  0  0  0  0  0
    6.7821   -2.6431   -0.8409 H   0  0  0  0  0  0  0  0  0  0  0  0
    4.8814   -1.4572    0.0170 H   0  0  0  0  0  0  0  0  0  0  0  0
  1  2  1  0  0  0  0
  1 28  1  0  0  0  0
  1 29  1  0  0  0  0
  1 30  1  0  0  0  0
  2  3  2  0  0  0  0
  2  4  1  0  0  0  0
  4  5  1  0  0  0  0
  4 27  1  0  0  0  0
  5  6  1  0  0  0  0
  5 31  1  0  0  0  0
  5 32  1  0  0  0  0
  6  7  1  0  0  0  0
  6 33  1  0  0  0  0
  6 34  1  0  0  0  0
  7  8  1  0  0  0  0
  7 21  1  0  0  0  0
  7 35  1  6  0  0  0
  8  9  2  0  0  0  0
  8 10  1  0  0  0  0
 10 11  1  0  0  0  0
 10 36  1  0  0  0  0
 11 12  1  0  0  0  0
 11 20  2  0  0  0  0
 12 13  2  0  0  0  0
 12 37  1  0  0  0  0
 13 14  1  0  0  0  0
 14 15  2  0  0  0  0
 14 38  1  0  0  0  0
 15 16  1  0  0  0  0
 15 20  1  0  0  0  0
 16 17  2  0  0  0  0
 16 39  1  0  0  0  0
 17 18  1  0  0  0  0
 17 40  1  0  0  0  0
 18 19  2  0  0  0  0
 18 41  1  0  0  0  0
 19 20  1  0  0  0  0
 19 42  1  0  0  0  0
 21 22  1  0  0  0  0
 21 27  2  0  0  0  0
 22 23  2  0  0  0  0
 22 43  1  0  0  0  0
 23 24  1  0  0  0  0
 23 25  1  0  0  0  0
 25 26  2  0  0  0  0
 25 44  1  0  0  0  0
 26 27  1  0  0  0  0
 26 45  1  0  0  0  0
M  END
$$$$
