
 OpenBabel07202414193D

 36 39  0  0  0  0  0  0  0  0999 V2000
    1.1313    0.2975    0.7657 O   0  0  0  0  0  0  0  0  0  0  0  0
    2.1620    0.3643    0.0953 C   0  0  0  0  0  0  0  0  0  0  0  0
    2.9533   -0.8710   -0.1553 C   0  0  0  0  0  0  0  0  0  0  0  0
    2.3162   -2.2066   -0.1245 C   0  0  0  0  0  0  0  0  0  0  0  0
    2.9735   -3.3404    0.3772 C   0  0  0  0  0  0  0  0  0  0  0  0
    2.3419   -4.5888    0.3894 C   0  0  0  0  0  0  0  0  0  0  0  0
    1.0414   -4.7235   -0.0940 C   0  0  0  0  0  0  0  0  0  0  0  0
    0.3740   -3.6070   -0.5833 C   0  0  0  0  0  0  0  0  0  0  0  0
   -1.2353   -3.7604   -1.1751 Cl  0  0  0  0  0  0  0  0  0  0  0  0
    1.0007   -2.3610   -0.6001 C   0  0  0  0  0  0  0  0  0  0  0  0
    4.2502   -0.6561   -0.4180 C   0  0  0  0  0  0  0  0  0  0  0  0
    4.8497    0.5693   -0.5173 N   0  0  0  0  0  0  0  0  0  0  0  0
    4.0644    1.5991   -0.5485 C   0  0  0  0  0  0  0  0  0  0  0  0
    2.7015    1.5417   -0.4108 N   0  0  0  0  0  0  0  0  0  0  0  0
    1.8713    2.7072   -0.3754 C   0  0  0  0  0  0  0  0  0  0  0  0
    2.2854    3.8599    0.2894 C   0  0  0  0  0  0  0  0  0  0  0  0
    1.4589    4.8690    0.6374 N   0  0  0  0  0  0  0  0  0  0  0  0
    0.1536    4.7192    0.3082 C   0  0  0  0  0  0  0  0  0  0  0  0
   -0.3583    3.6745   -0.4636 C   0  0  0  0  0  0  0  0  0  0  0  0
   -1.7149    3.6120   -0.8339 C   0  0  0  0  0  0  0  0  0  0  0  0
   -2.1818    2.5957   -1.6691 C   0  0  0  0  0  0  0  0  0  0  0  0
   -1.3024    1.6378   -2.1555 C   0  0  0  0  0  0  0  0  0  0  0  0
    0.0379    1.6731   -1.7572 C   0  0  0  0  0  0  0  0  0  0  0  0
    0.5346    2.6643   -0.8686 C   0  0  0  0  0  0  0  0  0  0  0  0
    3.9808   -3.2660    0.7826 H   0  0  0  0  0  0  0  0  0  0  0  0
    2.8638   -5.4575    0.7838 H   0  0  0  0  0  0  0  0  0  0  0  0
    0.5533   -5.6943   -0.0799 H   0  0  0  0  0  0  0  0  0  0  0  0
    0.4430   -1.5065   -0.9777 H   0  0  0  0  0  0  0  0  0  0  0  0
    4.9233   -1.4918   -0.5965 H   0  0  0  0  0  0  0  0  0  0  0  0
    4.4897    2.6031   -0.7084 H   0  0  0  0  0  0  0  0  0  0  0  0
    3.3017    3.9903    0.6484 H   0  0  0  0  0  0  0  0  0  0  0  0
   -0.4964    5.5033    0.6882 H   0  0  0  0  0  0  0  0  0  0  0  0
   -2.4178    4.3625   -0.4779 H   0  0  0  0  0  0  0  0  0  0  0  0
   -3.2311    2.5611   -1.9515 H   0  0  0  0  0  0  0  0  0  0  0  0
   -1.6516    0.8601   -2.8249 H   0  0  0  0  0  0  0  0  0  0  0  0
    0.7044    0.9160   -2.1660 H   0  0  0  0  0  0  0  0  0  0  0  0
  1  2  2  0  0  0  0
  2  3  1  0  0  0  0
  2 14  1  0  0  0  0
  3  4  1  0  0  0  0
  3 11  2  0  0  0  0
  4  5  1  0  0  0  0
  4 10  2  0  0  0  0
  5  6  2  0  0  0  0
  5 25  1  0  0  0  0
  6  7  1  0  0  0  0
  6 26  1  0  0  0  0
  7  8  2  0  0  0  0
  7 27  1  0  0  0  0
  8  9  1  0  0  0  0
  8 10  1  0  0  0  0
 10 28  1  0  0  0  0
 11 12  1  0  0  0  0
 11 29  1  0  0  0  0
 12 13  2  0  0  0  0
 13 14  1  0  0  0  0
 13 30  1  0  0  0  0
 14 15  1  0  0  0  0
 15 16  1  0  0  0  0
 15 24  2  0  0  0  0
 16 17  2  0  0  0  0
 16 31  1  0  0  0  0
 17 18  1  0  0  0  0
 18 19  2  0  0  0  0
 18 32  1  0  0  0  0
 19 20  1  0  0  0  0
 19 24  1  0  0  0  0
 20 21  2  0  0  0  0
 20 33  1  0  0  0  0
 21 22  1  0  0  0  0
 21 34  1  0  0  0  0
 22 23  2  0  0  0  0
 22 35  1  0  0  0  0
 23 24  1  0  0  0  0
 23 36  1  0  0  0  0
M  END
$$$$
