
 OpenBabel07202414113D

 60 63  0  0  0  0  0  0  0  0999 V2000
    0.9974   -6.7160    3.5037 C   0  0  0  0  0  0  0  0  0  0  0  0
    2.1701   -6.0988    3.6989 C   0  0  0  0  0  0  0  0  0  0  0  0
    2.9350   -5.5253    2.5488 C   0  0  0  0  0  0  0  0  0  0  0  0
    2.4493   -5.5135    1.4281 O   0  0  0  0  0  0  0  0  0  0  0  0
    4.1856   -5.0514    2.9262 N   0  0  0  0  0  0  0  0  0  0  0  0
    5.1690   -4.4521    2.0915 C   0  0  0  0  0  0  0  0  0  0  0  0
    4.9784   -4.2298    0.7269 C   0  0  0  0  0  0  0  0  0  0  0  0
    5.9830   -3.6391   -0.0461 C   0  0  0  0  0  0  0  0  0  0  0  0
    7.1840   -3.2198    0.5339 C   0  0  0  0  0  0  0  0  0  0  0  0
    7.4098   -3.4305    1.8932 C   0  0  0  0  0  0  0  0  0  0  0  0
    8.7000   -3.0937    2.4507 N   0  0  0  0  0  0  0  0  0  0  0  0
    9.0388   -1.6257    2.5006 C   0  0  0  0  0  0  0  0  0  0  0  0
   10.3607   -1.1495    1.8758 C   0  0  0  0  0  0  0  0  0  0  0  0
   11.2713   -2.0642    1.3467 C   0  0  0  0  0  0  0  0  0  0  0  0
   12.6128   -1.7396    1.1803 C   0  0  0  0  0  0  0  0  0  0  0  0
   13.0238   -0.4267    1.3174 C   0  0  0  0  0  0  0  0  0  0  0  0
   12.0773    0.5826    1.5103 C   0  0  0  0  0  0  0  0  0  0  0  0
   12.5409    1.9738    1.1721 C   0  0  0  0  0  0  0  0  0  0  0  0
   11.8549    3.0526    1.4105 N   0  0  0  0  0  0  0  0  0  0  0  0
   13.7154    2.1575    0.5027 N   0  0  0  0  0  0  0  0  0  0  0  0
   10.7624    0.2158    1.8937 C   0  0  0  0  0  0  0  0  0  0  0  0
    9.4028   -4.1391    3.0824 C   0  0  0  0  0  0  0  0  0  0  0  0
    9.0246   -5.3129    2.9976 O   0  0  0  0  0  0  0  0  0  0  0  0
   10.7450   -3.8283    3.7341 C   0  0  0  0  0  0  0  0  0  0  0  0
   11.2024   -4.5994    4.9495 C   0  0  0  0  0  0  0  0  0  0  0  0
   10.4623   -5.6379    5.5076 C   0  0  0  0  0  0  0  0  0  0  0  0
   10.8800   -6.4050    6.5356 N   0  0  0  0  0  0  0  0  0  0  0  0
   12.0793   -6.0988    7.0698 C   0  0  0  0  0  0  0  0  0  0  0  0
   12.8786   -5.0319    6.6661 C   0  0  0  0  0  0  0  0  0  0  0  0
   14.0575   -4.6941    7.3548 C   0  0  0  0  0  0  0  0  0  0  0  0
   14.8403   -3.6184    6.9423 C   0  0  0  0  0  0  0  0  0  0  0  0
   14.4854   -2.9082    5.8035 C   0  0  0  0  0  0  0  0  0  0  0  0
   13.3186   -3.2422    5.1100 C   0  0  0  0  0  0  0  0  0  0  0  0
   12.4584   -4.2815    5.5495 C   0  0  0  0  0  0  0  0  0  0  0  0
    6.4038   -4.0700    2.6590 C   0  0  0  0  0  0  0  0  0  0  0  0
    0.4308   -7.1369    4.3344 H   0  0  0  0  0  0  0  0  0  0  0  0
    0.5743   -6.8327    2.5099 H   0  0  0  0  0  0  0  0  0  0  0  0
    2.5663   -5.9967    4.6989 H   0  0  0  0  0  0  0  0  0  0  0  0
    4.4415   -5.1486    3.9008 H   0  0  0  0  0  0  0  0  0  0  0  0
    4.0615   -4.5223    0.2223 H   0  0  0  0  0  0  0  0  0  0  0  0
    5.8300   -3.5308   -1.1180 H   0  0  0  0  0  0  0  0  0  0  0  0
    7.9622   -2.8071   -0.1011 H   0  0  0  0  0  0  0  0  0  0  0  0
    9.0822   -1.3809    3.5711 H   0  0  0  0  0  0  0  0  0  0  0  0
    8.2124   -1.0457    2.0738 H   0  0  0  0  0  0  0  0  0  0  0  0
   10.9745   -3.0896    1.1387 H   0  0  0  0  0  0  0  0  0  0  0  0
   13.3364   -2.5081    0.9299 H   0  0  0  0  0  0  0  0  0  0  0  0
   14.0797   -0.1925    1.2059 H   0  0  0  0  0  0  0  0  0  0  0  0
   10.9774    2.8591    1.8802 H   0  0  0  0  0  0  0  0  0  0  0  0
   13.9460    1.4593   -0.1904 H   0  0  0  0  0  0  0  0  0  0  0  0
   13.7686    3.0958    0.1096 H   0  0  0  0  0  0  0  0  0  0  0  0
   10.0510    0.9820    2.1882 H   0  0  0  0  0  0  0  0  0  0  0  0
   10.7957   -2.7705    3.9895 H   0  0  0  0  0  0  0  0  0  0  0  0
   11.4918   -4.0673    2.9658 H   0  0  0  0  0  0  0  0  0  0  0  0
    9.4769   -5.9131    5.1455 H   0  0  0  0  0  0  0  0  0  0  0  0
   12.3908   -6.7636    7.8706 H   0  0  0  0  0  0  0  0  0  0  0  0
   14.3535   -5.2517    8.2408 H   0  0  0  0  0  0  0  0  0  0  0  0
   15.7241   -3.3373    7.5088 H   0  0  0  0  0  0  0  0  0  0  0  0
   15.1052   -2.0835    5.4602 H   0  0  0  0  0  0  0  0  0  0  0  0
   13.0846   -2.6570    4.2237 H   0  0  0  0  0  0  0  0  0  0  0  0
    6.5974   -4.2838    3.7074 H   0  0  0  0  0  0  0  0  0  0  0  0
  1  2  2  0  0  0  0
  1 36  1  0  0  0  0
  1 37  1  0  0  0  0
  2  3  1  0  0  0  0
  2 38  1  0  0  0  0
  3  4  2  0  0  0  0
  3  5  1  0  0  0  0
  5  6  1  0  0  0  0
  5 39  1  0  0  0  0
  6  7  1  0  0  0  0
  6 35  2  0  0  0  0
  7  8  2  0  0  0  0
  7 40  1  0  0  0  0
  8  9  1  0  0  0  0
  8 41  1  0  0  0  0
  9 10  2  0  0  0  0
  9 42  1  0  0  0  0
 10 11  1  0  0  0  0
 10 35  1  0  0  0  0
 11 12  1  0  0  0  0
 11 22  1  0  0  0  0
 12 13  1  0  0  0  0
 12 43  1  0  0  0  0
 12 44  1  0  0  0  0
 13 14  1  0  0  0  0
 13 21  2  0  0  0  0
 14 15  2  0  0  0  0
 14 45  1  0  0  0  0
 15 16  1  0  0  0  0
 15 46  1  0  0  0  0
 16 17  2  0  0  0  0
 16 47  1  0  0  0  0
 17 18  1  0  0  0  0
 17 21  1  0  0  0  0
 18 19  2  0  0  0  0
 18 20  1  0  0  0  0
 19 48  1  0  0  0  0
 20 49  1  0  0  0  0
 20 50  1  0  0  0  0
 21 51  1  0  0  0  0
 22 23  2  0  0  0  0
 22 24  1  0  0  0  0
 24 25  1  0  0  0  0
 24 52  1  0  0  0  0
 24 53  1  0  0  0  0
 25 26  1  0  0  0  0
 25 34  2  0  0  0  0
 26 27  2  0  0  0  0
 26 54  1  0  0  0  0
 27 28  1  0  0  0  0
 28 29  2  0  0  0  0
 28 55  1  0  0  0  0
 29 30  1  0  0  0  0
 29 34  1  0  0  0  0
 30 31  2  0  0  0  0
 30 56  1  0  0  0  0
 31 32  1  0  0  0  0
 31 57  1  0  0  0  0
 32 33  2  0  0  0  0
 32 58  1  0  0  0  0
 33 34  1  0  0  0  0
 33 59  1  0  0  0  0
 35 60  1  0  0  0  0
M  END
$$$$
