
 OpenBabel07202414123D

 66 69  0  0  1  0  0  0  0  0999 V2000
    2.9843    0.1491   -1.4975 C   0  0  0  0  0  0  0  0  0  0  0  0
    2.4497   -0.1050   -0.0641 C   0  0  0  0  0  0  0  0  0  0  0  0
    0.9388   -0.3900   -0.1581 C   0  0  0  0  0  0  0  0  0  0  0  0
    3.1469   -1.3907    0.4384 C   0  0  0  0  0  0  0  0  0  0  0  0
    2.6855    1.1021    0.8637 C   0  0  0  0  0  0  0  0  0  0  0  0
    2.8240    2.3941    0.3541 C   0  0  0  0  0  0  0  0  0  0  0  0
    3.0938    3.5020    1.1785 C   0  0  0  0  0  0  0  0  0  0  0  0
    3.1884    3.4172    2.5729 C   0  0  0  0  0  0  0  0  0  0  0  0
    3.5273    4.5851    3.4137 N   0  0  0  0  0  0  0  0  0  0  0  0
    4.0231    4.3213    4.8085 C   0  0  3  0  0  0  0  0  0  0  0  0
    5.5505    4.6675    4.9044 C   0  0  0  0  0  0  0  0  0  0  0  0
    6.0386    5.7464    4.5798 O   0  0  0  0  0  0  0  0  0  0  0  0
    6.4071    3.6248    5.2441 N   0  0  0  0  0  0  0  0  0  0  0  0
    7.8439    3.8596    5.2107 C   0  0  0  0  0  0  0  0  0  0  0  0
    8.6738    2.6104    5.5129 C   0  0  0  0  0  0  0  0  0  0  0  0
   10.1572    2.9003    5.5050 C   0  0  0  0  0  0  0  0  0  0  0  0
   10.9156    2.7591    4.3326 C   0  0  0  0  0  0  0  0  0  0  0  0
   12.2824    3.0602    4.3256 C   0  0  0  0  0  0  0  0  0  0  0  0
   12.9037    3.5078    5.4902 C   0  0  0  0  0  0  0  0  0  0  0  0
   12.1551    3.6467    6.6516 C   0  0  0  0  0  0  0  0  0  0  0  0
   12.7487    4.0746    7.7725 F   0  0  0  0  0  0  0  0  0  0  0  0
   10.7931    3.3512    6.6690 C   0  0  0  0  0  0  0  0  0  0  0  0
    3.0987    4.7541    5.9489 C   0  0  0  0  0  0  0  0  0  0  0  0
    1.8725    5.4113    5.7410 C   0  0  0  0  0  0  0  0  0  0  0  0
    1.0413    5.7408    6.8075 C   0  0  0  0  0  0  0  0  0  0  0  0
    1.4154    5.3314    8.0709 C   0  0  0  0  0  0  0  0  0  0  0  0
    2.5727    4.6837    8.3272 N   0  0  0  0  0  0  0  0  0  0  0  0
    3.3893    4.4338    7.2725 C   0  0  0  0  0  0  0  0  0  0  0  0
    3.4959    5.9162    2.8660 C   0  0  0  0  0  0  0  0  0  0  0  0
    3.1041    6.1634    1.7235 O   0  0  0  0  0  0  0  0  0  0  0  0
    3.8999    7.0948    3.6498 C   0  0  0  0  0  0  0  0  0  0  0  0
    4.4176    8.2501    3.0966 C   0  0  0  0  0  0  0  0  0  0  0  0
    4.6252    9.1587    4.0896 O   0  0  0  0  0  0  0  0  0  0  0  0
    4.2177    8.5134    5.2049 C   0  0  0  0  0  0  0  0  0  0  0  0
    3.7639    7.2919    5.0080 N   0  0  0  0  0  0  0  0  0  0  0  0
    2.9503    2.1279    3.0887 C   0  0  0  0  0  0  0  0  0  0  0  0
    2.7318    0.9984    2.2591 C   0  0  0  0  0  0  0  0  0  0  0  0
    2.8474   -0.7271   -2.1409 H   0  0  0  0  0  0  0  0  0  0  0  0
    4.0549    0.3883   -1.4822 H   0  0  0  0  0  0  0  0  0  0  0  0
    2.4627    0.9747   -1.9943 H   0  0  0  0  0  0  0  0  0  0  0  0
    0.7422   -1.2596   -0.7975 H   0  0  0  0  0  0  0  0  0  0  0  0
    0.3937    0.4606   -0.5826 H   0  0  0  0  0  0  0  0  0  0  0  0
    0.5083   -0.6037    0.8269 H   0  0  0  0  0  0  0  0  0  0  0  0
    2.9491   -2.2314   -0.2387 H   0  0  0  0  0  0  0  0  0  0  0  0
    2.7918   -1.7005    1.4264 H   0  0  0  0  0  0  0  0  0  0  0  0
    4.2335   -1.2611    0.4945 H   0  0  0  0  0  0  0  0  0  0  0  0
    2.7409    2.5989   -0.7096 H   0  0  0  0  0  0  0  0  0  0  0  0
    3.2488    4.4231    0.6308 H   0  0  0  0  0  0  0  0  0  0  0  0
    4.0373    3.2400    4.9468 H   0  0  0  0  0  0  0  0  0  0  0  0
    6.0481    2.7522    5.6067 H   0  0  0  0  0  0  0  0  0  0  0  0
    8.0608    4.6518    5.9383 H   0  0  0  0  0  0  0  0  0  0  0  0
    8.1056    4.2560    4.2200 H   0  0  0  0  0  0  0  0  0  0  0  0
    8.4472    1.8209    4.7858 H   0  0  0  0  0  0  0  0  0  0  0  0
    8.3887    2.2058    6.4911 H   0  0  0  0  0  0  0  0  0  0  0  0
   10.4489    2.4152    3.4113 H   0  0  0  0  0  0  0  0  0  0  0  0
   12.8612    2.9499    3.4118 H   0  0  0  0  0  0  0  0  0  0  0  0
   13.9610    3.7513    5.5003 H   0  0  0  0  0  0  0  0  0  0  0  0
   10.2454    3.4782    7.5969 H   0  0  0  0  0  0  0  0  0  0  0  0
    1.5678    5.7372    4.7502 H   0  0  0  0  0  0  0  0  0  0  0  0
    0.1281    6.3023    6.6455 H   0  0  0  0  0  0  0  0  0  0  0  0
    0.7758    5.5166    8.9274 H   0  0  0  0  0  0  0  0  0  0  0  0
    4.3103    3.9292    7.5500 H   0  0  0  0  0  0  0  0  0  0  0  0
    4.6759    8.5575    2.0953 H   0  0  0  0  0  0  0  0  0  0  0  0
    4.2803    9.0447    6.1431 H   0  0  0  0  0  0  0  0  0  0  0  0
    2.8803    1.9319    4.1544 H   0  0  0  0  0  0  0  0  0  0  0  0
    2.5836    0.0361    2.7447 H   0  0  0  0  0  0  0  0  0  0  0  0
  1  2  1  0  0  0  0
  1 38  1  0  0  0  0
  1 39  1  0  0  0  0
  1 40  1  0  0  0  0
  2  3  1  0  0  0  0
  2  4  1  0  0  0  0
  2  5  1  0  0  0  0
  3 41  1  0  0  0  0
  3 42  1  0  0  0  0
  3 43  1  0  0  0  0
  4 44  1  0  0  0  0
  4 45  1  0  0  0  0
  4 46  1  0  0  0  0
  5  6  1  0  0  0  0
  5 37  2  0  0  0  0
  6  7  2  0  0  0  0
  6 47  1  0  0  0  0
  7  8  1  0  0  0  0
  7 48  1  0  0  0  0
  8  9  1  0  0  0  0
  8 36  2  0  0  0  0
  9 10  1  0  0  0  0
  9 29  1  0  0  0  0
 10 11  1  0  0  0  0
 10 23  1  0  0  0  0
 10 49  1  0  0  0  0
 11 12  2  0  0  0  0
 11 13  1  0  0  0  0
 13 14  1  0  0  0  0
 13 50  1  0  0  0  0
 14 15  1  0  0  0  0
 14 51  1  0  0  0  0
 14 52  1  0  0  0  0
 15 16  1  0  0  0  0
 15 53  1  0  0  0  0
 15 54  1  0  0  0  0
 16 17  1  0  0  0  0
 16 22  2  0  0  0  0
 17 18  2  0  0  0  0
 17 55  1  0  0  0  0
 18 19  1  0  0  0  0
 18 56  1  0  0  0  0
 19 20  2  0  0  0  0
 19 57  1  0  0  0  0
 20 21  1  0  0  0  0
 20 22  1  0  0  0  0
 22 58  1  0  0  0  0
 23 24  1  0  0  0  0
 23 28  2  0  0  0  0
 24 25  2  0  0  0  0
 24 59  1  0  0  0  0
 25 26  1  0  0  0  0
 25 60  1  0  0  0  0
 26 27  2  0  0  0  0
 26 61  1  0  0  0  0
 27 28  1  0  0  0  0
 28 62  1  0  0  0  0
 29 30  2  0  0  0  0
 29 31  1  0  0  0  0
 31 32  2  0  0  0  0
 31 35  1  0  0  0  0
 32 33  1  0  0  0  0
 32 63  1  0  0  0  0
 33 34  1  0  0  0  0
 34 35  2  0  0  0  0
 34 64  1  0  0  0  0
 36 37  1  0  0  0  0
 36 65  1  0  0  0  0
 37 66  1  0  0  0  0
M  END
$$$$
