
 OpenBabel07202414163D

 47 50  0  0  0  0  0  0  0  0999 V2000
    2.3828   -0.0158    0.3659 C   0  0  0  0  0  0  0  0  0  0  0  0
    0.8826   -0.0096    0.2459 C   0  0  0  0  0  0  0  0  0  0  0  0
    0.0727   -0.3298    1.3416 C   0  0  0  0  0  0  0  0  0  0  0  0
   -1.3230   -0.2781    1.2330 C   0  0  0  0  0  0  0  0  0  0  0  0
   -1.9236    0.1249    0.0391 C   0  0  0  0  0  0  0  0  0  0  0  0
   -1.1132    0.4092   -1.0679 C   0  0  0  0  0  0  0  0  0  0  0  0
    0.2807    0.3331   -0.9663 C   0  0  0  0  0  0  0  0  0  0  0  0
   -3.3547    0.2347   -0.0284 N   0  0  0  0  0  0  0  0  0  0  0  0
   -4.0376   -1.0661   -0.1820 C   0  0  0  0  0  0  0  0  0  0  0  0
   -5.0097   -1.5155    0.8878 C   0  0  0  0  0  0  0  0  0  0  0  0
   -5.8698   -2.5890    0.5679 C   0  0  0  0  0  0  0  0  0  0  0  0
   -6.6648   -3.2024    1.5377 C   0  0  0  0  0  0  0  0  0  0  0  0
   -6.6302   -2.7412    2.8476 C   0  0  0  0  0  0  0  0  0  0  0  0
   -5.8268   -1.6506    3.1731 C   0  0  0  0  0  0  0  0  0  0  0  0
   -5.0163   -1.0406    2.2048 C   0  0  0  0  0  0  0  0  0  0  0  0
   -5.8199   -1.0634    4.7901 Cl  0  0  0  0  0  0  0  0  0  0  0  0
   -3.8917    1.4358   -0.5222 C   0  0  0  0  0  0  0  0  0  0  0  0
   -3.1954    2.4172   -0.8102 O   0  0  0  0  0  0  0  0  0  0  0  0
   -5.3936    1.5886   -0.6001 C   0  0  0  0  0  0  0  0  0  0  0  0
   -5.9026    1.3259   -1.9266 N   0  0  0  0  0  0  0  0  0  0  0  0
   -5.7324    2.0478   -3.0796 C   0  0  0  0  0  0  0  0  0  0  0  0
   -5.0948    3.2530   -3.3966 C   0  0  0  0  0  0  0  0  0  0  0  0
   -5.0676    3.6164   -4.7499 C   0  0  0  0  0  0  0  0  0  0  0  0
   -5.6599    2.8168   -5.7308 C   0  0  0  0  0  0  0  0  0  0  0  0
   -6.3245    1.6341   -5.3848 C   0  0  0  0  0  0  0  0  0  0  0  0
   -6.3584    1.2545   -4.0358 C   0  0  0  0  0  0  0  0  0  0  0  0
   -6.9216    0.1628   -3.4325 N   0  0  0  0  0  0  0  0  0  0  0  0
   -6.6542    0.2251   -2.1352 N   0  0  0  0  0  0  0  0  0  0  0  0
    2.7048   -0.2154    1.3935 H   0  0  0  0  0  0  0  0  0  0  0  0
    2.7879    0.9617    0.0799 H   0  0  0  0  0  0  0  0  0  0  0  0
    2.8166   -0.7855   -0.2804 H   0  0  0  0  0  0  0  0  0  0  0  0
    0.5210   -0.5982    2.2955 H   0  0  0  0  0  0  0  0  0  0  0  0
   -1.9234   -0.5073    2.1072 H   0  0  0  0  0  0  0  0  0  0  0  0
   -1.5534    0.6957   -2.0193 H   0  0  0  0  0  0  0  0  0  0  0  0
    0.8913    0.5655   -1.8373 H   0  0  0  0  0  0  0  0  0  0  0  0
   -3.2785   -1.8585   -0.2428 H   0  0  0  0  0  0  0  0  0  0  0  0
   -4.5431   -1.0552   -1.1518 H   0  0  0  0  0  0  0  0  0  0  0  0
   -5.9010   -2.9752   -0.4506 H   0  0  0  0  0  0  0  0  0  0  0  0
   -7.2891   -4.0521    1.2695 H   0  0  0  0  0  0  0  0  0  0  0  0
   -7.2312   -3.2379    3.6088 H   0  0  0  0  0  0  0  0  0  0  0  0
   -4.3788   -0.2109    2.4987 H   0  0  0  0  0  0  0  0  0  0  0  0
   -5.6483    2.6274   -0.3542 H   0  0  0  0  0  0  0  0  0  0  0  0
   -5.9148    0.9604    0.1232 H   0  0  0  0  0  0  0  0  0  0  0  0
   -4.6185    3.8733   -2.6428 H   0  0  0  0  0  0  0  0  0  0  0  0
   -4.5622    4.5350   -5.0444 H   0  0  0  0  0  0  0  0  0  0  0  0
   -5.6021    3.1124   -6.7763 H   0  0  0  0  0  0  0  0  0  0  0  0
   -6.7922    1.0119   -6.1399 H   0  0  0  0  0  0  0  0  0  0  0  0
  1  2  1  0  0  0  0
  1 29  1  0  0  0  0
  1 30  1  0  0  0  0
  1 31  1  0  0  0  0
  2  3  1  0  0  0  0
  2  7  2  0  0  0  0
  3  4  2  0  0  0  0
  3 32  1  0  0  0  0
  4  5  1  0  0  0  0
  4 33  1  0  0  0  0
  5  6  2  0  0  0  0
  5  8  1  0  0  0  0
  6  7  1  0  0  0  0
  6 34  1  0  0  0  0
  7 35  1  0  0  0  0
  8  9  1  0  0  0  0
  8 17  1  0  0  0  0
  9 10  1  0  0  0  0
  9 36  1  0  0  0  0
  9 37  1  0  0  0  0
 10 11  1  0  0  0  0
 10 15  2  0  0  0  0
 11 12  2  0  0  0  0
 11 38  1  0  0  0  0
 12 13  1  0  0  0  0
 12 39  1  0  0  0  0
 13 14  2  0  0  0  0
 13 40  1  0  0  0  0
 14 15  1  0  0  0  0
 14 16  1  0  0  0  0
 15 41  1  0  0  0  0
 17 18  2  0  0  0  0
 17 19  1  0  0  0  0
 19 20  1  0  0  0  0
 19 42  1  0  0  0  0
 19 43  1  0  0  0  0
 20 21  1  0  0  0  0
 20 28  1  0  0  0  0
 21 22  1  0  0  0  0
 21 26  2  0  0  0  0
 22 23  2  0  0  0  0
 22 44  1  0  0  0  0
 23 24  1  0  0  0  0
 23 45  1  0  0  0  0
 24 25  2  0  0  0  0
 24 46  1  0  0  0  0
 25 26  1  0  0  0  0
 25 47  1  0  0  0  0
 26 27  1  0  0  0  0
 27 28  2  0  0  0  0
M  END
$$$$
