
 OpenBabel07202414113D

 41 43  0  0  1  0  0  0  0  0999 V2000
    1.0228   -0.5147   -0.0943 C   0  0  0  0  0  0  0  0  0  0  0  0
    2.5225   -0.4608   -0.1872 C   0  0  0  0  0  0  0  0  0  0  0  0
    3.1273   -0.2081   -1.2248 O   0  0  0  0  0  0  0  0  0  0  0  0
    3.1618   -0.6840    1.0027 N   0  0  0  0  0  0  0  0  0  0  0  0
    4.6186   -0.6833    1.1101 C   0  0  3  0  0  0  0  0  0  0  0  0
    5.1511    0.7627    1.2971 C   0  0  0  0  0  0  0  0  0  0  0  0
    5.4662    1.2250    2.3931 O   0  0  0  0  0  0  0  0  0  0  0  0
    5.1387    1.5081    0.1256 N   0  0  0  0  0  0  0  0  0  0  0  0
    5.5834    2.8570    0.0702 C   0  0  0  0  0  0  0  0  0  0  0  0
    6.7453    3.2555    0.7335 C   0  0  0  0  0  0  0  0  0  0  0  0
    7.2631    4.5025    0.6980 N   0  0  0  0  0  0  0  0  0  0  0  0
    6.5650    5.4168   -0.0138 C   0  0  0  0  0  0  0  0  0  0  0  0
    5.3783    5.1496   -0.6956 C   0  0  0  0  0  0  0  0  0  0  0  0
    4.6787    6.1666   -1.3692 C   0  0  0  0  0  0  0  0  0  0  0  0
    3.4676    5.8987   -1.9993 C   0  0  0  0  0  0  0  0  0  0  0  0
    2.9476    4.6099   -1.9768 C   0  0  0  0  0  0  0  0  0  0  0  0
    3.6411    3.5870   -1.3270 C   0  0  0  0  0  0  0  0  0  0  0  0
    4.8702    3.8274   -0.6681 C   0  0  0  0  0  0  0  0  0  0  0  0
    5.0429   -1.6314    2.2227 C   0  0  0  0  0  0  0  0  0  0  0  0
    4.6533   -1.4246    3.5572 C   0  0  0  0  0  0  0  0  0  0  0  0
    5.0182   -2.3289    4.5569 C   0  0  0  0  0  0  0  0  0  0  0  0
    5.7803   -3.4550    4.2411 C   0  0  0  0  0  0  0  0  0  0  0  0
    6.1772   -4.5417    5.5236 Cl  0  0  0  0  0  0  0  0  0  0  0  0
    6.1860   -3.6701    2.9207 C   0  0  0  0  0  0  0  0  0  0  0  0
    7.1340   -5.0372    2.4536 Cl  0  0  0  0  0  0  0  0  0  0  0  0
    5.8178   -2.7631    1.9187 C   0  0  0  0  0  0  0  0  0  0  0  0
    0.5844   -0.2521   -1.0610 H   0  0  0  0  0  0  0  0  0  0  0  0
    0.6736    0.2010    0.6552 H   0  0  0  0  0  0  0  0  0  0  0  0
    0.7001   -1.5232    0.1792 H   0  0  0  0  0  0  0  0  0  0  0  0
    2.6203   -0.7044    1.8572 H   0  0  0  0  0  0  0  0  0  0  0  0
    5.0309   -1.0490    0.1599 H   0  0  0  0  0  0  0  0  0  0  0  0
    4.5229    1.1739   -0.6157 H   0  0  0  0  0  0  0  0  0  0  0  0
    7.3428    2.5476    1.3050 H   0  0  0  0  0  0  0  0  0  0  0  0
    6.9996    6.4139   -0.0063 H   0  0  0  0  0  0  0  0  0  0  0  0
    5.0678    7.1824   -1.3818 H   0  0  0  0  0  0  0  0  0  0  0  0
    2.9247    6.6969   -2.4995 H   0  0  0  0  0  0  0  0  0  0  0  0
    1.9925    4.3992   -2.4530 H   0  0  0  0  0  0  0  0  0  0  0  0
    3.1824    2.6019   -1.3159 H   0  0  0  0  0  0  0  0  0  0  0  0
    4.0743   -0.5438    3.8356 H   0  0  0  0  0  0  0  0  0  0  0  0
    4.7079   -2.1446    5.5832 H   0  0  0  0  0  0  0  0  0  0  0  0
    6.1363   -2.9462    0.8943 H   0  0  0  0  0  0  0  0  0  0  0  0
  1  2  1  0  0  0  0
  1 27  1  0  0  0  0
  1 28  1  0  0  0  0
  1 29  1  0  0  0  0
  2  3  2  0  0  0  0
  2  4  1  0  0  0  0
  4  5  1  0  0  0  0
  4 30  1  0  0  0  0
  5  6  1  0  0  0  0
  5 19  1  0  0  0  0
  5 31  1  0  0  0  0
  6  7  2  0  0  0  0
  6  8  1  0  0  0  0
  8  9  1  0  0  0  0
  8 32  1  0  0  0  0
  9 10  1  0  0  0  0
  9 18  2  0  0  0  0
 10 11  2  0  0  0  0
 10 33  1  0  0  0  0
 11 12  1  0  0  0  0
 12 13  2  0  0  0  0
 12 34  1  0  0  0  0
 13 14  1  0  0  0  0
 13 18  1  0  0  0  0
 14 15  2  0  0  0  0
 14 35  1  0  0  0  0
 15 16  1  0  0  0  0
 15 36  1  0  0  0  0
 16 17  2  0  0  0  0
 16 37  1  0  0  0  0
 17 18  1  0  0  0  0
 17 38  1  0  0  0  0
 19 20  1  0  0  0  0
 19 26  2  0  0  0  0
 20 21  2  0  0  0  0
 20 39  1  0  0  0  0
 21 22  1  0  0  0  0
 21 40  1  0  0  0  0
 22 23  1  0  0  0  0
 22 24  2  0  0  0  0
 24 25  1  0  0  0  0
 24 26  1  0  0  0  0
 26 41  1  0  0  0  0
M  END
$$$$
