
 OpenBabel07202414183D

 46 49  0  0  1  0  0  0  0  0999 V2000
    3.0327   -0.9926    1.3841 F   0  0  0  0  0  0  0  0  0  0  0  0
    2.1454   -0.9333    0.3679 C   0  0  0  0  0  0  0  0  0  0  0  0
    1.3396   -2.0136    0.4735 F   0  0  0  0  0  0  0  0  0  0  0  0
    1.3846    0.1681    0.5643 F   0  0  0  0  0  0  0  0  0  0  0  0
    2.8236   -0.8839   -1.0263 C   0  0  0  0  0  0  0  0  0  0  0  0
    4.3079   -0.8666   -1.1780 N   0  0  0  0  0  0  0  0  0  0  0  0
    4.9183   -2.1006   -0.6363 C   0  0  0  0  0  0  0  0  0  0  0  0
    6.4121   -2.1826   -1.0010 C   0  0  3  0  0  0  0  0  0  0  0  0
    6.6051   -2.5087   -2.4929 C   0  0  0  0  0  0  0  0  0  0  0  0
    7.2807   -3.4750   -2.8415 O   0  0  0  0  0  0  0  0  0  0  0  0
    5.9697   -1.6208   -3.3425 N   0  0  0  0  0  0  0  0  0  0  0  0
    5.7943   -1.7020   -4.7451 C   0  0  0  0  0  0  0  0  0  0  0  0
    6.2176   -2.7998   -5.4918 C   0  0  0  0  0  0  0  0  0  0  0  0
    5.9257   -2.9934   -6.7999 N   0  0  0  0  0  0  0  0  0  0  0  0
    5.2141   -2.0261   -7.4098 C   0  0  0  0  0  0  0  0  0  0  0  0
    4.8248   -0.8319   -6.8071 C   0  0  0  0  0  0  0  0  0  0  0  0
    4.1858    0.1777   -7.5512 C   0  0  0  0  0  0  0  0  0  0  0  0
    3.8398    1.3886   -6.9574 C   0  0  0  0  0  0  0  0  0  0  0  0
    4.0930    1.5872   -5.6075 C   0  0  0  0  0  0  0  0  0  0  0  0
    4.7091    0.5805   -4.8548 C   0  0  0  0  0  0  0  0  0  0  0  0
    5.1091   -0.6543   -5.4327 C   0  0  0  0  0  0  0  0  0  0  0  0
    7.1311   -0.9041   -0.5930 C   0  0  0  0  0  0  0  0  0  0  0  0
    8.5091   -0.9246   -0.3311 C   0  0  0  0  0  0  0  0  0  0  0  0
    9.1651    0.2486    0.0340 C   0  0  0  0  0  0  0  0  0  0  0  0
   10.8433    0.2103    0.4126 Cl  0  0  0  0  0  0  0  0  0  0  0  0
    8.4696    1.4533    0.1097 C   0  0  0  0  0  0  0  0  0  0  0  0
    7.0976    1.4778   -0.1391 C   0  0  0  0  0  0  0  0  0  0  0  0
    6.4126    0.2955   -0.4673 C   0  0  0  0  0  0  0  0  0  0  0  0
    4.8982    0.3385   -0.5685 C   0  0  0  0  0  0  0  0  0  0  0  0
    2.4352   -0.0044   -1.5550 H   0  0  0  0  0  0  0  0  0  0  0  0
    2.4476   -1.7346   -1.6090 H   0  0  0  0  0  0  0  0  0  0  0  0
    4.4076   -2.9805   -1.0462 H   0  0  0  0  0  0  0  0  0  0  0  0
    4.8113   -2.1417    0.4551 H   0  0  0  0  0  0  0  0  0  0  0  0
    6.8385   -3.0205   -0.4316 H   0  0  0  0  0  0  0  0  0  0  0  0
    5.4432   -0.8945   -2.8678 H   0  0  0  0  0  0  0  0  0  0  0  0
    6.8080   -3.6020   -5.0620 H   0  0  0  0  0  0  0  0  0  0  0  0
    4.9689   -2.2396   -8.4474 H   0  0  0  0  0  0  0  0  0  0  0  0
    3.9835    0.0364   -8.6109 H   0  0  0  0  0  0  0  0  0  0  0  0
    3.3869    2.1785   -7.5517 H   0  0  0  0  0  0  0  0  0  0  0  0
    3.8306    2.5330   -5.1394 H   0  0  0  0  0  0  0  0  0  0  0  0
    4.9075    0.8009   -3.8106 H   0  0  0  0  0  0  0  0  0  0  0  0
    9.0666   -1.8580   -0.3930 H   0  0  0  0  0  0  0  0  0  0  0  0
    8.9855    2.3694    0.3824 H   0  0  0  0  0  0  0  0  0  0  0  0
    6.5611    2.4217   -0.0520 H   0  0  0  0  0  0  0  0  0  0  0  0
    4.6175    1.1976   -1.1918 H   0  0  0  0  0  0  0  0  0  0  0  0
    4.5108    0.5117    0.4407 H   0  0  0  0  0  0  0  0  0  0  0  0
  1  2  1  0  0  0  0
  2  3  1  0  0  0  0
  2  4  1  0  0  0  0
  2  5  1  0  0  0  0
  5  6  1  0  0  0  0
  5 30  1  0  0  0  0
  5 31  1  0  0  0  0
  6  7  1  0  0  0  0
  6 29  1  0  0  0  0
  7  8  1  0  0  0  0
  7 32  1  0  0  0  0
  7 33  1  0  0  0  0
  8  9  1  0  0  0  0
  8 22  1  0  0  0  0
  8 34  1  0  0  0  0
  9 10  2  0  0  0  0
  9 11  1  0  0  0  0
 11 12  1  0  0  0  0
 11 35  1  0  0  0  0
 12 13  1  0  0  0  0
 12 21  2  0  0  0  0
 13 14  2  0  0  0  0
 13 36  1  0  0  0  0
 14 15  1  0  0  0  0
 15 16  2  0  0  0  0
 15 37  1  0  0  0  0
 16 17  1  0  0  0  0
 16 21  1  0  0  0  0
 17 18  2  0  0  0  0
 17 38  1  0  0  0  0
 18 19  1  0  0  0  0
 18 39  1  0  0  0  0
 19 20  2  0  0  0  0
 19 40  1  0  0  0  0
 20 21  1  0  0  0  0
 20 41  1  0  0  0  0
 22 23  1  0  0  0  0
 22 28  2  0  0  0  0
 23 24  2  0  0  0  0
 23 42  1  0  0  0  0
 24 25  1  0  0  0  0
 24 26  1  0  0  0  0
 26 27  2  0  0  0  0
 26 43  1  0  0  0  0
 27 28  1  0  0  0  0
 27 44  1  0  0  0  0
 28 29  1  0  0  0  0
 29 45  1  0  0  0  0
 29 46  1  0  0  0  0
M  END
$$$$
