
 OpenBabel07202414133D

 46 49  0  0  1  0  0  0  0  0999 V2000
    3.3930   -0.0648   -1.1777 C   0  0  0  0  0  0  0  0  0  0  0  0
    2.4792    0.2361    0.0097 C   0  0  0  0  0  0  0  0  0  0  0  0
    3.1175    0.0962    1.4343 C   0  0  3  0  0  0  0  0  0  0  0  0
    4.2255    1.1845    1.6383 C   0  0  0  0  0  0  0  0  0  0  0  0
    4.4689    2.0185    0.7665 O   0  0  0  0  0  0  0  0  0  0  0  0
    4.8631    1.1508    2.8705 N   0  0  0  0  0  0  0  0  0  0  0  0
    5.9949    1.9180    3.2742 C   0  0  0  0  0  0  0  0  0  0  0  0
    6.6559    2.8055    2.4209 C   0  0  0  0  0  0  0  0  0  0  0  0
    7.8339    3.4125    2.7002 N   0  0  0  0  0  0  0  0  0  0  0  0
    8.3605    3.1764    3.9164 C   0  0  0  0  0  0  0  0  0  0  0  0
    7.7415    2.4170    4.9056 C   0  0  0  0  0  0  0  0  0  0  0  0
    8.3053    2.3193    6.1904 C   0  0  0  0  0  0  0  0  0  0  0  0
    7.6794    1.5756    7.1858 C   0  0  0  0  0  0  0  0  0  0  0  0
    6.5034    0.9010    6.8978 C   0  0  0  0  0  0  0  0  0  0  0  0
    5.9371    0.9834    5.6211 C   0  0  0  0  0  0  0  0  0  0  0  0
    6.5293    1.7548    4.5869 C   0  0  0  0  0  0  0  0  0  0  0  0
    3.7744   -1.2987    1.5968 C   0  0  0  0  0  0  0  0  0  0  0  0
    2.7558   -2.3580    1.4099 N   0  0  0  0  0  0  0  0  0  0  0  0
    1.6641   -2.4692    2.6917 S   0  0  0  0  0  0  0  0  0  0  0  0
    0.4941   -3.1615    2.2072 O   0  0  0  0  0  0  0  0  0  0  0  0
    2.4243   -2.9263    3.8325 O   0  0  0  0  0  0  0  0  0  0  0  0
    1.2424   -0.7753    3.0134 C   0  0  0  0  0  0  0  0  0  0  0  0
    0.1559   -0.5559    3.8746 C   0  0  0  0  0  0  0  0  0  0  0  0
   -0.2412    0.7447    4.1768 C   0  0  0  0  0  0  0  0  0  0  0  0
    0.4406    1.8183    3.6138 C   0  0  0  0  0  0  0  0  0  0  0  0
   -0.0587    3.4255    3.9686 Cl  0  0  0  0  0  0  0  0  0  0  0  0
    1.5220    1.6036    2.7541 C   0  0  0  0  0  0  0  0  0  0  0  0
    1.9593    0.2978    2.4423 C   0  0  0  0  0  0  0  0  0  0  0  0
    2.8371    0.0748   -2.1109 H   0  0  0  0  0  0  0  0  0  0  0  0
    3.7533   -1.0968   -1.1692 H   0  0  0  0  0  0  0  0  0  0  0  0
    4.2585    0.6013   -1.2132 H   0  0  0  0  0  0  0  0  0  0  0  0
    1.6095   -0.4306   -0.0730 H   0  0  0  0  0  0  0  0  0  0  0  0
    2.0822    1.2515   -0.1192 H   0  0  0  0  0  0  0  0  0  0  0  0
    4.4951    0.5115    3.5615 H   0  0  0  0  0  0  0  0  0  0  0  0
    6.2744    3.0784    1.4435 H   0  0  0  0  0  0  0  0  0  0  0  0
    9.3304    3.6403    4.0814 H   0  0  0  0  0  0  0  0  0  0  0  0
    9.2276    2.8458    6.4304 H   0  0  0  0  0  0  0  0  0  0  0  0
    8.1051    1.5337    8.1851 H   0  0  0  0  0  0  0  0  0  0  0  0
    6.0079    0.3182    7.6730 H   0  0  0  0  0  0  0  0  0  0  0  0
    5.0016    0.4544    5.4723 H   0  0  0  0  0  0  0  0  0  0  0  0
    4.2507   -1.4327    2.5760 H   0  0  0  0  0  0  0  0  0  0  0  0
    4.5771   -1.4535    0.8678 H   0  0  0  0  0  0  0  0  0  0  0  0
    3.1655   -3.2824    1.2561 H   0  0  0  0  0  0  0  0  0  0  0  0
   -0.3858   -1.3968    4.3060 H   0  0  0  0  0  0  0  0  0  0  0  0
   -1.0866    0.9131    4.8395 H   0  0  0  0  0  0  0  0  0  0  0  0
    2.0100    2.4724    2.3119 H   0  0  0  0  0  0  0  0  0  0  0  0
  1  2  1  0  0  0  0
  1 29  1  0  0  0  0
  1 30  1  0  0  0  0
  1 31  1  0  0  0  0
  2  3  1  0  0  0  0
  2 32  1  0  0  0  0
  2 33  1  0  0  0  0
  3  4  1  0  0  0  0
  3 17  1  0  0  0  0
  3 28  1  0  0  0  0
  4  5  2  0  0  0  0
  4  6  1  0  0  0  0
  6  7  1  0  0  0  0
  6 34  1  0  0  0  0
  7  8  1  0  0  0  0
  7 16  2  0  0  0  0
  8  9  2  0  0  0  0
  8 35  1  0  0  0  0
  9 10  1  0  0  0  0
 10 11  2  0  0  0  0
 10 36  1  0  0  0  0
 11 12  1  0  0  0  0
 11 16  1  0  0  0  0
 12 13  2  0  0  0  0
 12 37  1  0  0  0  0
 13 14  1  0  0  0  0
 13 38  1  0  0  0  0
 14 15  2  0  0  0  0
 14 39  1  0  0  0  0
 15 16  1  0  0  0  0
 15 40  1  0  0  0  0
 17 18  1  0  0  0  0
 17 41  1  0  0  0  0
 17 42  1  0  0  0  0
 18 19  1  0  0  0  0
 18 43  1  0  0  0  0
 19 20  2  0  0  0  0
 19 21  2  0  0  0  0
 19 22  1  0  0  0  0
 22 23  1  0  0  0  0
 22 28  2  0  0  0  0
 23 24  2  0  0  0  0
 23 44  1  0  0  0  0
 24 25  1  0  0  0  0
 24 45  1  0  0  0  0
 25 26  1  0  0  0  0
 25 27  2  0  0  0  0
 27 28  1  0  0  0  0
 27 46  1  0  0  0  0
M  END
$$$$
