
 OpenBabel07202414123D

 44 45  0  0  0  0  0  0  0  0999 V2000
    3.0364   -0.5469    1.3579 C   0  0  0  0  0  0  0  0  0  0  0  0
    2.5191   -0.0755   -0.0083 C   0  0  0  0  0  0  0  0  0  0  0  0
    2.7208    1.4339   -0.1789 C   0  0  0  0  0  0  0  0  0  0  0  0
    3.0671   -0.8253   -1.1730 N   0  0  0  0  0  0  0  0  0  0  0  0
    2.1338   -1.5428   -2.0793 C   0  0  0  0  0  0  0  0  0  0  0  0
    1.9434   -2.9937   -1.6216 C   0  0  0  0  0  0  0  0  0  0  0  0
    0.7676   -0.8824   -2.2974 C   0  0  0  0  0  0  0  0  0  0  0  0
    4.4657   -0.8657   -1.3259 C   0  0  0  0  0  0  0  0  0  0  0  0
    5.2192   -0.3725   -0.4825 O   0  0  0  0  0  0  0  0  0  0  0  0
    5.0439   -1.5153   -2.5922 C   0  0  0  0  0  0  0  0  0  0  0  0
    6.4800   -1.9292   -2.3907 C   0  0  0  0  0  0  0  0  0  0  0  0
    6.9290   -3.1958   -2.2677 C   0  0  0  0  0  0  0  0  0  0  0  0
    8.3597   -3.4717   -2.0388 C   0  0  0  0  0  0  0  0  0  0  0  0
    8.8701   -4.7740   -1.9438 C   0  0  0  0  0  0  0  0  0  0  0  0
   10.2276   -4.9897   -1.6959 C   0  0  0  0  0  0  0  0  0  0  0  0
   11.0885   -3.9053   -1.5348 C   0  0  0  0  0  0  0  0  0  0  0  0
   10.5956   -2.6041   -1.6289 C   0  0  0  0  0  0  0  0  0  0  0  0
    9.2391   -2.3955   -1.8847 C   0  0  0  0  0  0  0  0  0  0  0  0
    8.7551   -1.0930   -2.0204 N   0  0  0  0  0  0  0  0  0  0  0  0
    7.4615   -0.7950   -2.3468 C   0  0  0  0  0  0  0  0  0  0  0  0
    7.1308    0.3566   -2.6147 O   0  0  0  0  0  0  0  0  0  0  0  0
    6.1355   -4.3240   -2.3183 O   0  0  0  0  0  0  0  0  0  0  0  0
    2.4987   -0.0313    2.1623 H   0  0  0  0  0  0  0  0  0  0  0  0
    4.0969   -0.3364    1.5160 H   0  0  0  0  0  0  0  0  0  0  0  0
    2.8822   -1.6228    1.4839 H   0  0  0  0  0  0  0  0  0  0  0  0
    1.4410   -0.2487    0.0312 H   0  0  0  0  0  0  0  0  0  0  0  0
    3.7774    1.7042   -0.2780 H   0  0  0  0  0  0  0  0  0  0  0  0
    2.3182    1.9837    0.6787 H   0  0  0  0  0  0  0  0  0  0  0  0
    2.2078    1.7925   -1.0777 H   0  0  0  0  0  0  0  0  0  0  0  0
    2.5913   -1.5662   -3.0719 H   0  0  0  0  0  0  0  0  0  0  0  0
    1.5496   -3.0417   -0.6011 H   0  0  0  0  0  0  0  0  0  0  0  0
    2.8900   -3.5431   -1.6336 H   0  0  0  0  0  0  0  0  0  0  0  0
    1.2466   -3.5238   -2.2809 H   0  0  0  0  0  0  0  0  0  0  0  0
    0.1209   -0.9538   -1.4175 H   0  0  0  0  0  0  0  0  0  0  0  0
    0.2370   -1.3841   -3.1162 H   0  0  0  0  0  0  0  0  0  0  0  0
    0.8773    0.1713   -2.5690 H   0  0  0  0  0  0  0  0  0  0  0  0
    4.9627   -0.7939   -3.4137 H   0  0  0  0  0  0  0  0  0  0  0  0
    4.4542   -2.3826   -2.8811 H   0  0  0  0  0  0  0  0  0  0  0  0
    8.2118   -5.6319   -2.0614 H   0  0  0  0  0  0  0  0  0  0  0  0
   10.6094   -6.0051   -1.6257 H   0  0  0  0  0  0  0  0  0  0  0  0
   12.1442   -4.0748   -1.3382 H   0  0  0  0  0  0  0  0  0  0  0  0
   11.2748   -1.7655   -1.5076 H   0  0  0  0  0  0  0  0  0  0  0  0
    9.3810   -0.3023   -1.9531 H   0  0  0  0  0  0  0  0  0  0  0  0
    5.2002   -4.0790   -2.3120 H   0  0  0  0  0  0  0  0  0  0  0  0
  1  2  1  0  0  0  0
  1 23  1  0  0  0  0
  1 24  1  0  0  0  0
  1 25  1  0  0  0  0
  2  3  1  0  0  0  0
  2  4  1  0  0  0  0
  2 26  1  0  0  0  0
  3 27  1  0  0  0  0
  3 28  1  0  0  0  0
  3 29  1  0  0  0  0
  4  5  1  0  0  0  0
  4  8  1  0  0  0  0
  5  6  1  0  0  0  0
  5  7  1  0  0  0  0
  5 30  1  0  0  0  0
  6 31  1  0  0  0  0
  6 32  1  0  0  0  0
  6 33  1  0  0  0  0
  7 34  1  0  0  0  0
  7 35  1  0  0  0  0
  7 36  1  0  0  0  0
  8  9  2  0  0  0  0
  8 10  1  0  0  0  0
 10 11  1  0  0  0  0
 10 37  1  0  0  0  0
 10 38  1  0  0  0  0
 11 12  2  0  0  0  0
 11 20  1  0  0  0  0
 12 13  1  0  0  0  0
 12 22  1  0  0  0  0
 13 14  1  0  0  0  0
 13 18  2  0  0  0  0
 14 15  2  0  0  0  0
 14 39  1  0  0  0  0
 15 16  1  0  0  0  0
 15 40  1  0  0  0  0
 16 17  2  0  0  0  0
 16 41  1  0  0  0  0
 17 18  1  0  0  0  0
 17 42  1  0  0  0  0
 18 19  1  0  0  0  0
 19 20  1  0  0  0  0
 19 43  1  0  0  0  0
 20 21  2  0  0  0  0
 22 44  1  0  0  0  0
M  END
$$$$
