
 OpenBabel07202414133D

 34 35  0  0  0  0  0  0  0  0999 V2000
    6.4818    1.3824   -2.5556 C   0  0  0  0  0  0  0  0  0  0  0  0
    5.3015    1.1256   -1.6337 C   0  0  0  0  0  0  0  0  0  0  0  0
    5.6115    1.6706   -0.2460 C   0  0  0  0  0  0  0  0  0  0  0  0
    4.4550    1.4747    0.7237 C   0  0  0  0  0  0  0  0  0  0  0  0
    4.9395    1.7564    2.1060 C   0  0  0  0  0  0  0  0  0  0  0  0
    5.2674    3.0231    2.5202 N   0  0  0  0  0  0  0  0  0  0  0  0
    5.6688    2.9336    3.8163 C   0  0  0  0  0  0  0  0  0  0  0  0
    5.5162    1.6029    4.1421 C   0  0  0  0  0  0  0  0  0  0  0  0
    5.1427    0.8637    3.0476 N   0  0  0  0  0  0  0  0  0  0  0  0
    5.4446    1.1080    5.5407 C   0  0  0  0  0  0  0  0  0  0  0  0
    5.3249    1.9527    6.5499 N   0  0  0  0  0  0  0  0  0  0  0  0
    4.3279    1.4089    7.3097 C   0  0  0  0  0  0  0  0  0  0  0  0
    4.0371    0.1306    6.8885 C   0  0  0  0  0  0  0  0  0  0  0  0
    4.9880   -0.1372    5.9248 N   0  0  0  0  0  0  0  0  0  0  0  0
    5.7712   -1.3568    5.9201 C   0  0  0  0  0  0  0  0  0  0  0  0
    5.5391   -2.3422    4.7967 C   0  0  0  0  0  0  0  0  0  0  0  0
    4.7779   -1.8839    3.7938 F   0  0  0  0  0  0  0  0  0  0  0  0
    6.7266   -2.7430    4.2757 F   0  0  0  0  0  0  0  0  0  0  0  0
    4.9386   -3.4623    5.2784 F   0  0  0  0  0  0  0  0  0  0  0  0
    6.2884    0.9774   -3.5501 H   0  0  0  0  0  0  0  0  0  0  0  0
    7.3906    0.9141   -2.1608 H   0  0  0  0  0  0  0  0  0  0  0  0
    6.6696    2.4576   -2.6525 H   0  0  0  0  0  0  0  0  0  0  0  0
    5.1096    0.0473   -1.5761 H   0  0  0  0  0  0  0  0  0  0  0  0
    4.4005    1.5987   -2.0398 H   0  0  0  0  0  0  0  0  0  0  0  0
    5.8495    2.7402   -0.3153 H   0  0  0  0  0  0  0  0  0  0  0  0
    6.5054    1.1718    0.1410 H   0  0  0  0  0  0  0  0  0  0  0  0
    4.0840    0.4432    0.6806 H   0  0  0  0  0  0  0  0  0  0  0  0
    3.6114    2.1328    0.4697 H   0  0  0  0  0  0  0  0  0  0  0  0
    5.1736    3.8697    1.9730 H   0  0  0  0  0  0  0  0  0  0  0  0
    5.8948    3.8016    4.4186 H   0  0  0  0  0  0  0  0  0  0  0  0
    3.8622    1.9774    8.1013 H   0  0  0  0  0  0  0  0  0  0  0  0
    3.3284   -0.6106    7.2260 H   0  0  0  0  0  0  0  0  0  0  0  0
    5.5561   -1.8646    6.8713 H   0  0  0  0  0  0  0  0  0  0  0  0
    6.8271   -1.0722    5.9705 H   0  0  0  0  0  0  0  0  0  0  0  0
  1  2  1  0  0  0  0
  1 20  1  0  0  0  0
  1 21  1  0  0  0  0
  1 22  1  0  0  0  0
  2  3  1  0  0  0  0
  2 23  1  0  0  0  0
  2 24  1  0  0  0  0
  3  4  1  0  0  0  0
  3 25  1  0  0  0  0
  3 26  1  0  0  0  0
  4  5  1  0  0  0  0
  4 27  1  0  0  0  0
  4 28  1  0  0  0  0
  5  6  1  0  0  0  0
  5  9  2  0  0  0  0
  6  7  1  0  0  0  0
  6 29  1  0  0  0  0
  7  8  2  0  0  0  0
  7 30  1  0  0  0  0
  8  9  1  0  0  0  0
  8 10  1  0  0  0  0
 10 11  2  0  0  0  0
 10 14  1  0  0  0  0
 11 12  1  0  0  0  0
 12 13  2  0  0  0  0
 12 31  1  0  0  0  0
 13 14  1  0  0  0  0
 13 32  1  0  0  0  0
 14 15  1  0  0  0  0
 15 16  1  0  0  0  0
 15 33  1  0  0  0  0
 15 34  1  0  0  0  0
 16 17  1  0  0  0  0
 16 18  1  0  0  0  0
 16 19  1  0  0  0  0
M  END
$$$$
