
 OpenBabel07202414163D

 47 50  0  0  0  0  0  0  0  0999 V2000
    0.6368   -7.5589   -1.6058 Cl  0  0  0  0  0  0  0  0  0  0  0  0
    1.1742   -5.9891   -1.1507 C   0  0  0  0  0  0  0  0  0  0  0  0
    0.3329   -4.8924   -1.3116 C   0  0  0  0  0  0  0  0  0  0  0  0
    0.7542   -3.6202   -0.9174 C   0  0  0  0  0  0  0  0  0  0  0  0
   -0.1266   -2.5368   -1.2238 C   0  0  0  0  0  0  0  0  0  0  0  0
   -0.9050   -1.7284   -1.5313 N   0  0  0  0  0  0  0  0  0  0  0  0
    2.0394   -3.4275   -0.3494 C   0  0  0  0  0  0  0  0  0  0  0  0
    2.4606   -2.1708    0.1661 N   0  0  0  0  0  0  0  0  0  0  0  0
    3.7997   -1.6962    0.2219 C   0  0  0  0  0  0  0  0  0  0  0  0
    4.2235   -0.8755    1.2827 C   0  0  0  0  0  0  0  0  0  0  0  0
    5.4741   -0.2283    1.2645 C   0  0  0  0  0  0  0  0  0  0  0  0
    5.8622    0.7283    2.3780 C   0  0  0  0  0  0  0  0  0  0  0  0
    5.9560    0.0913    3.7602 C   0  0  0  0  0  0  0  0  0  0  0  0
    6.3557   -1.0536    3.9391 O   0  0  0  0  0  0  0  0  0  0  0  0
    5.5371    0.9258    4.7994 N   0  0  0  0  0  0  0  0  0  0  0  0
    5.5649    0.4702    6.1481 C   0  0  0  0  0  0  0  0  0  0  0  0
    6.7420   -0.0373    6.6988 C   0  0  0  0  0  0  0  0  0  0  0  0
    6.8689   -0.4465    7.9810 N   0  0  0  0  0  0  0  0  0  0  0  0
    5.7581   -0.3705    8.7457 C   0  0  0  0  0  0  0  0  0  0  0  0
    4.5184    0.1003    8.3034 C   0  0  0  0  0  0  0  0  0  0  0  0
    3.3953    0.1309    9.1486 C   0  0  0  0  0  0  0  0  0  0  0  0
    2.1605    0.5765    8.6795 C   0  0  0  0  0  0  0  0  0  0  0  0
    2.0323    0.9812    7.3562 C   0  0  0  0  0  0  0  0  0  0  0  0
    3.1408    0.9590    6.5070 C   0  0  0  0  0  0  0  0  0  0  0  0
    4.4119    0.5327    6.9626 C   0  0  0  0  0  0  0  0  0  0  0  0
    6.3074   -0.4192    0.1482 C   0  0  0  0  0  0  0  0  0  0  0  0
    5.9213   -1.2872   -0.8735 C   0  0  0  0  0  0  0  0  0  0  0  0
    6.9537   -1.5299   -2.2331 Cl  0  0  0  0  0  0  0  0  0  0  0  0
    4.6840   -1.9251   -0.8391 C   0  0  0  0  0  0  0  0  0  0  0  0
    2.8637   -4.5558   -0.2088 C   0  0  0  0  0  0  0  0  0  0  0  0
    2.4389   -5.8161   -0.6240 C   0  0  0  0  0  0  0  0  0  0  0  0
   -0.6620   -5.0382   -1.7453 H   0  0  0  0  0  0  0  0  0  0  0  0
    1.9503   -1.9469    1.0209 H   0  0  0  0  0  0  0  0  0  0  0  0
    3.5675   -0.7245    2.1388 H   0  0  0  0  0  0  0  0  0  0  0  0
    5.1330    1.5467    2.3872 H   0  0  0  0  0  0  0  0  0  0  0  0
    6.8426    1.1785    2.1724 H   0  0  0  0  0  0  0  0  0  0  0  0
    4.8372    1.6186    4.5672 H   0  0  0  0  0  0  0  0  0  0  0  0
    7.6598   -0.0917    6.1184 H   0  0  0  0  0  0  0  0  0  0  0  0
    5.8981   -0.7147    9.7684 H   0  0  0  0  0  0  0  0  0  0  0  0
    3.4736   -0.1970   10.1858 H   0  0  0  0  0  0  0  0  0  0  0  0
    1.2991    0.6008    9.3418 H   0  0  0  0  0  0  0  0  0  0  0  0
    1.0676    1.3134    6.9795 H   0  0  0  0  0  0  0  0  0  0  0  0
    2.9826    1.2485    5.4737 H   0  0  0  0  0  0  0  0  0  0  0  0
    7.2492    0.1148    0.0587 H   0  0  0  0  0  0  0  0  0  0  0  0
    4.3892   -2.5614   -1.6701 H   0  0  0  0  0  0  0  0  0  0  0  0
    3.8475   -4.4511    0.2225 H   0  0  0  0  0  0  0  0  0  0  0  0
    3.1208   -6.6659   -0.5101 H   0  0  0  0  0  0  0  0  0  0  0  0
  1  2  1  0  0  0  0
  2  3  2  0  0  0  0
  2 31  1  0  0  0  0
  3  4  1  0  0  0  0
  3 32  1  0  0  0  0
  4  5  1  0  0  0  0
  4  7  2  0  0  0  0
  5  6  3  0  0  0  0
  7  8  1  0  0  0  0
  7 30  1  0  0  0  0
  8  9  1  0  0  0  0
  8 33  1  0  0  0  0
  9 10  2  0  0  0  0
  9 29  1  0  0  0  0
 10 11  1  0  0  0  0
 10 34  1  0  0  0  0
 11 12  1  0  0  0  0
 11 26  2  0  0  0  0
 12 13  1  0  0  0  0
 12 35  1  0  0  0  0
 12 36  1  0  0  0  0
 13 14  2  0  0  0  0
 13 15  1  0  0  0  0
 15 16  1  0  0  0  0
 15 37  1  0  0  0  0
 16 17  2  0  0  0  0
 16 25  1  0  0  0  0
 17 18  1  0  0  0  0
 17 38  1  0  0  0  0
 18 19  2  0  0  0  0
 19 20  1  0  0  0  0
 19 39  1  0  0  0  0
 20 21  2  0  0  0  0
 20 25  1  0  0  0  0
 21 22  1  0  0  0  0
 21 40  1  0  0  0  0
 22 23  2  0  0  0  0
 22 41  1  0  0  0  0
 23 24  1  0  0  0  0
 23 42  1  0  0  0  0
 24 25  2  0  0  0  0
 24 43  1  0  0  0  0
 26 27  1  0  0  0  0
 26 44  1  0  0  0  0
 27 28  1  0  0  0  0
 27 29  2  0  0  0  0
 29 45  1  0  0  0  0
 30 31  2  0  0  0  0
 30 46  1  0  0  0  0
 31 47  1  0  0  0  0
M  END
$$$$
