
 OpenBabel07202414123D

 63 67  0  0  1  0  0  0  0  0999 V2000
    4.9381   -0.9805    2.7532 C   0  0  0  0  0  0  0  0  0  0  0  0
    5.4151    0.1554    3.6620 C   0  0  0  0  0  0  0  0  0  0  0  0
    5.8157   -0.4115    5.0256 C   0  0  0  0  0  0  0  0  0  0  0  0
    6.5860    0.9308    3.0367 C   0  0  0  0  0  0  0  0  0  0  0  0
    6.2248    1.5630    1.7831 N   0  0  0  0  0  0  0  0  0  0  0  0
    7.1520    2.2329    1.0067 C   0  0  0  0  0  0  0  0  0  0  0  0
    8.3275    2.3617    1.3398 O   0  0  0  0  0  0  0  0  0  0  0  0
    6.5670    2.7411   -0.3271 C   0  0  0  0  0  0  0  0  0  0  0  0
    7.2298    3.9575   -0.7856 N   0  0  0  0  0  0  0  0  0  0  0  0
    7.0863    5.1275    0.0688 C   0  0  0  0  0  0  0  0  0  0  0  0
    6.2062    6.2438   -0.4559 C   0  0  0  0  0  0  0  0  0  0  0  0
    5.9708    7.3398    0.4007 C   0  0  0  0  0  0  0  0  0  0  0  0
    5.2526    8.4546   -0.0308 C   0  0  0  0  0  0  0  0  0  0  0  0
    4.7495    8.4808   -1.3227 C   0  0  0  0  0  0  0  0  0  0  0  0
    3.9062    9.8696   -1.8891 Cl  0  0  0  0  0  0  0  0  0  0  0  0
    4.9528    7.4000   -2.1793 C   0  0  0  0  0  0  0  0  0  0  0  0
    5.7019    6.2748   -1.7710 C   0  0  0  0  0  0  0  0  0  0  0  0
    5.9943    5.1310   -2.7479 C   0  0  3  0  0  0  0  0  0  0  0  0
    6.5095    5.6745   -4.0967 C   0  0  0  0  0  0  0  0  0  0  0  0
    5.4000    5.5022   -5.0983 C   0  0  0  0  0  0  0  0  0  0  0  0
    4.3064    4.8402   -4.4454 N   0  0  0  0  0  0  0  0  0  0  0  0
    2.9567    5.0633   -4.9201 C   0  0  0  0  0  0  0  0  0  0  0  0
    1.8882    5.1127   -4.0241 C   0  0  0  0  0  0  0  0  0  0  0  0
    0.7177    5.7596   -4.2612 N   0  0  0  0  0  0  0  0  0  0  0  0
    0.5550    6.2979   -5.4852 C   0  0  0  0  0  0  0  0  0  0  0  0
    1.4261    6.0861   -6.5448 C   0  0  0  0  0  0  0  0  0  0  0  0
    1.0747    6.4840   -7.8557 C   0  0  0  0  0  0  0  0  0  0  0  0
    1.9305    6.2230   -8.9342 C   0  0  0  0  0  0  0  0  0  0  0  0
    3.1441    5.6000   -8.6997 C   0  0  0  0  0  0  0  0  0  0  0  0
    3.4868    5.2086   -7.4004 C   0  0  0  0  0  0  0  0  0  0  0  0
    2.6582    5.4432   -6.2731 C   0  0  0  0  0  0  0  0  0  0  0  0
    4.6776    4.4109   -3.1496 C   0  0  0  0  0  0  0  0  0  0  0  0
    4.0367    3.6554   -2.4297 O   0  0  0  0  0  0  0  0  0  0  0  0
    7.1247    4.2161   -2.2121 C   0  0  0  0  0  0  0  0  0  0  0  0
    4.0872   -1.5044    3.2023 H   0  0  0  0  0  0  0  0  0  0  0  0
    5.7349   -1.7123    2.5835 H   0  0  0  0  0  0  0  0  0  0  0  0
    4.6117   -0.6027    1.7792 H   0  0  0  0  0  0  0  0  0  0  0  0
    4.5747    0.8458    3.8125 H   0  0  0  0  0  0  0  0  0  0  0  0
    6.6487   -1.1172    4.9343 H   0  0  0  0  0  0  0  0  0  0  0  0
    4.9759   -0.9422    5.4880 H   0  0  0  0  0  0  0  0  0  0  0  0
    6.1211    0.3875    5.7090 H   0  0  0  0  0  0  0  0  0  0  0  0
    7.4389    0.2678    2.8492 H   0  0  0  0  0  0  0  0  0  0  0  0
    6.9279    1.7210    3.7142 H   0  0  0  0  0  0  0  0  0  0  0  0
    5.2457    1.6568    1.5484 H   0  0  0  0  0  0  0  0  0  0  0  0
    5.4870    2.8891   -0.2446 H   0  0  0  0  0  0  0  0  0  0  0  0
    6.7581    1.9210   -1.0322 H   0  0  0  0  0  0  0  0  0  0  0  0
    8.0887    5.5539    0.2107 H   0  0  0  0  0  0  0  0  0  0  0  0
    6.7313    4.8483    1.0693 H   0  0  0  0  0  0  0  0  0  0  0  0
    6.3770    7.3382    1.4116 H   0  0  0  0  0  0  0  0  0  0  0  0
    5.1035    9.2975    0.6382 H   0  0  0  0  0  0  0  0  0  0  0  0
    4.5429    7.4607   -3.1840 H   0  0  0  0  0  0  0  0  0  0  0  0
    7.3774    5.1138   -4.4674 H   0  0  0  0  0  0  0  0  0  0  0  0
    6.8431    6.7175   -4.0478 H   0  0  0  0  0  0  0  0  0  0  0  0
    5.7657    4.8409   -5.8860 H   0  0  0  0  0  0  0  0  0  0  0  0
    5.1030    6.4715   -5.5100 H   0  0  0  0  0  0  0  0  0  0  0  0
    1.9386    4.6723   -3.0337 H   0  0  0  0  0  0  0  0  0  0  0  0
   -0.3334    6.9172   -5.5983 H   0  0  0  0  0  0  0  0  0  0  0  0
    0.1141    6.9433   -8.0672 H   0  0  0  0  0  0  0  0  0  0  0  0
    1.6377    6.4813   -9.9489 H   0  0  0  0  0  0  0  0  0  0  0  0
    3.8215    5.3886   -9.5246 H   0  0  0  0  0  0  0  0  0  0  0  0
    4.4071    4.6464   -7.3049 H   0  0  0  0  0  0  0  0  0  0  0  0
    8.0823    4.7058   -2.4501 H   0  0  0  0  0  0  0  0  0  0  0  0
    7.1536    3.2773   -2.7808 H   0  0  0  0  0  0  0  0  0  0  0  0
  1  2  1  0  0  0  0
  1 35  1  0  0  0  0
  1 36  1  0  0  0  0
  1 37  1  0  0  0  0
  2  3  1  0  0  0  0
  2  4  1  0  0  0  0
  2 38  1  0  0  0  0
  3 39  1  0  0  0  0
  3 40  1  0  0  0  0
  3 41  1  0  0  0  0
  4  5  1  0  0  0  0
  4 42  1  0  0  0  0
  4 43  1  0  0  0  0
  5  6  1  0  0  0  0
  5 44  1  0  0  0  0
  6  7  2  0  0  0  0
  6  8  1  0  0  0  0
  8  9  1  0  0  0  0
  8 45  1  0  0  0  0
  8 46  1  0  0  0  0
  9 10  1  0  0  0  0
  9 34  1  0  0  0  0
 10 11  1  0  0  0  0
 10 47  1  0  0  0  0
 10 48  1  0  0  0  0
 11 12  1  0  0  0  0
 11 17  2  0  0  0  0
 12 13  2  0  0  0  0
 12 49  1  0  0  0  0
 13 14  1  0  0  0  0
 13 50  1  0  0  0  0
 14 15  1  0  0  0  0
 14 16  2  0  0  0  0
 16 17  1  0  0  0  0
 16 51  1  0  0  0  0
 17 18  1  0  0  0  0
 18 19  1  0  0  0  0
 18 32  1  0  0  0  0
 18 34  1  0  0  0  0
 19 20  1  0  0  0  0
 19 52  1  0  0  0  0
 19 53  1  0  0  0  0
 20 21  1  0  0  0  0
 20 54  1  0  0  0  0
 20 55  1  0  0  0  0
 21 22  1  0  0  0  0
 21 32  1  0  0  0  0
 22 23  1  0  0  0  0
 22 31  2  0  0  0  0
 23 24  2  0  0  0  0
 23 56  1  0  0  0  0
 24 25  1  0  0  0  0
 25 26  2  0  0  0  0
 25 57  1  0  0  0  0
 26 27  1  0  0  0  0
 26 31  1  0  0  0  0
 27 28  2  0  0  0  0
 27 58  1  0  0  0  0
 28 29  1  0  0  0  0
 28 59  1  0  0  0  0
 29 30  2  0  0  0  0
 29 60  1  0  0  0  0
 30 31  1  0  0  0  0
 30 61  1  0  0  0  0
 32 33  2  0  0  0  0
 34 62  1  0  0  0  0
 34 63  1  0  0  0  0
M  END
$$$$
