
 OpenBabel07202414203D

 39 42  0  0  1  0  0  0  0  0999 V2000
    4.8431   -0.6153   -0.3655 C   0  0  0  0  0  0  0  0  0  0  0  0
    4.8257    0.6859    0.1225 C   0  0  0  0  0  0  0  0  0  0  0  0
    3.6658    1.4660    0.0426 C   0  0  0  0  0  0  0  0  0  0  0  0
    2.4713    0.9659   -0.5338 C   0  0  0  0  0  0  0  0  0  0  0  0
    2.5251   -0.3639   -1.0354 C   0  0  0  0  0  0  0  0  0  0  0  0
    3.6966   -1.1364   -0.9461 C   0  0  0  0  0  0  0  0  0  0  0  0
    1.3886   -0.9000   -1.6319 C   0  0  0  0  0  0  0  0  0  0  0  0
    0.2176   -0.2509   -1.7588 N   0  0  0  0  0  0  0  0  0  0  0  0
    0.1815    1.0164   -1.2829 C   0  0  0  0  0  0  0  0  0  0  0  0
    1.2498    1.6921   -0.6742 C   0  0  0  0  0  0  0  0  0  0  0  0
    1.0953    3.0322   -0.1805 N   0  0  0  0  0  0  0  0  0  0  0  0
    0.1066    3.8984   -0.6206 C   0  0  0  0  0  0  0  0  0  0  0  0
   -0.6039    3.6729   -1.6044 O   0  0  0  0  0  0  0  0  0  0  0  0
   -0.1199    5.2079    0.1287 C   0  0  3  0  0  0  0  0  0  0  0  0
   -0.3999    5.0615    1.6188 C   0  0  0  0  0  0  0  0  0  0  0  0
   -0.9117    6.4190    2.0904 C   0  0  0  0  0  0  0  0  0  0  0  0
    0.0825    7.4398    1.9660 O   0  0  0  0  0  0  0  0  0  0  0  0
    0.7961    7.4436    0.7956 C   0  0  0  0  0  0  0  0  0  0  0  0
    0.8311    6.3605   -0.1059 C   0  0  0  0  0  0  0  0  0  0  0  0
    1.6173    6.4735   -1.2629 C   0  0  0  0  0  0  0  0  0  0  0  0
    2.3334    7.6497   -1.5142 C   0  0  0  0  0  0  0  0  0  0  0  0
    2.2672    8.7149   -0.6188 C   0  0  0  0  0  0  0  0  0  0  0  0
    1.5133    8.6126    0.5423 C   0  0  0  0  0  0  0  0  0  0  0  0
    2.9154    9.8629   -0.8667 F   0  0  0  0  0  0  0  0  0  0  0  0
    3.2668    7.7791   -2.9552 Cl  0  0  0  0  0  0  0  0  0  0  0  0
    5.7434   -1.2195   -0.3035 H   0  0  0  0  0  0  0  0  0  0  0  0
    5.7325    1.0986    0.5663 H   0  0  0  0  0  0  0  0  0  0  0  0
    3.7226    2.4796    0.4272 H   0  0  0  0  0  0  0  0  0  0  0  0
    3.7152   -2.1547   -1.3326 H   0  0  0  0  0  0  0  0  0  0  0  0
    1.3825   -1.9059   -2.0443 H   0  0  0  0  0  0  0  0  0  0  0  0
   -0.8011    1.4643   -1.3891 H   0  0  0  0  0  0  0  0  0  0  0  0
    1.8290    3.4060    0.4057 H   0  0  0  0  0  0  0  0  0  0  0  0
   -1.0653    5.5675   -0.3135 H   0  0  0  0  0  0  0  0  0  0  0  0
    0.5125    4.7949    2.1663 H   0  0  0  0  0  0  0  0  0  0  0  0
   -1.1494    4.2854    1.8058 H   0  0  0  0  0  0  0  0  0  0  0  0
   -1.2023    6.3704    3.1446 H   0  0  0  0  0  0  0  0  0  0  0  0
   -1.8036    6.7321    1.5304 H   0  0  0  0  0  0  0  0  0  0  0  0
    1.6489    5.6702   -1.9964 H   0  0  0  0  0  0  0  0  0  0  0  0
    1.4629    9.4540    1.2270 H   0  0  0  0  0  0  0  0  0  0  0  0
  1  2  1  0  0  0  0
  1  6  2  0  0  0  0
  1 26  1  0  0  0  0
  2  3  2  0  0  0  0
  2 27  1  0  0  0  0
  3  4  1  0  0  0  0
  3 28  1  0  0  0  0
  4  5  1  0  0  0  0
  4 10  2  0  0  0  0
  5  6  1  0  0  0  0
  5  7  2  0  0  0  0
  6 29  1  0  0  0  0
  7  8  1  0  0  0  0
  7 30  1  0  0  0  0
  8  9  2  0  0  0  0
  9 10  1  0  0  0  0
  9 31  1  0  0  0  0
 10 11  1  0  0  0  0
 11 12  1  0  0  0  0
 11 32  1  0  0  0  0
 12 13  2  0  0  0  0
 12 14  1  0  0  0  0
 14 15  1  0  0  0  0
 14 19  1  0  0  0  0
 14 33  1  0  0  0  0
 15 16  1  0  0  0  0
 15 34  1  0  0  0  0
 15 35  1  0  0  0  0
 16 17  1  0  0  0  0
 16 36  1  0  0  0  0
 16 37  1  0  0  0  0
 17 18  1  0  0  0  0
 18 19  1  0  0  0  0
 18 23  2  0  0  0  0
 19 20  2  0  0  0  0
 20 21  1  0  0  0  0
 20 38  1  0  0  0  0
 21 22  2  0  0  0  0
 21 25  1  0  0  0  0
 22 23  1  0  0  0  0
 22 24  1  0  0  0  0
 23 39  1  0  0  0  0
M  END
$$$$
