
 OpenBabel07202414133D

 61 64  0  0  0  0  0  0  0  0999 V2000
    5.7561   -0.9885   -4.3956 C   0  0  0  0  0  0  0  0  0  0  0  0
    5.0663   -0.2649   -3.3436 N   0  0  0  0  0  0  0  0  0  0  0  0
    3.9390    0.5751   -3.7193 C   0  0  0  0  0  0  0  0  0  0  0  0
    5.7258   -0.1435   -2.1176 C   0  0  0  0  0  0  0  0  0  0  0  0
    6.7853   -0.7381   -1.8894 O   0  0  0  0  0  0  0  0  0  0  0  0
    5.0913    0.7374   -1.0316 C   0  0  0  0  0  0  0  0  0  0  0  0
    5.0702    2.1661   -1.4163 N   0  0  0  0  0  0  0  0  0  0  0  0
    6.4313    2.7095   -1.6418 C   0  0  0  0  0  0  0  0  0  0  0  0
    7.2878    2.8598   -0.3662 C   0  0  0  0  0  0  0  0  0  0  0  0
    6.5684    3.6977    0.6179 N   0  0  0  0  0  0  0  0  0  0  0  0
    7.2760    4.5188    1.4832 C   0  0  0  0  0  0  0  0  0  0  0  0
    8.4441    5.1795    1.0527 C   0  0  0  0  0  0  0  0  0  0  0  0
    9.1826    6.0501    1.8731 C   0  0  0  0  0  0  0  0  0  0  0  0
   10.3860    6.7789    1.3207 C   0  0  0  0  0  0  0  0  0  0  0  0
   11.4903    5.9053    0.7482 C   0  0  0  0  0  0  0  0  0  0  0  0
   11.9840    6.1536   -0.3497 O   0  0  0  0  0  0  0  0  0  0  0  0
   11.8968    4.8717    1.5706 N   0  0  0  0  0  0  0  0  0  0  0  0
   12.9747    4.0098    1.2511 C   0  0  0  0  0  0  0  0  0  0  0  0
   14.1633    4.5089    0.7127 C   0  0  0  0  0  0  0  0  0  0  0  0
   15.2610    3.7595    0.4544 N   0  0  0  0  0  0  0  0  0  0  0  0
   15.1558    2.4383    0.7109 C   0  0  0  0  0  0  0  0  0  0  0  0
   14.0144    1.8173    1.2208 C   0  0  0  0  0  0  0  0  0  0  0  0
   13.9667    0.4257    1.4213 C   0  0  0  0  0  0  0  0  0  0  0  0
   12.8007   -0.1845    1.8823 C   0  0  0  0  0  0  0  0  0  0  0  0
   11.6795    0.5890    2.1557 C   0  0  0  0  0  0  0  0  0  0  0  0
   11.7193    1.9729    1.9732 C   0  0  0  0  0  0  0  0  0  0  0  0
   12.8864    2.6221    1.5113 C   0  0  0  0  0  0  0  0  0  0  0  0
    8.7234    6.2995    3.1659 C   0  0  0  0  0  0  0  0  0  0  0  0
    7.5556    5.6864    3.6099 C   0  0  0  0  0  0  0  0  0  0  0  0
    6.9643    6.0360    5.1899 Cl  0  0  0  0  0  0  0  0  0  0  0  0
    6.8451    4.8083    2.7850 C   0  0  0  0  0  0  0  0  0  0  0  0
    5.2132    3.2045    0.9304 C   0  0  0  0  0  0  0  0  0  0  0  0
    4.4074    2.9876   -0.3778 C   0  0  0  0  0  0  0  0  0  0  0  0
    5.1500   -1.0351   -5.3040 H   0  0  0  0  0  0  0  0  0  0  0  0
    5.9509   -2.0078   -4.0482 H   0  0  0  0  0  0  0  0  0  0  0  0
    6.7106   -0.4998   -4.6124 H   0  0  0  0  0  0  0  0  0  0  0  0
    3.5057    0.2368   -4.6639 H   0  0  0  0  0  0  0  0  0  0  0  0
    4.2684    1.6114   -3.8315 H   0  0  0  0  0  0  0  0  0  0  0  0
    3.1668    0.5130   -2.9479 H   0  0  0  0  0  0  0  0  0  0  0  0
    5.6477    0.5707   -0.1022 H   0  0  0  0  0  0  0  0  0  0  0  0
    4.0739    0.3708   -0.8566 H   0  0  0  0  0  0  0  0  0  0  0  0
    6.3187    3.7032   -2.0986 H   0  0  0  0  0  0  0  0  0  0  0  0
    6.9737    2.1157   -2.3855 H   0  0  0  0  0  0  0  0  0  0  0  0
    8.2538    3.2690   -0.6707 H   0  0  0  0  0  0  0  0  0  0  0  0
    7.4999    1.8806    0.0793 H   0  0  0  0  0  0  0  0  0  0  0  0
    8.7722    5.0734    0.0209 H   0  0  0  0  0  0  0  0  0  0  0  0
   10.8432    7.4121    2.0891 H   0  0  0  0  0  0  0  0  0  0  0  0
   10.0349    7.4453    0.5225 H   0  0  0  0  0  0  0  0  0  0  0  0
   11.2273    4.5442    2.2546 H   0  0  0  0  0  0  0  0  0  0  0  0
   14.2920    5.5672    0.5064 H   0  0  0  0  0  0  0  0  0  0  0  0
   16.0501    1.8669    0.4736 H   0  0  0  0  0  0  0  0  0  0  0  0
   14.8299   -0.1976    1.1931 H   0  0  0  0  0  0  0  0  0  0  0  0
   12.7649   -1.2616    2.0149 H   0  0  0  0  0  0  0  0  0  0  0  0
   10.7599    0.1149    2.4896 H   0  0  0  0  0  0  0  0  0  0  0  0
   10.8068    2.5261    2.1670 H   0  0  0  0  0  0  0  0  0  0  0  0
    9.2491    6.9935    3.8167 H   0  0  0  0  0  0  0  0  0  0  0  0
    5.9422    4.3585    3.1860 H   0  0  0  0  0  0  0  0  0  0  0  0
    4.6454    3.9231    1.5313 H   0  0  0  0  0  0  0  0  0  0  0  0
    5.2804    2.2688    1.4988 H   0  0  0  0  0  0  0  0  0  0  0  0
    4.2098    3.9748   -0.8185 H   0  0  0  0  0  0  0  0  0  0  0  0
    3.4205    2.5713   -0.1419 H   0  0  0  0  0  0  0  0  0  0  0  0
  1  2  1  0  0  0  0
  1 34  1  0  0  0  0
  1 35  1  0  0  0  0
  1 36  1  0  0  0  0
  2  3  1  0  0  0  0
  2  4  1  0  0  0  0
  3 37  1  0  0  0  0
  3 38  1  0  0  0  0
  3 39  1  0  0  0  0
  4  5  2  0  0  0  0
  4  6  1  0  0  0  0
  6  7  1  0  0  0  0
  6 40  1  0  0  0  0
  6 41  1  0  0  0  0
  7  8  1  0  0  0  0
  7 33  1  0  0  0  0
  8  9  1  0  0  0  0
  8 42  1  0  0  0  0
  8 43  1  0  0  0  0
  9 10  1  0  0  0  0
  9 44  1  0  0  0  0
  9 45  1  0  0  0  0
 10 11  1  0  0  0  0
 10 32  1  0  0  0  0
 11 12  2  0  0  0  0
 11 31  1  0  0  0  0
 12 13  1  0  0  0  0
 12 46  1  0  0  0  0
 13 14  1  0  0  0  0
 13 28  2  0  0  0  0
 14 15  1  0  0  0  0
 14 47  1  0  0  0  0
 14 48  1  0  0  0  0
 15 16  2  0  0  0  0
 15 17  1  0  0  0  0
 17 18  1  0  0  0  0
 17 49  1  0  0  0  0
 18 19  2  0  0  0  0
 18 27  1  0  0  0  0
 19 20  1  0  0  0  0
 19 50  1  0  0  0  0
 20 21  2  0  0  0  0
 21 22  1  0  0  0  0
 21 51  1  0  0  0  0
 22 23  2  0  0  0  0
 22 27  1  0  0  0  0
 23 24  1  0  0  0  0
 23 52  1  0  0  0  0
 24 25  2  0  0  0  0
 24 53  1  0  0  0  0
 25 26  1  0  0  0  0
 25 54  1  0  0  0  0
 26 27  2  0  0  0  0
 26 55  1  0  0  0  0
 28 29  1  0  0  0  0
 28 56  1  0  0  0  0
 29 30  1  0  0  0  0
 29 31  2  0  0  0  0
 31 57  1  0  0  0  0
 32 33  1  0  0  0  0
 32 58  1  0  0  0  0
 32 59  1  0  0  0  0
 33 60  1  0  0  0  0
 33 61  1  0  0  0  0
M  END
$$$$
