
 OpenBabel07202414193D

 50 53  0  0  1  0  0  0  0  0999 V2000
    1.6338   -0.4290    1.2037 O   0  0  0  0  0  0  0  0  0  0  0  0
    2.5630   -0.1258    0.4495 C   0  0  0  0  0  0  0  0  0  0  0  0
    3.1989   -1.1924   -0.4346 C   0  0  0  0  0  0  0  0  0  0  0  0
    2.4262   -1.4043   -1.7176 C   0  0  0  0  0  0  0  0  0  0  0  0
    1.1005   -1.8411   -1.6193 C   0  0  0  0  0  0  0  0  0  0  0  0
    0.2707   -2.0245   -2.6653 N   0  0  0  0  0  0  0  0  0  0  0  0
    0.7760   -1.7476   -3.8838 C   0  0  0  0  0  0  0  0  0  0  0  0
    2.0809   -1.3191   -4.1231 C   0  0  0  0  0  0  0  0  0  0  0  0
    2.5260   -1.0466   -5.4282 C   0  0  0  0  0  0  0  0  0  0  0  0
    3.8363   -0.6377   -5.6620 C   0  0  0  0  0  0  0  0  0  0  0  0
    4.7191   -0.5143   -4.5954 C   0  0  0  0  0  0  0  0  0  0  0  0
    4.2808   -0.7764   -3.2934 C   0  0  0  0  0  0  0  0  0  0  0  0
    2.9479   -1.1633   -3.0151 C   0  0  0  0  0  0  0  0  0  0  0  0
    3.0183    1.1719    0.3611 N   0  0  0  0  0  0  0  0  0  0  0  0
    2.3378    2.2274    1.0811 C   0  0  0  0  0  0  0  0  0  0  0  0
    2.9141    3.5159    0.5149 C   0  0  0  0  0  0  0  0  0  0  0  0
    4.3482    3.1477    0.0851 C   0  0  1  0  0  0  0  0  0  0  0  0
    5.4039    3.3083    1.2248 C   0  0  0  0  0  0  0  0  0  0  0  0
    5.5387    4.7616    1.7474 C   0  0  0  0  0  0  0  0  0  0  0  0
    6.2795    5.7022    0.7949 C   0  0  0  0  0  0  0  0  0  0  0  0
    7.6299    5.1454    0.3846 C   0  0  0  0  0  0  0  0  0  0  0  0
    8.1841    5.9455   -0.5598 F   0  0  0  0  0  0  0  0  0  0  0  0
    8.4693    5.1742    1.4528 F   0  0  0  0  0  0  0  0  0  0  0  0
    7.5454    3.7247   -0.1415 C   0  0  0  0  0  0  0  0  0  0  0  0
    6.8154    2.8072    0.8383 C   0  0  0  0  0  0  0  0  0  0  0  0
    4.1468    1.6905   -0.3971 C   0  0  0  0  0  0  0  0  0  0  0  0
    3.1977   -2.1340    0.1317 H   0  0  0  0  0  0  0  0  0  0  0  0
    4.2541   -0.9747   -0.5951 H   0  0  0  0  0  0  0  0  0  0  0  0
    0.6478   -2.0567   -0.6517 H   0  0  0  0  0  0  0  0  0  0  0  0
    0.0715   -1.8901   -4.6996 H   0  0  0  0  0  0  0  0  0  0  0  0
    1.8489   -1.1502   -6.2737 H   0  0  0  0  0  0  0  0  0  0  0  0
    4.1678   -0.4237   -6.6743 H   0  0  0  0  0  0  0  0  0  0  0  0
    5.7465   -0.2169   -4.7743 H   0  0  0  0  0  0  0  0  0  0  0  0
    5.0157   -0.6836   -2.4988 H   0  0  0  0  0  0  0  0  0  0  0  0
    2.5608    2.1098    2.1464 H   0  0  0  0  0  0  0  0  0  0  0  0
    1.2537    2.1583    0.9376 H   0  0  0  0  0  0  0  0  0  0  0  0
    2.8310    4.3365    1.2296 H   0  0  0  0  0  0  0  0  0  0  0  0
    2.3403    3.8063   -0.3748 H   0  0  0  0  0  0  0  0  0  0  0  0
    4.6527    3.7741   -0.7614 H   0  0  0  0  0  0  0  0  0  0  0  0
    5.0645    2.6938    2.0695 H   0  0  0  0  0  0  0  0  0  0  0  0
    6.0929    4.7315    2.6953 H   0  0  0  0  0  0  0  0  0  0  0  0
    4.5664    5.1965    1.9929 H   0  0  0  0  0  0  0  0  0  0  0  0
    6.4314    6.6674    1.2949 H   0  0  0  0  0  0  0  0  0  0  0  0
    5.6732    5.9055   -0.0941 H   0  0  0  0  0  0  0  0  0  0  0  0
    8.5606    3.3415   -0.2996 H   0  0  0  0  0  0  0  0  0  0  0  0
    7.0529    3.7157   -1.1201 H   0  0  0  0  0  0  0  0  0  0  0  0
    7.4152    2.7360    1.7558 H   0  0  0  0  0  0  0  0  0  0  0  0
    6.7898    1.7944    0.4296 H   0  0  0  0  0  0  0  0  0  0  0  0
    5.0117    1.0424   -0.2600 H   0  0  0  0  0  0  0  0  0  0  0  0
    3.8675    1.6741   -1.4560 H   0  0  0  0  0  0  0  0  0  0  0  0
  1  2  2  0  0  0  0
  2  3  1  0  0  0  0
  2 14  1  0  0  0  0
  3  4  1  0  0  0  0
  3 27  1  0  0  0  0
  3 28  1  0  0  0  0
  4  5  1  0  0  0  0
  4 13  2  0  0  0  0
  5  6  2  0  0  0  0
  5 29  1  0  0  0  0
  6  7  1  0  0  0  0
  7  8  2  0  0  0  0
  7 30  1  0  0  0  0
  8  9  1  0  0  0  0
  8 13  1  0  0  0  0
  9 10  2  0  0  0  0
  9 31  1  0  0  0  0
 10 11  1  0  0  0  0
 10 32  1  0  0  0  0
 11 12  2  0  0  0  0
 11 33  1  0  0  0  0
 12 13  1  0  0  0  0
 12 34  1  0  0  0  0
 14 15  1  0  0  0  0
 14 26  1  0  0  0  0
 15 16  1  0  0  0  0
 15 35  1  0  0  0  0
 15 36  1  0  0  0  0
 16 17  1  0  0  0  0
 16 37  1  0  0  0  0
 16 38  1  0  0  0  0
 17 18  1  0  0  0  0
 17 26  1  0  0  0  0
 17 39  1  6  0  0  0
 18 19  1  0  0  0  0
 18 25  1  0  0  0  0
 18 40  1  0  0  0  0
 19 20  1  0  0  0  0
 19 41  1  0  0  0  0
 19 42  1  0  0  0  0
 20 21  1  0  0  0  0
 20 43  1  0  0  0  0
 20 44  1  0  0  0  0
 21 22  1  0  0  0  0
 21 23  1  0  0  0  0
 21 24  1  0  0  0  0
 24 25  1  0  0  0  0
 24 45  1  0  0  0  0
 24 46  1  0  0  0  0
 25 47  1  0  0  0  0
 25 48  1  0  0  0  0
 26 49  1  0  0  0  0
 26 50  1  0  0  0  0
M  END
$$$$
