
 OpenBabel07202414203D

 32 34  0  0  0  0  0  0  0  0999 V2000
    2.9153    1.3802   -3.5503 C   0  0  0  0  0  0  0  0  0  0  0  0
    2.2662    1.8478   -2.4043 C   0  0  0  0  0  0  0  0  0  0  0  0
    3.0028    2.2438   -1.2782 C   0  0  0  0  0  0  0  0  0  0  0  0
    4.4033    2.1541   -1.3266 C   0  0  0  0  0  0  0  0  0  0  0  0
    5.0439    1.6825   -2.4746 C   0  0  0  0  0  0  0  0  0  0  0  0
    4.3057    1.2931   -3.5884 C   0  0  0  0  0  0  0  0  0  0  0  0
    6.7612    1.5638   -2.5039 Cl  0  0  0  0  0  0  0  0  0  0  0  0
    2.3134    2.6539    0.0030 C   0  0  0  0  0  0  0  0  0  0  0  0
    1.3200    3.7941   -0.1287 C   0  0  0  0  0  0  0  0  0  0  0  0
    0.1125    3.5789   -0.2087 O   0  0  0  0  0  0  0  0  0  0  0  0
    1.9094    5.0468   -0.1626 N   0  0  0  0  0  0  0  0  0  0  0  0
    1.1647    6.2458   -0.1998 C   0  0  0  0  0  0  0  0  0  0  0  0
    1.5828    7.2450   -1.0958 C   0  0  0  0  0  0  0  0  0  0  0  0
    0.8801    8.4445   -1.2198 C   0  0  0  0  0  0  0  0  0  0  0  0
   -0.2294    8.7201   -0.4159 C   0  0  0  0  0  0  0  0  0  0  0  0
   -0.5954    7.7463    0.5176 C   0  0  0  0  0  0  0  0  0  0  0  0
    0.0598    6.5210    0.6406 C   0  0  0  0  0  0  0  0  0  0  0  0
   -0.6195    5.8863    1.7103 C   0  0  0  0  0  0  0  0  0  0  0  0
   -1.6044    6.6287    2.2262 N   0  0  0  0  0  0  0  0  0  0  0  0
   -1.5874    7.7308    1.4636 N   0  0  0  0  0  0  0  0  0  0  0  0
    2.3294    1.0605   -4.4134 H   0  0  0  0  0  0  0  0  0  0  0  0
    1.1762    1.8803   -2.3895 H   0  0  0  0  0  0  0  0  0  0  0  0
    5.0010    2.4263   -0.4596 H   0  0  0  0  0  0  0  0  0  0  0  0
    4.8021    0.9165   -4.4770 H   0  0  0  0  0  0  0  0  0  0  0  0
    3.0500    2.9378    0.7652 H   0  0  0  0  0  0  0  0  0  0  0  0
    1.7806    1.7850    0.4091 H   0  0  0  0  0  0  0  0  0  0  0  0
    2.8401    5.0764   -0.5603 H   0  0  0  0  0  0  0  0  0  0  0  0
    2.4330    7.0714   -1.7492 H   0  0  0  0  0  0  0  0  0  0  0  0
    1.1974    9.1760   -1.9608 H   0  0  0  0  0  0  0  0  0  0  0  0
   -0.7688    9.6574   -0.5091 H   0  0  0  0  0  0  0  0  0  0  0  0
   -0.4164    4.9180    2.1466 H   0  0  0  0  0  0  0  0  0  0  0  0
   -2.2682    8.4606    1.6560 H   0  0  0  0  0  0  0  0  0  0  0  0
  1  2  1  0  0  0  0
  1  6  2  0  0  0  0
  1 21  1  0  0  0  0
  2  3  2  0  0  0  0
  2 22  1  0  0  0  0
  3  4  1  0  0  0  0
  3  8  1  0  0  0  0
  4  5  2  0  0  0  0
  4 23  1  0  0  0  0
  5  6  1  0  0  0  0
  5  7  1  0  0  0  0
  6 24  1  0  0  0  0
  8  9  1  0  0  0  0
  8 25  1  0  0  0  0
  8 26  1  0  0  0  0
  9 10  2  0  0  0  0
  9 11  1  0  0  0  0
 11 12  1  0  0  0  0
 11 27  1  0  0  0  0
 12 13  1  0  0  0  0
 12 17  2  0  0  0  0
 13 14  2  0  0  0  0
 13 28  1  0  0  0  0
 14 15  1  0  0  0  0
 14 29  1  0  0  0  0
 15 16  2  0  0  0  0
 15 30  1  0  0  0  0
 16 17  1  0  0  0  0
 16 20  1  0  0  0  0
 17 18  1  0  0  0  0
 18 19  2  0  0  0  0
 18 31  1  0  0  0  0
 19 20  1  0  0  0  0
 20 32  1  0  0  0  0
M  END
$$$$
