
 OpenBabel07202414153D

 70 75  0  0  1  0  0  0  0  0999 V2000
    8.5950    3.5293    0.5931 C   0  0  0  0  0  0  0  0  0  0  0  0
    8.2924    2.2221    1.0860 O   0  0  0  0  0  0  0  0  0  0  0  0
    7.9625    1.2849    0.1378 C   0  0  0  0  0  0  0  0  0  0  0  0
    7.4321    1.5827   -1.1159 C   0  0  0  0  0  0  0  0  0  0  0  0
    7.0934    0.5517   -1.9909 C   0  0  0  0  0  0  0  0  0  0  0  0
    7.3058   -0.7807   -1.6306 C   0  0  0  0  0  0  0  0  0  0  0  0
    7.8649   -1.1150   -0.3910 C   0  0  0  0  0  0  0  0  0  0  0  0
    8.0699   -2.5693   -0.0028 C   0  0  0  0  0  0  0  0  0  0  0  0
    8.5110   -3.4163   -1.1119 N   0  0  0  0  0  0  0  0  0  0  0  0
    8.1524   -4.7462   -1.2599 C   0  0  0  0  0  0  0  0  0  0  0  0
    7.3791   -5.3200   -0.4933 O   0  0  0  0  0  0  0  0  0  0  0  0
    8.7156   -5.4582   -2.5269 C   0  0  0  0  0  0  0  0  0  0  0  0
    7.7389   -5.4104   -3.6116 N   0  0  0  0  0  0  0  0  0  0  0  0
    7.2176   -6.5916   -4.3004 C   0  0  0  0  0  0  0  0  0  0  0  0
    5.6588   -6.5785   -4.3284 C   0  0  2  0  0  0  0  0  0  0  0  0
    5.1786   -7.3529   -3.0572 C   0  0  1  0  0  0  0  0  0  0  0  0
    4.1153   -6.6994   -2.1895 C   0  0  0  0  0  0  0  0  0  0  0  0
    4.7562   -8.7582   -3.5380 C   0  0  0  0  0  0  0  0  0  0  0  0
    4.9642   -8.7852   -4.9595 N   0  0  0  0  0  0  0  0  0  0  0  0
    4.6760   -9.9174   -5.7849 C   0  0  0  0  0  0  0  0  0  0  0  0
    3.4832  -10.6224   -5.6341 C   0  0  0  0  0  0  0  0  0  0  0  0
    3.0919  -11.6517   -6.4336 N   0  0  0  0  0  0  0  0  0  0  0  0
    3.9655  -12.0521   -7.3789 C   0  0  0  0  0  0  0  0  0  0  0  0
    5.2467  -11.5253   -7.5382 C   0  0  0  0  0  0  0  0  0  0  0  0
    6.1725  -12.1258   -8.4128 C   0  0  0  0  0  0  0  0  0  0  0  0
    7.4679  -11.6278   -8.5162 C   0  0  0  0  0  0  0  0  0  0  0  0
    7.8269  -10.4923   -7.8028 C   0  0  0  0  0  0  0  0  0  0  0  0
    6.9074   -9.8833   -6.9440 C   0  0  0  0  0  0  0  0  0  0  0  0
    5.6041  -10.3997   -6.7546 C   0  0  0  0  0  0  0  0  0  0  0  0
    5.2473   -7.5226   -5.4765 C   0  0  0  0  0  0  0  0  0  0  0  0
    5.2025   -7.2088   -6.6587 O   0  0  0  0  0  0  0  0  0  0  0  0
    5.1795   -5.1403   -4.6180 C   0  0  0  0  0  0  0  0  0  0  0  0
    3.8314   -4.8304   -4.8608 C   0  0  0  0  0  0  0  0  0  0  0  0
    3.4447   -3.5367   -5.2467 C   0  0  0  0  0  0  0  0  0  0  0  0
    4.3935   -2.5392   -5.4585 C   0  0  0  0  0  0  0  0  0  0  0  0
    5.7303   -2.8095   -5.2110 C   0  0  0  0  0  0  0  0  0  0  0  0
    6.1097   -4.0766   -4.7499 C   0  0  0  0  0  0  0  0  0  0  0  0
    7.4814   -4.1902   -4.1925 C   0  0  0  0  0  0  0  0  0  0  0  0
    8.2367   -3.2286   -4.1070 O   0  0  0  0  0  0  0  0  0  0  0  0
    8.1568   -0.0606    0.5037 C   0  0  0  0  0  0  0  0  0  0  0  0
    8.9194    4.1449    1.4381 H   0  0  0  0  0  0  0  0  0  0  0  0
    7.7161    4.0176    0.1600 H   0  0  0  0  0  0  0  0  0  0  0  0
    9.4182    3.4922   -0.1285 H   0  0  0  0  0  0  0  0  0  0  0  0
    7.2350    2.6033   -1.4270 H   0  0  0  0  0  0  0  0  0  0  0  0
    6.6603    0.7864   -2.9570 H   0  0  0  0  0  0  0  0  0  0  0  0
    7.0218   -1.5611   -2.3344 H   0  0  0  0  0  0  0  0  0  0  0  0
    7.1457   -2.9639    0.4323 H   0  0  0  0  0  0  0  0  0  0  0  0
    8.8578   -2.6354    0.7566 H   0  0  0  0  0  0  0  0  0  0  0  0
    9.0476   -2.9777   -1.8547 H   0  0  0  0  0  0  0  0  0  0  0  0
    8.9322   -6.4977   -2.2628 H   0  0  0  0  0  0  0  0  0  0  0  0
    9.6448   -4.9748   -2.8452 H   0  0  0  0  0  0  0  0  0  0  0  0
    7.6284   -7.5055   -3.8562 H   0  0  0  0  0  0  0  0  0  0  0  0
    7.6075   -6.5522   -5.3277 H   0  0  0  0  0  0  0  0  0  0  0  0
    6.0325   -7.4949   -2.3792 H   0  0  0  0  0  0  0  0  0  0  0  0
    3.1469   -6.6418   -2.6909 H   0  0  0  0  0  0  0  0  0  0  0  0
    4.4270   -5.6955   -1.8844 H   0  0  0  0  0  0  0  0  0  0  0  0
    3.9760   -7.2857   -1.2736 H   0  0  0  0  0  0  0  0  0  0  0  0
    3.7105   -8.9784   -3.3028 H   0  0  0  0  0  0  0  0  0  0  0  0
    5.3893   -9.5306   -3.0838 H   0  0  0  0  0  0  0  0  0  0  0  0
    2.7503  -10.3675   -4.8860 H   0  0  0  0  0  0  0  0  0  0  0  0
    3.6049  -12.8532   -8.0240 H   0  0  0  0  0  0  0  0  0  0  0  0
    5.9028  -13.0145   -8.9816 H   0  0  0  0  0  0  0  0  0  0  0  0
    8.1979  -12.1303   -9.1450 H   0  0  0  0  0  0  0  0  0  0  0  0
    8.8306  -10.0858   -7.8957 H   0  0  0  0  0  0  0  0  0  0  0  0
    7.2404   -9.0079   -6.3969 H   0  0  0  0  0  0  0  0  0  0  0  0
    3.0554   -5.5854   -4.7628 H   0  0  0  0  0  0  0  0  0  0  0  0
    2.3925   -3.3076   -5.3976 H   0  0  0  0  0  0  0  0  0  0  0  0
    4.0932   -1.5462   -5.7816 H   0  0  0  0  0  0  0  0  0  0  0  0
    6.4736   -2.0242   -5.3337 H   0  0  0  0  0  0  0  0  0  0  0  0
    8.5378   -0.2765    1.5003 H   0  0  0  0  0  0  0  0  0  0  0  0
  1  2  1  0  0  0  0
  1 41  1  0  0  0  0
  1 42  1  0  0  0  0
  1 43  1  0  0  0  0
  2  3  1  0  0  0  0
  3  4  1  0  0  0  0
  3 40  2  0  0  0  0
  4  5  2  0  0  0  0
  4 44  1  0  0  0  0
  5  6  1  0  0  0  0
  5 45  1  0  0  0  0
  6  7  2  0  0  0  0
  6 46  1  0  0  0  0
  7  8  1  0  0  0  0
  7 40  1  0  0  0  0
  8  9  1  0  0  0  0
  8 47  1  0  0  0  0
  8 48  1  0  0  0  0
  9 10  1  0  0  0  0
  9 49  1  0  0  0  0
 10 11  2  0  0  0  0
 10 12  1  0  0  0  0
 12 13  1  0  0  0  0
 12 50  1  0  0  0  0
 12 51  1  0  0  0  0
 13 14  1  0  0  0  0
 13 38  1  0  0  0  0
 14 15  1  0  0  0  0
 14 52  1  0  0  0  0
 14 53  1  0  0  0  0
 15 16  1  0  0  0  0
 15 30  1  6  0  0  0
 15 32  1  0  0  0  0
 16 18  1  0  0  0  0
 16 17  1  0  0  0  0
 16 54  1  1  0  0  0
 17 55  1  0  0  0  0
 17 56  1  0  0  0  0
 17 57  1  0  0  0  0
 18 19  1  0  0  0  0
 18 58  1  0  0  0  0
 18 59  1  0  0  0  0
 19 30  1  0  0  0  0
 19 20  1  0  0  0  0
 20 21  1  0  0  0  0
 20 29  2  0  0  0  0
 21 22  2  0  0  0  0
 21 60  1  0  0  0  0
 22 23  1  0  0  0  0
 23 24  2  0  0  0  0
 23 61  1  0  0  0  0
 24 25  1  0  0  0  0
 24 29  1  0  0  0  0
 25 26  2  0  0  0  0
 25 62  1  0  0  0  0
 26 27  1  0  0  0  0
 26 63  1  0  0  0  0
 27 28  2  0  0  0  0
 27 64  1  0  0  0  0
 28 29  1  0  0  0  0
 28 65  1  0  0  0  0
 30 31  2  0  0  0  0
 32 33  1  0  0  0  0
 32 37  2  0  0  0  0
 33 34  2  0  0  0  0
 33 66  1  0  0  0  0
 34 35  1  0  0  0  0
 34 67  1  0  0  0  0
 35 36  2  0  0  0  0
 35 68  1  0  0  0  0
 36 37  1  0  0  0  0
 36 69  1  0  0  0  0
 37 38  1  0  0  0  0
 38 39  2  0  0  0  0
 40 70  1  0  0  0  0
M  END
$$$$
