
 OpenBabel07202414143D

 72 76  0  0  1  0  0  0  0  0999 V2000
    8.0666   -7.4984    1.6663 C   0  0  0  0  0  0  0  0  0  0  0  0
    8.6430   -6.2713    1.1834 N   0  0  0  0  0  0  0  0  0  0  0  0
    9.7942   -6.2952    0.4247 C   0  0  0  0  0  0  0  0  0  0  0  0
   10.3281   -7.3354    0.0463 O   0  0  0  0  0  0  0  0  0  0  0  0
   10.3184   -4.9199    0.0292 C   0  0  0  0  0  0  0  0  0  0  0  0
   10.5770   -4.1291    1.1874 O   0  0  0  0  0  0  0  0  0  0  0  0
   10.9554   -2.8327    0.9232 C   0  0  0  0  0  0  0  0  0  0  0  0
   11.7493   -2.5086   -0.1817 C   0  0  0  0  0  0  0  0  0  0  0  0
   12.0536   -1.1807   -0.4867 C   0  0  0  0  0  0  0  0  0  0  0  0
   11.5764   -0.1342    0.3023 C   0  0  0  0  0  0  0  0  0  0  0  0
   11.8306    1.3216   -0.0498 C   0  0  0  0  0  0  0  0  0  0  0  0
   12.6157    1.5270   -1.2913 N   0  0  0  0  0  0  0  0  0  0  0  0
   12.8079    2.9635   -1.5516 C   0  0  0  0  0  0  0  0  0  0  0  0
   13.7100    3.4286   -2.7641 C   0  0  3  0  0  0  0  0  0  0  0  0
   13.1187    2.9726   -4.1570 C   0  0  0  0  0  0  0  0  0  0  0  0
   12.0508    2.3652   -4.2244 O   0  0  0  0  0  0  0  0  0  0  0  0
   13.8918    3.3336   -5.2701 N   0  0  0  0  0  0  0  0  0  0  0  0
   13.6544    3.0469   -6.6593 C   0  0  0  0  0  0  0  0  0  0  0  0
   12.4907    2.4223   -7.1084 C   0  0  0  0  0  0  0  0  0  0  0  0
   12.1986    2.1553   -8.4140 N   0  0  0  0  0  0  0  0  0  0  0  0
   13.1427    2.4613   -9.3228 C   0  0  0  0  0  0  0  0  0  0  0  0
   14.3818    3.0030   -9.0079 C   0  0  0  0  0  0  0  0  0  0  0  0
   15.3536    3.1792  -10.0158 C   0  0  0  0  0  0  0  0  0  0  0  0
   16.5953    3.7228   -9.7163 C   0  0  0  0  0  0  0  0  0  0  0  0
   16.8503    4.1589   -8.4225 C   0  0  0  0  0  0  0  0  0  0  0  0
   15.8975    3.9860   -7.4148 C   0  0  0  0  0  0  0  0  0  0  0  0
   14.6386    3.3651   -7.6547 C   0  0  0  0  0  0  0  0  0  0  0  0
   13.6303    4.9941   -2.7301 C   0  0  0  0  0  0  0  0  0  0  0  0
   14.9533    5.7367   -2.6396 C   0  0  0  0  0  0  0  0  0  0  0  0
   15.9287    5.0805   -1.8512 O   0  0  0  0  0  0  0  0  0  0  0  0
   16.1823    3.8231   -2.3106 C   0  0  0  0  0  0  0  0  0  0  0  0
   17.5242    3.4478   -2.3834 C   0  0  0  0  0  0  0  0  0  0  0  0
   17.8608    2.1422   -2.7253 C   0  0  0  0  0  0  0  0  0  0  0  0
   16.8478    1.2069   -2.9149 C   0  0  0  0  0  0  0  0  0  0  0  0
   17.2597   -0.4368   -3.2115 Cl  0  0  0  0  0  0  0  0  0  0  0  0
   15.5042    1.5944   -2.8726 C   0  0  0  0  0  0  0  0  0  0  0  0
   15.1520    2.9346   -2.6271 C   0  0  0  0  0  0  0  0  0  0  0  0
   10.8369   -0.4708    1.4559 C   0  0  0  0  0  0  0  0  0  0  0  0
   10.5558   -1.8118    1.7920 C   0  0  0  0  0  0  0  0  0  0  0  0
    9.8290   -1.9671    2.9482 O   0  0  0  0  0  0  0  0  0  0  0  0
   10.1276   -3.1322    3.7183 C   0  0  0  0  0  0  0  0  0  0  0  0
    7.1252   -7.2732    2.1711 H   0  0  0  0  0  0  0  0  0  0  0  0
    8.7647   -7.9696    2.3637 H   0  0  0  0  0  0  0  0  0  0  0  0
    7.8880   -8.1746    0.8249 H   0  0  0  0  0  0  0  0  0  0  0  0
    8.3745   -5.3905    1.6072 H   0  0  0  0  0  0  0  0  0  0  0  0
    9.5620   -4.4396   -0.6045 H   0  0  0  0  0  0  0  0  0  0  0  0
   11.2334   -5.0970   -0.5442 H   0  0  0  0  0  0  0  0  0  0  0  0
   12.1626   -3.2684   -0.8344 H   0  0  0  0  0  0  0  0  0  0  0  0
   12.6713   -0.9829   -1.3591 H   0  0  0  0  0  0  0  0  0  0  0  0
   12.3580    1.7806    0.7961 H   0  0  0  0  0  0  0  0  0  0  0  0
   10.8542    1.8137   -0.1537 H   0  0  0  0  0  0  0  0  0  0  0  0
   12.0707    1.1456   -2.0712 H   0  0  0  0  0  0  0  0  0  0  0  0
   13.2379    3.4043   -0.6409 H   0  0  0  0  0  0  0  0  0  0  0  0
   11.8102    3.4059   -1.6835 H   0  0  0  0  0  0  0  0  0  0  0  0
   14.7777    3.7784   -5.0669 H   0  0  0  0  0  0  0  0  0  0  0  0
   11.7101    2.0833   -6.4374 H   0  0  0  0  0  0  0  0  0  0  0  0
   12.8657    2.2411  -10.3491 H   0  0  0  0  0  0  0  0  0  0  0  0
   15.1579    2.8521  -11.0372 H   0  0  0  0  0  0  0  0  0  0  0  0
   17.3582    3.8050  -10.4869 H   0  0  0  0  0  0  0  0  0  0  0  0
   17.8078    4.6188   -8.1911 H   0  0  0  0  0  0  0  0  0  0  0  0
   16.1489    4.3633   -6.4296 H   0  0  0  0  0  0  0  0  0  0  0  0
   13.0413    5.3116   -1.8580 H   0  0  0  0  0  0  0  0  0  0  0  0
   13.0694    5.3903   -3.5854 H   0  0  0  0  0  0  0  0  0  0  0  0
   14.7784    6.7120   -2.1684 H   0  0  0  0  0  0  0  0  0  0  0  0
   15.3727    5.9396   -3.6306 H   0  0  0  0  0  0  0  0  0  0  0  0
   18.3038    4.1780   -2.1816 H   0  0  0  0  0  0  0  0  0  0  0  0
   18.9058    1.8568   -2.8105 H   0  0  0  0  0  0  0  0  0  0  0  0
   14.7329    0.8433   -3.0356 H   0  0  0  0  0  0  0  0  0  0  0  0
   10.4752    0.3165    2.1169 H   0  0  0  0  0  0  0  0  0  0  0  0
    9.8232   -2.9383    4.7520 H   0  0  0  0  0  0  0  0  0  0  0  0
   11.1984   -3.3659    3.7296 H   0  0  0  0  0  0  0  0  0  0  0  0
    9.5385   -3.9857    3.3700 H   0  0  0  0  0  0  0  0  0  0  0  0
  1  2  1  0  0  0  0
  1 42  1  0  0  0  0
  1 43  1  0  0  0  0
  1 44  1  0  0  0  0
  2  3  1  0  0  0  0
  2 45  1  0  0  0  0
  3  4  2  0  0  0  0
  3  5  1  0  0  0  0
  5  6  1  0  0  0  0
  5 46  1  0  0  0  0
  5 47  1  0  0  0  0
  6  7  1  0  0  0  0
  7  8  1  0  0  0  0
  7 39  2  0  0  0  0
  8  9  2  0  0  0  0
  8 48  1  0  0  0  0
  9 10  1  0  0  0  0
  9 49  1  0  0  0  0
 10 11  1  0  0  0  0
 10 38  2  0  0  0  0
 11 12  1  0  0  0  0
 11 50  1  0  0  0  0
 11 51  1  0  0  0  0
 12 13  1  0  0  0  0
 12 52  1  0  0  0  0
 13 14  1  0  0  0  0
 13 53  1  0  0  0  0
 13 54  1  0  0  0  0
 14 15  1  0  0  0  0
 14 28  1  0  0  0  0
 14 37  1  0  0  0  0
 15 16  2  0  0  0  0
 15 17  1  0  0  0  0
 17 18  1  0  0  0  0
 17 55  1  0  0  0  0
 18 19  1  0  0  0  0
 18 27  2  0  0  0  0
 19 20  2  0  0  0  0
 19 56  1  0  0  0  0
 20 21  1  0  0  0  0
 21 22  2  0  0  0  0
 21 57  1  0  0  0  0
 22 23  1  0  0  0  0
 22 27  1  0  0  0  0
 23 24  2  0  0  0  0
 23 58  1  0  0  0  0
 24 25  1  0  0  0  0
 24 59  1  0  0  0  0
 25 26  2  0  0  0  0
 25 60  1  0  0  0  0
 26 27  1  0  0  0  0
 26 61  1  0  0  0  0
 28 29  1  0  0  0  0
 28 62  1  0  0  0  0
 28 63  1  0  0  0  0
 29 30  1  0  0  0  0
 29 64  1  0  0  0  0
 29 65  1  0  0  0  0
 30 31  1  0  0  0  0
 31 32  1  0  0  0  0
 31 37  2  0  0  0  0
 32 33  2  0  0  0  0
 32 66  1  0  0  0  0
 33 34  1  0  0  0  0
 33 67  1  0  0  0  0
 34 35  1  0  0  0  0
 34 36  2  0  0  0  0
 36 37  1  0  0  0  0
 36 68  1  0  0  0  0
 38 39  1  0  0  0  0
 38 69  1  0  0  0  0
 39 40  1  0  0  0  0
 40 41  1  0  0  0  0
 41 70  1  0  0  0  0
 41 71  1  0  0  0  0
 41 72  1  0  0  0  0
M  END
$$$$
