
 OpenBabel07202414123D

 56 59  0  0  1  0  0  0  0  0999 V2000
    2.8096    2.3598   -1.6735 C   0  0  0  0  0  0  0  0  0  0  0  0
    2.3708    1.2028   -0.7751 C   0  0  0  0  0  0  0  0  0  0  0  0
    2.7225   -0.1310   -1.4397 C   0  0  0  0  0  0  0  0  0  0  0  0
    2.9065    1.3310    0.6735 C   0  0  0  0  0  0  0  0  0  0  0  0
    4.3693    1.3368    0.7819 N   0  0  0  0  0  0  0  0  0  0  0  0
    5.0239    0.1236    0.8170 C   0  0  0  0  0  0  0  0  0  0  0  0
    6.3534   -0.0319    0.7076 C   0  0  0  0  0  0  0  0  0  0  0  0
    7.1785    1.2034    0.6202 C   0  0  0  0  0  0  0  0  0  0  0  0
    8.5748    1.1945    0.4581 C   0  0  0  0  0  0  0  0  0  0  0  0
    9.2990    2.3900    0.3363 C   0  0  0  0  0  0  0  0  0  0  0  0
    8.6465    3.6179    0.3827 C   0  0  0  0  0  0  0  0  0  0  0  0
    7.2663    3.6536    0.5418 C   0  0  0  0  0  0  0  0  0  0  0  0
    6.5371    2.4578    0.6518 C   0  0  0  0  0  0  0  0  0  0  0  0
    5.0555    2.5453    0.7409 C   0  0  0  0  0  0  0  0  0  0  0  0
    4.5082    3.6454    0.7488 O   0  0  0  0  0  0  0  0  0  0  0  0
    6.9452   -1.2867    0.6424 N   0  0  0  0  0  0  0  0  0  0  0  0
    6.3117   -2.4582    0.2816 C   0  0  0  0  0  0  0  0  0  0  0  0
    5.1375   -2.5328   -0.0776 O   0  0  0  0  0  0  0  0  0  0  0  0
    7.0848   -3.5942    0.3189 N   0  0  0  0  0  0  0  0  0  0  0  0
    8.4730   -3.7672    0.6978 C   0  0  0  0  0  0  0  0  0  0  0  0
    8.8485   -5.1367    0.1496 C   0  0  0  0  0  0  0  0  0  0  0  0
    7.5395   -5.9392    0.1348 C   0  0  3  0  0  0  0  0  0  0  0  0
    6.4554   -4.8684   -0.0052 C   0  0  0  0  0  0  0  0  0  0  0  0
    7.3628   -6.8481    1.3360 C   0  0  0  0  0  0  0  0  0  0  0  0
    7.3122   -6.3637    2.6489 C   0  0  0  0  0  0  0  0  0  0  0  0
    7.1850   -7.2407    3.7321 C   0  0  0  0  0  0  0  0  0  0  0  0
    7.0889   -8.6111    3.5105 C   0  0  0  0  0  0  0  0  0  0  0  0
    7.1102   -9.1079    2.2111 C   0  0  0  0  0  0  0  0  0  0  0  0
    7.2467   -8.2326    1.1318 C   0  0  0  0  0  0  0  0  0  0  0  0
    2.3156    2.2963   -2.6493 H   0  0  0  0  0  0  0  0  0  0  0  0
    3.8893    2.3482   -1.8519 H   0  0  0  0  0  0  0  0  0  0  0  0
    2.5407    3.3228   -1.2281 H   0  0  0  0  0  0  0  0  0  0  0  0
    1.2758    1.2429   -0.7049 H   0  0  0  0  0  0  0  0  0  0  0  0
    3.7954   -0.2193   -1.6398 H   0  0  0  0  0  0  0  0  0  0  0  0
    2.2084   -0.2273   -2.4024 H   0  0  0  0  0  0  0  0  0  0  0  0
    2.4151   -0.9754   -0.8143 H   0  0  0  0  0  0  0  0  0  0  0  0
    2.5106    0.5123    1.2889 H   0  0  0  0  0  0  0  0  0  0  0  0
    2.5174    2.2571    1.1136 H   0  0  0  0  0  0  0  0  0  0  0  0
    4.3620   -0.7301    0.9150 H   0  0  0  0  0  0  0  0  0  0  0  0
    9.1396    0.2715    0.3985 H   0  0  0  0  0  0  0  0  0  0  0  0
   10.3772    2.3599    0.1947 H   0  0  0  0  0  0  0  0  0  0  0  0
    9.2064    4.5440    0.2814 H   0  0  0  0  0  0  0  0  0  0  0  0
    6.7512    4.6123    0.5605 H   0  0  0  0  0  0  0  0  0  0  0  0
    7.9472   -1.3276    0.6656 H   0  0  0  0  0  0  0  0  0  0  0  0
    8.5362   -3.7271    1.7893 H   0  0  0  0  0  0  0  0  0  0  0  0
    9.1043   -2.9758    0.2853 H   0  0  0  0  0  0  0  0  0  0  0  0
    9.6592   -5.6079    0.7136 H   0  0  0  0  0  0  0  0  0  0  0  0
    9.1940   -5.0129   -0.8853 H   0  0  0  0  0  0  0  0  0  0  0  0
    7.5219   -6.5667   -0.7663 H   0  0  0  0  0  0  0  0  0  0  0  0
    5.5868   -5.0283    0.6442 H   0  0  0  0  0  0  0  0  0  0  0  0
    6.0973   -4.8070   -1.0401 H   0  0  0  0  0  0  0  0  0  0  0  0
    7.3623   -5.2994    2.8587 H   0  0  0  0  0  0  0  0  0  0  0  0
    7.1578   -6.8505    4.7436 H   0  0  0  0  0  0  0  0  0  0  0  0
    6.9908   -9.2929    4.3527 H   0  0  0  0  0  0  0  0  0  0  0  0
    7.0213  -10.1772    2.0348 H   0  0  0  0  0  0  0  0  0  0  0  0
    7.2593   -8.6463    0.1253 H   0  0  0  0  0  0  0  0  0  0  0  0
  1  2  1  0  0  0  0
  1 30  1  0  0  0  0
  1 31  1  0  0  0  0
  1 32  1  0  0  0  0
  2  3  1  0  0  0  0
  2  4  1  0  0  0  0
  2 33  1  0  0  0  0
  3 34  1  0  0  0  0
  3 35  1  0  0  0  0
  3 36  1  0  0  0  0
  4  5  1  0  0  0  0
  4 37  1  0  0  0  0
  4 38  1  0  0  0  0
  5  6  1  0  0  0  0
  5 14  1  0  0  0  0
  6  7  2  0  0  0  0
  6 39  1  0  0  0  0
  7  8  1  0  0  0  0
  7 16  1  0  0  0  0
  8  9  1  0  0  0  0
  8 13  2  0  0  0  0
  9 10  2  0  0  0  0
  9 40  1  0  0  0  0
 10 11  1  0  0  0  0
 10 41  1  0  0  0  0
 11 12  2  0  0  0  0
 11 42  1  0  0  0  0
 12 13  1  0  0  0  0
 12 43  1  0  0  0  0
 13 14  1  0  0  0  0
 14 15  2  0  0  0  0
 16 17  1  0  0  0  0
 16 44  1  0  0  0  0
 17 18  2  0  0  0  0
 17 19  1  0  0  0  0
 19 20  1  0  0  0  0
 19 23  1  0  0  0  0
 20 21  1  0  0  0  0
 20 45  1  0  0  0  0
 20 46  1  0  0  0  0
 21 22  1  0  0  0  0
 21 47  1  0  0  0  0
 21 48  1  0  0  0  0
 22 23  1  0  0  0  0
 22 24  1  0  0  0  0
 22 49  1  0  0  0  0
 23 50  1  0  0  0  0
 23 51  1  0  0  0  0
 24 25  1  0  0  0  0
 24 29  2  0  0  0  0
 25 26  2  0  0  0  0
 25 52  1  0  0  0  0
 26 27  1  0  0  0  0
 26 53  1  0  0  0  0
 27 28  2  0  0  0  0
 27 54  1  0  0  0  0
 28 29  1  0  0  0  0
 28 55  1  0  0  0  0
 29 56  1  0  0  0  0
M  END
$$$$
