
 OpenBabel07202414143D

 57 62  0  0  1  0  0  0  0  0999 V2000
    7.0422   -3.1753   -0.0769 C   0  0  0  0  0  0  0  0  0  0  0  0
    5.9777   -2.2066   -0.0895 N   0  0  0  0  0  0  0  0  0  0  0  0
    5.5683   -1.5787   -1.2446 C   0  0  0  0  0  0  0  0  0  0  0  0
    6.0978   -1.7174   -2.3403 O   0  0  0  0  0  0  0  0  0  0  0  0
    4.3549   -0.6597   -1.0813 C   0  0  0  0  0  0  0  0  0  0  0  0
    4.6628    0.7350   -0.7630 N   0  0  0  0  0  0  0  0  0  0  0  0
    4.4231    1.8080   -1.7311 C   0  0  0  0  0  0  0  0  0  0  0  0
    5.6590    2.7000   -1.9210 C   0  0  1  0  0  0  0  0  0  0  0  0
    6.7326    1.9146   -2.7007 C   0  0  0  0  0  0  0  0  0  0  0  0
    7.0460    2.7292   -3.9281 C   0  0  0  0  0  0  0  0  0  0  0  0
    6.3586    4.0110   -3.8017 N   0  0  0  0  0  0  0  0  0  0  0  0
    6.3872    4.9042   -4.9286 C   0  0  0  0  0  0  0  0  0  0  0  0
    5.2175    5.5403   -5.3595 C   0  0  0  0  0  0  0  0  0  0  0  0
    5.0678    6.1290   -6.5704 N   0  0  0  0  0  0  0  0  0  0  0  0
    6.1474    6.1417   -7.3795 C   0  0  0  0  0  0  0  0  0  0  0  0
    7.4120    5.6956   -7.0109 C   0  0  0  0  0  0  0  0  0  0  0  0
    8.5144    5.8595   -7.8761 C   0  0  0  0  0  0  0  0  0  0  0  0
    9.7908    5.4607   -7.4935 C   0  0  0  0  0  0  0  0  0  0  0  0
    9.9823    4.9221   -6.2322 C   0  0  0  0  0  0  0  0  0  0  0  0
    8.8931    4.7757   -5.3652 C   0  0  0  0  0  0  0  0  0  0  0  0
    7.5587    5.0956   -5.7385 C   0  0  0  0  0  0  0  0  0  0  0  0
    5.3594    3.9078   -2.8242 C   0  0  0  0  0  0  0  0  0  0  0  0
    4.4286    4.6869   -2.6284 O   0  0  0  0  0  0  0  0  0  0  0  0
    6.2229    3.0989   -0.5494 C   0  0  0  0  0  0  0  0  0  0  0  0
    7.1233    4.1730   -0.4141 C   0  0  0  0  0  0  0  0  0  0  0  0
    7.7243    4.4490    0.8182 C   0  0  0  0  0  0  0  0  0  0  0  0
    8.9060    5.6950    0.9301 Cl  0  0  0  0  0  0  0  0  0  0  0  0
    7.4146    3.6933    1.9442 C   0  0  0  0  0  0  0  0  0  0  0  0
    6.5202    2.6306    1.8319 C   0  0  0  0  0  0  0  0  0  0  0  0
    5.9468    2.3150    0.5899 C   0  0  0  0  0  0  0  0  0  0  0  0
    5.2093    1.0242    0.4801 C   0  0  0  0  0  0  0  0  0  0  0  0
    5.1975    0.2337    1.4217 O   0  0  0  0  0  0  0  0  0  0  0  0
    3.1175   -1.2716   -0.4254 C   0  0  0  0  0  0  0  0  0  0  0  0
    3.1261   -1.0287   -1.8987 C   0  0  0  0  0  0  0  0  0  0  0  0
    7.1009   -3.6248    0.9183 H   0  0  0  0  0  0  0  0  0  0  0  0
    7.9884   -2.6864   -0.3218 H   0  0  0  0  0  0  0  0  0  0  0  0
    6.8365   -3.9541   -0.8179 H   0  0  0  0  0  0  0  0  0  0  0  0
    5.6102   -1.8445    0.7885 H   0  0  0  0  0  0  0  0  0  0  0  0
    3.5801    2.3959   -1.3387 H   0  0  0  0  0  0  0  0  0  0  0  0
    4.0992    1.3848   -2.6911 H   0  0  0  0  0  0  0  0  0  0  0  0
    6.3888    0.9232   -3.0153 H   0  0  0  0  0  0  0  0  0  0  0  0
    7.6408    1.7478   -2.1117 H   0  0  0  0  0  0  0  0  0  0  0  0
    6.6672    2.2281   -4.8260 H   0  0  0  0  0  0  0  0  0  0  0  0
    8.1225    2.8270   -4.0021 H   0  0  0  0  0  0  0  0  0  0  0  0
    4.3057    5.5472   -4.7737 H   0  0  0  0  0  0  0  0  0  0  0  0
    5.9641    6.5581   -8.3674 H   0  0  0  0  0  0  0  0  0  0  0  0
    8.3855    6.3252   -8.8515 H   0  0  0  0  0  0  0  0  0  0  0  0
   10.6363    5.6032   -8.1623 H   0  0  0  0  0  0  0  0  0  0  0  0
   10.9790    4.6345   -5.9065 H   0  0  0  0  0  0  0  0  0  0  0  0
    9.1225    4.4542   -4.3531 H   0  0  0  0  0  0  0  0  0  0  0  0
    7.4033    4.7817   -1.2727 H   0  0  0  0  0  0  0  0  0  0  0  0
    7.8910    3.8983    2.8995 H   0  0  0  0  0  0  0  0  0  0  0  0
    6.3145    2.0132    2.7061 H   0  0  0  0  0  0  0  0  0  0  0  0
    2.5143   -0.6282    0.2039 H   0  0  0  0  0  0  0  0  0  0  0  0
    3.1726   -2.2965   -0.0760 H   0  0  0  0  0  0  0  0  0  0  0  0
    2.4840   -0.2468   -2.2811 H   0  0  0  0  0  0  0  0  0  0  0  0
    3.2010   -1.8919   -2.5534 H   0  0  0  0  0  0  0  0  0  0  0  0
  1  2  1  0  0  0  0
  1 35  1  0  0  0  0
  1 36  1  0  0  0  0
  1 37  1  0  0  0  0
  2  3  1  0  0  0  0
  2 38  1  0  0  0  0
  3  4  2  0  0  0  0
  3  5  1  0  0  0  0
  5  6  1  0  0  0  0
  5 33  1  0  0  0  0
  5 34  1  0  0  0  0
  6  7  1  0  0  0  0
  6 31  1  0  0  0  0
  7  8  1  0  0  0  0
  7 39  1  0  0  0  0
  7 40  1  0  0  0  0
  8  9  1  0  0  0  0
  8 22  1  6  0  0  0
  8 24  1  0  0  0  0
  9 10  1  0  0  0  0
  9 41  1  0  0  0  0
  9 42  1  0  0  0  0
 10 11  1  0  0  0  0
 10 43  1  0  0  0  0
 10 44  1  0  0  0  0
 11 12  1  0  0  0  0
 11 22  1  0  0  0  0
 12 13  1  0  0  0  0
 12 21  2  0  0  0  0
 13 14  2  0  0  0  0
 13 45  1  0  0  0  0
 14 15  1  0  0  0  0
 15 16  2  0  0  0  0
 15 46  1  0  0  0  0
 16 17  1  0  0  0  0
 16 21  1  0  0  0  0
 17 18  2  0  0  0  0
 17 47  1  0  0  0  0
 18 19  1  0  0  0  0
 18 48  1  0  0  0  0
 19 20  2  0  0  0  0
 19 49  1  0  0  0  0
 20 21  1  0  0  0  0
 20 50  1  0  0  0  0
 22 23  2  0  0  0  0
 24 25  1  0  0  0  0
 24 30  2  0  0  0  0
 25 26  2  0  0  0  0
 25 51  1  0  0  0  0
 26 27  1  0  0  0  0
 26 28  1  0  0  0  0
 28 29  2  0  0  0  0
 28 52  1  0  0  0  0
 29 30  1  0  0  0  0
 29 53  1  0  0  0  0
 30 31  1  0  0  0  0
 31 32  2  0  0  0  0
 33 34  1  0  0  0  0
 33 54  1  0  0  0  0
 33 55  1  0  0  0  0
 34 56  1  0  0  0  0
 34 57  1  0  0  0  0
M  END
$$$$
