
 OpenBabel07202414143D

 51 54  0  0  1  0  0  0  0  0999 V2000
    5.0885   -2.3330   -0.5283 C   0  0  0  0  0  0  0  0  0  0  0  0
    3.6872   -2.4693   -0.6987 O   0  0  0  0  0  0  0  0  0  0  0  0
    2.9183   -1.2696   -0.9517 C   0  0  3  0  0  0  0  0  0  0  0  0
    3.2479   -0.7062   -2.3891 C   0  0  0  0  0  0  0  0  0  0  0  0
    3.2339    0.4829   -2.6763 O   0  0  0  0  0  0  0  0  0  0  0  0
    3.5772   -1.7332   -3.2629 N   0  0  0  0  0  0  0  0  0  0  0  0
    4.1171   -1.6783   -4.5645 C   0  0  0  0  0  0  0  0  0  0  0  0
    4.5470   -0.4982   -5.1667 C   0  0  0  0  0  0  0  0  0  0  0  0
    5.2764   -0.4533   -6.3076 N   0  0  0  0  0  0  0  0  0  0  0  0
    5.5213   -1.6306   -6.9217 C   0  0  0  0  0  0  0  0  0  0  0  0
    5.0100   -2.8577   -6.5021 C   0  0  0  0  0  0  0  0  0  0  0  0
    5.1679   -4.0252   -7.2746 C   0  0  0  0  0  0  0  0  0  0  0  0
    4.6487   -5.2444   -6.8392 C   0  0  0  0  0  0  0  0  0  0  0  0
    4.0072   -5.3120   -5.6107 C   0  0  0  0  0  0  0  0  0  0  0  0
    3.5468   -6.5600   -5.1243 N   0  0  0  0  0  0  0  0  0  0  0  0
    1.9246   -6.9617   -5.1972 S   0  0  0  0  0  0  0  0  0  0  0  0
    1.6308   -7.1082   -6.9507 C   0  0  0  0  0  0  0  0  0  0  0  0
    1.8272   -8.2860   -4.6327 O   0  0  0  0  0  0  0  0  0  0  0  0
    1.1440   -5.8577   -4.6890 O   0  0  0  0  0  0  0  0  0  0  0  0
    3.8192   -4.1598   -4.8488 C   0  0  0  0  0  0  0  0  0  0  0  0
    4.3072   -2.8976   -5.2761 C   0  0  0  0  0  0  0  0  0  0  0  0
    3.1598   -0.1598    0.0866 C   0  0  0  0  0  0  0  0  0  0  0  0
    2.6030   -0.5801    1.4310 C   0  0  0  0  0  0  0  0  0  0  0  0
    1.1874   -0.7266    1.3740 O   0  0  0  0  0  0  0  0  0  0  0  0
    0.7575   -1.5474    0.3669 C   0  0  0  0  0  0  0  0  0  0  0  0
   -0.4821   -2.1518    0.5986 C   0  0  0  0  0  0  0  0  0  0  0  0
   -1.0064   -3.0526   -0.3224 C   0  0  0  0  0  0  0  0  0  0  0  0
   -0.3110   -3.3098   -1.4940 C   0  0  0  0  0  0  0  0  0  0  0  0
   -0.9518   -4.4367   -2.6207 Cl  0  0  0  0  0  0  0  0  0  0  0  0
    0.9161   -2.6851   -1.7464 C   0  0  0  0  0  0  0  0  0  0  0  0
    1.4850   -1.7955   -0.8100 C   0  0  0  0  0  0  0  0  0  0  0  0
    5.5172   -3.3394   -0.5678 H   0  0  0  0  0  0  0  0  0  0  0  0
    5.3206   -1.9103    0.4514 H   0  0  0  0  0  0  0  0  0  0  0  0
    5.5437   -1.7386   -1.3239 H   0  0  0  0  0  0  0  0  0  0  0  0
    3.5409   -2.6526   -2.8260 H   0  0  0  0  0  0  0  0  0  0  0  0
    4.3499    0.4804   -4.7391 H   0  0  0  0  0  0  0  0  0  0  0  0
    6.1582   -1.5550   -7.7994 H   0  0  0  0  0  0  0  0  0  0  0  0
    5.6759   -3.9830   -8.2368 H   0  0  0  0  0  0  0  0  0  0  0  0
    4.7463   -6.1246   -7.4666 H   0  0  0  0  0  0  0  0  0  0  0  0
    4.1877   -7.3501   -5.1017 H   0  0  0  0  0  0  0  0  0  0  0  0
    2.3541   -7.8037   -7.3762 H   0  0  0  0  0  0  0  0  0  0  0  0
    1.7088   -6.1227   -7.4139 H   0  0  0  0  0  0  0  0  0  0  0  0
    0.6209   -7.4989   -7.0872 H   0  0  0  0  0  0  0  0  0  0  0  0
    3.2654   -4.2692   -3.9216 H   0  0  0  0  0  0  0  0  0  0  0  0
    2.6504    0.7635   -0.2221 H   0  0  0  0  0  0  0  0  0  0  0  0
    4.2240    0.0797    0.1844 H   0  0  0  0  0  0  0  0  0  0  0  0
    2.8117    0.1964    2.1751 H   0  0  0  0  0  0  0  0  0  0  0  0
    3.0521   -1.5090    1.8024 H   0  0  0  0  0  0  0  0  0  0  0  0
   -1.0177   -1.9533    1.5229 H   0  0  0  0  0  0  0  0  0  0  0  0
   -1.9436   -3.5607   -0.1157 H   0  0  0  0  0  0  0  0  0  0  0  0
    1.4264   -2.9506   -2.6645 H   0  0  0  0  0  0  0  0  0  0  0  0
  1  2  1  0  0  0  0
  1 32  1  0  0  0  0
  1 33  1  0  0  0  0
  1 34  1  0  0  0  0
  2  3  1  0  0  0  0
  3  4  1  0  0  0  0
  3 22  1  0  0  0  0
  3 31  1  0  0  0  0
  4  5  2  0  0  0  0
  4  6  1  0  0  0  0
  6  7  1  0  0  0  0
  6 35  1  0  0  0  0
  7  8  1  0  0  0  0
  7 21  2  0  0  0  0
  8  9  2  0  0  0  0
  8 36  1  0  0  0  0
  9 10  1  0  0  0  0
 10 11  2  0  0  0  0
 10 37  1  0  0  0  0
 11 12  1  0  0  0  0
 11 21  1  0  0  0  0
 12 13  2  0  0  0  0
 12 38  1  0  0  0  0
 13 14  1  0  0  0  0
 13 39  1  0  0  0  0
 14 15  1  0  0  0  0
 14 20  2  0  0  0  0
 15 16  1  0  0  0  0
 15 40  1  0  0  0  0
 16 17  1  0  0  0  0
 16 18  2  0  0  0  0
 16 19  2  0  0  0  0
 17 41  1  0  0  0  0
 17 42  1  0  0  0  0
 17 43  1  0  0  0  0
 20 21  1  0  0  0  0
 20 44  1  0  0  0  0
 22 23  1  0  0  0  0
 22 45  1  0  0  0  0
 22 46  1  0  0  0  0
 23 24  1  0  0  0  0
 23 47  1  0  0  0  0
 23 48  1  0  0  0  0
 24 25  1  0  0  0  0
 25 26  1  0  0  0  0
 25 31  2  0  0  0  0
 26 27  2  0  0  0  0
 26 49  1  0  0  0  0
 27 28  1  0  0  0  0
 27 50  1  0  0  0  0
 28 29  1  0  0  0  0
 28 30  2  0  0  0  0
 30 31  1  0  0  0  0
 30 51  1  0  0  0  0
M  END
$$$$
