
 OpenBabel07202414203D

 51 54  0  0  0  0  0  0  0  0999 V2000
    6.4638    1.4820   -0.2369 O   0  5  0  0  0  0  0  0  0  0  0  0
    6.9624    0.7524   -1.1046 N   0  3  0  0  0  0  0  0  0  0  0  0
    7.8259    1.1104   -1.9163 O   0  0  0  0  0  0  0  0  0  0  0  0
    6.4931   -0.6382   -1.1772 C   0  0  0  0  0  0  0  0  0  0  0  0
    5.4559   -1.0776   -0.3465 C   0  0  0  0  0  0  0  0  0  0  0  0
    4.9821   -2.4098   -0.4263 C   0  0  0  0  0  0  0  0  0  0  0  0
    3.8653   -2.8402    0.4917 C   0  0  0  0  0  0  0  0  0  0  0  0
    3.4470   -1.8444    1.3299 F   0  0  0  0  0  0  0  0  0  0  0  0
    2.7491   -3.2661   -0.1519 F   0  0  0  0  0  0  0  0  0  0  0  0
    4.2452   -3.8631    1.3155 F   0  0  0  0  0  0  0  0  0  0  0  0
    5.5547   -3.2927   -1.3678 C   0  0  0  0  0  0  0  0  0  0  0  0
    5.0641   -4.6087   -1.5389 N   0  0  0  0  0  0  0  0  0  0  0  0
    4.9215   -5.3581   -2.7361 C   0  0  0  0  0  0  0  0  0  0  0  0
    4.9776   -4.7627   -4.0069 C   0  0  0  0  0  0  0  0  0  0  0  0
    4.7493   -5.4689   -5.2080 C   0  0  0  0  0  0  0  0  0  0  0  0
    4.7784   -4.6715   -6.4961 C   0  0  0  0  0  0  0  0  0  0  0  0
    5.0669   -5.3976   -7.7999 C   0  0  0  0  0  0  0  0  0  0  0  0
    4.1690   -5.7306   -8.5699 O   0  0  0  0  0  0  0  0  0  0  0  0
    6.4182   -5.5996   -8.0244 N   0  0  0  0  0  0  0  0  0  0  0  0
    6.9309   -6.1467   -9.2258 C   0  0  0  0  0  0  0  0  0  0  0  0
    7.7032   -7.3020   -9.1223 C   0  0  0  0  0  0  0  0  0  0  0  0
    8.3763   -7.8858  -10.1374 N   0  0  0  0  0  0  0  0  0  0  0  0
    8.3725   -7.2075  -11.3019 C   0  0  0  0  0  0  0  0  0  0  0  0
    7.7384   -5.9812  -11.4992 C   0  0  0  0  0  0  0  0  0  0  0  0
    7.9722   -5.2396  -12.6780 C   0  0  0  0  0  0  0  0  0  0  0  0
    7.3390   -4.0181  -12.8844 C   0  0  0  0  0  0  0  0  0  0  0  0
    6.4014   -3.5717  -11.9612 C   0  0  0  0  0  0  0  0  0  0  0  0
    6.1881   -4.2831  -10.7727 C   0  0  0  0  0  0  0  0  0  0  0  0
    6.9075   -5.4719  -10.4792 C   0  0  0  0  0  0  0  0  0  0  0  0
    4.3721   -6.8081   -5.1152 C   0  0  0  0  0  0  0  0  0  0  0  0
    4.2674   -7.4121   -3.8547 C   0  0  0  0  0  0  0  0  0  0  0  0
    3.7483   -9.0525   -3.7434 Cl  0  0  0  0  0  0  0  0  0  0  0  0
    4.5419   -6.7023   -2.6771 C   0  0  0  0  0  0  0  0  0  0  0  0
    6.6424   -2.8396   -2.1379 C   0  0  0  0  0  0  0  0  0  0  0  0
    7.0942   -1.5207   -2.0722 C   0  0  0  0  0  0  0  0  0  0  0  0
    4.9985   -0.3892    0.3667 H   0  0  0  0  0  0  0  0  0  0  0  0
    5.1993   -5.1922   -0.7126 H   0  0  0  0  0  0  0  0  0  0  0  0
    5.1710   -3.6956   -4.0849 H   0  0  0  0  0  0  0  0  0  0  0  0
    5.5363   -3.8803   -6.4032 H   0  0  0  0  0  0  0  0  0  0  0  0
    3.8135   -4.1626   -6.6048 H   0  0  0  0  0  0  0  0  0  0  0  0
    6.9374   -5.8202   -7.1840 H   0  0  0  0  0  0  0  0  0  0  0  0
    7.8001   -7.8300   -8.1737 H   0  0  0  0  0  0  0  0  0  0  0  0
    8.9354   -7.6858  -12.0996 H   0  0  0  0  0  0  0  0  0  0  0  0
    8.6985   -5.5851  -13.4122 H   0  0  0  0  0  0  0  0  0  0  0  0
    7.5720   -3.4241  -13.7647 H   0  0  0  0  0  0  0  0  0  0  0  0
    5.8532   -2.6519  -12.1511 H   0  0  0  0  0  0  0  0  0  0  0  0
    5.4502   -3.9000  -10.0749 H   0  0  0  0  0  0  0  0  0  0  0  0
    4.1113   -7.3792   -6.0044 H   0  0  0  0  0  0  0  0  0  0  0  0
    4.4257   -7.1982   -1.7167 H   0  0  0  0  0  0  0  0  0  0  0  0
    7.1493   -3.5228   -2.8174 H   0  0  0  0  0  0  0  0  0  0  0  0
    7.9064   -1.2078   -2.7245 H   0  0  0  0  0  0  0  0  0  0  0  0
  1  2  1  0  0  0  0
  2  3  2  0  0  0  0
  2  4  1  0  0  0  0
  4  5  2  0  0  0  0
  4 35  1  0  0  0  0
  5  6  1  0  0  0  0
  5 36  1  0  0  0  0
  6  7  1  0  0  0  0
  6 11  2  0  0  0  0
  7  8  1  0  0  0  0
  7  9  1  0  0  0  0
  7 10  1  0  0  0  0
 11 12  1  0  0  0  0
 11 34  1  0  0  0  0
 12 13  1  0  0  0  0
 12 37  1  0  0  0  0
 13 14  2  0  0  0  0
 13 33  1  0  0  0  0
 14 15  1  0  0  0  0
 14 38  1  0  0  0  0
 15 16  1  0  0  0  0
 15 30  2  0  0  0  0
 16 17  1  0  0  0  0
 16 39  1  0  0  0  0
 16 40  1  0  0  0  0
 17 18  2  0  0  0  0
 17 19  1  0  0  0  0
 19 20  1  0  0  0  0
 19 41  1  0  0  0  0
 20 21  2  0  0  0  0
 20 29  1  0  0  0  0
 21 22  1  0  0  0  0
 21 42  1  0  0  0  0
 22 23  2  0  0  0  0
 23 24  1  0  0  0  0
 23 43  1  0  0  0  0
 24 25  2  0  0  0  0
 24 29  1  0  0  0  0
 25 26  1  0  0  0  0
 25 44  1  0  0  0  0
 26 27  2  0  0  0  0
 26 45  1  0  0  0  0
 27 28  1  0  0  0  0
 27 46  1  0  0  0  0
 28 29  2  0  0  0  0
 28 47  1  0  0  0  0
 30 31  1  0  0  0  0
 30 48  1  0  0  0  0
 31 32  1  0  0  0  0
 31 33  2  0  0  0  0
 33 49  1  0  0  0  0
 34 35  2  0  0  0  0
 34 50  1  0  0  0  0
 35 51  1  0  0  0  0
M  CHG  2   1  -1   2   1
M  END
$$$$
