
 OpenBabel07202414193D

 47 50  0  0  0  0  0  0  0  0999 V2000
    2.9259   -0.7065   -0.7293 O   0  0  0  0  0  0  0  0  0  0  0  0
    2.2767    0.1039   -0.0593 C   0  0  0  0  0  0  0  0  0  0  0  0
    0.7524    0.0927   -0.1794 C   0  0  0  0  0  0  0  0  0  0  0  0
   -0.0035   -0.2402    1.0877 C   0  0  0  0  0  0  0  0  0  0  0  0
    0.5437   -1.1538    1.9918 C   0  0  0  0  0  0  0  0  0  0  0  0
    0.0503   -1.3913    3.2210 N   0  0  0  0  0  0  0  0  0  0  0  0
   -1.0580   -0.7032    3.5694 C   0  0  0  0  0  0  0  0  0  0  0  0
   -1.7290    0.1974    2.7421 C   0  0  0  0  0  0  0  0  0  0  0  0
   -2.8722    0.8879    3.1872 C   0  0  0  0  0  0  0  0  0  0  0  0
   -3.5350    1.7803    2.3507 C   0  0  0  0  0  0  0  0  0  0  0  0
   -3.0703    1.9805    1.0587 C   0  0  0  0  0  0  0  0  0  0  0  0
   -1.9293    1.3071    0.6103 C   0  0  0  0  0  0  0  0  0  0  0  0
   -1.2145    0.4146    1.4467 C   0  0  0  0  0  0  0  0  0  0  0  0
    2.8984    1.0556    0.7469 N   0  0  0  0  0  0  0  0  0  0  0  0
    2.1916    2.0106    1.6069 C   0  0  0  0  0  0  0  0  0  0  0  0
    1.9577    3.3938    1.0435 C   0  0  0  0  0  0  0  0  0  0  0  0
    2.4304    3.8179   -0.2048 C   0  0  0  0  0  0  0  0  0  0  0  0
    2.3197    5.1574   -0.5789 C   0  0  0  0  0  0  0  0  0  0  0  0
    1.7054    6.0640    0.2775 C   0  0  0  0  0  0  0  0  0  0  0  0
    1.6508    7.3592   -0.0634 F   0  0  0  0  0  0  0  0  0  0  0  0
    1.1664    5.6537    1.4852 C   0  0  0  0  0  0  0  0  0  0  0  0
    1.2860    4.3189    1.8656 C   0  0  0  0  0  0  0  0  0  0  0  0
    4.3613    1.1626    0.6972 C   0  0  0  0  0  0  0  0  0  0  0  0
    5.0331    0.7316    1.9727 C   0  0  0  0  0  0  0  0  0  0  0  0
    6.5351    0.8807    2.0655 C   0  0  0  0  0  0  0  0  0  0  0  0
    5.9162   -0.4879    2.0277 C   0  0  0  0  0  0  0  0  0  0  0  0
    0.4711   -0.6460   -0.9412 H   0  0  0  0  0  0  0  0  0  0  0  0
    0.4780    1.0749   -0.5782 H   0  0  0  0  0  0  0  0  0  0  0  0
    1.4560   -1.7025    1.7643 H   0  0  0  0  0  0  0  0  0  0  0  0
   -1.4029   -0.9022    4.5805 H   0  0  0  0  0  0  0  0  0  0  0  0
   -3.2500    0.7307    4.1960 H   0  0  0  0  0  0  0  0  0  0  0  0
   -4.4131    2.3138    2.7063 H   0  0  0  0  0  0  0  0  0  0  0  0
   -3.5933    2.6641    0.3929 H   0  0  0  0  0  0  0  0  0  0  0  0
   -1.6134    1.4912   -0.4141 H   0  0  0  0  0  0  0  0  0  0  0  0
    2.7640    2.1224    2.5327 H   0  0  0  0  0  0  0  0  0  0  0  0
    1.2284    1.6166    1.9141 H   0  0  0  0  0  0  0  0  0  0  0  0
    2.9195    3.1257   -0.8857 H   0  0  0  0  0  0  0  0  0  0  0  0
    2.7308    5.5029   -1.5228 H   0  0  0  0  0  0  0  0  0  0  0  0
    0.6783    6.3746    2.1331 H   0  0  0  0  0  0  0  0  0  0  0  0
    0.8770    4.0029    2.8253 H   0  0  0  0  0  0  0  0  0  0  0  0
    4.6154    2.2093    0.5012 H   0  0  0  0  0  0  0  0  0  0  0  0
    4.7582    0.5888   -0.1477 H   0  0  0  0  0  0  0  0  0  0  0  0
    4.4820    0.9869    2.8680 H   0  0  0  0  0  0  0  0  0  0  0  0
    6.9511    1.2281    3.0059 H   0  0  0  0  0  0  0  0  0  0  0  0
    7.0848    1.2113    1.1927 H   0  0  0  0  0  0  0  0  0  0  0  0
    5.9213   -1.0690    2.9434 H   0  0  0  0  0  0  0  0  0  0  0  0
    6.0438   -1.0803    1.1287 H   0  0  0  0  0  0  0  0  0  0  0  0
  1  2  2  0  0  0  0
  2  3  1  0  0  0  0
  2 14  1  0  0  0  0
  3  4  1  0  0  0  0
  3 27  1  0  0  0  0
  3 28  1  0  0  0  0
  4  5  1  0  0  0  0
  4 13  2  0  0  0  0
  5  6  2  0  0  0  0
  5 29  1  0  0  0  0
  6  7  1  0  0  0  0
  7  8  2  0  0  0  0
  7 30  1  0  0  0  0
  8  9  1  0  0  0  0
  8 13  1  0  0  0  0
  9 10  2  0  0  0  0
  9 31  1  0  0  0  0
 10 11  1  0  0  0  0
 10 32  1  0  0  0  0
 11 12  2  0  0  0  0
 11 33  1  0  0  0  0
 12 13  1  0  0  0  0
 12 34  1  0  0  0  0
 14 15  1  0  0  0  0
 14 23  1  0  0  0  0
 15 16  1  0  0  0  0
 15 35  1  0  0  0  0
 15 36  1  0  0  0  0
 16 17  1  0  0  0  0
 16 22  2  0  0  0  0
 17 18  2  0  0  0  0
 17 37  1  0  0  0  0
 18 19  1  0  0  0  0
 18 38  1  0  0  0  0
 19 20  1  0  0  0  0
 19 21  2  0  0  0  0
 21 22  1  0  0  0  0
 21 39  1  0  0  0  0
 22 40  1  0  0  0  0
 23 24  1  0  0  0  0
 23 41  1  0  0  0  0
 23 42  1  0  0  0  0
 24 25  1  0  0  0  0
 24 26  1  0  0  0  0
 24 43  1  0  0  0  0
 25 26  1  0  0  0  0
 25 44  1  0  0  0  0
 25 45  1  0  0  0  0
 26 46  1  0  0  0  0
 26 47  1  0  0  0  0
M  END
$$$$
