
 OpenBabel07202414173D

 64 69  0  0  1  0  0  0  0  0999 V2000
    0.8466    0.4278   -0.0517 Cl  0  0  0  0  0  0  0  0  0  0  0  0
    2.5624    0.3069   -0.0269 C   0  0  0  0  0  0  0  0  0  0  0  0
    3.3361    1.4600   -0.0479 C   0  0  0  0  0  0  0  0  0  0  0  0
    4.7195    1.3525   -0.0404 C   0  0  0  0  0  0  0  0  0  0  0  0
    5.3398    0.0908   -0.0002 C   0  0  0  0  0  0  0  0  0  0  0  0
    4.5641   -1.0957    0.0219 C   0  0  0  0  0  0  0  0  0  0  0  0
    3.1636   -0.9534    0.0047 C   0  0  0  0  0  0  0  0  0  0  0  0
    5.2383   -2.4903    0.0416 C   0  0  3  0  0  0  0  0  0  0  0  0
    6.7571   -2.3760   -0.1548 C   0  0  0  0  0  0  0  0  0  0  0  0
    7.3802   -1.2032    0.5156 N   0  0  0  0  0  0  0  0  0  0  0  0
    7.6777   -1.1899    2.1711 S   0  0  0  0  0  0  0  0  0  0  0  0
    8.4144    0.0197    2.4641 O   0  0  0  0  0  0  0  0  0  0  0  0
    6.4387   -1.4021    2.8696 O   0  0  0  0  0  0  0  0  0  0  0  0
    8.7963   -2.6013    2.3621 C   0  0  0  0  0  0  0  0  0  0  0  0
   10.1972   -2.3690    1.7450 C   0  0  0  0  0  0  0  0  0  0  0  0
   10.1245   -2.2505    0.2688 C   0  0  0  0  0  0  0  0  0  0  0  0
   10.0940   -2.2113   -0.8820 N   0  0  0  0  0  0  0  0  0  0  0  0
   11.1463   -3.5513    2.0754 C   0  0  0  0  0  0  0  0  0  0  0  0
   12.5424   -2.9472    2.2896 C   0  0  0  0  0  0  0  0  0  0  0  0
   12.4021   -1.4486    2.0911 C   0  0  0  0  0  0  0  0  0  0  0  0
   10.9358   -1.1761    2.3613 C   0  0  0  0  0  0  0  0  0  0  0  0
    6.8474    0.0549   -0.0243 C   0  0  0  0  0  0  0  0  0  0  0  0
    4.6527   -3.4038   -1.0742 C   0  0  0  0  0  0  0  0  0  0  0  0
    3.6832   -4.3548   -0.3779 C   0  0  0  0  0  0  0  0  0  0  0  0
    3.6326   -3.9215    0.9906 N   0  0  0  0  0  0  0  0  0  0  0  0
    2.7232   -4.4638    1.9401 C   0  0  0  0  0  0  0  0  0  0  0  0
    2.1136   -5.6902    1.6609 C   0  0  0  0  0  0  0  0  0  0  0  0
    1.0737   -6.2221    2.3331 N   0  0  0  0  0  0  0  0  0  0  0  0
    0.6432   -5.5182    3.3965 C   0  0  0  0  0  0  0  0  0  0  0  0
    1.2245   -4.3405    3.8597 C   0  0  0  0  0  0  0  0  0  0  0  0
    0.7541   -3.7548    5.0490 C   0  0  0  0  0  0  0  0  0  0  0  0
    1.2812   -2.5539    5.5055 C   0  0  0  0  0  0  0  0  0  0  0  0
    2.2440   -1.9037    4.7453 C   0  0  0  0  0  0  0  0  0  0  0  0
    2.7291   -2.4879    3.5633 C   0  0  0  0  0  0  0  0  0  0  0  0
    2.2746   -3.7547    3.1035 C   0  0  0  0  0  0  0  0  0  0  0  0
    4.8708   -3.3445    1.2715 C   0  0  0  0  0  0  0  0  0  0  0  0
    5.5988   -3.6880    2.1922 O   0  0  0  0  0  0  0  0  0  0  0  0
    2.8677    2.4407   -0.0704 H   0  0  0  0  0  0  0  0  0  0  0  0
    5.3215    2.2602   -0.0576 H   0  0  0  0  0  0  0  0  0  0  0  0
    2.5114   -1.8213    0.0143 H   0  0  0  0  0  0  0  0  0  0  0  0
    6.9639   -2.2404   -1.2292 H   0  0  0  0  0  0  0  0  0  0  0  0
    7.2768   -3.3020    0.1020 H   0  0  0  0  0  0  0  0  0  0  0  0
    8.3085   -3.4872    1.9413 H   0  0  0  0  0  0  0  0  0  0  0  0
    8.8681   -2.7755    3.4420 H   0  0  0  0  0  0  0  0  0  0  0  0
   11.1774   -4.3025    1.2751 H   0  0  0  0  0  0  0  0  0  0  0  0
   10.8433   -4.0767    2.9880 H   0  0  0  0  0  0  0  0  0  0  0  0
   13.2817   -3.3654    1.5995 H   0  0  0  0  0  0  0  0  0  0  0  0
   12.8825   -3.1612    3.3085 H   0  0  0  0  0  0  0  0  0  0  0  0
   12.6507   -1.1728    1.0594 H   0  0  0  0  0  0  0  0  0  0  0  0
   13.0526   -0.8716    2.7549 H   0  0  0  0  0  0  0  0  0  0  0  0
   10.6639   -0.2132    1.9197 H   0  0  0  0  0  0  0  0  0  0  0  0
   10.7614   -1.1291    3.4449 H   0  0  0  0  0  0  0  0  0  0  0  0
    7.1922    0.1648   -1.0608 H   0  0  0  0  0  0  0  0  0  0  0  0
    7.2594    0.9156    0.5152 H   0  0  0  0  0  0  0  0  0  0  0  0
    5.4311   -3.9991   -1.5694 H   0  0  0  0  0  0  0  0  0  0  0  0
    4.1472   -2.8404   -1.8664 H   0  0  0  0  0  0  0  0  0  0  0  0
    4.1049   -5.3689   -0.4009 H   0  0  0  0  0  0  0  0  0  0  0  0
    2.6923   -4.3540   -0.8360 H   0  0  0  0  0  0  0  0  0  0  0  0
    2.4671   -6.3247    0.8552 H   0  0  0  0  0  0  0  0  0  0  0  0
   -0.2325   -5.9420    3.8828 H   0  0  0  0  0  0  0  0  0  0  0  0
   -0.0177   -4.2467    5.6389 H   0  0  0  0  0  0  0  0  0  0  0  0
    0.9365   -2.1279    6.4446 H   0  0  0  0  0  0  0  0  0  0  0  0
    2.6345   -0.9440    5.0768 H   0  0  0  0  0  0  0  0  0  0  0  0
    3.4873   -1.9324    3.0162 H   0  0  0  0  0  0  0  0  0  0  0  0
  1  2  1  0  0  0  0
  2  3  1  0  0  0  0
  2  7  2  0  0  0  0
  3  4  2  0  0  0  0
  3 38  1  0  0  0  0
  4  5  1  0  0  0  0
  4 39  1  0  0  0  0
  5  6  2  0  0  0  0
  5 22  1  0  0  0  0
  6  7  1  0  0  0  0
  6  8  1  0  0  0  0
  7 40  1  0  0  0  0
  8  9  1  0  0  0  0
  8 23  1  0  0  0  0
  8 36  1  0  0  0  0
  9 10  1  0  0  0  0
  9 41  1  0  0  0  0
  9 42  1  0  0  0  0
 10 11  1  0  0  0  0
 10 22  1  0  0  0  0
 11 12  2  0  0  0  0
 11 13  2  0  0  0  0
 11 14  1  0  0  0  0
 14 15  1  0  0  0  0
 14 43  1  0  0  0  0
 14 44  1  0  0  0  0
 15 16  1  0  0  0  0
 15 18  1  0  0  0  0
 15 21  1  0  0  0  0
 16 17  3  0  0  0  0
 18 19  1  0  0  0  0
 18 45  1  0  0  0  0
 18 46  1  0  0  0  0
 19 20  1  0  0  0  0
 19 47  1  0  0  0  0
 19 48  1  0  0  0  0
 20 21  1  0  0  0  0
 20 49  1  0  0  0  0
 20 50  1  0  0  0  0
 21 51  1  0  0  0  0
 21 52  1  0  0  0  0
 22 53  1  0  0  0  0
 22 54  1  0  0  0  0
 23 24  1  0  0  0  0
 23 55  1  0  0  0  0
 23 56  1  0  0  0  0
 24 25  1  0  0  0  0
 24 57  1  0  0  0  0
 24 58  1  0  0  0  0
 25 26  1  0  0  0  0
 25 36  1  0  0  0  0
 26 27  1  0  0  0  0
 26 35  2  0  0  0  0
 27 28  2  0  0  0  0
 27 59  1  0  0  0  0
 28 29  1  0  0  0  0
 29 30  2  0  0  0  0
 29 60  1  0  0  0  0
 30 31  1  0  0  0  0
 30 35  1  0  0  0  0
 31 32  2  0  0  0  0
 31 61  1  0  0  0  0
 32 33  1  0  0  0  0
 32 62  1  0  0  0  0
 33 34  2  0  0  0  0
 33 63  1  0  0  0  0
 34 35  1  0  0  0  0
 34 64  1  0  0  0  0
 36 37  2  0  0  0  0
M  END
$$$$
