
 OpenBabel07202414133D

 52 55  0  0  1  0  0  0  0  0999 V2000
    7.1215   -1.9711   -0.2800 C   0  0  0  0  0  0  0  0  0  0  0  0
    6.0287   -1.0388   -0.0632 N   0  0  0  0  0  0  0  0  0  0  0  0
    5.1415   -1.2714    1.0676 C   0  0  0  0  0  0  0  0  0  0  0  0
    5.9395    0.0777   -0.8993 C   0  0  0  0  0  0  0  0  0  0  0  0
    6.6618    0.2157   -1.8891 O   0  0  0  0  0  0  0  0  0  0  0  0
    4.8285    1.0884   -0.5637 C   0  0  0  0  0  0  0  0  0  0  0  0
    4.9500    2.4132   -1.1730 N   0  0  0  0  0  0  0  0  0  0  0  0
    4.6391    2.5795   -2.5886 C   0  0  0  0  0  0  0  0  0  0  0  0
    3.8681    3.8794   -2.8242 C   0  0  3  0  0  0  0  0  0  0  0  0
    2.4038    3.6912   -2.4154 C   0  0  0  0  0  0  0  0  0  0  0  0
    1.5675    3.4246   -3.2751 O   0  0  0  0  0  0  0  0  0  0  0  0
    2.1596    3.7554   -1.0523 N   0  0  0  0  0  0  0  0  0  0  0  0
    0.9386    3.4726   -0.3872 C   0  0  0  0  0  0  0  0  0  0  0  0
   -0.2570    3.2691   -1.0766 C   0  0  0  0  0  0  0  0  0  0  0  0
   -1.4032    2.8264   -0.5130 N   0  0  0  0  0  0  0  0  0  0  0  0
   -1.3806    2.6346    0.8191 C   0  0  0  0  0  0  0  0  0  0  0  0
   -0.2981    2.9376    1.6417 C   0  0  0  0  0  0  0  0  0  0  0  0
   -0.4143    2.8436    3.0397 C   0  0  0  0  0  0  0  0  0  0  0  0
    0.6512    3.1863    3.8661 C   0  0  0  0  0  0  0  0  0  0  0  0
    1.8584    3.5746    3.3016 C   0  0  0  0  0  0  0  0  0  0  0  0
    1.9931    3.6462    1.9101 C   0  0  0  0  0  0  0  0  0  0  0  0
    0.9101    3.3596    1.0357 C   0  0  0  0  0  0  0  0  0  0  0  0
    4.5501    5.0367   -2.1248 C   0  0  0  0  0  0  0  0  0  0  0  0
    4.2568    6.3579   -2.5014 C   0  0  0  0  0  0  0  0  0  0  0  0
    4.8412    7.4270   -1.8228 C   0  0  0  0  0  0  0  0  0  0  0  0
    4.4231    9.0361   -2.2499 Cl  0  0  0  0  0  0  0  0  0  0  0  0
    5.7395    7.1925   -0.7768 C   0  0  0  0  0  0  0  0  0  0  0  0
    6.0364    5.8883   -0.3950 C   0  0  0  0  0  0  0  0  0  0  0  0
    5.4332    4.8067   -1.0510 C   0  0  0  0  0  0  0  0  0  0  0  0
    5.5959    3.4305   -0.4843 C   0  0  0  0  0  0  0  0  0  0  0  0
    6.1421    3.2730    0.6005 O   0  0  0  0  0  0  0  0  0  0  0  0
    7.0126   -2.8617    0.3454 H   0  0  0  0  0  0  0  0  0  0  0  0
    8.0656   -1.4722   -0.0406 H   0  0  0  0  0  0  0  0  0  0  0  0
    7.1366   -2.2759   -1.3304 H   0  0  0  0  0  0  0  0  0  0  0  0
    5.3820   -2.2077    1.5779 H   0  0  0  0  0  0  0  0  0  0  0  0
    4.1135   -1.3241    0.6965 H   0  0  0  0  0  0  0  0  0  0  0  0
    5.2261   -0.4488    1.7823 H   0  0  0  0  0  0  0  0  0  0  0  0
    4.7977    1.2394    0.5183 H   0  0  0  0  0  0  0  0  0  0  0  0
    3.8675    0.6634   -0.8733 H   0  0  0  0  0  0  0  0  0  0  0  0
    4.0752    1.7124   -2.9485 H   0  0  0  0  0  0  0  0  0  0  0  0
    5.5955    2.6091   -3.1263 H   0  0  0  0  0  0  0  0  0  0  0  0
    3.8727    4.0845   -3.9036 H   0  0  0  0  0  0  0  0  0  0  0  0
    2.9685    3.8648   -0.4583 H   0  0  0  0  0  0  0  0  0  0  0  0
   -0.3559    3.4671   -2.1384 H   0  0  0  0  0  0  0  0  0  0  0  0
   -2.3037    2.2281    1.2251 H   0  0  0  0  0  0  0  0  0  0  0  0
   -1.3542    2.5360    3.4951 H   0  0  0  0  0  0  0  0  0  0  0  0
    0.5346    3.1591    4.9466 H   0  0  0  0  0  0  0  0  0  0  0  0
    2.6969    3.8388    3.9425 H   0  0  0  0  0  0  0  0  0  0  0  0
    2.9606    3.9672    1.5338 H   0  0  0  0  0  0  0  0  0  0  0  0
    3.5442    6.5545   -3.3035 H   0  0  0  0  0  0  0  0  0  0  0  0
    6.1899    8.0324   -0.2464 H   0  0  0  0  0  0  0  0  0  0  0  0
    6.7086    5.7135    0.4445 H   0  0  0  0  0  0  0  0  0  0  0  0
  1  2  1  0  0  0  0
  1 32  1  0  0  0  0
  1 33  1  0  0  0  0
  1 34  1  0  0  0  0
  2  3  1  0  0  0  0
  2  4  1  0  0  0  0
  3 35  1  0  0  0  0
  3 36  1  0  0  0  0
  3 37  1  0  0  0  0
  4  5  2  0  0  0  0
  4  6  1  0  0  0  0
  6  7  1  0  0  0  0
  6 38  1  0  0  0  0
  6 39  1  0  0  0  0
  7  8  1  0  0  0  0
  7 30  1  0  0  0  0
  8  9  1  0  0  0  0
  8 40  1  0  0  0  0
  8 41  1  0  0  0  0
  9 10  1  0  0  0  0
  9 23  1  0  0  0  0
  9 42  1  0  0  0  0
 10 11  2  0  0  0  0
 10 12  1  0  0  0  0
 12 13  1  0  0  0  0
 12 43  1  0  0  0  0
 13 14  1  0  0  0  0
 13 22  2  0  0  0  0
 14 15  2  0  0  0  0
 14 44  1  0  0  0  0
 15 16  1  0  0  0  0
 16 17  2  0  0  0  0
 16 45  1  0  0  0  0
 17 18  1  0  0  0  0
 17 22  1  0  0  0  0
 18 19  2  0  0  0  0
 18 46  1  0  0  0  0
 19 20  1  0  0  0  0
 19 47  1  0  0  0  0
 20 21  2  0  0  0  0
 20 48  1  0  0  0  0
 21 22  1  0  0  0  0
 21 49  1  0  0  0  0
 23 24  1  0  0  0  0
 23 29  2  0  0  0  0
 24 25  2  0  0  0  0
 24 50  1  0  0  0  0
 25 26  1  0  0  0  0
 25 27  1  0  0  0  0
 27 28  2  0  0  0  0
 27 51  1  0  0  0  0
 28 29  1  0  0  0  0
 28 52  1  0  0  0  0
 29 30  1  0  0  0  0
 30 31  2  0  0  0  0
M  END
$$$$
