
 OpenBabel07202414113D

 56 59  0  0  0  0  0  0  0  0999 V2000
    5.0128    3.7397   -5.2653 C   0  0  0  0  0  0  0  0  0  0  0  0
    5.6213    2.4938   -4.6845 C   0  0  0  0  0  0  0  0  0  0  0  0
    5.4030    1.4009   -5.1961 O   0  0  0  0  0  0  0  0  0  0  0  0
    6.3973    2.7436   -3.5642 N   0  0  0  0  0  0  0  0  0  0  0  0
    7.1224    1.7709   -2.8435 C   0  0  0  0  0  0  0  0  0  0  0  0
    7.4151    0.5102   -3.3623 C   0  0  0  0  0  0  0  0  0  0  0  0
    8.0585   -0.4821   -2.5936 C   0  0  0  0  0  0  0  0  0  0  0  0
    8.2754   -1.8389   -3.2083 C   0  0  0  0  0  0  0  0  0  0  0  0
    7.8592   -1.9241   -4.5064 F   0  0  0  0  0  0  0  0  0  0  0  0
    9.5804   -2.2283   -3.2296 F   0  0  0  0  0  0  0  0  0  0  0  0
    7.5966   -2.8225   -2.5502 F   0  0  0  0  0  0  0  0  0  0  0  0
    8.4530   -0.1845   -1.2796 C   0  0  0  0  0  0  0  0  0  0  0  0
    9.0080   -1.1880   -0.4388 N   0  0  0  0  0  0  0  0  0  0  0  0
    9.8579   -0.9304    0.6695 C   0  0  0  0  0  0  0  0  0  0  0  0
    9.6761   -1.6183    1.8778 C   0  0  0  0  0  0  0  0  0  0  0  0
   10.4081   -1.2807    3.0289 C   0  0  0  0  0  0  0  0  0  0  0  0
   10.2039   -1.9605    4.3680 C   0  0  0  0  0  0  0  0  0  0  0  0
    8.8021   -2.4795    4.6848 C   0  0  0  0  0  0  0  0  0  0  0  0
    7.7907   -2.1913    4.0563 O   0  0  0  0  0  0  0  0  0  0  0  0
    8.8103   -3.2751    5.8264 N   0  0  0  0  0  0  0  0  0  0  0  0
    7.6215   -3.8133    6.3848 C   0  0  0  0  0  0  0  0  0  0  0  0
    7.3373   -3.4969    7.7194 C   0  0  0  0  0  0  0  0  0  0  0  0
    6.2849   -3.9584    8.4098 N   0  0  0  0  0  0  0  0  0  0  0  0
    5.5312   -4.8810    7.7800 C   0  0  0  0  0  0  0  0  0  0  0  0
    5.7864   -5.3809    6.5017 C   0  0  0  0  0  0  0  0  0  0  0  0
    5.0909   -6.5012    6.0160 C   0  0  0  0  0  0  0  0  0  0  0  0
    5.3461   -6.9983    4.7414 C   0  0  0  0  0  0  0  0  0  0  0  0
    6.2415   -6.3331    3.9139 C   0  0  0  0  0  0  0  0  0  0  0  0
    6.9646   -5.2383    4.4010 C   0  0  0  0  0  0  0  0  0  0  0  0
    6.8045   -4.7731    5.7316 C   0  0  0  0  0  0  0  0  0  0  0  0
   11.4142   -0.3070    2.9159 C   0  0  0  0  0  0  0  0  0  0  0  0
   11.6567    0.3197    1.6946 C   0  0  0  0  0  0  0  0  0  0  0  0
   12.8920    1.5122    1.5763 Cl  0  0  0  0  0  0  0  0  0  0  0  0
   10.8912    0.0082    0.5771 C   0  0  0  0  0  0  0  0  0  0  0  0
    8.1734    1.1004   -0.7719 C   0  0  0  0  0  0  0  0  0  0  0  0
    7.5418    2.0766   -1.5516 C   0  0  0  0  0  0  0  0  0  0  0  0
    4.3076    3.4561   -6.0530 H   0  0  0  0  0  0  0  0  0  0  0  0
    5.7977    4.3624   -5.7016 H   0  0  0  0  0  0  0  0  0  0  0  0
    4.4693    4.2941   -4.4965 H   0  0  0  0  0  0  0  0  0  0  0  0
    6.3231    3.6611   -3.1439 H   0  0  0  0  0  0  0  0  0  0  0  0
    7.1478    0.2647   -4.3864 H   0  0  0  0  0  0  0  0  0  0  0  0
    8.2694   -1.8445   -0.1748 H   0  0  0  0  0  0  0  0  0  0  0  0
    8.9130   -2.3940    1.9303 H   0  0  0  0  0  0  0  0  0  0  0  0
   10.4462   -1.2413    5.1618 H   0  0  0  0  0  0  0  0  0  0  0  0
   10.9125   -2.7905    4.4368 H   0  0  0  0  0  0  0  0  0  0  0  0
    9.5280   -3.0254    6.4972 H   0  0  0  0  0  0  0  0  0  0  0  0
    7.9757   -2.8139    8.2736 H   0  0  0  0  0  0  0  0  0  0  0  0
    4.6862   -5.2395    8.3630 H   0  0  0  0  0  0  0  0  0  0  0  0
    4.3829   -7.0272    6.6538 H   0  0  0  0  0  0  0  0  0  0  0  0
    4.8444   -7.8988    4.3965 H   0  0  0  0  0  0  0  0  0  0  0  0
    6.3989   -6.6800    2.8954 H   0  0  0  0  0  0  0  0  0  0  0  0
    7.6671   -4.7556    3.7273 H   0  0  0  0  0  0  0  0  0  0  0  0
   12.0142   -0.0323    3.7810 H   0  0  0  0  0  0  0  0  0  0  0  0
   11.0836    0.5093   -0.3677 H   0  0  0  0  0  0  0  0  0  0  0  0
    8.4229    1.3514    0.2562 H   0  0  0  0  0  0  0  0  0  0  0  0
    7.3393    3.0466   -1.1041 H   0  0  0  0  0  0  0  0  0  0  0  0
  1  2  1  0  0  0  0
  1 37  1  0  0  0  0
  1 38  1  0  0  0  0
  1 39  1  0  0  0  0
  2  3  2  0  0  0  0
  2  4  1  0  0  0  0
  4  5  1  0  0  0  0
  4 40  1  0  0  0  0
  5  6  2  0  0  0  0
  5 36  1  0  0  0  0
  6  7  1  0  0  0  0
  6 41  1  0  0  0  0
  7  8  1  0  0  0  0
  7 12  2  0  0  0  0
  8  9  1  0  0  0  0
  8 10  1  0  0  0  0
  8 11  1  0  0  0  0
 12 13  1  0  0  0  0
 12 35  1  0  0  0  0
 13 14  1  0  0  0  0
 13 42  1  0  0  0  0
 14 15  2  0  0  0  0
 14 34  1  0  0  0  0
 15 16  1  0  0  0  0
 15 43  1  0  0  0  0
 16 17  1  0  0  0  0
 16 31  2  0  0  0  0
 17 18  1  0  0  0  0
 17 44  1  0  0  0  0
 17 45  1  0  0  0  0
 18 19  2  0  0  0  0
 18 20  1  0  0  0  0
 20 21  1  0  0  0  0
 20 46  1  0  0  0  0
 21 22  2  0  0  0  0
 21 30  1  0  0  0  0
 22 23  1  0  0  0  0
 22 47  1  0  0  0  0
 23 24  2  0  0  0  0
 24 25  1  0  0  0  0
 24 48  1  0  0  0  0
 25 26  2  0  0  0  0
 25 30  1  0  0  0  0
 26 27  1  0  0  0  0
 26 49  1  0  0  0  0
 27 28  2  0  0  0  0
 27 50  1  0  0  0  0
 28 29  1  0  0  0  0
 28 51  1  0  0  0  0
 29 30  2  0  0  0  0
 29 52  1  0  0  0  0
 31 32  1  0  0  0  0
 31 53  1  0  0  0  0
 32 33  1  0  0  0  0
 32 34  2  0  0  0  0
 34 54  1  0  0  0  0
 35 36  2  0  0  0  0
 35 55  1  0  0  0  0
 36 56  1  0  0  0  0
M  END
$$$$
