
 OpenBabel07202414133D

 49 52  0  0  1  0  0  0  0  0999 V2000
    2.5153   -0.5889    1.2153 C   0  0  0  0  0  0  0  0  0  0  0  0
    2.9240    0.5308    0.3763 N   0  0  0  0  0  0  0  0  0  0  0  0
    2.3818    1.8443    0.7056 C   0  0  0  0  0  0  0  0  0  0  0  0
    3.4481    0.3088   -0.8954 C   0  0  0  0  0  0  0  0  0  0  0  0
    3.5893   -0.9750   -1.4367 C   0  0  0  0  0  0  0  0  0  0  0  0
    4.1402   -1.2014   -2.7096 C   0  0  0  0  0  0  0  0  0  0  0  0
    4.5902   -0.1485   -3.5122 C   0  0  0  0  0  0  0  0  0  0  0  0
    4.4706    1.1391   -2.9722 C   0  0  0  0  0  0  0  0  0  0  0  0
    3.9038    1.3577   -1.7058 C   0  0  0  0  0  0  0  0  0  0  0  0
    5.2554   -0.3443   -4.8861 C   0  0  3  0  0  0  0  0  0  0  0  0
    5.4789   -1.8152   -5.3052 C   0  0  0  0  0  0  0  0  0  0  0  0
    4.2660   -2.6611   -5.6208 C   0  0  0  0  0  0  0  0  0  0  0  0
    4.2660   -4.0917   -5.4585 C   0  0  0  0  0  0  0  0  0  0  0  0
    3.0655   -4.6741   -5.7954 C   0  0  0  0  0  0  0  0  0  0  0  0
    1.9200   -3.5197   -6.3069 S   0  0  0  0  0  0  0  0  0  0  0  0
    3.0290   -2.2363   -6.0723 C   0  0  0  0  0  0  0  0  0  0  0  0
    4.6524    0.5431   -6.0098 C   0  0  0  0  0  0  0  0  0  0  0  0
    3.8105    1.4104   -5.7799 O   0  0  0  0  0  0  0  0  0  0  0  0
    5.1756    0.3359   -7.2799 N   0  0  0  0  0  0  0  0  0  0  0  0
    4.6350    1.0474   -8.3355 C   0  0  0  0  0  0  0  0  0  0  0  0
    4.2623    0.4994   -9.4748 N   0  0  0  0  0  0  0  0  0  0  0  0
    3.6171    1.4616  -10.2215 N   0  0  0  0  0  0  0  0  0  0  0  0
    3.6998    2.5993   -9.5678 C   0  0  0  0  0  0  0  0  0  0  0  0
    4.4278    2.4148   -8.4003 N   0  0  0  0  0  0  0  0  0  0  0  0
    4.8679    3.4730   -7.6022 C   0  0  0  0  0  0  0  0  0  0  0  0
    4.5105    4.7311   -7.9247 C   0  0  0  0  0  0  0  0  0  0  0  0
    3.6447    4.9409   -9.0750 C   0  0  0  0  0  0  0  0  0  0  0  0
    3.2539    3.9174   -9.8602 C   0  0  0  0  0  0  0  0  0  0  0  0
    2.1702   -0.2495    2.1982 H   0  0  0  0  0  0  0  0  0  0  0  0
    3.3610   -1.2605    1.4026 H   0  0  0  0  0  0  0  0  0  0  0  0
    1.6962   -1.1530    0.7566 H   0  0  0  0  0  0  0  0  0  0  0  0
    1.8631    1.8389    1.6705 H   0  0  0  0  0  0  0  0  0  0  0  0
    1.6580    2.1749   -0.0476 H   0  0  0  0  0  0  0  0  0  0  0  0
    3.1852    2.5841    0.7885 H   0  0  0  0  0  0  0  0  0  0  0  0
    3.2607   -1.8505   -0.8844 H   0  0  0  0  0  0  0  0  0  0  0  0
    4.1983   -2.2368   -3.0292 H   0  0  0  0  0  0  0  0  0  0  0  0
    4.8037    2.0095   -3.5347 H   0  0  0  0  0  0  0  0  0  0  0  0
    3.8448    2.3871   -1.3651 H   0  0  0  0  0  0  0  0  0  0  0  0
    6.2694    0.0653   -4.7478 H   0  0  0  0  0  0  0  0  0  0  0  0
    6.0458   -2.3152   -4.5066 H   0  0  0  0  0  0  0  0  0  0  0  0
    6.1440   -1.8632   -6.1766 H   0  0  0  0  0  0  0  0  0  0  0  0
    5.1123   -4.6665   -5.1001 H   0  0  0  0  0  0  0  0  0  0  0  0
    2.8047   -5.7230   -5.7632 H   0  0  0  0  0  0  0  0  0  0  0  0
    2.6820   -1.2323   -6.2749 H   0  0  0  0  0  0  0  0  0  0  0  0
    5.3967   -0.6125   -7.5451 H   0  0  0  0  0  0  0  0  0  0  0  0
    5.4958    3.2387   -6.7549 H   0  0  0  0  0  0  0  0  0  0  0  0
    4.8390    5.5866   -7.3447 H   0  0  0  0  0  0  0  0  0  0  0  0
    3.3145    5.9558   -9.2796 H   0  0  0  0  0  0  0  0  0  0  0  0
    2.6030    4.0712  -10.7162 H   0  0  0  0  0  0  0  0  0  0  0  0
  1  2  1  0  0  0  0
  1 29  1  0  0  0  0
  1 30  1  0  0  0  0
  1 31  1  0  0  0  0
  2  3  1  0  0  0  0
  2  4  1  0  0  0  0
  3 32  1  0  0  0  0
  3 33  1  0  0  0  0
  3 34  1  0  0  0  0
  4  5  1  0  0  0  0
  4  9  2  0  0  0  0
  5  6  2  0  0  0  0
  5 35  1  0  0  0  0
  6  7  1  0  0  0  0
  6 36  1  0  0  0  0
  7  8  2  0  0  0  0
  7 10  1  0  0  0  0
  8  9  1  0  0  0  0
  8 37  1  0  0  0  0
  9 38  1  0  0  0  0
 10 11  1  0  0  0  0
 10 17  1  0  0  0  0
 10 39  1  0  0  0  0
 11 12  1  0  0  0  0
 11 40  1  0  0  0  0
 11 41  1  0  0  0  0
 12 13  1  0  0  0  0
 12 16  2  0  0  0  0
 13 14  2  0  0  0  0
 13 42  1  0  0  0  0
 14 15  1  0  0  0  0
 14 43  1  0  0  0  0
 15 16  1  0  0  0  0
 16 44  1  0  0  0  0
 17 18  2  0  0  0  0
 17 19  1  0  0  0  0
 19 20  1  0  0  0  0
 19 45  1  0  0  0  0
 20 21  2  0  0  0  0
 20 24  1  0  0  0  0
 21 22  1  0  0  0  0
 22 23  2  0  0  0  0
 23 24  1  0  0  0  0
 23 28  1  0  0  0  0
 24 25  1  0  0  0  0
 25 26  2  0  0  0  0
 25 46  1  0  0  0  0
 26 27  1  0  0  0  0
 26 47  1  0  0  0  0
 27 28  2  0  0  0  0
 27 48  1  0  0  0  0
 28 49  1  0  0  0  0
M  END
$$$$
