
 OpenBabel07202414133D

 43 47  0  0  1  0  0  0  0  0999 V2000
    1.1872    0.0719   -0.1706 C   0  0  0  0  0  0  0  0  0  0  0  0
    2.6192    0.0850   -0.3426 N   0  0  0  0  0  0  0  0  0  0  0  0
    3.3998    1.2334   -0.4348 C   0  0  0  0  0  0  0  0  0  0  0  0
    2.9948    2.3877   -0.4147 O   0  0  0  0  0  0  0  0  0  0  0  0
    4.8709    0.7993   -0.4275 C   0  0  2  0  0  0  0  0  0  0  0  0
    5.5328    1.2713    0.8636 C   0  0  0  0  0  0  0  0  0  0  0  0
    6.5972    2.2638    0.4428 C   0  0  0  0  0  0  0  0  0  0  0  0
    6.5507    2.3784   -0.9960 N   0  0  0  0  0  0  0  0  0  0  0  0
    7.6302    3.0230   -1.7033 C   0  0  0  0  0  0  0  0  0  0  0  0
    8.1066    2.4723   -2.8998 C   0  0  0  0  0  0  0  0  0  0  0  0
    9.2823    2.7950   -3.4896 N   0  0  0  0  0  0  0  0  0  0  0  0
   10.0099    3.7586   -2.8939 C   0  0  0  0  0  0  0  0  0  0  0  0
    9.5909    4.4924   -1.7908 C   0  0  0  0  0  0  0  0  0  0  0  0
   10.3734    5.5650   -1.3171 C   0  0  0  0  0  0  0  0  0  0  0  0
    9.9384    6.3550   -0.2599 C   0  0  0  0  0  0  0  0  0  0  0  0
    8.7115    6.0879    0.3240 C   0  0  0  0  0  0  0  0  0  0  0  0
    7.9320    5.0212   -0.1432 C   0  0  0  0  0  0  0  0  0  0  0  0
    8.3559    4.1509   -1.1848 C   0  0  0  0  0  0  0  0  0  0  0  0
    5.6491    1.4414   -1.5490 C   0  0  0  0  0  0  0  0  0  0  0  0
    5.4880    1.1813   -2.7354 O   0  0  0  0  0  0  0  0  0  0  0  0
    4.7568   -0.7102   -0.4418 C   0  0  0  0  0  0  0  0  0  0  0  0
    5.7482   -1.6811   -0.3992 C   0  0  0  0  0  0  0  0  0  0  0  0
    5.3579   -3.0130   -0.2371 C   0  0  0  0  0  0  0  0  0  0  0  0
    6.5587   -4.2372   -0.0898 Cl  0  0  0  0  0  0  0  0  0  0  0  0
    4.0009   -3.3675   -0.1383 C   0  0  0  0  0  0  0  0  0  0  0  0
    3.0088   -2.3856   -0.2026 C   0  0  0  0  0  0  0  0  0  0  0  0
    3.4093   -1.0697   -0.3394 C   0  0  0  0  0  0  0  0  0  0  0  0
    0.7967    1.0948   -0.1461 H   0  0  0  0  0  0  0  0  0  0  0  0
    0.9385   -0.4173    0.7763 H   0  0  0  0  0  0  0  0  0  0  0  0
    0.7256   -0.4683   -1.0006 H   0  0  0  0  0  0  0  0  0  0  0  0
    5.9969    0.4623    1.4407 H   0  0  0  0  0  0  0  0  0  0  0  0
    4.8215    1.7558    1.5436 H   0  0  0  0  0  0  0  0  0  0  0  0
    7.5878    1.8994    0.7351 H   0  0  0  0  0  0  0  0  0  0  0  0
    6.3911    3.2075    0.9375 H   0  0  0  0  0  0  0  0  0  0  0  0
    7.5872    1.6784   -3.4249 H   0  0  0  0  0  0  0  0  0  0  0  0
   10.9712    3.9487   -3.3665 H   0  0  0  0  0  0  0  0  0  0  0  0
   11.3198    5.8105   -1.7966 H   0  0  0  0  0  0  0  0  0  0  0  0
   10.5369    7.1967    0.0796 H   0  0  0  0  0  0  0  0  0  0  0  0
    8.3401    6.7225    1.1255 H   0  0  0  0  0  0  0  0  0  0  0  0
    6.9386    4.9349    0.2832 H   0  0  0  0  0  0  0  0  0  0  0  0
    6.8006   -1.4158   -0.4494 H   0  0  0  0  0  0  0  0  0  0  0  0
    3.7186   -4.4075    0.0029 H   0  0  0  0  0  0  0  0  0  0  0  0
    1.9627   -2.6619   -0.1120 H   0  0  0  0  0  0  0  0  0  0  0  0
  1  2  1  0  0  0  0
  1 28  1  0  0  0  0
  1 29  1  0  0  0  0
  1 30  1  0  0  0  0
  2  3  1  0  0  0  0
  2 27  1  0  0  0  0
  3  4  2  0  0  0  0
  5  3  1  6  0  0  0
  5  6  1  0  0  0  0
  5 19  1  0  0  0  0
  5 21  1  0  0  0  0
  6  7  1  0  0  0  0
  6 31  1  0  0  0  0
  6 32  1  0  0  0  0
  7  8  1  0  0  0  0
  7 33  1  0  0  0  0
  7 34  1  0  0  0  0
  8  9  1  0  0  0  0
  8 19  1  0  0  0  0
  9 10  1  0  0  0  0
  9 18  2  0  0  0  0
 10 11  2  0  0  0  0
 10 35  1  0  0  0  0
 11 12  1  0  0  0  0
 12 13  2  0  0  0  0
 12 36  1  0  0  0  0
 13 14  1  0  0  0  0
 13 18  1  0  0  0  0
 14 15  2  0  0  0  0
 14 37  1  0  0  0  0
 15 16  1  0  0  0  0
 15 38  1  0  0  0  0
 16 17  2  0  0  0  0
 16 39  1  0  0  0  0
 17 18  1  0  0  0  0
 17 40  1  0  0  0  0
 19 20  2  0  0  0  0
 21 22  1  0  0  0  0
 21 27  2  0  0  0  0
 22 23  2  0  0  0  0
 22 41  1  0  0  0  0
 23 24  1  0  0  0  0
 23 25  1  0  0  0  0
 25 26  2  0  0  0  0
 25 42  1  0  0  0  0
 26 27  1  0  0  0  0
 26 43  1  0  0  0  0
M  END
$$$$
