
 OpenBabel07202414203D

 34 35  0  0  0  0  0  0  0  0999 V2000
   -3.3130    5.2704   -1.0492 C   0  0  0  0  0  0  0  0  0  0  0  0
   -2.3188    4.9091   -1.9531 C   0  0  0  0  0  0  0  0  0  0  0  0
   -1.2740    4.0714   -1.5471 C   0  0  0  0  0  0  0  0  0  0  0  0
   -1.1920    3.6053   -0.2391 C   0  0  0  0  0  0  0  0  0  0  0  0
   -2.1884    3.9749    0.6615 C   0  0  0  0  0  0  0  0  0  0  0  0
   -3.2429    4.8020    0.2621 C   0  0  0  0  0  0  0  0  0  0  0  0
   -2.1962    3.5443    1.9273 F   0  0  0  0  0  0  0  0  0  0  0  0
    0.0672    2.4613    0.2156 S   0  0  0  0  0  0  0  0  0  0  0  0
   -0.0291    2.2020    1.6354 O   0  0  0  0  0  0  0  0  0  0  0  0
    0.0054    1.3651   -0.7312 O   0  0  0  0  0  0  0  0  0  0  0  0
    1.5202    3.3089   -0.0397 N   0  0  0  0  0  0  0  0  0  0  0  0
    2.2612    3.0435   -1.3026 C   0  0  0  0  0  0  0  0  0  0  0  0
    3.1360    1.7873   -1.1916 C   0  0  0  0  0  0  0  0  0  0  0  0
    4.0060    1.7802   -0.0111 N   0  0  0  0  0  0  0  0  0  0  0  0
    3.3983    2.2403    1.2485 C   0  0  0  0  0  0  0  0  0  0  0  0
    2.4625    3.4521    1.1083 C   0  0  0  0  0  0  0  0  0  0  0  0
    5.1160    0.9369    0.1033 C   0  0  0  0  0  0  0  0  0  0  0  0
    5.7622    0.8608    1.1524 O   0  0  0  0  0  0  0  0  0  0  0  0
    5.5108    0.0785   -1.0889 C   0  0  0  0  0  0  0  0  0  0  0  0
    6.5770    0.9968   -2.1649 Cl  0  0  0  0  0  0  0  0  0  0  0  0
   -0.3731    3.7315   -2.4739 F   0  0  0  0  0  0  0  0  0  0  0  0
   -4.1400    5.9015   -1.3671 H   0  0  0  0  0  0  0  0  0  0  0  0
   -2.3551    5.2548   -2.9840 H   0  0  0  0  0  0  0  0  0  0  0  0
   -4.0217    5.0603    0.9777 H   0  0  0  0  0  0  0  0  0  0  0  0
    2.8889    3.9187   -1.5099 H   0  0  0  0  0  0  0  0  0  0  0  0
    1.5920    2.9374   -2.1557 H   0  0  0  0  0  0  0  0  0  0  0  0
    3.7468    1.7204   -2.0963 H   0  0  0  0  0  0  0  0  0  0  0  0
    2.5242    0.8807   -1.1404 H   0  0  0  0  0  0  0  0  0  0  0  0
    4.1913    2.4890    1.9640 H   0  0  0  0  0  0  0  0  0  0  0  0
    2.8503    1.3846    1.6604 H   0  0  0  0  0  0  0  0  0  0  0  0
    3.0600    4.3540    0.9272 H   0  0  0  0  0  0  0  0  0  0  0  0
    1.9266    3.6353    2.0448 H   0  0  0  0  0  0  0  0  0  0  0  0
    4.6423   -0.2810   -1.6456 H   0  0  0  0  0  0  0  0  0  0  0  0
    6.0526   -0.8025   -0.7298 H   0  0  0  0  0  0  0  0  0  0  0  0
  1  2  1  0  0  0  0
  1  6  2  0  0  0  0
  1 22  1  0  0  0  0
  2  3  2  0  0  0  0
  2 23  1  0  0  0  0
  3  4  1  0  0  0  0
  3 21  1  0  0  0  0
  4  5  2  0  0  0  0
  4  8  1  0  0  0  0
  5  6  1  0  0  0  0
  5  7  1  0  0  0  0
  6 24  1  0  0  0  0
  8  9  2  0  0  0  0
  8 10  2  0  0  0  0
  8 11  1  0  0  0  0
 11 12  1  0  0  0  0
 11 16  1  0  0  0  0
 12 13  1  0  0  0  0
 12 25  1  0  0  0  0
 12 26  1  0  0  0  0
 13 14  1  0  0  0  0
 13 27  1  0  0  0  0
 13 28  1  0  0  0  0
 14 15  1  0  0  0  0
 14 17  1  0  0  0  0
 15 16  1  0  0  0  0
 15 29  1  0  0  0  0
 15 30  1  0  0  0  0
 16 31  1  0  0  0  0
 16 32  1  0  0  0  0
 17 18  2  0  0  0  0
 17 19  1  0  0  0  0
 19 20  1  0  0  0  0
 19 33  1  0  0  0  0
 19 34  1  0  0  0  0
M  END
$$$$
