
 OpenBabel07202414203D

 48 52  0  0  0  0  0  0  0  0999 V2000
   -0.3276    7.1705   -9.5868 O   0  5  0  0  0  0  0  0  0  0  0  0
    0.8283    7.5329   -9.8419 N   0  3  0  0  0  0  0  0  0  0  0  0
    1.1418    8.6060  -10.3762 O   0  0  0  0  0  0  0  0  0  0  0  0
    1.8686    6.6300   -9.4770 C   0  0  0  0  0  0  0  0  0  0  0  0
    1.7249    5.3731   -8.9380 C   0  0  0  0  0  0  0  0  0  0  0  0
    2.9171    4.7313   -8.6443 N   0  0  0  0  0  0  0  0  0  0  0  0
    3.9268    5.5253   -8.9412 C   0  0  0  0  0  0  0  0  0  0  0  0
    5.5970    5.0753   -8.6670 S   0  0  0  0  0  0  0  0  0  0  0  0
    5.3533    4.2282   -7.1704 C   0  0  0  0  0  0  0  0  0  0  0  0
    5.4031    4.8331   -6.0053 N   0  0  0  0  0  0  0  0  0  0  0  0
    4.9984    3.9389   -5.0579 N   0  0  0  0  0  0  0  0  0  0  0  0
    4.7441    2.7874   -5.6518 C   0  0  0  0  0  0  0  0  0  0  0  0
    4.4520    1.6065   -4.8971 C   0  0  0  0  0  0  0  0  0  0  0  0
    3.8273    1.5302   -3.6618 C   0  0  0  0  0  0  0  0  0  0  0  0
    3.8242    0.1706   -3.2715 C   0  0  0  0  0  0  0  0  0  0  0  0
    4.4476   -0.5126   -4.2857 C   0  0  0  0  0  0  0  0  0  0  0  0
    4.8249    0.3404   -5.2710 O   0  0  0  0  0  0  0  0  0  0  0  0
    4.9403    2.9076   -7.0238 N   0  0  0  0  0  0  0  0  0  0  0  0
    4.7278    1.9309   -8.0405 C   0  0  0  0  0  0  0  0  0  0  0  0
    3.6529    1.0345   -7.9613 C   0  0  0  0  0  0  0  0  0  0  0  0
    3.4215    0.1236   -8.9997 C   0  0  0  0  0  0  0  0  0  0  0  0
    4.2436    0.1092  -10.1261 C   0  0  0  0  0  0  0  0  0  0  0  0
    3.8956   -0.7741  -11.1126 O   0  0  0  0  0  0  0  0  0  0  0  0
    4.3837   -0.4391  -12.4162 C   0  0  0  0  0  0  0  0  0  0  0  0
    3.5765   -1.0991  -13.5086 C   0  0  0  0  0  0  0  0  0  0  0  0
    2.2426   -1.4812  -13.3143 C   0  0  0  0  0  0  0  0  0  0  0  0
    1.4922   -1.9952  -14.3718 C   0  0  0  0  0  0  0  0  0  0  0  0
    2.0625   -2.1236  -15.6369 C   0  0  0  0  0  0  0  0  0  0  0  0
    3.3865   -1.7438  -15.8452 C   0  0  0  0  0  0  0  0  0  0  0  0
    4.1393   -1.2323  -14.7879 C   0  0  0  0  0  0  0  0  0  0  0  0
    5.3418    0.9659  -10.1814 C   0  0  0  0  0  0  0  0  0  0  0  0
    5.5801    1.8733   -9.1484 C   0  0  0  0  0  0  0  0  0  0  0  0
    3.5086    7.0267   -9.6654 S   0  0  0  0  0  0  0  0  0  0  0  0
    0.7863    4.8732   -8.7264 H   0  0  0  0  0  0  0  0  0  0  0  0
    3.4370    2.3737   -3.1072 H   0  0  0  0  0  0  0  0  0  0  0  0
    3.4319   -0.2533   -2.3577 H   0  0  0  0  0  0  0  0  0  0  0  0
    4.6971   -1.5525   -4.4458 H   0  0  0  0  0  0  0  0  0  0  0  0
    2.9518    1.0484   -7.1311 H   0  0  0  0  0  0  0  0  0  0  0  0
    2.5770   -0.5583   -8.9393 H   0  0  0  0  0  0  0  0  0  0  0  0
    5.4279   -0.7656  -12.4901 H   0  0  0  0  0  0  0  0  0  0  0  0
    4.3128    0.6425  -12.5931 H   0  0  0  0  0  0  0  0  0  0  0  0
    1.7759   -1.3704  -12.3375 H   0  0  0  0  0  0  0  0  0  0  0  0
    0.4573   -2.2855  -14.2093 H   0  0  0  0  0  0  0  0  0  0  0  0
    1.4724   -2.5128  -16.4616 H   0  0  0  0  0  0  0  0  0  0  0  0
    3.8297   -1.8354  -16.8331 H   0  0  0  0  0  0  0  0  0  0  0  0
    5.1665   -0.9232  -14.9720 H   0  0  0  0  0  0  0  0  0  0  0  0
    6.0369    0.9494  -11.0141 H   0  0  0  0  0  0  0  0  0  0  0  0
    6.4665    2.4972   -9.2272 H   0  0  0  0  0  0  0  0  0  0  0  0
  1  2  1  0  0  0  0
  2  3  2  0  0  0  0
  2  4  1  0  0  0  0
  4  5  2  0  0  0  0
  4 33  1  0  0  0  0
  5  6  1  0  0  0  0
  5 34  1  0  0  0  0
  6  7  2  0  0  0  0
  7  8  1  0  0  0  0
  7 33  1  0  0  0  0
  8  9  1  0  0  0  0
  9 10  2  0  0  0  0
  9 18  1  0  0  0  0
 10 11  1  0  0  0  0
 11 12  2  0  0  0  0
 12 13  1  0  0  0  0
 12 18  1  0  0  0  0
 13 14  2  0  0  0  0
 13 17  1  0  0  0  0
 14 15  1  0  0  0  0
 14 35  1  0  0  0  0
 15 16  2  0  0  0  0
 15 36  1  0  0  0  0
 16 17  1  0  0  0  0
 16 37  1  0  0  0  0
 18 19  1  0  0  0  0
 19 20  1  0  0  0  0
 19 32  2  0  0  0  0
 20 21  2  0  0  0  0
 20 38  1  0  0  0  0
 21 22  1  0  0  0  0
 21 39  1  0  0  0  0
 22 23  1  0  0  0  0
 22 31  2  0  0  0  0
 23 24  1  0  0  0  0
 24 25  1  0  0  0  0
 24 40  1  0  0  0  0
 24 41  1  0  0  0  0
 25 26  1  0  0  0  0
 25 30  2  0  0  0  0
 26 27  2  0  0  0  0
 26 42  1  0  0  0  0
 27 28  1  0  0  0  0
 27 43  1  0  0  0  0
 28 29  2  0  0  0  0
 28 44  1  0  0  0  0
 29 30  1  0  0  0  0
 29 45  1  0  0  0  0
 30 46  1  0  0  0  0
 31 32  1  0  0  0  0
 31 47  1  0  0  0  0
 32 48  1  0  0  0  0
M  CHG  2   1  -1   2   1
M  END
$$$$
