
 OpenBabel07202414113D

 53 56  0  0  0  0  0  0  0  0999 V2000
    1.0606   -1.1056    0.2887 C   0  0  0  0  0  0  0  0  0  0  0  0
    2.5291   -1.4222    0.1594 C   0  0  0  0  0  0  0  0  0  0  0  0
    2.9987   -2.4497    0.6380 O   0  0  0  0  0  0  0  0  0  0  0  0
    3.2338   -0.4584   -0.5309 N   0  0  0  0  0  0  0  0  0  0  0  0
    4.6148   -0.5048   -0.7482 C   0  0  0  0  0  0  0  0  0  0  0  0
    5.2861   -1.6847   -1.0492 C   0  0  0  0  0  0  0  0  0  0  0  0
    6.6762   -1.6488   -1.2153 C   0  0  0  0  0  0  0  0  0  0  0  0
    7.3554   -0.4475   -1.0441 C   0  0  0  0  0  0  0  0  0  0  0  0
    8.7769   -0.3835   -1.1244 N   0  0  0  0  0  0  0  0  0  0  0  0
    9.4213   -0.0898   -2.4021 C   0  0  0  0  0  0  0  0  0  0  0  0
    8.5437    0.1459   -3.6003 C   0  0  0  0  0  0  0  0  0  0  0  0
    8.1687    1.4460   -3.9726 C   0  0  0  0  0  0  0  0  0  0  0  0
    7.3214    1.6492   -5.0529 C   0  0  0  0  0  0  0  0  0  0  0  0
    6.8348    0.5570   -5.7825 C   0  0  0  0  0  0  0  0  0  0  0  0
    7.2277   -0.7324   -5.4282 C   0  0  0  0  0  0  0  0  0  0  0  0
    6.6350   -2.0812   -6.3210 Cl  0  0  0  0  0  0  0  0  0  0  0  0
    8.0828   -0.9426   -4.3537 C   0  0  0  0  0  0  0  0  0  0  0  0
    9.4995   -0.6189    0.0495 C   0  0  0  0  0  0  0  0  0  0  0  0
    8.9652   -0.8497    1.1340 O   0  0  0  0  0  0  0  0  0  0  0  0
   11.0346   -0.5879   -0.0258 C   0  0  0  0  0  0  0  0  0  0  0  0
   11.6480   -1.9296   -0.3556 C   0  0  0  0  0  0  0  0  0  0  0  0
   11.3937   -2.9873    0.5235 C   0  0  0  0  0  0  0  0  0  0  0  0
   11.8345   -4.2477    0.3536 N   0  0  0  0  0  0  0  0  0  0  0  0
   12.5483   -4.4892   -0.7637 C   0  0  0  0  0  0  0  0  0  0  0  0
   12.8654   -3.5315   -1.7249 C   0  0  0  0  0  0  0  0  0  0  0  0
   13.5733   -3.8844   -2.8879 C   0  0  0  0  0  0  0  0  0  0  0  0
   13.8996   -2.9239   -3.8402 C   0  0  0  0  0  0  0  0  0  0  0  0
   13.5589   -1.5971   -3.6179 C   0  0  0  0  0  0  0  0  0  0  0  0
   12.8538   -1.2372   -2.4625 C   0  0  0  0  0  0  0  0  0  0  0  0
   12.4468   -2.1985   -1.5040 C   0  0  0  0  0  0  0  0  0  0  0  0
    6.5903    0.6820   -0.7536 C   0  0  0  0  0  0  0  0  0  0  0  0
    5.2344    0.6898   -0.6569 N   0  0  0  0  0  0  0  0  0  0  0  0
    0.6343   -1.6837    1.1138 H   0  0  0  0  0  0  0  0  0  0  0  0
    0.5505   -1.3801   -0.6392 H   0  0  0  0  0  0  0  0  0  0  0  0
    0.8992   -0.0442    0.4995 H   0  0  0  0  0  0  0  0  0  0  0  0
    2.8676    0.4849   -0.5322 H   0  0  0  0  0  0  0  0  0  0  0  0
    4.7528   -2.6206   -1.1665 H   0  0  0  0  0  0  0  0  0  0  0  0
    7.2118   -2.5644   -1.4551 H   0  0  0  0  0  0  0  0  0  0  0  0
   10.0929   -0.9215   -2.6276 H   0  0  0  0  0  0  0  0  0  0  0  0
   10.0565    0.7929   -2.2557 H   0  0  0  0  0  0  0  0  0  0  0  0
    8.5282    2.3056   -3.4093 H   0  0  0  0  0  0  0  0  0  0  0  0
    7.0205    2.6585   -5.3320 H   0  0  0  0  0  0  0  0  0  0  0  0
    6.1583    0.7193   -6.6089 H   0  0  0  0  0  0  0  0  0  0  0  0
    8.3823   -1.9558   -4.0890 H   0  0  0  0  0  0  0  0  0  0  0  0
   11.4016   -0.2750    0.9600 H   0  0  0  0  0  0  0  0  0  0  0  0
   11.3662    0.2133   -0.6922 H   0  0  0  0  0  0  0  0  0  0  0  0
   10.7951   -2.8436    1.4229 H   0  0  0  0  0  0  0  0  0  0  0  0
   12.8737   -5.5221   -0.8691 H   0  0  0  0  0  0  0  0  0  0  0  0
   13.8645   -4.9181   -3.0637 H   0  0  0  0  0  0  0  0  0  0  0  0
   14.4278   -3.2112   -4.7465 H   0  0  0  0  0  0  0  0  0  0  0  0
   13.8381   -0.8382   -4.3449 H   0  0  0  0  0  0  0  0  0  0  0  0
   12.6301   -0.1821   -2.3325 H   0  0  0  0  0  0  0  0  0  0  0  0
    7.0610    1.6423   -0.5699 H   0  0  0  0  0  0  0  0  0  0  0  0
  1  2  1  0  0  0  0
  1 33  1  0  0  0  0
  1 34  1  0  0  0  0
  1 35  1  0  0  0  0
  2  3  2  0  0  0  0
  2  4  1  0  0  0  0
  4  5  1  0  0  0  0
  4 36  1  0  0  0  0
  5  6  1  0  0  0  0
  5 32  2  0  0  0  0
  6  7  2  0  0  0  0
  6 37  1  0  0  0  0
  7  8  1  0  0  0  0
  7 38  1  0  0  0  0
  8  9  1  0  0  0  0
  8 31  2  0  0  0  0
  9 10  1  0  0  0  0
  9 18  1  0  0  0  0
 10 11  1  0  0  0  0
 10 39  1  0  0  0  0
 10 40  1  0  0  0  0
 11 12  1  0  0  0  0
 11 17  2  0  0  0  0
 12 13  2  0  0  0  0
 12 41  1  0  0  0  0
 13 14  1  0  0  0  0
 13 42  1  0  0  0  0
 14 15  2  0  0  0  0
 14 43  1  0  0  0  0
 15 16  1  0  0  0  0
 15 17  1  0  0  0  0
 17 44  1  0  0  0  0
 18 19  2  0  0  0  0
 18 20  1  0  0  0  0
 20 21  1  0  0  0  0
 20 45  1  0  0  0  0
 20 46  1  0  0  0  0
 21 22  1  0  0  0  0
 21 30  2  0  0  0  0
 22 23  2  0  0  0  0
 22 47  1  0  0  0  0
 23 24  1  0  0  0  0
 24 25  2  0  0  0  0
 24 48  1  0  0  0  0
 25 26  1  0  0  0  0
 25 30  1  0  0  0  0
 26 27  2  0  0  0  0
 26 49  1  0  0  0  0
 27 28  1  0  0  0  0
 27 50  1  0  0  0  0
 28 29  2  0  0  0  0
 28 51  1  0  0  0  0
 29 30  1  0  0  0  0
 29 52  1  0  0  0  0
 31 32  1  0  0  0  0
 31 53  1  0  0  0  0
M  END
$$$$
