
 OpenBabel07202414183D

 34 36  0  0  0  0  0  0  0  0999 V2000
   -0.7203    2.9408    5.0841 F   0  0  0  0  0  0  0  0  0  0  0  0
   -0.3480    3.6349    4.0015 C   0  0  0  0  0  0  0  0  0  0  0  0
   -0.4928    5.0154    3.9924 C   0  0  0  0  0  0  0  0  0  0  0  0
   -0.0871    5.7381    2.8711 C   0  0  0  0  0  0  0  0  0  0  0  0
    0.4430    5.0724    1.7591 C   0  0  0  0  0  0  0  0  0  0  0  0
    0.9738    6.0365    0.4278 Cl  0  0  0  0  0  0  0  0  0  0  0  0
    0.5467    3.6710    1.7433 C   0  0  0  0  0  0  0  0  0  0  0  0
    1.0297    2.8970    0.5408 C   0  0  0  0  0  0  0  0  0  0  0  0
    2.4898    2.5060    0.6154 C   0  0  0  0  0  0  0  0  0  0  0  0
    2.8306    1.4324    1.1039 O   0  0  0  0  0  0  0  0  0  0  0  0
    3.3541    3.4690    0.1076 N   0  0  0  0  0  0  0  0  0  0  0  0
    4.7550    3.2505    0.0457 C   0  0  0  0  0  0  0  0  0  0  0  0
    5.5936    4.2144    0.6044 C   0  0  0  0  0  0  0  0  0  0  0  0
    6.9362    4.0978    0.6994 N   0  0  0  0  0  0  0  0  0  0  0  0
    7.4711    2.9617    0.2016 C   0  0  0  0  0  0  0  0  0  0  0  0
    6.7495    1.9548   -0.4462 C   0  0  0  0  0  0  0  0  0  0  0  0
    7.3875    0.8254   -0.9919 C   0  0  0  0  0  0  0  0  0  0  0  0
    6.6602   -0.1363   -1.6916 C   0  0  0  0  0  0  0  0  0  0  0  0
    5.2925    0.0259   -1.8624 C   0  0  0  0  0  0  0  0  0  0  0  0
    4.6473    1.1345   -1.3063 C   0  0  0  0  0  0  0  0  0  0  0  0
    5.3486    2.1103   -0.5557 C   0  0  0  0  0  0  0  0  0  0  0  0
    0.1674    2.9615    2.8974 C   0  0  0  0  0  0  0  0  0  0  0  0
   -0.9129    5.5186    4.8578 H   0  0  0  0  0  0  0  0  0  0  0  0
   -0.1896    6.8209    2.8690 H   0  0  0  0  0  0  0  0  0  0  0  0
    0.8363    3.4308   -0.3957 H   0  0  0  0  0  0  0  0  0  0  0  0
    0.4468    1.9704    0.4503 H   0  0  0  0  0  0  0  0  0  0  0  0
    3.0473    4.4263    0.2497 H   0  0  0  0  0  0  0  0  0  0  0  0
    5.1956    5.1208    1.0484 H   0  0  0  0  0  0  0  0  0  0  0  0
    8.5487    2.8857    0.3228 H   0  0  0  0  0  0  0  0  0  0  0  0
    8.4620    0.6938   -0.8844 H   0  0  0  0  0  0  0  0  0  0  0  0
    7.1619   -1.0043   -2.1108 H   0  0  0  0  0  0  0  0  0  0  0  0
    4.7187   -0.7077   -2.4227 H   0  0  0  0  0  0  0  0  0  0  0  0
    3.5786    1.2324   -1.4727 H   0  0  0  0  0  0  0  0  0  0  0  0
    0.2619    1.8783    2.9452 H   0  0  0  0  0  0  0  0  0  0  0  0
  1  2  1  0  0  0  0
  2  3  1  0  0  0  0
  2 22  2  0  0  0  0
  3  4  2  0  0  0  0
  3 23  1  0  0  0  0
  4  5  1  0  0  0  0
  4 24  1  0  0  0  0
  5  6  1  0  0  0  0
  5  7  2  0  0  0  0
  7  8  1  0  0  0  0
  7 22  1  0  0  0  0
  8  9  1  0  0  0  0
  8 25  1  0  0  0  0
  8 26  1  0  0  0  0
  9 10  2  0  0  0  0
  9 11  1  0  0  0  0
 11 12  1  0  0  0  0
 11 27  1  0  0  0  0
 12 13  1  0  0  0  0
 12 21  2  0  0  0  0
 13 14  2  0  0  0  0
 13 28  1  0  0  0  0
 14 15  1  0  0  0  0
 15 16  2  0  0  0  0
 15 29  1  0  0  0  0
 16 17  1  0  0  0  0
 16 21  1  0  0  0  0
 17 18  2  0  0  0  0
 17 30  1  0  0  0  0
 18 19  1  0  0  0  0
 18 31  1  0  0  0  0
 19 20  2  0  0  0  0
 19 32  1  0  0  0  0
 20 21  1  0  0  0  0
 20 33  1  0  0  0  0
 22 34  1  0  0  0  0
M  END
$$$$
