
 OpenBabel07202414203D

 38 40  0  0  1  0  0  0  0  0999 V2000
    0.6922    0.2387   -0.1515 O   0  0  0  0  0  0  0  0  0  0  0  0
    2.1078    0.0301   -0.0828 C   0  0  0  0  0  0  0  0  0  0  0  0
    2.8448    1.3300    0.2936 C   0  0  3  0  0  0  0  0  0  0  0  0
    2.4515    1.8331    1.6981 C   0  0  0  0  0  0  0  0  0  0  0  0
    3.2829    2.1680    2.5401 O   0  0  0  0  0  0  0  0  0  0  0  0
    1.0867    1.8991    1.9086 N   0  0  0  0  0  0  0  0  0  0  0  0
    0.5179    2.3541    3.1195 C   0  0  0  0  0  0  0  0  0  0  0  0
    0.9763    3.5242    3.7260 C   0  0  0  0  0  0  0  0  0  0  0  0
    0.4289    4.0700    4.8324 N   0  0  0  0  0  0  0  0  0  0  0  0
   -0.6049    3.3977    5.3804 C   0  0  0  0  0  0  0  0  0  0  0  0
   -1.1244    2.1964    4.8922 C   0  0  0  0  0  0  0  0  0  0  0  0
   -2.1680    1.5202    5.5446 C   0  0  0  0  0  0  0  0  0  0  0  0
   -2.6270    0.2923    5.0701 C   0  0  0  0  0  0  0  0  0  0  0  0
   -2.0548   -0.2710    3.9351 C   0  0  0  0  0  0  0  0  0  0  0  0
   -1.0336    0.4026    3.2660 C   0  0  0  0  0  0  0  0  0  0  0  0
   -0.5522    1.6506    3.7231 C   0  0  0  0  0  0  0  0  0  0  0  0
    4.3649    1.2094    0.1848 C   0  0  0  0  0  0  0  0  0  0  0  0
    5.1196    2.3490   -0.1379 C   0  0  0  0  0  0  0  0  0  0  0  0
    6.5165    2.3161   -0.1003 C   0  0  0  0  0  0  0  0  0  0  0  0
    7.1848    1.1426    0.2543 C   0  0  0  0  0  0  0  0  0  0  0  0
    8.9105    1.1818    0.3119 Cl  0  0  0  0  0  0  0  0  0  0  0  0
    6.4503   -0.0034    0.5652 C   0  0  0  0  0  0  0  0  0  0  0  0
    7.2002   -1.4935    1.0198 Cl  0  0  0  0  0  0  0  0  0  0  0  0
    5.0501    0.0333    0.5360 C   0  0  0  0  0  0  0  0  0  0  0  0
    0.3043   -0.5853   -0.5046 H   0  0  0  0  0  0  0  0  0  0  0  0
    2.4346   -0.3187   -1.0690 H   0  0  0  0  0  0  0  0  0  0  0  0
    2.2789   -0.7652    0.6489 H   0  0  0  0  0  0  0  0  0  0  0  0
    2.5097    2.1116   -0.4036 H   0  0  0  0  0  0  0  0  0  0  0  0
    0.5157    1.3199    1.2932 H   0  0  0  0  0  0  0  0  0  0  0  0
    1.7970    4.0969    3.3024 H   0  0  0  0  0  0  0  0  0  0  0  0
   -1.0126    3.8598    6.2756 H   0  0  0  0  0  0  0  0  0  0  0  0
   -2.6167    1.9342    6.4425 H   0  0  0  0  0  0  0  0  0  0  0  0
   -3.4171   -0.2356    5.6000 H   0  0  0  0  0  0  0  0  0  0  0  0
   -2.3876   -1.2446    3.5818 H   0  0  0  0  0  0  0  0  0  0  0  0
   -0.5937   -0.0852    2.3990 H   0  0  0  0  0  0  0  0  0  0  0  0
    4.6244    3.2907   -0.3715 H   0  0  0  0  0  0  0  0  0  0  0  0
    7.0772    3.2215   -0.3206 H   0  0  0  0  0  0  0  0  0  0  0  0
    4.5071   -0.8590    0.8363 H   0  0  0  0  0  0  0  0  0  0  0  0
  1  2  1  0  0  0  0
  1 25  1  0  0  0  0
  2  3  1  0  0  0  0
  2 26  1  0  0  0  0
  2 27  1  0  0  0  0
  3  4  1  0  0  0  0
  3 17  1  0  0  0  0
  3 28  1  0  0  0  0
  4  5  2  0  0  0  0
  4  6  1  0  0  0  0
  6  7  1  0  0  0  0
  6 29  1  0  0  0  0
  7  8  1  0  0  0  0
  7 16  2  0  0  0  0
  8  9  2  0  0  0  0
  8 30  1  0  0  0  0
  9 10  1  0  0  0  0
 10 11  2  0  0  0  0
 10 31  1  0  0  0  0
 11 12  1  0  0  0  0
 11 16  1  0  0  0  0
 12 13  2  0  0  0  0
 12 32  1  0  0  0  0
 13 14  1  0  0  0  0
 13 33  1  0  0  0  0
 14 15  2  0  0  0  0
 14 34  1  0  0  0  0
 15 16  1  0  0  0  0
 15 35  1  0  0  0  0
 17 18  1  0  0  0  0
 17 24  2  0  0  0  0
 18 19  2  0  0  0  0
 18 36  1  0  0  0  0
 19 20  1  0  0  0  0
 19 37  1  0  0  0  0
 20 21  1  0  0  0  0
 20 22  2  0  0  0  0
 22 23  1  0  0  0  0
 22 24  1  0  0  0  0
 24 38  1  0  0  0  0
M  END
$$$$
