
 OpenBabel07202414163D

 62 64  0  0  0  0  0  0  0  0999 V2000
    1.5090    2.3920   -1.6337 C   0  0  0  0  0  0  0  0  0  0  0  0
    0.6532    1.1625   -1.4981 C   0  0  0  0  0  0  0  0  0  0  0  0
    1.2557   -0.0632   -1.8508 C   0  0  0  0  0  0  0  0  0  0  0  0
    0.5370   -1.2400   -1.7464 C   0  0  0  0  0  0  0  0  0  0  0  0
   -0.7311   -1.2797   -1.3139 N   0  0  0  0  0  0  0  0  0  0  0  0
   -1.3022   -0.0958   -0.9583 C   0  0  0  0  0  0  0  0  0  0  0  0
   -0.6763    1.1606   -1.0249 C   0  0  0  0  0  0  0  0  0  0  0  0
   -1.3368    2.3761   -0.6431 N   0  0  0  0  0  0  0  0  0  0  0  0
   -2.6518    2.4897   -0.2052 C   0  0  0  0  0  0  0  0  0  0  0  0
   -3.3866    1.5075   -0.0840 O   0  0  0  0  0  0  0  0  0  0  0  0
   -3.1437    3.7909    0.0292 N   0  0  0  0  0  0  0  0  0  0  0  0
   -2.3664    5.0465   -0.0270 C   0  0  0  0  0  0  0  0  0  0  0  0
   -2.3475    5.8545    1.2830 C   0  0  0  0  0  0  0  0  0  0  0  0
   -1.6687    5.2183    2.5135 C   0  0  0  0  0  0  0  0  0  0  0  0
   -1.7005    6.2463    3.6670 C   0  0  0  0  0  0  0  0  0  0  0  0
   -1.0287    5.7272    4.9332 C   0  0  0  0  0  0  0  0  0  0  0  0
    0.3983    5.2731    4.6534 C   0  0  0  0  0  0  0  0  0  0  0  0
    0.4343    4.2348    3.5367 C   0  0  0  0  0  0  0  0  0  0  0  0
   -0.2232    4.7596    2.2580 C   0  0  0  0  0  0  0  0  0  0  0  0
   -4.5861    3.9382    0.1273 C   0  0  0  0  0  0  0  0  0  0  0  0
   -5.3491    3.1715    1.0264 C   0  0  0  0  0  0  0  0  0  0  0  0
   -6.7531    3.2405    1.0390 C   0  0  0  0  0  0  0  0  0  0  0  0
   -7.4051    4.1241    0.1832 C   0  0  0  0  0  0  0  0  0  0  0  0
   -6.6584    4.8640   -0.7298 C   0  0  0  0  0  0  0  0  0  0  0  0
   -5.2649    4.7791   -0.7604 C   0  0  0  0  0  0  0  0  0  0  0  0
   -7.4697    5.8494   -1.8887 Cl  0  0  0  0  0  0  0  0  0  0  0  0
   -7.3795    2.3849    1.9080 O   0  0  0  0  0  0  0  0  0  0  0  0
   -8.7127    1.9480    1.5950 C   0  0  0  0  0  0  0  0  0  0  0  0
   -8.7740    1.1562    0.2862 C   0  0  0  0  0  0  0  0  0  0  0  0
   -9.1615    1.0278    2.7336 C   0  0  0  0  0  0  0  0  0  0  0  0
    2.4409    2.1678   -2.1661 H   0  0  0  0  0  0  0  0  0  0  0  0
    1.7852    2.7797   -0.6486 H   0  0  0  0  0  0  0  0  0  0  0  0
    1.0005    3.1664   -2.2148 H   0  0  0  0  0  0  0  0  0  0  0  0
    2.2805   -0.1093   -2.2087 H   0  0  0  0  0  0  0  0  0  0  0  0
    0.9705   -2.1961   -2.0130 H   0  0  0  0  0  0  0  0  0  0  0  0
   -2.3152   -0.2349   -0.6236 H   0  0  0  0  0  0  0  0  0  0  0  0
   -0.8010    3.2104   -0.7957 H   0  0  0  0  0  0  0  0  0  0  0  0
   -2.7966    5.6868   -0.8038 H   0  0  0  0  0  0  0  0  0  0  0  0
   -1.3409    4.8804   -0.3483 H   0  0  0  0  0  0  0  0  0  0  0  0
   -3.3752    6.1217    1.5605 H   0  0  0  0  0  0  0  0  0  0  0  0
   -1.8387    6.8033    1.0646 H   0  0  0  0  0  0  0  0  0  0  0  0
   -2.2540    4.3419    2.8208 H   0  0  0  0  0  0  0  0  0  0  0  0
   -2.7375    6.5189    3.8964 H   0  0  0  0  0  0  0  0  0  0  0  0
   -1.1947    7.1696    3.3536 H   0  0  0  0  0  0  0  0  0  0  0  0
   -1.6113    4.8919    5.3394 H   0  0  0  0  0  0  0  0  0  0  0  0
   -1.0230    6.5145    5.6964 H   0  0  0  0  0  0  0  0  0  0  0  0
    0.8399    4.8575    5.5659 H   0  0  0  0  0  0  0  0  0  0  0  0
    1.0088    6.1386    4.3672 H   0  0  0  0  0  0  0  0  0  0  0  0
   -0.0855    3.3267    3.8672 H   0  0  0  0  0  0  0  0  0  0  0  0
    1.4726    3.9508    3.3318 H   0  0  0  0  0  0  0  0  0  0  0  0
   -0.2015    3.9642    1.5067 H   0  0  0  0  0  0  0  0  0  0  0  0
    0.3724    5.5916    1.8613 H   0  0  0  0  0  0  0  0  0  0  0  0
   -4.8590    2.4840    1.7126 H   0  0  0  0  0  0  0  0  0  0  0  0
   -8.4849    4.2242    0.1841 H   0  0  0  0  0  0  0  0  0  0  0  0
   -4.7329    5.3145   -1.5398 H   0  0  0  0  0  0  0  0  0  0  0  0
   -9.3985    2.8040    1.5722 H   0  0  0  0  0  0  0  0  0  0  0  0
   -8.0988    0.2943    0.3232 H   0  0  0  0  0  0  0  0  0  0  0  0
   -8.4668    1.7564   -0.5743 H   0  0  0  0  0  0  0  0  0  0  0  0
   -9.7902    0.7979    0.0928 H   0  0  0  0  0  0  0  0  0  0  0  0
   -8.4996    0.1575    2.8140 H   0  0  0  0  0  0  0  0  0  0  0  0
  -10.1841    0.6688    2.5750 H   0  0  0  0  0  0  0  0  0  0  0  0
   -9.1193    1.5465    3.6967 H   0  0  0  0  0  0  0  0  0  0  0  0
  1  2  1  0  0  0  0
  1 31  1  0  0  0  0
  1 32  1  0  0  0  0
  1 33  1  0  0  0  0
  2  3  1  0  0  0  0
  2  7  2  0  0  0  0
  3  4  2  0  0  0  0
  3 34  1  0  0  0  0
  4  5  1  0  0  0  0
  4 35  1  0  0  0  0
  5  6  2  0  0  0  0
  6  7  1  0  0  0  0
  6 36  1  0  0  0  0
  7  8  1  0  0  0  0
  8  9  1  0  0  0  0
  8 37  1  0  0  0  0
  9 10  2  0  0  0  0
  9 11  1  0  0  0  0
 11 12  1  0  0  0  0
 11 20  1  0  0  0  0
 12 13  1  0  0  0  0
 12 38  1  0  0  0  0
 12 39  1  0  0  0  0
 13 14  1  0  0  0  0
 13 40  1  0  0  0  0
 13 41  1  0  0  0  0
 14 15  1  0  0  0  0
 14 19  1  0  0  0  0
 14 42  1  0  0  0  0
 15 16  1  0  0  0  0
 15 43  1  0  0  0  0
 15 44  1  0  0  0  0
 16 17  1  0  0  0  0
 16 45  1  0  0  0  0
 16 46  1  0  0  0  0
 17 18  1  0  0  0  0
 17 47  1  0  0  0  0
 17 48  1  0  0  0  0
 18 19  1  0  0  0  0
 18 49  1  0  0  0  0
 18 50  1  0  0  0  0
 19 51  1  0  0  0  0
 19 52  1  0  0  0  0
 20 21  1  0  0  0  0
 20 25  2  0  0  0  0
 21 22  2  0  0  0  0
 21 53  1  0  0  0  0
 22 23  1  0  0  0  0
 22 27  1  0  0  0  0
 23 24  2  0  0  0  0
 23 54  1  0  0  0  0
 24 25  1  0  0  0  0
 24 26  1  0  0  0  0
 25 55  1  0  0  0  0
 27 28  1  0  0  0  0
 28 29  1  0  0  0  0
 28 30  1  0  0  0  0
 28 56  1  0  0  0  0
 29 57  1  0  0  0  0
 29 58  1  0  0  0  0
 29 59  1  0  0  0  0
 30 60  1  0  0  0  0
 30 61  1  0  0  0  0
 30 62  1  0  0  0  0
M  END
$$$$
