
 OpenBabel07202414133D

 49 52  0  0  1  0  0  0  0  0999 V2000
    1.0194    0.1618    0.1031 C   0  0  0  0  0  0  0  0  0  0  0  0
    2.4762    0.2284    0.1785 N   0  0  0  0  0  0  0  0  0  0  0  0
    3.1918   -0.8938    0.6357 C   0  0  0  0  0  0  0  0  0  0  0  0
    2.5804   -2.1299    0.9121 C   0  0  0  0  0  0  0  0  0  0  0  0
    3.3002   -3.2294    1.4042 C   0  0  0  0  0  0  0  0  0  0  0  0
    4.6652   -3.1282    1.6371 C   0  0  0  0  0  0  0  0  0  0  0  0
    5.3073   -1.9294    1.3710 C   0  0  0  0  0  0  0  0  0  0  0  0
    4.5788   -0.8368    0.8814 C   0  0  0  0  0  0  0  0  0  0  0  0
    3.2103    1.2308   -0.6344 C   0  0  2  0  0  0  0  0  0  0  0  0
    3.8338    2.3248    0.2503 C   0  0  0  0  0  0  0  0  0  0  0  0
    2.9156    3.5272    0.1020 C   0  0  0  0  0  0  0  0  0  0  0  0
    2.4351    3.4274   -1.2525 N   0  0  0  0  0  0  0  0  0  0  0  0
    2.0339    4.5430   -1.9797 C   0  0  0  0  0  0  0  0  0  0  0  0
    2.0612    5.6776   -1.5062 O   0  0  0  0  0  0  0  0  0  0  0  0
    1.5334    4.2125   -3.3801 C   0  0  0  0  0  0  0  0  0  0  0  0
    1.2456    5.2679   -4.4239 C   0  0  0  0  0  0  0  0  0  0  0  0
    1.5625    6.6151   -4.2784 C   0  0  0  0  0  0  0  0  0  0  0  0
    1.4327    7.5392   -5.2550 N   0  0  0  0  0  0  0  0  0  0  0  0
    0.9210    7.1188   -6.4322 C   0  0  0  0  0  0  0  0  0  0  0  0
    0.4901    5.8196   -6.6856 C   0  0  0  0  0  0  0  0  0  0  0  0
   -0.1158    5.4656   -7.9077 C   0  0  0  0  0  0  0  0  0  0  0  0
   -0.5438    4.1614   -8.1408 C   0  0  0  0  0  0  0  0  0  0  0  0
   -0.3273    3.1879   -7.1771 C   0  0  0  0  0  0  0  0  0  0  0  0
    0.2842    3.5281   -5.9679 C   0  0  0  0  0  0  0  0  0  0  0  0
    0.6788    4.8587   -5.6760 C   0  0  0  0  0  0  0  0  0  0  0  0
    2.4061    2.0323   -1.6836 C   0  0  0  0  0  0  0  0  0  0  0  0
    0.5750   -0.3938    0.9356 H   0  0  0  0  0  0  0  0  0  0  0  0
    0.7045   -0.3041   -0.8381 H   0  0  0  0  0  0  0  0  0  0  0  0
    0.5809    1.1629    0.1673 H   0  0  0  0  0  0  0  0  0  0  0  0
    1.5202   -2.2859    0.7398 H   0  0  0  0  0  0  0  0  0  0  0  0
    2.7845   -4.1645    1.6089 H   0  0  0  0  0  0  0  0  0  0  0  0
    5.2232   -3.9756    2.0244 H   0  0  0  0  0  0  0  0  0  0  0  0
    6.3740   -1.8284    1.5511 H   0  0  0  0  0  0  0  0  0  0  0  0
    5.1399    0.0773    0.7183 H   0  0  0  0  0  0  0  0  0  0  0  0
    3.9952    0.7071   -1.1964 H   0  0  0  0  0  0  0  0  0  0  0  0
    4.8204    2.5784   -0.1577 H   0  0  0  0  0  0  0  0  0  0  0  0
    3.9680    2.0435    1.2993 H   0  0  0  0  0  0  0  0  0  0  0  0
    3.4325    4.4740    0.2895 H   0  0  0  0  0  0  0  0  0  0  0  0
    2.0569    3.4503    0.7772 H   0  0  0  0  0  0  0  0  0  0  0  0
    0.6154    3.6336   -3.2220 H   0  0  0  0  0  0  0  0  0  0  0  0
    2.2991    3.5767   -3.8405 H   0  0  0  0  0  0  0  0  0  0  0  0
    1.9570    7.0267   -3.3517 H   0  0  0  0  0  0  0  0  0  0  0  0
    0.8603    7.8889   -7.1942 H   0  0  0  0  0  0  0  0  0  0  0  0
   -0.2793    6.2182   -8.6765 H   0  0  0  0  0  0  0  0  0  0  0  0
   -1.0439    3.9074   -9.0719 H   0  0  0  0  0  0  0  0  0  0  0  0
   -0.6437    2.1628   -7.3573 H   0  0  0  0  0  0  0  0  0  0  0  0
    0.4314    2.7264   -5.2477 H   0  0  0  0  0  0  0  0  0  0  0  0
    2.8908    1.9523   -2.6601 H   0  0  0  0  0  0  0  0  0  0  0  0
    1.3633    1.7315   -1.8119 H   0  0  0  0  0  0  0  0  0  0  0  0
  1  2  1  0  0  0  0
  1 27  1  0  0  0  0
  1 28  1  0  0  0  0
  1 29  1  0  0  0  0
  2  3  1  0  0  0  0
  2  9  1  0  0  0  0
  3  4  1  0  0  0  0
  3  8  2  0  0  0  0
  4  5  2  0  0  0  0
  4 30  1  0  0  0  0
  5  6  1  0  0  0  0
  5 31  1  0  0  0  0
  6  7  2  0  0  0  0
  6 32  1  0  0  0  0
  7  8  1  0  0  0  0
  7 33  1  0  0  0  0
  8 34  1  0  0  0  0
  9 10  1  0  0  0  0
  9 26  1  0  0  0  0
  9 35  1  6  0  0  0
 10 11  1  0  0  0  0
 10 36  1  0  0  0  0
 10 37  1  0  0  0  0
 11 12  1  0  0  0  0
 11 38  1  0  0  0  0
 11 39  1  0  0  0  0
 12 13  1  0  0  0  0
 12 26  1  0  0  0  0
 13 14  2  0  0  0  0
 13 15  1  0  0  0  0
 15 16  1  0  0  0  0
 15 40  1  0  0  0  0
 15 41  1  0  0  0  0
 16 17  1  0  0  0  0
 16 25  2  0  0  0  0
 17 18  2  0  0  0  0
 17 42  1  0  0  0  0
 18 19  1  0  0  0  0
 19 20  2  0  0  0  0
 19 43  1  0  0  0  0
 20 21  1  0  0  0  0
 20 25  1  0  0  0  0
 21 22  2  0  0  0  0
 21 44  1  0  0  0  0
 22 23  1  0  0  0  0
 22 45  1  0  0  0  0
 23 24  2  0  0  0  0
 23 46  1  0  0  0  0
 24 25  1  0  0  0  0
 24 47  1  0  0  0  0
 26 48  1  0  0  0  0
 26 49  1  0  0  0  0
M  END
$$$$
