
 OpenBabel07202414143D

 56 59  0  0  1  0  0  0  0  0999 V2000
    7.6559    6.5648   -2.7607 C   0  0  0  0  0  0  0  0  0  0  0  0
    6.7151    5.5860   -2.3198 O   0  0  0  0  0  0  0  0  0  0  0  0
    7.2420    4.3369   -2.1418 C   0  0  0  0  0  0  0  0  0  0  0  0
    8.4218    4.0457   -2.3081 O   0  0  0  0  0  0  0  0  0  0  0  0
    6.1449    3.3733   -1.6667 C   0  0  1  0  0  0  0  0  0  0  0  0
    5.0190    3.2439   -2.6811 C   0  0  0  0  0  0  0  0  0  0  0  0
    5.4729    2.0839   -3.5299 C   0  0  0  0  0  0  0  0  0  0  0  0
    6.1695    1.1881   -2.5147 C   0  0  1  0  0  0  0  0  0  0  0  0
    7.3315    0.3631   -3.0979 C   0  0  0  0  0  0  0  0  0  0  0  0
    8.3587    1.2578   -3.6563 N   0  0  0  0  0  0  0  0  0  0  0  0
    9.5592    0.5477   -4.1401 C   0  0  3  0  0  0  0  0  0  0  0  0
    9.1827   -0.4457   -5.2708 C   0  0  0  0  0  0  0  0  0  0  0  0
    9.3753   -1.6529   -5.1253 O   0  0  0  0  0  0  0  0  0  0  0  0
    8.6249    0.1445   -6.3984 N   0  0  0  0  0  0  0  0  0  0  0  0
    8.1304   -0.5376   -7.5408 C   0  0  0  0  0  0  0  0  0  0  0  0
    7.8099   -1.8959   -7.4964 C   0  0  0  0  0  0  0  0  0  0  0  0
    7.3604   -2.6226   -8.5456 N   0  0  0  0  0  0  0  0  0  0  0  0
    7.2361   -1.9617   -9.7130 C   0  0  0  0  0  0  0  0  0  0  0  0
    7.4985   -0.6064   -9.8900 C   0  0  0  0  0  0  0  0  0  0  0  0
    7.3390   -0.0040  -11.1512 C   0  0  0  0  0  0  0  0  0  0  0  0
    7.6045    1.3492  -11.3327 C   0  0  0  0  0  0  0  0  0  0  0  0
    8.0303    2.1153  -10.2540 C   0  0  0  0  0  0  0  0  0  0  0  0
    8.1962    1.5266   -8.9965 C   0  0  0  0  0  0  0  0  0  0  0  0
    7.9433    0.1479   -8.7742 C   0  0  0  0  0  0  0  0  0  0  0  0
   10.6312    1.5268   -4.6128 C   0  0  0  0  0  0  0  0  0  0  0  0
   11.9824    1.1446   -4.5961 C   0  0  0  0  0  0  0  0  0  0  0  0
   12.9734    2.0079   -5.0717 C   0  0  0  0  0  0  0  0  0  0  0  0
   12.6286    3.2618   -5.5763 C   0  0  0  0  0  0  0  0  0  0  0  0
   11.2938    3.6536   -5.5942 C   0  0  0  0  0  0  0  0  0  0  0  0
   10.8550    5.1936   -6.2241 Cl  0  0  0  0  0  0  0  0  0  0  0  0
   10.3023    2.7995   -5.1168 C   0  0  0  0  0  0  0  0  0  0  0  0
    6.6501    2.0443   -1.4570 O   0  0  0  0  0  0  0  0  0  0  0  0
    7.1113    7.4942   -2.9485 H   0  0  0  0  0  0  0  0  0  0  0  0
    8.1348    6.2513   -3.6938 H   0  0  0  0  0  0  0  0  0  0  0  0
    8.4018    6.7504   -1.9819 H   0  0  0  0  0  0  0  0  0  0  0  0
    5.7816    3.7480   -0.7036 H   0  0  0  0  0  0  0  0  0  0  0  0
    4.8305    4.1444   -3.2715 H   0  0  0  0  0  0  0  0  0  0  0  0
    4.0880    2.9745   -2.1659 H   0  0  0  0  0  0  0  0  0  0  0  0
    6.1616    2.4473   -4.3009 H   0  0  0  0  0  0  0  0  0  0  0  0
    4.6504    1.5744   -4.0405 H   0  0  0  0  0  0  0  0  0  0  0  0
    5.4394    0.5085   -2.0581 H   0  0  0  0  0  0  0  0  0  0  0  0
    6.9329   -0.3011   -3.8721 H   0  0  0  0  0  0  0  0  0  0  0  0
    7.7680   -0.2493   -2.3000 H   0  0  0  0  0  0  0  0  0  0  0  0
    8.6527    1.8905   -2.8976 H   0  0  0  0  0  0  0  0  0  0  0  0
    9.9774   -0.0382   -3.3100 H   0  0  0  0  0  0  0  0  0  0  0  0
    8.6772    1.1525   -6.4355 H   0  0  0  0  0  0  0  0  0  0  0  0
    7.8688   -2.4762   -6.5794 H   0  0  0  0  0  0  0  0  0  0  0  0
    6.9076   -2.5876  -10.5403 H   0  0  0  0  0  0  0  0  0  0  0  0
    7.0129   -0.5944  -12.0059 H   0  0  0  0  0  0  0  0  0  0  0  0
    7.4850    1.8024  -12.3144 H   0  0  0  0  0  0  0  0  0  0  0  0
    8.2391    3.1729  -10.3921 H   0  0  0  0  0  0  0  0  0  0  0  0
    8.5406    2.1728   -8.1935 H   0  0  0  0  0  0  0  0  0  0  0  0
   12.2738    0.1671   -4.2132 H   0  0  0  0  0  0  0  0  0  0  0  0
   14.0162    1.6998   -5.0527 H   0  0  0  0  0  0  0  0  0  0  0  0
   13.4023    3.9256   -5.9516 H   0  0  0  0  0  0  0  0  0  0  0  0
    9.2663    3.1317   -5.1316 H   0  0  0  0  0  0  0  0  0  0  0  0
  1  2  1  0  0  0  0
  1 33  1  0  0  0  0
  1 34  1  0  0  0  0
  1 35  1  0  0  0  0
  2  3  1  0  0  0  0
  3  4  2  0  0  0  0
  5  6  1  0  0  0  0
  5 32  1  0  0  0  0
  5  3  1  0  0  0  0
  5 36  1  1  0  0  0
  6  7  1  0  0  0  0
  6 37  1  0  0  0  0
  6 38  1  0  0  0  0
  7  8  1  0  0  0  0
  7 39  1  0  0  0  0
  7 40  1  0  0  0  0
  8  9  1  0  0  0  0
  8 32  1  0  0  0  0
  8 41  1  1  0  0  0
  9 10  1  0  0  0  0
  9 42  1  0  0  0  0
  9 43  1  0  0  0  0
 10 11  1  0  0  0  0
 10 44  1  0  0  0  0
 11 12  1  0  0  0  0
 11 25  1  0  0  0  0
 11 45  1  0  0  0  0
 12 13  2  0  0  0  0
 12 14  1  0  0  0  0
 14 15  1  0  0  0  0
 14 46  1  0  0  0  0
 15 16  1  0  0  0  0
 15 24  2  0  0  0  0
 16 17  2  0  0  0  0
 16 47  1  0  0  0  0
 17 18  1  0  0  0  0
 18 19  2  0  0  0  0
 18 48  1  0  0  0  0
 19 20  1  0  0  0  0
 19 24  1  0  0  0  0
 20 21  2  0  0  0  0
 20 49  1  0  0  0  0
 21 22  1  0  0  0  0
 21 50  1  0  0  0  0
 22 23  2  0  0  0  0
 22 51  1  0  0  0  0
 23 24  1  0  0  0  0
 23 52  1  0  0  0  0
 25 26  1  0  0  0  0
 25 31  2  0  0  0  0
 26 27  2  0  0  0  0
 26 53  1  0  0  0  0
 27 28  1  0  0  0  0
 27 54  1  0  0  0  0
 28 29  2  0  0  0  0
 28 55  1  0  0  0  0
 29 30  1  0  0  0  0
 29 31  1  0  0  0  0
 31 56  1  0  0  0  0
M  END
$$$$
