
 OpenBabel07202414193D

 47 50  0  0  1  0  0  0  0  0999 V2000
    1.3281    0.6553   -0.2257 O   0  0  0  0  0  0  0  0  0  0  0  0
    2.3427   -0.0426   -0.1403 C   0  0  0  0  0  0  0  0  0  0  0  0
    2.7815   -0.5496    1.2298 C   0  0  0  0  0  0  0  0  0  0  0  0
    3.8569    0.3020    1.8728 C   0  0  0  0  0  0  0  0  0  0  0  0
    3.8144    1.6906    1.7019 C   0  0  0  0  0  0  0  0  0  0  0  0
    4.6927    2.5616    2.2372 N   0  0  0  0  0  0  0  0  0  0  0  0
    5.6605    2.0348    3.0124 C   0  0  0  0  0  0  0  0  0  0  0  0
    5.8040    0.6759    3.2861 C   0  0  0  0  0  0  0  0  0  0  0  0
    6.8390    0.2151    4.1188 C   0  0  0  0  0  0  0  0  0  0  0  0
    6.9771   -1.1417    4.3931 C   0  0  0  0  0  0  0  0  0  0  0  0
    6.0810   -2.0481    3.8436 C   0  0  0  0  0  0  0  0  0  0  0  0
    5.0442   -1.5969    3.0154 C   0  0  0  0  0  0  0  0  0  0  0  0
    4.8792   -0.2258    2.7096 C   0  0  0  0  0  0  0  0  0  0  0  0
    3.1314   -0.3373   -1.2422 N   0  0  0  0  0  0  0  0  0  0  0  0
    4.3067   -1.2056   -1.2441 C   0  0  0  0  0  0  0  0  0  0  0  0
    5.5237   -0.4580   -1.7707 C   0  0  0  0  0  0  0  0  0  0  0  0
    5.2474    0.1505   -3.1437 C   0  0  0  0  0  0  0  0  0  0  0  0
    3.9741    1.0147   -3.1368 C   0  0  1  0  0  0  0  0  0  0  0  0
    3.6348    1.4545   -4.5638 C   0  0  0  0  0  0  0  0  0  0  0  0
    4.6483    2.3805   -5.2923 C   0  0  0  0  0  0  0  0  0  0  0  0
    3.4417    3.1175   -5.9039 C   0  0  0  0  0  0  0  0  0  0  0  0
    2.6102    2.6144   -4.7088 C   0  0  0  0  0  0  0  0  0  0  0  0
    2.7882    0.2339   -2.5433 C   0  0  0  0  0  0  0  0  0  0  0  0
    3.0609   -1.6007    1.1321 H   0  0  0  0  0  0  0  0  0  0  0  0
    1.9030   -0.5473    1.8875 H   0  0  0  0  0  0  0  0  0  0  0  0
    3.0396    2.1698    1.1057 H   0  0  0  0  0  0  0  0  0  0  0  0
    6.3437    2.7695    3.4299 H   0  0  0  0  0  0  0  0  0  0  0  0
    7.5443    0.9164    4.5612 H   0  0  0  0  0  0  0  0  0  0  0  0
    7.7808   -1.4881    5.0388 H   0  0  0  0  0  0  0  0  0  0  0  0
    6.1826   -3.1082    4.0574 H   0  0  0  0  0  0  0  0  0  0  0  0
    4.3672   -2.3486    2.6199 H   0  0  0  0  0  0  0  0  0  0  0  0
    4.0735   -2.0623   -1.8913 H   0  0  0  0  0  0  0  0  0  0  0  0
    4.5341   -1.6063   -0.2582 H   0  0  0  0  0  0  0  0  0  0  0  0
    6.3781   -1.1415   -1.8321 H   0  0  0  0  0  0  0  0  0  0  0  0
    5.7942    0.3384   -1.0667 H   0  0  0  0  0  0  0  0  0  0  0  0
    5.1494   -0.6538   -3.8839 H   0  0  0  0  0  0  0  0  0  0  0  0
    6.1103    0.7529   -3.4496 H   0  0  0  0  0  0  0  0  0  0  0  0
    4.1647    1.8941   -2.5067 H   0  0  0  0  0  0  0  0  0  0  0  0
    3.3631    0.5931   -5.1929 H   0  0  0  0  0  0  0  0  0  0  0  0
    5.3048    1.8831   -6.0119 H   0  0  0  0  0  0  0  0  0  0  0  0
    5.2554    3.0073   -4.6296 H   0  0  0  0  0  0  0  0  0  0  0  0
    3.1176    2.7121   -6.8694 H   0  0  0  0  0  0  0  0  0  0  0  0
    3.5431    4.2022   -5.9884 H   0  0  0  0  0  0  0  0  0  0  0  0
    1.5861    2.3128   -4.9442 H   0  0  0  0  0  0  0  0  0  0  0  0
    2.5899    3.3153   -3.8664 H   0  0  0  0  0  0  0  0  0  0  0  0
    2.5046   -0.5998   -3.1979 H   0  0  0  0  0  0  0  0  0  0  0  0
    1.9132    0.8881   -2.4713 H   0  0  0  0  0  0  0  0  0  0  0  0
  1  2  2  0  0  0  0
  2  3  1  0  0  0  0
  2 14  1  0  0  0  0
  3  4  1  0  0  0  0
  3 24  1  0  0  0  0
  3 25  1  0  0  0  0
  4  5  1  0  0  0  0
  4 13  2  0  0  0  0
  5  6  2  0  0  0  0
  5 26  1  0  0  0  0
  6  7  1  0  0  0  0
  7  8  2  0  0  0  0
  7 27  1  0  0  0  0
  8  9  1  0  0  0  0
  8 13  1  0  0  0  0
  9 10  2  0  0  0  0
  9 28  1  0  0  0  0
 10 11  1  0  0  0  0
 10 29  1  0  0  0  0
 11 12  2  0  0  0  0
 11 30  1  0  0  0  0
 12 13  1  0  0  0  0
 12 31  1  0  0  0  0
 14 15  1  0  0  0  0
 14 23  1  0  0  0  0
 15 16  1  0  0  0  0
 15 32  1  0  0  0  0
 15 33  1  0  0  0  0
 16 17  1  0  0  0  0
 16 34  1  0  0  0  0
 16 35  1  0  0  0  0
 17 18  1  0  0  0  0
 17 36  1  0  0  0  0
 17 37  1  0  0  0  0
 18 19  1  0  0  0  0
 18 23  1  0  0  0  0
 18 38  1  1  0  0  0
 19 20  1  0  0  0  0
 19 22  1  0  0  0  0
 19 39  1  0  0  0  0
 20 21  1  0  0  0  0
 20 40  1  0  0  0  0
 20 41  1  0  0  0  0
 21 22  1  0  0  0  0
 21 42  1  0  0  0  0
 21 43  1  0  0  0  0
 22 44  1  0  0  0  0
 22 45  1  0  0  0  0
 23 46  1  0  0  0  0
 23 47  1  0  0  0  0
M  END
$$$$
