
 OpenBabel07202414203D

 41 44  0  0  1  0  0  0  0  0999 V2000
    5.3221    1.0864   -3.2440 C   0  0  0  0  0  0  0  0  0  0  0  0
    5.1472    2.3814   -2.7752 C   0  0  0  0  0  0  0  0  0  0  0  0
    3.9419    2.7646   -2.1717 C   0  0  0  0  0  0  0  0  0  0  0  0
    2.8661    1.8541   -2.0136 C   0  0  0  0  0  0  0  0  0  0  0  0
    3.0750    0.5392   -2.5183 C   0  0  0  0  0  0  0  0  0  0  0  0
    4.2878    0.1667   -3.1188 C   0  0  0  0  0  0  0  0  0  0  0  0
    2.0449   -0.3902   -2.4133 C   0  0  0  0  0  0  0  0  0  0  0  0
    0.8502   -0.1392   -1.8505 N   0  0  0  0  0  0  0  0  0  0  0  0
    0.6621    1.1140   -1.3794 C   0  0  0  0  0  0  0  0  0  0  0  0
    1.6012    2.1568   -1.4265 C   0  0  0  0  0  0  0  0  0  0  0  0
    1.3096    3.4493   -0.8669 N   0  0  0  0  0  0  0  0  0  0  0  0
    0.0256    3.9126   -0.6291 C   0  0  0  0  0  0  0  0  0  0  0  0
   -0.9873    3.3508   -1.0541 O   0  0  0  0  0  0  0  0  0  0  0  0
   -0.1510    5.1925    0.1901 C   0  0  3  0  0  0  0  0  0  0  0  0
    0.5118    5.1467    1.5705 C   0  0  0  0  0  0  0  0  0  0  0  0
   -0.0694    6.2857    2.4111 C   0  0  0  0  0  0  0  0  0  0  0  0
    0.2820    7.6432    1.8056 C   0  0  0  0  0  0  0  0  0  0  0  0
    0.1642    7.7023    0.2968 C   0  0  0  0  0  0  0  0  0  0  0  0
    0.0647    6.5325   -0.4979 C   0  0  0  0  0  0  0  0  0  0  0  0
   -0.0223    6.6699   -1.8923 C   0  0  0  0  0  0  0  0  0  0  0  0
   -0.0171    7.9380   -2.4798 C   0  0  0  0  0  0  0  0  0  0  0  0
    0.0730    9.0853   -1.6978 C   0  0  0  0  0  0  0  0  0  0  0  0
    0.1750    8.9672   -0.3141 C   0  0  0  0  0  0  0  0  0  0  0  0
   -0.1620    8.0891   -4.1885 Cl  0  0  0  0  0  0  0  0  0  0  0  0
    6.2558    0.7901   -3.7178 H   0  0  0  0  0  0  0  0  0  0  0  0
    5.9545    3.1046   -2.8891 H   0  0  0  0  0  0  0  0  0  0  0  0
    3.8570    3.7932   -1.8387 H   0  0  0  0  0  0  0  0  0  0  0  0
    4.4321   -0.8427   -3.5011 H   0  0  0  0  0  0  0  0  0  0  0  0
    2.1518   -1.4014   -2.7931 H   0  0  0  0  0  0  0  0  0  0  0  0
   -0.3103    1.2351   -0.9109 H   0  0  0  0  0  0  0  0  0  0  0  0
    2.0715    4.1037   -0.7645 H   0  0  0  0  0  0  0  0  0  0  0  0
   -1.2365    5.1908    0.3900 H   0  0  0  0  0  0  0  0  0  0  0  0
    1.6013    5.2521    1.4965 H   0  0  0  0  0  0  0  0  0  0  0  0
    0.3095    4.1883    2.0621 H   0  0  0  0  0  0  0  0  0  0  0  0
    0.2908    6.2333    3.4442 H   0  0  0  0  0  0  0  0  0  0  0  0
   -1.1627    6.1832    2.4583 H   0  0  0  0  0  0  0  0  0  0  0  0
    1.3154    7.8957    2.0726 H   0  0  0  0  0  0  0  0  0  0  0  0
   -0.3680    8.4051    2.2558 H   0  0  0  0  0  0  0  0  0  0  0  0
   -0.1411    5.7981   -2.5322 H   0  0  0  0  0  0  0  0  0  0  0  0
    0.0500   10.0710   -2.1550 H   0  0  0  0  0  0  0  0  0  0  0  0
    0.2370    9.8697    0.2920 H   0  0  0  0  0  0  0  0  0  0  0  0
  1  2  1  0  0  0  0
  1  6  2  0  0  0  0
  1 25  1  0  0  0  0
  2  3  2  0  0  0  0
  2 26  1  0  0  0  0
  3  4  1  0  0  0  0
  3 27  1  0  0  0  0
  4  5  1  0  0  0  0
  4 10  2  0  0  0  0
  5  6  1  0  0  0  0
  5  7  2  0  0  0  0
  6 28  1  0  0  0  0
  7  8  1  0  0  0  0
  7 29  1  0  0  0  0
  8  9  2  0  0  0  0
  9 10  1  0  0  0  0
  9 30  1  0  0  0  0
 10 11  1  0  0  0  0
 11 12  1  0  0  0  0
 11 31  1  0  0  0  0
 12 13  2  0  0  0  0
 12 14  1  0  0  0  0
 14 15  1  0  0  0  0
 14 19  1  0  0  0  0
 14 32  1  0  0  0  0
 15 16  1  0  0  0  0
 15 33  1  0  0  0  0
 15 34  1  0  0  0  0
 16 17  1  0  0  0  0
 16 35  1  0  0  0  0
 16 36  1  0  0  0  0
 17 18  1  0  0  0  0
 17 37  1  0  0  0  0
 17 38  1  0  0  0  0
 18 19  1  0  0  0  0
 18 23  2  0  0  0  0
 19 20  2  0  0  0  0
 20 21  1  0  0  0  0
 20 39  1  0  0  0  0
 21 22  2  0  0  0  0
 21 24  1  0  0  0  0
 22 23  1  0  0  0  0
 22 40  1  0  0  0  0
 23 41  1  0  0  0  0
M  END
$$$$
