
 OpenBabel07202414193D

 28 29  0  0  1  0  0  0  0  0999 V2000
    1.0094   -0.1525    0.1983 O   0  0  0  0  0  0  0  0  0  0  0  0
    2.4200    0.0554    0.0426 C   0  0  3  0  0  0  0  0  0  0  0  0
    2.7941    1.4428    0.5981 C   0  0  0  0  0  0  0  0  0  0  0  0
    2.0720    2.6079   -0.0451 C   0  0  0  0  0  0  0  0  0  0  0  0
    1.1801    3.3819    0.7156 C   0  0  0  0  0  0  0  0  0  0  0  0
    0.5360    4.4870    0.1567 C   0  0  0  0  0  0  0  0  0  0  0  0
    0.7723    4.8323   -1.1720 C   0  0  0  0  0  0  0  0  0  0  0  0
    1.6506    4.0669   -1.9365 C   0  0  0  0  0  0  0  0  0  0  0  0
    1.9450    4.4984   -3.5767 Cl  0  0  0  0  0  0  0  0  0  0  0  0
    2.3002    2.9590   -1.3815 C   0  0  0  0  0  0  0  0  0  0  0  0
    3.1609   -1.0231    0.8460 C   0  0  0  0  0  0  0  0  0  0  0  0
    3.0347   -2.3498    0.2818 N   0  0  0  0  0  0  0  0  0  0  0  0
    1.9359   -3.1523    0.2735 C   0  0  0  0  0  0  0  0  0  0  0  0
    2.2540   -4.3281   -0.2174 N   0  0  0  0  0  0  0  0  0  0  0  0
    3.5858   -4.1951   -0.4883 C   0  0  0  0  0  0  0  0  0  0  0  0
    4.1112   -3.0002   -0.2011 N   0  0  0  0  0  0  0  0  0  0  0  0
    0.5552    0.5229   -0.3408 H   0  0  0  0  0  0  0  0  0  0  0  0
    2.6599   -0.0235   -1.0229 H   0  0  0  0  0  0  0  0  0  0  0  0
    3.8738    1.6113    0.4965 H   0  0  0  0  0  0  0  0  0  0  0  0
    2.5806    1.4571    1.6753 H   0  0  0  0  0  0  0  0  0  0  0  0
    0.9851    3.1368    1.7589 H   0  0  0  0  0  0  0  0  0  0  0  0
   -0.1425    5.0840    0.7617 H   0  0  0  0  0  0  0  0  0  0  0  0
    0.2760    5.6995   -1.6011 H   0  0  0  0  0  0  0  0  0  0  0  0
    2.9924    2.3859   -1.9947 H   0  0  0  0  0  0  0  0  0  0  0  0
    2.7701   -1.0874    1.8688 H   0  0  0  0  0  0  0  0  0  0  0  0
    4.2319   -0.7946    0.9033 H   0  0  0  0  0  0  0  0  0  0  0  0
    0.9642   -2.8394    0.6305 H   0  0  0  0  0  0  0  0  0  0  0  0
    4.1882   -4.9941   -0.9016 H   0  0  0  0  0  0  0  0  0  0  0  0
  1  2  1  0  0  0  0
  1 17  1  0  0  0  0
  2  3  1  0  0  0  0
  2 11  1  0  0  0  0
  2 18  1  0  0  0  0
  3  4  1  0  0  0  0
  3 19  1  0  0  0  0
  3 20  1  0  0  0  0
  4  5  1  0  0  0  0
  4 10  2  0  0  0  0
  5  6  2  0  0  0  0
  5 21  1  0  0  0  0
  6  7  1  0  0  0  0
  6 22  1  0  0  0  0
  7  8  2  0  0  0  0
  7 23  1  0  0  0  0
  8  9  1  0  0  0  0
  8 10  1  0  0  0  0
 10 24  1  0  0  0  0
 11 12  1  0  0  0  0
 11 25  1  0  0  0  0
 11 26  1  0  0  0  0
 12 13  1  0  0  0  0
 12 16  1  0  0  0  0
 13 14  2  0  0  0  0
 13 27  1  0  0  0  0
 14 15  1  0  0  0  0
 15 16  2  0  0  0  0
 15 28  1  0  0  0  0
M  END
$$$$
