
 OpenBabel07202414183D

 54 57  0  0  1  0  0  0  0  0999 V2000
    6.3890    1.2169   -1.5680 C   0  0  0  0  0  0  0  0  0  0  0  0
    5.4769    0.4868   -0.7074 N   0  0  0  0  0  0  0  0  0  0  0  0
    4.3534    1.1390   -0.2273 C   0  0  0  0  0  0  0  0  0  0  0  0
    4.0831    2.3219   -0.4219 O   0  0  0  0  0  0  0  0  0  0  0  0
    3.4415    0.3221    0.5833 C   0  0  0  0  0  0  0  0  0  0  0  0
    3.7297   -0.9557    0.8216 C   0  0  0  0  0  0  0  0  0  0  0  0
    4.8871   -1.5420    0.3575 N   0  0  0  0  0  0  0  0  0  0  0  0
    5.8338   -0.8190   -0.3706 C   0  0  0  0  0  0  0  0  0  0  0  0
    6.9242   -1.2999   -0.6873 O   0  0  0  0  0  0  0  0  0  0  0  0
    5.1931   -2.9362    0.7181 C   0  0  0  0  0  0  0  0  0  0  0  0
    4.1855   -4.0036    0.2386 C   0  0  0  0  0  0  0  0  0  0  0  0
    2.9921   -3.9713    0.5329 O   0  0  0  0  0  0  0  0  0  0  0  0
    4.7290   -5.0196   -0.5160 N   0  0  0  0  0  0  0  0  0  0  0  0
    3.9666   -6.1826   -0.9760 C   0  0  3  0  0  0  0  0  0  0  0  0
    3.3194   -5.8843   -2.3208 C   0  0  0  0  0  0  0  0  0  0  0  0
    2.0128   -5.3652   -2.3651 C   0  0  0  0  0  0  0  0  0  0  0  0
    1.4149   -5.0269   -3.5822 C   0  0  0  0  0  0  0  0  0  0  0  0
    2.1135   -5.2025   -4.7748 C   0  0  0  0  0  0  0  0  0  0  0  0
    3.4089   -5.7114   -4.7445 C   0  0  0  0  0  0  0  0  0  0  0  0
    4.0154   -6.0436   -3.5310 C   0  0  0  0  0  0  0  0  0  0  0  0
    4.2755   -5.9253   -6.2154 Cl  0  0  0  0  0  0  0  0  0  0  0  0
    4.9206   -7.4220   -1.0057 C   0  0  0  0  0  0  0  0  0  0  0  0
    6.1117   -7.2963   -0.7196 O   0  0  0  0  0  0  0  0  0  0  0  0
    4.3029   -8.6134   -1.3673 N   0  0  0  0  0  0  0  0  0  0  0  0
    4.8964   -9.9087   -1.4699 C   0  0  0  0  0  0  0  0  0  0  0  0
    6.2365  -10.1532   -1.1662 C   0  0  0  0  0  0  0  0  0  0  0  0
    6.8377  -11.3686   -1.2253 N   0  0  0  0  0  0  0  0  0  0  0  0
    6.0628  -12.4058   -1.5934 C   0  0  0  0  0  0  0  0  0  0  0  0
    4.7138  -12.3065   -1.9205 C   0  0  0  0  0  0  0  0  0  0  0  0
    4.1030  -11.0278   -1.8748 C   0  0  0  0  0  0  0  0  0  0  0  0
    2.7339  -10.9712   -2.2442 C   0  0  0  0  0  0  0  0  0  0  0  0
    2.0096  -12.1151   -2.5998 C   0  0  0  0  0  0  0  0  0  0  0  0
    2.6285  -13.3573   -2.6070 C   0  0  0  0  0  0  0  0  0  0  0  0
    3.9765  -13.4521   -2.2769 C   0  0  0  0  0  0  0  0  0  0  0  0
    6.0189    2.2143   -1.8186 H   0  0  0  0  0  0  0  0  0  0  0  0
    6.5248    0.6496   -2.4946 H   0  0  0  0  0  0  0  0  0  0  0  0
    7.3613    1.3067   -1.0730 H   0  0  0  0  0  0  0  0  0  0  0  0
    2.5442    0.8014    0.9495 H   0  0  0  0  0  0  0  0  0  0  0  0
    3.0528   -1.5746    1.4060 H   0  0  0  0  0  0  0  0  0  0  0  0
    5.2425   -2.9943    1.8126 H   0  0  0  0  0  0  0  0  0  0  0  0
    6.1884   -3.2103    0.3538 H   0  0  0  0  0  0  0  0  0  0  0  0
    5.7290   -5.0525   -0.6862 H   0  0  0  0  0  0  0  0  0  0  0  0
    3.1904   -6.4083   -0.2326 H   0  0  0  0  0  0  0  0  0  0  0  0
    1.4586   -5.1902   -1.4424 H   0  0  0  0  0  0  0  0  0  0  0  0
    0.4106   -4.6091   -3.5980 H   0  0  0  0  0  0  0  0  0  0  0  0
    1.6504   -4.9280   -5.7192 H   0  0  0  0  0  0  0  0  0  0  0  0
    5.0383   -6.4154   -3.5390 H   0  0  0  0  0  0  0  0  0  0  0  0
    3.3235   -8.5487   -1.6072 H   0  0  0  0  0  0  0  0  0  0  0  0
    6.9196   -9.3717   -0.8504 H   0  0  0  0  0  0  0  0  0  0  0  0
    6.5815  -13.3619   -1.6197 H   0  0  0  0  0  0  0  0  0  0  0  0
    2.1921  -10.0304   -2.2717 H   0  0  0  0  0  0  0  0  0  0  0  0
    0.9588  -12.0313   -2.8700 H   0  0  0  0  0  0  0  0  0  0  0  0
    2.0662  -14.2485   -2.8745 H   0  0  0  0  0  0  0  0  0  0  0  0
    4.4519  -14.4319   -2.2960 H   0  0  0  0  0  0  0  0  0  0  0  0
  1  2  1  0  0  0  0
  1 35  1  0  0  0  0
  1 36  1  0  0  0  0
  1 37  1  0  0  0  0
  2  3  1  0  0  0  0
  2  8  1  0  0  0  0
  3  4  2  0  0  0  0
  3  5  1  0  0  0  0
  5  6  2  0  0  0  0
  5 38  1  0  0  0  0
  6  7  1  0  0  0  0
  6 39  1  0  0  0  0
  7  8  1  0  0  0  0
  7 10  1  0  0  0  0
  8  9  2  0  0  0  0
 10 11  1  0  0  0  0
 10 40  1  0  0  0  0
 10 41  1  0  0  0  0
 11 12  2  0  0  0  0
 11 13  1  0  0  0  0
 13 14  1  0  0  0  0
 13 42  1  0  0  0  0
 14 15  1  0  0  0  0
 14 22  1  0  0  0  0
 14 43  1  0  0  0  0
 15 16  1  0  0  0  0
 15 20  2  0  0  0  0
 16 17  2  0  0  0  0
 16 44  1  0  0  0  0
 17 18  1  0  0  0  0
 17 45  1  0  0  0  0
 18 19  2  0  0  0  0
 18 46  1  0  0  0  0
 19 20  1  0  0  0  0
 19 21  1  0  0  0  0
 20 47  1  0  0  0  0
 22 23  2  0  0  0  0
 22 24  1  0  0  0  0
 24 25  1  0  0  0  0
 24 48  1  0  0  0  0
 25 26  1  0  0  0  0
 25 30  2  0  0  0  0
 26 27  2  0  0  0  0
 26 49  1  0  0  0  0
 27 28  1  0  0  0  0
 28 29  2  0  0  0  0
 28 50  1  0  0  0  0
 29 30  1  0  0  0  0
 29 34  1  0  0  0  0
 30 31  1  0  0  0  0
 31 32  2  0  0  0  0
 31 51  1  0  0  0  0
 32 33  1  0  0  0  0
 32 52  1  0  0  0  0
 33 34  2  0  0  0  0
 33 53  1  0  0  0  0
 34 54  1  0  0  0  0
M  END
$$$$
