
 OpenBabel07202414143D

 67 71  0  0  1  0  0  0  0  0999 V2000
    0.3529   -2.7205    1.3929 C   0  0  0  0  0  0  0  0  0  0  0  0
    1.7432   -2.6205    1.1083 O   0  0  0  0  0  0  0  0  0  0  0  0
    2.2396   -1.2718    0.9492 C   0  0  0  0  0  0  0  0  0  0  0  0
    2.1159   -0.3497    2.1295 C   0  0  0  0  0  0  0  0  0  0  0  0
    2.9849   -1.0811    3.5307 S   0  0  0  0  0  0  0  0  0  0  0  0
    2.5044   -2.4098    3.8106 O   0  0  0  0  0  0  0  0  0  0  0  0
    4.4000   -0.7899    3.4231 O   0  0  0  0  0  0  0  0  0  0  0  0
    2.3904   -0.1195    4.8507 N   0  0  0  0  0  0  0  0  0  0  0  0
    2.7590    1.3335    4.7778 C   0  0  0  0  0  0  0  0  0  0  0  0
    2.0754    2.1301    5.8957 C   0  0  3  0  0  0  0  0  0  0  0  0
    0.5641    2.2924    5.6539 C   0  0  0  0  0  0  0  0  0  0  0  0
    0.0669    3.4137    5.5880 O   0  0  0  0  0  0  0  0  0  0  0  0
   -0.1279    1.1024    5.5256 N   0  0  0  0  0  0  0  0  0  0  0  0
   -1.4900    0.9061    5.1751 C   0  0  0  0  0  0  0  0  0  0  0  0
   -2.3413    1.9537    4.8284 C   0  0  0  0  0  0  0  0  0  0  0  0
   -3.5760    1.7913    4.2958 N   0  0  0  0  0  0  0  0  0  0  0  0
   -4.0270    0.5257    4.1882 C   0  0  0  0  0  0  0  0  0  0  0  0
   -3.3422   -0.5931    4.6548 C   0  0  0  0  0  0  0  0  0  0  0  0
   -3.9530   -1.8578    4.6832 C   0  0  0  0  0  0  0  0  0  0  0  0
   -3.2911   -2.9574    5.2300 C   0  0  0  0  0  0  0  0  0  0  0  0
   -1.9770   -2.8404    5.6929 C   0  0  0  0  0  0  0  0  0  0  0  0
   -1.2259   -4.0216    6.3070 C   0  0  0  0  0  0  0  0  0  0  0  0
   -0.0583   -4.4499    5.4111 C   0  0  0  0  0  0  0  0  0  0  0  0
   -0.7172   -3.6836    7.7163 C   0  0  0  0  0  0  0  0  0  0  0  0
   -2.1023   -5.1429    6.4653 O   0  0  0  0  0  0  0  0  0  0  0  0
   -1.3580   -1.5752    5.6034 C   0  0  0  0  0  0  0  0  0  0  0  0
   -2.0279   -0.4143    5.1379 C   0  0  0  0  0  0  0  0  0  0  0  0
    2.3923    1.5324    7.2490 C   0  0  0  0  0  0  0  0  0  0  0  0
    2.4246    2.3517    8.3889 C   0  0  0  0  0  0  0  0  0  0  0  0
    2.7158    1.8041    9.6367 C   0  0  0  0  0  0  0  0  0  0  0  0
    2.8164    2.8254   11.0169 Cl  0  0  0  0  0  0  0  0  0  0  0  0
    2.9437    0.4379    9.7699 C   0  0  0  0  0  0  0  0  0  0  0  0
    2.9222   -0.3819    8.6408 C   0  0  0  0  0  0  0  0  0  0  0  0
    2.6729    0.1589    7.3688 C   0  0  0  0  0  0  0  0  0  0  0  0
    2.8076   -0.7404    6.1552 C   0  0  0  0  0  0  0  0  0  0  0  0
    2.0126   -0.6855   -0.4282 C   0  0  0  0  0  0  0  0  0  0  0  0
    3.3851   -1.1397   -0.0307 C   0  0  0  0  0  0  0  0  0  0  0  0
    0.0845   -3.7792    1.4251 H   0  0  0  0  0  0  0  0  0  0  0  0
   -0.2349   -2.2271    0.6142 H   0  0  0  0  0  0  0  0  0  0  0  0
    0.1256   -2.2820    2.3684 H   0  0  0  0  0  0  0  0  0  0  0  0
    1.0716   -0.2021    2.4143 H   0  0  0  0  0  0  0  0  0  0  0  0
    2.5841    0.6192    1.9230 H   0  0  0  0  0  0  0  0  0  0  0  0
    2.4454    1.7466    3.8153 H   0  0  0  0  0  0  0  0  0  0  0  0
    3.8489    1.4357    4.8600 H   0  0  0  0  0  0  0  0  0  0  0  0
    2.5014    3.1429    5.8582 H   0  0  0  0  0  0  0  0  0  0  0  0
    0.4448    0.2693    5.5863 H   0  0  0  0  0  0  0  0  0  0  0  0
   -2.0656    2.9953    4.9517 H   0  0  0  0  0  0  0  0  0  0  0  0
   -5.0045    0.4359    3.7203 H   0  0  0  0  0  0  0  0  0  0  0  0
   -4.9774   -1.9842    4.3365 H   0  0  0  0  0  0  0  0  0  0  0  0
   -3.8312   -3.8982    5.3162 H   0  0  0  0  0  0  0  0  0  0  0  0
    0.6959   -3.6638    5.3188 H   0  0  0  0  0  0  0  0  0  0  0  0
   -0.4086   -4.7032    4.4032 H   0  0  0  0  0  0  0  0  0  0  0  0
    0.4283   -5.3480    5.8084 H   0  0  0  0  0  0  0  0  0  0  0  0
    0.0165   -2.8707    7.7183 H   0  0  0  0  0  0  0  0  0  0  0  0
   -0.2464   -4.5582    8.1798 H   0  0  0  0  0  0  0  0  0  0  0  0
   -1.5468   -3.3918    8.3717 H   0  0  0  0  0  0  0  0  0  0  0  0
   -2.1263   -5.6207    5.6217 H   0  0  0  0  0  0  0  0  0  0  0  0
   -0.3403   -1.4953    5.9709 H   0  0  0  0  0  0  0  0  0  0  0  0
    2.2450    3.4220    8.3007 H   0  0  0  0  0  0  0  0  0  0  0  0
    3.1599    0.0087   10.7450 H   0  0  0  0  0  0  0  0  0  0  0  0
    3.1290   -1.4449    8.7568 H   0  0  0  0  0  0  0  0  0  0  0  0
    2.1678   -1.6158    6.3191 H   0  0  0  0  0  0  0  0  0  0  0  0
    3.8529   -1.0648    6.0998 H   0  0  0  0  0  0  0  0  0  0  0  0
    1.8413    0.3802   -0.5247 H   0  0  0  0  0  0  0  0  0  0  0  0
    1.4746   -1.2823   -1.1568 H   0  0  0  0  0  0  0  0  0  0  0  0
    4.1433   -0.3827    0.1305 H   0  0  0  0  0  0  0  0  0  0  0  0
    3.7659   -2.0421   -0.4996 H   0  0  0  0  0  0  0  0  0  0  0  0
  1  2  1  0  0  0  0
  1 38  1  0  0  0  0
  1 39  1  0  0  0  0
  1 40  1  0  0  0  0
  2  3  1  0  0  0  0
  3  4  1  0  0  0  0
  3 36  1  0  0  0  0
  3 37  1  0  0  0  0
  4  5  1  0  0  0  0
  4 41  1  0  0  0  0
  4 42  1  0  0  0  0
  5  6  2  0  0  0  0
  5  7  2  0  0  0  0
  5  8  1  0  0  0  0
  8  9  1  0  0  0  0
  8 35  1  0  0  0  0
  9 10  1  0  0  0  0
  9 43  1  0  0  0  0
  9 44  1  0  0  0  0
 10 11  1  0  0  0  0
 10 28  1  0  0  0  0
 10 45  1  0  0  0  0
 11 12  2  0  0  0  0
 11 13  1  0  0  0  0
 13 14  1  0  0  0  0
 13 46  1  0  0  0  0
 14 15  1  0  0  0  0
 14 27  2  0  0  0  0
 15 16  2  0  0  0  0
 15 47  1  0  0  0  0
 16 17  1  0  0  0  0
 17 18  2  0  0  0  0
 17 48  1  0  0  0  0
 18 19  1  0  0  0  0
 18 27  1  0  0  0  0
 19 20  2  0  0  0  0
 19 49  1  0  0  0  0
 20 21  1  0  0  0  0
 20 50  1  0  0  0  0
 21 22  1  0  0  0  0
 21 26  2  0  0  0  0
 22 23  1  0  0  0  0
 22 24  1  0  0  0  0
 22 25  1  0  0  0  0
 23 51  1  0  0  0  0
 23 52  1  0  0  0  0
 23 53  1  0  0  0  0
 24 54  1  0  0  0  0
 24 55  1  0  0  0  0
 24 56  1  0  0  0  0
 25 57  1  0  0  0  0
 26 27  1  0  0  0  0
 26 58  1  0  0  0  0
 28 29  1  0  0  0  0
 28 34  2  0  0  0  0
 29 30  2  0  0  0  0
 29 59  1  0  0  0  0
 30 31  1  0  0  0  0
 30 32  1  0  0  0  0
 32 33  2  0  0  0  0
 32 60  1  0  0  0  0
 33 34  1  0  0  0  0
 33 61  1  0  0  0  0
 34 35  1  0  0  0  0
 35 62  1  0  0  0  0
 35 63  1  0  0  0  0
 36 37  1  0  0  0  0
 36 64  1  0  0  0  0
 36 65  1  0  0  0  0
 37 66  1  0  0  0  0
 37 67  1  0  0  0  0
M  END
$$$$
