
 OpenBabel07202414133D

 49 52  0  0  0  0  0  0  0  0999 V2000
    1.2892   -0.7364    4.7468 C   0  0  0  0  0  0  0  0  0  0  0  0
    0.9836    0.1433    3.5711 C   0  0  0  0  0  0  0  0  0  0  0  0
    0.4600   -0.3830    2.3851 C   0  0  0  0  0  0  0  0  0  0  0  0
    0.2185    0.4526    1.2869 C   0  0  0  0  0  0  0  0  0  0  0  0
   -0.5030   -0.3322   -0.2884 Br  0  0  0  0  0  0  0  0  0  0  0  0
    0.4844    1.8320    1.3486 C   0  0  0  0  0  0  0  0  0  0  0  0
    0.3055    2.6711    0.2208 N   0  0  0  0  0  0  0  0  0  0  0  0
   -0.0887    4.0255    0.1915 C   0  0  0  0  0  0  0  0  0  0  0  0
   -0.8959    4.5906    1.1842 C   0  0  0  0  0  0  0  0  0  0  0  0
   -1.2751    5.9276    1.1068 C   0  0  0  0  0  0  0  0  0  0  0  0
   -2.2733    6.6029    2.3353 Cl  0  0  0  0  0  0  0  0  0  0  0  0
   -0.8546    6.7259    0.0434 C   0  0  0  0  0  0  0  0  0  0  0  0
   -0.0557    6.1812   -0.9680 C   0  0  0  0  0  0  0  0  0  0  0  0
    0.4510    7.0601   -2.0877 C   0  0  0  0  0  0  0  0  0  0  0  0
    0.1050    6.5969   -3.4903 C   0  0  0  0  0  0  0  0  0  0  0  0
    0.8994    6.7519   -4.4157 O   0  0  0  0  0  0  0  0  0  0  0  0
   -1.1822    6.1183   -3.6483 N   0  0  0  0  0  0  0  0  0  0  0  0
   -1.6626    5.6713   -4.9000 C   0  0  0  0  0  0  0  0  0  0  0  0
   -0.9029    4.7974   -5.6829 C   0  0  0  0  0  0  0  0  0  0  0  0
   -1.3051    4.2857   -6.8671 N   0  0  0  0  0  0  0  0  0  0  0  0
   -2.5132    4.6994   -7.3072 C   0  0  0  0  0  0  0  0  0  0  0  0
   -3.3645    5.5853   -6.6238 C   0  0  0  0  0  0  0  0  0  0  0  0
   -4.5841    6.0033   -7.1705 C   0  0  0  0  0  0  0  0  0  0  0  0
   -5.3858    6.9229   -6.4950 C   0  0  0  0  0  0  0  0  0  0  0  0
   -4.9761    7.4276   -5.2667 C   0  0  0  0  0  0  0  0  0  0  0  0
   -3.7674    7.0095   -4.7081 C   0  0  0  0  0  0  0  0  0  0  0  0
   -2.9314    6.0779   -5.3712 C   0  0  0  0  0  0  0  0  0  0  0  0
    0.3099    4.8260   -0.8893 C   0  0  0  0  0  0  0  0  0  0  0  0
    1.0099    2.3422    2.5449 C   0  0  0  0  0  0  0  0  0  0  0  0
    1.2478    1.5135    3.6447 C   0  0  0  0  0  0  0  0  0  0  0  0
    1.0238   -1.7799    4.5495 H   0  0  0  0  0  0  0  0  0  0  0  0
    0.7265   -0.4046    5.6251 H   0  0  0  0  0  0  0  0  0  0  0  0
    2.3604   -0.6989    4.9715 H   0  0  0  0  0  0  0  0  0  0  0  0
    0.2474   -1.4473    2.3137 H   0  0  0  0  0  0  0  0  0  0  0  0
   -0.0763    2.1561   -0.5724 H   0  0  0  0  0  0  0  0  0  0  0  0
   -1.2400    3.9859    2.0185 H   0  0  0  0  0  0  0  0  0  0  0  0
   -1.1463    7.7730    0.0162 H   0  0  0  0  0  0  0  0  0  0  0  0
    1.5441    7.1104   -2.0100 H   0  0  0  0  0  0  0  0  0  0  0  0
    0.0731    8.0841   -1.9788 H   0  0  0  0  0  0  0  0  0  0  0  0
   -1.8624    6.3971   -2.9540 H   0  0  0  0  0  0  0  0  0  0  0  0
    0.0666    4.4398   -5.3475 H   0  0  0  0  0  0  0  0  0  0  0  0
   -2.7920    4.2987   -8.2792 H   0  0  0  0  0  0  0  0  0  0  0  0
   -4.9100    5.6363   -8.1417 H   0  0  0  0  0  0  0  0  0  0  0  0
   -6.3227    7.2561   -6.9333 H   0  0  0  0  0  0  0  0  0  0  0  0
   -5.5892    8.1591   -4.7457 H   0  0  0  0  0  0  0  0  0  0  0  0
   -3.4711    7.4589   -3.7642 H   0  0  0  0  0  0  0  0  0  0  0  0
    0.9445    4.3906   -1.6623 H   0  0  0  0  0  0  0  0  0  0  0  0
    1.2652    3.3960    2.6254 H   0  0  0  0  0  0  0  0  0  0  0  0
    1.6593    1.9459    4.5546 H   0  0  0  0  0  0  0  0  0  0  0  0
  1  2  1  0  0  0  0
  1 31  1  0  0  0  0
  1 32  1  0  0  0  0
  1 33  1  0  0  0  0
  2  3  2  0  0  0  0
  2 30  1  0  0  0  0
  3  4  1  0  0  0  0
  3 34  1  0  0  0  0
  4  5  1  0  0  0  0
  4  6  2  0  0  0  0
  6  7  1  0  0  0  0
  6 29  1  0  0  0  0
  7  8  1  0  0  0  0
  7 35  1  0  0  0  0
  8  9  2  0  0  0  0
  8 28  1  0  0  0  0
  9 10  1  0  0  0  0
  9 36  1  0  0  0  0
 10 11  1  0  0  0  0
 10 12  2  0  0  0  0
 12 13  1  0  0  0  0
 12 37  1  0  0  0  0
 13 14  1  0  0  0  0
 13 28  2  0  0  0  0
 14 15  1  0  0  0  0
 14 38  1  0  0  0  0
 14 39  1  0  0  0  0
 15 16  2  0  0  0  0
 15 17  1  0  0  0  0
 17 18  1  0  0  0  0
 17 40  1  0  0  0  0
 18 19  2  0  0  0  0
 18 27  1  0  0  0  0
 19 20  1  0  0  0  0
 19 41  1  0  0  0  0
 20 21  2  0  0  0  0
 21 22  1  0  0  0  0
 21 42  1  0  0  0  0
 22 23  2  0  0  0  0
 22 27  1  0  0  0  0
 23 24  1  0  0  0  0
 23 43  1  0  0  0  0
 24 25  2  0  0  0  0
 24 44  1  0  0  0  0
 25 26  1  0  0  0  0
 25 45  1  0  0  0  0
 26 27  2  0  0  0  0
 26 46  1  0  0  0  0
 28 47  1  0  0  0  0
 29 30  2  0  0  0  0
 29 48  1  0  0  0  0
 30 49  1  0  0  0  0
M  END
$$$$
