
 OpenBabel07202414203D

 44 47  0  0  1  0  0  0  0  0999 V2000
   -2.9387   -3.0023   -5.6798 C   0  0  0  0  0  0  0  0  0  0  0  0
   -3.1025   -1.6968   -6.1324 C   0  0  0  0  0  0  0  0  0  0  0  0
   -2.7687   -0.6330   -5.2990 C   0  0  0  0  0  0  0  0  0  0  0  0
   -2.2747   -0.8846   -4.0117 C   0  0  0  0  0  0  0  0  0  0  0  0
   -2.1052   -2.1965   -3.5272 C   0  0  0  0  0  0  0  0  0  0  0  0
   -2.4479   -3.2515   -4.3901 C   0  0  0  0  0  0  0  0  0  0  0  0
   -1.6275   -2.3787   -2.1237 C   0  0  0  0  0  0  0  0  0  0  0  0
   -1.3370   -1.2775   -1.4081 C   0  0  0  0  0  0  0  0  0  0  0  0
   -1.4919    0.0925   -1.9344 C   0  0  0  0  0  0  0  0  0  0  0  0
   -1.2046    1.0725   -1.2566 O   0  0  0  0  0  0  0  0  0  0  0  0
   -1.9645    0.2077   -3.2052 N   0  0  0  0  0  0  0  0  0  0  0  0
   -1.4897   -3.6598   -1.5993 N   0  0  0  0  0  0  0  0  0  0  0  0
   -1.4802   -4.0037   -0.2495 C   0  0  0  0  0  0  0  0  0  0  0  0
   -1.6779   -3.2277    0.6826 O   0  0  0  0  0  0  0  0  0  0  0  0
   -1.2387   -5.4824    0.0165 C   0  0  0  0  0  0  0  0  0  0  0  0
   -2.5149   -6.2862    0.0807 C   0  0  0  0  0  0  0  0  0  0  0  0
   -3.2682   -6.3426    1.2650 C   0  0  0  0  0  0  0  0  0  0  0  0
   -4.4728   -7.0565    1.3301 C   0  0  0  0  0  0  0  0  0  0  0  0
   -4.9424   -7.7180    0.1992 C   0  0  0  0  0  0  0  0  0  0  0  0
   -4.1954   -7.6675   -0.9810 C   0  0  0  0  0  0  0  0  0  0  0  0
   -2.9902   -6.9626   -1.0470 C   0  0  0  0  0  0  0  0  0  0  0  0
   -4.7737   -8.4663   -2.3940 Cl  0  0  0  0  0  0  0  0  0  0  0  0
   -5.1269   -6.9692    2.5343 O   0  0  0  0  0  0  0  0  0  0  0  0
   -6.1274   -7.9380    2.8975 C   0  0  3  0  0  0  0  0  0  0  0  0
   -6.8188   -7.6738    4.2550 C   0  0  0  0  0  0  0  0  0  0  0  0
   -5.9860   -8.8591    4.7437 C   0  0  0  0  0  0  0  0  0  0  0  0
   -5.6423   -9.3285    5.8005 O   0  0  0  0  0  0  0  0  0  0  0  0
   -5.6348   -9.1956    3.4732 N   0  0  0  0  0  0  0  0  0  0  0  0
   -3.2090   -3.8338   -6.3281 H   0  0  0  0  0  0  0  0  0  0  0  0
   -3.4949   -1.5057   -7.1286 H   0  0  0  0  0  0  0  0  0  0  0  0
   -2.9039    0.3854   -5.6569 H   0  0  0  0  0  0  0  0  0  0  0  0
   -2.3622   -4.2900   -4.0897 H   0  0  0  0  0  0  0  0  0  0  0  0
   -0.9542   -1.3074   -0.3960 H   0  0  0  0  0  0  0  0  0  0  0  0
   -2.0861    1.1537   -3.5429 H   0  0  0  0  0  0  0  0  0  0  0  0
   -1.5311   -4.4301   -2.2504 H   0  0  0  0  0  0  0  0  0  0  0  0
   -0.7001   -5.5671    0.9696 H   0  0  0  0  0  0  0  0  0  0  0  0
   -0.5595   -5.8934   -0.7397 H   0  0  0  0  0  0  0  0  0  0  0  0
   -2.9234   -5.8136    2.1539 H   0  0  0  0  0  0  0  0  0  0  0  0
   -5.8860   -8.2515    0.1965 H   0  0  0  0  0  0  0  0  0  0  0  0
   -2.4315   -6.9435   -1.9779 H   0  0  0  0  0  0  0  0  0  0  0  0
   -6.8701   -8.1066    2.1096 H   0  0  0  0  0  0  0  0  0  0  0  0
   -7.8989   -7.8433    4.2818 H   0  0  0  0  0  0  0  0  0  0  0  0
   -6.5695   -6.7262    4.7377 H   0  0  0  0  0  0  0  0  0  0  0  0
   -4.7154   -9.5986    3.3616 H   0  0  0  0  0  0  0  0  0  0  0  0
  1  2  1  0  0  0  0
  1  6  2  0  0  0  0
  1 29  1  0  0  0  0
  2  3  2  0  0  0  0
  2 30  1  0  0  0  0
  3  4  1  0  0  0  0
  3 31  1  0  0  0  0
  4  5  2  0  0  0  0
  4 11  1  0  0  0  0
  5  6  1  0  0  0  0
  5  7  1  0  0  0  0
  6 32  1  0  0  0  0
  7  8  2  0  0  0  0
  7 12  1  0  0  0  0
  8  9  1  0  0  0  0
  8 33  1  0  0  0  0
  9 10  2  0  0  0  0
  9 11  1  0  0  0  0
 11 34  1  0  0  0  0
 12 13  1  0  0  0  0
 12 35  1  0  0  0  0
 13 14  2  0  0  0  0
 13 15  1  0  0  0  0
 15 16  1  0  0  0  0
 15 36  1  0  0  0  0
 15 37  1  0  0  0  0
 16 17  1  0  0  0  0
 16 21  2  0  0  0  0
 17 18  2  0  0  0  0
 17 38  1  0  0  0  0
 18 19  1  0  0  0  0
 18 23  1  0  0  0  0
 19 20  2  0  0  0  0
 19 39  1  0  0  0  0
 20 21  1  0  0  0  0
 20 22  1  0  0  0  0
 21 40  1  0  0  0  0
 23 24  1  0  0  0  0
 24 25  1  0  0  0  0
 24 28  1  0  0  0  0
 24 41  1  0  0  0  0
 25 26  1  0  0  0  0
 25 42  1  0  0  0  0
 25 43  1  0  0  0  0
 26 27  2  0  0  0  0
 26 28  1  0  0  0  0
 28 44  1  0  0  0  0
M  END
$$$$
