
 OpenBabel07202414203D

 55 58  0  0  1  0  0  0  0  0999 V2000
    0.8740    1.0399    3.2043 C   0  0  0  0  0  0  0  0  0  0  0  0
    1.6716    0.1130    2.5298 C   0  0  0  0  0  0  0  0  0  0  0  0
    1.6078    0.0001    1.1352 C   0  0  0  0  0  0  0  0  0  0  0  0
    0.7197    0.8307    0.4317 C   0  0  0  0  0  0  0  0  0  0  0  0
   -0.1067    1.7454    1.1049 C   0  0  0  0  0  0  0  0  0  0  0  0
    0.0068    1.8728    2.4929 C   0  0  0  0  0  0  0  0  0  0  0  0
   -0.9961    2.6140    0.2900 C   0  0  0  0  0  0  0  0  0  0  0  0
   -0.5418    3.0027   -0.7900 O   0  0  0  0  0  0  0  0  0  0  0  0
   -2.2813    2.9784    0.7302 N   0  0  0  0  0  0  0  0  0  0  0  0
   -3.0704    3.8175   -0.1666 C   0  0  0  0  0  0  0  0  0  0  0  0
   -4.0072    4.7545    0.5941 C   0  0  0  0  0  0  0  0  0  0  0  0
   -4.8959    4.0359    1.6321 C   0  0  0  0  0  0  0  0  0  0  0  0
   -3.9722    3.1633    2.5154 C   0  0  0  0  0  0  0  0  0  0  0  0
   -3.0745    2.2279    1.7052 C   0  0  0  0  0  0  0  0  0  0  0  0
   -6.0850    3.2396    1.0162 C   0  0  3  0  0  0  0  0  0  0  0  0
   -7.0893    4.1034    0.2410 C   0  0  0  0  0  0  0  0  0  0  0  0
   -8.1971    4.3739    1.2380 C   0  0  0  0  0  0  0  0  0  0  0  0
   -8.3353    3.1012    1.9432 N   0  0  0  0  0  0  0  0  0  0  0  0
   -6.9704    2.5817    2.0960 C   0  0  0  0  0  0  0  0  0  0  0  0
    2.4671   -1.0057    0.4124 C   0  0  0  0  0  0  0  0  0  0  0  0
    3.7726   -0.5063    0.0296 N   0  0  0  0  0  0  0  0  0  0  0  0
    3.9690    0.5872   -0.8897 C   0  0  0  0  0  0  0  0  0  0  0  0
    5.3087    0.2577   -1.5195 C   0  0  0  0  0  0  0  0  0  0  0  0
    6.0720   -0.4267   -0.3906 C   0  0  0  0  0  0  0  0  0  0  0  0
    4.9686   -1.1152    0.3777 C   0  0  0  0  0  0  0  0  0  0  0  0
    5.1221   -2.0348    1.1642 O   0  0  0  0  0  0  0  0  0  0  0  0
    0.9360    1.1177    4.2872 H   0  0  0  0  0  0  0  0  0  0  0  0
    2.3508   -0.5224    3.0971 H   0  0  0  0  0  0  0  0  0  0  0  0
    0.6715    0.7720   -0.6555 H   0  0  0  0  0  0  0  0  0  0  0  0
   -0.5671    2.6224    3.0298 H   0  0  0  0  0  0  0  0  0  0  0  0
   -3.6314    3.1541   -0.8313 H   0  0  0  0  0  0  0  0  0  0  0  0
   -2.4100    4.4251   -0.7993 H   0  0  0  0  0  0  0  0  0  0  0  0
   -4.5998    5.3324   -0.1197 H   0  0  0  0  0  0  0  0  0  0  0  0
   -3.3900    5.4864    1.1323 H   0  0  0  0  0  0  0  0  0  0  0  0
   -5.3308    4.8128    2.2766 H   0  0  0  0  0  0  0  0  0  0  0  0
   -4.5410    2.5765    3.2418 H   0  0  0  0  0  0  0  0  0  0  0  0
   -3.3344    3.8357    3.1057 H   0  0  0  0  0  0  0  0  0  0  0  0
   -3.6726    1.5009    1.1461 H   0  0  0  0  0  0  0  0  0  0  0  0
   -2.4564    1.6443    2.3850 H   0  0  0  0  0  0  0  0  0  0  0  0
   -5.6931    2.4726    0.3378 H   0  0  0  0  0  0  0  0  0  0  0  0
   -7.4925    3.5210   -0.5986 H   0  0  0  0  0  0  0  0  0  0  0  0
   -6.6844    5.0290   -0.1707 H   0  0  0  0  0  0  0  0  0  0  0  0
   -9.1332    4.6643    0.7516 H   0  0  0  0  0  0  0  0  0  0  0  0
   -7.9154    5.1678    1.9391 H   0  0  0  0  0  0  0  0  0  0  0  0
   -8.8692    2.4576    1.3590 H   0  0  0  0  0  0  0  0  0  0  0  0
   -6.9711    1.4918    1.9861 H   0  0  0  0  0  0  0  0  0  0  0  0
   -6.6387    2.8094    3.1125 H   0  0  0  0  0  0  0  0  0  0  0  0
    1.9648   -1.3437   -0.5021 H   0  0  0  0  0  0  0  0  0  0  0  0
    2.5876   -1.8984    1.0377 H   0  0  0  0  0  0  0  0  0  0  0  0
    4.0116    1.5186   -0.3151 H   0  0  0  0  0  0  0  0  0  0  0  0
    3.1672    0.6365   -1.6308 H   0  0  0  0  0  0  0  0  0  0  0  0
    5.8255    1.1324   -1.9226 H   0  0  0  0  0  0  0  0  0  0  0  0
    5.1613   -0.4557   -2.3414 H   0  0  0  0  0  0  0  0  0  0  0  0
    6.5736    0.2959    0.2592 H   0  0  0  0  0  0  0  0  0  0  0  0
    6.7900   -1.1545   -0.7782 H   0  0  0  0  0  0  0  0  0  0  0  0
  1  2  1  0  0  0  0
  1  6  2  0  0  0  0
  1 27  1  0  0  0  0
  2  3  2  0  0  0  0
  2 28  1  0  0  0  0
  3  4  1  0  0  0  0
  3 20  1  0  0  0  0
  4  5  2  0  0  0  0
  4 29  1  0  0  0  0
  5  6  1  0  0  0  0
  5  7  1  0  0  0  0
  6 30  1  0  0  0  0
  7  8  2  0  0  0  0
  7  9  1  0  0  0  0
  9 10  1  0  0  0  0
  9 14  1  0  0  0  0
 10 11  1  0  0  0  0
 10 31  1  0  0  0  0
 10 32  1  0  0  0  0
 11 12  1  0  0  0  0
 11 33  1  0  0  0  0
 11 34  1  0  0  0  0
 12 13  1  0  0  0  0
 12 15  1  0  0  0  0
 12 35  1  0  0  0  0
 13 14  1  0  0  0  0
 13 36  1  0  0  0  0
 13 37  1  0  0  0  0
 14 38  1  0  0  0  0
 14 39  1  0  0  0  0
 15 16  1  0  0  0  0
 15 19  1  0  0  0  0
 15 40  1  0  0  0  0
 16 17  1  0  0  0  0
 16 41  1  0  0  0  0
 16 42  1  0  0  0  0
 17 18  1  0  0  0  0
 17 43  1  0  0  0  0
 17 44  1  0  0  0  0
 18 19  1  0  0  0  0
 18 45  1  0  0  0  0
 19 46  1  0  0  0  0
 19 47  1  0  0  0  0
 20 21  1  0  0  0  0
 20 48  1  0  0  0  0
 20 49  1  0  0  0  0
 21 22  1  0  0  0  0
 21 25  1  0  0  0  0
 22 23  1  0  0  0  0
 22 50  1  0  0  0  0
 22 51  1  0  0  0  0
 23 24  1  0  0  0  0
 23 52  1  0  0  0  0
 23 53  1  0  0  0  0
 24 25  1  0  0  0  0
 24 54  1  0  0  0  0
 24 55  1  0  0  0  0
 25 26  2  0  0  0  0
M  END
$$$$
