
 OpenBabel07202414133D

 51 54  0  0  0  0  0  0  0  0999 V2000
   -0.5149    1.8394    5.0652 C   0  0  0  0  0  0  0  0  0  0  0  0
   -1.4465    1.5575    3.9209 C   0  0  0  0  0  0  0  0  0  0  0  0
   -1.1806    2.0817    2.6494 C   0  0  0  0  0  0  0  0  0  0  0  0
   -2.0441    1.8811    1.5587 C   0  0  0  0  0  0  0  0  0  0  0  0
   -1.7956    2.5291    0.3248 N   0  0  0  0  0  0  0  0  0  0  0  0
   -1.1815    3.7884    0.1405 C   0  0  0  0  0  0  0  0  0  0  0  0
   -0.3467    4.0204   -0.9611 C   0  0  0  0  0  0  0  0  0  0  0  0
    0.3938    5.2124   -1.0670 C   0  0  0  0  0  0  0  0  0  0  0  0
    1.4073    5.3988   -2.1729 C   0  0  0  0  0  0  0  0  0  0  0  0
    0.8629    5.3337   -3.5792 C   0  0  0  0  0  0  0  0  0  0  0  0
    1.4839    4.7356   -4.4599 O   0  0  0  0  0  0  0  0  0  0  0  0
   -0.2768    6.0853   -3.8103 N   0  0  0  0  0  0  0  0  0  0  0  0
   -0.8744    6.1730   -5.0896 C   0  0  0  0  0  0  0  0  0  0  0  0
   -1.0416    5.0394   -5.8834 C   0  0  0  0  0  0  0  0  0  0  0  0
   -1.6367    5.0313   -7.0961 N   0  0  0  0  0  0  0  0  0  0  0  0
   -2.0546    6.2286   -7.5587 C   0  0  0  0  0  0  0  0  0  0  0  0
   -1.9217    7.4388   -6.8711 C   0  0  0  0  0  0  0  0  0  0  0  0
   -2.3402    8.6542   -7.4363 C   0  0  0  0  0  0  0  0  0  0  0  0
   -2.1658    9.8582   -6.7565 C   0  0  0  0  0  0  0  0  0  0  0  0
   -1.5678    9.8603   -5.5015 C   0  0  0  0  0  0  0  0  0  0  0  0
   -1.1579    8.6563   -4.9251 C   0  0  0  0  0  0  0  0  0  0  0  0
   -1.3268    7.4188   -5.5894 C   0  0  0  0  0  0  0  0  0  0  0  0
    0.2679    6.1919   -0.0721 C   0  0  0  0  0  0  0  0  0  0  0  0
   -0.6021    5.9887    0.9951 C   0  0  0  0  0  0  0  0  0  0  0  0
   -0.7322    7.1776    2.2306 Cl  0  0  0  0  0  0  0  0  0  0  0  0
   -1.3258    4.8058    1.0934 C   0  0  0  0  0  0  0  0  0  0  0  0
   -3.1672    1.0723    1.7875 C   0  0  0  0  0  0  0  0  0  0  0  0
   -4.0843    0.7789    0.7028 N   0  3  0  0  0  0  0  0  0  0  0  0
   -3.6098    0.2374   -0.3037 O   0  5  0  0  0  0  0  0  0  0  0  0
   -5.2785    1.0616    0.8784 O   0  0  0  0  0  0  0  0  0  0  0  0
   -3.4618    0.5385    3.0512 C   0  0  0  0  0  0  0  0  0  0  0  0
   -2.6007    0.7934    4.1193 C   0  0  0  0  0  0  0  0  0  0  0  0
    0.3556    2.4179    4.7387 H   0  0  0  0  0  0  0  0  0  0  0  0
   -0.1500    0.9022    5.4964 H   0  0  0  0  0  0  0  0  0  0  0  0
   -1.0315    2.4191    5.8363 H   0  0  0  0  0  0  0  0  0  0  0  0
   -0.2705    2.6665    2.5074 H   0  0  0  0  0  0  0  0  0  0  0  0
   -1.7509    1.8926   -0.4698 H   0  0  0  0  0  0  0  0  0  0  0  0
   -0.2334    3.2485   -1.7214 H   0  0  0  0  0  0  0  0  0  0  0  0
    2.1631    4.6093   -2.0641 H   0  0  0  0  0  0  0  0  0  0  0  0
    1.9321    6.3556   -2.0633 H   0  0  0  0  0  0  0  0  0  0  0  0
   -0.4994    6.8015   -3.1328 H   0  0  0  0  0  0  0  0  0  0  0  0
   -0.7237    4.0557   -5.5410 H   0  0  0  0  0  0  0  0  0  0  0  0
   -2.5095    6.1899   -8.5468 H   0  0  0  0  0  0  0  0  0  0  0  0
   -2.7967    8.6735   -8.4229 H   0  0  0  0  0  0  0  0  0  0  0  0
   -2.4848   10.7927   -7.2112 H   0  0  0  0  0  0  0  0  0  0  0  0
   -1.4070   10.7986   -4.9784 H   0  0  0  0  0  0  0  0  0  0  0  0
   -0.6654    8.7125   -3.9583 H   0  0  0  0  0  0  0  0  0  0  0  0
    0.8624    7.1001   -0.1082 H   0  0  0  0  0  0  0  0  0  0  0  0
   -1.9926    4.6658    1.9424 H   0  0  0  0  0  0  0  0  0  0  0  0
   -4.3553   -0.0611    3.2116 H   0  0  0  0  0  0  0  0  0  0  0  0
   -2.8319    0.3938    5.1048 H   0  0  0  0  0  0  0  0  0  0  0  0
  1  2  1  0  0  0  0
  1 33  1  0  0  0  0
  1 34  1  0  0  0  0
  1 35  1  0  0  0  0
  2  3  2  0  0  0  0
  2 32  1  0  0  0  0
  3  4  1  0  0  0  0
  3 36  1  0  0  0  0
  4  5  1  0  0  0  0
  4 27  2  0  0  0  0
  5  6  1  0  0  0  0
  5 37  1  0  0  0  0
  6  7  2  0  0  0  0
  6 26  1  0  0  0  0
  7  8  1  0  0  0  0
  7 38  1  0  0  0  0
  8  9  1  0  0  0  0
  8 23  2  0  0  0  0
  9 10  1  0  0  0  0
  9 39  1  0  0  0  0
  9 40  1  0  0  0  0
 10 11  2  0  0  0  0
 10 12  1  0  0  0  0
 12 13  1  0  0  0  0
 12 41  1  0  0  0  0
 13 14  2  0  0  0  0
 13 22  1  0  0  0  0
 14 15  1  0  0  0  0
 14 42  1  0  0  0  0
 15 16  2  0  0  0  0
 16 17  1  0  0  0  0
 16 43  1  0  0  0  0
 17 18  2  0  0  0  0
 17 22  1  0  0  0  0
 18 19  1  0  0  0  0
 18 44  1  0  0  0  0
 19 20  2  0  0  0  0
 19 45  1  0  0  0  0
 20 21  1  0  0  0  0
 20 46  1  0  0  0  0
 21 22  2  0  0  0  0
 21 47  1  0  0  0  0
 23 24  1  0  0  0  0
 23 48  1  0  0  0  0
 24 25  1  0  0  0  0
 24 26  2  0  0  0  0
 26 49  1  0  0  0  0
 27 28  1  0  0  0  0
 27 31  1  0  0  0  0
 28 29  1  0  0  0  0
 28 30  2  0  0  0  0
 31 32  2  0  0  0  0
 31 50  1  0  0  0  0
 32 51  1  0  0  0  0
M  CHG  2  28   1  29  -1
M  END
$$$$
