
 OpenBabel07202414153D

 42 44  0  0  0  0  0  0  0  0999 V2000
    2.6290    0.3796   -2.9421 C   0  0  0  0  0  0  0  0  0  0  0  0
    2.5893   -0.2088   -1.6487 O   0  0  0  0  0  0  0  0  0  0  0  0
    2.9974    0.6068   -0.6256 C   0  0  0  0  0  0  0  0  0  0  0  0
    2.8097    1.9860   -0.7333 C   0  0  0  0  0  0  0  0  0  0  0  0
    3.0778    2.8391    0.3323 C   0  0  0  0  0  0  0  0  0  0  0  0
    3.5135    2.3146    1.5387 C   0  0  0  0  0  0  0  0  0  0  0  0
    3.6253    0.9271    1.6838 C   0  0  0  0  0  0  0  0  0  0  0  0
    3.4593    0.0627    0.5824 C   0  0  0  0  0  0  0  0  0  0  0  0
    3.8382   -1.2491    0.7939 O   0  0  0  0  0  0  0  0  0  0  0  0
    3.7447   -2.1224   -0.3369 C   0  0  0  0  0  0  0  0  0  0  0  0
    4.1738   -3.5560   -0.0502 C   0  0  0  0  0  0  0  0  0  0  0  0
    3.2861   -4.1058    1.0307 N   0  0  0  0  0  0  0  0  0  0  0  0
    1.9458   -4.1726    0.8224 C   0  0  0  0  0  0  0  0  0  0  0  0
    1.5824   -3.7550   -0.2867 O   0  0  0  0  0  0  0  0  0  0  0  0
    0.9744   -4.7961    2.1168 C   0  0  0  0  0  0  0  0  0  0  0  0
    1.1164   -4.7804    3.5977 C   0  0  0  0  0  0  0  0  0  0  0  0
   -0.0271   -5.3330    4.1243 N   0  0  0  0  0  0  0  0  0  0  0  0
   -1.0792   -5.8225    3.4632 C   0  0  0  0  0  0  0  0  0  0  0  0
   -1.2113   -5.9442    2.1121 C   0  0  0  0  0  0  0  0  0  0  0  0
   -0.2028   -5.4208    1.3226 C   0  0  0  0  0  0  0  0  0  0  0  0
   -0.5548   -5.6037   -0.1296 C   0  0  0  0  0  0  0  0  0  0  0  0
   -1.7085   -6.2073   -0.6604 C   0  0  0  0  0  0  0  0  0  0  0  0
   -2.5830   -6.7292    0.2473 C   0  0  0  0  0  0  0  0  0  0  0  0
   -2.3948   -6.5270    1.6138 C   0  0  0  0  0  0  0  0  0  0  0  0
    2.3405   -0.3945   -3.6591 H   0  0  0  0  0  0  0  0  0  0  0  0
    3.6415    0.7144   -3.1887 H   0  0  0  0  0  0  0  0  0  0  0  0
    1.9114    1.1957   -3.0392 H   0  0  0  0  0  0  0  0  0  0  0  0
    2.4484    2.4149   -1.6575 H   0  0  0  0  0  0  0  0  0  0  0  0
    2.9100    3.9055    0.2203 H   0  0  0  0  0  0  0  0  0  0  0  0
    3.7687    2.9827    2.3590 H   0  0  0  0  0  0  0  0  0  0  0  0
    3.8288    0.5395    2.6791 H   0  0  0  0  0  0  0  0  0  0  0  0
    4.3734   -1.7718   -1.1704 H   0  0  0  0  0  0  0  0  0  0  0  0
    2.6981   -2.1846   -0.6558 H   0  0  0  0  0  0  0  0  0  0  0  0
    5.2377   -3.5624    0.2530 H   0  0  0  0  0  0  0  0  0  0  0  0
    4.1322   -4.1508   -0.9850 H   0  0  0  0  0  0  0  0  0  0  0  0
    3.6846   -4.4073    1.8961 H   0  0  0  0  0  0  0  0  0  0  0  0
    1.1894   -4.7857    4.7736 H   0  0  0  0  0  0  0  0  0  0  0  0
   -1.7645   -6.2142    4.2007 H   0  0  0  0  0  0  0  0  0  0  0  0
    0.1020   -5.2971   -0.9422 H   0  0  0  0  0  0  0  0  0  0  0  0
   -1.8759   -6.3299   -1.7341 H   0  0  0  0  0  0  0  0  0  0  0  0
   -3.4187   -7.3303   -0.0791 H   0  0  0  0  0  0  0  0  0  0  0  0
   -3.1763   -6.8743    2.2776 H   0  0  0  0  0  0  0  0  0  0  0  0
  1  2  1  0  0  0  0
  1 25  1  0  0  0  0
  1 26  1  0  0  0  0
  1 27  1  0  0  0  0
  2  3  1  0  0  0  0
  3  4  1  0  0  0  0
  3  8  2  0  0  0  0
  4  5  2  0  0  0  0
  4 28  1  0  0  0  0
  5  6  1  0  0  0  0
  5 29  1  0  0  0  0
  6  7  2  0  0  0  0
  6 30  1  0  0  0  0
  7  8  1  0  0  0  0
  7 31  1  0  0  0  0
  8  9  1  0  0  0  0
  9 10  1  0  0  0  0
 10 11  1  0  0  0  0
 10 32  1  0  0  0  0
 10 33  1  0  0  0  0
 11 12  1  0  0  0  0
 11 34  1  0  0  0  0
 11 35  1  0  0  0  0
 12 13  1  0  0  0  0
 12 36  1  0  0  0  0
 13 14  2  0  0  0  0
 13 15  1  0  0  0  0
 15 16  1  0  0  0  0
 15 20  2  0  0  0  0
 16 17  2  0  0  0  0
 16 37  1  0  0  0  0
 17 18  1  0  0  0  0
 18 19  2  0  0  0  0
 18 38  1  0  0  0  0
 19 20  1  0  0  0  0
 19 24  1  0  0  0  0
 20 21  1  0  0  0  0
 21 22  2  0  0  0  0
 21 39  1  0  0  0  0
 22 23  1  0  0  0  0
 22 40  1  0  0  0  0
 23 24  2  0  0  0  0
 23 41  1  0  0  0  0
 24 42  1  0  0  0  0
M  END
$$$$
