
 OpenBabel07202414143D

 52 56  0  0  1  0  0  0  0  0999 V2000
    1.7270   -3.3897    1.6936 C   0  0  0  0  0  0  0  0  0  0  0  0
    3.0267   -2.6881    1.6625 N   0  0  0  0  0  0  0  0  0  0  0  0
    2.8407   -1.0131    1.6587 S   0  0  0  0  0  0  0  0  0  0  0  0
    2.3191   -0.6932    0.3541 O   0  0  0  0  0  0  0  0  0  0  0  0
    2.1968   -0.6644    2.8934 O   0  0  0  0  0  0  0  0  0  0  0  0
    4.4577   -0.5781    1.7090 N   0  0  0  0  0  0  0  0  0  0  0  0
    5.1712   -0.8395    2.9687 C   0  0  0  0  0  0  0  0  0  0  0  0
    5.2250    0.3387    3.9135 C   0  0  0  0  0  0  0  0  0  0  0  0
    5.4965    0.0940    5.2706 C   0  0  0  0  0  0  0  0  0  0  0  0
    5.5413    1.1356    6.1957 C   0  0  0  0  0  0  0  0  0  0  0  0
    5.3308    2.4373    5.7652 C   0  0  0  0  0  0  0  0  0  0  0  0
    5.3643    3.7348    6.8944 Cl  0  0  0  0  0  0  0  0  0  0  0  0
    5.0803    2.7011    4.4208 C   0  0  0  0  0  0  0  0  0  0  0  0
    5.0279    1.6602    3.4676 C   0  0  0  0  0  0  0  0  0  0  0  0
    4.6650    1.9569    2.0014 C   0  0  3  0  0  0  0  0  0  0  0  0
    5.5258    3.1095    1.4137 C   0  0  0  0  0  0  0  0  0  0  0  0
    4.5550    4.2427    1.1320 C   0  0  0  0  0  0  0  0  0  0  0  0
    3.4172    3.9758    1.9654 N   0  0  0  0  0  0  0  0  0  0  0  0
    2.3919    4.9436    2.2278 C   0  0  0  0  0  0  0  0  0  0  0  0
    1.0501    4.5609    2.3386 C   0  0  0  0  0  0  0  0  0  0  0  0
   -0.0022    5.4136    2.3738 N   0  0  0  0  0  0  0  0  0  0  0  0
    0.2877    6.7256    2.3415 C   0  0  0  0  0  0  0  0  0  0  0  0
    1.5771    7.2442    2.3957 C   0  0  0  0  0  0  0  0  0  0  0  0
    1.7844    8.6336    2.4839 C   0  0  0  0  0  0  0  0  0  0  0  0
    3.0647    9.1558    2.6399 C   0  0  0  0  0  0  0  0  0  0  0  0
    4.1414    8.2920    2.7542 C   0  0  0  0  0  0  0  0  0  0  0  0
    3.9374    6.9117    2.6646 C   0  0  0  0  0  0  0  0  0  0  0  0
    2.6647    6.3381    2.4018 C   0  0  0  0  0  0  0  0  0  0  0  0
    3.2532    2.5756    1.9640 C   0  0  0  0  0  0  0  0  0  0  0  0
    2.2079    1.9540    2.0034 O   0  0  0  0  0  0  0  0  0  0  0  0
    4.8298    0.7215    1.0960 C   0  0  0  0  0  0  0  0  0  0  0  0
    1.9025   -4.4543    1.8651 H   0  0  0  0  0  0  0  0  0  0  0  0
    1.2187   -3.2775    0.7311 H   0  0  0  0  0  0  0  0  0  0  0  0
    1.0849   -3.0194    2.4978 H   0  0  0  0  0  0  0  0  0  0  0  0
    3.5619   -2.9466    0.8356 H   0  0  0  0  0  0  0  0  0  0  0  0
    6.2019   -1.1192    2.7169 H   0  0  0  0  0  0  0  0  0  0  0  0
    4.7394   -1.7089    3.4791 H   0  0  0  0  0  0  0  0  0  0  0  0
    5.6490   -0.9253    5.6258 H   0  0  0  0  0  0  0  0  0  0  0  0
    5.7264    0.9240    7.2453 H   0  0  0  0  0  0  0  0  0  0  0  0
    4.8971    3.7324    4.1305 H   0  0  0  0  0  0  0  0  0  0  0  0
    6.0361    2.8387    0.4814 H   0  0  0  0  0  0  0  0  0  0  0  0
    6.3098    3.4380    2.1053 H   0  0  0  0  0  0  0  0  0  0  0  0
    4.2106    4.1857    0.0904 H   0  0  0  0  0  0  0  0  0  0  0  0
    5.0403    5.2045    1.2555 H   0  0  0  0  0  0  0  0  0  0  0  0
    0.7351    3.5238    2.3812 H   0  0  0  0  0  0  0  0  0  0  0  0
   -0.5844    7.3731    2.3080 H   0  0  0  0  0  0  0  0  0  0  0  0
    0.9392    9.3188    2.4619 H   0  0  0  0  0  0  0  0  0  0  0  0
    3.2129   10.2291    2.7172 H   0  0  0  0  0  0  0  0  0  0  0  0
    5.1402    8.6829    2.9336 H   0  0  0  0  0  0  0  0  0  0  0  0
    4.7963    6.2805    2.8725 H   0  0  0  0  0  0  0  0  0  0  0  0
    5.8957    0.6121    0.8388 H   0  0  0  0  0  0  0  0  0  0  0  0
    4.3247    0.8547    0.1326 H   0  0  0  0  0  0  0  0  0  0  0  0
  1  2  1  0  0  0  0
  1 32  1  0  0  0  0
  1 33  1  0  0  0  0
  1 34  1  0  0  0  0
  2  3  1  0  0  0  0
  2 35  1  0  0  0  0
  3  4  2  0  0  0  0
  3  5  2  0  0  0  0
  3  6  1  0  0  0  0
  6  7  1  0  0  0  0
  6 31  1  0  0  0  0
  7  8  1  0  0  0  0
  7 36  1  0  0  0  0
  7 37  1  0  0  0  0
  8  9  1  0  0  0  0
  8 14  2  0  0  0  0
  9 10  2  0  0  0  0
  9 38  1  0  0  0  0
 10 11  1  0  0  0  0
 10 39  1  0  0  0  0
 11 12  1  0  0  0  0
 11 13  2  0  0  0  0
 13 14  1  0  0  0  0
 13 40  1  0  0  0  0
 14 15  1  0  0  0  0
 15 16  1  0  0  0  0
 15 29  1  0  0  0  0
 15 31  1  0  0  0  0
 16 17  1  0  0  0  0
 16 41  1  0  0  0  0
 16 42  1  0  0  0  0
 17 18  1  0  0  0  0
 17 43  1  0  0  0  0
 17 44  1  0  0  0  0
 18 19  1  0  0  0  0
 18 29  1  0  0  0  0
 19 20  1  0  0  0  0
 19 28  2  0  0  0  0
 20 21  2  0  0  0  0
 20 45  1  0  0  0  0
 21 22  1  0  0  0  0
 22 23  2  0  0  0  0
 22 46  1  0  0  0  0
 23 24  1  0  0  0  0
 23 28  1  0  0  0  0
 24 25  2  0  0  0  0
 24 47  1  0  0  0  0
 25 26  1  0  0  0  0
 25 48  1  0  0  0  0
 26 27  2  0  0  0  0
 26 49  1  0  0  0  0
 27 28  1  0  0  0  0
 27 50  1  0  0  0  0
 29 30  2  0  0  0  0
 31 51  1  0  0  0  0
 31 52  1  0  0  0  0
M  END
$$$$
