
 OpenBabel07202414143D

 83 86  0  0  1  0  0  0  0  0999 V2000
    7.7215    3.3101    0.0684 C   0  0  0  0  0  0  0  0  0  0  0  0
    6.8599    2.7184    1.0437 O   0  0  0  0  0  0  0  0  0  0  0  0
    7.5024    1.8285    1.8487 C   0  0  0  0  0  0  0  0  0  0  0  0
    8.6858    1.5195    1.7261 O   0  0  0  0  0  0  0  0  0  0  0  0
    6.5258    1.1674    2.8308 C   0  0  1  0  0  0  0  0  0  0  0  0
    5.9590   -0.1192    2.2378 C   0  0  0  0  0  0  0  0  0  0  0  0
    7.0955   -1.1285    2.4545 C   0  0  1  0  0  0  0  0  0  0  0  0
    7.9763   -1.1547    1.2842 N   0  0  0  0  0  0  0  0  0  0  0  0
    7.7690   -2.1243    0.3189 C   0  0  0  0  0  0  0  0  0  0  0  0
    6.7786   -2.8482    0.4518 O   0  0  0  0  0  0  0  0  0  0  0  0
    8.6873   -2.1244   -0.9661 C   0  0  3  0  0  0  0  0  0  0  0  0
   10.1481   -1.8570   -0.6865 N   0  0  0  0  0  0  0  0  0  0  0  0
   10.9115   -0.7657   -1.1641 C   0  0  0  0  0  0  0  0  0  0  0  0
   12.0578   -0.5648   -0.7640 O   0  0  0  0  0  0  0  0  0  0  0  0
   10.3526    0.1824   -2.1316 C   0  0  0  0  0  0  0  0  0  0  0  0
   10.8881    1.4361   -2.3695 C   0  0  0  0  0  0  0  0  0  0  0  0
   10.1814    2.0361   -3.3658 O   0  0  0  0  0  0  0  0  0  0  0  0
    9.2553    1.1045   -3.7093 C   0  0  0  0  0  0  0  0  0  0  0  0
    9.2967   -0.0106   -3.0079 N   0  0  0  0  0  0  0  0  0  0  0  0
   10.8450   -2.7913    0.1563 C   0  0  0  0  0  0  0  0  0  0  0  0
   10.5592   -2.8730    1.5122 C   0  0  0  0  0  0  0  0  0  0  0  0
   11.2538   -3.7366    2.3559 C   0  0  0  0  0  0  0  0  0  0  0  0
   12.2760   -4.5659    1.8785 C   0  0  0  0  0  0  0  0  0  0  0  0
   13.0164   -5.5308    2.8116 C   0  0  0  0  0  0  0  0  0  0  0  0
   12.5131   -5.4614    4.2745 C   0  0  0  0  0  0  0  0  0  0  0  0
   12.8103   -6.9767    2.3202 C   0  0  0  0  0  0  0  0  0  0  0  0
   14.5242   -5.2112    2.8374 C   0  0  0  0  0  0  0  0  0  0  0  0
   12.5903   -4.4573    0.5125 C   0  0  0  0  0  0  0  0  0  0  0  0
   11.9055   -3.5630   -0.3294 C   0  0  0  0  0  0  0  0  0  0  0  0
    8.4334   -3.3440   -1.8829 C   0  0  0  0  0  0  0  0  0  0  0  0
    7.1607   -3.9237   -2.0393 C   0  0  0  0  0  0  0  0  0  0  0  0
    6.9688   -5.0712   -2.8058 C   0  0  0  0  0  0  0  0  0  0  0  0
    8.0543   -5.5891   -3.4760 C   0  0  0  0  0  0  0  0  0  0  0  0
    9.2742   -5.0199   -3.4510 N   0  0  0  0  0  0  0  0  0  0  0  0
    9.4257   -3.9149   -2.6732 C   0  0  0  0  0  0  0  0  0  0  0  0
    7.7620   -0.6699    3.7598 C   0  0  0  0  0  0  0  0  0  0  0  0
    7.2727    0.6753    3.9796 N   0  0  0  0  0  0  0  0  0  0  0  0
    7.4808    1.3198    5.1681 C   0  0  0  0  0  0  0  0  0  0  0  0
    8.1209    0.8129    6.0784 O   0  0  0  0  0  0  0  0  0  0  0  0
    6.8554    2.5232    5.2210 O   0  0  0  0  0  0  0  0  0  0  0  0
    6.8626    3.2664    6.4702 C   0  0  0  0  0  0  0  0  0  0  0  0
    8.2866    3.6764    6.8639 C   0  0  0  0  0  0  0  0  0  0  0  0
    6.0490    4.5418    6.1960 C   0  0  0  0  0  0  0  0  0  0  0  0
    6.1524    2.4856    7.5861 C   0  0  0  0  0  0  0  0  0  0  0  0
    7.1753    4.1154   -0.4279 H   0  0  0  0  0  0  0  0  0  0  0  0
    8.0071    2.5646   -0.6812 H   0  0  0  0  0  0  0  0  0  0  0  0
    8.6121    3.7381    0.5412 H   0  0  0  0  0  0  0  0  0  0  0  0
    5.7516    1.8792    3.1316 H   0  0  0  0  0  0  0  0  0  0  0  0
    5.6552   -0.0250    1.1906 H   0  0  0  0  0  0  0  0  0  0  0  0
    5.0871   -0.4400    2.8229 H   0  0  0  0  0  0  0  0  0  0  0  0
    6.6931   -2.1355    2.6116 H   0  0  0  0  0  0  0  0  0  0  0  0
    8.7014   -0.4439    1.1751 H   0  0  0  0  0  0  0  0  0  0  0  0
    8.2853   -1.2746   -1.5178 H   0  0  0  0  0  0  0  0  0  0  0  0
   11.7144    1.9930   -1.9537 H   0  0  0  0  0  0  0  0  0  0  0  0
    8.5840    1.3622   -4.5176 H   0  0  0  0  0  0  0  0  0  0  0  0
    9.8473   -2.2251    1.9930 H   0  0  0  0  0  0  0  0  0  0  0  0
   10.9699   -3.7178    3.4025 H   0  0  0  0  0  0  0  0  0  0  0  0
   11.4462   -5.7069    4.3449 H   0  0  0  0  0  0  0  0  0  0  0  0
   12.6594   -4.4603    4.7000 H   0  0  0  0  0  0  0  0  0  0  0  0
   13.0491   -6.1658    4.9189 H   0  0  0  0  0  0  0  0  0  0  0  0
   11.7447   -7.2316    2.2785 H   0  0  0  0  0  0  0  0  0  0  0  0
   13.2985   -7.6928    2.9913 H   0  0  0  0  0  0  0  0  0  0  0  0
   13.2269   -7.1343    1.3194 H   0  0  0  0  0  0  0  0  0  0  0  0
   14.7076   -4.1945    3.2049 H   0  0  0  0  0  0  0  0  0  0  0  0
   14.9840   -5.2934    1.8471 H   0  0  0  0  0  0  0  0  0  0  0  0
   15.0572   -5.9037    3.5002 H   0  0  0  0  0  0  0  0  0  0  0  0
   13.3814   -5.0662    0.0791 H   0  0  0  0  0  0  0  0  0  0  0  0
   12.2170   -3.4965   -1.3687 H   0  0  0  0  0  0  0  0  0  0  0  0
    6.2788   -3.5142   -1.5541 H   0  0  0  0  0  0  0  0  0  0  0  0
    5.9939   -5.5420   -2.8649 H   0  0  0  0  0  0  0  0  0  0  0  0
    7.9639   -6.4879   -4.0777 H   0  0  0  0  0  0  0  0  0  0  0  0
   10.4229   -3.4951   -2.7314 H   0  0  0  0  0  0  0  0  0  0  0  0
    8.8553   -0.6631    3.7159 H   0  0  0  0  0  0  0  0  0  0  0  0
    7.4479   -1.2946    4.6041 H   0  0  0  0  0  0  0  0  0  0  0  0
    8.7681    4.2268    6.0475 H   0  0  0  0  0  0  0  0  0  0  0  0
    8.9258    2.8145    7.0735 H   0  0  0  0  0  0  0  0  0  0  0  0
    8.2872    4.3074    7.7585 H   0  0  0  0  0  0  0  0  0  0  0  0
    6.5026    5.1326    5.3924 H   0  0  0  0  0  0  0  0  0  0  0  0
    5.9767    5.1721    7.0893 H   0  0  0  0  0  0  0  0  0  0  0  0
    5.0333    4.2952    5.8656 H   0  0  0  0  0  0  0  0  0  0  0  0
    6.6785    1.5646    7.8518 H   0  0  0  0  0  0  0  0  0  0  0  0
    5.1462    2.1878    7.2689 H   0  0  0  0  0  0  0  0  0  0  0  0
    6.0646    3.0853    8.4985 H   0  0  0  0  0  0  0  0  0  0  0  0
  1  2  1  0  0  0  0
  1 45  1  0  0  0  0
  1 46  1  0  0  0  0
  1 47  1  0  0  0  0
  2  3  1  0  0  0  0
  3  4  2  0  0  0  0
  5  6  1  0  0  0  0
  5 37  1  0  0  0  0
  5  3  1  0  0  0  0
  5 48  1  1  0  0  0
  6  7  1  0  0  0  0
  6 49  1  0  0  0  0
  6 50  1  0  0  0  0
  7  8  1  0  0  0  0
  7 36  1  0  0  0  0
  7 51  1  1  0  0  0
  8  9  1  0  0  0  0
  8 52  1  0  0  0  0
  9 10  2  0  0  0  0
  9 11  1  0  0  0  0
 11 12  1  0  0  0  0
 11 30  1  0  0  0  0
 11 53  1  0  0  0  0
 12 13  1  0  0  0  0
 12 20  1  0  0  0  0
 13 14  2  0  0  0  0
 13 15  1  0  0  0  0
 15 16  2  0  0  0  0
 15 19  1  0  0  0  0
 16 17  1  0  0  0  0
 16 54  1  0  0  0  0
 17 18  1  0  0  0  0
 18 19  2  0  0  0  0
 18 55  1  0  0  0  0
 20 21  1  0  0  0  0
 20 29  2  0  0  0  0
 21 22  2  0  0  0  0
 21 56  1  0  0  0  0
 22 23  1  0  0  0  0
 22 57  1  0  0  0  0
 23 24  1  0  0  0  0
 23 28  2  0  0  0  0
 24 25  1  0  0  0  0
 24 26  1  0  0  0  0
 24 27  1  0  0  0  0
 25 58  1  0  0  0  0
 25 59  1  0  0  0  0
 25 60  1  0  0  0  0
 26 61  1  0  0  0  0
 26 62  1  0  0  0  0
 26 63  1  0  0  0  0
 27 64  1  0  0  0  0
 27 65  1  0  0  0  0
 27 66  1  0  0  0  0
 28 29  1  0  0  0  0
 28 67  1  0  0  0  0
 29 68  1  0  0  0  0
 30 31  1  0  0  0  0
 30 35  2  0  0  0  0
 31 32  2  0  0  0  0
 31 69  1  0  0  0  0
 32 33  1  0  0  0  0
 32 70  1  0  0  0  0
 33 34  2  0  0  0  0
 33 71  1  0  0  0  0
 34 35  1  0  0  0  0
 35 72  1  0  0  0  0
 36 37  1  0  0  0  0
 36 73  1  0  0  0  0
 36 74  1  0  0  0  0
 37 38  1  0  0  0  0
 38 39  2  0  0  0  0
 38 40  1  0  0  0  0
 40 41  1  0  0  0  0
 41 42  1  0  0  0  0
 41 43  1  0  0  0  0
 41 44  1  0  0  0  0
 42 75  1  0  0  0  0
 42 76  1  0  0  0  0
 42 77  1  0  0  0  0
 43 78  1  0  0  0  0
 43 79  1  0  0  0  0
 43 80  1  0  0  0  0
 44 81  1  0  0  0  0
 44 82  1  0  0  0  0
 44 83  1  0  0  0  0
M  END
$$$$
