
 OpenBabel07202414153D

 43 45  0  0  0  0  0  0  0  0999 V2000
    6.2426   -0.5764   -4.2618 C   0  0  0  0  0  0  0  0  0  0  0  0
    5.8230   -2.2929   -4.1636 S   0  0  0  0  0  0  0  0  0  0  0  0
    5.5315   -2.7538   -5.5144 O   0  0  0  0  0  0  0  0  0  0  0  0
    6.8421   -2.9422   -3.3555 O   0  0  0  0  0  0  0  0  0  0  0  0
    4.2985   -2.3131   -3.2419 C   0  0  0  0  0  0  0  0  0  0  0  0
    3.8317   -1.1095   -2.8580 N   0  0  0  0  0  0  0  0  0  0  0  0
    2.8085   -1.1532   -1.9824 C   0  0  0  0  0  0  0  0  0  0  0  0
    2.2604   -2.3203   -1.4857 C   0  0  0  0  0  0  0  0  0  0  0  0
    2.8031   -3.5008   -2.0012 C   0  0  0  0  0  0  0  0  0  0  0  0
    3.8428   -3.5292   -2.8755 N   0  0  0  0  0  0  0  0  0  0  0  0
    2.2650   -4.8581   -1.6328 C   0  0  0  0  0  0  0  0  0  0  0  0
    1.2615   -4.9249   -0.9456 O   0  0  0  0  0  0  0  0  0  0  0  0
    2.9939   -5.9483   -2.1217 N   0  0  0  0  0  0  0  0  0  0  0  0
    2.6540   -7.3212   -1.9469 C   0  0  0  0  0  0  0  0  0  0  0  0
    1.3711   -7.6863   -1.4977 C   0  0  0  0  0  0  0  0  0  0  0  0
    0.9863   -9.0184   -1.3463 C   0  0  0  0  0  0  0  0  0  0  0  0
    1.8703  -10.0280   -1.6766 C   0  0  0  0  0  0  0  0  0  0  0  0
    3.1530   -9.7012   -2.1098 C   0  0  0  0  0  0  0  0  0  0  0  0
    3.5783   -8.3561   -2.2321 C   0  0  0  0  0  0  0  0  0  0  0  0
    5.0574   -8.1574   -2.5405 C   0  0  0  0  0  0  0  0  0  0  0  0
    5.9991   -8.0341   -1.3502 C   0  0  0  0  0  0  0  0  0  0  0  0
    5.5597   -8.0756   -0.0186 C   0  0  0  0  0  0  0  0  0  0  0  0
    6.4460   -7.8537    1.0392 C   0  0  0  0  0  0  0  0  0  0  0  0
    7.7946   -7.6199    0.7879 C   0  0  0  0  0  0  0  0  0  0  0  0
    8.2645   -7.6380   -0.5222 C   0  0  0  0  0  0  0  0  0  0  0  0
    7.3745   -7.8463   -1.5827 C   0  0  0  0  0  0  0  0  0  0  0  0
    1.0542   -2.1690   -0.2746 Cl  0  0  0  0  0  0  0  0  0  0  0  0
    7.1655   -0.4817   -4.8280 H   0  0  0  0  0  0  0  0  0  0  0  0
    6.3867   -0.1833   -3.2505 H   0  0  0  0  0  0  0  0  0  0  0  0
    5.4396   -0.0399   -4.7787 H   0  0  0  0  0  0  0  0  0  0  0  0
    2.4395   -0.1788   -1.6618 H   0  0  0  0  0  0  0  0  0  0  0  0
    3.8465   -5.7266   -2.6212 H   0  0  0  0  0  0  0  0  0  0  0  0
    0.6136   -6.9474   -1.2578 H   0  0  0  0  0  0  0  0  0  0  0  0
   -0.0080   -9.2506   -0.9751 H   0  0  0  0  0  0  0  0  0  0  0  0
    1.5714  -11.0687   -1.5796 H   0  0  0  0  0  0  0  0  0  0  0  0
    3.8428  -10.5140   -2.3319 H   0  0  0  0  0  0  0  0  0  0  0  0
    5.1856   -7.2846   -3.1897 H   0  0  0  0  0  0  0  0  0  0  0  0
    5.4001   -9.0183   -3.1340 H   0  0  0  0  0  0  0  0  0  0  0  0
    4.5158   -8.2624    0.2213 H   0  0  0  0  0  0  0  0  0  0  0  0
    6.0722   -7.8463    2.0598 H   0  0  0  0  0  0  0  0  0  0  0  0
    8.4745   -7.4198    1.6114 H   0  0  0  0  0  0  0  0  0  0  0  0
    9.3197   -7.4684   -0.7195 H   0  0  0  0  0  0  0  0  0  0  0  0
    7.7668   -7.8418   -2.5983 H   0  0  0  0  0  0  0  0  0  0  0  0
  1  2  1  0  0  0  0
  1 28  1  0  0  0  0
  1 29  1  0  0  0  0
  1 30  1  0  0  0  0
  2  3  2  0  0  0  0
  2  4  2  0  0  0  0
  2  5  1  0  0  0  0
  5  6  1  0  0  0  0
  5 10  2  0  0  0  0
  6  7  2  0  0  0  0
  7  8  1  0  0  0  0
  7 31  1  0  0  0  0
  8  9  2  0  0  0  0
  8 27  1  0  0  0  0
  9 10  1  0  0  0  0
  9 11  1  0  0  0  0
 11 12  2  0  0  0  0
 11 13  1  0  0  0  0
 13 14  1  0  0  0  0
 13 32  1  0  0  0  0
 14 15  1  0  0  0  0
 14 19  2  0  0  0  0
 15 16  2  0  0  0  0
 15 33  1  0  0  0  0
 16 17  1  0  0  0  0
 16 34  1  0  0  0  0
 17 18  2  0  0  0  0
 17 35  1  0  0  0  0
 18 19  1  0  0  0  0
 18 36  1  0  0  0  0
 19 20  1  0  0  0  0
 20 21  1  0  0  0  0
 20 37  1  0  0  0  0
 20 38  1  0  0  0  0
 21 22  1  0  0  0  0
 21 26  2  0  0  0  0
 22 23  2  0  0  0  0
 22 39  1  0  0  0  0
 23 24  1  0  0  0  0
 23 40  1  0  0  0  0
 24 25  2  0  0  0  0
 24 41  1  0  0  0  0
 25 26  1  0  0  0  0
 25 42  1  0  0  0  0
 26 43  1  0  0  0  0
M  END
$$$$
