
 OpenBabel07202414153D

 61 66  0  0  1  0  0  0  0  0999 V2000
    1.0772   -0.0038    0.0902 C   0  0  0  0  0  0  0  0  0  0  0  0
    2.6047   -0.0008    0.1480 C   0  0  2  0  0  0  0  0  0  0  0  0
    3.0866   -1.3874    0.5523 C   0  0  0  0  0  0  0  0  0  0  0  0
    4.1384   -1.2254    1.5123 N   0  0  0  0  0  0  0  0  0  0  0  0
    4.6064   -2.3708    2.2544 C   0  0  0  0  0  0  0  0  0  0  0  0
    4.7148   -2.3086    3.6495 C   0  0  0  0  0  0  0  0  0  0  0  0
    4.8832   -3.3814    4.4625 N   0  0  0  0  0  0  0  0  0  0  0  0
    5.0644   -4.5722    3.8617 C   0  0  0  0  0  0  0  0  0  0  0  0
    5.1624   -4.7480    2.4861 C   0  0  0  0  0  0  0  0  0  0  0  0
    5.5632   -5.9919    1.9599 C   0  0  0  0  0  0  0  0  0  0  0  0
    5.7326   -6.1654    0.5909 C   0  0  0  0  0  0  0  0  0  0  0  0
    5.4544   -5.1129   -0.2651 C   0  0  0  0  0  0  0  0  0  0  0  0
    5.0573   -3.8744    0.2534 C   0  0  0  0  0  0  0  0  0  0  0  0
    4.9042   -3.6354    1.6447 C   0  0  0  0  0  0  0  0  0  0  0  0
    4.2587    0.1062    1.9362 C   0  0  0  0  0  0  0  0  0  0  0  0
    5.0231    0.4883    2.8091 O   0  0  0  0  0  0  0  0  0  0  0  0
    3.3415    1.0273    1.0867 C   0  0  2  0  0  0  0  0  0  0  0  0
    2.3456    1.7915    2.0043 C   0  0  0  0  0  0  0  0  0  0  0  0
    2.7782    3.1503    2.4525 N   0  0  0  0  0  0  0  0  0  0  0  0
    3.8403    3.2424    3.7780 S   0  0  0  0  0  0  0  0  0  0  0  0
    3.4717    2.1716    4.6856 O   0  0  0  0  0  0  0  0  0  0  0  0
    5.1725    3.4094    3.2637 O   0  0  0  0  0  0  0  0  0  0  0  0
    3.3286    4.7724    4.5597 C   0  0  0  0  0  0  0  0  0  0  0  0
    4.2155    4.9560    5.7732 C   0  0  0  0  0  0  0  0  0  0  0  0
    5.6021    5.2625    5.5043 C   0  0  0  0  0  0  0  0  0  0  0  0
    6.7024    5.5820    5.3255 N   0  0  0  0  0  0  0  0  0  0  0  0
    3.6295    5.7300    6.9516 C   0  0  0  0  0  0  0  0  0  0  0  0
    3.8644    4.2562    7.0751 C   0  0  0  0  0  0  0  0  0  0  0  0
    3.0790    4.0218    1.2994 C   0  0  0  0  0  0  0  0  0  0  0  0
    4.0227    3.3925    0.3056 C   0  0  0  0  0  0  0  0  0  0  0  0
    4.7461    4.2383   -0.5565 C   0  0  0  0  0  0  0  0  0  0  0  0
    5.6395    3.7126   -1.4873 C   0  0  0  0  0  0  0  0  0  0  0  0
    5.8264    2.3386   -1.5538 C   0  0  0  0  0  0  0  0  0  0  0  0
    6.9069    1.6774   -2.7181 Cl  0  0  0  0  0  0  0  0  0  0  0  0
    5.1205    1.4858   -0.7044 C   0  0  0  0  0  0  0  0  0  0  0  0
    4.1794    1.9917    0.2175 C   0  0  0  0  0  0  0  0  0  0  0  0
    0.7312   -0.8229   -0.5523 H   0  0  0  0  0  0  0  0  0  0  0  0
    0.6975    0.9256   -0.3437 H   0  0  0  0  0  0  0  0  0  0  0  0
    0.6275   -0.1552    1.0767 H   0  0  0  0  0  0  0  0  0  0  0  0
    2.9150    0.1571   -0.8931 H   0  0  0  0  0  0  0  0  0  0  0  0
    3.4342   -1.8909   -0.3471 H   0  0  0  0  0  0  0  0  0  0  0  0
    2.2910   -1.9891    1.0059 H   0  0  0  0  0  0  0  0  0  0  0  0
    4.6145   -1.3767    4.1994 H   0  0  0  0  0  0  0  0  0  0  0  0
    5.1633   -5.4115    4.5469 H   0  0  0  0  0  0  0  0  0  0  0  0
    5.8051   -6.8205    2.6237 H   0  0  0  0  0  0  0  0  0  0  0  0
    6.1107   -7.1058    0.1981 H   0  0  0  0  0  0  0  0  0  0  0  0
    5.5871   -5.2325   -1.3377 H   0  0  0  0  0  0  0  0  0  0  0  0
    4.9541   -3.0723   -0.4668 H   0  0  0  0  0  0  0  0  0  0  0  0
    2.0190    1.1881    2.8576 H   0  0  0  0  0  0  0  0  0  0  0  0
    1.4241    2.0085    1.4476 H   0  0  0  0  0  0  0  0  0  0  0  0
    2.2760    4.6621    4.8379 H   0  0  0  0  0  0  0  0  0  0  0  0
    3.4449    5.5989    3.8557 H   0  0  0  0  0  0  0  0  0  0  0  0
    2.6071    6.0841    6.8922 H   0  0  0  0  0  0  0  0  0  0  0  0
    4.2827    6.3910    7.5174 H   0  0  0  0  0  0  0  0  0  0  0  0
    2.9986    3.6027    7.1024 H   0  0  0  0  0  0  0  0  0  0  0  0
    4.6749    3.9148    7.7141 H   0  0  0  0  0  0  0  0  0  0  0  0
    3.4729    4.9836    1.6466 H   0  0  0  0  0  0  0  0  0  0  0  0
    2.1367    4.2509    0.7843 H   0  0  0  0  0  0  0  0  0  0  0  0
    4.6267    5.3190   -0.4980 H   0  0  0  0  0  0  0  0  0  0  0  0
    6.1920    4.3783   -2.1448 H   0  0  0  0  0  0  0  0  0  0  0  0
    5.3039    0.4163   -0.7753 H   0  0  0  0  0  0  0  0  0  0  0  0
  1  2  1  0  0  0  0
  1 37  1  0  0  0  0
  1 38  1  0  0  0  0
  1 39  1  0  0  0  0
  2  3  1  0  0  0  0
  2 17  1  0  0  0  0
  2 40  1  6  0  0  0
  3  4  1  0  0  0  0
  3 41  1  0  0  0  0
  3 42  1  0  0  0  0
  4  5  1  0  0  0  0
  4 15  1  0  0  0  0
  5  6  1  0  0  0  0
  5 14  2  0  0  0  0
  6  7  2  0  0  0  0
  6 43  1  0  0  0  0
  7  8  1  0  0  0  0
  8  9  2  0  0  0  0
  8 44  1  0  0  0  0
  9 10  1  0  0  0  0
  9 14  1  0  0  0  0
 10 11  2  0  0  0  0
 10 45  1  0  0  0  0
 11 12  1  0  0  0  0
 11 46  1  0  0  0  0
 12 13  2  0  0  0  0
 12 47  1  0  0  0  0
 13 14  1  0  0  0  0
 13 48  1  0  0  0  0
 15 16  2  0  0  0  0
 17 15  1  1  0  0  0
 17 18  1  0  0  0  0
 17 36  1  0  0  0  0
 18 19  1  0  0  0  0
 18 49  1  0  0  0  0
 18 50  1  0  0  0  0
 19 20  1  0  0  0  0
 19 29  1  0  0  0  0
 20 21  2  0  0  0  0
 20 22  2  0  0  0  0
 20 23  1  0  0  0  0
 23 24  1  0  0  0  0
 23 51  1  0  0  0  0
 23 52  1  0  0  0  0
 24 25  1  0  0  0  0
 24 27  1  0  0  0  0
 24 28  1  0  0  0  0
 25 26  3  0  0  0  0
 27 28  1  0  0  0  0
 27 53  1  0  0  0  0
 27 54  1  0  0  0  0
 28 55  1  0  0  0  0
 28 56  1  0  0  0  0
 29 30  1  0  0  0  0
 29 57  1  0  0  0  0
 29 58  1  0  0  0  0
 30 31  1  0  0  0  0
 30 36  2  0  0  0  0
 31 32  2  0  0  0  0
 31 59  1  0  0  0  0
 32 33  1  0  0  0  0
 32 60  1  0  0  0  0
 33 34  1  0  0  0  0
 33 35  2  0  0  0  0
 35 36  1  0  0  0  0
 35 61  1  0  0  0  0
M  END
$$$$
