
 OpenBabel07202414173D

 39 42  0  0  1  0  0  0  0  0999 V2000
    8.7324    1.3331    1.2107 Cl  0  0  0  0  0  0  0  0  0  0  0  0
    8.3451   -0.2647    0.7013 C   0  0  0  0  0  0  0  0  0  0  0  0
    9.3021   -1.0257    0.0328 C   0  0  0  0  0  0  0  0  0  0  0  0
    8.9880   -2.3211   -0.3850 C   0  0  0  0  0  0  0  0  0  0  0  0
    7.7133   -2.8477   -0.1424 C   0  0  0  0  0  0  0  0  0  0  0  0
    6.7408   -2.0775    0.5204 C   0  0  0  0  0  0  0  0  0  0  0  0
    7.0733   -0.7832    0.9531 C   0  0  0  0  0  0  0  0  0  0  0  0
    5.3517   -2.6343    0.7674 C   0  0  3  0  0  0  0  0  0  0  0  0
    5.1626   -3.1120    2.2136 C   0  0  0  0  0  0  0  0  0  0  0  0
    4.7277   -2.3336    3.0598 O   0  0  0  0  0  0  0  0  0  0  0  0
    5.5522   -4.4169    2.4474 N   0  0  0  0  0  0  0  0  0  0  0  0
    5.5729   -5.1155    3.6827 C   0  0  0  0  0  0  0  0  0  0  0  0
    5.2330   -4.5169    4.8965 C   0  0  0  0  0  0  0  0  0  0  0  0
    5.3876   -5.0989    6.1087 N   0  0  0  0  0  0  0  0  0  0  0  0
    5.8632   -6.3596    6.1149 C   0  0  0  0  0  0  0  0  0  0  0  0
    6.1299   -7.1091    4.9711 C   0  0  0  0  0  0  0  0  0  0  0  0
    6.5113   -8.4600    5.0664 C   0  0  0  0  0  0  0  0  0  0  0  0
    6.7385   -9.2184    3.9215 C   0  0  0  0  0  0  0  0  0  0  0  0
    6.6165   -8.6268    2.6724 C   0  0  0  0  0  0  0  0  0  0  0  0
    6.2559   -7.2794    2.5678 C   0  0  0  0  0  0  0  0  0  0  0  0
    5.9894   -6.4801    3.7116 C   0  0  0  0  0  0  0  0  0  0  0  0
    5.0134   -3.7096   -0.2699 C   0  0  0  0  0  0  0  0  0  0  0  0
    6.0996   -4.6579   -0.4469 N   0  0  0  0  0  0  0  0  0  0  0  0
    7.4025   -4.2303   -0.5975 C   0  0  0  0  0  0  0  0  0  0  0  0
    8.2517   -4.9740   -1.0623 O   0  0  0  0  0  0  0  0  0  0  0  0
   10.2913   -0.6194   -0.1646 H   0  0  0  0  0  0  0  0  0  0  0  0
    9.7402   -2.9161   -0.9016 H   0  0  0  0  0  0  0  0  0  0  0  0
    6.3406   -0.1755    1.4833 H   0  0  0  0  0  0  0  0  0  0  0  0
    4.6179   -1.8257    0.6217 H   0  0  0  0  0  0  0  0  0  0  0  0
    5.9563   -4.9067    1.6575 H   0  0  0  0  0  0  0  0  0  0  0  0
    4.8244   -3.5145    4.9603 H   0  0  0  0  0  0  0  0  0  0  0  0
    6.0181   -6.7722    7.1089 H   0  0  0  0  0  0  0  0  0  0  0  0
    6.6076   -8.9381    6.0394 H   0  0  0  0  0  0  0  0  0  0  0  0
    7.0024  -10.2695    4.0053 H   0  0  0  0  0  0  0  0  0  0  0  0
    6.7928   -9.2129    1.7734 H   0  0  0  0  0  0  0  0  0  0  0  0
    6.1595   -6.8811    1.5628 H   0  0  0  0  0  0  0  0  0  0  0  0
    4.8394   -3.2487   -1.2495 H   0  0  0  0  0  0  0  0  0  0  0  0
    4.1174   -4.2759    0.0053 H   0  0  0  0  0  0  0  0  0  0  0  0
    5.9185   -5.5289   -0.9375 H   0  0  0  0  0  0  0  0  0  0  0  0
  1  2  1  0  0  0  0
  2  3  1  0  0  0  0
  2  7  2  0  0  0  0
  3  4  2  0  0  0  0
  3 26  1  0  0  0  0
  4  5  1  0  0  0  0
  4 27  1  0  0  0  0
  5  6  2  0  0  0  0
  5 24  1  0  0  0  0
  6  7  1  0  0  0  0
  6  8  1  0  0  0  0
  7 28  1  0  0  0  0
  8  9  1  0  0  0  0
  8 22  1  0  0  0  0
  8 29  1  0  0  0  0
  9 10  2  0  0  0  0
  9 11  1  0  0  0  0
 11 12  1  0  0  0  0
 11 30  1  0  0  0  0
 12 13  1  0  0  0  0
 12 21  2  0  0  0  0
 13 14  2  0  0  0  0
 13 31  1  0  0  0  0
 14 15  1  0  0  0  0
 15 16  2  0  0  0  0
 15 32  1  0  0  0  0
 16 17  1  0  0  0  0
 16 21  1  0  0  0  0
 17 18  2  0  0  0  0
 17 33  1  0  0  0  0
 18 19  1  0  0  0  0
 18 34  1  0  0  0  0
 19 20  2  0  0  0  0
 19 35  1  0  0  0  0
 20 21  1  0  0  0  0
 20 36  1  0  0  0  0
 22 23  1  0  0  0  0
 22 37  1  0  0  0  0
 22 38  1  0  0  0  0
 23 24  1  0  0  0  0
 23 39  1  0  0  0  0
 24 25  2  0  0  0  0
M  END
$$$$
