
 OpenBabel07202414143D

 45 48  0  0  1  0  0  0  0  0999 V2000
    1.2286   -0.0450    0.5219 C   0  0  0  0  0  0  0  0  0  0  0  0
    2.4564   -0.2879   -0.1421 O   0  0  0  0  0  0  0  0  0  0  0  0
    2.8503    0.6417   -1.1743 C   0  0  3  0  0  0  0  0  0  0  0  0
    4.2360    0.0756   -1.6229 C   0  0  0  0  0  0  0  0  0  0  0  0
    5.3004   -0.0148   -0.7012 C   0  0  0  0  0  0  0  0  0  0  0  0
    6.5708   -0.4745   -1.0775 C   0  0  0  0  0  0  0  0  0  0  0  0
    6.8079   -0.8746   -2.3877 C   0  0  0  0  0  0  0  0  0  0  0  0
    5.7636   -0.8441   -3.3047 C   0  0  0  0  0  0  0  0  0  0  0  0
    6.0306   -1.3518   -4.9255 Cl  0  0  0  0  0  0  0  0  0  0  0  0
    4.4960   -0.3947   -2.9250 C   0  0  0  0  0  0  0  0  0  0  0  0
    1.8313    0.6125   -2.3400 C   0  0  0  0  0  0  0  0  0  0  0  0
    0.6805    1.5930   -2.2017 C   0  0  0  0  0  0  0  0  0  0  0  0
    1.2456    2.9941   -2.1324 C   0  0  0  0  0  0  0  0  0  0  0  0
    2.2753    3.1427   -1.1092 N   0  0  0  0  0  0  0  0  0  0  0  0
    2.5639    4.4837   -0.6990 C   0  0  0  0  0  0  0  0  0  0  0  0
    1.5635    5.2211   -0.0656 C   0  0  0  0  0  0  0  0  0  0  0  0
    1.7183    6.4730    0.4155 N   0  0  0  0  0  0  0  0  0  0  0  0
    2.9488    7.0106    0.2696 C   0  0  0  0  0  0  0  0  0  0  0  0
    4.0284    6.3897   -0.3635 C   0  0  0  0  0  0  0  0  0  0  0  0
    5.2708    7.0352   -0.4993 C   0  0  0  0  0  0  0  0  0  0  0  0
    6.3281    6.4181   -1.1644 C   0  0  0  0  0  0  0  0  0  0  0  0
    6.1545    5.1522   -1.7077 C   0  0  0  0  0  0  0  0  0  0  0  0
    4.9275    4.4979   -1.5711 C   0  0  0  0  0  0  0  0  0  0  0  0
    3.8374    5.0872   -0.8810 C   0  0  0  0  0  0  0  0  0  0  0  0
    3.0467    2.0983   -0.5858 C   0  0  0  0  0  0  0  0  0  0  0  0
    3.8019    2.2955    0.3728 O   0  0  0  0  0  0  0  0  0  0  0  0
    1.1911   -0.6701    1.4193 H   0  0  0  0  0  0  0  0  0  0  0  0
    0.3952   -0.3529   -0.1151 H   0  0  0  0  0  0  0  0  0  0  0  0
    1.1171    0.9980    0.8316 H   0  0  0  0  0  0  0  0  0  0  0  0
    5.1515    0.2741    0.3410 H   0  0  0  0  0  0  0  0  0  0  0  0
    7.3709   -0.5152   -0.3431 H   0  0  0  0  0  0  0  0  0  0  0  0
    7.7937   -1.2198   -2.6839 H   0  0  0  0  0  0  0  0  0  0  0  0
    3.7210   -0.4383   -3.6836 H   0  0  0  0  0  0  0  0  0  0  0  0
    1.4379   -0.4017   -2.4784 H   0  0  0  0  0  0  0  0  0  0  0  0
    2.3154    0.9091   -3.2781 H   0  0  0  0  0  0  0  0  0  0  0  0
    0.0605    1.3886   -1.3280 H   0  0  0  0  0  0  0  0  0  0  0  0
    0.0242    1.5081   -3.0769 H   0  0  0  0  0  0  0  0  0  0  0  0
    0.4211    3.6917   -1.9485 H   0  0  0  0  0  0  0  0  0  0  0  0
    1.6992    3.2699   -3.0926 H   0  0  0  0  0  0  0  0  0  0  0  0
    0.5809    4.7934    0.1190 H   0  0  0  0  0  0  0  0  0  0  0  0
    3.0478    8.0090    0.6907 H   0  0  0  0  0  0  0  0  0  0  0  0
    5.4212    8.0316   -0.0867 H   0  0  0  0  0  0  0  0  0  0  0  0
    7.2853    6.9262   -1.2600 H   0  0  0  0  0  0  0  0  0  0  0  0
    6.9719    4.6645   -2.2304 H   0  0  0  0  0  0  0  0  0  0  0  0
    4.8332    3.5083   -2.0113 H   0  0  0  0  0  0  0  0  0  0  0  0
  1  2  1  0  0  0  0
  1 27  1  0  0  0  0
  1 28  1  0  0  0  0
  1 29  1  0  0  0  0
  2  3  1  0  0  0  0
  3  4  1  0  0  0  0
  3 11  1  0  0  0  0
  3 25  1  0  0  0  0
  4  5  1  0  0  0  0
  4 10  2  0  0  0  0
  5  6  2  0  0  0  0
  5 30  1  0  0  0  0
  6  7  1  0  0  0  0
  6 31  1  0  0  0  0
  7  8  2  0  0  0  0
  7 32  1  0  0  0  0
  8  9  1  0  0  0  0
  8 10  1  0  0  0  0
 10 33  1  0  0  0  0
 11 12  1  0  0  0  0
 11 34  1  0  0  0  0
 11 35  1  0  0  0  0
 12 13  1  0  0  0  0
 12 36  1  0  0  0  0
 12 37  1  0  0  0  0
 13 14  1  0  0  0  0
 13 38  1  0  0  0  0
 13 39  1  0  0  0  0
 14 15  1  0  0  0  0
 14 25  1  0  0  0  0
 15 16  1  0  0  0  0
 15 24  2  0  0  0  0
 16 17  2  0  0  0  0
 16 40  1  0  0  0  0
 17 18  1  0  0  0  0
 18 19  2  0  0  0  0
 18 41  1  0  0  0  0
 19 20  1  0  0  0  0
 19 24  1  0  0  0  0
 20 21  2  0  0  0  0
 20 42  1  0  0  0  0
 21 22  1  0  0  0  0
 21 43  1  0  0  0  0
 22 23  2  0  0  0  0
 22 44  1  0  0  0  0
 23 24  1  0  0  0  0
 23 45  1  0  0  0  0
 25 26  2  0  0  0  0
M  END
$$$$
