
 OpenBabel07202414183D

 40 42  0  0  1  0  0  0  0  0999 V2000
    3.1736    0.9820   -1.2558 F   0  0  0  0  0  0  0  0  0  0  0  0
    2.5100    0.6568   -2.3953 C   0  0  0  0  0  0  0  0  0  0  0  0
    2.8998    1.5511   -3.3367 F   0  0  0  0  0  0  0  0  0  0  0  0
    1.0140    0.7812   -2.1617 C   0  0  0  0  0  0  0  0  0  0  0  0
    0.5083   -0.2860   -1.1949 C   0  0  0  0  0  0  0  0  0  0  0  0
    0.9054   -1.6863   -1.6561 C   0  0  0  0  0  0  0  0  0  0  0  0
    2.4289   -1.8041   -1.8404 C   0  0  1  0  0  0  0  0  0  0  0  0
    2.8540   -3.2230   -2.2471 C   0  0  0  0  0  0  0  0  0  0  0  0
    2.2331   -3.6568   -3.5586 C   0  0  0  0  0  0  0  0  0  0  0  0
    1.1062   -4.1468   -3.5994 O   0  0  0  0  0  0  0  0  0  0  0  0
    3.0246   -3.4109   -4.6639 N   0  0  0  0  0  0  0  0  0  0  0  0
    2.5521   -3.7026   -5.9644 C   0  0  0  0  0  0  0  0  0  0  0  0
    1.3532   -3.1499   -6.4159 C   0  0  0  0  0  0  0  0  0  0  0  0
    0.8547   -3.3221   -7.6595 N   0  0  0  0  0  0  0  0  0  0  0  0
    1.5755   -4.1147   -8.4816 C   0  0  0  0  0  0  0  0  0  0  0  0
    2.7749   -4.7445   -8.1373 C   0  0  0  0  0  0  0  0  0  0  0  0
    3.4506   -5.5883   -9.0344 C   0  0  0  0  0  0  0  0  0  0  0  0
    4.6195   -6.2428   -8.6541 C   0  0  0  0  0  0  0  0  0  0  0  0
    5.1261   -6.0654   -7.3711 C   0  0  0  0  0  0  0  0  0  0  0  0
    4.4711   -5.2206   -6.4736 C   0  0  0  0  0  0  0  0  0  0  0  0
    3.2898   -4.5308   -6.8383 C   0  0  0  0  0  0  0  0  0  0  0  0
    2.9268   -0.7362   -2.8314 C   0  0  0  0  0  0  0  0  0  0  0  0
    0.4848    0.6998   -3.1193 H   0  0  0  0  0  0  0  0  0  0  0  0
    0.7864    1.7741   -1.7591 H   0  0  0  0  0  0  0  0  0  0  0  0
   -0.5839   -0.2224   -1.1157 H   0  0  0  0  0  0  0  0  0  0  0  0
    0.9148   -0.1017   -0.1953 H   0  0  0  0  0  0  0  0  0  0  0  0
    0.3899   -1.8961   -2.6006 H   0  0  0  0  0  0  0  0  0  0  0  0
    0.5547   -2.4263   -0.9272 H   0  0  0  0  0  0  0  0  0  0  0  0
    2.8995   -1.6044   -0.8671 H   0  0  0  0  0  0  0  0  0  0  0  0
    2.5501   -3.9468   -1.4796 H   0  0  0  0  0  0  0  0  0  0  0  0
    3.9449   -3.2874   -2.3122 H   0  0  0  0  0  0  0  0  0  0  0  0
    4.0253   -3.4307   -4.5193 H   0  0  0  0  0  0  0  0  0  0  0  0
    0.7592   -2.4948   -5.7821 H   0  0  0  0  0  0  0  0  0  0  0  0
    1.1342   -4.2512   -9.4659 H   0  0  0  0  0  0  0  0  0  0  0  0
    3.0564   -5.7549  -10.0342 H   0  0  0  0  0  0  0  0  0  0  0  0
    5.1284   -6.9011   -9.3529 H   0  0  0  0  0  0  0  0  0  0  0  0
    6.0228   -6.5959   -7.0613 H   0  0  0  0  0  0  0  0  0  0  0  0
    4.8750   -5.1440   -5.4683 H   0  0  0  0  0  0  0  0  0  0  0  0
    2.5294   -0.9196   -3.8337 H   0  0  0  0  0  0  0  0  0  0  0  0
    4.0195   -0.7868   -2.9069 H   0  0  0  0  0  0  0  0  0  0  0  0
  1  2  1  0  0  0  0
  2  3  1  0  0  0  0
  2  4  1  0  0  0  0
  2 22  1  0  0  0  0
  4  5  1  0  0  0  0
  4 23  1  0  0  0  0
  4 24  1  0  0  0  0
  5  6  1  0  0  0  0
  5 25  1  0  0  0  0
  5 26  1  0  0  0  0
  6  7  1  0  0  0  0
  6 27  1  0  0  0  0
  6 28  1  0  0  0  0
  7  8  1  0  0  0  0
  7 22  1  0  0  0  0
  7 29  1  1  0  0  0
  8  9  1  0  0  0  0
  8 30  1  0  0  0  0
  8 31  1  0  0  0  0
  9 10  2  0  0  0  0
  9 11  1  0  0  0  0
 11 12  1  0  0  0  0
 11 32  1  0  0  0  0
 12 13  1  0  0  0  0
 12 21  2  0  0  0  0
 13 14  2  0  0  0  0
 13 33  1  0  0  0  0
 14 15  1  0  0  0  0
 15 16  2  0  0  0  0
 15 34  1  0  0  0  0
 16 17  1  0  0  0  0
 16 21  1  0  0  0  0
 17 18  2  0  0  0  0
 17 35  1  0  0  0  0
 18 19  1  0  0  0  0
 18 36  1  0  0  0  0
 19 20  2  0  0  0  0
 19 37  1  0  0  0  0
 20 21  1  0  0  0  0
 20 38  1  0  0  0  0
 22 39  1  0  0  0  0
 22 40  1  0  0  0  0
M  END
$$$$
