
 OpenBabel07202414143D

 50 53  0  0  1  0  0  0  0  0999 V2000
    4.0345   -2.7298    0.7533 C   0  0  0  0  0  0  0  0  0  0  0  0
    3.8368   -1.3251    0.4305 N   0  0  0  0  0  0  0  0  0  0  0  0
    4.4360   -0.4502    1.4456 C   0  0  0  0  0  0  0  0  0  0  0  0
    4.2612    1.0215    1.0359 C   0  0  0  0  0  0  0  0  0  0  0  0
    4.9194    2.0192    1.8929 N   0  0  0  0  0  0  0  0  0  0  0  0
    6.3573    1.9202    2.1443 C   0  0  0  0  0  0  0  0  0  0  0  0
    7.1474    3.0444    1.4807 C   0  0  1  0  0  0  0  0  0  0  0  0
    7.2249    2.8008   -0.0364 C   0  0  0  0  0  0  0  0  0  0  0  0
    8.1342    2.1255   -0.5063 O   0  0  0  0  0  0  0  0  0  0  0  0
    6.1709    3.3308   -0.7540 N   0  0  0  0  0  0  0  0  0  0  0  0
    5.8165    3.1339   -2.1075 C   0  0  0  0  0  0  0  0  0  0  0  0
    6.5028    2.2731   -2.9612 C   0  0  0  0  0  0  0  0  0  0  0  0
    6.0775    1.9403   -4.2024 N   0  0  0  0  0  0  0  0  0  0  0  0
    4.9499    2.5424   -4.6357 C   0  0  0  0  0  0  0  0  0  0  0  0
    4.2460    3.5170   -3.9275 C   0  0  0  0  0  0  0  0  0  0  0  0
    3.1570    4.2006   -4.5064 C   0  0  0  0  0  0  0  0  0  0  0  0
    2.4835    5.1973   -3.8038 C   0  0  0  0  0  0  0  0  0  0  0  0
    2.8498    5.4817   -2.4980 C   0  0  0  0  0  0  0  0  0  0  0  0
    3.9168    4.7965   -1.9093 C   0  0  0  0  0  0  0  0  0  0  0  0
    4.6688    3.8157   -2.6167 C   0  0  0  0  0  0  0  0  0  0  0  0
    6.5304    4.3750    1.8688 C   0  0  0  0  0  0  0  0  0  0  0  0
    7.3006    5.5468    1.8102 C   0  0  0  0  0  0  0  0  0  0  0  0
    6.6991    6.7863    2.0216 C   0  0  0  0  0  0  0  0  0  0  0  0
    7.6428    8.2188    1.9074 Cl  0  0  0  0  0  0  0  0  0  0  0  0
    5.3342    6.8740    2.2903 C   0  0  0  0  0  0  0  0  0  0  0  0
    4.5625    5.7115    2.3702 C   0  0  0  0  0  0  0  0  0  0  0  0
    5.1551    4.4576    2.1744 C   0  0  0  0  0  0  0  0  0  0  0  0
    4.2768    3.2469    2.0699 C   0  0  0  0  0  0  0  0  0  0  0  0
    3.0624    3.3976    2.0006 O   0  0  0  0  0  0  0  0  0  0  0  0
    3.5817   -3.3496   -0.0269 H   0  0  0  0  0  0  0  0  0  0  0  0
    3.5669   -2.9904    1.7076 H   0  0  0  0  0  0  0  0  0  0  0  0
    5.0995   -2.9805    0.7933 H   0  0  0  0  0  0  0  0  0  0  0  0
    2.8387   -1.1294    0.3497 H   0  0  0  0  0  0  0  0  0  0  0  0
    5.4983   -0.6960    1.5343 H   0  0  0  0  0  0  0  0  0  0  0  0
    3.9725   -0.6152    2.4247 H   0  0  0  0  0  0  0  0  0  0  0  0
    3.1906    1.2484    0.9702 H   0  0  0  0  0  0  0  0  0  0  0  0
    4.6655    1.1673    0.0277 H   0  0  0  0  0  0  0  0  0  0  0  0
    6.7405    0.9412    1.8492 H   0  0  0  0  0  0  0  0  0  0  0  0
    6.4735    1.9965    3.2346 H   0  0  0  0  0  0  0  0  0  0  0  0
    8.1765    3.0164    1.8625 H   0  0  0  0  0  0  0  0  0  0  0  0
    5.4776    3.8304   -0.2227 H   0  0  0  0  0  0  0  0  0  0  0  0
    7.4282    1.7877   -2.6750 H   0  0  0  0  0  0  0  0  0  0  0  0
    4.6192    2.2132   -5.6176 H   0  0  0  0  0  0  0  0  0  0  0  0
    2.8520    3.9844   -5.5277 H   0  0  0  0  0  0  0  0  0  0  0  0
    1.6798    5.7557   -4.2778 H   0  0  0  0  0  0  0  0  0  0  0  0
    2.3251    6.2514   -1.9365 H   0  0  0  0  0  0  0  0  0  0  0  0
    4.1609    5.0824   -0.8920 H   0  0  0  0  0  0  0  0  0  0  0  0
    8.3603    5.4960    1.5649 H   0  0  0  0  0  0  0  0  0  0  0  0
    4.8603    7.8446    2.4168 H   0  0  0  0  0  0  0  0  0  0  0  0
    3.4898    5.7915    2.5420 H   0  0  0  0  0  0  0  0  0  0  0  0
  1  2  1  0  0  0  0
  1 30  1  0  0  0  0
  1 31  1  0  0  0  0
  1 32  1  0  0  0  0
  2  3  1  0  0  0  0
  2 33  1  0  0  0  0
  3  4  1  0  0  0  0
  3 34  1  0  0  0  0
  3 35  1  0  0  0  0
  4  5  1  0  0  0  0
  4 36  1  0  0  0  0
  4 37  1  0  0  0  0
  5  6  1  0  0  0  0
  5 28  1  0  0  0  0
  6  7  1  0  0  0  0
  6 38  1  0  0  0  0
  6 39  1  0  0  0  0
  7  8  1  0  0  0  0
  7 21  1  0  0  0  0
  7 40  1  1  0  0  0
  8  9  2  0  0  0  0
  8 10  1  0  0  0  0
 10 11  1  0  0  0  0
 10 41  1  0  0  0  0
 11 12  1  0  0  0  0
 11 20  2  0  0  0  0
 12 13  2  0  0  0  0
 12 42  1  0  0  0  0
 13 14  1  0  0  0  0
 14 15  2  0  0  0  0
 14 43  1  0  0  0  0
 15 16  1  0  0  0  0
 15 20  1  0  0  0  0
 16 17  2  0  0  0  0
 16 44  1  0  0  0  0
 17 18  1  0  0  0  0
 17 45  1  0  0  0  0
 18 19  2  0  0  0  0
 18 46  1  0  0  0  0
 19 20  1  0  0  0  0
 19 47  1  0  0  0  0
 21 22  1  0  0  0  0
 21 27  2  0  0  0  0
 22 23  2  0  0  0  0
 22 48  1  0  0  0  0
 23 24  1  0  0  0  0
 23 25  1  0  0  0  0
 25 26  2  0  0  0  0
 25 49  1  0  0  0  0
 26 27  1  0  0  0  0
 26 50  1  0  0  0  0
 27 28  1  0  0  0  0
 28 29  2  0  0  0  0
M  END
$$$$
