
 OpenBabel07202414163D

 46 49  0  0  1  0  0  0  0  0999 V2000
   -2.5078   -2.3293    0.6814 C   0  0  0  0  0  0  0  0  0  0  0  0
   -2.0746   -1.0979    1.4173 C   0  0  0  0  0  0  0  0  0  0  0  0
   -1.2446   -1.1845    2.5274 C   0  0  0  0  0  0  0  0  0  0  0  0
   -0.8518   -0.0083    3.1516 C   0  0  0  0  0  0  0  0  0  0  0  0
   -1.3029    1.2111    2.6523 C   0  0  0  0  0  0  0  0  0  0  0  0
   -2.1608    1.2186    1.5561 C   0  0  0  0  0  0  0  0  0  0  0  0
   -2.5320    0.0848    0.9387 N   0  0  0  0  0  0  0  0  0  0  0  0
   -2.6180    2.4643    1.1095 N   0  0  0  0  0  0  0  0  0  0  0  0
   -3.5667    2.6757    0.1123 C   0  0  0  0  0  0  0  0  0  0  0  0
   -4.2040    1.8098   -0.4814 O   0  0  0  0  0  0  0  0  0  0  0  0
   -3.6725    4.1954   -0.2670 C   0  0  1  0  0  0  0  0  0  0  0  0
   -2.3845    4.6131   -1.0066 C   0  0  0  0  0  0  0  0  0  0  0  0
   -1.7629    3.7572   -1.9339 C   0  0  0  0  0  0  0  0  0  0  0  0
   -0.4994    4.0582   -2.4417 C   0  0  0  0  0  0  0  0  0  0  0  0
    0.1370    5.2398   -2.0724 C   0  0  0  0  0  0  0  0  0  0  0  0
   -0.5169    6.1516   -1.2470 C   0  0  0  0  0  0  0  0  0  0  0  0
   -1.7740    5.8453   -0.7223 C   0  0  0  0  0  0  0  0  0  0  0  0
   -4.9080    4.6136   -0.9567 N   0  0  0  0  0  0  0  0  0  0  0  0
   -5.2535    4.0147   -2.2302 C   0  0  0  0  0  0  0  0  0  0  0  0
   -4.8795    5.0915   -3.1826 C   0  0  0  0  0  0  0  0  0  0  0  0
   -4.3573    4.9988   -4.4563 C   0  0  0  0  0  0  0  0  0  0  0  0
   -3.8711    6.1686   -5.0434 C   0  0  0  0  0  0  0  0  0  0  0  0
   -3.9645    7.4091   -4.3797 C   0  0  0  0  0  0  0  0  0  0  0  0
   -4.4988    7.4940   -3.0931 C   0  0  0  0  0  0  0  0  0  0  0  0
   -4.9208    6.3171   -2.5176 C   0  0  0  0  0  0  0  0  0  0  0  0
   -5.0348    6.0170   -1.0702 C   0  0  0  0  0  0  0  0  0  0  0  0
   -4.9656    6.8473   -0.1896 O   0  0  0  0  0  0  0  0  0  0  0  0
   -2.1080   -3.2388    1.1413 H   0  0  0  0  0  0  0  0  0  0  0  0
   -2.1532   -2.2876   -0.3532 H   0  0  0  0  0  0  0  0  0  0  0  0
   -3.5998   -2.3981    0.6817 H   0  0  0  0  0  0  0  0  0  0  0  0
   -0.9070   -2.1450    2.9021 H   0  0  0  0  0  0  0  0  0  0  0  0
   -0.2041   -0.0408    4.0232 H   0  0  0  0  0  0  0  0  0  0  0  0
   -0.9967    2.1306    3.1387 H   0  0  0  0  0  0  0  0  0  0  0  0
   -2.1980    3.2772    1.5376 H   0  0  0  0  0  0  0  0  0  0  0  0
   -3.6800    4.7282    0.6941 H   0  0  0  0  0  0  0  0  0  0  0  0
   -2.2350    2.8236   -2.2371 H   0  0  0  0  0  0  0  0  0  0  0  0
   -0.0029    3.3553   -3.1059 H   0  0  0  0  0  0  0  0  0  0  0  0
    1.1401    5.4516   -2.4327 H   0  0  0  0  0  0  0  0  0  0  0  0
   -0.0381    7.0943   -0.9940 H   0  0  0  0  0  0  0  0  0  0  0  0
   -2.2659    6.5717   -0.0763 H   0  0  0  0  0  0  0  0  0  0  0  0
   -6.3422    3.8823   -2.2492 H   0  0  0  0  0  0  0  0  0  0  0  0
   -4.7661    3.0590   -2.4195 H   0  0  0  0  0  0  0  0  0  0  0  0
   -4.2303    4.0350   -4.9394 H   0  0  0  0  0  0  0  0  0  0  0  0
   -3.3653    6.1126   -6.0040 H   0  0  0  0  0  0  0  0  0  0  0  0
   -3.5458    8.2986   -4.8488 H   0  0  0  0  0  0  0  0  0  0  0  0
   -4.4810    8.4204   -2.5305 H   0  0  0  0  0  0  0  0  0  0  0  0
  1  2  1  0  0  0  0
  1 28  1  0  0  0  0
  1 29  1  0  0  0  0
  1 30  1  0  0  0  0
  2  3  1  0  0  0  0
  2  7  2  0  0  0  0
  3  4  2  0  0  0  0
  3 31  1  0  0  0  0
  4  5  1  0  0  0  0
  4 32  1  0  0  0  0
  5  6  2  0  0  0  0
  5 33  1  0  0  0  0
  6  7  1  0  0  0  0
  6  8  1  0  0  0  0
  8  9  1  0  0  0  0
  8 34  1  0  0  0  0
  9 10  2  0  0  0  0
  9 11  1  0  0  0  0
 11 12  1  0  0  0  0
 11 18  1  0  0  0  0
 11 35  1  1  0  0  0
 12 13  1  0  0  0  0
 12 17  2  0  0  0  0
 13 14  2  0  0  0  0
 13 36  1  0  0  0  0
 14 15  1  0  0  0  0
 14 37  1  0  0  0  0
 15 16  2  0  0  0  0
 15 38  1  0  0  0  0
 16 17  1  0  0  0  0
 16 39  1  0  0  0  0
 17 40  1  0  0  0  0
 18 19  1  0  0  0  0
 18 26  1  0  0  0  0
 19 20  1  0  0  0  0
 19 41  1  0  0  0  0
 19 42  1  0  0  0  0
 20 21  1  0  0  0  0
 20 25  2  0  0  0  0
 21 22  2  0  0  0  0
 21 43  1  0  0  0  0
 22 23  1  0  0  0  0
 22 44  1  0  0  0  0
 23 24  2  0  0  0  0
 23 45  1  0  0  0  0
 24 25  1  0  0  0  0
 24 46  1  0  0  0  0
 25 26  1  0  0  0  0
 26 27  2  0  0  0  0
M  END
$$$$
