
 OpenBabel07202414183D

 28 30  0  0  0  0  0  0  0  0999 V2000
    3.5603   -2.4630   -1.6625 Cl  0  0  0  0  0  0  0  0  0  0  0  0
    1.9297   -2.1375   -2.0903 C   0  0  0  0  0  0  0  0  0  0  0  0
    1.6201   -1.1523   -3.0186 C   0  0  0  0  0  0  0  0  0  0  0  0
    0.3566   -0.8565   -3.4160 N   0  0  0  0  0  0  0  0  0  0  0  0
   -0.6356   -1.5867   -2.8537 C   0  0  0  0  0  0  0  0  0  0  0  0
   -0.4149   -2.5843   -1.9135 C   0  0  0  0  0  0  0  0  0  0  0  0
   -1.5108   -3.3582   -1.5068 O   0  0  0  0  0  0  0  0  0  0  0  0
   -1.5640   -3.7625   -0.1824 C   0  0  0  0  0  0  0  0  0  0  0  0
   -0.9340   -3.2951    0.7492 O   0  0  0  0  0  0  0  0  0  0  0  0
   -2.4314   -4.9588   -0.1129 C   0  0  0  0  0  0  0  0  0  0  0  0
   -3.5822   -5.0789   -0.9137 C   0  0  0  0  0  0  0  0  0  0  0  0
   -4.3410   -6.2484   -0.8942 C   0  0  0  0  0  0  0  0  0  0  0  0
   -3.9775   -7.3284   -0.0850 C   0  0  0  0  0  0  0  0  0  0  0  0
   -2.8392   -7.1887    0.7189 C   0  0  0  0  0  0  0  0  0  0  0  0
   -2.2584   -8.0840    1.5898 N   0  0  0  0  0  0  0  0  0  0  0  0
   -1.1449   -7.5329    2.1629 C   0  0  0  0  0  0  0  0  0  0  0  0
   -1.0013   -6.2604    1.6619 C   0  0  0  0  0  0  0  0  0  0  0  0
   -2.0630   -6.0264    0.7377 C   0  0  0  0  0  0  0  0  0  0  0  0
    0.8932   -2.8751   -1.5312 C   0  0  0  0  0  0  0  0  0  0  0  0
    2.3996   -0.5621   -3.4920 H   0  0  0  0  0  0  0  0  0  0  0  0
   -1.6369   -1.3524   -3.2020 H   0  0  0  0  0  0  0  0  0  0  0  0
   -3.8901   -4.2623   -1.5628 H   0  0  0  0  0  0  0  0  0  0  0  0
   -5.2226   -6.3293   -1.5275 H   0  0  0  0  0  0  0  0  0  0  0  0
   -4.5609   -8.2441   -0.0869 H   0  0  0  0  0  0  0  0  0  0  0  0
   -2.6032   -9.0172    1.7687 H   0  0  0  0  0  0  0  0  0  0  0  0
   -0.5509   -8.0895    2.8753 H   0  0  0  0  0  0  0  0  0  0  0  0
   -0.2130   -5.5660    1.9278 H   0  0  0  0  0  0  0  0  0  0  0  0
    1.1080   -3.6672   -0.8212 H   0  0  0  0  0  0  0  0  0  0  0  0
  1  2  1  0  0  0  0
  2  3  1  0  0  0  0
  2 19  2  0  0  0  0
  3  4  2  0  0  0  0
  3 20  1  0  0  0  0
  4  5  1  0  0  0  0
  5  6  2  0  0  0  0
  5 21  1  0  0  0  0
  6  7  1  0  0  0  0
  6 19  1  0  0  0  0
  7  8  1  0  0  0  0
  8  9  2  0  0  0  0
  8 10  1  0  0  0  0
 10 11  1  0  0  0  0
 10 18  2  0  0  0  0
 11 12  2  0  0  0  0
 11 22  1  0  0  0  0
 12 13  1  0  0  0  0
 12 23  1  0  0  0  0
 13 14  2  0  0  0  0
 13 24  1  0  0  0  0
 14 15  1  0  0  0  0
 14 18  1  0  0  0  0
 15 16  1  0  0  0  0
 15 25  1  0  0  0  0
 16 17  2  0  0  0  0
 16 26  1  0  0  0  0
 17 18  1  0  0  0  0
 17 27  1  0  0  0  0
 19 28  1  0  0  0  0
M  END
$$$$
