
 OpenBabel07202414153D

 48 51  0  0  0  0  0  0  0  0999 V2000
    2.6237    0.4657    2.8112 C   0  0  0  0  0  0  0  0  0  0  0  0
    3.8817    0.7351    2.1915 O   0  0  0  0  0  0  0  0  0  0  0  0
    3.8494    1.4769    1.0409 C   0  0  0  0  0  0  0  0  0  0  0  0
    2.6956    1.9753    0.4370 C   0  0  0  0  0  0  0  0  0  0  0  0
    2.7988    2.7380   -0.7218 C   0  0  0  0  0  0  0  0  0  0  0  0
    4.0487    2.9874   -1.2820 C   0  0  0  0  0  0  0  0  0  0  0  0
    5.2328    2.4806   -0.7184 C   0  0  0  0  0  0  0  0  0  0  0  0
    6.4422    2.7726   -1.3393 N   0  0  0  0  0  0  0  0  0  0  0  0
    7.7370    2.7360   -0.6275 C   0  0  0  0  0  0  0  0  0  0  0  0
    8.7843    3.6362   -1.3732 C   0  0  0  0  0  0  0  0  0  0  0  0
    8.8118    3.3566   -2.8193 N   0  0  0  0  0  0  0  0  0  0  0  0
    9.9039    2.9276   -3.5596 C   0  0  0  0  0  0  0  0  0  0  0  0
    9.8206    2.3128   -4.6084 O   0  0  0  0  0  0  0  0  0  0  0  0
   11.2263    3.4604   -3.1201 C   0  0  0  0  0  0  0  0  0  0  0  0
   11.7246    4.3709   -3.9724 C   0  0  0  0  0  0  0  0  0  0  0  0
   12.8803    5.1490   -3.5616 C   0  0  0  0  0  0  0  0  0  0  0  0
   13.0664    6.2697   -3.9738 O   0  0  0  0  0  0  0  0  0  0  0  0
   13.7646    4.5249   -2.7426 N   0  0  0  0  0  0  0  0  0  0  0  0
   13.5849    3.1775   -2.4091 C   0  0  0  0  0  0  0  0  0  0  0  0
   14.6803    2.3834   -2.1527 C   0  0  0  0  0  0  0  0  0  0  0  0
   14.4873    1.0248   -1.9391 C   0  0  0  0  0  0  0  0  0  0  0  0
   13.1939    0.4966   -1.8837 C   0  0  0  0  0  0  0  0  0  0  0  0
   12.0834    1.3071   -2.1406 C   0  0  0  0  0  0  0  0  0  0  0  0
   12.2753    2.6470   -2.4836 C   0  0  0  0  0  0  0  0  0  0  0  0
    7.5012    3.3597   -3.4604 C   0  0  0  0  0  0  0  0  0  0  0  0
    6.5523    2.3828   -2.7632 C   0  0  0  0  0  0  0  0  0  0  0  0
    5.1084    1.7367    0.4625 C   0  0  0  0  0  0  0  0  0  0  0  0
    2.8199   -0.0689    3.7447 H   0  0  0  0  0  0  0  0  0  0  0  0
    2.0063   -0.1783    2.1771 H   0  0  0  0  0  0  0  0  0  0  0  0
    2.0992    1.3920    3.0668 H   0  0  0  0  0  0  0  0  0  0  0  0
    1.7064    1.7977    0.8455 H   0  0  0  0  0  0  0  0  0  0  0  0
    1.9046    3.1446   -1.1823 H   0  0  0  0  0  0  0  0  0  0  0  0
    4.0940    3.6191   -2.1667 H   0  0  0  0  0  0  0  0  0  0  0  0
    8.1092    1.7062   -0.5847 H   0  0  0  0  0  0  0  0  0  0  0  0
    7.6344    3.1079    0.3971 H   0  0  0  0  0  0  0  0  0  0  0  0
    9.7714    3.5024   -0.9200 H   0  0  0  0  0  0  0  0  0  0  0  0
    8.4947    4.6863   -1.2618 H   0  0  0  0  0  0  0  0  0  0  0  0
   11.5296    4.2936   -5.0397 H   0  0  0  0  0  0  0  0  0  0  0  0
   14.6237    5.0176   -2.5240 H   0  0  0  0  0  0  0  0  0  0  0  0
   15.6865    2.7858   -2.2278 H   0  0  0  0  0  0  0  0  0  0  0  0
   15.3455    0.3659   -1.8365 H   0  0  0  0  0  0  0  0  0  0  0  0
   13.0534   -0.5628   -1.6907 H   0  0  0  0  0  0  0  0  0  0  0  0
   11.0942    0.8569   -2.1563 H   0  0  0  0  0  0  0  0  0  0  0  0
    7.5701    3.1314   -4.5264 H   0  0  0  0  0  0  0  0  0  0  0  0
    7.1079    4.3828   -3.3700 H   0  0  0  0  0  0  0  0  0  0  0  0
    6.9417    1.3600   -2.8334 H   0  0  0  0  0  0  0  0  0  0  0  0
    5.5873    2.3965   -3.2871 H   0  0  0  0  0  0  0  0  0  0  0  0
    5.9880    1.3194    0.9438 H   0  0  0  0  0  0  0  0  0  0  0  0
  1  2  1  0  0  0  0
  1 28  1  0  0  0  0
  1 29  1  0  0  0  0
  1 30  1  0  0  0  0
  2  3  1  0  0  0  0
  3  4  1  0  0  0  0
  3 27  2  0  0  0  0
  4  5  2  0  0  0  0
  4 31  1  0  0  0  0
  5  6  1  0  0  0  0
  5 32  1  0  0  0  0
  6  7  2  0  0  0  0
  6 33  1  0  0  0  0
  7  8  1  0  0  0  0
  7 27  1  0  0  0  0
  8  9  1  0  0  0  0
  8 26  1  0  0  0  0
  9 10  1  0  0  0  0
  9 34  1  0  0  0  0
  9 35  1  0  0  0  0
 10 11  1  0  0  0  0
 10 36  1  0  0  0  0
 10 37  1  0  0  0  0
 11 12  1  0  0  0  0
 11 25  1  0  0  0  0
 12 13  2  0  0  0  0
 12 14  1  0  0  0  0
 14 15  2  0  0  0  0
 14 24  1  0  0  0  0
 15 16  1  0  0  0  0
 15 38  1  0  0  0  0
 16 17  2  0  0  0  0
 16 18  1  0  0  0  0
 18 19  1  0  0  0  0
 18 39  1  0  0  0  0
 19 20  1  0  0  0  0
 19 24  2  0  0  0  0
 20 21  2  0  0  0  0
 20 40  1  0  0  0  0
 21 22  1  0  0  0  0
 21 41  1  0  0  0  0
 22 23  2  0  0  0  0
 22 42  1  0  0  0  0
 23 24  1  0  0  0  0
 23 43  1  0  0  0  0
 25 26  1  0  0  0  0
 25 44  1  0  0  0  0
 25 45  1  0  0  0  0
 26 46  1  0  0  0  0
 26 47  1  0  0  0  0
 27 48  1  0  0  0  0
M  END
$$$$
