
 OpenBabel07202414183D

 60 65  0  0  1  0  0  0  0  0999 V2000
    0.8400   -0.9363    0.5254 F   0  0  0  0  0  0  0  0  0  0  0  0
    2.0022   -1.6366    0.4746 C   0  0  0  0  0  0  0  0  0  0  0  0
    2.1473   -2.0337   -0.8196 F   0  0  0  0  0  0  0  0  0  0  0  0
    3.1384   -0.7085    0.8636 C   0  0  0  0  0  0  0  0  0  0  0  0
    2.8959    0.1065    2.1354 C   0  0  0  0  0  0  0  0  0  0  0  0
    3.0462   -1.0673    3.4846 S   0  0  0  0  0  0  0  0  0  0  0  0
    2.0762   -2.1170    3.2627 O   0  0  0  0  0  0  0  0  0  0  0  0
    4.4631   -1.3128    3.6447 O   0  0  0  0  0  0  0  0  0  0  0  0
    2.5150   -0.2646    4.8724 N   0  0  0  0  0  0  0  0  0  0  0  0
    3.4150    0.7555    5.4440 C   0  0  0  0  0  0  0  0  0  0  0  0
    4.4006    0.2236    6.4624 C   0  0  0  0  0  0  0  0  0  0  0  0
    5.5162    1.0204    6.7830 C   0  0  0  0  0  0  0  0  0  0  0  0
    6.4756    0.5806    7.6965 C   0  0  0  0  0  0  0  0  0  0  0  0
    6.3194   -0.6538    8.3069 C   0  0  0  0  0  0  0  0  0  0  0  0
    7.5003   -1.2232    9.4213 Cl  0  0  0  0  0  0  0  0  0  0  0  0
    5.2093   -1.4438    8.0215 C   0  0  0  0  0  0  0  0  0  0  0  0
    4.2247   -1.0225    7.1018 C   0  0  0  0  0  0  0  0  0  0  0  0
    3.0378   -1.9476    6.7477 C   0  0  3  0  0  0  0  0  0  0  0  0
    2.3306   -2.5018    8.0223 C   0  0  0  0  0  0  0  0  0  0  0  0
    2.6355   -3.9895    8.0598 C   0  0  0  0  0  0  0  0  0  0  0  0
    3.7699   -4.1600    7.2014 N   0  0  0  0  0  0  0  0  0  0  0  0
    4.5044   -5.3851    7.1745 C   0  0  0  0  0  0  0  0  0  0  0  0
    4.8684   -5.9984    5.9687 C   0  0  0  0  0  0  0  0  0  0  0  0
    5.3838   -7.2480    5.8700 N   0  0  0  0  0  0  0  0  0  0  0  0
    5.6202   -7.8962    7.0260 C   0  0  0  0  0  0  0  0  0  0  0  0
    5.4767   -7.3294    8.2889 C   0  0  0  0  0  0  0  0  0  0  0  0
    5.8867   -8.0200    9.4421 C   0  0  0  0  0  0  0  0  0  0  0  0
    5.8296   -7.4192   10.6975 C   0  0  0  0  0  0  0  0  0  0  0  0
    5.3629   -6.1201   10.8087 C   0  0  0  0  0  0  0  0  0  0  0  0
    4.9371   -5.4334    9.6721 C   0  0  0  0  0  0  0  0  0  0  0  0
    4.9351   -6.0233    8.3803 C   0  0  0  0  0  0  0  0  0  0  0  0
    3.5914   -3.2650    6.1325 C   0  0  0  0  0  0  0  0  0  0  0  0
    3.9026   -3.4741    4.9766 O   0  0  0  0  0  0  0  0  0  0  0  0
    1.9767   -1.1712    5.9378 C   0  0  0  0  0  0  0  0  0  0  0  0
    3.9150   -0.0329   -0.2590 C   0  0  0  0  0  0  0  0  0  0  0  0
    4.5608   -1.1394    0.5201 C   0  0  0  0  0  0  0  0  0  0  0  0
    1.9173   -2.5414    1.0756 H   0  0  0  0  0  0  0  0  0  0  0  0
    1.9005    0.5583    2.1505 H   0  0  0  0  0  0  0  0  0  0  0  0
    3.6617    0.8734    2.2809 H   0  0  0  0  0  0  0  0  0  0  0  0
    2.7928    1.5140    5.9377 H   0  0  0  0  0  0  0  0  0  0  0  0
    3.9461    1.2759    4.6388 H   0  0  0  0  0  0  0  0  0  0  0  0
    5.6580    1.9860    6.3023 H   0  0  0  0  0  0  0  0  0  0  0  0
    7.3425    1.1964    7.9130 H   0  0  0  0  0  0  0  0  0  0  0  0
    5.1376   -2.4093    8.5103 H   0  0  0  0  0  0  0  0  0  0  0  0
    1.2413   -2.3728    7.9962 H   0  0  0  0  0  0  0  0  0  0  0  0
    2.6774   -2.0110    8.9378 H   0  0  0  0  0  0  0  0  0  0  0  0
    1.8061   -4.5479    7.6018 H   0  0  0  0  0  0  0  0  0  0  0  0
    2.7463   -4.3540    9.0774 H   0  0  0  0  0  0  0  0  0  0  0  0
    4.7268   -5.5294    5.0024 H   0  0  0  0  0  0  0  0  0  0  0  0
    5.9752   -8.9163    6.9011 H   0  0  0  0  0  0  0  0  0  0  0  0
    6.3018   -9.0239    9.3636 H   0  0  0  0  0  0  0  0  0  0  0  0
    6.1701   -7.9552   11.5779 H   0  0  0  0  0  0  0  0  0  0  0  0
    5.3450   -5.6245   11.7760 H   0  0  0  0  0  0  0  0  0  0  0  0
    4.6702   -4.3903    9.8019 H   0  0  0  0  0  0  0  0  0  0  0  0
    1.4267   -0.5067    6.6250 H   0  0  0  0  0  0  0  0  0  0  0  0
    1.2084   -1.8356    5.5277 H   0  0  0  0  0  0  0  0  0  0  0  0
    4.2923    0.9718   -0.1133 H   0  0  0  0  0  0  0  0  0  0  0  0
    3.6309   -0.2433   -1.2856 H   0  0  0  0  0  0  0  0  0  0  0  0
    5.3756   -0.8834    1.1886 H   0  0  0  0  0  0  0  0  0  0  0  0
    4.6997   -2.1019    0.0341 H   0  0  0  0  0  0  0  0  0  0  0  0
  1  2  1  0  0  0  0
  2  3  1  0  0  0  0
  2  4  1  0  0  0  0
  2 37  1  0  0  0  0
  4  5  1  0  0  0  0
  4 35  1  0  0  0  0
  4 36  1  0  0  0  0
  5  6  1  0  0  0  0
  5 38  1  0  0  0  0
  5 39  1  0  0  0  0
  6  7  2  0  0  0  0
  6  8  2  0  0  0  0
  6  9  1  0  0  0  0
  9 10  1  0  0  0  0
  9 34  1  0  0  0  0
 10 11  1  0  0  0  0
 10 40  1  0  0  0  0
 10 41  1  0  0  0  0
 11 12  1  0  0  0  0
 11 17  2  0  0  0  0
 12 13  2  0  0  0  0
 12 42  1  0  0  0  0
 13 14  1  0  0  0  0
 13 43  1  0  0  0  0
 14 15  1  0  0  0  0
 14 16  2  0  0  0  0
 16 17  1  0  0  0  0
 16 44  1  0  0  0  0
 17 18  1  0  0  0  0
 18 19  1  0  0  0  0
 18 32  1  0  0  0  0
 18 34  1  0  0  0  0
 19 20  1  0  0  0  0
 19 45  1  0  0  0  0
 19 46  1  0  0  0  0
 20 21  1  0  0  0  0
 20 47  1  0  0  0  0
 20 48  1  0  0  0  0
 21 22  1  0  0  0  0
 21 32  1  0  0  0  0
 22 23  1  0  0  0  0
 22 31  2  0  0  0  0
 23 24  2  0  0  0  0
 23 49  1  0  0  0  0
 24 25  1  0  0  0  0
 25 26  2  0  0  0  0
 25 50  1  0  0  0  0
 26 27  1  0  0  0  0
 26 31  1  0  0  0  0
 27 28  2  0  0  0  0
 27 51  1  0  0  0  0
 28 29  1  0  0  0  0
 28 52  1  0  0  0  0
 29 30  2  0  0  0  0
 29 53  1  0  0  0  0
 30 31  1  0  0  0  0
 30 54  1  0  0  0  0
 32 33  2  0  0  0  0
 34 55  1  0  0  0  0
 34 56  1  0  0  0  0
 35 36  1  0  0  0  0
 35 57  1  0  0  0  0
 35 58  1  0  0  0  0
 36 59  1  0  0  0  0
 36 60  1  0  0  0  0
M  END
$$$$
