
 OpenBabel07202414163D

 56 60  0  0  0  0  0  0  0  0999 V2000
   -2.0150   -0.3819   -0.2180 Cl  0  0  0  0  0  0  0  0  0  0  0  0
   -0.3029   -0.2149   -0.1732 C   0  0  0  0  0  0  0  0  0  0  0  0
    0.2726    1.0479   -0.2644 C   0  0  0  0  0  0  0  0  0  0  0  0
    1.6637    1.2120   -0.2067 C   0  0  0  0  0  0  0  0  0  0  0  0
    2.2553    2.4929   -0.2282 N   0  0  0  0  0  0  0  0  0  0  0  0
    1.7152    3.7448    0.1788 C   0  0  0  0  0  0  0  0  0  0  0  0
    2.0573    4.9631   -0.4676 C   0  0  0  0  0  0  0  0  0  0  0  0
    3.0008    5.0887   -1.6215 C   0  0  0  0  0  0  0  0  0  0  0  0
    3.0836    4.1181   -2.6407 C   0  0  0  0  0  0  0  0  0  0  0  0
    3.9476    4.2583   -3.7300 C   0  0  0  0  0  0  0  0  0  0  0  0
    4.7341    5.4012   -3.8490 C   0  0  0  0  0  0  0  0  0  0  0  0
    4.6632    6.3909   -2.8825 C   0  0  0  0  0  0  0  0  0  0  0  0
    3.8235    6.2285   -1.7762 C   0  0  0  0  0  0  0  0  0  0  0  0
    1.4168    6.1425    0.0044 C   0  0  0  0  0  0  0  0  0  0  0  0
    0.5073    6.1344    1.0668 C   0  0  0  0  0  0  0  0  0  0  0  0
    0.1925    4.9411    1.6889 C   0  0  0  0  0  0  0  0  0  0  0  0
    0.7915    3.7625    1.2490 C   0  0  0  0  0  0  0  0  0  0  0  0
    2.4666    0.0610   -0.1243 C   0  0  0  0  0  0  0  0  0  0  0  0
    1.8963   -1.2259   -0.0326 C   0  0  0  0  0  0  0  0  0  0  0  0
    2.7125   -2.5027   -0.0449 C   0  0  0  0  0  0  0  0  0  0  0  0
    4.0977   -2.4664    0.5718 C   0  0  0  0  0  0  0  0  0  0  0  0
    5.0434   -3.0200    0.0128 O   0  0  0  0  0  0  0  0  0  0  0  0
    4.1601   -1.8937    1.8266 N   0  0  0  0  0  0  0  0  0  0  0  0
    5.3509   -1.8576    2.5953 C   0  0  0  0  0  0  0  0  0  0  0  0
    5.2850   -2.3548    3.8972 C   0  0  0  0  0  0  0  0  0  0  0  0
    6.3119   -2.3646    4.7702 N   0  0  0  0  0  0  0  0  0  0  0  0
    7.4330   -1.7340    4.3646 C   0  0  0  0  0  0  0  0  0  0  0  0
    7.5751   -1.0750    3.1429 C   0  0  0  0  0  0  0  0  0  0  0  0
    8.6826   -0.2438    2.8974 C   0  0  0  0  0  0  0  0  0  0  0  0
    8.8227    0.4131    1.6784 C   0  0  0  0  0  0  0  0  0  0  0  0
    7.9013    0.1811    0.6667 C   0  0  0  0  0  0  0  0  0  0  0  0
    6.7788   -0.6161    0.9141 C   0  0  0  0  0  0  0  0  0  0  0  0
    6.5487   -1.2128    2.1802 C   0  0  0  0  0  0  0  0  0  0  0  0
    0.4977   -1.3449   -0.0514 C   0  0  0  0  0  0  0  0  0  0  0  0
   -0.3738    1.9122   -0.3953 H   0  0  0  0  0  0  0  0  0  0  0  0
    3.2657    2.5231   -0.3224 H   0  0  0  0  0  0  0  0  0  0  0  0
    2.4465    3.2370   -2.6198 H   0  0  0  0  0  0  0  0  0  0  0  0
    3.9940    3.4889   -4.4937 H   0  0  0  0  0  0  0  0  0  0  0  0
    5.3855    5.5257   -4.7117 H   0  0  0  0  0  0  0  0  0  0  0  0
    5.2514    7.3032   -2.9864 H   0  0  0  0  0  0  0  0  0  0  0  0
    3.8046    7.0267   -1.0338 H   0  0  0  0  0  0  0  0  0  0  0  0
    1.6105    7.1018   -0.4694 H   0  0  0  0  0  0  0  0  0  0  0  0
    0.0474    7.0613    1.3985 H   0  0  0  0  0  0  0  0  0  0  0  0
   -0.5144    4.9169    2.5143 H   0  0  0  0  0  0  0  0  0  0  0  0
    0.5408    2.8440    1.7703 H   0  0  0  0  0  0  0  0  0  0  0  0
    3.5480    0.1749   -0.1278 H   0  0  0  0  0  0  0  0  0  0  0  0
    2.8222   -2.8109   -1.0891 H   0  0  0  0  0  0  0  0  0  0  0  0
    2.1640   -3.2981    0.4800 H   0  0  0  0  0  0  0  0  0  0  0  0
    3.2907   -1.9183    2.3472 H   0  0  0  0  0  0  0  0  0  0  0  0
    4.3720   -2.7966    4.2853 H   0  0  0  0  0  0  0  0  0  0  0  0
    8.2461   -1.7588    5.0866 H   0  0  0  0  0  0  0  0  0  0  0  0
    9.4160   -0.0604    3.6804 H   0  0  0  0  0  0  0  0  0  0  0  0
    9.6502    1.0991    1.5188 H   0  0  0  0  0  0  0  0  0  0  0  0
    8.0382    0.6371   -0.3104 H   0  0  0  0  0  0  0  0  0  0  0  0
    6.0781   -0.7606    0.0973 H   0  0  0  0  0  0  0  0  0  0  0  0
    0.0278   -2.3254    0.0004 H   0  0  0  0  0  0  0  0  0  0  0  0
  1  2  1  0  0  0  0
  2  3  2  0  0  0  0
  2 34  1  0  0  0  0
  3  4  1  0  0  0  0
  3 35  1  0  0  0  0
  4  5  1  0  0  0  0
  4 18  2  0  0  0  0
  5  6  1  0  0  0  0
  5 36  1  0  0  0  0
  6  7  2  0  0  0  0
  6 17  1  0  0  0  0
  7  8  1  0  0  0  0
  7 14  1  0  0  0  0
  8  9  2  0  0  0  0
  8 13  1  0  0  0  0
  9 10  1  0  0  0  0
  9 37  1  0  0  0  0
 10 11  2  0  0  0  0
 10 38  1  0  0  0  0
 11 12  1  0  0  0  0
 11 39  1  0  0  0  0
 12 13  2  0  0  0  0
 12 40  1  0  0  0  0
 13 41  1  0  0  0  0
 14 15  2  0  0  0  0
 14 42  1  0  0  0  0
 15 16  1  0  0  0  0
 15 43  1  0  0  0  0
 16 17  2  0  0  0  0
 16 44  1  0  0  0  0
 17 45  1  0  0  0  0
 18 19  1  0  0  0  0
 18 46  1  0  0  0  0
 19 20  1  0  0  0  0
 19 34  2  0  0  0  0
 20 21  1  0  0  0  0
 20 47  1  0  0  0  0
 20 48  1  0  0  0  0
 21 22  2  0  0  0  0
 21 23  1  0  0  0  0
 23 24  1  0  0  0  0
 23 49  1  0  0  0  0
 24 25  2  0  0  0  0
 24 33  1  0  0  0  0
 25 26  1  0  0  0  0
 25 50  1  0  0  0  0
 26 27  2  0  0  0  0
 27 28  1  0  0  0  0
 27 51  1  0  0  0  0
 28 29  2  0  0  0  0
 28 33  1  0  0  0  0
 29 30  1  0  0  0  0
 29 52  1  0  0  0  0
 30 31  2  0  0  0  0
 30 53  1  0  0  0  0
 31 32  1  0  0  0  0
 31 54  1  0  0  0  0
 32 33  2  0  0  0  0
 32 55  1  0  0  0  0
 34 56  1  0  0  0  0
M  END
$$$$
