
 OpenBabel07202414143D

 74 79  0  0  1  0  0  0  0  0999 V2000
    2.9202    1.3864    1.0875 C   0  0  0  0  0  0  0  0  0  0  0  0
    1.8563    0.4170    1.3126 N   0  0  0  0  0  0  0  0  0  0  0  0
    1.4611    0.3868    2.7377 C   0  0  0  0  0  0  0  0  0  0  0  0
    0.4042   -0.7016    2.9999 C   0  0  0  0  0  0  0  0  0  0  0  0
   -0.7581   -0.5280    2.1163 N   0  0  0  0  0  0  0  0  0  0  0  0
   -2.0397   -0.4409    2.6198 C   0  0  0  0  0  0  0  0  0  0  0  0
   -3.1213   -0.9765    1.9074 C   0  0  0  0  0  0  0  0  0  0  0  0
   -4.4228   -0.9422    2.4147 C   0  0  0  0  0  0  0  0  0  0  0  0
   -4.6977   -0.3703    3.6536 C   0  0  0  0  0  0  0  0  0  0  0  0
   -5.9900   -0.3694    4.2170 N   0  0  0  0  0  0  0  0  0  0  0  0
   -7.0400   -1.1829    3.8216 C   0  0  0  0  0  0  0  0  0  0  0  0
   -6.9835   -2.0600    2.9487 O   0  0  0  0  0  0  0  0  0  0  0  0
   -8.3296   -0.9939    4.6127 C   0  0  0  0  0  0  0  0  0  0  0  0
   -8.3349   -1.8371    5.8292 N   0  0  0  0  0  0  0  0  0  0  0  0
   -8.2710   -3.2855    5.5228 C   0  0  0  0  0  0  0  0  0  0  0  0
   -8.1108   -4.1584    6.7951 C   0  0  2  0  0  0  0  0  0  0  0  0
   -8.3213   -5.6500    6.3996 C   0  0  0  0  0  0  0  0  0  0  0  0
   -9.2184   -6.3336    6.8871 O   0  0  0  0  0  0  0  0  0  0  0  0
   -7.4004   -6.1280    5.4638 N   0  0  0  0  0  0  0  0  0  0  0  0
   -7.2726   -7.4582    4.9689 C   0  0  0  0  0  0  0  0  0  0  0  0
   -8.1169   -8.5011    5.3731 C   0  0  0  0  0  0  0  0  0  0  0  0
   -7.8117   -9.8106    5.2293 N   0  0  0  0  0  0  0  0  0  0  0  0
   -6.7030  -10.0944    4.5186 C   0  0  0  0  0  0  0  0  0  0  0  0
   -6.0000   -9.1687    3.7770 C   0  0  0  0  0  0  0  0  0  0  0  0
   -5.0658   -9.5717    2.7899 C   0  0  0  0  0  0  0  0  0  0  0  0
   -4.3165   -8.6363    2.0878 C   0  0  0  0  0  0  0  0  0  0  0  0
   -4.4515   -7.2882    2.4014 C   0  0  0  0  0  0  0  0  0  0  0  0
   -5.3885   -6.8733    3.3655 C   0  0  0  0  0  0  0  0  0  0  0  0
   -6.2234   -7.7946    4.0489 C   0  0  0  0  0  0  0  0  0  0  0  0
   -9.0130   -3.6580    7.9310 C   0  0  0  0  0  0  0  0  0  0  0  0
   -9.1108   -4.3560    9.1477 C   0  0  0  0  0  0  0  0  0  0  0  0
   -9.9584   -3.9023   10.1631 C   0  0  0  0  0  0  0  0  0  0  0  0
  -10.0862   -4.7855   11.6349 Cl  0  0  0  0  0  0  0  0  0  0  0  0
  -10.7054   -2.7408    9.9991 C   0  0  0  0  0  0  0  0  0  0  0  0
  -10.5736   -2.0039    8.8263 C   0  0  0  0  0  0  0  0  0  0  0  0
   -9.7088   -2.4352    7.8052 C   0  0  0  0  0  0  0  0  0  0  0  0
   -9.5790   -1.5754    6.5713 C   0  0  0  0  0  0  0  0  0  0  0  0
   -3.6477    0.2187    4.3598 C   0  0  0  0  0  0  0  0  0  0  0  0
   -2.3491    0.1693    3.8508 C   0  0  0  0  0  0  0  0  0  0  0  0
   -1.3850    0.7727    4.5728 F   0  0  0  0  0  0  0  0  0  0  0  0
   -0.4694   -0.3176    0.6877 C   0  0  0  0  0  0  0  0  0  0  0  0
    0.6573    0.7307    0.5045 C   0  0  0  0  0  0  0  0  0  0  0  0
    3.8069    1.1147    1.6712 H   0  0  0  0  0  0  0  0  0  0  0  0
    2.6256    2.4057    1.3587 H   0  0  0  0  0  0  0  0  0  0  0  0
    3.2248    1.3786    0.0354 H   0  0  0  0  0  0  0  0  0  0  0  0
    1.0651    1.3637    3.0490 H   0  0  0  0  0  0  0  0  0  0  0  0
    2.3344    0.1732    3.3645 H   0  0  0  0  0  0  0  0  0  0  0  0
    0.1403   -0.6980    4.0614 H   0  0  0  0  0  0  0  0  0  0  0  0
    0.8437   -1.6906    2.8169 H   0  0  0  0  0  0  0  0  0  0  0  0
   -2.9638   -1.4759    0.9543 H   0  0  0  0  0  0  0  0  0  0  0  0
   -5.2087   -1.3788    1.8015 H   0  0  0  0  0  0  0  0  0  0  0  0
   -6.1336    0.1867    5.0500 H   0  0  0  0  0  0  0  0  0  0  0  0
   -9.1702   -1.2189    3.9433 H   0  0  0  0  0  0  0  0  0  0  0  0
   -8.4079    0.0663    4.8833 H   0  0  0  0  0  0  0  0  0  0  0  0
   -7.3989   -3.4928    4.8954 H   0  0  0  0  0  0  0  0  0  0  0  0
   -9.1528   -3.6026    4.9484 H   0  0  0  0  0  0  0  0  0  0  0  0
   -7.0779   -4.0574    7.1597 H   0  0  0  0  0  0  0  0  0  0  0  0
   -6.6149   -5.5280    5.2516 H   0  0  0  0  0  0  0  0  0  0  0  0
   -9.0582   -8.3362    5.8858 H   0  0  0  0  0  0  0  0  0  0  0  0
   -6.3633  -11.1253    4.6006 H   0  0  0  0  0  0  0  0  0  0  0  0
   -4.9650  -10.6240    2.5295 H   0  0  0  0  0  0  0  0  0  0  0  0
   -3.6422   -8.9479    1.2925 H   0  0  0  0  0  0  0  0  0  0  0  0
   -3.8500   -6.5461    1.8822 H   0  0  0  0  0  0  0  0  0  0  0  0
   -5.4898   -5.8034    3.5265 H   0  0  0  0  0  0  0  0  0  0  0  0
   -8.5398   -5.2681    9.3051 H   0  0  0  0  0  0  0  0  0  0  0  0
  -11.3795   -2.3987   10.7794 H   0  0  0  0  0  0  0  0  0  0  0  0
  -11.1438   -1.0840    8.7124 H   0  0  0  0  0  0  0  0  0  0  0  0
   -9.5705   -0.5244    6.8895 H   0  0  0  0  0  0  0  0  0  0  0  0
  -10.4692   -1.7288    5.9456 H   0  0  0  0  0  0  0  0  0  0  0  0
   -3.7861    0.6868    5.3294 H   0  0  0  0  0  0  0  0  0  0  0  0
   -1.3508    0.0465    0.1440 H   0  0  0  0  0  0  0  0  0  0  0  0
   -0.1725   -1.2677    0.2265 H   0  0  0  0  0  0  0  0  0  0  0  0
    0.2659    1.7207    0.7774 H   0  0  0  0  0  0  0  0  0  0  0  0
    0.9219    0.7680   -0.5586 H   0  0  0  0  0  0  0  0  0  0  0  0
  1  2  1  0  0  0  0
  1 43  1  0  0  0  0
  1 44  1  0  0  0  0
  1 45  1  0  0  0  0
  2  3  1  0  0  0  0
  2 42  1  0  0  0  0
  3  4  1  0  0  0  0
  3 46  1  0  0  0  0
  3 47  1  0  0  0  0
  4  5  1  0  0  0  0
  4 48  1  0  0  0  0
  4 49  1  0  0  0  0
  5  6  1  0  0  0  0
  5 41  1  0  0  0  0
  6  7  1  0  0  0  0
  6 39  2  0  0  0  0
  7  8  2  0  0  0  0
  7 50  1  0  0  0  0
  8  9  1  0  0  0  0
  8 51  1  0  0  0  0
  9 10  1  0  0  0  0
  9 38  2  0  0  0  0
 10 11  1  0  0  0  0
 10 52  1  0  0  0  0
 11 12  2  0  0  0  0
 11 13  1  0  0  0  0
 13 14  1  0  0  0  0
 13 53  1  0  0  0  0
 13 54  1  0  0  0  0
 14 15  1  0  0  0  0
 14 37  1  0  0  0  0
 15 16  1  0  0  0  0
 15 55  1  0  0  0  0
 15 56  1  0  0  0  0
 16 30  1  0  0  0  0
 16 17  1  0  0  0  0
 16 57  1  1  0  0  0
 17 18  2  0  0  0  0
 17 19  1  0  0  0  0
 19 20  1  0  0  0  0
 19 58  1  0  0  0  0
 20 21  1  0  0  0  0
 20 29  2  0  0  0  0
 21 22  2  0  0  0  0
 21 59  1  0  0  0  0
 22 23  1  0  0  0  0
 23 24  2  0  0  0  0
 23 60  1  0  0  0  0
 24 25  1  0  0  0  0
 24 29  1  0  0  0  0
 25 26  2  0  0  0  0
 25 61  1  0  0  0  0
 26 27  1  0  0  0  0
 26 62  1  0  0  0  0
 27 28  2  0  0  0  0
 27 63  1  0  0  0  0
 28 29  1  0  0  0  0
 28 64  1  0  0  0  0
 30 31  1  0  0  0  0
 30 36  2  0  0  0  0
 31 32  2  0  0  0  0
 31 65  1  0  0  0  0
 32 33  1  0  0  0  0
 32 34  1  0  0  0  0
 34 35  2  0  0  0  0
 34 66  1  0  0  0  0
 35 36  1  0  0  0  0
 35 67  1  0  0  0  0
 36 37  1  0  0  0  0
 37 68  1  0  0  0  0
 37 69  1  0  0  0  0
 38 39  1  0  0  0  0
 38 70  1  0  0  0  0
 39 40  1  0  0  0  0
 41 42  1  0  0  0  0
 41 71  1  0  0  0  0
 41 72  1  0  0  0  0
 42 73  1  0  0  0  0
 42 74  1  0  0  0  0
M  END
$$$$
