
 OpenBabel07202414123D

 64 66  0  0  1  0  0  0  0  0999 V2000
   -2.7977   -7.9733    3.7270 C   0  0  0  0  0  0  0  0  0  0  0  0
   -2.2159   -8.8481    2.5917 C   0  0  0  0  0  0  0  0  0  0  0  0
   -2.2160  -10.3165    3.0645 C   0  0  0  0  0  0  0  0  0  0  0  0
   -3.1849   -8.7147    1.3958 C   0  0  0  0  0  0  0  0  0  0  0  0
   -0.7706   -8.4493    2.2256 C   0  0  0  0  0  0  0  0  0  0  0  0
    0.1112   -7.9186    3.1825 C   0  0  0  0  0  0  0  0  0  0  0  0
    1.4313   -7.5950    2.8796 C   0  0  0  0  0  0  0  0  0  0  0  0
    1.9451   -7.7997    1.5884 C   0  0  0  0  0  0  0  0  0  0  0  0
    3.2897   -7.4068    1.3013 N   0  0  0  0  0  0  0  0  0  0  0  0
    3.5694   -6.5442    0.1097 C   0  0  2  0  0  0  0  0  0  0  0  0
    4.6751   -5.4614    0.4158 C   0  0  0  0  0  0  0  0  0  0  0  0
    5.4912   -5.1510   -0.4532 O   0  0  0  0  0  0  0  0  0  0  0  0
    4.6286   -4.7997    1.6414 N   0  0  0  0  0  0  0  0  0  0  0  0
    5.7122   -3.8926    2.0268 C   0  0  0  0  0  0  0  0  0  0  0  0
    5.7831   -2.6544    1.1264 C   0  0  0  0  0  0  0  0  0  0  0  0
    6.8660   -1.6769    1.5017 C   0  0  0  0  0  0  0  0  0  0  0  0
    8.1523   -1.7933    0.9506 C   0  0  0  0  0  0  0  0  0  0  0  0
    9.1384   -0.8460    1.2401 C   0  0  0  0  0  0  0  0  0  0  0  0
    8.8474    0.2222    2.0859 C   0  0  0  0  0  0  0  0  0  0  0  0
    7.5793    0.3254    2.6461 C   0  0  0  0  0  0  0  0  0  0  0  0
    7.2985    1.3517    3.4591 F   0  0  0  0  0  0  0  0  0  0  0  0
    6.5915   -0.6138    2.3687 C   0  0  0  0  0  0  0  0  0  0  0  0
    2.3547   -5.8898   -0.5623 C   0  0  0  0  0  0  0  0  0  0  0  0
    1.5560   -4.9250    0.0660 C   0  0  0  0  0  0  0  0  0  0  0  0
    0.4629   -4.3727   -0.6043 C   0  0  0  0  0  0  0  0  0  0  0  0
    0.1835   -4.8083   -1.8868 C   0  0  0  0  0  0  0  0  0  0  0  0
    0.8791   -5.7812   -2.5066 N   0  0  0  0  0  0  0  0  0  0  0  0
    1.9405   -6.2923   -1.8362 C   0  0  0  0  0  0  0  0  0  0  0  0
    4.4015   -8.0262    1.9082 C   0  0  0  0  0  0  0  0  0  0  0  0
    5.5570   -7.7554    1.6167 O   0  0  0  0  0  0  0  0  0  0  0  0
    4.1515   -9.0684    2.9626 C   0  0  0  0  0  0  0  0  0  0  0  0
    5.0218   -9.2653    3.9648 C   0  0  0  0  0  0  0  0  0  0  0  0
    1.0832   -8.3378    0.6311 C   0  0  0  0  0  0  0  0  0  0  0  0
   -0.2513   -8.6468    0.9365 C   0  0  0  0  0  0  0  0  0  0  0  0
   -3.8478   -8.2227    3.9228 H   0  0  0  0  0  0  0  0  0  0  0  0
   -2.7500   -6.9092    3.4692 H   0  0  0  0  0  0  0  0  0  0  0  0
   -2.2687   -8.1170    4.6753 H   0  0  0  0  0  0  0  0  0  0  0  0
   -3.2256  -10.6444    3.3399 H   0  0  0  0  0  0  0  0  0  0  0  0
   -1.5744  -10.4565    3.9431 H   0  0  0  0  0  0  0  0  0  0  0  0
   -1.8515  -10.9932    2.2826 H   0  0  0  0  0  0  0  0  0  0  0  0
   -4.2203   -8.9124    1.6991 H   0  0  0  0  0  0  0  0  0  0  0  0
   -2.9567   -9.4268    0.5954 H   0  0  0  0  0  0  0  0  0  0  0  0
   -3.1500   -7.7045    0.9717 H   0  0  0  0  0  0  0  0  0  0  0  0
   -0.2211   -7.7381    4.2027 H   0  0  0  0  0  0  0  0  0  0  0  0
    2.0552   -7.1588    3.6535 H   0  0  0  0  0  0  0  0  0  0  0  0
    4.0519   -7.1970   -0.6329 H   0  0  0  0  0  0  0  0  0  0  0  0
    4.0724   -5.2116    2.3737 H   0  0  0  0  0  0  0  0  0  0  0  0
    6.6602   -4.4466    2.0079 H   0  0  0  0  0  0  0  0  0  0  0  0
    5.5343   -3.5944    3.0693 H   0  0  0  0  0  0  0  0  0  0  0  0
    4.8101   -2.1473    1.1343 H   0  0  0  0  0  0  0  0  0  0  0  0
    5.9441   -2.9384    0.0825 H   0  0  0  0  0  0  0  0  0  0  0  0
    8.3864   -2.6141    0.2729 H   0  0  0  0  0  0  0  0  0  0  0  0
   10.1269   -0.9369    0.7966 H   0  0  0  0  0  0  0  0  0  0  0  0
    9.5964    0.9746    2.3092 H   0  0  0  0  0  0  0  0  0  0  0  0
    5.6093   -0.4938    2.8146 H   0  0  0  0  0  0  0  0  0  0  0  0
    1.7614   -4.6117    1.0855 H   0  0  0  0  0  0  0  0  0  0  0  0
   -0.1546   -3.6136   -0.1362 H   0  0  0  0  0  0  0  0  0  0  0  0
   -0.6265   -4.3695   -2.4674 H   0  0  0  0  0  0  0  0  0  0  0  0
    2.4379   -7.1030   -2.3680 H   0  0  0  0  0  0  0  0  0  0  0  0
    3.2643   -9.6747    2.8927 H   0  0  0  0  0  0  0  0  0  0  0  0
    5.9321   -8.6877    4.0633 H   0  0  0  0  0  0  0  0  0  0  0  0
    4.8378  -10.0371    4.7184 H   0  0  0  0  0  0  0  0  0  0  0  0
    1.4250   -8.5414   -0.3808 H   0  0  0  0  0  0  0  0  0  0  0  0
   -0.8677   -9.0409    0.1342 H   0  0  0  0  0  0  0  0  0  0  0  0
  1  2  1  0  0  0  0
  1 35  1  0  0  0  0
  1 36  1  0  0  0  0
  1 37  1  0  0  0  0
  2  3  1  0  0  0  0
  2  4  1  0  0  0  0
  2  5  1  0  0  0  0
  3 38  1  0  0  0  0
  3 39  1  0  0  0  0
  3 40  1  0  0  0  0
  4 41  1  0  0  0  0
  4 42  1  0  0  0  0
  4 43  1  0  0  0  0
  5  6  1  0  0  0  0
  5 34  2  0  0  0  0
  6  7  2  0  0  0  0
  6 44  1  0  0  0  0
  7  8  1  0  0  0  0
  7 45  1  0  0  0  0
  8  9  1  0  0  0  0
  8 33  2  0  0  0  0
  9 29  1  0  0  0  0
 10 23  1  0  0  0  0
 10 11  1  0  0  0  0
 10  9  1  0  0  0  0
 10 46  1  6  0  0  0
 11 12  2  0  0  0  0
 11 13  1  0  0  0  0
 13 14  1  0  0  0  0
 13 47  1  0  0  0  0
 14 15  1  0  0  0  0
 14 48  1  0  0  0  0
 14 49  1  0  0  0  0
 15 16  1  0  0  0  0
 15 50  1  0  0  0  0
 15 51  1  0  0  0  0
 16 17  1  0  0  0  0
 16 22  2  0  0  0  0
 17 18  2  0  0  0  0
 17 52  1  0  0  0  0
 18 19  1  0  0  0  0
 18 53  1  0  0  0  0
 19 20  2  0  0  0  0
 19 54  1  0  0  0  0
 20 21  1  0  0  0  0
 20 22  1  0  0  0  0
 22 55  1  0  0  0  0
 23 24  1  0  0  0  0
 23 28  2  0  0  0  0
 24 25  2  0  0  0  0
 24 56  1  0  0  0  0
 25 26  1  0  0  0  0
 25 57  1  0  0  0  0
 26 27  2  0  0  0  0
 26 58  1  0  0  0  0
 27 28  1  0  0  0  0
 28 59  1  0  0  0  0
 29 30  2  0  0  0  0
 29 31  1  0  0  0  0
 31 32  2  0  0  0  0
 31 60  1  0  0  0  0
 32 61  1  0  0  0  0
 32 62  1  0  0  0  0
 33 34  1  0  0  0  0
 33 63  1  0  0  0  0
 34 64  1  0  0  0  0
M  END
$$$$
