
 OpenBabel07202414143D

 62 66  0  0  1  0  0  0  0  0999 V2000
    5.9598    1.5748   -3.4765 C   0  0  0  0  0  0  0  0  0  0  0  0
    5.7109    0.3192   -2.8118 N   0  0  0  0  0  0  0  0  0  0  0  0
    4.5828    0.1716   -2.0463 C   0  0  0  0  0  0  0  0  0  0  0  0
    3.7421    1.0622   -1.9107 O   0  0  0  0  0  0  0  0  0  0  0  0
    4.4735   -1.1118   -1.2270 C   0  0  0  0  0  0  0  0  0  0  0  0
    5.1308   -2.3612   -1.6371 N   0  0  0  0  0  0  0  0  0  0  0  0
    4.4098   -3.4184   -2.3587 C   0  0  0  0  0  0  0  0  0  0  0  0
    4.4565   -4.7804   -1.6148 C   0  0  2  0  0  0  0  0  0  0  0  0
    3.8939   -5.9055   -2.5293 C   0  0  0  0  0  0  0  0  0  0  0  0
    4.1921   -6.0359   -3.7086 O   0  0  0  0  0  0  0  0  0  0  0  0
    3.0776   -6.7566   -1.7568 N   0  0  0  0  0  0  0  0  0  0  0  0
    2.1870   -7.7884   -2.2469 C   0  0  0  0  0  0  0  0  0  0  0  0
    1.8167   -7.8350   -3.5911 C   0  0  0  0  0  0  0  0  0  0  0  0
    0.7114   -8.4671   -4.0579 N   0  0  0  0  0  0  0  0  0  0  0  0
   -0.0355   -9.1383   -3.1558 C   0  0  0  0  0  0  0  0  0  0  0  0
    0.3176   -9.3248   -1.8237 C   0  0  0  0  0  0  0  0  0  0  0  0
   -0.4554  -10.1504   -0.9793 C   0  0  0  0  0  0  0  0  0  0  0  0
   -0.0866  -10.3660    0.3462 C   0  0  0  0  0  0  0  0  0  0  0  0
    1.0706   -9.7808    0.8290 C   0  0  0  0  0  0  0  0  0  0  0  0
    1.8514   -8.9816   -0.0146 C   0  0  0  0  0  0  0  0  0  0  0  0
    1.4793   -8.6705   -1.3522 C   0  0  0  0  0  0  0  0  0  0  0  0
    2.6628   -6.0667   -0.5663 C   0  0  0  0  0  0  0  0  0  0  0  0
    3.5809   -4.8818   -0.3288 C   0  0  2  0  0  0  0  0  0  0  0  0
    2.7571   -3.6586    0.0905 C   0  0  0  0  0  0  0  0  0  0  0  0
    1.7629   -3.9180    1.5477 S   0  0  0  0  0  0  0  0  0  0  0  0
    0.9571   -2.3450    1.7497 C   0  0  0  0  0  0  0  0  0  0  0  0
    0.7297   -4.8902    1.2498 O   0  0  0  0  0  0  0  0  0  0  0  0
    2.6674   -4.1152    2.6678 O   0  0  0  0  0  0  0  0  0  0  0  0
    5.9273   -5.0626   -1.2338 C   0  0  0  0  0  0  0  0  0  0  0  0
    6.3557   -6.3641   -0.9046 C   0  0  0  0  0  0  0  0  0  0  0  0
    7.6466   -6.5886   -0.4316 C   0  0  0  0  0  0  0  0  0  0  0  0
    8.0045   -7.8252   -0.0632 F   0  0  0  0  0  0  0  0  0  0  0  0
    8.5522   -5.5473   -0.2969 C   0  0  0  0  0  0  0  0  0  0  0  0
    8.1582   -4.2532   -0.6287 C   0  0  0  0  0  0  0  0  0  0  0  0
    6.8517   -4.0027   -1.0837 C   0  0  0  0  0  0  0  0  0  0  0  0
    6.4363   -2.5747   -1.2327 C   0  0  0  0  0  0  0  0  0  0  0  0
    7.1869   -1.6580   -0.9250 O   0  0  0  0  0  0  0  0  0  0  0  0
    6.7164    1.4230   -4.2480 H   0  0  0  0  0  0  0  0  0  0  0  0
    6.3141    2.3026   -2.7408 H   0  0  0  0  0  0  0  0  0  0  0  0
    5.0369    1.9499   -3.9305 H   0  0  0  0  0  0  0  0  0  0  0  0
    6.5043   -0.2675   -2.5616 H   0  0  0  0  0  0  0  0  0  0  0  0
    3.4030   -1.3105   -1.1243 H   0  0  0  0  0  0  0  0  0  0  0  0
    4.8542   -0.8563   -0.2267 H   0  0  0  0  0  0  0  0  0  0  0  0
    4.9106   -3.5041   -3.3328 H   0  0  0  0  0  0  0  0  0  0  0  0
    3.3845   -3.0963   -2.5712 H   0  0  0  0  0  0  0  0  0  0  0  0
    2.3541   -7.2993   -4.3660 H   0  0  0  0  0  0  0  0  0  0  0  0
   -0.9591   -9.5532   -3.5538 H   0  0  0  0  0  0  0  0  0  0  0  0
   -1.3442  -10.6514   -1.3580 H   0  0  0  0  0  0  0  0  0  0  0  0
   -0.6833  -11.0104    0.9870 H   0  0  0  0  0  0  0  0  0  0  0  0
    1.3830   -9.9529    1.8569 H   0  0  0  0  0  0  0  0  0  0  0  0
    2.7982   -8.6349    0.3903 H   0  0  0  0  0  0  0  0  0  0  0  0
    2.6987   -6.6915    0.3200 H   0  0  0  0  0  0  0  0  0  0  0  0
    1.6335   -5.7476   -0.7594 H   0  0  0  0  0  0  0  0  0  0  0  0
    4.2214   -5.1317    0.5288 H   0  0  0  0  0  0  0  0  0  0  0  0
    3.4349   -2.8545    0.3697 H   0  0  0  0  0  0  0  0  0  0  0  0
    2.0814   -3.3373   -0.7082 H   0  0  0  0  0  0  0  0  0  0  0  0
    0.3663   -2.1485    0.8494 H   0  0  0  0  0  0  0  0  0  0  0  0
    1.7195   -1.5777    1.8857 H   0  0  0  0  0  0  0  0  0  0  0  0
    0.3077   -2.4048    2.6195 H   0  0  0  0  0  0  0  0  0  0  0  0
    5.6924   -7.2233   -0.9673 H   0  0  0  0  0  0  0  0  0  0  0  0
    9.5463   -5.7426    0.0932 H   0  0  0  0  0  0  0  0  0  0  0  0
    8.8570   -3.4307   -0.4861 H   0  0  0  0  0  0  0  0  0  0  0  0
  1  2  1  0  0  0  0
  1 38  1  0  0  0  0
  1 39  1  0  0  0  0
  1 40  1  0  0  0  0
  2  3  1  0  0  0  0
  2 41  1  0  0  0  0
  3  4  2  0  0  0  0
  3  5  1  0  0  0  0
  5  6  1  0  0  0  0
  5 42  1  0  0  0  0
  5 43  1  0  0  0  0
  6  7  1  0  0  0  0
  6 36  1  0  0  0  0
  7  8  1  0  0  0  0
  7 44  1  0  0  0  0
  7 45  1  0  0  0  0
  8  9  1  6  0  0  0
  8 23  1  0  0  0  0
  8 29  1  0  0  0  0
  9 10  2  0  0  0  0
  9 11  1  0  0  0  0
 11 12  1  0  0  0  0
 11 22  1  0  0  0  0
 12 13  1  0  0  0  0
 12 21  2  0  0  0  0
 13 14  2  0  0  0  0
 13 46  1  0  0  0  0
 14 15  1  0  0  0  0
 15 16  2  0  0  0  0
 15 47  1  0  0  0  0
 16 17  1  0  0  0  0
 16 21  1  0  0  0  0
 17 18  2  0  0  0  0
 17 48  1  0  0  0  0
 18 19  1  0  0  0  0
 18 49  1  0  0  0  0
 19 20  2  0  0  0  0
 19 50  1  0  0  0  0
 20 21  1  0  0  0  0
 20 51  1  0  0  0  0
 22 23  1  0  0  0  0
 22 52  1  0  0  0  0
 22 53  1  0  0  0  0
 23 24  1  0  0  0  0
 23 54  1  1  0  0  0
 24 25  1  0  0  0  0
 24 55  1  0  0  0  0
 24 56  1  0  0  0  0
 25 26  1  0  0  0  0
 25 27  2  0  0  0  0
 25 28  2  0  0  0  0
 26 57  1  0  0  0  0
 26 58  1  0  0  0  0
 26 59  1  0  0  0  0
 29 30  1  0  0  0  0
 29 35  2  0  0  0  0
 30 31  2  0  0  0  0
 30 60  1  0  0  0  0
 31 32  1  0  0  0  0
 31 33  1  0  0  0  0
 33 34  2  0  0  0  0
 33 61  1  0  0  0  0
 34 35  1  0  0  0  0
 34 62  1  0  0  0  0
 35 36  1  0  0  0  0
 36 37  2  0  0  0  0
M  END
$$$$
