
 OpenBabel07202414183D

 46 49  0  0  0  0  0  0  0  0999 V2000
   -1.2515    0.6701    4.5824 F   0  0  0  0  0  0  0  0  0  0  0  0
   -1.0689   -0.1403    3.5317 C   0  0  0  0  0  0  0  0  0  0  0  0
   -0.5339    0.3725    2.3581 C   0  0  0  0  0  0  0  0  0  0  0  0
   -0.3520   -0.4763    1.2638 C   0  0  0  0  0  0  0  0  0  0  0  0
    0.3906    0.2636   -0.3223 Br  0  0  0  0  0  0  0  0  0  0  0  0
   -0.6928   -1.8423    1.3344 C   0  0  0  0  0  0  0  0  0  0  0  0
   -0.5473   -2.6931    0.2127 N   0  0  0  0  0  0  0  0  0  0  0  0
   -0.2075   -4.0618    0.1788 C   0  0  0  0  0  0  0  0  0  0  0  0
    0.5690   -4.6685    1.1705 C   0  0  0  0  0  0  0  0  0  0  0  0
    0.8799   -6.0240    1.0893 C   0  0  0  0  0  0  0  0  0  0  0  0
    1.8333   -6.7551    2.3217 Cl  0  0  0  0  0  0  0  0  0  0  0  0
    0.4251   -6.7965    0.0225 C   0  0  0  0  0  0  0  0  0  0  0  0
   -0.3425   -6.2089   -0.9903 C   0  0  0  0  0  0  0  0  0  0  0  0
   -0.8916   -7.0539   -2.1159 C   0  0  0  0  0  0  0  0  0  0  0  0
   -0.5390   -6.5783   -3.5136 C   0  0  0  0  0  0  0  0  0  0  0  0
   -1.3747   -6.6038   -4.4139 O   0  0  0  0  0  0  0  0  0  0  0  0
    0.7916   -6.2436   -3.6930 N   0  0  0  0  0  0  0  0  0  0  0  0
    1.3074   -5.8060   -4.9356 C   0  0  0  0  0  0  0  0  0  0  0  0
    0.5988   -4.9023   -5.7310 C   0  0  0  0  0  0  0  0  0  0  0  0
    1.0416   -4.4100   -6.9069 N   0  0  0  0  0  0  0  0  0  0  0  0
    2.2330   -4.8702   -7.3364 C   0  0  0  0  0  0  0  0  0  0  0  0
    3.0239   -5.7990   -6.6444 C   0  0  0  0  0  0  0  0  0  0  0  0
    4.2333   -6.2715   -7.1872 C   0  0  0  0  0  0  0  0  0  0  0  0
    4.9856   -7.2277   -6.5044 C   0  0  0  0  0  0  0  0  0  0  0  0
    4.5500   -7.7081   -5.2783 C   0  0  0  0  0  0  0  0  0  0  0  0
    3.3538   -7.2330   -4.7302 C   0  0  0  0  0  0  0  0  0  0  0  0
    2.5628   -6.2695   -5.3995 C   0  0  0  0  0  0  0  0  0  0  0  0
   -0.6436   -4.8390   -0.9053 C   0  0  0  0  0  0  0  0  0  0  0  0
   -1.2438   -2.3230    2.5345 C   0  0  0  0  0  0  0  0  0  0  0  0
   -1.4257   -1.4779    3.6316 C   0  0  0  0  0  0  0  0  0  0  0  0
   -0.2705    1.4241    2.3120 H   0  0  0  0  0  0  0  0  0  0  0  0
   -0.1736   -2.1973   -0.5967 H   0  0  0  0  0  0  0  0  0  0  0  0
    0.9468   -4.0840    2.0045 H   0  0  0  0  0  0  0  0  0  0  0  0
    0.6605   -7.8581   -0.0074 H   0  0  0  0  0  0  0  0  0  0  0  0
   -1.9849   -7.0658   -2.0270 H   0  0  0  0  0  0  0  0  0  0  0  0
   -0.5508   -8.0926   -2.0265 H   0  0  0  0  0  0  0  0  0  0  0  0
    1.4490   -6.5766   -3.0011 H   0  0  0  0  0  0  0  0  0  0  0  0
   -0.3611   -4.5024   -5.4123 H   0  0  0  0  0  0  0  0  0  0  0  0
    2.5445   -4.4734   -8.2985 H   0  0  0  0  0  0  0  0  0  0  0  0
    4.5823   -5.9213   -8.1530 H   0  0  0  0  0  0  0  0  0  0  0  0
    5.9086   -7.6075   -6.9393 H   0  0  0  0  0  0  0  0  0  0  0  0
    5.1242   -8.4630   -4.7503 H   0  0  0  0  0  0  0  0  0  0  0  0
    3.0358   -7.6664   -3.7852 H   0  0  0  0  0  0  0  0  0  0  0  0
   -1.2589   -4.3719   -1.6750 H   0  0  0  0  0  0  0  0  0  0  0  0
   -1.5603   -3.3604    2.6162 H   0  0  0  0  0  0  0  0  0  0  0  0
   -1.8537   -1.8547    4.5555 H   0  0  0  0  0  0  0  0  0  0  0  0
  1  2  1  0  0  0  0
  2  3  2  0  0  0  0
  2 30  1  0  0  0  0
  3  4  1  0  0  0  0
  3 31  1  0  0  0  0
  4  5  1  0  0  0  0
  4  6  2  0  0  0  0
  6  7  1  0  0  0  0
  6 29  1  0  0  0  0
  7  8  1  0  0  0  0
  7 32  1  0  0  0  0
  8  9  2  0  0  0  0
  8 28  1  0  0  0  0
  9 10  1  0  0  0  0
  9 33  1  0  0  0  0
 10 11  1  0  0  0  0
 10 12  2  0  0  0  0
 12 13  1  0  0  0  0
 12 34  1  0  0  0  0
 13 14  1  0  0  0  0
 13 28  2  0  0  0  0
 14 15  1  0  0  0  0
 14 35  1  0  0  0  0
 14 36  1  0  0  0  0
 15 16  2  0  0  0  0
 15 17  1  0  0  0  0
 17 18  1  0  0  0  0
 17 37  1  0  0  0  0
 18 19  2  0  0  0  0
 18 27  1  0  0  0  0
 19 20  1  0  0  0  0
 19 38  1  0  0  0  0
 20 21  2  0  0  0  0
 21 22  1  0  0  0  0
 21 39  1  0  0  0  0
 22 23  2  0  0  0  0
 22 27  1  0  0  0  0
 23 24  1  0  0  0  0
 23 40  1  0  0  0  0
 24 25  2  0  0  0  0
 24 41  1  0  0  0  0
 25 26  1  0  0  0  0
 25 42  1  0  0  0  0
 26 27  2  0  0  0  0
 26 43  1  0  0  0  0
 28 44  1  0  0  0  0
 29 30  2  0  0  0  0
 29 45  1  0  0  0  0
 30 46  1  0  0  0  0
M  END
$$$$
