
 OpenBabel07202414113D

 49 52  0  0  1  0  0  0  0  0999 V2000
    3.7415   -2.7352    2.1511 C   0  0  0  0  0  0  0  0  0  0  0  0
    3.6487   -1.2506    1.9204 C   0  0  0  0  0  0  0  0  0  0  0  0
    2.7001   -0.5847    2.3042 O   0  0  0  0  0  0  0  0  0  0  0  0
    4.7474   -0.7174    1.2872 N   0  0  0  0  0  0  0  0  0  0  0  0
    4.8784    0.6988    0.9582 C   0  0  0  0  0  0  0  0  0  0  0  0
    5.5547    1.5941    2.0597 C   0  0  3  0  0  0  0  0  0  0  0  0
    6.9922    1.0300    2.3090 C   0  0  0  0  0  0  0  0  0  0  0  0
    7.5435    0.3337    1.4537 O   0  0  0  0  0  0  0  0  0  0  0  0
    7.6021    1.4051    3.4969 N   0  0  0  0  0  0  0  0  0  0  0  0
    8.8233    0.9085    4.0393 C   0  0  0  0  0  0  0  0  0  0  0  0
    9.6879    0.0780    3.3238 C   0  0  0  0  0  0  0  0  0  0  0  0
   10.7984   -0.5063    3.8338 N   0  0  0  0  0  0  0  0  0  0  0  0
   11.0898   -0.2268    5.1182 C   0  0  0  0  0  0  0  0  0  0  0  0
   10.3599    0.6464    5.9218 C   0  0  0  0  0  0  0  0  0  0  0  0
   10.7842    0.9349    7.2319 C   0  0  0  0  0  0  0  0  0  0  0  0
   10.0669    1.8169    8.0351 C   0  0  0  0  0  0  0  0  0  0  0  0
    8.9069    2.3972    7.5437 C   0  0  0  0  0  0  0  0  0  0  0  0
    8.4708    2.1088    6.2453 C   0  0  0  0  0  0  0  0  0  0  0  0
    9.1887    1.2358    5.3833 C   0  0  0  0  0  0  0  0  0  0  0  0
    4.7036    1.6122    3.3522 C   0  0  0  0  0  0  0  0  0  0  0  0
    3.4479    2.4433    3.1559 C   0  0  0  0  0  0  0  0  0  0  0  0
    3.7846    3.8111    2.9134 O   0  0  0  0  0  0  0  0  0  0  0  0
    4.7206    4.0077    1.9355 C   0  0  0  0  0  0  0  0  0  0  0  0
    4.7447    5.2967    1.3938 C   0  0  0  0  0  0  0  0  0  0  0  0
    5.6464    5.6205    0.3822 C   0  0  0  0  0  0  0  0  0  0  0  0
    6.5349    4.6529   -0.0750 C   0  0  0  0  0  0  0  0  0  0  0  0
    7.6455    5.0419   -1.3295 Cl  0  0  0  0  0  0  0  0  0  0  0  0
    6.5264    3.3666    0.4725 C   0  0  0  0  0  0  0  0  0  0  0  0
    5.6197    3.0235    1.4957 C   0  0  0  0  0  0  0  0  0  0  0  0
    2.7783   -3.1096    2.5113 H   0  0  0  0  0  0  0  0  0  0  0  0
    4.5091   -2.9434    2.9017 H   0  0  0  0  0  0  0  0  0  0  0  0
    3.9853   -3.2491    1.2179 H   0  0  0  0  0  0  0  0  0  0  0  0
    5.4766   -1.3389    0.9522 H   0  0  0  0  0  0  0  0  0  0  0  0
    3.8833    1.0784    0.6994 H   0  0  0  0  0  0  0  0  0  0  0  0
    5.4600    0.7253    0.0281 H   0  0  0  0  0  0  0  0  0  0  0  0
    7.0913    2.0287    4.0985 H   0  0  0  0  0  0  0  0  0  0  0  0
    9.5398   -0.1547    2.2757 H   0  0  0  0  0  0  0  0  0  0  0  0
   11.9682   -0.7430    5.4980 H   0  0  0  0  0  0  0  0  0  0  0  0
   11.6932    0.4865    7.6297 H   0  0  0  0  0  0  0  0  0  0  0  0
   10.4167    2.0520    9.0367 H   0  0  0  0  0  0  0  0  0  0  0  0
    8.3384    3.0834    8.1680 H   0  0  0  0  0  0  0  0  0  0  0  0
    7.5596    2.6032    5.9229 H   0  0  0  0  0  0  0  0  0  0  0  0
    5.2396    2.0853    4.1805 H   0  0  0  0  0  0  0  0  0  0  0  0
    4.4682    0.6022    3.6976 H   0  0  0  0  0  0  0  0  0  0  0  0
    2.8536    2.4234    4.0763 H   0  0  0  0  0  0  0  0  0  0  0  0
    2.7999    2.0828    2.3514 H   0  0  0  0  0  0  0  0  0  0  0  0
    4.0414    6.0461    1.7508 H   0  0  0  0  0  0  0  0  0  0  0  0
    5.6448    6.6190   -0.0453 H   0  0  0  0  0  0  0  0  0  0  0  0
    7.2245    2.6289    0.0781 H   0  0  0  0  0  0  0  0  0  0  0  0
  1  2  1  0  0  0  0
  1 30  1  0  0  0  0
  1 31  1  0  0  0  0
  1 32  1  0  0  0  0
  2  3  2  0  0  0  0
  2  4  1  0  0  0  0
  4  5  1  0  0  0  0
  4 33  1  0  0  0  0
  5  6  1  0  0  0  0
  5 34  1  0  0  0  0
  5 35  1  0  0  0  0
  6  7  1  0  0  0  0
  6 20  1  0  0  0  0
  6 29  1  0  0  0  0
  7  8  2  0  0  0  0
  7  9  1  0  0  0  0
  9 10  1  0  0  0  0
  9 36  1  0  0  0  0
 10 11  1  0  0  0  0
 10 19  2  0  0  0  0
 11 12  2  0  0  0  0
 11 37  1  0  0  0  0
 12 13  1  0  0  0  0
 13 14  2  0  0  0  0
 13 38  1  0  0  0  0
 14 15  1  0  0  0  0
 14 19  1  0  0  0  0
 15 16  2  0  0  0  0
 15 39  1  0  0  0  0
 16 17  1  0  0  0  0
 16 40  1  0  0  0  0
 17 18  2  0  0  0  0
 17 41  1  0  0  0  0
 18 19  1  0  0  0  0
 18 42  1  0  0  0  0
 20 21  1  0  0  0  0
 20 43  1  0  0  0  0
 20 44  1  0  0  0  0
 21 22  1  0  0  0  0
 21 45  1  0  0  0  0
 21 46  1  0  0  0  0
 22 23  1  0  0  0  0
 23 24  1  0  0  0  0
 23 29  2  0  0  0  0
 24 25  2  0  0  0  0
 24 47  1  0  0  0  0
 25 26  1  0  0  0  0
 25 48  1  0  0  0  0
 26 27  1  0  0  0  0
 26 28  2  0  0  0  0
 28 29  1  0  0  0  0
 28 49  1  0  0  0  0
M  END
$$$$
