
 OpenBabel07202414133D

 43 45  0  0  0  0  0  0  0  0999 V2000
   -0.4653   -0.9780   -6.3735 C   0  0  0  0  0  0  0  0  0  0  0  0
   -0.1563   -1.7577   -5.1096 C   0  0  0  0  0  0  0  0  0  0  0  0
    1.3514   -1.9658   -4.9682 C   0  0  0  0  0  0  0  0  0  0  0  0
    1.6724   -2.7433   -3.7112 C   0  0  0  0  0  0  0  0  0  0  0  0
    3.1110   -3.0677   -3.6001 C   0  0  0  0  0  0  0  0  0  0  0  0
    4.0572   -2.1787   -3.1578 N   0  0  0  0  0  0  0  0  0  0  0  0
    5.1437   -2.9093   -2.7625 C   0  0  0  0  0  0  0  0  0  0  0  0
    4.7439   -4.2273   -2.9446 C   0  0  0  0  0  0  0  0  0  0  0  0
    3.6086   -4.2831   -3.7159 N   0  0  0  0  0  0  0  0  0  0  0  0
    5.0123   -5.3130   -1.9237 C   0  0  0  0  0  0  0  0  0  0  0  0
    5.4750   -4.9465   -0.7351 N   0  0  0  0  0  0  0  0  0  0  0  0
    4.3890   -5.1485    0.0814 C   0  0  0  0  0  0  0  0  0  0  0  0
    3.4506   -5.9368   -0.5475 C   0  0  0  0  0  0  0  0  0  0  0  0
    4.0901   -6.3190   -1.7055 N   0  0  0  0  0  0  0  0  0  0  0  0
    4.0440   -7.6363   -2.3233 C   0  0  0  0  0  0  0  0  0  0  0  0
    2.7985   -8.4379   -1.9277 C   0  0  0  0  0  0  0  0  0  0  0  0
    2.7511   -9.8872   -2.3470 C   0  0  0  0  0  0  0  0  0  0  0  0
    1.6725  -10.6670   -1.9208 C   0  0  0  0  0  0  0  0  0  0  0  0
    1.6045  -12.0021   -2.3062 C   0  0  0  0  0  0  0  0  0  0  0  0
    2.6134  -12.5261   -3.0955 C   0  0  0  0  0  0  0  0  0  0  0  0
    3.6565  -11.6898   -3.4668 C   0  0  0  0  0  0  0  0  0  0  0  0
    3.7469  -10.3860   -3.1103 N   0  0  0  0  0  0  0  0  0  0  0  0
   -1.5421   -0.8115   -6.4662 H   0  0  0  0  0  0  0  0  0  0  0  0
   -0.1234   -1.5266   -7.2571 H   0  0  0  0  0  0  0  0  0  0  0  0
    0.0357   -0.0054   -6.3582 H   0  0  0  0  0  0  0  0  0  0  0  0
   -0.6695   -2.7270   -5.1421 H   0  0  0  0  0  0  0  0  0  0  0  0
   -0.5429   -1.2172   -4.2374 H   0  0  0  0  0  0  0  0  0  0  0  0
    1.8600   -0.9969   -4.9471 H   0  0  0  0  0  0  0  0  0  0  0  0
    1.7288   -2.5071   -5.8484 H   0  0  0  0  0  0  0  0  0  0  0  0
    1.1072   -3.6869   -3.7016 H   0  0  0  0  0  0  0  0  0  0  0  0
    1.3510   -2.1895   -2.8193 H   0  0  0  0  0  0  0  0  0  0  0  0
    3.8945   -1.2117   -2.9172 H   0  0  0  0  0  0  0  0  0  0  0  0
    5.9038   -2.5009   -2.1092 H   0  0  0  0  0  0  0  0  0  0  0  0
    4.3291   -4.7021    1.0627 H   0  0  0  0  0  0  0  0  0  0  0  0
    2.4731   -6.2900   -0.2592 H   0  0  0  0  0  0  0  0  0  0  0  0
    4.9506   -8.1499   -1.9765 H   0  0  0  0  0  0  0  0  0  0  0  0
    4.1149   -7.5110   -3.4092 H   0  0  0  0  0  0  0  0  0  0  0  0
    1.9099   -7.9353   -2.3305 H   0  0  0  0  0  0  0  0  0  0  0  0
    2.7014   -8.4418   -0.8341 H   0  0  0  0  0  0  0  0  0  0  0  0
    0.8934  -10.2423   -1.2944 H   0  0  0  0  0  0  0  0  0  0  0  0
    0.7706  -12.6230   -1.9898 H   0  0  0  0  0  0  0  0  0  0  0  0
    2.5911  -13.5602   -3.4230 H   0  0  0  0  0  0  0  0  0  0  0  0
    4.4741  -12.0582   -4.0783 H   0  0  0  0  0  0  0  0  0  0  0  0
  1  2  1  0  0  0  0
  1 23  1  0  0  0  0
  1 24  1  0  0  0  0
  1 25  1  0  0  0  0
  2  3  1  0  0  0  0
  2 26  1  0  0  0  0
  2 27  1  0  0  0  0
  3  4  1  0  0  0  0
  3 28  1  0  0  0  0
  3 29  1  0  0  0  0
  4  5  1  0  0  0  0
  4 30  1  0  0  0  0
  4 31  1  0  0  0  0
  5  6  1  0  0  0  0
  5  9  2  0  0  0  0
  6  7  1  0  0  0  0
  6 32  1  0  0  0  0
  7  8  2  0  0  0  0
  7 33  1  0  0  0  0
  8  9  1  0  0  0  0
  8 10  1  0  0  0  0
 10 11  2  0  0  0  0
 10 14  1  0  0  0  0
 11 12  1  0  0  0  0
 12 13  2  0  0  0  0
 12 34  1  0  0  0  0
 13 14  1  0  0  0  0
 13 35  1  0  0  0  0
 14 15  1  0  0  0  0
 15 16  1  0  0  0  0
 15 36  1  0  0  0  0
 15 37  1  0  0  0  0
 16 17  1  0  0  0  0
 16 38  1  0  0  0  0
 16 39  1  0  0  0  0
 17 18  1  0  0  0  0
 17 22  2  0  0  0  0
 18 19  2  0  0  0  0
 18 40  1  0  0  0  0
 19 20  1  0  0  0  0
 19 41  1  0  0  0  0
 20 21  2  0  0  0  0
 20 42  1  0  0  0  0
 21 22  1  0  0  0  0
 21 43  1  0  0  0  0
M  END
$$$$
