
 OpenBabel07202414153D

 46 48  0  0  1  0  0  0  0  0999 V2000
    0.9108    0.0633   -0.4539 C   0  0  0  0  0  0  0  0  0  0  0  0
    2.2155    0.0816    0.1097 O   0  0  0  0  0  0  0  0  0  0  0  0
    3.0223   -0.9976   -0.1174 C   0  0  0  0  0  0  0  0  0  0  0  0
    2.8250   -1.8840   -1.1821 C   0  0  0  0  0  0  0  0  0  0  0  0
    3.6910   -2.9606   -1.3961 C   0  0  0  0  0  0  0  0  0  0  0  0
    4.7703   -3.1661   -0.5458 C   0  0  0  0  0  0  0  0  0  0  0  0
    4.9895   -2.2974    0.5158 C   0  0  0  0  0  0  0  0  0  0  0  0
    4.1270   -1.2116    0.7363 C   0  0  0  0  0  0  0  0  0  0  0  0
    4.5090   -0.4925    1.8353 O   0  0  0  0  0  0  0  0  0  0  0  0
    3.7895    0.6880    2.1778 C   0  0  0  0  0  0  0  0  0  0  0  0
    4.4629    1.3136    3.4015 C   0  0  3  0  0  0  0  0  0  0  0  0
    5.9009    1.7482    3.1467 C   0  0  0  0  0  0  0  0  0  0  0  0
    3.6714    2.3890    3.9659 N   0  0  0  0  0  0  0  0  0  0  0  0
    3.2937    3.5335    3.2981 C   0  0  0  0  0  0  0  0  0  0  0  0
    3.6335    3.8196    2.1566 O   0  0  0  0  0  0  0  0  0  0  0  0
    2.4179    4.4244    4.1024 C   0  0  0  0  0  0  0  0  0  0  0  0
    2.1029    4.0197    5.3550 C   0  0  0  0  0  0  0  0  0  0  0  0
    2.4722    5.1424    6.2559 C   0  0  0  0  0  0  0  0  0  0  0  0
    3.1788    4.9651    7.2323 O   0  0  0  0  0  0  0  0  0  0  0  0
    1.8543    6.3241    5.9174 N   0  0  0  0  0  0  0  0  0  0  0  0
    1.1881    6.4330    4.6839 C   0  0  0  0  0  0  0  0  0  0  0  0
    0.0623    7.2258    4.5466 C   0  0  0  0  0  0  0  0  0  0  0  0
   -0.6197    7.1843    3.3325 C   0  0  0  0  0  0  0  0  0  0  0  0
   -0.0733    6.4988    2.2426 C   0  0  0  0  0  0  0  0  0  0  0  0
   -0.7169    6.5254    1.0694 F   0  0  0  0  0  0  0  0  0  0  0  0
    1.0634    5.7086    2.3736 C   0  0  0  0  0  0  0  0  0  0  0  0
    1.6007    5.5655    3.6450 C   0  0  0  0  0  0  0  0  0  0  0  0
    0.3800    0.9476   -0.0873 H   0  0  0  0  0  0  0  0  0  0  0  0
    0.3545   -0.8220   -0.1271 H   0  0  0  0  0  0  0  0  0  0  0  0
    0.9434    0.1344   -1.5451 H   0  0  0  0  0  0  0  0  0  0  0  0
    2.0099   -1.7512   -1.8857 H   0  0  0  0  0  0  0  0  0  0  0  0
    3.5274   -3.6320   -2.2349 H   0  0  0  0  0  0  0  0  0  0  0  0
    5.4479   -3.9996   -0.7102 H   0  0  0  0  0  0  0  0  0  0  0  0
    5.8341   -2.4491    1.1751 H   0  0  0  0  0  0  0  0  0  0  0  0
    2.7614    0.4191    2.4519 H   0  0  0  0  0  0  0  0  0  0  0  0
    3.7870    1.4020    1.3464 H   0  0  0  0  0  0  0  0  0  0  0  0
    4.4994    0.5535    4.1896 H   0  0  0  0  0  0  0  0  0  0  0  0
    5.9634    2.4875    2.3431 H   0  0  0  0  0  0  0  0  0  0  0  0
    6.5207    0.8894    2.8719 H   0  0  0  0  0  0  0  0  0  0  0  0
    6.3318    2.1971    4.0486 H   0  0  0  0  0  0  0  0  0  0  0  0
    3.3454    2.2251    4.9073 H   0  0  0  0  0  0  0  0  0  0  0  0
    1.0296    3.9071    5.5736 H   0  0  0  0  0  0  0  0  0  0  0  0
    1.9812    7.1208    6.5278 H   0  0  0  0  0  0  0  0  0  0  0  0
   -0.3675    7.7346    5.4047 H   0  0  0  0  0  0  0  0  0  0  0  0
   -1.5935    7.6537    3.2305 H   0  0  0  0  0  0  0  0  0  0  0  0
    1.4356    5.1474    1.5227 H   0  0  0  0  0  0  0  0  0  0  0  0
  1  2  1  0  0  0  0
  1 28  1  0  0  0  0
  1 29  1  0  0  0  0
  1 30  1  0  0  0  0
  2  3  1  0  0  0  0
  3  4  1  0  0  0  0
  3  8  2  0  0  0  0
  4  5  2  0  0  0  0
  4 31  1  0  0  0  0
  5  6  1  0  0  0  0
  5 32  1  0  0  0  0
  6  7  2  0  0  0  0
  6 33  1  0  0  0  0
  7  8  1  0  0  0  0
  7 34  1  0  0  0  0
  8  9  1  0  0  0  0
  9 10  1  0  0  0  0
 10 11  1  0  0  0  0
 10 35  1  0  0  0  0
 10 36  1  0  0  0  0
 11 12  1  0  0  0  0
 11 13  1  0  0  0  0
 11 37  1  0  0  0  0
 12 38  1  0  0  0  0
 12 39  1  0  0  0  0
 12 40  1  0  0  0  0
 13 14  1  0  0  0  0
 13 41  1  0  0  0  0
 14 15  2  0  0  0  0
 14 16  1  0  0  0  0
 16 17  2  0  0  0  0
 16 27  1  0  0  0  0
 17 18  1  0  0  0  0
 17 42  1  0  0  0  0
 18 19  2  0  0  0  0
 18 20  1  0  0  0  0
 20 21  1  0  0  0  0
 20 43  1  0  0  0  0
 21 22  1  0  0  0  0
 21 27  2  0  0  0  0
 22 23  2  0  0  0  0
 22 44  1  0  0  0  0
 23 24  1  0  0  0  0
 23 45  1  0  0  0  0
 24 25  1  0  0  0  0
 24 26  2  0  0  0  0
 26 27  1  0  0  0  0
 26 46  1  0  0  0  0
M  END
$$$$
