
 OpenBabel07202414133D

 67 71  0  0  1  0  0  0  0  0999 V2000
    5.9643    4.1257   -4.8079 C   0  0  0  0  0  0  0  0  0  0  0  0
    6.2645    3.9375   -3.3294 C   0  0  0  0  0  0  0  0  0  0  0  0
    7.5212    4.5413   -3.0118 O   0  0  0  0  0  0  0  0  0  0  0  0
    7.9552    4.3868   -1.7180 C   0  0  0  0  0  0  0  0  0  0  0  0
    7.2567    3.7386   -0.7011 C   0  0  0  0  0  0  0  0  0  0  0  0
    7.8125    3.6068    0.5769 C   0  0  0  0  0  0  0  0  0  0  0  0
    9.0748    4.1353    0.8709 C   0  0  0  0  0  0  0  0  0  0  0  0
    9.6554    3.9764    2.2497 C   0  0  0  0  0  0  0  0  0  0  0  0
   10.5198    2.8202    2.3584 N   0  0  0  0  0  0  0  0  0  0  0  0
   10.1767    1.7018    3.0620 C   0  0  0  0  0  0  0  0  0  0  0  0
    9.0446    1.5233    3.5184 O   0  0  0  0  0  0  0  0  0  0  0  0
   11.2584    0.6299    3.2691 C   0  0  0  0  0  0  0  0  0  0  0  0
   12.6549    0.9695    2.8649 N   0  0  0  0  0  0  0  0  0  0  0  0
   13.2838    2.0596    3.6500 C   0  0  0  0  0  0  0  0  0  0  0  0
   14.6311    2.4705    2.9806 C   0  0  2  0  0  0  0  0  0  0  0  0
   14.3272    3.2064    1.6471 C   0  0  0  0  0  0  0  0  0  0  0  0
   14.2754    4.4284    1.5646 O   0  0  0  0  0  0  0  0  0  0  0  0
   14.0255    2.3384    0.6388 N   0  0  0  0  0  0  0  0  0  0  0  0
   13.6563    2.4950   -0.7057 C   0  0  0  0  0  0  0  0  0  0  0  0
   13.4171    3.7155   -1.3299 C   0  0  0  0  0  0  0  0  0  0  0  0
   13.0543    3.8388   -2.6289 N   0  0  0  0  0  0  0  0  0  0  0  0
   12.8192    2.6873   -3.3110 C   0  0  0  0  0  0  0  0  0  0  0  0
   12.9004    1.4083   -2.7490 C   0  0  0  0  0  0  0  0  0  0  0  0
   12.4544    0.2550   -3.4209 C   0  0  0  0  0  0  0  0  0  0  0  0
   12.6092   -1.0084   -2.8530 C   0  0  0  0  0  0  0  0  0  0  0  0
   13.3023   -1.1417   -1.6608 C   0  0  0  0  0  0  0  0  0  0  0  0
   13.7215   -0.0044   -0.9849 C   0  0  0  0  0  0  0  0  0  0  0  0
   13.4402    1.3050   -1.4662 C   0  0  0  0  0  0  0  0  0  0  0  0
   15.5294    1.2256    2.8496 C   0  0  0  0  0  0  0  0  0  0  0  0
   16.9217    1.3261    2.6868 C   0  0  0  0  0  0  0  0  0  0  0  0
   17.7192    0.1733    2.6982 C   0  0  0  0  0  0  0  0  0  0  0  0
   19.4287    0.3016    2.5359 Cl  0  0  0  0  0  0  0  0  0  0  0  0
   17.1520   -1.0872    2.8650 C   0  0  0  0  0  0  0  0  0  0  0  0
   15.7709   -1.2033    2.9765 C   0  0  0  0  0  0  0  0  0  0  0  0
   14.9523   -0.0610    2.9420 C   0  0  0  0  0  0  0  0  0  0  0  0
   13.4579   -0.2623    3.0704 C   0  0  0  0  0  0  0  0  0  0  0  0
    9.7681    4.8050   -0.1464 C   0  0  0  0  0  0  0  0  0  0  0  0
    9.2111    4.9293   -1.4289 C   0  0  0  0  0  0  0  0  0  0  0  0
    4.9759    3.7222   -5.0498 H   0  0  0  0  0  0  0  0  0  0  0  0
    6.7097    3.6135   -5.4226 H   0  0  0  0  0  0  0  0  0  0  0  0
    5.9893    5.1850   -5.0814 H   0  0  0  0  0  0  0  0  0  0  0  0
    6.2932    2.8618   -3.1184 H   0  0  0  0  0  0  0  0  0  0  0  0
    5.4685    4.4138   -2.7463 H   0  0  0  0  0  0  0  0  0  0  0  0
    6.2742    3.3108   -0.8629 H   0  0  0  0  0  0  0  0  0  0  0  0
    7.2476    3.0884    1.3505 H   0  0  0  0  0  0  0  0  0  0  0  0
    8.8516    3.9221    2.9944 H   0  0  0  0  0  0  0  0  0  0  0  0
   10.2560    4.8562    2.5091 H   0  0  0  0  0  0  0  0  0  0  0  0
   11.4059    2.8239    1.8663 H   0  0  0  0  0  0  0  0  0  0  0  0
   10.9303   -0.2281    2.6663 H   0  0  0  0  0  0  0  0  0  0  0  0
   11.2270    0.3366    4.3261 H   0  0  0  0  0  0  0  0  0  0  0  0
   13.4657    1.7313    4.6842 H   0  0  0  0  0  0  0  0  0  0  0  0
   12.6439    2.9424    3.7135 H   0  0  0  0  0  0  0  0  0  0  0  0
   15.1451    3.1830    3.6389 H   0  0  0  0  0  0  0  0  0  0  0  0
   13.9545    1.3785    0.9733 H   0  0  0  0  0  0  0  0  0  0  0  0
   13.4678    4.6586   -0.7897 H   0  0  0  0  0  0  0  0  0  0  0  0
   12.5728    2.8262   -4.3576 H   0  0  0  0  0  0  0  0  0  0  0  0
   11.9320    0.3407   -4.3724 H   0  0  0  0  0  0  0  0  0  0  0  0
   12.2095   -1.8909   -3.3468 H   0  0  0  0  0  0  0  0  0  0  0  0
   13.5075   -2.1235   -1.2448 H   0  0  0  0  0  0  0  0  0  0  0  0
   14.2885   -0.1635   -0.0721 H   0  0  0  0  0  0  0  0  0  0  0  0
   17.3982    2.2979    2.5760 H   0  0  0  0  0  0  0  0  0  0  0  0
   17.7739   -1.9788    2.9116 H   0  0  0  0  0  0  0  0  0  0  0  0
   15.3314   -2.1906    3.1120 H   0  0  0  0  0  0  0  0  0  0  0  0
   13.1539   -0.9972    2.3135 H   0  0  0  0  0  0  0  0  0  0  0  0
   13.2711   -0.6920    4.0635 H   0  0  0  0  0  0  0  0  0  0  0  0
   10.7456    5.2418    0.0479 H   0  0  0  0  0  0  0  0  0  0  0  0
    9.7717    5.4444   -2.2060 H   0  0  0  0  0  0  0  0  0  0  0  0
  1  2  1  0  0  0  0
  1 39  1  0  0  0  0
  1 40  1  0  0  0  0
  1 41  1  0  0  0  0
  2  3  1  0  0  0  0
  2 42  1  0  0  0  0
  2 43  1  0  0  0  0
  3  4  1  0  0  0  0
  4  5  1  0  0  0  0
  4 38  2  0  0  0  0
  5  6  2  0  0  0  0
  5 44  1  0  0  0  0
  6  7  1  0  0  0  0
  6 45  1  0  0  0  0
  7  8  1  0  0  0  0
  7 37  2  0  0  0  0
  8  9  1  0  0  0  0
  8 46  1  0  0  0  0
  8 47  1  0  0  0  0
  9 10  1  0  0  0  0
  9 48  1  0  0  0  0
 10 11  2  0  0  0  0
 10 12  1  0  0  0  0
 12 13  1  0  0  0  0
 12 49  1  0  0  0  0
 12 50  1  0  0  0  0
 13 14  1  0  0  0  0
 13 36  1  0  0  0  0
 14 15  1  0  0  0  0
 14 51  1  0  0  0  0
 14 52  1  0  0  0  0
 15 29  1  0  0  0  0
 15 16  1  0  0  0  0
 15 53  1  1  0  0  0
 16 17  2  0  0  0  0
 16 18  1  0  0  0  0
 18 19  1  0  0  0  0
 18 54  1  0  0  0  0
 19 20  1  0  0  0  0
 19 28  2  0  0  0  0
 20 21  2  0  0  0  0
 20 55  1  0  0  0  0
 21 22  1  0  0  0  0
 22 23  2  0  0  0  0
 22 56  1  0  0  0  0
 23 24  1  0  0  0  0
 23 28  1  0  0  0  0
 24 25  2  0  0  0  0
 24 57  1  0  0  0  0
 25 26  1  0  0  0  0
 25 58  1  0  0  0  0
 26 27  2  0  0  0  0
 26 59  1  0  0  0  0
 27 28  1  0  0  0  0
 27 60  1  0  0  0  0
 29 30  1  0  0  0  0
 29 35  2  0  0  0  0
 30 31  2  0  0  0  0
 30 61  1  0  0  0  0
 31 32  1  0  0  0  0
 31 33  1  0  0  0  0
 33 34  2  0  0  0  0
 33 62  1  0  0  0  0
 34 35  1  0  0  0  0
 34 63  1  0  0  0  0
 35 36  1  0  0  0  0
 36 64  1  0  0  0  0
 36 65  1  0  0  0  0
 37 38  1  0  0  0  0
 37 66  1  0  0  0  0
 38 67  1  0  0  0  0
M  END
$$$$
