
 OpenBabel07202414193D

 46 49  0  0  1  0  0  0  0  0999 V2000
    3.3387   -2.4028   -2.6098 O   0  0  0  0  0  0  0  0  0  0  0  0
    2.5563   -2.0358   -1.5681 C   0  0  0  0  0  0  0  0  0  0  0  0
    1.5004   -2.5898   -1.3102 O   0  0  0  0  0  0  0  0  0  0  0  0
    3.0840   -0.8284   -0.7987 C   0  0  0  0  0  0  0  0  0  0  0  0
    4.5673   -0.6707   -0.9043 N   0  0  0  0  0  0  0  0  0  0  0  0
    5.2628   -1.7694   -0.1743 C   0  0  0  0  0  0  0  0  0  0  0  0
    6.7902   -1.6752   -0.3698 C   0  0  3  0  0  0  0  0  0  0  0  0
    7.1754   -2.0209   -1.8205 C   0  0  0  0  0  0  0  0  0  0  0  0
    7.9311   -2.9622   -2.0620 O   0  0  0  0  0  0  0  0  0  0  0  0
    6.5773   -1.2038   -2.7655 N   0  0  0  0  0  0  0  0  0  0  0  0
    6.5286   -1.3615   -4.1703 C   0  0  0  0  0  0  0  0  0  0  0  0
    7.1087   -2.4464   -4.8244 C   0  0  0  0  0  0  0  0  0  0  0  0
    6.9432   -2.7250   -6.1377 N   0  0  0  0  0  0  0  0  0  0  0  0
    6.2137   -1.8462   -6.8533 C   0  0  0  0  0  0  0  0  0  0  0  0
    5.6885   -0.6607   -6.3463 C   0  0  0  0  0  0  0  0  0  0  0  0
    5.0681    0.2746   -7.1989 C   0  0  0  0  0  0  0  0  0  0  0  0
    4.5759    1.4756   -6.6997 C   0  0  0  0  0  0  0  0  0  0  0  0
    4.6433    1.7292   -5.3365 C   0  0  0  0  0  0  0  0  0  0  0  0
    5.2423    0.7986   -4.4797 C   0  0  0  0  0  0  0  0  0  0  0  0
    5.8162   -0.4077   -4.9630 C   0  0  0  0  0  0  0  0  0  0  0  0
    7.2911   -0.3054    0.0406 C   0  0  0  0  0  0  0  0  0  0  0  0
    8.6225   -0.1363    0.4530 C   0  0  0  0  0  0  0  0  0  0  0  0
    9.0865    1.1286    0.8046 C   0  0  0  0  0  0  0  0  0  0  0  0
   10.7003    1.3227    1.3678 Cl  0  0  0  0  0  0  0  0  0  0  0  0
    8.2462    2.2354    0.7182 C   0  0  0  0  0  0  0  0  0  0  0  0
    6.9178    2.0726    0.3169 C   0  0  0  0  0  0  0  0  0  0  0  0
    6.4200    0.8014   -0.0071 C   0  0  0  0  0  0  0  0  0  0  0  0
    4.9356    0.6303   -0.2825 C   0  0  0  0  0  0  0  0  0  0  0  0
    4.1374   -1.8352   -2.6465 H   0  0  0  0  0  0  0  0  0  0  0  0
    2.7747   -0.9218    0.2485 H   0  0  0  0  0  0  0  0  0  0  0  0
    2.5946    0.0462   -1.2441 H   0  0  0  0  0  0  0  0  0  0  0  0
    4.9306   -2.7480   -0.5390 H   0  0  0  0  0  0  0  0  0  0  0  0
    5.0194   -1.7258    0.8968 H   0  0  0  0  0  0  0  0  0  0  0  0
    7.2516   -2.4298    0.2804 H   0  0  0  0  0  0  0  0  0  0  0  0
    6.0301   -0.4474   -2.3742 H   0  0  0  0  0  0  0  0  0  0  0  0
    7.7396   -3.1671   -4.3122 H   0  0  0  0  0  0  0  0  0  0  0  0
    6.0722   -2.1290   -7.8936 H   0  0  0  0  0  0  0  0  0  0  0  0
    5.0037    0.0853   -8.2696 H   0  0  0  0  0  0  0  0  0  0  0  0
    4.1498    2.2138   -7.3738 H   0  0  0  0  0  0  0  0  0  0  0  0
    4.2507    2.6621   -4.9397 H   0  0  0  0  0  0  0  0  0  0  0  0
    5.2850    1.0664   -3.4289 H   0  0  0  0  0  0  0  0  0  0  0  0
    9.2914   -0.9929    0.5152 H   0  0  0  0  0  0  0  0  0  0  0  0
    8.6141    3.2237    0.9822 H   0  0  0  0  0  0  0  0  0  0  0  0
    6.2685    2.9453    0.2826 H   0  0  0  0  0  0  0  0  0  0  0  0
    4.6173    1.4284   -0.9645 H   0  0  0  0  0  0  0  0  0  0  0  0
    4.4120    0.7629    0.6728 H   0  0  0  0  0  0  0  0  0  0  0  0
  1  2  1  0  0  0  0
  1 29  1  0  0  0  0
  2  3  2  0  0  0  0
  2  4  1  0  0  0  0
  4  5  1  0  0  0  0
  4 30  1  0  0  0  0
  4 31  1  0  0  0  0
  5  6  1  0  0  0  0
  5 28  1  0  0  0  0
  6  7  1  0  0  0  0
  6 32  1  0  0  0  0
  6 33  1  0  0  0  0
  7  8  1  0  0  0  0
  7 21  1  0  0  0  0
  7 34  1  0  0  0  0
  8  9  2  0  0  0  0
  8 10  1  0  0  0  0
 10 11  1  0  0  0  0
 10 35  1  0  0  0  0
 11 12  1  0  0  0  0
 11 20  2  0  0  0  0
 12 13  2  0  0  0  0
 12 36  1  0  0  0  0
 13 14  1  0  0  0  0
 14 15  2  0  0  0  0
 14 37  1  0  0  0  0
 15 16  1  0  0  0  0
 15 20  1  0  0  0  0
 16 17  2  0  0  0  0
 16 38  1  0  0  0  0
 17 18  1  0  0  0  0
 17 39  1  0  0  0  0
 18 19  2  0  0  0  0
 18 40  1  0  0  0  0
 19 20  1  0  0  0  0
 19 41  1  0  0  0  0
 21 22  1  0  0  0  0
 21 27  2  0  0  0  0
 22 23  2  0  0  0  0
 22 42  1  0  0  0  0
 23 24  1  0  0  0  0
 23 25  1  0  0  0  0
 25 26  2  0  0  0  0
 25 43  1  0  0  0  0
 26 27  1  0  0  0  0
 26 44  1  0  0  0  0
 27 28  1  0  0  0  0
 28 45  1  0  0  0  0
 28 46  1  0  0  0  0
M  END
$$$$
