
 OpenBabel07202414143D

 76 82  0  0  1  0  0  0  0  0999 V2000
    0.9261    0.2936    0.6728 C   0  0  0  0  0  0  0  0  0  0  0  0
    2.3669    0.2618    0.6841 N   0  0  0  0  0  0  0  0  0  0  0  0
    3.1419    1.3736    0.4198 C   0  0  0  0  0  0  0  0  0  0  0  0
    2.6797    2.4851    0.1762 O   0  0  0  0  0  0  0  0  0  0  0  0
    4.6452    1.1341    0.4297 C   0  0  0  0  0  0  0  0  0  0  0  0
    5.1736    0.2410   -0.6023 N   0  0  0  0  0  0  0  0  0  0  0  0
    5.5406    0.8383   -1.8639 C   0  0  0  0  0  0  0  0  0  0  0  0
    6.6208    0.0823   -2.6531 C   0  0  3  0  0  0  0  0  0  0  0  0
    6.5570    0.6159   -4.0940 C   0  0  0  0  0  0  0  0  0  0  0  0
    7.9848    0.9348   -4.4687 C   0  0  0  0  0  0  0  0  0  0  0  0
    8.8061    0.3129   -3.4657 N   0  0  0  0  0  0  0  0  0  0  0  0
   10.2131    0.1349   -3.6528 C   0  0  0  0  0  0  0  0  0  0  0  0
   11.1102    0.3578   -2.6104 C   0  0  0  0  0  0  0  0  0  0  0  0
   12.4295    0.5854   -2.8006 N   0  0  0  0  0  0  0  0  0  0  0  0
   12.9005    0.4197   -4.0538 C   0  0  0  0  0  0  0  0  0  0  0  0
   12.1748   -0.1573   -5.0908 C   0  0  0  0  0  0  0  0  0  0  0  0
   12.7962   -0.6495   -6.2638 C   0  0  0  0  0  0  0  0  0  0  0  0
   12.0395   -1.1392   -7.3328 C   0  0  0  0  0  0  0  0  0  0  0  0
   10.6578   -1.1127   -7.2490 C   0  0  0  0  0  0  0  0  0  0  0  0
    9.9344   -1.4017   -8.3840 O   0  0  0  0  0  0  0  0  0  0  0  0
    8.6603   -0.7214   -8.4426 C   0  0  0  0  0  0  0  0  0  0  0  0
    8.1616   -0.5411   -9.8923 C   0  0  0  0  0  0  0  0  0  0  0  0
    6.9086    0.2382   -9.9652 N   0  0  0  0  0  0  0  0  0  0  0  0
    5.7634   -0.4264   -9.3331 C   0  0  0  0  0  0  0  0  0  0  0  0
    4.5276    0.0117  -10.1129 C   0  0  0  0  0  0  0  0  0  0  0  0
    5.0446    0.9592  -11.1790 C   0  0  0  0  0  0  0  0  0  0  0  0
    6.5024    0.5583  -11.3376 C   0  0  0  0  0  0  0  0  0  0  0  0
   10.0681   -0.7953   -6.0194 C   0  0  0  0  0  0  0  0  0  0  0  0
   10.7815   -0.2575   -4.9142 C   0  0  0  0  0  0  0  0  0  0  0  0
    8.0949    0.3227   -2.2327 C   0  0  0  0  0  0  0  0  0  0  0  0
    8.5227    0.3016   -1.1003 O   0  0  0  0  0  0  0  0  0  0  0  0
    6.3829   -1.4274   -2.5762 C   0  0  0  0  0  0  0  0  0  0  0  0
    7.0680   -2.3117   -3.4409 C   0  0  0  0  0  0  0  0  0  0  0  0
    6.9275   -3.6905   -3.3233 C   0  0  0  0  0  0  0  0  0  0  0  0
    7.8370   -4.7187   -4.3550 Cl  0  0  0  0  0  0  0  0  0  0  0  0
    6.0741   -4.2231   -2.3630 C   0  0  0  0  0  0  0  0  0  0  0  0
    5.4033   -3.3736   -1.4959 C   0  0  0  0  0  0  0  0  0  0  0  0
    5.5741   -1.9720   -1.5799 C   0  0  0  0  0  0  0  0  0  0  0  0
    4.9643   -1.1354   -0.5180 C   0  0  0  0  0  0  0  0  0  0  0  0
    4.3232   -1.6505    0.4007 O   0  0  0  0  0  0  0  0  0  0  0  0
    5.3818    1.1256    1.7687 C   0  0  0  0  0  0  0  0  0  0  0  0
    5.5092    2.3192    0.8802 C   0  0  0  0  0  0  0  0  0  0  0  0
    0.5527   -0.7325    0.6456 H   0  0  0  0  0  0  0  0  0  0  0  0
    0.5651    0.8408   -0.2018 H   0  0  0  0  0  0  0  0  0  0  0  0
    0.5743    0.7899    1.5802 H   0  0  0  0  0  0  0  0  0  0  0  0
    2.8563   -0.6103    0.8714 H   0  0  0  0  0  0  0  0  0  0  0  0
    5.8178    1.8909   -1.7312 H   0  0  0  0  0  0  0  0  0  0  0  0
    4.6082    0.8314   -2.4532 H   0  0  0  0  0  0  0  0  0  0  0  0
    5.9545    1.5252   -4.1924 H   0  0  0  0  0  0  0  0  0  0  0  0
    6.1164   -0.1170   -4.7775 H   0  0  0  0  0  0  0  0  0  0  0  0
    8.1561    2.0167   -4.4171 H   0  0  0  0  0  0  0  0  0  0  0  0
    8.1578    0.6312   -5.4926 H   0  0  0  0  0  0  0  0  0  0  0  0
   10.8020    0.4365   -1.5724 H   0  0  0  0  0  0  0  0  0  0  0  0
   13.9036    0.8063   -4.2156 H   0  0  0  0  0  0  0  0  0  0  0  0
   13.8833   -0.6894   -6.3301 H   0  0  0  0  0  0  0  0  0  0  0  0
   12.5311   -1.5255   -8.2224 H   0  0  0  0  0  0  0  0  0  0  0  0
    8.7391    0.2785   -7.9948 H   0  0  0  0  0  0  0  0  0  0  0  0
    7.9343   -1.3172   -7.8773 H   0  0  0  0  0  0  0  0  0  0  0  0
    8.0490   -1.5238  -10.3674 H   0  0  0  0  0  0  0  0  0  0  0  0
    8.9470   -0.0198  -10.4545 H   0  0  0  0  0  0  0  0  0  0  0  0
    5.6867   -0.1137   -8.2861 H   0  0  0  0  0  0  0  0  0  0  0  0
    5.8400   -1.5193   -9.3599 H   0  0  0  0  0  0  0  0  0  0  0  0
    3.7805    0.4944   -9.4744 H   0  0  0  0  0  0  0  0  0  0  0  0
    4.0556   -0.8591  -10.5832 H   0  0  0  0  0  0  0  0  0  0  0  0
    4.9596    1.9960  -10.8307 H   0  0  0  0  0  0  0  0  0  0  0  0
    4.4794    0.8711  -12.1126 H   0  0  0  0  0  0  0  0  0  0  0  0
    7.0898    1.3818  -11.7563 H   0  0  0  0  0  0  0  0  0  0  0  0
    6.5789   -0.3086  -12.0047 H   0  0  0  0  0  0  0  0  0  0  0  0
    9.0164   -1.0181   -5.9156 H   0  0  0  0  0  0  0  0  0  0  0  0
    7.7589   -1.9369   -4.1867 H   0  0  0  0  0  0  0  0  0  0  0  0
    5.9579   -5.2988   -2.2693 H   0  0  0  0  0  0  0  0  0  0  0  0
    4.7644   -3.7960   -0.7214 H   0  0  0  0  0  0  0  0  0  0  0  0
    6.2515    0.4797    1.8513 H   0  0  0  0  0  0  0  0  0  0  0  0
    4.8077    1.2188    2.6749 H   0  0  0  0  0  0  0  0  0  0  0  0
    6.4611    2.4904    0.3913 H   0  0  0  0  0  0  0  0  0  0  0  0
    5.0106    3.2322    1.1923 H   0  0  0  0  0  0  0  0  0  0  0  0
  1  2  1  0  0  0  0
  1 43  1  0  0  0  0
  1 44  1  0  0  0  0
  1 45  1  0  0  0  0
  2  3  1  0  0  0  0
  2 46  1  0  0  0  0
  3  4  2  0  0  0  0
  3  5  1  0  0  0  0
  5  6  1  0  0  0  0
  5 41  1  0  0  0  0
  5 42  1  0  0  0  0
  6  7  1  0  0  0  0
  6 39  1  0  0  0  0
  7  8  1  0  0  0  0
  7 47  1  0  0  0  0
  7 48  1  0  0  0  0
  8  9  1  0  0  0  0
  8 30  1  0  0  0  0
  8 32  1  0  0  0  0
  9 10  1  0  0  0  0
  9 49  1  0  0  0  0
  9 50  1  0  0  0  0
 10 11  1  0  0  0  0
 10 51  1  0  0  0  0
 10 52  1  0  0  0  0
 11 12  1  0  0  0  0
 11 30  1  0  0  0  0
 12 13  1  0  0  0  0
 12 29  2  0  0  0  0
 13 14  2  0  0  0  0
 13 53  1  0  0  0  0
 14 15  1  0  0  0  0
 15 16  2  0  0  0  0
 15 54  1  0  0  0  0
 16 17  1  0  0  0  0
 16 29  1  0  0  0  0
 17 18  2  0  0  0  0
 17 55  1  0  0  0  0
 18 19  1  0  0  0  0
 18 56  1  0  0  0  0
 19 20  1  0  0  0  0
 19 28  2  0  0  0  0
 20 21  1  0  0  0  0
 21 22  1  0  0  0  0
 21 57  1  0  0  0  0
 21 58  1  0  0  0  0
 22 23  1  0  0  0  0
 22 59  1  0  0  0  0
 22 60  1  0  0  0  0
 23 24  1  0  0  0  0
 23 27  1  0  0  0  0
 24 25  1  0  0  0  0
 24 61  1  0  0  0  0
 24 62  1  0  0  0  0
 25 26  1  0  0  0  0
 25 63  1  0  0  0  0
 25 64  1  0  0  0  0
 26 27  1  0  0  0  0
 26 65  1  0  0  0  0
 26 66  1  0  0  0  0
 27 67  1  0  0  0  0
 27 68  1  0  0  0  0
 28 29  1  0  0  0  0
 28 69  1  0  0  0  0
 30 31  2  0  0  0  0
 32 33  1  0  0  0  0
 32 38  2  0  0  0  0
 33 34  2  0  0  0  0
 33 70  1  0  0  0  0
 34 35  1  0  0  0  0
 34 36  1  0  0  0  0
 36 37  2  0  0  0  0
 36 71  1  0  0  0  0
 37 38  1  0  0  0  0
 37 72  1  0  0  0  0
 38 39  1  0  0  0  0
 39 40  2  0  0  0  0
 41 42  1  0  0  0  0
 41 73  1  0  0  0  0
 41 74  1  0  0  0  0
 42 75  1  0  0  0  0
 42 76  1  0  0  0  0
M  END
$$$$
