
 OpenBabel07202414183D

 56 59  0  0  1  0  0  0  0  0999 V2000
   -0.8436    0.5342    2.6416 Cl  0  0  0  0  0  0  0  0  0  0  0  0
    0.1309    0.2838    1.2423 C   0  0  0  0  0  0  0  0  0  0  0  0
    0.0779    1.2018    0.2025 C   0  0  0  0  0  0  0  0  0  0  0  0
    0.8890    0.9966   -0.9082 C   0  0  0  0  0  0  0  0  0  0  0  0
    1.6988   -0.1472   -1.0021 C   0  0  0  0  0  0  0  0  0  0  0  0
    1.7147   -1.1364   -0.0003 C   0  0  0  0  0  0  0  0  0  0  0  0
    2.4893   -2.4745   -0.1358 C   0  0  3  0  0  0  0  0  0  0  0  0
    2.0059   -3.2653   -1.2905 N   0  0  0  0  0  0  0  0  0  0  0  0
    1.4867   -4.5440   -1.2071 C   0  0  0  0  0  0  0  0  0  0  0  0
    1.3478   -5.1483   -0.1448 O   0  0  0  0  0  0  0  0  0  0  0  0
    1.1280   -5.2097   -2.5538 C   0  0  0  0  0  0  0  0  0  0  0  0
    2.2392   -5.9816   -3.1035 N   0  0  0  0  0  0  0  0  0  0  0  0
    3.1546   -5.4017   -3.9544 C   0  0  0  0  0  0  0  0  0  0  0  0
    3.0878   -4.2223   -4.2870 O   0  0  0  0  0  0  0  0  0  0  0  0
    4.2827   -6.2523   -4.4467 C   0  0  0  0  0  0  0  0  0  0  0  0
    4.1627   -7.6372   -4.6188 C   0  0  0  0  0  0  0  0  0  0  0  0
    5.2230   -8.3797   -5.1658 C   0  0  0  0  0  0  0  0  0  0  0  0
    6.4193   -7.7456   -5.5412 C   0  0  0  0  0  0  0  0  0  0  0  0
    7.4892   -8.4966   -6.1158 C   0  0  0  0  0  0  0  0  0  0  0  0
    8.3752   -9.1112   -6.5893 N   0  0  0  0  0  0  0  0  0  0  0  0
    6.5397   -6.3627   -5.3592 C   0  0  0  0  0  0  0  0  0  0  0  0
    5.4774   -5.6216   -4.8231 C   0  0  0  0  0  0  0  0  0  0  0  0
    4.0465   -2.2780   -0.2696 C   0  0  0  0  0  0  0  0  0  0  0  0
    4.7157   -1.7298    0.6137 O   0  0  0  0  0  0  0  0  0  0  0  0
    4.6256   -2.6176   -1.4915 N   0  0  0  0  0  0  0  0  0  0  0  0
    6.0080   -2.3241   -1.7107 C   0  0  0  0  0  0  0  0  0  0  0  0
    6.9875   -2.8462   -0.8644 C   0  0  0  0  0  0  0  0  0  0  0  0
    8.3206   -2.6566   -1.0220 N   0  0  0  0  0  0  0  0  0  0  0  0
    8.6982   -1.8945   -2.0721 C   0  0  0  0  0  0  0  0  0  0  0  0
    7.8191   -1.2917   -2.9732 C   0  0  0  0  0  0  0  0  0  0  0  0
    8.2851   -0.4917   -4.0384 C   0  0  0  0  0  0  0  0  0  0  0  0
    7.3875    0.1191   -4.9139 C   0  0  0  0  0  0  0  0  0  0  0  0
    6.0224   -0.0552   -4.7289 C   0  0  0  0  0  0  0  0  0  0  0  0
    5.5528   -0.8491   -3.6791 C   0  0  0  0  0  0  0  0  0  0  0  0
    6.4315   -1.5044   -2.7893 C   0  0  0  0  0  0  0  0  0  0  0  0
    0.9514   -0.8550    1.1563 C   0  0  0  0  0  0  0  0  0  0  0  0
   -0.5729    2.0716    0.2540 H   0  0  0  0  0  0  0  0  0  0  0  0
    0.8848    1.7241   -1.7188 H   0  0  0  0  0  0  0  0  0  0  0  0
    2.3194   -0.2218   -1.8912 H   0  0  0  0  0  0  0  0  0  0  0  0
    2.3083   -3.0619    0.7795 H   0  0  0  0  0  0  0  0  0  0  0  0
    2.0246   -2.8163   -2.1957 H   0  0  0  0  0  0  0  0  0  0  0  0
    0.8317   -4.4303   -3.2650 H   0  0  0  0  0  0  0  0  0  0  0  0
    0.2787   -5.8895   -2.4172 H   0  0  0  0  0  0  0  0  0  0  0  0
    2.4485   -6.8701   -2.6615 H   0  0  0  0  0  0  0  0  0  0  0  0
    3.2359   -8.1495   -4.3771 H   0  0  0  0  0  0  0  0  0  0  0  0
    5.1086   -9.4500   -5.3178 H   0  0  0  0  0  0  0  0  0  0  0  0
    7.4562   -5.8466   -5.6449 H   0  0  0  0  0  0  0  0  0  0  0  0
    5.5835   -4.5430   -4.7090 H   0  0  0  0  0  0  0  0  0  0  0  0
    4.0082   -2.5139   -2.2871 H   0  0  0  0  0  0  0  0  0  0  0  0
    6.7325   -3.4977   -0.0297 H   0  0  0  0  0  0  0  0  0  0  0  0
    9.7759   -1.7812   -2.1767 H   0  0  0  0  0  0  0  0  0  0  0  0
    9.3513   -0.3351   -4.1905 H   0  0  0  0  0  0  0  0  0  0  0  0
    7.7521    0.7344   -5.7327 H   0  0  0  0  0  0  0  0  0  0  0  0
    5.3148    0.4239   -5.4025 H   0  0  0  0  0  0  0  0  0  0  0  0
    4.4783   -0.9365   -3.5613 H   0  0  0  0  0  0  0  0  0  0  0  0
    0.9842   -1.5118    2.0235 H   0  0  0  0  0  0  0  0  0  0  0  0
  1  2  1  0  0  0  0
  2  3  1  0  0  0  0
  2 36  2  0  0  0  0
  3  4  2  0  0  0  0
  3 37  1  0  0  0  0
  4  5  1  0  0  0  0
  4 38  1  0  0  0  0
  5  6  2  0  0  0  0
  5 39  1  0  0  0  0
  6  7  1  0  0  0  0
  6 36  1  0  0  0  0
  7  8  1  0  0  0  0
  7 23  1  0  0  0  0
  7 40  1  0  0  0  0
  8  9  1  0  0  0  0
  8 41  1  0  0  0  0
  9 10  2  0  0  0  0
  9 11  1  0  0  0  0
 11 12  1  0  0  0  0
 11 42  1  0  0  0  0
 11 43  1  0  0  0  0
 12 13  1  0  0  0  0
 12 44  1  0  0  0  0
 13 14  2  0  0  0  0
 13 15  1  0  0  0  0
 15 16  1  0  0  0  0
 15 22  2  0  0  0  0
 16 17  2  0  0  0  0
 16 45  1  0  0  0  0
 17 18  1  0  0  0  0
 17 46  1  0  0  0  0
 18 19  1  0  0  0  0
 18 21  2  0  0  0  0
 19 20  3  0  0  0  0
 21 22  1  0  0  0  0
 21 47  1  0  0  0  0
 22 48  1  0  0  0  0
 23 24  2  0  0  0  0
 23 25  1  0  0  0  0
 25 26  1  0  0  0  0
 25 49  1  0  0  0  0
 26 27  1  0  0  0  0
 26 35  2  0  0  0  0
 27 28  2  0  0  0  0
 27 50  1  0  0  0  0
 28 29  1  0  0  0  0
 29 30  2  0  0  0  0
 29 51  1  0  0  0  0
 30 31  1  0  0  0  0
 30 35  1  0  0  0  0
 31 32  2  0  0  0  0
 31 52  1  0  0  0  0
 32 33  1  0  0  0  0
 32 53  1  0  0  0  0
 33 34  2  0  0  0  0
 33 54  1  0  0  0  0
 34 35  1  0  0  0  0
 34 55  1  0  0  0  0
 36 56  1  0  0  0  0
M  END
$$$$
