
 OpenBabel07202414143D

 56 60  0  0  1  0  0  0  0  0999 V2000
    1.4300    0.1314   -2.8614 C   0  0  0  0  0  0  0  0  0  0  0  0
    2.6396    0.7426   -2.3743 N   0  0  0  0  0  0  0  0  0  0  0  0
    3.4214    0.1200   -1.4298 C   0  0  0  0  0  0  0  0  0  0  0  0
    3.1680   -1.0077   -1.0046 O   0  0  0  0  0  0  0  0  0  0  0  0
    4.5372    0.9678   -0.7969 C   0  0  0  0  0  0  0  0  0  0  0  0
    5.1593    2.0344   -1.5837 N   0  0  0  0  0  0  0  0  0  0  0  0
    6.5232    1.8928   -2.0534 C   0  0  0  0  0  0  0  0  0  0  0  0
    7.5063    3.0079   -1.5913 C   0  0  2  0  0  0  0  0  0  0  0  0
    8.6234    3.0766   -2.6781 C   0  0  1  0  0  0  0  0  0  0  0  0
    8.7535    4.3055   -3.5670 C   0  0  0  0  0  0  0  0  0  0  0  0
    9.9251    2.8201   -1.9602 C   0  0  0  0  0  0  0  0  0  0  0  0
    9.6112    2.2177   -0.6924 N   0  0  0  0  0  0  0  0  0  0  0  0
   10.7135    1.9836    0.2227 C   0  0  0  0  0  0  0  0  0  0  0  0
   10.5827    2.2950    1.5801 C   0  0  0  0  0  0  0  0  0  0  0  0
   11.6183    2.4857    2.4274 N   0  0  0  0  0  0  0  0  0  0  0  0
   12.8613    2.2919    1.9307 C   0  0  0  0  0  0  0  0  0  0  0  0
   13.1272    1.7954    0.6583 C   0  0  0  0  0  0  0  0  0  0  0  0
   14.4487    1.4822    0.2778 C   0  0  0  0  0  0  0  0  0  0  0  0
   14.7272    0.9620   -0.9815 C   0  0  0  0  0  0  0  0  0  0  0  0
   13.6881    0.7322   -1.8621 C   0  0  0  0  0  0  0  0  0  0  0  0
   12.3712    1.0097   -1.4705 C   0  0  0  0  0  0  0  0  0  0  0  0
   12.0342    1.6057   -0.2228 C   0  0  0  0  0  0  0  0  0  0  0  0
    8.2688    2.4758   -0.3425 C   0  0  0  0  0  0  0  0  0  0  0  0
    7.7338    2.2783    0.7452 O   0  0  0  0  0  0  0  0  0  0  0  0
    6.7739    4.3348   -1.3772 C   0  0  0  0  0  0  0  0  0  0  0  0
    7.4656    5.5151   -1.0491 C   0  0  0  0  0  0  0  0  0  0  0  0
    6.8252    6.7556   -1.1106 C   0  0  0  0  0  0  0  0  0  0  0  0
    7.5363    7.8709   -0.9033 F   0  0  0  0  0  0  0  0  0  0  0  0
    5.4788    6.8596   -1.4273 C   0  0  0  0  0  0  0  0  0  0  0  0
    4.7477    5.6991   -1.6499 C   0  0  0  0  0  0  0  0  0  0  0  0
    5.3853    4.4464   -1.6184 C   0  0  0  0  0  0  0  0  0  0  0  0
    4.5177    3.2447   -1.7121 C   0  0  0  0  0  0  0  0  0  0  0  0
    3.2991    3.3439   -1.8070 O   0  0  0  0  0  0  0  0  0  0  0  0
    0.8284    0.8903   -3.3672 H   0  0  0  0  0  0  0  0  0  0  0  0
    0.8609   -0.2967   -2.0305 H   0  0  0  0  0  0  0  0  0  0  0  0
    1.6964   -0.6620   -3.5641 H   0  0  0  0  0  0  0  0  0  0  0  0
    2.7441    1.7540   -2.4640 H   0  0  0  0  0  0  0  0  0  0  0  0
    5.3245    0.2794   -0.4719 H   0  0  0  0  0  0  0  0  0  0  0  0
    4.1117    1.4353    0.0991 H   0  0  0  0  0  0  0  0  0  0  0  0
    6.4200    1.9480   -3.1465 H   0  0  0  0  0  0  0  0  0  0  0  0
    6.9030    0.8902   -1.8304 H   0  0  0  0  0  0  0  0  0  0  0  0
    8.4928    2.2287   -3.3686 H   0  0  0  0  0  0  0  0  0  0  0  0
    9.1295    5.1779   -3.0271 H   0  0  0  0  0  0  0  0  0  0  0  0
    7.8077    4.5595   -4.0508 H   0  0  0  0  0  0  0  0  0  0  0  0
    9.4894    4.1061   -4.3638 H   0  0  0  0  0  0  0  0  0  0  0  0
   10.4957    3.7402   -1.7786 H   0  0  0  0  0  0  0  0  0  0  0  0
   10.5042    2.1655   -2.6048 H   0  0  0  0  0  0  0  0  0  0  0  0
    9.6214    2.4774    2.0478 H   0  0  0  0  0  0  0  0  0  0  0  0
   13.6659    2.5406    2.6175 H   0  0  0  0  0  0  0  0  0  0  0  0
   15.2695    1.6168    0.9771 H   0  0  0  0  0  0  0  0  0  0  0  0
   15.7498    0.7049   -1.2588 H   0  0  0  0  0  0  0  0  0  0  0  0
   13.8851    0.3080   -2.8434 H   0  0  0  0  0  0  0  0  0  0  0  0
   11.5967    0.6854   -2.1580 H   0  0  0  0  0  0  0  0  0  0  0  0
    8.5234    5.5051   -0.8002 H   0  0  0  0  0  0  0  0  0  0  0  0
    5.0024    7.8336   -1.4782 H   0  0  0  0  0  0  0  0  0  0  0  0
    3.6772    5.7676   -1.8392 H   0  0  0  0  0  0  0  0  0  0  0  0
  1  2  1  0  0  0  0
  1 34  1  0  0  0  0
  1 35  1  0  0  0  0
  1 36  1  0  0  0  0
  2  3  1  0  0  0  0
  2 37  1  0  0  0  0
  3  4  2  0  0  0  0
  3  5  1  0  0  0  0
  5  6  1  0  0  0  0
  5 38  1  0  0  0  0
  5 39  1  0  0  0  0
  6  7  1  0  0  0  0
  6 32  1  0  0  0  0
  7  8  1  0  0  0  0
  7 40  1  0  0  0  0
  7 41  1  0  0  0  0
  8  9  1  0  0  0  0
  8 23  1  1  0  0  0
  8 25  1  0  0  0  0
  9 11  1  0  0  0  0
  9 10  1  0  0  0  0
  9 42  1  6  0  0  0
 10 43  1  0  0  0  0
 10 44  1  0  0  0  0
 10 45  1  0  0  0  0
 11 12  1  0  0  0  0
 11 46  1  0  0  0  0
 11 47  1  0  0  0  0
 12 13  1  0  0  0  0
 12 23  1  0  0  0  0
 13 14  1  0  0  0  0
 13 22  2  0  0  0  0
 14 15  2  0  0  0  0
 14 48  1  0  0  0  0
 15 16  1  0  0  0  0
 16 17  2  0  0  0  0
 16 49  1  0  0  0  0
 17 18  1  0  0  0  0
 17 22  1  0  0  0  0
 18 19  2  0  0  0  0
 18 50  1  0  0  0  0
 19 20  1  0  0  0  0
 19 51  1  0  0  0  0
 20 21  2  0  0  0  0
 20 52  1  0  0  0  0
 21 22  1  0  0  0  0
 21 53  1  0  0  0  0
 23 24  2  0  0  0  0
 25 26  1  0  0  0  0
 25 31  2  0  0  0  0
 26 27  2  0  0  0  0
 26 54  1  0  0  0  0
 27 28  1  0  0  0  0
 27 29  1  0  0  0  0
 29 30  2  0  0  0  0
 29 55  1  0  0  0  0
 30 31  1  0  0  0  0
 30 56  1  0  0  0  0
 31 32  1  0  0  0  0
 32 33  2  0  0  0  0
M  END
$$$$
