
 OpenBabel07202414153D

 48 51  0  0  0  0  0  0  0  0999 V2000
    2.6019    4.0750    2.8582 C   0  0  0  0  0  0  0  0  0  0  0  0
    2.9215    3.2889    1.7175 O   0  0  0  0  0  0  0  0  0  0  0  0
    3.3361    2.0059    1.9148 C   0  0  0  0  0  0  0  0  0  0  0  0
    3.0670    1.2942    3.1107 C   0  0  0  0  0  0  0  0  0  0  0  0
    3.4950   -0.0197    3.2838 C   0  0  0  0  0  0  0  0  0  0  0  0
    4.1924   -0.6547    2.2721 C   0  0  0  0  0  0  0  0  0  0  0  0
    4.4473    0.0322    1.0741 C   0  0  0  0  0  0  0  0  0  0  0  0
    4.0381    1.3607    0.8612 C   0  0  0  0  0  0  0  0  0  0  0  0
    4.3096    1.9250   -0.3976 N   0  0  0  0  0  0  0  0  0  0  0  0
    3.5762    3.1067   -0.9089 C   0  0  0  0  0  0  0  0  0  0  0  0
    3.6782    3.1887   -2.4641 C   0  0  0  0  0  0  0  0  0  0  0  0
    5.0683    3.0394   -2.9272 N   0  0  0  0  0  0  0  0  0  0  0  0
    5.8084    3.9268   -3.6997 C   0  0  0  0  0  0  0  0  0  0  0  0
    7.0335    3.8826   -3.7554 O   0  0  0  0  0  0  0  0  0  0  0  0
    5.0810    4.8513   -4.5842 C   0  0  0  0  0  0  0  0  0  0  0  0
    5.2186    4.5728   -5.8918 C   0  0  0  0  0  0  0  0  0  0  0  0
    4.4028    5.2972   -6.8817 C   0  0  0  0  0  0  0  0  0  0  0  0
    4.2004    4.8332   -7.9917 O   0  0  0  0  0  0  0  0  0  0  0  0
    3.8995    6.5022   -6.4887 N   0  0  0  0  0  0  0  0  0  0  0  0
    4.2897    7.0790   -5.2747 C   0  0  0  0  0  0  0  0  0  0  0  0
    4.4040    8.4598   -5.1670 C   0  0  0  0  0  0  0  0  0  0  0  0
    4.8970    9.0010   -3.9813 C   0  0  0  0  0  0  0  0  0  0  0  0
    5.1305    8.1770   -2.8770 C   0  0  0  0  0  0  0  0  0  0  0  0
    5.0143    6.7916   -2.9933 C   0  0  0  0  0  0  0  0  0  0  0  0
    4.7063    6.2360   -4.2340 C   0  0  0  0  0  0  0  0  0  0  0  0
    5.7547    1.8707   -2.3620 C   0  0  0  0  0  0  0  0  0  0  0  0
    5.7240    1.9005   -0.8353 C   0  0  0  0  0  0  0  0  0  0  0  0
    2.3341    5.0753    2.5052 H   0  0  0  0  0  0  0  0  0  0  0  0
    3.4688    4.1707    3.5196 H   0  0  0  0  0  0  0  0  0  0  0  0
    1.7323    3.6799    3.3908 H   0  0  0  0  0  0  0  0  0  0  0  0
    2.5073    1.7472    3.9275 H   0  0  0  0  0  0  0  0  0  0  0  0
    3.2661   -0.5550    4.2030 H   0  0  0  0  0  0  0  0  0  0  0  0
    4.5181   -1.6837    2.3812 H   0  0  0  0  0  0  0  0  0  0  0  0
    4.9448   -0.5218    0.2828 H   0  0  0  0  0  0  0  0  0  0  0  0
    4.0042    4.0201   -0.4757 H   0  0  0  0  0  0  0  0  0  0  0  0
    2.5121    3.0502   -0.6553 H   0  0  0  0  0  0  0  0  0  0  0  0
    3.2373    4.1299   -2.8112 H   0  0  0  0  0  0  0  0  0  0  0  0
    3.1042    2.3649   -2.9013 H   0  0  0  0  0  0  0  0  0  0  0  0
    5.8568    3.7798   -6.2722 H   0  0  0  0  0  0  0  0  0  0  0  0
    3.3322    7.0085   -7.1564 H   0  0  0  0  0  0  0  0  0  0  0  0
    4.2576    9.0993   -6.0342 H   0  0  0  0  0  0  0  0  0  0  0  0
    5.1329   10.0609   -3.9247 H   0  0  0  0  0  0  0  0  0  0  0  0
    5.4871    8.6078   -1.9451 H   0  0  0  0  0  0  0  0  0  0  0  0
    5.2783    6.1647   -2.1459 H   0  0  0  0  0  0  0  0  0  0  0  0
    6.7831    1.8025   -2.7261 H   0  0  0  0  0  0  0  0  0  0  0  0
    5.2187    0.9883   -2.7351 H   0  0  0  0  0  0  0  0  0  0  0  0
    6.2392    2.7961   -0.4638 H   0  0  0  0  0  0  0  0  0  0  0  0
    6.2798    1.0320   -0.4678 H   0  0  0  0  0  0  0  0  0  0  0  0
  1  2  1  0  0  0  0
  1 28  1  0  0  0  0
  1 29  1  0  0  0  0
  1 30  1  0  0  0  0
  2  3  1  0  0  0  0
  3  4  1  0  0  0  0
  3  8  2  0  0  0  0
  4  5  2  0  0  0  0
  4 31  1  0  0  0  0
  5  6  1  0  0  0  0
  5 32  1  0  0  0  0
  6  7  2  0  0  0  0
  6 33  1  0  0  0  0
  7  8  1  0  0  0  0
  7 34  1  0  0  0  0
  8  9  1  0  0  0  0
  9 10  1  0  0  0  0
  9 27  1  0  0  0  0
 10 11  1  0  0  0  0
 10 35  1  0  0  0  0
 10 36  1  0  0  0  0
 11 12  1  0  0  0  0
 11 37  1  0  0  0  0
 11 38  1  0  0  0  0
 12 13  1  0  0  0  0
 12 26  1  0  0  0  0
 13 14  2  0  0  0  0
 13 15  1  0  0  0  0
 15 16  2  0  0  0  0
 15 25  1  0  0  0  0
 16 17  1  0  0  0  0
 16 39  1  0  0  0  0
 17 18  2  0  0  0  0
 17 19  1  0  0  0  0
 19 20  1  0  0  0  0
 19 40  1  0  0  0  0
 20 21  1  0  0  0  0
 20 25  2  0  0  0  0
 21 22  2  0  0  0  0
 21 41  1  0  0  0  0
 22 23  1  0  0  0  0
 22 42  1  0  0  0  0
 23 24  2  0  0  0  0
 23 43  1  0  0  0  0
 24 25  1  0  0  0  0
 24 44  1  0  0  0  0
 26 27  1  0  0  0  0
 26 45  1  0  0  0  0
 26 46  1  0  0  0  0
 27 47  1  0  0  0  0
 27 48  1  0  0  0  0
M  END
$$$$
