
 OpenBabel07202414193D

 46 50  0  0  1  0  0  0  0  0999 V2000
    3.8205    0.6804   -1.1801 N   0  0  0  0  0  0  0  0  0  0  0  0
    2.8850    0.0204    0.0537 S   0  0  0  0  0  0  0  0  0  0  0  0
    1.5166    0.0809   -0.3859 O   0  0  0  0  0  0  0  0  0  0  0  0
    3.5459   -1.2081    0.4188 O   0  0  0  0  0  0  0  0  0  0  0  0
    3.1117    1.2144    1.3498 C   0  0  0  0  0  0  0  0  0  0  0  0
    3.7329    0.8414    2.5375 C   0  0  0  0  0  0  0  0  0  0  0  0
    3.9944    1.8183    3.4975 C   0  0  0  0  0  0  0  0  0  0  0  0
    3.6479    3.1536    3.2669 C   0  0  0  0  0  0  0  0  0  0  0  0
    3.0254    3.5364    2.0728 C   0  0  0  0  0  0  0  0  0  0  0  0
    2.7304    2.5353    1.1223 C   0  0  0  0  0  0  0  0  0  0  0  0
    2.7852    5.0062    1.7790 C   0  0  1  0  0  0  0  0  0  0  0  0
    3.5355    5.9055    2.7586 C   0  0  0  0  0  0  0  0  0  0  0  0
    3.4247    5.3240    4.1606 C   0  0  0  0  0  0  0  0  0  0  0  0
    4.0310    4.0341    4.2403 O   0  0  0  0  0  0  0  0  0  0  0  0
    3.1450    5.2967    0.4045 N   0  0  0  0  0  0  0  0  0  0  0  0
    2.0188    5.4617   -0.3802 C   0  0  0  0  0  0  0  0  0  0  0  0
    2.0361    5.3585   -1.5949 O   0  0  0  0  0  0  0  0  0  0  0  0
    0.9572    5.6951    0.4448 N   0  0  0  0  0  0  0  0  0  0  0  0
   -0.3409    6.0158    0.0172 C   0  0  0  0  0  0  0  0  0  0  0  0
   -1.0522    5.1293   -0.7869 C   0  0  0  0  0  0  0  0  0  0  0  0
   -2.3265    5.3303   -1.1901 N   0  0  0  0  0  0  0  0  0  0  0  0
   -2.8761    6.5232   -0.8709 C   0  0  0  0  0  0  0  0  0  0  0  0
   -2.2018    7.5521   -0.2115 C   0  0  0  0  0  0  0  0  0  0  0  0
   -2.7475    8.8441   -0.1120 C   0  0  0  0  0  0  0  0  0  0  0  0
   -2.0206    9.8770    0.4769 C   0  0  0  0  0  0  0  0  0  0  0  0
   -0.7835    9.6101    1.0508 C   0  0  0  0  0  0  0  0  0  0  0  0
   -0.2459    8.3227    0.9845 C   0  0  0  0  0  0  0  0  0  0  0  0
   -0.9153    7.2795    0.3009 C   0  0  0  0  0  0  0  0  0  0  0  0
    1.2898    5.3956    1.7481 C   0  0  0  0  0  0  0  0  0  0  0  0
    0.5435    5.3963    2.7182 O   0  0  0  0  0  0  0  0  0  0  0  0
    3.2468    0.7896   -2.0191 H   0  0  0  0  0  0  0  0  0  0  0  0
    4.6520    0.1100   -1.3264 H   0  0  0  0  0  0  0  0  0  0  0  0
    4.0361   -0.1876    2.7184 H   0  0  0  0  0  0  0  0  0  0  0  0
    4.4969    1.5439    4.4236 H   0  0  0  0  0  0  0  0  0  0  0  0
    2.2577    2.7826    0.1734 H   0  0  0  0  0  0  0  0  0  0  0  0
    3.1446    6.9306    2.7455 H   0  0  0  0  0  0  0  0  0  0  0  0
    4.5965    5.9576    2.4792 H   0  0  0  0  0  0  0  0  0  0  0  0
    2.3899    5.2579    4.5132 H   0  0  0  0  0  0  0  0  0  0  0  0
    3.9579    5.9716    4.8644 H   0  0  0  0  0  0  0  0  0  0  0  0
    3.9901    4.9496   -0.0334 H   0  0  0  0  0  0  0  0  0  0  0  0
   -0.6163    4.1940   -1.1281 H   0  0  0  0  0  0  0  0  0  0  0  0
   -3.9045    6.6457   -1.2026 H   0  0  0  0  0  0  0  0  0  0  0  0
   -3.7175    9.0686   -0.5527 H   0  0  0  0  0  0  0  0  0  0  0  0
   -2.4143   10.8901    0.4772 H   0  0  0  0  0  0  0  0  0  0  0  0
   -0.2201   10.4093    1.5265 H   0  0  0  0  0  0  0  0  0  0  0  0
    0.7292    8.1593    1.4350 H   0  0  0  0  0  0  0  0  0  0  0  0
  1  2  1  0  0  0  0
  1 31  1  0  0  0  0
  1 32  1  0  0  0  0
  2  3  2  0  0  0  0
  2  4  2  0  0  0  0
  2  5  1  0  0  0  0
  5  6  1  0  0  0  0
  5 10  2  0  0  0  0
  6  7  2  0  0  0  0
  6 33  1  0  0  0  0
  7  8  1  0  0  0  0
  7 34  1  0  0  0  0
  8  9  2  0  0  0  0
  8 14  1  0  0  0  0
  9 10  1  0  0  0  0
 10 35  1  0  0  0  0
 11  9  1  1  0  0  0
 11 12  1  0  0  0  0
 11 15  1  0  0  0  0
 11 29  1  0  0  0  0
 12 13  1  0  0  0  0
 12 36  1  0  0  0  0
 12 37  1  0  0  0  0
 13 14  1  0  0  0  0
 13 38  1  0  0  0  0
 13 39  1  0  0  0  0
 15 16  1  0  0  0  0
 15 40  1  0  0  0  0
 16 17  2  0  0  0  0
 16 18  1  0  0  0  0
 18 19  1  0  0  0  0
 18 29  1  0  0  0  0
 19 20  1  0  0  0  0
 19 28  2  0  0  0  0
 20 21  2  0  0  0  0
 20 41  1  0  0  0  0
 21 22  1  0  0  0  0
 22 23  2  0  0  0  0
 22 42  1  0  0  0  0
 23 24  1  0  0  0  0
 23 28  1  0  0  0  0
 24 25  2  0  0  0  0
 24 43  1  0  0  0  0
 25 26  1  0  0  0  0
 25 44  1  0  0  0  0
 26 27  2  0  0  0  0
 26 45  1  0  0  0  0
 27 28  1  0  0  0  0
 27 46  1  0  0  0  0
 29 30  2  0  0  0  0
M  END
$$$$
