
 OpenBabel07202414153D

 43 46  0  0  1  0  0  0  0  0999 V2000
    1.1792    0.2759    0.3419 C   0  0  0  0  0  0  0  0  0  0  0  0
    2.4362   -0.0393   -0.2339 O   0  0  0  0  0  0  0  0  0  0  0  0
    2.7665    0.5184   -1.5227 C   0  0  2  0  0  0  0  0  0  0  0  0
    1.7162    0.2129   -2.6691 C   0  0  0  0  0  0  0  0  0  0  0  0
    0.6806   -0.4280   -2.4507 O   0  0  0  0  0  0  0  0  0  0  0  0
    2.0634    0.6070   -3.9454 N   0  0  0  0  0  0  0  0  0  0  0  0
    1.2884    0.3754   -5.1254 C   0  0  0  0  0  0  0  0  0  0  0  0
    1.9930   -0.1069   -6.2356 C   0  0  0  0  0  0  0  0  0  0  0  0
    1.5003   -0.2173   -7.4863 N   0  0  0  0  0  0  0  0  0  0  0  0
    0.2580    0.2700   -7.6652 C   0  0  0  0  0  0  0  0  0  0  0  0
   -0.5504    0.7695   -6.6492 C   0  0  0  0  0  0  0  0  0  0  0  0
   -1.8112    1.2960   -6.9622 C   0  0  0  0  0  0  0  0  0  0  0  0
   -2.7934    1.3648   -5.9892 C   0  0  0  0  0  0  0  0  0  0  0  0
   -2.4289    1.2030   -4.6633 C   0  0  0  0  0  0  0  0  0  0  0  0
   -1.0765    1.0204   -4.3291 C   0  0  0  0  0  0  0  0  0  0  0  0
   -0.0929    0.7087   -5.3111 C   0  0  0  0  0  0  0  0  0  0  0  0
    4.0737   -0.2267   -1.8844 C   0  0  0  0  0  0  0  0  0  0  0  0
    5.1618    0.1938   -0.9118 C   0  0  0  0  0  0  0  0  0  0  0  0
    5.4842    1.5741   -1.0852 O   0  0  0  0  0  0  0  0  0  0  0  0
    4.4057    2.4202   -1.0593 C   0  0  0  0  0  0  0  0  0  0  0  0
    4.6848    3.7665   -0.7690 C   0  0  0  0  0  0  0  0  0  0  0  0
    5.9410    4.1548   -0.5098 F   0  0  0  0  0  0  0  0  0  0  0  0
    3.6798    4.7207   -0.7167 C   0  0  0  0  0  0  0  0  0  0  0  0
    2.3845    4.3155   -0.9856 C   0  0  0  0  0  0  0  0  0  0  0  0
    1.3896    5.2086   -0.9171 F   0  0  0  0  0  0  0  0  0  0  0  0
    2.0863    2.9882   -1.3115 C   0  0  0  0  0  0  0  0  0  0  0  0
    3.0912    2.0035   -1.3332 C   0  0  0  0  0  0  0  0  0  0  0  0
    1.1775   -0.1276    1.3580 H   0  0  0  0  0  0  0  0  0  0  0  0
    0.3525   -0.1971   -0.1889 H   0  0  0  0  0  0  0  0  0  0  0  0
    1.0167    1.3507    0.4196 H   0  0  0  0  0  0  0  0  0  0  0  0
    3.0562    0.7299   -4.1173 H   0  0  0  0  0  0  0  0  0  0  0  0
    3.0073   -0.4802   -6.1321 H   0  0  0  0  0  0  0  0  0  0  0  0
   -0.1168    0.1802   -8.6830 H   0  0  0  0  0  0  0  0  0  0  0  0
   -2.0288    1.6494   -7.9680 H   0  0  0  0  0  0  0  0  0  0  0  0
   -3.8263    1.5534   -6.2691 H   0  0  0  0  0  0  0  0  0  0  0  0
   -3.1872    1.2563   -3.8859 H   0  0  0  0  0  0  0  0  0  0  0  0
   -0.8298    1.0461   -3.2726 H   0  0  0  0  0  0  0  0  0  0  0  0
    4.4192    0.0019   -2.8985 H   0  0  0  0  0  0  0  0  0  0  0  0
    3.9225   -1.3118   -1.8244 H   0  0  0  0  0  0  0  0  0  0  0  0
    6.0733   -0.3811   -1.1092 H   0  0  0  0  0  0  0  0  0  0  0  0
    4.8965    0.0115    0.1365 H   0  0  0  0  0  0  0  0  0  0  0  0
    3.9086    5.7498   -0.4608 H   0  0  0  0  0  0  0  0  0  0  0  0
    1.0465    2.7371   -1.5060 H   0  0  0  0  0  0  0  0  0  0  0  0
  1  2  1  0  0  0  0
  1 28  1  0  0  0  0
  1 29  1  0  0  0  0
  1 30  1  0  0  0  0
  3  2  1  1  0  0  0
  3  4  1  0  0  0  0
  3 17  1  0  0  0  0
  3 27  1  0  0  0  0
  4  5  2  0  0  0  0
  4  6  1  0  0  0  0
  6  7  1  0  0  0  0
  6 31  1  0  0  0  0
  7  8  1  0  0  0  0
  7 16  2  0  0  0  0
  8  9  2  0  0  0  0
  8 32  1  0  0  0  0
  9 10  1  0  0  0  0
 10 11  2  0  0  0  0
 10 33  1  0  0  0  0
 11 12  1  0  0  0  0
 11 16  1  0  0  0  0
 12 13  2  0  0  0  0
 12 34  1  0  0  0  0
 13 14  1  0  0  0  0
 13 35  1  0  0  0  0
 14 15  2  0  0  0  0
 14 36  1  0  0  0  0
 15 16  1  0  0  0  0
 15 37  1  0  0  0  0
 17 18  1  0  0  0  0
 17 38  1  0  0  0  0
 17 39  1  0  0  0  0
 18 19  1  0  0  0  0
 18 40  1  0  0  0  0
 18 41  1  0  0  0  0
 19 20  1  0  0  0  0
 20 21  1  0  0  0  0
 20 27  2  0  0  0  0
 21 22  1  0  0  0  0
 21 23  2  0  0  0  0
 23 24  1  0  0  0  0
 23 42  1  0  0  0  0
 24 25  1  0  0  0  0
 24 26  2  0  0  0  0
 26 27  1  0  0  0  0
 26 43  1  0  0  0  0
M  END
$$$$
