
 OpenBabel07202414193D

 43 46  0  0  0  0  0  0  0  0999 V2000
    1.3709   -0.8067    0.8397 O   0  0  0  0  0  0  0  0  0  0  0  0
    2.3239   -0.2135    0.3270 C   0  0  0  0  0  0  0  0  0  0  0  0
    2.7372   -0.5678   -1.0908 C   0  0  0  0  0  0  0  0  0  0  0  0
    2.0610    0.2255   -2.1882 C   0  0  0  0  0  0  0  0  0  0  0  0
    1.0636    1.1608   -1.9014 C   0  0  0  0  0  0  0  0  0  0  0  0
    0.4104    1.8961   -2.8254 N   0  0  0  0  0  0  0  0  0  0  0  0
    0.7508    1.6855   -4.1129 C   0  0  0  0  0  0  0  0  0  0  0  0
    1.7205    0.7800   -4.5375 C   0  0  0  0  0  0  0  0  0  0  0  0
    2.0235    0.6181   -5.9016 C   0  0  0  0  0  0  0  0  0  0  0  0
    2.9944   -0.2928   -6.3097 C   0  0  0  0  0  0  0  0  0  0  0  0
    3.6636   -1.0558   -5.3615 C   0  0  0  0  0  0  0  0  0  0  0  0
    3.3672   -0.9038   -4.0034 C   0  0  0  0  0  0  0  0  0  0  0  0
    2.3957    0.0217   -3.5546 C   0  0  0  0  0  0  0  0  0  0  0  0
    3.0136    0.7832    0.9976 N   0  0  0  0  0  0  0  0  0  0  0  0
    4.1257    1.5813    0.4784 C   0  0  0  0  0  0  0  0  0  0  0  0
    5.3637    1.3879    1.3561 C   0  0  0  0  0  0  0  0  0  0  0  0
    5.0813    1.6248    2.8519 C   0  0  0  0  0  0  0  0  0  0  0  0
    5.0329    3.0892    3.2109 C   0  0  0  0  0  0  0  0  0  0  0  0
    5.8495    3.7378    4.1199 C   0  0  0  0  0  0  0  0  0  0  0  0
    5.4058    5.3891    4.2484 S   0  0  0  0  0  0  0  0  0  0  0  0
    4.1713    5.1221    3.0918 C   0  0  0  0  0  0  0  0  0  0  0  0
    4.0815    3.9023    2.6179 N   0  0  0  0  0  0  0  0  0  0  0  0
    3.8138    0.8795    3.3070 C   0  0  0  0  0  0  0  0  0  0  0  0
    2.6313    1.1107    2.3689 C   0  0  0  0  0  0  0  0  0  0  0  0
    2.4842   -1.6282   -1.2258 H   0  0  0  0  0  0  0  0  0  0  0  0
    3.8261   -0.5118   -1.1809 H   0  0  0  0  0  0  0  0  0  0  0  0
    0.7348    1.3631   -0.8845 H   0  0  0  0  0  0  0  0  0  0  0  0
    0.1936    2.2892   -4.8244 H   0  0  0  0  0  0  0  0  0  0  0  0
    1.5011    1.2044   -6.6545 H   0  0  0  0  0  0  0  0  0  0  0  0
    3.2238   -0.4083   -7.3657 H   0  0  0  0  0  0  0  0  0  0  0  0
    4.4178   -1.7736   -5.6748 H   0  0  0  0  0  0  0  0  0  0  0  0
    3.9091   -1.5292   -3.2980 H   0  0  0  0  0  0  0  0  0  0  0  0
    3.8058    2.6279    0.4621 H   0  0  0  0  0  0  0  0  0  0  0  0
    4.3691    1.3264   -0.5540 H   0  0  0  0  0  0  0  0  0  0  0  0
    6.1749    2.0368    1.0046 H   0  0  0  0  0  0  0  0  0  0  0  0
    5.7093    0.3533    1.2333 H   0  0  0  0  0  0  0  0  0  0  0  0
    5.9255    1.1932    3.4090 H   0  0  0  0  0  0  0  0  0  0  0  0
    6.6588    3.3309    4.7098 H   0  0  0  0  0  0  0  0  0  0  0  0
    3.5065    5.9159    2.7740 H   0  0  0  0  0  0  0  0  0  0  0  0
    3.5380    1.1619    4.3296 H   0  0  0  0  0  0  0  0  0  0  0  0
    4.0342   -0.1964    3.3217 H   0  0  0  0  0  0  0  0  0  0  0  0
    2.2922    2.1507    2.3859 H   0  0  0  0  0  0  0  0  0  0  0  0
    1.7851    0.5039    2.7032 H   0  0  0  0  0  0  0  0  0  0  0  0
  1  2  2  0  0  0  0
  2  3  1  0  0  0  0
  2 14  1  0  0  0  0
  3  4  1  0  0  0  0
  3 25  1  0  0  0  0
  3 26  1  0  0  0  0
  4  5  1  0  0  0  0
  4 13  2  0  0  0  0
  5  6  2  0  0  0  0
  5 27  1  0  0  0  0
  6  7  1  0  0  0  0
  7  8  2  0  0  0  0
  7 28  1  0  0  0  0
  8  9  1  0  0  0  0
  8 13  1  0  0  0  0
  9 10  2  0  0  0  0
  9 29  1  0  0  0  0
 10 11  1  0  0  0  0
 10 30  1  0  0  0  0
 11 12  2  0  0  0  0
 11 31  1  0  0  0  0
 12 13  1  0  0  0  0
 12 32  1  0  0  0  0
 14 15  1  0  0  0  0
 14 24  1  0  0  0  0
 15 16  1  0  0  0  0
 15 33  1  0  0  0  0
 15 34  1  0  0  0  0
 16 17  1  0  0  0  0
 16 35  1  0  0  0  0
 16 36  1  0  0  0  0
 17 18  1  0  0  0  0
 17 23  1  0  0  0  0
 17 37  1  0  0  0  0
 18 19  2  0  0  0  0
 18 22  1  0  0  0  0
 19 20  1  0  0  0  0
 19 38  1  0  0  0  0
 20 21  1  0  0  0  0
 21 22  2  0  0  0  0
 21 39  1  0  0  0  0
 23 24  1  0  0  0  0
 23 40  1  0  0  0  0
 23 41  1  0  0  0  0
 24 42  1  0  0  0  0
 24 43  1  0  0  0  0
M  END
$$$$
