
 OpenBabel07202414163D

 43 46  0  0  0  0  0  0  0  0999 V2000
   -1.3008   -0.5869    1.9982 Cl  0  0  0  0  0  0  0  0  0  0  0  0
   -0.0447   -0.2458    0.8697 C   0  0  0  0  0  0  0  0  0  0  0  0
    0.5592    1.0156    0.8696 C   0  0  0  0  0  0  0  0  0  0  0  0
    1.5785    1.2874   -0.0441 C   0  0  0  0  0  0  0  0  0  0  0  0
    2.3158    2.6067   -0.0603 C   0  0  0  0  0  0  0  0  0  0  0  0
    1.4833    3.8464   -0.3202 C   0  0  0  0  0  0  0  0  0  0  0  0
    1.6690    4.8690    0.3381 O   0  0  0  0  0  0  0  0  0  0  0  0
    0.5767    3.7406   -1.3574 N   0  0  0  0  0  0  0  0  0  0  0  0
   -0.2516    4.8175   -1.7611 C   0  0  0  0  0  0  0  0  0  0  0  0
    0.2565    6.1130   -1.8858 C   0  0  0  0  0  0  0  0  0  0  0  0
   -0.4588    7.1796   -2.3098 N   0  0  0  0  0  0  0  0  0  0  0  0
   -1.7597    6.9516   -2.5872 C   0  0  0  0  0  0  0  0  0  0  0  0
   -2.3926    5.7101   -2.4764 C   0  0  0  0  0  0  0  0  0  0  0  0
   -3.7648    5.5604   -2.7350 C   0  0  0  0  0  0  0  0  0  0  0  0
   -4.3893    4.3250   -2.5712 C   0  0  0  0  0  0  0  0  0  0  0  0
   -3.6471    3.2263   -2.1561 C   0  0  0  0  0  0  0  0  0  0  0  0
   -2.2791    3.3603   -1.9099 C   0  0  0  0  0  0  0  0  0  0  0  0
   -1.6160    4.6016   -2.0643 C   0  0  0  0  0  0  0  0  0  0  0  0
    1.9637    0.2834   -0.9474 C   0  0  0  0  0  0  0  0  0  0  0  0
    1.3582   -0.9785   -0.9746 C   0  0  0  0  0  0  0  0  0  0  0  0
    1.6877   -1.9689   -1.9286 N   0  0  0  0  0  0  0  0  0  0  0  0
    2.4479   -1.8899   -3.0536 C   0  0  0  0  0  0  0  0  0  0  0  0
    3.2719   -0.8966   -3.4125 N   0  0  0  0  0  0  0  0  0  0  0  0
    3.7518   -1.2570   -4.6103 N   0  0  0  0  0  0  0  0  0  0  0  0
    3.2668   -2.4473   -5.0582 C   0  0  0  0  0  0  0  0  0  0  0  0
    2.4358   -2.8861   -4.0626 C   0  0  0  0  0  0  0  0  0  0  0  0
    1.4242   -4.4614   -4.0615 Br  0  0  0  0  0  0  0  0  0  0  0  0
    0.3486   -1.2344   -0.0372 C   0  0  0  0  0  0  0  0  0  0  0  0
    0.2474    1.7637    1.5935 H   0  0  0  0  0  0  0  0  0  0  0  0
    3.1009    2.5998   -0.8265 H   0  0  0  0  0  0  0  0  0  0  0  0
    2.8207    2.7245    0.9066 H   0  0  0  0  0  0  0  0  0  0  0  0
    0.2897    2.8069   -1.6207 H   0  0  0  0  0  0  0  0  0  0  0  0
    1.3006    6.3334   -1.6793 H   0  0  0  0  0  0  0  0  0  0  0  0
   -2.3092    7.8363   -2.8994 H   0  0  0  0  0  0  0  0  0  0  0  0
   -4.3657    6.4153   -3.0436 H   0  0  0  0  0  0  0  0  0  0  0  0
   -5.4560    4.2238   -2.7517 H   0  0  0  0  0  0  0  0  0  0  0  0
   -4.1321    2.2651   -2.0043 H   0  0  0  0  0  0  0  0  0  0  0  0
   -1.7496    2.4810   -1.5543 H   0  0  0  0  0  0  0  0  0  0  0  0
    2.7746    0.5062   -1.6359 H   0  0  0  0  0  0  0  0  0  0  0  0
    1.1752   -2.8334   -1.7875 H   0  0  0  0  0  0  0  0  0  0  0  0
    4.4024   -0.6288   -5.0716 H   0  0  0  0  0  0  0  0  0  0  0  0
    3.5447   -2.8520   -6.0197 H   0  0  0  0  0  0  0  0  0  0  0  0
   -0.1433   -2.2030   -0.0126 H   0  0  0  0  0  0  0  0  0  0  0  0
  1  2  1  0  0  0  0
  2  3  2  0  0  0  0
  2 28  1  0  0  0  0
  3  4  1  0  0  0  0
  3 29  1  0  0  0  0
  4  5  1  0  0  0  0
  4 19  2  0  0  0  0
  5  6  1  0  0  0  0
  5 30  1  0  0  0  0
  5 31  1  0  0  0  0
  6  7  2  0  0  0  0
  6  8  1  0  0  0  0
  8  9  1  0  0  0  0
  8 32  1  0  0  0  0
  9 10  2  0  0  0  0
  9 18  1  0  0  0  0
 10 11  1  0  0  0  0
 10 33  1  0  0  0  0
 11 12  2  0  0  0  0
 12 13  1  0  0  0  0
 12 34  1  0  0  0  0
 13 14  2  0  0  0  0
 13 18  1  0  0  0  0
 14 15  1  0  0  0  0
 14 35  1  0  0  0  0
 15 16  2  0  0  0  0
 15 36  1  0  0  0  0
 16 17  1  0  0  0  0
 16 37  1  0  0  0  0
 17 18  2  0  0  0  0
 17 38  1  0  0  0  0
 19 20  1  0  0  0  0
 19 39  1  0  0  0  0
 20 21  1  0  0  0  0
 20 28  2  0  0  0  0
 21 22  1  0  0  0  0
 21 40  1  0  0  0  0
 22 23  2  0  0  0  0
 22 26  1  0  0  0  0
 23 24  1  0  0  0  0
 24 25  1  0  0  0  0
 24 41  1  0  0  0  0
 25 26  2  0  0  0  0
 25 42  1  0  0  0  0
 26 27  1  0  0  0  0
 28 43  1  0  0  0  0
M  END
$$$$
