
 OpenBabel07202414143D

 57 62  0  0  1  0  0  0  0  0999 V2000
    1.3884   -3.3030   -0.6938 C   0  0  0  0  0  0  0  0  0  0  0  0
    2.7246   -2.7779   -0.6577 N   0  0  0  0  0  0  0  0  0  0  0  0
    3.0068   -1.4847   -1.0149 C   0  0  0  0  0  0  0  0  0  0  0  0
    2.1745   -0.6769   -1.4202 O   0  0  0  0  0  0  0  0  0  0  0  0
    4.4620   -1.0858   -0.8623 C   0  0  0  0  0  0  0  0  0  0  0  0
    4.9769   -1.0306    0.5008 N   0  0  0  0  0  0  0  0  0  0  0  0
    4.7652    0.1852    1.2601 C   0  0  0  0  0  0  0  0  0  0  0  0
    5.9398    0.5379    2.1914 C   0  0  2  0  0  0  0  0  0  0  0  0
    5.4095    1.4993    3.2666 C   0  0  0  0  0  0  0  0  0  0  0  0
    6.0497    2.8437    3.0065 C   0  0  0  0  0  0  0  0  0  0  0  0
    6.7577    2.7436    1.7553 N   0  0  0  0  0  0  0  0  0  0  0  0
    7.6378    3.8256    1.3781 C   0  0  0  0  0  0  0  0  0  0  0  0
    8.9402    3.5592    0.9429 C   0  0  0  0  0  0  0  0  0  0  0  0
    9.9355    4.4744    0.8880 N   0  0  0  0  0  0  0  0  0  0  0  0
    9.6142    5.7376    1.2332 C   0  0  0  0  0  0  0  0  0  0  0  0
    8.3271    6.1680    1.5348 C   0  0  0  0  0  0  0  0  0  0  0  0
    8.0666    7.5333    1.7730 C   0  0  0  0  0  0  0  0  0  0  0  0
    6.7721    7.9821    2.0184 C   0  0  0  0  0  0  0  0  0  0  0  0
    5.7263    7.0740    2.0092 C   0  0  0  0  0  0  0  0  0  0  0  0
    5.9812    5.7178    1.7678 C   0  0  0  0  0  0  0  0  0  0  0  0
    7.2944    5.2017    1.5769 C   0  0  0  0  0  0  0  0  0  0  0  0
    6.9232    1.3966    1.3875 C   0  0  0  0  0  0  0  0  0  0  0  0
    7.6677    0.9479    0.5240 O   0  0  0  0  0  0  0  0  0  0  0  0
    6.5454   -0.7143    2.8197 C   0  0  0  0  0  0  0  0  0  0  0  0
    7.4756   -0.6261    3.8758 C   0  0  0  0  0  0  0  0  0  0  0  0
    7.9169   -1.7732    4.5418 C   0  0  0  0  0  0  0  0  0  0  0  0
    9.0068   -1.6245    5.8645 Cl  0  0  0  0  0  0  0  0  0  0  0  0
    7.4646   -3.0315    4.1604 C   0  0  0  0  0  0  0  0  0  0  0  0
    6.5925   -3.1469    3.0790 C   0  0  0  0  0  0  0  0  0  0  0  0
    6.1480   -2.0009    2.3990 C   0  0  0  0  0  0  0  0  0  0  0  0
    5.3288   -2.1932    1.1692 C   0  0  0  0  0  0  0  0  0  0  0  0
    5.0507   -3.3207    0.7719 O   0  0  0  0  0  0  0  0  0  0  0  0
    5.0271   -0.0865   -1.8711 C   0  0  0  0  0  0  0  0  0  0  0  0
    5.4277   -1.5208   -1.9600 C   0  0  0  0  0  0  0  0  0  0  0  0
    1.4167   -4.3610   -0.4232 H   0  0  0  0  0  0  0  0  0  0  0  0
    0.9786   -3.1852   -1.7008 H   0  0  0  0  0  0  0  0  0  0  0  0
    0.7643   -2.7524    0.0154 H   0  0  0  0  0  0  0  0  0  0  0  0
    3.4730   -3.3102   -0.2107 H   0  0  0  0  0  0  0  0  0  0  0  0
    3.8574   -0.0075    1.8508 H   0  0  0  0  0  0  0  0  0  0  0  0
    4.5301    1.0137    0.5796 H   0  0  0  0  0  0  0  0  0  0  0  0
    5.6133    1.1872    4.2973 H   0  0  0  0  0  0  0  0  0  0  0  0
    4.3187    1.6084    3.2201 H   0  0  0  0  0  0  0  0  0  0  0  0
    6.7710    3.0801    3.7956 H   0  0  0  0  0  0  0  0  0  0  0  0
    5.2714    3.6005    2.9933 H   0  0  0  0  0  0  0  0  0  0  0  0
    9.2769    2.5627    0.6768 H   0  0  0  0  0  0  0  0  0  0  0  0
   10.4559    6.4262    1.2449 H   0  0  0  0  0  0  0  0  0  0  0  0
    8.8735    8.2624    1.7387 H   0  0  0  0  0  0  0  0  0  0  0  0
    6.5808    9.0393    2.1826 H   0  0  0  0  0  0  0  0  0  0  0  0
    4.7064    7.4175    2.1670 H   0  0  0  0  0  0  0  0  0  0  0  0
    5.1142    5.0702    1.6742 H   0  0  0  0  0  0  0  0  0  0  0  0
    7.8509    0.3419    4.2027 H   0  0  0  0  0  0  0  0  0  0  0  0
    7.7994   -3.9245    4.6825 H   0  0  0  0  0  0  0  0  0  0  0  0
    6.2711   -4.1369    2.7574 H   0  0  0  0  0  0  0  0  0  0  0  0
    5.7775    0.6219   -1.5384 H   0  0  0  0  0  0  0  0  0  0  0  0
    4.3586    0.3090   -2.6271 H   0  0  0  0  0  0  0  0  0  0  0  0
    6.4413   -1.7791   -1.6731 H   0  0  0  0  0  0  0  0  0  0  0  0
    5.0416   -2.1053   -2.7869 H   0  0  0  0  0  0  0  0  0  0  0  0
  1  2  1  0  0  0  0
  1 35  1  0  0  0  0
  1 36  1  0  0  0  0
  1 37  1  0  0  0  0
  2  3  1  0  0  0  0
  2 38  1  0  0  0  0
  3  4  2  0  0  0  0
  3  5  1  0  0  0  0
  5  6  1  0  0  0  0
  5 33  1  0  0  0  0
  5 34  1  0  0  0  0
  6  7  1  0  0  0  0
  6 31  1  0  0  0  0
  7  8  1  0  0  0  0
  7 39  1  0  0  0  0
  7 40  1  0  0  0  0
  8  9  1  0  0  0  0
  8 22  1  6  0  0  0
  8 24  1  0  0  0  0
  9 10  1  0  0  0  0
  9 41  1  0  0  0  0
  9 42  1  0  0  0  0
 10 11  1  0  0  0  0
 10 43  1  0  0  0  0
 10 44  1  0  0  0  0
 11 12  1  0  0  0  0
 11 22  1  0  0  0  0
 12 13  1  0  0  0  0
 12 21  2  0  0  0  0
 13 14  2  0  0  0  0
 13 45  1  0  0  0  0
 14 15  1  0  0  0  0
 15 16  2  0  0  0  0
 15 46  1  0  0  0  0
 16 17  1  0  0  0  0
 16 21  1  0  0  0  0
 17 18  2  0  0  0  0
 17 47  1  0  0  0  0
 18 19  1  0  0  0  0
 18 48  1  0  0  0  0
 19 20  2  0  0  0  0
 19 49  1  0  0  0  0
 20 21  1  0  0  0  0
 20 50  1  0  0  0  0
 22 23  2  0  0  0  0
 24 25  1  0  0  0  0
 24 30  2  0  0  0  0
 25 26  2  0  0  0  0
 25 51  1  0  0  0  0
 26 27  1  0  0  0  0
 26 28  1  0  0  0  0
 28 29  2  0  0  0  0
 28 52  1  0  0  0  0
 29 30  1  0  0  0  0
 29 53  1  0  0  0  0
 30 31  1  0  0  0  0
 31 32  2  0  0  0  0
 33 34  1  0  0  0  0
 33 54  1  0  0  0  0
 33 55  1  0  0  0  0
 34 56  1  0  0  0  0
 34 57  1  0  0  0  0
M  END
$$$$
