
 OpenBabel07202414143D

 52 55  0  0  1  0  0  0  0  0999 V2000
    1.6302   -1.8579   -1.3011 C   0  0  0  0  0  0  0  0  0  0  0  0
    2.9293   -1.5614   -0.7556 N   0  0  0  0  0  0  0  0  0  0  0  0
    3.0750   -1.1841    0.5620 C   0  0  0  0  0  0  0  0  0  0  0  0
    2.1161   -1.0900    1.3277 O   0  0  0  0  0  0  0  0  0  0  0  0
    4.5392   -0.9999    1.0217 C   0  0  1  0  0  0  0  0  0  0  0  0
    4.6509    0.3887    1.6526 C   0  0  0  0  0  0  0  0  0  0  0  0
    5.0738   -2.0787    1.8856 N   0  0  0  0  0  0  0  0  0  0  0  0
    4.2351   -3.1751    2.3687 C   0  0  0  0  0  0  0  0  0  0  0  0
    4.6563   -4.5211    1.7802 C   0  0  1  0  0  0  0  0  0  0  0  0
    4.2526   -4.6265    0.3068 C   0  0  0  0  0  0  0  0  0  0  0  0
    4.9294   -4.1323   -0.5978 O   0  0  0  0  0  0  0  0  0  0  0  0
    3.0577   -5.3059    0.1286 N   0  0  0  0  0  0  0  0  0  0  0  0
    2.3937   -5.5991   -1.0952 C   0  0  0  0  0  0  0  0  0  0  0  0
    2.9191   -5.2563   -2.3403 C   0  0  0  0  0  0  0  0  0  0  0  0
    2.2440   -5.3593   -3.5115 N   0  0  0  0  0  0  0  0  0  0  0  0
    1.0044   -5.8851   -3.4479 C   0  0  0  0  0  0  0  0  0  0  0  0
    0.4145   -6.3827   -2.2893 C   0  0  0  0  0  0  0  0  0  0  0  0
   -0.8395   -7.0237   -2.3280 C   0  0  0  0  0  0  0  0  0  0  0  0
   -1.4059   -7.5558   -1.1765 C   0  0  0  0  0  0  0  0  0  0  0  0
   -0.7361   -7.4350    0.0321 C   0  0  0  0  0  0  0  0  0  0  0  0
    0.5011   -6.7843    0.0877 C   0  0  0  0  0  0  0  0  0  0  0  0
    1.1207   -6.2425   -1.0699 C   0  0  0  0  0  0  0  0  0  0  0  0
    6.1383   -4.7178    2.0107 C   0  0  0  0  0  0  0  0  0  0  0  0
    6.6794   -6.0117    2.0690 C   0  0  0  0  0  0  0  0  0  0  0  0
    8.0462   -6.1871    2.2835 C   0  0  0  0  0  0  0  0  0  0  0  0
    8.6972   -7.7782    2.3444 Cl  0  0  0  0  0  0  0  0  0  0  0  0
    8.8849   -5.0860    2.4441 C   0  0  0  0  0  0  0  0  0  0  0  0
    8.3570   -3.7938    2.3781 C   0  0  0  0  0  0  0  0  0  0  0  0
    6.9867   -3.6036    2.1592 C   0  0  0  0  0  0  0  0  0  0  0  0
    6.4618   -2.2155    1.9672 C   0  0  0  0  0  0  0  0  0  0  0  0
    7.2476   -1.2895    1.7995 O   0  0  0  0  0  0  0  0  0  0  0  0
    1.7386   -2.1095   -2.3577 H   0  0  0  0  0  0  0  0  0  0  0  0
    0.9820   -0.9842   -1.1864 H   0  0  0  0  0  0  0  0  0  0  0  0
    1.1954   -2.6991   -0.7552 H   0  0  0  0  0  0  0  0  0  0  0  0
    3.7519   -1.7737   -1.3113 H   0  0  0  0  0  0  0  0  0  0  0  0
    5.1739   -0.9962    0.1253 H   0  0  0  0  0  0  0  0  0  0  0  0
    4.0879    0.4517    2.5890 H   0  0  0  0  0  0  0  0  0  0  0  0
    4.2488    1.1475    0.9695 H   0  0  0  0  0  0  0  0  0  0  0  0
    5.6887    0.6610    1.8644 H   0  0  0  0  0  0  0  0  0  0  0  0
    3.1715   -2.9911    2.2231 H   0  0  0  0  0  0  0  0  0  0  0  0
    4.3886   -3.2076    3.4570 H   0  0  0  0  0  0  0  0  0  0  0  0
    4.1293   -5.3040    2.3433 H   0  0  0  0  0  0  0  0  0  0  0  0
    2.5342   -5.5170    0.9666 H   0  0  0  0  0  0  0  0  0  0  0  0
    3.9246   -4.8724   -2.4664 H   0  0  0  0  0  0  0  0  0  0  0  0
    0.4841   -5.9133   -4.4046 H   0  0  0  0  0  0  0  0  0  0  0  0
   -1.3711   -7.1331   -3.2750 H   0  0  0  0  0  0  0  0  0  0  0  0
   -2.3599   -8.0735   -1.2242 H   0  0  0  0  0  0  0  0  0  0  0  0
   -1.1686   -7.8568    0.9362 H   0  0  0  0  0  0  0  0  0  0  0  0
    0.9843   -6.7473    1.0602 H   0  0  0  0  0  0  0  0  0  0  0  0
    6.0407   -6.8823    1.9386 H   0  0  0  0  0  0  0  0  0  0  0  0
    9.9515   -5.2238    2.6019 H   0  0  0  0  0  0  0  0  0  0  0  0
    9.0199   -2.9356    2.4744 H   0  0  0  0  0  0  0  0  0  0  0  0
  1  2  1  0  0  0  0
  1 32  1  0  0  0  0
  1 33  1  0  0  0  0
  1 34  1  0  0  0  0
  2  3  1  0  0  0  0
  2 35  1  0  0  0  0
  3  4  2  0  0  0  0
  3  5  1  0  0  0  0
  5  6  1  0  0  0  0
  5  7  1  0  0  0  0
  5 36  1  6  0  0  0
  6 37  1  0  0  0  0
  6 38  1  0  0  0  0
  6 39  1  0  0  0  0
  7  8  1  0  0  0  0
  7 30  1  0  0  0  0
  8  9  1  0  0  0  0
  8 40  1  0  0  0  0
  8 41  1  0  0  0  0
  9 10  1  0  0  0  0
  9 23  1  0  0  0  0
  9 42  1  1  0  0  0
 10 11  2  0  0  0  0
 10 12  1  0  0  0  0
 12 13  1  0  0  0  0
 12 43  1  0  0  0  0
 13 14  1  0  0  0  0
 13 22  2  0  0  0  0
 14 15  2  0  0  0  0
 14 44  1  0  0  0  0
 15 16  1  0  0  0  0
 16 17  2  0  0  0  0
 16 45  1  0  0  0  0
 17 18  1  0  0  0  0
 17 22  1  0  0  0  0
 18 19  2  0  0  0  0
 18 46  1  0  0  0  0
 19 20  1  0  0  0  0
 19 47  1  0  0  0  0
 20 21  2  0  0  0  0
 20 48  1  0  0  0  0
 21 22  1  0  0  0  0
 21 49  1  0  0  0  0
 23 24  1  0  0  0  0
 23 29  2  0  0  0  0
 24 25  2  0  0  0  0
 24 50  1  0  0  0  0
 25 26  1  0  0  0  0
 25 27  1  0  0  0  0
 27 28  2  0  0  0  0
 27 51  1  0  0  0  0
 28 29  1  0  0  0  0
 28 52  1  0  0  0  0
 29 30  1  0  0  0  0
 30 31  2  0  0  0  0
M  END
$$$$
