
 OpenBabel07202414193D

 70 74  0  0  1  0  0  0  0  0999 V2000
   -7.3915   -7.7618   -8.5764 F   0  0  0  0  0  0  0  0  0  0  0  0
   -8.2637   -7.6387   -7.5678 C   0  0  0  0  0  0  0  0  0  0  0  0
   -9.3328   -8.5211   -7.4780 C   0  0  0  0  0  0  0  0  0  0  0  0
  -10.2320   -8.3997   -6.4209 C   0  0  0  0  0  0  0  0  0  0  0  0
  -10.0547   -7.3959   -5.4617 C   0  0  0  0  0  0  0  0  0  0  0  0
   -8.9764   -6.5008   -5.5522 C   0  0  0  0  0  0  0  0  0  0  0  0
   -8.7364   -5.4733   -4.4649 C   0  0  0  0  0  0  0  0  0  0  0  0
   -7.8725   -6.0863   -3.3630 C   0  0  0  0  0  0  0  0  0  0  0  0
   -7.5650   -5.2120   -2.2423 N   0  0  0  0  0  0  0  0  0  0  0  0
   -6.6911   -5.6939   -1.2751 C   0  0  0  0  0  0  0  0  0  0  0  0
   -6.1623   -6.7993   -1.3935 O   0  0  0  0  0  0  0  0  0  0  0  0
   -6.3693   -4.7399   -0.0912 C   0  0  3  0  0  0  0  0  0  0  0  0
   -6.0633   -5.4995    1.1631 N   0  0  0  0  0  0  0  0  0  0  0  0
   -7.1793   -6.0243    2.0286 C   0  0  0  0  0  0  0  0  0  0  0  0
   -7.3468   -7.5522    2.0089 C   0  0  0  0  0  0  0  0  0  0  0  0
   -8.1998   -8.0316    0.8628 C   0  0  0  0  0  0  0  0  0  0  0  0
   -9.5310   -7.4619    0.9909 N   0  0  0  0  0  0  0  0  0  0  0  0
  -10.5775   -8.2222    0.4568 C   0  0  0  0  0  0  0  0  0  0  0  0
  -11.8677   -8.1278    0.9924 C   0  0  0  0  0  0  0  0  0  0  0  0
  -12.8687   -9.0468    0.6512 C   0  0  0  0  0  0  0  0  0  0  0  0
  -12.6094  -10.0652   -0.2614 C   0  0  0  0  0  0  0  0  0  0  0  0
  -11.3638  -10.1352   -0.8693 C   0  0  0  0  0  0  0  0  0  0  0  0
  -10.3684   -9.2169   -0.5204 C   0  0  0  0  0  0  0  0  0  0  0  0
   -9.6521   -6.0063    1.0954 C   0  0  0  0  0  0  0  0  0  0  0  0
   -8.5771   -5.3672    1.9954 C   0  0  0  0  0  0  0  0  0  0  0  0
   -4.7436   -6.0466    1.2984 C   0  0  0  0  0  0  0  0  0  0  0  0
   -3.9016   -5.9005    0.4125 O   0  0  0  0  0  0  0  0  0  0  0  0
   -4.3972   -6.8472    2.4783 C   0  0  0  0  0  0  0  0  0  0  0  0
   -3.5672   -7.9532    2.5964 C   0  0  0  0  0  0  0  0  0  0  0  0
   -3.6688   -8.4119    3.9339 C   0  0  0  0  0  0  0  0  0  0  0  0
   -4.5178   -7.5398    4.5690 C   0  0  0  0  0  0  0  0  0  0  0  0
   -4.9361   -6.5764    3.7101 O   0  0  0  0  0  0  0  0  0  0  0  0
   -5.3813   -3.6588   -0.5343 C   0  0  0  0  0  0  0  0  0  0  0  0
   -4.4842   -3.8442   -1.6029 C   0  0  0  0  0  0  0  0  0  0  0  0
   -3.7130   -2.7926   -2.0948 C   0  0  0  0  0  0  0  0  0  0  0  0
   -3.8469   -1.5585   -1.4898 C   0  0  0  0  0  0  0  0  0  0  0  0
   -4.6598   -1.3345   -0.4317 N   0  0  0  0  0  0  0  0  0  0  0  0
   -5.3847   -2.3920    0.0318 C   0  0  0  0  0  0  0  0  0  0  0  0
   -8.0766   -6.6348   -6.6195 C   0  0  0  0  0  0  0  0  0  0  0  0
   -9.4523   -9.2999   -8.2246 H   0  0  0  0  0  0  0  0  0  0  0  0
  -11.0663   -9.0919   -6.3358 H   0  0  0  0  0  0  0  0  0  0  0  0
  -10.7569   -7.3300   -4.6326 H   0  0  0  0  0  0  0  0  0  0  0  0
   -9.6961   -5.1280   -4.0601 H   0  0  0  0  0  0  0  0  0  0  0  0
   -8.2514   -4.5860   -4.8915 H   0  0  0  0  0  0  0  0  0  0  0  0
   -6.9174   -6.4135   -3.7874 H   0  0  0  0  0  0  0  0  0  0  0  0
   -8.3619   -6.9725   -2.9460 H   0  0  0  0  0  0  0  0  0  0  0  0
   -8.0690   -4.3433   -2.1059 H   0  0  0  0  0  0  0  0  0  0  0  0
   -7.2979   -4.1923    0.1026 H   0  0  0  0  0  0  0  0  0  0  0  0
   -6.8347   -5.7572    3.0317 H   0  0  0  0  0  0  0  0  0  0  0  0
   -7.8305   -7.8535    2.9494 H   0  0  0  0  0  0  0  0  0  0  0  0
   -6.4091   -8.1031    1.9658 H   0  0  0  0  0  0  0  0  0  0  0  0
   -8.2278   -9.1261    0.9454 H   0  0  0  0  0  0  0  0  0  0  0  0
   -7.7691   -7.7976   -0.1069 H   0  0  0  0  0  0  0  0  0  0  0  0
  -12.0899   -7.3896    1.7566 H   0  0  0  0  0  0  0  0  0  0  0  0
  -13.8391   -8.9893    1.1359 H   0  0  0  0  0  0  0  0  0  0  0  0
  -13.3703  -10.8065   -0.4884 H   0  0  0  0  0  0  0  0  0  0  0  0
  -11.1474  -10.9204   -1.5893 H   0  0  0  0  0  0  0  0  0  0  0  0
   -9.4037   -9.3198   -1.0124 H   0  0  0  0  0  0  0  0  0  0  0  0
  -10.6201   -5.7390    1.5387 H   0  0  0  0  0  0  0  0  0  0  0  0
   -9.6244   -5.5494    0.1012 H   0  0  0  0  0  0  0  0  0  0  0  0
   -8.9677   -5.4597    3.0222 H   0  0  0  0  0  0  0  0  0  0  0  0
   -8.5202   -4.2867    1.8265 H   0  0  0  0  0  0  0  0  0  0  0  0
   -3.0045   -8.4024    1.7890 H   0  0  0  0  0  0  0  0  0  0  0  0
   -3.1925   -9.2753    4.3782 H   0  0  0  0  0  0  0  0  0  0  0  0
   -4.9107   -7.4737    5.5746 H   0  0  0  0  0  0  0  0  0  0  0  0
   -4.3732   -4.8206   -2.0720 H   0  0  0  0  0  0  0  0  0  0  0  0
   -3.0433   -2.9335   -2.9258 H   0  0  0  0  0  0  0  0  0  0  0  0
   -3.2932   -0.6970   -1.8463 H   0  0  0  0  0  0  0  0  0  0  0  0
   -6.0107   -2.1433    0.8880 H   0  0  0  0  0  0  0  0  0  0  0  0
   -7.2161   -5.9799   -6.7166 H   0  0  0  0  0  0  0  0  0  0  0  0
  1  2  1  0  0  0  0
  2  3  1  0  0  0  0
  2 39  2  0  0  0  0
  3  4  2  0  0  0  0
  3 40  1  0  0  0  0
  4  5  1  0  0  0  0
  4 41  1  0  0  0  0
  5  6  2  0  0  0  0
  5 42  1  0  0  0  0
  6  7  1  0  0  0  0
  6 39  1  0  0  0  0
  7  8  1  0  0  0  0
  7 43  1  0  0  0  0
  7 44  1  0  0  0  0
  8  9  1  0  0  0  0
  8 45  1  0  0  0  0
  8 46  1  0  0  0  0
  9 10  1  0  0  0  0
  9 47  1  0  0  0  0
 10 11  2  0  0  0  0
 10 12  1  0  0  0  0
 12 13  1  0  0  0  0
 12 33  1  0  0  0  0
 12 48  1  0  0  0  0
 13 14  1  0  0  0  0
 13 26  1  0  0  0  0
 14 15  1  0  0  0  0
 14 25  1  0  0  0  0
 14 49  1  0  0  0  0
 15 16  1  0  0  0  0
 15 50  1  0  0  0  0
 15 51  1  0  0  0  0
 16 17  1  0  0  0  0
 16 52  1  0  0  0  0
 16 53  1  0  0  0  0
 17 18  1  0  0  0  0
 17 24  1  0  0  0  0
 18 19  1  0  0  0  0
 18 23  2  0  0  0  0
 19 20  2  0  0  0  0
 19 54  1  0  0  0  0
 20 21  1  0  0  0  0
 20 55  1  0  0  0  0
 21 22  2  0  0  0  0
 21 56  1  0  0  0  0
 22 23  1  0  0  0  0
 22 57  1  0  0  0  0
 23 58  1  0  0  0  0
 24 25  1  0  0  0  0
 24 59  1  0  0  0  0
 24 60  1  0  0  0  0
 25 61  1  0  0  0  0
 25 62  1  0  0  0  0
 26 27  2  0  0  0  0
 26 28  1  0  0  0  0
 28 29  2  0  0  0  0
 28 32  1  0  0  0  0
 29 30  1  0  0  0  0
 29 63  1  0  0  0  0
 30 31  2  0  0  0  0
 30 64  1  0  0  0  0
 31 32  1  0  0  0  0
 31 65  1  0  0  0  0
 33 34  1  0  0  0  0
 33 38  2  0  0  0  0
 34 35  2  0  0  0  0
 34 66  1  0  0  0  0
 35 36  1  0  0  0  0
 35 67  1  0  0  0  0
 36 37  2  0  0  0  0
 36 68  1  0  0  0  0
 37 38  1  0  0  0  0
 38 69  1  0  0  0  0
 39 70  1  0  0  0  0
M  END
$$$$
