
 OpenBabel07202414153D

 42 45  0  0  1  0  0  0  0  0999 V2000
    1.0487    0.2736    0.1033 C   0  0  0  0  0  0  0  0  0  0  0  0
    2.5627    0.1349    0.2050 C   0  0  2  0  0  0  0  0  0  0  0  0
    2.9399   -1.0381    1.0985 C   0  0  0  0  0  0  0  0  0  0  0  0
    4.4612   -1.2001    1.0846 C   0  0  1  0  0  0  0  0  0  0  0  0
    5.1618    0.1370    1.1659 C   0  0  0  0  0  0  0  0  0  0  0  0
    6.5570    0.2196    1.3066 C   0  0  0  0  0  0  0  0  0  0  0  0
    7.1885    1.4649    1.3374 C   0  0  0  0  0  0  0  0  0  0  0  0
    6.4474    2.6382    1.2220 C   0  0  0  0  0  0  0  0  0  0  0  0
    5.0661    2.5654    1.0469 C   0  0  0  0  0  0  0  0  0  0  0  0
    4.4335    1.3230    0.9894 C   0  0  0  0  0  0  0  0  0  0  0  0
    3.0833    1.3522    0.7566 O   0  0  0  0  0  0  0  0  0  0  0  0
    8.8974    1.5497    1.5129 Cl  0  0  0  0  0  0  0  0  0  0  0  0
    4.8329   -2.2572    2.1254 C   0  0  0  0  0  0  0  0  0  0  0  0
    4.8511   -3.4355    1.7624 O   0  0  0  0  0  0  0  0  0  0  0  0
    5.0489   -1.8278    3.4258 N   0  0  0  0  0  0  0  0  0  0  0  0
    5.3240   -2.6967    4.5272 C   0  0  0  0  0  0  0  0  0  0  0  0
    5.0179   -4.0604    4.4793 C   0  0  0  0  0  0  0  0  0  0  0  0
    5.3548   -4.9749    5.4184 N   0  0  0  0  0  0  0  0  0  0  0  0
    6.0484   -4.5124    6.4736 C   0  0  0  0  0  0  0  0  0  0  0  0
    6.3624   -3.1733    6.6835 C   0  0  0  0  0  0  0  0  0  0  0  0
    5.9572   -2.2195    5.7147 C   0  0  0  0  0  0  0  0  0  0  0  0
    6.2305   -0.8592    6.0158 C   0  0  0  0  0  0  0  0  0  0  0  0
    6.8956   -0.4841    7.1915 C   0  0  0  0  0  0  0  0  0  0  0  0
    7.3314   -1.4485    8.0914 C   0  0  0  0  0  0  0  0  0  0  0  0
    7.0629   -2.7888    7.8392 C   0  0  0  0  0  0  0  0  0  0  0  0
    0.5975   -0.6239   -0.3324 H   0  0  0  0  0  0  0  0  0  0  0  0
    0.7836    1.1331   -0.5212 H   0  0  0  0  0  0  0  0  0  0  0  0
    0.6024    0.4475    1.0882 H   0  0  0  0  0  0  0  0  0  0  0  0
    2.9630    0.0034   -0.8104 H   0  0  0  0  0  0  0  0  0  0  0  0
    2.4632   -1.9640    0.7546 H   0  0  0  0  0  0  0  0  0  0  0  0
    2.5903   -0.8528    2.1229 H   0  0  0  0  0  0  0  0  0  0  0  0
    4.7497   -1.6167    0.1077 H   0  0  0  0  0  0  0  0  0  0  0  0
    7.1592   -0.6850    1.3739 H   0  0  0  0  0  0  0  0  0  0  0  0
    6.9375    3.6079    1.2459 H   0  0  0  0  0  0  0  0  0  0  0  0
    4.4842    3.4760    0.9260 H   0  0  0  0  0  0  0  0  0  0  0  0
    5.2406   -0.8437    3.5571 H   0  0  0  0  0  0  0  0  0  0  0  0
    4.4470   -4.4966    3.6651 H   0  0  0  0  0  0  0  0  0  0  0  0
    6.3423   -5.2823    7.1821 H   0  0  0  0  0  0  0  0  0  0  0  0
    5.9038   -0.0614    5.3579 H   0  0  0  0  0  0  0  0  0  0  0  0
    7.0745    0.5676    7.4051 H   0  0  0  0  0  0  0  0  0  0  0  0
    7.8671   -1.1608    8.9933 H   0  0  0  0  0  0  0  0  0  0  0  0
    7.4000   -3.5360    8.5566 H   0  0  0  0  0  0  0  0  0  0  0  0
  1  2  1  0  0  0  0
  1 26  1  0  0  0  0
  1 27  1  0  0  0  0
  1 28  1  0  0  0  0
  2  3  1  0  0  0  0
  2 11  1  0  0  0  0
  2 29  1  6  0  0  0
  3  4  1  0  0  0  0
  3 30  1  0  0  0  0
  3 31  1  0  0  0  0
  4  5  1  0  0  0  0
  4 13  1  0  0  0  0
  4 32  1  6  0  0  0
  5  6  1  0  0  0  0
  5 10  2  0  0  0  0
  6  7  2  0  0  0  0
  6 33  1  0  0  0  0
  7  8  1  0  0  0  0
  7 12  1  0  0  0  0
  8  9  2  0  0  0  0
  8 34  1  0  0  0  0
  9 10  1  0  0  0  0
  9 35  1  0  0  0  0
 10 11  1  0  0  0  0
 13 14  2  0  0  0  0
 13 15  1  0  0  0  0
 15 16  1  0  0  0  0
 15 36  1  0  0  0  0
 16 17  1  0  0  0  0
 16 21  2  0  0  0  0
 17 18  2  0  0  0  0
 17 37  1  0  0  0  0
 18 19  1  0  0  0  0
 19 20  2  0  0  0  0
 19 38  1  0  0  0  0
 20 21  1  0  0  0  0
 20 25  1  0  0  0  0
 21 22  1  0  0  0  0
 22 23  2  0  0  0  0
 22 39  1  0  0  0  0
 23 24  1  0  0  0  0
 23 40  1  0  0  0  0
 24 25  2  0  0  0  0
 24 41  1  0  0  0  0
 25 42  1  0  0  0  0
M  END
$$$$
