
 OpenBabel07202414173D

 41 44  0  0  1  0  0  0  0  0999 V2000
    1.5538   -2.3094   -1.6805 Cl  0  0  0  0  0  0  0  0  0  0  0  0
    1.1354   -0.9940   -0.6540 C   0  0  0  0  0  0  0  0  0  0  0  0
    1.7914    0.2271   -0.7995 C   0  0  0  0  0  0  0  0  0  0  0  0
    1.4618    1.3066    0.0320 C   0  0  0  0  0  0  0  0  0  0  0  0
    2.2092    2.6110   -0.1049 C   0  0  0  0  0  0  0  0  0  0  0  0
    1.3128    3.8193   -0.3023 C   0  0  0  0  0  0  0  0  0  0  0  0
    1.1525    4.6365    0.6003 O   0  0  0  0  0  0  0  0  0  0  0  0
    0.7662    3.9190   -1.5636 N   0  0  0  0  0  0  0  0  0  0  0  0
   -0.0610    4.9506   -1.8841 N   0  0  0  0  0  0  0  0  0  0  0  0
    0.1435    6.2647   -1.5769 C   0  0  0  0  0  0  0  0  0  0  0  0
   -0.7466    7.0395   -2.1575 N   0  0  0  0  0  0  0  0  0  0  0  0
   -1.5189    6.1868   -2.9088 C   0  0  0  0  0  0  0  0  0  0  0  0
   -2.5900    6.4952   -3.7598 C   0  0  0  0  0  0  0  0  0  0  0  0
   -3.2041    5.4600   -4.4697 C   0  0  0  0  0  0  0  0  0  0  0  0
   -2.7693    4.1413   -4.3311 C   0  0  0  0  0  0  0  0  0  0  0  0
   -1.7113    3.8068   -3.4730 C   0  0  0  0  0  0  0  0  0  0  0  0
   -1.1034    4.8589   -2.7720 C   0  0  0  0  0  0  0  0  0  0  0  0
    0.4755    1.1346    1.0228 C   0  0  0  0  0  0  0  0  0  0  0  0
   -0.1693   -0.0966    1.1651 C   0  0  0  0  0  0  0  0  0  0  0  0
   -1.1529   -0.3735    2.0815 O   0  0  0  0  0  0  0  0  0  0  0  0
   -1.2116    0.3890    3.3006 C   0  0  3  0  0  0  0  0  0  0  0  0
   -0.0885    0.1766    4.3399 C   0  0  0  0  0  0  0  0  0  0  0  0
   -1.1416   -0.6273    5.1007 C   0  0  0  0  0  0  0  0  0  0  0  0
   -1.1732   -1.4384    5.9934 O   0  0  0  0  0  0  0  0  0  0  0  0
   -2.1397   -0.1630    4.3017 N   0  0  0  0  0  0  0  0  0  0  0  0
    0.1555   -1.1560    0.3173 C   0  0  0  0  0  0  0  0  0  0  0  0
    2.5696    0.3280   -1.5537 H   0  0  0  0  0  0  0  0  0  0  0  0
    2.9206    2.5735   -0.9396 H   0  0  0  0  0  0  0  0  0  0  0  0
    2.8105    2.7666    0.7998 H   0  0  0  0  0  0  0  0  0  0  0  0
    0.7569    3.1371   -2.2030 H   0  0  0  0  0  0  0  0  0  0  0  0
    0.9380    6.6051   -0.9277 H   0  0  0  0  0  0  0  0  0  0  0  0
   -2.9189    7.5232   -3.8660 H   0  0  0  0  0  0  0  0  0  0  0  0
   -4.0281    5.6925   -5.1445 H   0  0  0  0  0  0  0  0  0  0  0  0
   -3.2636    3.3580   -4.9041 H   0  0  0  0  0  0  0  0  0  0  0  0
   -1.3887    2.7771   -3.3695 H   0  0  0  0  0  0  0  0  0  0  0  0
    0.2235    1.9741    1.6675 H   0  0  0  0  0  0  0  0  0  0  0  0
   -1.4638    1.4397    3.1131 H   0  0  0  0  0  0  0  0  0  0  0  0
    0.2501    1.0769    4.8592 H   0  0  0  0  0  0  0  0  0  0  0  0
    0.7654   -0.4209    4.0144 H   0  0  0  0  0  0  0  0  0  0  0  0
   -2.9052   -0.8005    4.1251 H   0  0  0  0  0  0  0  0  0  0  0  0
   -0.3542   -2.1101    0.4282 H   0  0  0  0  0  0  0  0  0  0  0  0
  1  2  1  0  0  0  0
  2  3  1  0  0  0  0
  2 26  2  0  0  0  0
  3  4  2  0  0  0  0
  3 27  1  0  0  0  0
  4  5  1  0  0  0  0
  4 18  1  0  0  0  0
  5  6  1  0  0  0  0
  5 28  1  0  0  0  0
  5 29  1  0  0  0  0
  6  7  2  0  0  0  0
  6  8  1  0  0  0  0
  8  9  1  0  0  0  0
  8 30  1  0  0  0  0
  9 10  1  0  0  0  0
  9 17  1  0  0  0  0
 10 11  2  0  0  0  0
 10 31  1  0  0  0  0
 11 12  1  0  0  0  0
 12 13  1  0  0  0  0
 12 17  2  0  0  0  0
 13 14  2  0  0  0  0
 13 32  1  0  0  0  0
 14 15  1  0  0  0  0
 14 33  1  0  0  0  0
 15 16  2  0  0  0  0
 15 34  1  0  0  0  0
 16 17  1  0  0  0  0
 16 35  1  0  0  0  0
 18 19  2  0  0  0  0
 18 36  1  0  0  0  0
 19 20  1  0  0  0  0
 19 26  1  0  0  0  0
 20 21  1  0  0  0  0
 21 22  1  0  0  0  0
 21 25  1  0  0  0  0
 21 37  1  0  0  0  0
 22 23  1  0  0  0  0
 22 38  1  0  0  0  0
 22 39  1  0  0  0  0
 23 24  2  0  0  0  0
 23 25  1  0  0  0  0
 25 40  1  0  0  0  0
 26 41  1  0  0  0  0
M  END
$$$$
