
 OpenBabel07202414123D

 53 57  0  0  1  0  0  0  0  0999 V2000
    1.1824    0.2764   -0.0535 C   0  0  0  0  0  0  0  0  0  0  0  0
    2.7295    0.3412   -0.1359 C   0  0  3  0  0  0  0  0  0  0  0  0
    3.1156    1.0851   -1.4608 C   0  0  0  0  0  0  0  0  0  0  0  0
    2.2461    1.4399   -2.2554 O   0  0  0  0  0  0  0  0  0  0  0  0
    4.4657    1.3051   -1.6341 N   0  0  0  0  0  0  0  0  0  0  0  0
    5.1075    1.8836   -2.7722 C   0  0  0  0  0  0  0  0  0  0  0  0
    4.4126    2.3485   -3.8924 C   0  0  0  0  0  0  0  0  0  0  0  0
    4.9912    2.6866   -5.0697 N   0  0  0  0  0  0  0  0  0  0  0  0
    6.3365    2.6271   -5.1196 C   0  0  0  0  0  0  0  0  0  0  0  0
    7.1514    2.3426   -4.0261 C   0  0  0  0  0  0  0  0  0  0  0  0
    8.5502    2.4603   -4.1186 C   0  0  0  0  0  0  0  0  0  0  0  0
    9.3573    2.2096   -3.0135 C   0  0  0  0  0  0  0  0  0  0  0  0
    8.7771    1.8127   -1.8186 C   0  0  0  0  0  0  0  0  0  0  0  0
    7.3908    1.6821   -1.7170 C   0  0  0  0  0  0  0  0  0  0  0  0
    6.5304    1.9554   -2.8145 C   0  0  0  0  0  0  0  0  0  0  0  0
    3.2705   -1.1259   -0.2227 C   0  0  0  0  0  0  0  0  0  0  0  0
    2.9713   -1.8558    1.0491 N   0  0  0  0  0  0  0  0  0  0  0  0
    3.0814   -3.3410    1.0122 C   0  0  0  0  0  0  0  0  0  0  0  0
    2.1946   -4.0108    0.0076 C   0  0  0  0  0  0  0  0  0  0  0  0
    2.2206   -5.5247   -0.0496 C   0  0  0  0  0  0  0  0  0  0  0  0
    2.7775   -4.7225   -1.1885 C   0  0  0  0  0  0  0  0  0  0  0  0
    3.9086   -1.2664    2.3534 S   0  0  0  0  0  0  0  0  0  0  0  0
    3.3160   -1.7446    3.5832 O   0  0  0  0  0  0  0  0  0  0  0  0
    5.3023   -1.5015    2.0305 O   0  0  0  0  0  0  0  0  0  0  0  0
    3.6797    0.4796    2.2707 C   0  0  0  0  0  0  0  0  0  0  0  0
    4.0331    1.1978    3.4245 C   0  0  0  0  0  0  0  0  0  0  0  0
    3.9324    2.5838    3.4379 C   0  0  0  0  0  0  0  0  0  0  0  0
    3.4732    3.2410    2.3043 C   0  0  0  0  0  0  0  0  0  0  0  0
    3.3529    4.9578    2.3144 Cl  0  0  0  0  0  0  0  0  0  0  0  0
    3.1037    2.5247    1.1579 C   0  0  0  0  0  0  0  0  0  0  0  0
    3.2070    1.1166    1.1099 C   0  0  0  0  0  0  0  0  0  0  0  0
    0.7649   -0.2817   -0.9001 H   0  0  0  0  0  0  0  0  0  0  0  0
    0.7350    1.2778   -0.0768 H   0  0  0  0  0  0  0  0  0  0  0  0
    0.8411   -0.2080    0.8681 H   0  0  0  0  0  0  0  0  0  0  0  0
    5.0842    0.9658   -0.9120 H   0  0  0  0  0  0  0  0  0  0  0  0
    3.3342    2.4732   -3.9076 H   0  0  0  0  0  0  0  0  0  0  0  0
    6.7581    2.8308   -6.1018 H   0  0  0  0  0  0  0  0  0  0  0  0
    9.0175    2.7819   -5.0468 H   0  0  0  0  0  0  0  0  0  0  0  0
   10.4353    2.3366   -3.0815 H   0  0  0  0  0  0  0  0  0  0  0  0
    9.4026    1.6166   -0.9483 H   0  0  0  0  0  0  0  0  0  0  0  0
    7.0005    1.4069   -0.7428 H   0  0  0  0  0  0  0  0  0  0  0  0
    4.3496   -1.1518   -0.4143 H   0  0  0  0  0  0  0  0  0  0  0  0
    2.8005   -1.6361   -1.0714 H   0  0  0  0  0  0  0  0  0  0  0  0
    2.7694   -3.7251    1.9925 H   0  0  0  0  0  0  0  0  0  0  0  0
    4.1255   -3.6355    0.8556 H   0  0  0  0  0  0  0  0  0  0  0  0
    1.2149   -3.5533   -0.0633 H   0  0  0  0  0  0  0  0  0  0  0  0
    1.2860   -6.0522   -0.2053 H   0  0  0  0  0  0  0  0  0  0  0  0
    2.9193   -6.0608    0.5854 H   0  0  0  0  0  0  0  0  0  0  0  0
    2.2170   -4.7158   -2.1155 H   0  0  0  0  0  0  0  0  0  0  0  0
    3.8544   -4.7285   -1.3226 H   0  0  0  0  0  0  0  0  0  0  0  0
    4.3907    0.6739    4.3110 H   0  0  0  0  0  0  0  0  0  0  0  0
    4.2111    3.1359    4.3317 H   0  0  0  0  0  0  0  0  0  0  0  0
    2.7217    3.0830    0.3028 H   0  0  0  0  0  0  0  0  0  0  0  0
  1  2  1  0  0  0  0
  1 32  1  0  0  0  0
  1 33  1  0  0  0  0
  1 34  1  0  0  0  0
  2  3  1  0  0  0  0
  2 16  1  0  0  0  0
  2 31  1  0  0  0  0
  3  4  2  0  0  0  0
  3  5  1  0  0  0  0
  5  6  1  0  0  0  0
  5 35  1  0  0  0  0
  6  7  1  0  0  0  0
  6 15  2  0  0  0  0
  7  8  2  0  0  0  0
  7 36  1  0  0  0  0
  8  9  1  0  0  0  0
  9 10  2  0  0  0  0
  9 37  1  0  0  0  0
 10 11  1  0  0  0  0
 10 15  1  0  0  0  0
 11 12  2  0  0  0  0
 11 38  1  0  0  0  0
 12 13  1  0  0  0  0
 12 39  1  0  0  0  0
 13 14  2  0  0  0  0
 13 40  1  0  0  0  0
 14 15  1  0  0  0  0
 14 41  1  0  0  0  0
 16 17  1  0  0  0  0
 16 42  1  0  0  0  0
 16 43  1  0  0  0  0
 17 18  1  0  0  0  0
 17 22  1  0  0  0  0
 18 19  1  0  0  0  0
 18 44  1  0  0  0  0
 18 45  1  0  0  0  0
 19 20  1  0  0  0  0
 19 21  1  0  0  0  0
 19 46  1  0  0  0  0
 20 21  1  0  0  0  0
 20 47  1  0  0  0  0
 20 48  1  0  0  0  0
 21 49  1  0  0  0  0
 21 50  1  0  0  0  0
 22 23  2  0  0  0  0
 22 24  2  0  0  0  0
 22 25  1  0  0  0  0
 25 26  1  0  0  0  0
 25 31  2  0  0  0  0
 26 27  2  0  0  0  0
 26 51  1  0  0  0  0
 27 28  1  0  0  0  0
 27 52  1  0  0  0  0
 28 29  1  0  0  0  0
 28 30  2  0  0  0  0
 30 31  1  0  0  0  0
 30 53  1  0  0  0  0
M  END
$$$$
