
 OpenBabel07202414123D

 60 61  0  0  1  0  0  0  0  0999 V2000
    6.7171   -1.0198   -0.5256 C   0  0  0  0  0  0  0  0  0  0  0  0
    5.6590   -1.2582    0.5689 C   0  0  0  0  0  0  0  0  0  0  0  0
    4.3240   -1.6577   -0.0826 C   0  0  0  0  0  0  0  0  0  0  0  0
    6.1333   -2.4437    1.4293 C   0  0  0  0  0  0  0  0  0  0  0  0
    5.4861   -0.0664    1.4324 N   0  0  0  0  0  0  0  0  0  0  0  0
    5.0785    1.1615    0.9476 C   0  0  0  0  0  0  0  0  0  0  0  0
    4.8538    1.3470   -0.2515 O   0  0  0  0  0  0  0  0  0  0  0  0
    5.0476    2.3660    1.9245 C   0  0  3  0  0  0  0  0  0  0  0  0
    4.5795    2.1088    3.3143 N   0  0  0  0  0  0  0  0  0  0  0  0
    5.4446    1.8228    4.3673 C   0  0  0  0  0  0  0  0  0  0  0  0
    6.6398    1.5855    4.2073 O   0  0  0  0  0  0  0  0  0  0  0  0
    4.8616    1.8134    5.7531 C   0  0  0  0  0  0  0  0  0  0  0  0
    5.6296    1.8439    6.8507 C   0  0  0  0  0  0  0  0  0  0  0  0
    3.1846    2.2716    3.5150 C   0  0  0  0  0  0  0  0  0  0  0  0
    2.6909    3.5130    3.9057 C   0  0  0  0  0  0  0  0  0  0  0  0
    1.3258    3.6660    4.1850 C   0  0  0  0  0  0  0  0  0  0  0  0
    0.4294    2.5907    4.0844 C   0  0  0  0  0  0  0  0  0  0  0  0
   -1.0733    2.7435    4.3965 C   0  0  0  0  0  0  0  0  0  0  0  0
   -1.4744    4.1814    4.8023 C   0  0  0  0  0  0  0  0  0  0  0  0
   -1.9074    2.3691    3.1532 C   0  0  0  0  0  0  0  0  0  0  0  0
   -1.4778    1.8180    5.5652 C   0  0  0  0  0  0  0  0  0  0  0  0
    0.9605    1.3477    3.6716 C   0  0  0  0  0  0  0  0  0  0  0  0
    2.3244    1.1843    3.3922 C   0  0  0  0  0  0  0  0  0  0  0  0
    6.2871    3.2448    1.8121 C   0  0  0  0  0  0  0  0  0  0  0  0
    6.1689    4.6299    1.9235 C   0  0  0  0  0  0  0  0  0  0  0  0
    7.2046    5.4983    1.8464 N   0  0  0  0  0  0  0  0  0  0  0  0
    8.4317    4.9598    1.6490 C   0  0  0  0  0  0  0  0  0  0  0  0
    8.6632    3.6008    1.5204 C   0  0  0  0  0  0  0  0  0  0  0  0
   10.2500    2.9957    1.2681 Cl  0  0  0  0  0  0  0  0  0  0  0  0
    7.5777    2.7338    1.6012 C   0  0  0  0  0  0  0  0  0  0  0  0
    6.9131   -1.9389   -1.0915 H   0  0  0  0  0  0  0  0  0  0  0  0
    7.6664   -0.6841   -0.0931 H   0  0  0  0  0  0  0  0  0  0  0  0
    6.4026   -0.2645   -1.2525 H   0  0  0  0  0  0  0  0  0  0  0  0
    4.4269   -2.5729   -0.6769 H   0  0  0  0  0  0  0  0  0  0  0  0
    3.9426   -0.8824   -0.7590 H   0  0  0  0  0  0  0  0  0  0  0  0
    3.5524   -1.8314    0.6754 H   0  0  0  0  0  0  0  0  0  0  0  0
    6.2522   -3.3507    0.8229 H   0  0  0  0  0  0  0  0  0  0  0  0
    5.4176   -2.6686    2.2273 H   0  0  0  0  0  0  0  0  0  0  0  0
    7.1000   -2.2310    1.8991 H   0  0  0  0  0  0  0  0  0  0  0  0
    5.8655   -0.0901    2.3752 H   0  0  0  0  0  0  0  0  0  0  0  0
    4.2479    2.9783    1.4744 H   0  0  0  0  0  0  0  0  0  0  0  0
    3.7872    1.7867    5.8793 H   0  0  0  0  0  0  0  0  0  0  0  0
    6.7131    1.8815    6.7964 H   0  0  0  0  0  0  0  0  0  0  0  0
    5.1767    1.8410    7.8380 H   0  0  0  0  0  0  0  0  0  0  0  0
    3.3517    4.3652    4.0217 H   0  0  0  0  0  0  0  0  0  0  0  0
    0.9974    4.6535    4.4991 H   0  0  0  0  0  0  0  0  0  0  0  0
   -1.2478    4.9014    4.0074 H   0  0  0  0  0  0  0  0  0  0  0  0
   -0.9536    4.5031    5.7127 H   0  0  0  0  0  0  0  0  0  0  0  0
   -2.5491    4.2531    5.0061 H   0  0  0  0  0  0  0  0  0  0  0  0
   -1.6358    2.9923    2.2936 H   0  0  0  0  0  0  0  0  0  0  0  0
   -2.9789    2.5076    3.3406 H   0  0  0  0  0  0  0  0  0  0  0  0
   -1.7668    1.3228    2.8615 H   0  0  0  0  0  0  0  0  0  0  0  0
   -0.9232    2.0643    6.4784 H   0  0  0  0  0  0  0  0  0  0  0  0
   -1.2957    0.7614    5.3418 H   0  0  0  0  0  0  0  0  0  0  0  0
   -2.5470    1.9179    5.7920 H   0  0  0  0  0  0  0  0  0  0  0  0
    0.3075    0.4803    3.5774 H   0  0  0  0  0  0  0  0  0  0  0  0
    2.6942    0.2114    3.0844 H   0  0  0  0  0  0  0  0  0  0  0  0
    5.2023    5.1034    2.0768 H   0  0  0  0  0  0  0  0  0  0  0  0
    9.2454    5.6769    1.5966 H   0  0  0  0  0  0  0  0  0  0  0  0
    7.7483    1.6639    1.5162 H   0  0  0  0  0  0  0  0  0  0  0  0
  1  2  1  0  0  0  0
  1 31  1  0  0  0  0
  1 32  1  0  0  0  0
  1 33  1  0  0  0  0
  2  3  1  0  0  0  0
  2  4  1  0  0  0  0
  2  5  1  0  0  0  0
  3 34  1  0  0  0  0
  3 35  1  0  0  0  0
  3 36  1  0  0  0  0
  4 37  1  0  0  0  0
  4 38  1  0  0  0  0
  4 39  1  0  0  0  0
  5  6  1  0  0  0  0
  5 40  1  0  0  0  0
  6  7  2  0  0  0  0
  6  8  1  0  0  0  0
  8  9  1  0  0  0  0
  8 24  1  0  0  0  0
  8 41  1  0  0  0  0
  9 10  1  0  0  0  0
  9 14  1  0  0  0  0
 10 11  2  0  0  0  0
 10 12  1  0  0  0  0
 12 13  2  0  0  0  0
 12 42  1  0  0  0  0
 13 43  1  0  0  0  0
 13 44  1  0  0  0  0
 14 15  1  0  0  0  0
 14 23  2  0  0  0  0
 15 16  2  0  0  0  0
 15 45  1  0  0  0  0
 16 17  1  0  0  0  0
 16 46  1  0  0  0  0
 17 18  1  0  0  0  0
 17 22  2  0  0  0  0
 18 19  1  0  0  0  0
 18 20  1  0  0  0  0
 18 21  1  0  0  0  0
 19 47  1  0  0  0  0
 19 48  1  0  0  0  0
 19 49  1  0  0  0  0
 20 50  1  0  0  0  0
 20 51  1  0  0  0  0
 20 52  1  0  0  0  0
 21 53  1  0  0  0  0
 21 54  1  0  0  0  0
 21 55  1  0  0  0  0
 22 23  1  0  0  0  0
 22 56  1  0  0  0  0
 23 57  1  0  0  0  0
 24 25  1  0  0  0  0
 24 30  2  0  0  0  0
 25 26  2  0  0  0  0
 25 58  1  0  0  0  0
 26 27  1  0  0  0  0
 27 28  2  0  0  0  0
 27 59  1  0  0  0  0
 28 29  1  0  0  0  0
 28 30  1  0  0  0  0
 30 60  1  0  0  0  0
M  END
$$$$
