
 OpenBabel07202414163D

 62 66  0  0  1  0  0  0  0  0999 V2000
    1.2034    2.0476   -1.0192 C   0  0  0  0  0  0  0  0  0  0  0  0
    2.6057    1.5984   -1.0789 C   0  0  0  0  0  0  0  0  0  0  0  0
    2.9479    0.3471   -1.4973 N   0  0  0  0  0  0  0  0  0  0  0  0
    4.2705    0.3044   -1.4938 N   0  0  0  0  0  0  0  0  0  0  0  0
    4.6810    1.5322   -1.0827 N   0  0  0  0  0  0  0  0  0  0  0  0
    6.0512    1.8823   -0.9852 C   0  0  0  0  0  0  0  0  0  0  0  0
    7.0330    0.9627   -1.3543 C   0  0  0  0  0  0  0  0  0  0  0  0
    8.3946    1.2623   -1.1738 C   0  0  0  0  0  0  0  0  0  0  0  0
    8.8338    2.4931   -0.6532 C   0  0  0  0  0  0  0  0  0  0  0  0
   10.2468    2.7371   -0.3312 N   0  0  0  0  0  0  0  0  0  0  0  0
   10.6038    3.8273    0.6500 C   0  0  3  0  0  0  0  0  0  0  0  0
   11.0107    5.1624   -0.0477 C   0  0  0  0  0  0  0  0  0  0  0  0
   11.2386    6.1944    0.5835 O   0  0  0  0  0  0  0  0  0  0  0  0
   11.2003    5.1200   -1.4174 N   0  0  0  0  0  0  0  0  0  0  0  0
   11.7187    6.2730   -2.1367 C   0  0  0  0  0  0  0  0  0  0  0  0
   11.6258    6.0969   -3.6513 C   0  0  0  0  0  0  0  0  0  0  0  0
   12.0031    7.3520   -4.3969 C   0  0  0  0  0  0  0  0  0  0  0  0
   11.0379    8.3391   -4.6518 C   0  0  0  0  0  0  0  0  0  0  0  0
   11.3768    9.5095   -5.3364 C   0  0  0  0  0  0  0  0  0  0  0  0
   12.6862    9.7070   -5.7689 C   0  0  0  0  0  0  0  0  0  0  0  0
   13.6447    8.7351   -5.5093 C   0  0  0  0  0  0  0  0  0  0  0  0
   14.9041    8.9254   -5.9245 F   0  0  0  0  0  0  0  0  0  0  0  0
   13.3185    7.5654   -4.8276 C   0  0  0  0  0  0  0  0  0  0  0  0
    9.6884    3.9532    1.8723 C   0  0  0  0  0  0  0  0  0  0  0  0
    9.5140    2.8560    2.7301 C   0  0  0  0  0  0  0  0  0  0  0  0
    8.6085    2.9296    3.7851 C   0  0  0  0  0  0  0  0  0  0  0  0
    7.9032    4.1058    3.9626 C   0  0  0  0  0  0  0  0  0  0  0  0
    8.0796    5.2029    3.2004 N   0  0  0  0  0  0  0  0  0  0  0  0
    8.9813    5.1119    2.1951 C   0  0  0  0  0  0  0  0  0  0  0  0
   11.2664    1.9909   -1.0076 C   0  0  0  0  0  0  0  0  0  0  0  0
   11.0183    1.2807   -1.9828 O   0  0  0  0  0  0  0  0  0  0  0  0
   12.6921    2.1486   -0.6672 C   0  0  0  0  0  0  0  0  0  0  0  0
   13.7194    1.7909   -1.5184 C   0  0  0  0  0  0  0  0  0  0  0  0
   14.9102    2.0762   -0.9205 O   0  0  0  0  0  0  0  0  0  0  0  0
   14.5465    2.5772    0.2903 C   0  0  0  0  0  0  0  0  0  0  0  0
   13.2542    2.6311    0.4992 N   0  0  0  0  0  0  0  0  0  0  0  0
    7.8226    3.4373   -0.4016 C   0  0  0  0  0  0  0  0  0  0  0  0
    6.4507    3.1342   -0.5225 C   0  0  0  0  0  0  0  0  0  0  0  0
    3.6562    2.3787   -0.7861 N   0  0  0  0  0  0  0  0  0  0  0  0
    0.5189    1.1980   -1.1168 H   0  0  0  0  0  0  0  0  0  0  0  0
    0.9944    2.7411   -1.8396 H   0  0  0  0  0  0  0  0  0  0  0  0
    0.9849    2.5498   -0.0724 H   0  0  0  0  0  0  0  0  0  0  0  0
    6.7676   -0.0110   -1.7642 H   0  0  0  0  0  0  0  0  0  0  0  0
    9.0812    0.4588   -1.4237 H   0  0  0  0  0  0  0  0  0  0  0  0
   11.5232    3.5403    1.1471 H   0  0  0  0  0  0  0  0  0  0  0  0
   10.9617    4.2828   -1.9333 H   0  0  0  0  0  0  0  0  0  0  0  0
   12.7617    6.4185   -1.8275 H   0  0  0  0  0  0  0  0  0  0  0  0
   11.1588    7.1561   -1.8080 H   0  0  0  0  0  0  0  0  0  0  0  0
   10.6047    5.8066   -3.9301 H   0  0  0  0  0  0  0  0  0  0  0  0
   12.2646    5.2643   -3.9735 H   0  0  0  0  0  0  0  0  0  0  0  0
   10.0109    8.2018   -4.3177 H   0  0  0  0  0  0  0  0  0  0  0  0
   10.6195   10.2648   -5.5304 H   0  0  0  0  0  0  0  0  0  0  0  0
   12.9649   10.6091   -6.3038 H   0  0  0  0  0  0  0  0  0  0  0  0
   14.0981    6.8320   -4.6452 H   0  0  0  0  0  0  0  0  0  0  0  0
   10.0712    1.9355    2.5698 H   0  0  0  0  0  0  0  0  0  0  0  0
    8.4459    2.0846    4.4442 H   0  0  0  0  0  0  0  0  0  0  0  0
    7.1563    4.2018    4.7450 H   0  0  0  0  0  0  0  0  0  0  0  0
    9.0749    6.0311    1.6222 H   0  0  0  0  0  0  0  0  0  0  0  0
   13.7697    1.3688   -2.5111 H   0  0  0  0  0  0  0  0  0  0  0  0
   15.3470    2.8806    0.9532 H   0  0  0  0  0  0  0  0  0  0  0  0
    8.0533    4.4508   -0.0966 H   0  0  0  0  0  0  0  0  0  0  0  0
    5.7183    3.8880   -0.2344 H   0  0  0  0  0  0  0  0  0  0  0  0
  1  2  1  0  0  0  0
  1 40  1  0  0  0  0
  1 41  1  0  0  0  0
  1 42  1  0  0  0  0
  2  3  1  0  0  0  0
  2 39  2  0  0  0  0
  3  4  2  0  0  0  0
  4  5  1  0  0  0  0
  5  6  1  0  0  0  0
  5 39  1  0  0  0  0
  6  7  1  0  0  0  0
  6 38  2  0  0  0  0
  7  8  2  0  0  0  0
  7 43  1  0  0  0  0
  8  9  1  0  0  0  0
  8 44  1  0  0  0  0
  9 10  1  0  0  0  0
  9 37  2  0  0  0  0
 10 11  1  0  0  0  0
 10 30  1  0  0  0  0
 11 12  1  0  0  0  0
 11 24  1  0  0  0  0
 11 45  1  0  0  0  0
 12 13  2  0  0  0  0
 12 14  1  0  0  0  0
 14 15  1  0  0  0  0
 14 46  1  0  0  0  0
 15 16  1  0  0  0  0
 15 47  1  0  0  0  0
 15 48  1  0  0  0  0
 16 17  1  0  0  0  0
 16 49  1  0  0  0  0
 16 50  1  0  0  0  0
 17 18  1  0  0  0  0
 17 23  2  0  0  0  0
 18 19  2  0  0  0  0
 18 51  1  0  0  0  0
 19 20  1  0  0  0  0
 19 52  1  0  0  0  0
 20 21  2  0  0  0  0
 20 53  1  0  0  0  0
 21 22  1  0  0  0  0
 21 23  1  0  0  0  0
 23 54  1  0  0  0  0
 24 25  1  0  0  0  0
 24 29  2  0  0  0  0
 25 26  2  0  0  0  0
 25 55  1  0  0  0  0
 26 27  1  0  0  0  0
 26 56  1  0  0  0  0
 27 28  2  0  0  0  0
 27 57  1  0  0  0  0
 28 29  1  0  0  0  0
 29 58  1  0  0  0  0
 30 31  2  0  0  0  0
 30 32  1  0  0  0  0
 32 33  2  0  0  0  0
 32 36  1  0  0  0  0
 33 34  1  0  0  0  0
 33 59  1  0  0  0  0
 34 35  1  0  0  0  0
 35 36  2  0  0  0  0
 35 60  1  0  0  0  0
 37 38  1  0  0  0  0
 37 61  1  0  0  0  0
 38 62  1  0  0  0  0
M  END
$$$$
