
 OpenBabel07202414123D

 44 46  0  0  1  0  0  0  0  0999 V2000
    6.8207    1.1846    2.6144 C   0  0  0  0  0  0  0  0  0  0  0  0
    6.2059    1.8178    1.3621 C   0  0  3  0  0  0  0  0  0  0  0  0
    6.5253    1.0139    0.1035 C   0  0  0  0  0  0  0  0  0  0  0  0
    6.2454   -0.3202    0.1243 N   0  0  0  0  0  0  0  0  0  0  0  0
    6.9967    1.5287   -0.9079 O   0  0  0  0  0  0  0  0  0  0  0  0
    4.7212    2.1378    1.4804 C   0  0  0  0  0  0  0  0  0  0  0  0
    3.8321    1.3333    2.2067 C   0  0  0  0  0  0  0  0  0  0  0  0
    2.4917    1.7018    2.3371 C   0  0  0  0  0  0  0  0  0  0  0  0
    1.4347    0.7223    3.2791 Cl  0  0  0  0  0  0  0  0  0  0  0  0
    2.0131    2.8716    1.7486 C   0  0  0  0  0  0  0  0  0  0  0  0
    2.8790    3.6963    1.0192 C   0  0  0  0  0  0  0  0  0  0  0  0
    2.3918    5.0184    0.4777 C   0  0  0  0  0  0  0  0  0  0  0  0
    1.6940    4.9495   -0.8658 C   0  0  0  0  0  0  0  0  0  0  0  0
    0.4716    5.0215   -0.9558 O   0  0  0  0  0  0  0  0  0  0  0  0
    2.5596    4.8059   -1.9359 N   0  0  0  0  0  0  0  0  0  0  0  0
    2.1184    4.7717   -3.2802 C   0  0  0  0  0  0  0  0  0  0  0  0
    1.1534    5.6687   -3.7463 C   0  0  0  0  0  0  0  0  0  0  0  0
    0.7154    5.7242   -5.0244 N   0  0  0  0  0  0  0  0  0  0  0  0
    1.2350    4.8116   -5.8719 C   0  0  0  0  0  0  0  0  0  0  0  0
    2.1844    3.8512   -5.5223 C   0  0  0  0  0  0  0  0  0  0  0  0
    2.6428    2.8958   -6.4479 C   0  0  0  0  0  0  0  0  0  0  0  0
    3.5626    1.9198   -6.0717 C   0  0  0  0  0  0  0  0  0  0  0  0
    4.0494    1.8941   -4.7716 C   0  0  0  0  0  0  0  0  0  0  0  0
    3.6126    2.8397   -3.8422 C   0  0  0  0  0  0  0  0  0  0  0  0
    2.6656    3.8348   -4.1891 C   0  0  0  0  0  0  0  0  0  0  0  0
    4.2212    3.3051    0.8694 C   0  0  0  0  0  0  0  0  0  0  0  0
    7.9071    1.0972    2.5027 H   0  0  0  0  0  0  0  0  0  0  0  0
    6.4387    0.1782    2.8133 H   0  0  0  0  0  0  0  0  0  0  0  0
    6.6204    1.7984    3.4997 H   0  0  0  0  0  0  0  0  0  0  0  0
    6.7328    2.7762    1.2426 H   0  0  0  0  0  0  0  0  0  0  0  0
    5.7594   -0.7782    0.8817 H   0  0  0  0  0  0  0  0  0  0  0  0
    6.4340   -0.8522   -0.7158 H   0  0  0  0  0  0  0  0  0  0  0  0
    4.1730    0.4273    2.7003 H   0  0  0  0  0  0  0  0  0  0  0  0
    0.9708    3.1553    1.8852 H   0  0  0  0  0  0  0  0  0  0  0  0
    3.2292    5.7238    0.4010 H   0  0  0  0  0  0  0  0  0  0  0  0
    1.6983    5.4741    1.1929 H   0  0  0  0  0  0  0  0  0  0  0  0
    3.4566    4.3869   -1.7338 H   0  0  0  0  0  0  0  0  0  0  0  0
    0.7165    6.4209   -3.0949 H   0  0  0  0  0  0  0  0  0  0  0  0
    0.8388    4.8674   -6.8836 H   0  0  0  0  0  0  0  0  0  0  0  0
    2.2639    2.8950   -7.4682 H   0  0  0  0  0  0  0  0  0  0  0  0
    3.8916    1.1737   -6.7899 H   0  0  0  0  0  0  0  0  0  0  0  0
    4.7598    1.1309   -4.4668 H   0  0  0  0  0  0  0  0  0  0  0  0
    4.0011    2.7552   -2.8297 H   0  0  0  0  0  0  0  0  0  0  0  0
    4.9058    3.9405    0.3072 H   0  0  0  0  0  0  0  0  0  0  0  0
  1  2  1  0  0  0  0
  1 27  1  0  0  0  0
  1 28  1  0  0  0  0
  1 29  1  0  0  0  0
  2  3  1  0  0  0  0
  2  6  1  0  0  0  0
  2 30  1  0  0  0  0
  3  4  1  0  0  0  0
  3  5  2  0  0  0  0
  4 31  1  0  0  0  0
  4 32  1  0  0  0  0
  6  7  1  0  0  0  0
  6 26  2  0  0  0  0
  7  8  2  0  0  0  0
  7 33  1  0  0  0  0
  8  9  1  0  0  0  0
  8 10  1  0  0  0  0
 10 11  2  0  0  0  0
 10 34  1  0  0  0  0
 11 12  1  0  0  0  0
 11 26  1  0  0  0  0
 12 13  1  0  0  0  0
 12 35  1  0  0  0  0
 12 36  1  0  0  0  0
 13 14  2  0  0  0  0
 13 15  1  0  0  0  0
 15 16  1  0  0  0  0
 15 37  1  0  0  0  0
 16 17  1  0  0  0  0
 16 25  2  0  0  0  0
 17 18  2  0  0  0  0
 17 38  1  0  0  0  0
 18 19  1  0  0  0  0
 19 20  2  0  0  0  0
 19 39  1  0  0  0  0
 20 21  1  0  0  0  0
 20 25  1  0  0  0  0
 21 22  2  0  0  0  0
 21 40  1  0  0  0  0
 22 23  1  0  0  0  0
 22 41  1  0  0  0  0
 23 24  2  0  0  0  0
 23 42  1  0  0  0  0
 24 25  1  0  0  0  0
 24 43  1  0  0  0  0
 26 44  1  0  0  0  0
M  END
$$$$
