
 OpenBabel07202414153D

 43 46  0  0  1  0  0  0  0  0999 V2000
    2.0983    0.4550   -2.9847 C   0  0  0  0  0  0  0  0  0  0  0  0
    1.8975    1.3393   -1.8944 O   0  0  0  0  0  0  0  0  0  0  0  0
    2.4726    0.9638   -0.6215 C   0  0  1  0  0  0  0  0  0  0  0  0
    1.6434   -0.2056    0.0295 C   0  0  0  0  0  0  0  0  0  0  0  0
    2.1405   -1.0172    0.8033 O   0  0  0  0  0  0  0  0  0  0  0  0
    0.3163   -0.2066   -0.3796 N   0  0  0  0  0  0  0  0  0  0  0  0
   -0.7377   -1.0500    0.0413 C   0  0  0  0  0  0  0  0  0  0  0  0
   -0.5885   -2.0100    1.0490 C   0  0  0  0  0  0  0  0  0  0  0  0
   -1.5998   -2.7362    1.5724 N   0  0  0  0  0  0  0  0  0  0  0  0
   -2.8240   -2.5426    1.0425 C   0  0  0  0  0  0  0  0  0  0  0  0
   -3.0911   -1.7017   -0.0344 C   0  0  0  0  0  0  0  0  0  0  0  0
   -4.3760   -1.6501   -0.6051 C   0  0  0  0  0  0  0  0  0  0  0  0
   -4.6312   -0.8439   -1.7102 C   0  0  0  0  0  0  0  0  0  0  0  0
   -3.6174   -0.0509   -2.2294 C   0  0  0  0  0  0  0  0  0  0  0  0
   -2.3412   -0.0792   -1.6556 C   0  0  0  0  0  0  0  0  0  0  0  0
   -2.0304   -0.9206   -0.5534 C   0  0  0  0  0  0  0  0  0  0  0  0
    3.9549    0.5740   -0.7587 C   0  0  0  0  0  0  0  0  0  0  0  0
    4.6764    0.6915    0.5740 C   0  0  0  0  0  0  0  0  0  0  0  0
    4.6714    2.0289    1.0671 O   0  0  0  0  0  0  0  0  0  0  0  0
    3.4776    2.6865    0.9749 C   0  0  0  0  0  0  0  0  0  0  0  0
    3.4386    3.9229    1.6265 C   0  0  0  0  0  0  0  0  0  0  0  0
    2.3068    4.7235    1.5331 C   0  0  0  0  0  0  0  0  0  0  0  0
    2.3143    5.9272    2.1242 F   0  0  0  0  0  0  0  0  0  0  0  0
    1.1999    4.2915    0.8140 C   0  0  0  0  0  0  0  0  0  0  0  0
   -0.1915    5.2911    0.6477 Cl  0  0  0  0  0  0  0  0  0  0  0  0
    1.2295    3.0497    0.1765 C   0  0  0  0  0  0  0  0  0  0  0  0
    2.3825    2.2362    0.2231 C   0  0  0  0  0  0  0  0  0  0  0  0
    1.5530    0.8655   -3.8391 H   0  0  0  0  0  0  0  0  0  0  0  0
    1.6970   -0.5388   -2.7691 H   0  0  0  0  0  0  0  0  0  0  0  0
    3.1536    0.3929   -3.2609 H   0  0  0  0  0  0  0  0  0  0  0  0
    0.1015    0.5019   -1.0710 H   0  0  0  0  0  0  0  0  0  0  0  0
    0.3732   -2.2370    1.4918 H   0  0  0  0  0  0  0  0  0  0  0  0
   -3.6136   -3.1167    1.5212 H   0  0  0  0  0  0  0  0  0  0  0  0
   -5.1823   -2.2653   -0.2074 H   0  0  0  0  0  0  0  0  0  0  0  0
   -5.6170   -0.8422   -2.1696 H   0  0  0  0  0  0  0  0  0  0  0  0
   -3.8118    0.5841   -3.0905 H   0  0  0  0  0  0  0  0  0  0  0  0
   -1.5877    0.5524   -2.1175 H   0  0  0  0  0  0  0  0  0  0  0  0
    4.4428    1.2442   -1.4799 H   0  0  0  0  0  0  0  0  0  0  0  0
    4.0609   -0.4451   -1.1482 H   0  0  0  0  0  0  0  0  0  0  0  0
    5.7269    0.4127    0.4357 H   0  0  0  0  0  0  0  0  0  0  0  0
    4.2776    0.0256    1.3456 H   0  0  0  0  0  0  0  0  0  0  0  0
    4.3004    4.2810    2.1821 H   0  0  0  0  0  0  0  0  0  0  0  0
    0.3679    2.7466   -0.4129 H   0  0  0  0  0  0  0  0  0  0  0  0
  1  2  1  0  0  0  0
  1 28  1  0  0  0  0
  1 29  1  0  0  0  0
  1 30  1  0  0  0  0
  3 17  1  0  0  0  0
  3 27  1  0  0  0  0
  3  4  1  1  0  0  0
  3  2  1  0  0  0  0
  4  5  2  0  0  0  0
  4  6  1  0  0  0  0
  6  7  1  0  0  0  0
  6 31  1  0  0  0  0
  7  8  1  0  0  0  0
  7 16  2  0  0  0  0
  8  9  2  0  0  0  0
  8 32  1  0  0  0  0
  9 10  1  0  0  0  0
 10 11  2  0  0  0  0
 10 33  1  0  0  0  0
 11 12  1  0  0  0  0
 11 16  1  0  0  0  0
 12 13  2  0  0  0  0
 12 34  1  0  0  0  0
 13 14  1  0  0  0  0
 13 35  1  0  0  0  0
 14 15  2  0  0  0  0
 14 36  1  0  0  0  0
 15 16  1  0  0  0  0
 15 37  1  0  0  0  0
 17 18  1  0  0  0  0
 17 38  1  0  0  0  0
 17 39  1  0  0  0  0
 18 19  1  0  0  0  0
 18 40  1  0  0  0  0
 18 41  1  0  0  0  0
 19 20  1  0  0  0  0
 20 21  1  0  0  0  0
 20 27  2  0  0  0  0
 21 22  2  0  0  0  0
 21 42  1  0  0  0  0
 22 23  1  0  0  0  0
 22 24  1  0  0  0  0
 24 25  1  0  0  0  0
 24 26  2  0  0  0  0
 26 27  1  0  0  0  0
 26 43  1  0  0  0  0
M  END
$$$$
