
 OpenBabel07202414153D

 36 38  0  0  0  0  0  0  0  0999 V2000
    1.3421   -0.5301   -0.5355 C   0  0  0  0  0  0  0  0  0  0  0  0
    2.4843    0.0704    0.0608 O   0  0  0  0  0  0  0  0  0  0  0  0
    3.1616   -0.6704    0.9916 C   0  0  0  0  0  0  0  0  0  0  0  0
    2.8053   -1.9397    1.4439 C   0  0  0  0  0  0  0  0  0  0  0  0
    3.5773   -2.6150    2.4009 C   0  0  0  0  0  0  0  0  0  0  0  0
    4.7155   -1.9658    2.9048 C   0  0  0  0  0  0  0  0  0  0  0  0
    5.0800   -0.6905    2.4851 C   0  0  0  0  0  0  0  0  0  0  0  0
    4.3017   -0.0407    1.5079 C   0  0  0  0  0  0  0  0  0  0  0  0
    6.2287   -0.3716    3.2464 C   0  0  0  0  0  0  0  0  0  0  0  0
    6.5648   -1.3406    4.0847 N   0  0  0  0  0  0  0  0  0  0  0  0
    5.6427   -2.3231    3.8757 N   0  0  0  0  0  0  0  0  0  0  0  0
    5.7085   -3.5169    4.6202 C   0  0  0  0  0  0  0  0  0  0  0  0
    5.0886   -4.5032    4.2378 O   0  0  0  0  0  0  0  0  0  0  0  0
    6.5850   -3.4259    5.8550 C   0  0  0  0  0  0  0  0  0  0  0  0
    6.2174   -4.4148    6.9444 C   0  0  0  0  0  0  0  0  0  0  0  0
    6.3982   -5.7933    6.7666 C   0  0  0  0  0  0  0  0  0  0  0  0
    6.0531   -6.6938    7.7791 C   0  0  0  0  0  0  0  0  0  0  0  0
    5.5303   -6.2263    8.9847 C   0  0  0  0  0  0  0  0  0  0  0  0
    5.3555   -4.8584    9.1734 C   0  0  0  0  0  0  0  0  0  0  0  0
    5.6945   -3.9550    8.1655 C   0  0  0  0  0  0  0  0  0  0  0  0
    4.7184   -4.2754   10.6629 Cl  0  0  0  0  0  0  0  0  0  0  0  0
    6.9037    0.7800    3.1541 N   0  0  0  0  0  0  0  0  0  0  0  0
    0.9499    0.1677   -1.2817 H   0  0  0  0  0  0  0  0  0  0  0  0
    0.5557   -0.7016    0.2068 H   0  0  0  0  0  0  0  0  0  0  0  0
    1.6070   -1.4571   -1.0546 H   0  0  0  0  0  0  0  0  0  0  0  0
    1.9148   -2.4439    1.0773 H   0  0  0  0  0  0  0  0  0  0  0  0
    3.2800   -3.6009    2.7513 H   0  0  0  0  0  0  0  0  0  0  0  0
    4.5675    0.9552    1.1667 H   0  0  0  0  0  0  0  0  0  0  0  0
    6.4967   -2.4217    6.2876 H   0  0  0  0  0  0  0  0  0  0  0  0
    7.6335   -3.5718    5.5708 H   0  0  0  0  0  0  0  0  0  0  0  0
    6.7926   -6.1797    5.8284 H   0  0  0  0  0  0  0  0  0  0  0  0
    6.1864   -7.7619    7.6241 H   0  0  0  0  0  0  0  0  0  0  0  0
    5.2606   -6.9304    9.7667 H   0  0  0  0  0  0  0  0  0  0  0  0
    5.5522   -2.8901    8.3363 H   0  0  0  0  0  0  0  0  0  0  0  0
    6.7678    1.4170    2.3780 H   0  0  0  0  0  0  0  0  0  0  0  0
    7.8117    0.8434    3.6001 H   0  0  0  0  0  0  0  0  0  0  0  0
  1  2  1  0  0  0  0
  1 23  1  0  0  0  0
  1 24  1  0  0  0  0
  1 25  1  0  0  0  0
  2  3  1  0  0  0  0
  3  4  1  0  0  0  0
  3  8  2  0  0  0  0
  4  5  2  0  0  0  0
  4 26  1  0  0  0  0
  5  6  1  0  0  0  0
  5 27  1  0  0  0  0
  6  7  2  0  0  0  0
  6 11  1  0  0  0  0
  7  8  1  0  0  0  0
  7  9  1  0  0  0  0
  8 28  1  0  0  0  0
  9 10  2  0  0  0  0
  9 22  1  0  0  0  0
 10 11  1  0  0  0  0
 11 12  1  0  0  0  0
 12 13  2  0  0  0  0
 12 14  1  0  0  0  0
 14 15  1  0  0  0  0
 14 29  1  0  0  0  0
 14 30  1  0  0  0  0
 15 16  1  0  0  0  0
 15 20  2  0  0  0  0
 16 17  2  0  0  0  0
 16 31  1  0  0  0  0
 17 18  1  0  0  0  0
 17 32  1  0  0  0  0
 18 19  2  0  0  0  0
 18 33  1  0  0  0  0
 19 20  1  0  0  0  0
 19 21  1  0  0  0  0
 20 34  1  0  0  0  0
 22 35  1  0  0  0  0
 22 36  1  0  0  0  0
M  END
$$$$
