
 OpenBabel07202414183D

 37 38  0  0  0  0  0  0  0  0999 V2000
    0.8614   -0.0294    0.2445 F   0  0  0  0  0  0  0  0  0  0  0  0
    2.1929   -0.3018    0.1531 C   0  0  0  0  0  0  0  0  0  0  0  0
    2.8205    0.6484    0.9010 F   0  0  0  0  0  0  0  0  0  0  0  0
    2.3810   -1.4789    0.8100 F   0  0  0  0  0  0  0  0  0  0  0  0
    2.7084   -0.3354   -1.2689 C   0  0  0  0  0  0  0  0  0  0  0  0
    1.8546   -0.0736   -2.3540 C   0  0  0  0  0  0  0  0  0  0  0  0
    2.3405   -0.0734   -3.6661 C   0  0  0  0  0  0  0  0  0  0  0  0
    3.6928   -0.3240   -3.9064 C   0  0  0  0  0  0  0  0  0  0  0  0
    4.2959   -0.4205   -5.5874 S   0  0  0  0  0  0  0  0  0  0  0  0
    5.4616   -1.2745   -5.5535 O   0  0  0  0  0  0  0  0  0  0  0  0
    3.1574   -0.7441   -6.4271 O   0  0  0  0  0  0  0  0  0  0  0  0
    4.8195    1.1246   -6.0058 N   0  0  0  0  0  0  0  0  0  0  0  0
    6.0334    1.6926   -5.3983 C   0  0  0  0  0  0  0  0  0  0  0  0
    5.6841    2.4609   -4.1246 C   0  0  0  0  0  0  0  0  0  0  0  0
    4.5375    3.3721   -4.2376 N   0  0  0  0  0  0  0  0  0  0  0  0
    4.1329    4.1901   -3.1668 C   0  0  0  0  0  0  0  0  0  0  0  0
    3.1368    4.9068   -3.2666 O   0  0  0  0  0  0  0  0  0  0  0  0
    4.9513    4.0737   -1.8842 C   0  0  0  0  0  0  0  0  0  0  0  0
    4.3325    5.1297   -0.6010 Cl  0  0  0  0  0  0  0  0  0  0  0  0
    3.4885    3.0914   -5.2338 C   0  0  0  0  0  0  0  0  0  0  0  0
    3.8694    2.1844   -6.4060 C   0  0  0  0  0  0  0  0  0  0  0  0
    4.5422   -0.6511   -2.8422 C   0  0  0  0  0  0  0  0  0  0  0  0
    4.0561   -0.6384   -1.5276 C   0  0  0  0  0  0  0  0  0  0  0  0
    0.7966    0.1214   -2.1799 H   0  0  0  0  0  0  0  0  0  0  0  0
    1.6518    0.1022   -4.4904 H   0  0  0  0  0  0  0  0  0  0  0  0
    6.4910    2.3773   -6.1260 H   0  0  0  0  0  0  0  0  0  0  0  0
    6.7839    0.9227   -5.1971 H   0  0  0  0  0  0  0  0  0  0  0  0
    6.5561    3.0423   -3.8071 H   0  0  0  0  0  0  0  0  0  0  0  0
    5.4634    1.7636   -3.3154 H   0  0  0  0  0  0  0  0  0  0  0  0
    5.9929    4.3452   -2.0650 H   0  0  0  0  0  0  0  0  0  0  0  0
    4.8856    3.0474   -1.5105 H   0  0  0  0  0  0  0  0  0  0  0  0
    3.1240    4.0498   -5.6263 H   0  0  0  0  0  0  0  0  0  0  0  0
    2.6479    2.6431   -4.6921 H   0  0  0  0  0  0  0  0  0  0  0  0
    4.3624    2.7846   -7.1819 H   0  0  0  0  0  0  0  0  0  0  0  0
    2.9760    1.7717   -6.8813 H   0  0  0  0  0  0  0  0  0  0  0  0
    5.5814   -0.9224   -3.0217 H   0  0  0  0  0  0  0  0  0  0  0  0
    4.7264   -0.8794   -0.7050 H   0  0  0  0  0  0  0  0  0  0  0  0
  1  2  1  0  0  0  0
  2  3  1  0  0  0  0
  2  4  1  0  0  0  0
  2  5  1  0  0  0  0
  5  6  1  0  0  0  0
  5 23  2  0  0  0  0
  6  7  2  0  0  0  0
  6 24  1  0  0  0  0
  7  8  1  0  0  0  0
  7 25  1  0  0  0  0
  8  9  1  0  0  0  0
  8 22  2  0  0  0  0
  9 10  2  0  0  0  0
  9 11  2  0  0  0  0
  9 12  1  0  0  0  0
 12 13  1  0  0  0  0
 12 21  1  0  0  0  0
 13 14  1  0  0  0  0
 13 26  1  0  0  0  0
 13 27  1  0  0  0  0
 14 15  1  0  0  0  0
 14 28  1  0  0  0  0
 14 29  1  0  0  0  0
 15 16  1  0  0  0  0
 15 20  1  0  0  0  0
 16 17  2  0  0  0  0
 16 18  1  0  0  0  0
 18 19  1  0  0  0  0
 18 30  1  0  0  0  0
 18 31  1  0  0  0  0
 20 21  1  0  0  0  0
 20 32  1  0  0  0  0
 20 33  1  0  0  0  0
 21 34  1  0  0  0  0
 21 35  1  0  0  0  0
 22 23  1  0  0  0  0
 22 36  1  0  0  0  0
 23 37  1  0  0  0  0
M  END
$$$$
