
 OpenBabel07202414133D

 53 56  0  0  0  0  0  0  0  0999 V2000
    2.8976    0.7166   -1.2510 C   0  0  0  0  0  0  0  0  0  0  0  0
    2.7824    0.1152    0.0783 N   0  0  0  0  0  0  0  0  0  0  0  0
    1.9687    0.7508    1.0315 C   0  0  0  0  0  0  0  0  0  0  0  0
    1.3358    1.7744    0.7404 O   0  0  0  0  0  0  0  0  0  0  0  0
    1.8848    0.2996    2.4675 C   0  0  0  0  0  0  0  0  0  0  0  0
    0.7563    0.6558    3.2459 C   0  0  0  0  0  0  0  0  0  0  0  0
   -0.4146    1.2084    2.6777 N   0  0  0  0  0  0  0  0  0  0  0  0
    0.7052    0.2760    4.5959 C   0  0  0  0  0  0  0  0  0  0  0  0
    1.7801   -0.3690    5.2043 C   0  0  0  0  0  0  0  0  0  0  0  0
    2.9185   -0.6560    4.4632 C   0  0  0  0  0  0  0  0  0  0  0  0
    2.9787   -0.3033    3.1138 C   0  0  0  0  0  0  0  0  0  0  0  0
    3.3332   -1.1840    0.1797 C   0  0  0  0  0  0  0  0  0  0  0  0
    2.5260   -2.3220    0.0854 C   0  0  0  0  0  0  0  0  0  0  0  0
    3.1065   -3.6037    0.1080 C   0  0  0  0  0  0  0  0  0  0  0  0
    2.2530   -4.8501    0.0738 C   0  0  0  0  0  0  0  0  0  0  0  0
    1.3381   -4.9797   -1.1239 C   0  0  0  0  0  0  0  0  0  0  0  0
    0.1624   -5.3153   -0.9803 O   0  0  0  0  0  0  0  0  0  0  0  0
    1.9542   -4.8204   -2.3527 N   0  0  0  0  0  0  0  0  0  0  0  0
    1.2550   -4.8988   -3.5830 C   0  0  0  0  0  0  0  0  0  0  0  0
   -0.0363   -4.3785   -3.7105 C   0  0  0  0  0  0  0  0  0  0  0  0
   -0.7543   -4.3822   -4.8566 N   0  0  0  0  0  0  0  0  0  0  0  0
   -0.1740   -4.9685   -5.9201 C   0  0  0  0  0  0  0  0  0  0  0  0
    1.0977   -5.5449   -5.9137 C   0  0  0  0  0  0  0  0  0  0  0  0
    1.6158   -6.1869   -7.0591 C   0  0  0  0  0  0  0  0  0  0  0  0
    2.8703   -6.7945   -7.0251 C   0  0  0  0  0  0  0  0  0  0  0  0
    3.6218   -6.7617   -5.8595 C   0  0  0  0  0  0  0  0  0  0  0  0
    3.1244   -6.1212   -4.7254 C   0  0  0  0  0  0  0  0  0  0  0  0
    1.8505   -5.4985   -4.7187 C   0  0  0  0  0  0  0  0  0  0  0  0
    4.4992   -3.7209    0.2409 C   0  0  0  0  0  0  0  0  0  0  0  0
    5.2946   -2.5806    0.3395 C   0  0  0  0  0  0  0  0  0  0  0  0
    6.9917   -2.7410    0.5659 Cl  0  0  0  0  0  0  0  0  0  0  0  0
    4.7232   -1.3148    0.2830 C   0  0  0  0  0  0  0  0  0  0  0  0
    2.2916    1.6205   -1.3507 H   0  0  0  0  0  0  0  0  0  0  0  0
    2.5632   -0.0007   -2.0084 H   0  0  0  0  0  0  0  0  0  0  0  0
    3.9433    0.9816   -1.4318 H   0  0  0  0  0  0  0  0  0  0  0  0
   -0.1859    1.7234    1.8172 H   0  0  0  0  0  0  0  0  0  0  0  0
   -0.9352    1.7937    3.3238 H   0  0  0  0  0  0  0  0  0  0  0  0
   -0.1802    0.4945    5.1886 H   0  0  0  0  0  0  0  0  0  0  0  0
    1.7302   -0.6371    6.2565 H   0  0  0  0  0  0  0  0  0  0  0  0
    3.7681   -1.1426    4.9352 H   0  0  0  0  0  0  0  0  0  0  0  0
    3.9119   -0.4852    2.5980 H   0  0  0  0  0  0  0  0  0  0  0  0
    1.4483   -2.2097   -0.0298 H   0  0  0  0  0  0  0  0  0  0  0  0
    1.6330   -4.8544    0.9774 H   0  0  0  0  0  0  0  0  0  0  0  0
    2.8755   -5.7527    0.1115 H   0  0  0  0  0  0  0  0  0  0  0  0
    2.9633   -4.8781   -2.3794 H   0  0  0  0  0  0  0  0  0  0  0  0
   -0.5379   -3.8909   -2.8769 H   0  0  0  0  0  0  0  0  0  0  0  0
   -0.7922   -4.9770   -6.8155 H   0  0  0  0  0  0  0  0  0  0  0  0
    1.0293   -6.2306   -7.9757 H   0  0  0  0  0  0  0  0  0  0  0  0
    3.2494   -7.3041   -7.9080 H   0  0  0  0  0  0  0  0  0  0  0  0
    4.5900   -7.2529   -5.8253 H   0  0  0  0  0  0  0  0  0  0  0  0
    3.7363   -6.1531   -3.8295 H   0  0  0  0  0  0  0  0  0  0  0  0
    4.9682   -4.7018    0.2879 H   0  0  0  0  0  0  0  0  0  0  0  0
    5.3461   -0.4287    0.3757 H   0  0  0  0  0  0  0  0  0  0  0  0
  1  2  1  0  0  0  0
  1 33  1  0  0  0  0
  1 34  1  0  0  0  0
  1 35  1  0  0  0  0
  2  3  1  0  0  0  0
  2 12  1  0  0  0  0
  3  4  2  0  0  0  0
  3  5  1  0  0  0  0
  5  6  2  0  0  0  0
  5 11  1  0  0  0  0
  6  7  1  0  0  0  0
  6  8  1  0  0  0  0
  7 36  1  0  0  0  0
  7 37  1  0  0  0  0
  8  9  2  0  0  0  0
  8 38  1  0  0  0  0
  9 10  1  0  0  0  0
  9 39  1  0  0  0  0
 10 11  2  0  0  0  0
 10 40  1  0  0  0  0
 11 41  1  0  0  0  0
 12 13  2  0  0  0  0
 12 32  1  0  0  0  0
 13 14  1  0  0  0  0
 13 42  1  0  0  0  0
 14 15  1  0  0  0  0
 14 29  2  0  0  0  0
 15 16  1  0  0  0  0
 15 43  1  0  0  0  0
 15 44  1  0  0  0  0
 16 17  2  0  0  0  0
 16 18  1  0  0  0  0
 18 19  1  0  0  0  0
 18 45  1  0  0  0  0
 19 20  2  0  0  0  0
 19 28  1  0  0  0  0
 20 21  1  0  0  0  0
 20 46  1  0  0  0  0
 21 22  2  0  0  0  0
 22 23  1  0  0  0  0
 22 47  1  0  0  0  0
 23 24  2  0  0  0  0
 23 28  1  0  0  0  0
 24 25  1  0  0  0  0
 24 48  1  0  0  0  0
 25 26  2  0  0  0  0
 25 49  1  0  0  0  0
 26 27  1  0  0  0  0
 26 50  1  0  0  0  0
 27 28  2  0  0  0  0
 27 51  1  0  0  0  0
 29 30  1  0  0  0  0
 29 52  1  0  0  0  0
 30 31  1  0  0  0  0
 30 32  2  0  0  0  0
 32 53  1  0  0  0  0
M  END
$$$$
