
 OpenBabel07202414173D

 52 56  0  0  1  0  0  0  0  0999 V2000
    1.0184   -0.1069   -0.1777 Cl  0  0  0  0  0  0  0  0  0  0  0  0
    2.7337   -0.1700   -0.0511 C   0  0  0  0  0  0  0  0  0  0  0  0
    3.4729    1.0064   -0.1536 C   0  0  0  0  0  0  0  0  0  0  0  0
    4.8616    0.9773   -0.0041 C   0  0  0  0  0  0  0  0  0  0  0  0
    5.6501    2.1059    0.0010 O   0  0  0  0  0  0  0  0  0  0  0  0
    4.9701    3.3321    0.3072 C   0  0  0  0  0  0  0  0  0  0  0  0
    5.9183    4.4188    0.7626 C   0  0  0  0  0  0  0  0  0  0  0  0
    7.1782    4.5733    0.1910 C   0  0  0  0  0  0  0  0  0  0  0  0
    7.9950    5.6100    0.6371 C   0  0  0  0  0  0  0  0  0  0  0  0
    7.5299    6.4735    1.6230 C   0  0  0  0  0  0  0  0  0  0  0  0
    6.2579    6.2680    2.1218 C   0  0  0  0  0  0  0  0  0  0  0  0
    5.4468    5.2680    1.7154 N   0  0  0  0  0  0  0  0  0  0  0  0
    5.5155   -0.2596    0.1746 C   0  0  0  0  0  0  0  0  0  0  0  0
    4.7628   -1.4443    0.2841 C   0  0  0  0  0  0  0  0  0  0  0  0
    3.3679   -1.3843    0.1786 C   0  0  0  0  0  0  0  0  0  0  0  0
    5.4368   -2.7593    0.6055 C   0  0  3  0  0  0  0  0  0  0  0  0
    5.3474   -3.1535    2.0952 C   0  0  0  0  0  0  0  0  0  0  0  0
    5.3411   -4.3380    2.4204 O   0  0  0  0  0  0  0  0  0  0  0  0
    5.3465   -2.0866    2.9753 N   0  0  0  0  0  0  0  0  0  0  0  0
    5.1075   -2.0899    4.3706 C   0  0  0  0  0  0  0  0  0  0  0  0
    4.8338   -3.2518    5.0906 C   0  0  0  0  0  0  0  0  0  0  0  0
    4.4383   -3.2707    6.3846 N   0  0  0  0  0  0  0  0  0  0  0  0
    4.3442   -2.0759    7.0044 C   0  0  0  0  0  0  0  0  0  0  0  0
    4.6836   -0.8532    6.4260 C   0  0  0  0  0  0  0  0  0  0  0  0
    4.6459    0.3400    7.1724 C   0  0  0  0  0  0  0  0  0  0  0  0
    5.0167    1.5533    6.5981 C   0  0  0  0  0  0  0  0  0  0  0  0
    5.4070    1.5921    5.2677 C   0  0  0  0  0  0  0  0  0  0  0  0
    5.4345    0.4151    4.5135 C   0  0  0  0  0  0  0  0  0  0  0  0
    5.0803   -0.8456    5.0695 C   0  0  0  0  0  0  0  0  0  0  0  0
    6.8832   -2.7126    0.1376 C   0  0  0  0  0  0  0  0  0  0  0  0
    7.5552   -1.4448    0.6347 C   0  0  0  0  0  0  0  0  0  0  0  0
    6.8811   -0.2423    0.2603 O   0  0  0  0  0  0  0  0  0  0  0  0
    2.9400    1.9350   -0.3388 H   0  0  0  0  0  0  0  0  0  0  0  0
    4.2517    3.1730    1.1223 H   0  0  0  0  0  0  0  0  0  0  0  0
    4.4443    3.6894   -0.5860 H   0  0  0  0  0  0  0  0  0  0  0  0
    7.5241    3.8955   -0.5832 H   0  0  0  0  0  0  0  0  0  0  0  0
    8.9884    5.7420    0.2167 H   0  0  0  0  0  0  0  0  0  0  0  0
    8.1457    7.2861    1.9915 H   0  0  0  0  0  0  0  0  0  0  0  0
    5.8428    6.9208    2.8842 H   0  0  0  0  0  0  0  0  0  0  0  0
    2.7704   -2.2908    0.2850 H   0  0  0  0  0  0  0  0  0  0  0  0
    4.9203   -3.5515    0.0452 H   0  0  0  0  0  0  0  0  0  0  0  0
    5.3948   -1.1687    2.5599 H   0  0  0  0  0  0  0  0  0  0  0  0
    4.9063   -4.2410    4.6511 H   0  0  0  0  0  0  0  0  0  0  0  0
    3.9810   -2.1330    8.0275 H   0  0  0  0  0  0  0  0  0  0  0  0
    4.3470    0.3256    8.2187 H   0  0  0  0  0  0  0  0  0  0  0  0
    5.0115    2.4641    7.1912 H   0  0  0  0  0  0  0  0  0  0  0  0
    5.7035    2.5345    4.8114 H   0  0  0  0  0  0  0  0  0  0  0  0
    5.7764    0.5116    3.4868 H   0  0  0  0  0  0  0  0  0  0  0  0
    6.9010   -2.7129   -0.9615 H   0  0  0  0  0  0  0  0  0  0  0  0
    7.4398   -3.5939    0.4742 H   0  0  0  0  0  0  0  0  0  0  0  0
    8.5669   -1.3903    0.2214 H   0  0  0  0  0  0  0  0  0  0  0  0
    7.6684   -1.4493    1.7250 H   0  0  0  0  0  0  0  0  0  0  0  0
  1  2  1  0  0  0  0
  2  3  1  0  0  0  0
  2 15  2  0  0  0  0
  3  4  2  0  0  0  0
  3 33  1  0  0  0  0
  4  5  1  0  0  0  0
  4 13  1  0  0  0  0
  5  6  1  0  0  0  0
  6  7  1  0  0  0  0
  6 34  1  0  0  0  0
  6 35  1  0  0  0  0
  7  8  1  0  0  0  0
  7 12  2  0  0  0  0
  8  9  2  0  0  0  0
  8 36  1  0  0  0  0
  9 10  1  0  0  0  0
  9 37  1  0  0  0  0
 10 11  2  0  0  0  0
 10 38  1  0  0  0  0
 11 12  1  0  0  0  0
 11 39  1  0  0  0  0
 13 14  2  0  0  0  0
 13 32  1  0  0  0  0
 14 15  1  0  0  0  0
 14 16  1  0  0  0  0
 15 40  1  0  0  0  0
 16 17  1  0  0  0  0
 16 30  1  0  0  0  0
 16 41  1  0  0  0  0
 17 18  2  0  0  0  0
 17 19  1  0  0  0  0
 19 20  1  0  0  0  0
 19 42  1  0  0  0  0
 20 21  1  0  0  0  0
 20 29  2  0  0  0  0
 21 22  2  0  0  0  0
 21 43  1  0  0  0  0
 22 23  1  0  0  0  0
 23 24  2  0  0  0  0
 23 44  1  0  0  0  0
 24 25  1  0  0  0  0
 24 29  1  0  0  0  0
 25 26  2  0  0  0  0
 25 45  1  0  0  0  0
 26 27  1  0  0  0  0
 26 46  1  0  0  0  0
 27 28  2  0  0  0  0
 27 47  1  0  0  0  0
 28 29  1  0  0  0  0
 28 48  1  0  0  0  0
 30 31  1  0  0  0  0
 30 49  1  0  0  0  0
 30 50  1  0  0  0  0
 31 32  1  0  0  0  0
 31 51  1  0  0  0  0
 31 52  1  0  0  0  0
M  END
$$$$
