
 OpenBabel07202414123D

 66 70  0  0  1  0  0  0  0  0999 V2000
    7.3746    3.4582    1.1377 C   0  0  0  0  0  0  0  0  0  0  0  0
    6.9071    4.6625    0.2837 C   0  0  0  0  0  0  0  0  0  0  0  0
    7.7005    4.6764   -1.0348 C   0  0  0  0  0  0  0  0  0  0  0  0
    5.4675    4.5992   -0.0862 N   0  0  0  0  0  0  0  0  0  0  0  0
    4.4512    4.0785    0.6840 C   0  0  0  0  0  0  0  0  0  0  0  0
    4.6173    3.5302    1.7668 O   0  0  0  0  0  0  0  0  0  0  0  0
    3.0474    4.1249    0.0910 C   0  0  0  0  0  0  0  0  0  0  0  0
    2.7417    5.3372   -0.7069 N   0  0  0  0  0  0  0  0  0  0  0  0
    1.3793    5.1295   -1.2486 C   0  0  0  0  0  0  0  0  0  0  0  0
    0.8673    6.3123   -2.0334 C   0  0  0  0  0  0  0  0  0  0  0  0
   -0.1591    6.0785   -2.9716 C   0  0  0  0  0  0  0  0  0  0  0  0
   -0.6153    7.1135   -3.7700 C   0  0  0  0  0  0  0  0  0  0  0  0
   -0.0465    8.3802   -3.6245 C   0  0  0  0  0  0  0  0  0  0  0  0
   -0.5562    9.6448   -4.6859 Cl  0  0  0  0  0  0  0  0  0  0  0  0
    0.9305    8.6330   -2.6608 C   0  0  0  0  0  0  0  0  0  0  0  0
    1.3843    7.6024   -1.8080 C   0  0  0  0  0  0  0  0  0  0  0  0
    2.4859    7.8446   -0.7562 C   0  0  1  0  0  0  0  0  0  0  0  0
    2.2634    9.0858    0.1727 C   0  0  0  0  0  0  0  0  0  0  0  0
    1.2032    9.7091    0.1671 O   0  0  0  0  0  0  0  0  0  0  0  0
    3.3485    9.4312    0.9903 N   0  0  0  0  0  0  0  0  0  0  0  0
    3.4920   10.6299    1.7925 C   0  0  0  0  0  0  0  0  0  0  0  0
    2.6105   11.7009    1.7443 C   0  0  0  0  0  0  0  0  0  0  0  0
    2.8245   12.9150    2.3284 N   0  0  0  0  0  0  0  0  0  0  0  0
    3.9660   13.0800    3.0290 C   0  0  0  0  0  0  0  0  0  0  0  0
    4.8588   12.0592    3.2783 C   0  0  0  0  0  0  0  0  0  0  0  0
    5.9482   12.2550    4.1646 C   0  0  0  0  0  0  0  0  0  0  0  0
    6.6304   11.1658    4.6626 C   0  0  0  0  0  0  0  0  0  0  0  0
    6.2298    9.9115    4.2481 C   0  0  0  0  0  0  0  0  0  0  0  0
    5.3267    9.7365    3.1917 C   0  0  0  0  0  0  0  0  0  0  0  0
    4.5780   10.7993    2.6950 C   0  0  0  0  0  0  0  0  0  0  0  0
    2.7099    6.5728    0.1115 C   0  0  0  0  0  0  0  0  0  0  0  0
    7.2502    5.8950    1.1221 C   0  0  0  0  0  0  0  0  0  0  0  0
    8.4767    6.5866    0.9844 C   0  0  0  0  0  0  0  0  0  0  0  0
    8.8657    7.5684    1.8837 C   0  0  0  0  0  0  0  0  0  0  0  0
    8.0925    7.7805    3.0037 C   0  0  0  0  0  0  0  0  0  0  0  0
    6.9092    7.0631    3.1872 C   0  0  0  0  0  0  0  0  0  0  0  0
    6.4413    6.2076    2.2120 C   0  0  0  0  0  0  0  0  0  0  0  0
    7.1520    2.5043    0.6548 H   0  0  0  0  0  0  0  0  0  0  0  0
    6.9095    3.4449    2.1328 H   0  0  0  0  0  0  0  0  0  0  0  0
    8.4537    3.5079    1.3349 H   0  0  0  0  0  0  0  0  0  0  0  0
    7.4222    3.8392   -1.6795 H   0  0  0  0  0  0  0  0  0  0  0  0
    8.7807    4.6015   -0.8650 H   0  0  0  0  0  0  0  0  0  0  0  0
    7.5128    5.6052   -1.5892 H   0  0  0  0  0  0  0  0  0  0  0  0
    5.1625    5.1337   -0.8976 H   0  0  0  0  0  0  0  0  0  0  0  0
    2.3321    4.0153    0.9173 H   0  0  0  0  0  0  0  0  0  0  0  0
    2.9668    3.2325   -0.5424 H   0  0  0  0  0  0  0  0  0  0  0  0
    0.6538    4.9064   -0.4486 H   0  0  0  0  0  0  0  0  0  0  0  0
    1.4020    4.2572   -1.9200 H   0  0  0  0  0  0  0  0  0  0  0  0
   -0.5913    5.0884   -3.0882 H   0  0  0  0  0  0  0  0  0  0  0  0
   -1.3930    6.9307   -4.5104 H   0  0  0  0  0  0  0  0  0  0  0  0
    1.3402    9.6374   -2.5698 H   0  0  0  0  0  0  0  0  0  0  0  0
    3.4021    8.0335   -1.3334 H   0  0  0  0  0  0  0  0  0  0  0  0
    4.1705    8.8385    0.9542 H   0  0  0  0  0  0  0  0  0  0  0  0
    1.6568   11.6453    1.2333 H   0  0  0  0  0  0  0  0  0  0  0  0
    4.1012   14.0646    3.4688 H   0  0  0  0  0  0  0  0  0  0  0  0
    6.2130   13.2363    4.5350 H   0  0  0  0  0  0  0  0  0  0  0  0
    7.4233   11.2658    5.4005 H   0  0  0  0  0  0  0  0  0  0  0  0
    6.6551    9.0711    4.7823 H   0  0  0  0  0  0  0  0  0  0  0  0
    5.1176    8.7379    2.8286 H   0  0  0  0  0  0  0  0  0  0  0  0
    1.9399    6.5044    0.8926 H   0  0  0  0  0  0  0  0  0  0  0  0
    3.6678    6.6872    0.6312 H   0  0  0  0  0  0  0  0  0  0  0  0
    9.1955    6.3395    0.2100 H   0  0  0  0  0  0  0  0  0  0  0  0
    9.7915    8.1194    1.7491 H   0  0  0  0  0  0  0  0  0  0  0  0
    8.4226    8.5230    3.7225 H   0  0  0  0  0  0  0  0  0  0  0  0
    6.2904    7.1836    4.0718 H   0  0  0  0  0  0  0  0  0  0  0  0
    5.4862    5.7216    2.3797 H   0  0  0  0  0  0  0  0  0  0  0  0
  1  2  1  0  0  0  0
  1 38  1  0  0  0  0
  1 39  1  0  0  0  0
  1 40  1  0  0  0  0
  2  3  1  0  0  0  0
  2  4  1  0  0  0  0
  2 32  1  0  0  0  0
  3 41  1  0  0  0  0
  3 42  1  0  0  0  0
  3 43  1  0  0  0  0
  4  5  1  0  0  0  0
  4 44  1  0  0  0  0
  5  6  2  0  0  0  0
  5  7  1  0  0  0  0
  7  8  1  0  0  0  0
  7 45  1  0  0  0  0
  7 46  1  0  0  0  0
  8  9  1  0  0  0  0
  8 31  1  0  0  0  0
  9 10  1  0  0  0  0
  9 47  1  0  0  0  0
  9 48  1  0  0  0  0
 10 11  1  0  0  0  0
 10 16  2  0  0  0  0
 11 12  2  0  0  0  0
 11 49  1  0  0  0  0
 12 13  1  0  0  0  0
 12 50  1  0  0  0  0
 13 14  1  0  0  0  0
 13 15  2  0  0  0  0
 15 16  1  0  0  0  0
 15 51  1  0  0  0  0
 16 17  1  0  0  0  0
 17 31  1  0  0  0  0
 17 18  1  0  0  0  0
 17 52  1  6  0  0  0
 18 19  2  0  0  0  0
 18 20  1  0  0  0  0
 20 21  1  0  0  0  0
 20 53  1  0  0  0  0
 21 22  1  0  0  0  0
 21 30  2  0  0  0  0
 22 23  2  0  0  0  0
 22 54  1  0  0  0  0
 23 24  1  0  0  0  0
 24 25  2  0  0  0  0
 24 55  1  0  0  0  0
 25 26  1  0  0  0  0
 25 30  1  0  0  0  0
 26 27  2  0  0  0  0
 26 56  1  0  0  0  0
 27 28  1  0  0  0  0
 27 57  1  0  0  0  0
 28 29  2  0  0  0  0
 28 58  1  0  0  0  0
 29 30  1  0  0  0  0
 29 59  1  0  0  0  0
 31 60  1  0  0  0  0
 31 61  1  0  0  0  0
 32 33  1  0  0  0  0
 32 37  2  0  0  0  0
 33 34  2  0  0  0  0
 33 62  1  0  0  0  0
 34 35  1  0  0  0  0
 34 63  1  0  0  0  0
 35 36  2  0  0  0  0
 35 64  1  0  0  0  0
 36 37  1  0  0  0  0
 36 65  1  0  0  0  0
 37 66  1  0  0  0  0
M  END
$$$$
