
 OpenBabel07202414203D

 36 39  0  0  1  0  0  0  0  0999 V2000
   -2.3350   -0.8064   -3.6031 C   0  0  0  0  0  0  0  0  0  0  0  0
   -1.1944   -0.5793   -4.3948 C   0  0  0  0  0  0  0  0  0  0  0  0
   -0.5095    0.5931   -4.0397 C   0  0  0  0  0  0  0  0  0  0  0  0
   -0.9990    1.4595   -2.9980 C   0  0  0  0  0  0  0  0  0  0  0  0
   -0.0435    2.4115   -2.7888 C   0  0  0  0  0  0  0  0  0  0  0  0
    0.9344    2.1334   -3.7040 N   0  0  0  0  0  0  0  0  0  0  0  0
    0.6562    1.0809   -4.5072 N   0  0  0  0  0  0  0  0  0  0  0  0
   -0.0662    3.3214   -1.7394 N   0  0  0  0  0  0  0  0  0  0  0  0
    1.1381    3.5835   -1.0134 C   0  0  0  0  0  0  0  0  0  0  0  0
    2.1921    3.1249   -1.4393 O   0  0  0  0  0  0  0  0  0  0  0  0
    1.0230    4.2963    0.3209 C   0  0  3  0  0  0  0  0  0  0  0  0
    0.5161    3.3593    1.4214 C   0  0  0  0  0  0  0  0  0  0  0  0
   -0.9945    3.1761    1.4297 C   0  0  0  0  0  0  0  0  0  0  0  0
   -1.7773    4.1507    0.7340 O   0  0  0  0  0  0  0  0  0  0  0  0
   -1.2113    5.3761    0.5526 C   0  0  0  0  0  0  0  0  0  0  0  0
    0.1515    5.5159    0.2914 C   0  0  0  0  0  0  0  0  0  0  0  0
    0.6712    6.7850    0.0109 C   0  0  0  0  0  0  0  0  0  0  0  0
   -0.1742    7.8947    0.0073 C   0  0  0  0  0  0  0  0  0  0  0  0
   -1.5349    7.7491    0.2697 C   0  0  0  0  0  0  0  0  0  0  0  0
   -2.0575    6.4816    0.5303 C   0  0  0  0  0  0  0  0  0  0  0  0
    0.4733    9.4516   -0.3268 Cl  0  0  0  0  0  0  0  0  0  0  0  0
   -2.1068    1.2702   -2.2400 N   0  0  0  0  0  0  0  0  0  0  0  0
   -2.7276    0.1032   -2.5928 C   0  0  0  0  0  0  0  0  0  0  0  0
   -2.9169   -1.7126   -3.7558 H   0  0  0  0  0  0  0  0  0  0  0  0
   -0.8457   -1.2619   -5.1571 H   0  0  0  0  0  0  0  0  0  0  0  0
    1.8197    2.6127   -3.8314 H   0  0  0  0  0  0  0  0  0  0  0  0
   -0.9796    3.5534   -1.3529 H   0  0  0  0  0  0  0  0  0  0  0  0
    2.0429    4.6008    0.5878 H   0  0  0  0  0  0  0  0  0  0  0  0
    0.8102    3.7911    2.3882 H   0  0  0  0  0  0  0  0  0  0  0  0
    1.0144    2.3811    1.3726 H   0  0  0  0  0  0  0  0  0  0  0  0
   -1.2404    2.2082    0.9820 H   0  0  0  0  0  0  0  0  0  0  0  0
   -1.3538    3.1317    2.4663 H   0  0  0  0  0  0  0  0  0  0  0  0
    1.7313    6.9173   -0.1947 H   0  0  0  0  0  0  0  0  0  0  0  0
   -2.1922    8.6153    0.2700 H   0  0  0  0  0  0  0  0  0  0  0  0
   -3.1209    6.3631    0.7277 H   0  0  0  0  0  0  0  0  0  0  0  0
   -3.6137   -0.1213   -1.9966 H   0  0  0  0  0  0  0  0  0  0  0  0
  1  2  2  0  0  0  0
  1 23  1  0  0  0  0
  1 24  1  0  0  0  0
  2  3  1  0  0  0  0
  2 25  1  0  0  0  0
  3  4  1  0  0  0  0
  3  7  2  0  0  0  0
  4  5  2  0  0  0  0
  4 22  1  0  0  0  0
  5  6  1  0  0  0  0
  5  8  1  0  0  0  0
  6  7  1  0  0  0  0
  6 26  1  0  0  0  0
  8  9  1  0  0  0  0
  8 27  1  0  0  0  0
  9 10  2  0  0  0  0
  9 11  1  0  0  0  0
 11 12  1  0  0  0  0
 11 16  1  0  0  0  0
 11 28  1  0  0  0  0
 12 13  1  0  0  0  0
 12 29  1  0  0  0  0
 12 30  1  0  0  0  0
 13 14  1  0  0  0  0
 13 31  1  0  0  0  0
 13 32  1  0  0  0  0
 14 15  1  0  0  0  0
 15 16  1  0  0  0  0
 15 20  2  0  0  0  0
 16 17  2  0  0  0  0
 17 18  1  0  0  0  0
 17 33  1  0  0  0  0
 18 19  2  0  0  0  0
 18 21  1  0  0  0  0
 19 20  1  0  0  0  0
 19 34  1  0  0  0  0
 20 35  1  0  0  0  0
 22 23  2  0  0  0  0
 23 36  1  0  0  0  0
M  END
$$$$
