
 OpenBabel07202414183D

 50 53  0  0  0  0  0  0  0  0999 V2000
    7.0217    5.1300   -0.7546 F   0  0  0  0  0  0  0  0  0  0  0  0
    8.2905    4.9154   -1.1596 C   0  0  0  0  0  0  0  0  0  0  0  0
    8.7569    6.0293   -1.7626 F   0  0  0  0  0  0  0  0  0  0  0  0
    9.0389    4.6891   -0.0556 F   0  0  0  0  0  0  0  0  0  0  0  0
    8.4373    3.8053   -2.0293 O   0  0  0  0  0  0  0  0  0  0  0  0
    7.3547    3.3006   -2.6808 C   0  0  0  0  0  0  0  0  0  0  0  0
    6.1760    3.9715   -2.9909 C   0  0  0  0  0  0  0  0  0  0  0  0
    5.1301    3.2865   -3.6203 C   0  0  0  0  0  0  0  0  0  0  0  0
    5.2820    1.9501   -3.9936 C   0  0  0  0  0  0  0  0  0  0  0  0
    6.4980    1.2980   -3.7890 C   0  0  0  0  0  0  0  0  0  0  0  0
    6.6584   -0.0370   -4.2280 N   0  0  0  0  0  0  0  0  0  0  0  0
    7.8649   -0.6073   -4.7006 C   0  0  0  0  0  0  0  0  0  0  0  0
    8.1556   -1.9624   -4.4728 C   0  0  0  0  0  0  0  0  0  0  0  0
    9.3572   -2.5347   -4.9313 C   0  0  0  0  0  0  0  0  0  0  0  0
    9.7617   -3.9575   -4.6067 C   0  0  0  0  0  0  0  0  0  0  0  0
    8.6493   -4.9880   -4.5107 C   0  0  0  0  0  0  0  0  0  0  0  0
    8.6084   -5.7822   -3.5767 O   0  0  0  0  0  0  0  0  0  0  0  0
    7.8032   -5.0048   -5.6048 N   0  0  0  0  0  0  0  0  0  0  0  0
    6.7588   -5.9479   -5.7690 C   0  0  0  0  0  0  0  0  0  0  0  0
    6.7120   -6.6349   -6.9831 C   0  0  0  0  0  0  0  0  0  0  0  0
    5.7757   -7.5445   -7.3186 N   0  0  0  0  0  0  0  0  0  0  0  0
    4.7647   -7.6974   -6.4381 C   0  0  0  0  0  0  0  0  0  0  0  0
    4.6265   -6.9720   -5.2539 C   0  0  0  0  0  0  0  0  0  0  0  0
    3.4343   -7.0350   -4.5088 C   0  0  0  0  0  0  0  0  0  0  0  0
    3.2911   -6.3028   -3.3341 C   0  0  0  0  0  0  0  0  0  0  0  0
    4.3616   -5.5624   -2.8533 C   0  0  0  0  0  0  0  0  0  0  0  0
    5.5410   -5.4739   -3.6006 C   0  0  0  0  0  0  0  0  0  0  0  0
    5.6872   -6.1285   -4.8499 C   0  0  0  0  0  0  0  0  0  0  0  0
   10.2700   -1.7206   -5.6207 C   0  0  0  0  0  0  0  0  0  0  0  0
    9.9700   -0.3872   -5.8825 C   0  0  0  0  0  0  0  0  0  0  0  0
   11.1002    0.5956   -6.7293 Cl  0  0  0  0  0  0  0  0  0  0  0  0
    8.7702    0.1603   -5.4452 C   0  0  0  0  0  0  0  0  0  0  0  0
    7.5112    1.9750   -3.0942 C   0  0  0  0  0  0  0  0  0  0  0  0
    6.0322    5.0227   -2.7592 H   0  0  0  0  0  0  0  0  0  0  0  0
    4.1970    3.8034   -3.8329 H   0  0  0  0  0  0  0  0  0  0  0  0
    4.4633    1.4356   -4.4934 H   0  0  0  0  0  0  0  0  0  0  0  0
    6.1101   -0.6698   -3.6511 H   0  0  0  0  0  0  0  0  0  0  0  0
    7.4486   -2.5669   -3.9094 H   0  0  0  0  0  0  0  0  0  0  0  0
   10.2887   -3.9416   -3.6456 H   0  0  0  0  0  0  0  0  0  0  0  0
   10.4670   -4.3261   -5.3632 H   0  0  0  0  0  0  0  0  0  0  0  0
    8.1991   -4.6245   -6.4569 H   0  0  0  0  0  0  0  0  0  0  0  0
    7.4729   -6.4846   -7.7446 H   0  0  0  0  0  0  0  0  0  0  0  0
    4.0257   -8.4391   -6.7321 H   0  0  0  0  0  0  0  0  0  0  0  0
    2.5900   -7.6174   -4.8715 H   0  0  0  0  0  0  0  0  0  0  0  0
    2.3475   -6.3147   -2.7948 H   0  0  0  0  0  0  0  0  0  0  0  0
    4.2795   -5.0363   -1.9060 H   0  0  0  0  0  0  0  0  0  0  0  0
    6.3498   -4.8791   -3.1888 H   0  0  0  0  0  0  0  0  0  0  0  0
   11.2286   -2.1210   -5.9447 H   0  0  0  0  0  0  0  0  0  0  0  0
    8.5445    1.1999   -5.6731 H   0  0  0  0  0  0  0  0  0  0  0  0
    8.4427    1.4625   -2.8691 H   0  0  0  0  0  0  0  0  0  0  0  0
  1  2  1  0  0  0  0
  2  3  1  0  0  0  0
  2  4  1  0  0  0  0
  2  5  1  0  0  0  0
  5  6  1  0  0  0  0
  6  7  2  0  0  0  0
  6 33  1  0  0  0  0
  7  8  1  0  0  0  0
  7 34  1  0  0  0  0
  8  9  2  0  0  0  0
  8 35  1  0  0  0  0
  9 10  1  0  0  0  0
  9 36  1  0  0  0  0
 10 11  1  0  0  0  0
 10 33  2  0  0  0  0
 11 12  1  0  0  0  0
 11 37  1  0  0  0  0
 12 13  2  0  0  0  0
 12 32  1  0  0  0  0
 13 14  1  0  0  0  0
 13 38  1  0  0  0  0
 14 15  1  0  0  0  0
 14 29  2  0  0  0  0
 15 16  1  0  0  0  0
 15 39  1  0  0  0  0
 15 40  1  0  0  0  0
 16 17  2  0  0  0  0
 16 18  1  0  0  0  0
 18 19  1  0  0  0  0
 18 41  1  0  0  0  0
 19 20  2  0  0  0  0
 19 28  1  0  0  0  0
 20 21  1  0  0  0  0
 20 42  1  0  0  0  0
 21 22  2  0  0  0  0
 22 23  1  0  0  0  0
 22 43  1  0  0  0  0
 23 24  2  0  0  0  0
 23 28  1  0  0  0  0
 24 25  1  0  0  0  0
 24 44  1  0  0  0  0
 25 26  2  0  0  0  0
 25 45  1  0  0  0  0
 26 27  1  0  0  0  0
 26 46  1  0  0  0  0
 27 28  2  0  0  0  0
 27 47  1  0  0  0  0
 29 30  1  0  0  0  0
 29 48  1  0  0  0  0
 30 31  1  0  0  0  0
 30 32  2  0  0  0  0
 32 49  1  0  0  0  0
 33 50  1  0  0  0  0
M  END
$$$$
