
 OpenBabel07202414203D

 34 36  0  0  0  0  0  0  0  0999 V2000
    4.3059   -1.0692   -0.9479 C   0  0  0  0  0  0  0  0  0  0  0  0
    4.4752    0.3055   -1.0180 C   0  0  0  0  0  0  0  0  0  0  0  0
    3.4111    1.1655   -0.7099 C   0  0  0  0  0  0  0  0  0  0  0  0
    2.1341    0.6770   -0.3317 C   0  0  0  0  0  0  0  0  0  0  0  0
    1.9969   -0.7357   -0.2712 C   0  0  0  0  0  0  0  0  0  0  0  0
    3.0720   -1.5885   -0.5724 C   0  0  0  0  0  0  0  0  0  0  0  0
    0.7661   -1.2706    0.0971 C   0  0  0  0  0  0  0  0  0  0  0  0
   -0.3277   -0.5452    0.3829 N   0  0  0  0  0  0  0  0  0  0  0  0
   -0.1857    0.7988    0.3298 C   0  0  0  0  0  0  0  0  0  0  0  0
    0.9975    1.4742    0.0072 C   0  0  0  0  0  0  0  0  0  0  0  0
    1.0642    2.8990   -0.0042 N   0  0  0  0  0  0  0  0  0  0  0  0
    0.1279    3.7509    0.5675 C   0  0  0  0  0  0  0  0  0  0  0  0
   -0.8406    3.4033    1.2388 O   0  0  0  0  0  0  0  0  0  0  0  0
    0.3924    5.2286    0.3316 C   0  0  0  0  0  0  0  0  0  0  0  0
    1.2331    5.8751    1.4061 C   0  0  0  0  0  0  0  0  0  0  0  0
    2.3823    6.5982    1.0615 C   0  0  0  0  0  0  0  0  0  0  0  0
    3.1323    7.2323    2.0498 C   0  0  0  0  0  0  0  0  0  0  0  0
    2.7658    7.1716    3.3863 C   0  0  0  0  0  0  0  0  0  0  0  0
    1.6210    6.4643    3.7365 C   0  0  0  0  0  0  0  0  0  0  0  0
    0.8540    5.8220    2.7586 C   0  0  0  0  0  0  0  0  0  0  0  0
    1.1419    6.3876    5.3877 Cl  0  0  0  0  0  0  0  0  0  0  0  0
    4.2265    7.9202    1.6971 F   0  0  0  0  0  0  0  0  0  0  0  0
    5.1294   -1.7407   -1.1820 H   0  0  0  0  0  0  0  0  0  0  0  0
    5.4425    0.7147   -1.3085 H   0  0  0  0  0  0  0  0  0  0  0  0
    3.6089    2.2325   -0.7762 H   0  0  0  0  0  0  0  0  0  0  0  0
    2.9518   -2.6686   -0.5174 H   0  0  0  0  0  0  0  0  0  0  0  0
    0.6162   -2.3456    0.1728 H   0  0  0  0  0  0  0  0  0  0  0  0
   -1.1133    1.3209    0.5416 H   0  0  0  0  0  0  0  0  0  0  0  0
    1.9140    3.3180   -0.3533 H   0  0  0  0  0  0  0  0  0  0  0  0
   -0.5777    5.7411    0.2884 H   0  0  0  0  0  0  0  0  0  0  0  0
    0.8457    5.3596   -0.6581 H   0  0  0  0  0  0  0  0  0  0  0  0
    2.7011    6.6936    0.0274 H   0  0  0  0  0  0  0  0  0  0  0  0
    3.3666    7.6794    4.1329 H   0  0  0  0  0  0  0  0  0  0  0  0
   -0.0473    5.2853    3.0562 H   0  0  0  0  0  0  0  0  0  0  0  0
  1  2  1  0  0  0  0
  1  6  2  0  0  0  0
  1 23  1  0  0  0  0
  2  3  2  0  0  0  0
  2 24  1  0  0  0  0
  3  4  1  0  0  0  0
  3 25  1  0  0  0  0
  4  5  1  0  0  0  0
  4 10  2  0  0  0  0
  5  6  1  0  0  0  0
  5  7  2  0  0  0  0
  6 26  1  0  0  0  0
  7  8  1  0  0  0  0
  7 27  1  0  0  0  0
  8  9  2  0  0  0  0
  9 10  1  0  0  0  0
  9 28  1  0  0  0  0
 10 11  1  0  0  0  0
 11 12  1  0  0  0  0
 11 29  1  0  0  0  0
 12 13  2  0  0  0  0
 12 14  1  0  0  0  0
 14 15  1  0  0  0  0
 14 30  1  0  0  0  0
 14 31  1  0  0  0  0
 15 16  1  0  0  0  0
 15 20  2  0  0  0  0
 16 17  2  0  0  0  0
 16 32  1  0  0  0  0
 17 18  1  0  0  0  0
 17 22  1  0  0  0  0
 18 19  2  0  0  0  0
 18 33  1  0  0  0  0
 19 20  1  0  0  0  0
 19 21  1  0  0  0  0
 20 34  1  0  0  0  0
M  END
$$$$
