
 OpenBabel07202414133D

 65 67  0  0  1  0  0  0  0  0999 V2000
    8.2168   -5.1413   12.2013 C   0  0  0  0  0  0  0  0  0  0  0  0
    7.0229   -4.5501   11.4735 C   0  0  0  0  0  0  0  0  0  0  0  0
    7.1893   -4.8153   10.0739 O   0  0  0  0  0  0  0  0  0  0  0  0
    7.8942   -3.8836    9.3733 C   0  0  0  0  0  0  0  0  0  0  0  0
    8.2014   -2.7706    9.7788 O   0  0  0  0  0  0  0  0  0  0  0  0
    8.3773   -4.4923    8.0851 C   0  0  0  0  0  0  0  0  0  0  0  0
    8.6887   -3.4183    7.0603 C   0  0  0  0  0  0  0  0  0  0  0  0
    9.1569   -3.9855    5.8007 N   0  0  0  0  0  0  0  0  0  0  0  0
    8.2486   -4.4069    4.8402 C   0  0  0  0  0  0  0  0  0  0  0  0
    7.0436   -4.3654    5.0835 O   0  0  0  0  0  0  0  0  0  0  0  0
    8.8546   -4.7853    3.4362 C   0  0  3  0  0  0  0  0  0  0  0  0
    8.3736   -6.1275    2.9581 N   0  0  0  0  0  0  0  0  0  0  0  0
    9.1408   -7.2950    2.7460 C   0  0  0  0  0  0  0  0  0  0  0  0
    8.5938   -8.3754    2.5048 O   0  0  0  0  0  0  0  0  0  0  0  0
   10.6048   -7.2805    2.7580 C   0  0  0  0  0  0  0  0  0  0  0  0
   11.3568   -8.4086    2.4894 C   0  0  0  0  0  0  0  0  0  0  0  0
   12.6738   -8.0904    2.5465 O   0  0  0  0  0  0  0  0  0  0  0  0
   12.6660   -6.7655    2.8450 C   0  0  0  0  0  0  0  0  0  0  0  0
   11.4720   -6.2293    2.9890 N   0  0  0  0  0  0  0  0  0  0  0  0
    6.9552   -6.3312    2.9019 C   0  0  0  0  0  0  0  0  0  0  0  0
    6.2936   -6.9094    3.9856 C   0  0  0  0  0  0  0  0  0  0  0  0
    4.9286   -7.2046    3.9112 C   0  0  0  0  0  0  0  0  0  0  0  0
    4.1900   -6.9672    2.7402 C   0  0  0  0  0  0  0  0  0  0  0  0
    2.6919   -7.2930    2.6252 C   0  0  0  0  0  0  0  0  0  0  0  0
    2.0967   -7.8881    3.9208 C   0  0  0  0  0  0  0  0  0  0  0  0
    1.9012   -6.0082    2.2988 C   0  0  0  0  0  0  0  0  0  0  0  0
    2.4536   -8.3232    1.4997 C   0  0  0  0  0  0  0  0  0  0  0  0
    4.8827   -6.4177    1.6475 C   0  0  0  0  0  0  0  0  0  0  0  0
    6.2473   -6.1143    1.7212 C   0  0  0  0  0  0  0  0  0  0  0  0
    8.6184   -3.6403    2.4435 C   0  0  0  0  0  0  0  0  0  0  0  0
    8.4375   -2.3119    2.8647 C   0  0  0  0  0  0  0  0  0  0  0  0
    8.1299   -1.3127    1.9445 C   0  0  0  0  0  0  0  0  0  0  0  0
    8.0360   -1.6581    0.6117 C   0  0  0  0  0  0  0  0  0  0  0  0
    8.2976   -2.8959    0.1482 N   0  0  0  0  0  0  0  0  0  0  0  0
    8.6039   -3.8445    1.0685 C   0  0  0  0  0  0  0  0  0  0  0  0
    8.1481   -4.9782   13.2791 H   0  0  0  0  0  0  0  0  0  0  0  0
    9.1512   -4.7028   11.8346 H   0  0  0  0  0  0  0  0  0  0  0  0
    8.2811   -6.2179   12.0076 H   0  0  0  0  0  0  0  0  0  0  0  0
    6.9121   -3.4799   11.6813 H   0  0  0  0  0  0  0  0  0  0  0  0
    6.1019   -5.0449   11.7987 H   0  0  0  0  0  0  0  0  0  0  0  0
    7.6165   -5.1801    7.7006 H   0  0  0  0  0  0  0  0  0  0  0  0
    9.2798   -5.0711    8.3112 H   0  0  0  0  0  0  0  0  0  0  0  0
    9.4619   -2.7332    7.4160 H   0  0  0  0  0  0  0  0  0  0  0  0
    7.7894   -2.8154    6.8641 H   0  0  0  0  0  0  0  0  0  0  0  0
   10.1532   -4.0593    5.6350 H   0  0  0  0  0  0  0  0  0  0  0  0
    9.9326   -4.8234    3.5819 H   0  0  0  0  0  0  0  0  0  0  0  0
   11.1151   -9.4375    2.2477 H   0  0  0  0  0  0  0  0  0  0  0  0
   13.6342   -6.2922    2.9326 H   0  0  0  0  0  0  0  0  0  0  0  0
    6.8280   -7.1240    4.9070 H   0  0  0  0  0  0  0  0  0  0  0  0
    4.4690   -7.6281    4.7989 H   0  0  0  0  0  0  0  0  0  0  0  0
    2.1927   -7.1933    4.7634 H   0  0  0  0  0  0  0  0  0  0  0  0
    2.5930   -8.8269    4.1951 H   0  0  0  0  0  0  0  0  0  0  0  0
    1.0300   -8.1101    3.8037 H   0  0  0  0  0  0  0  0  0  0  0  0
    2.0469   -5.2457    3.0727 H   0  0  0  0  0  0  0  0  0  0  0  0
    0.8265   -6.2144    2.2307 H   0  0  0  0  0  0  0  0  0  0  0  0
    2.2031   -5.5684    1.3417 H   0  0  0  0  0  0  0  0  0  0  0  0
    2.9862   -9.2602    1.6997 H   0  0  0  0  0  0  0  0  0  0  0  0
    2.7859   -7.9569    0.5223 H   0  0  0  0  0  0  0  0  0  0  0  0
    1.3869   -8.5606    1.4062 H   0  0  0  0  0  0  0  0  0  0  0  0
    4.3721   -6.2259    0.7057 H   0  0  0  0  0  0  0  0  0  0  0  0
    6.7330   -5.7408    0.8277 H   0  0  0  0  0  0  0  0  0  0  0  0
    8.5076   -2.0276    3.9106 H   0  0  0  0  0  0  0  0  0  0  0  0
    7.9455   -0.2923    2.2685 H   0  0  0  0  0  0  0  0  0  0  0  0
    7.7456   -0.9277   -0.1382 H   0  0  0  0  0  0  0  0  0  0  0  0
    8.8125   -4.8189    0.6359 H   0  0  0  0  0  0  0  0  0  0  0  0
  1  2  1  0  0  0  0
  1 36  1  0  0  0  0
  1 37  1  0  0  0  0
  1 38  1  0  0  0  0
  2  3  1  0  0  0  0
  2 39  1  0  0  0  0
  2 40  1  0  0  0  0
  3  4  1  0  0  0  0
  4  5  2  0  0  0  0
  4  6  1  0  0  0  0
  6  7  1  0  0  0  0
  6 41  1  0  0  0  0
  6 42  1  0  0  0  0
  7  8  1  0  0  0  0
  7 43  1  0  0  0  0
  7 44  1  0  0  0  0
  8  9  1  0  0  0  0
  8 45  1  0  0  0  0
  9 10  2  0  0  0  0
  9 11  1  0  0  0  0
 11 12  1  0  0  0  0
 11 30  1  0  0  0  0
 11 46  1  0  0  0  0
 12 13  1  0  0  0  0
 12 20  1  0  0  0  0
 13 14  2  0  0  0  0
 13 15  1  0  0  0  0
 15 16  2  0  0  0  0
 15 19  1  0  0  0  0
 16 17  1  0  0  0  0
 16 47  1  0  0  0  0
 17 18  1  0  0  0  0
 18 19  2  0  0  0  0
 18 48  1  0  0  0  0
 20 21  1  0  0  0  0
 20 29  2  0  0  0  0
 21 22  2  0  0  0  0
 21 49  1  0  0  0  0
 22 23  1  0  0  0  0
 22 50  1  0  0  0  0
 23 24  1  0  0  0  0
 23 28  2  0  0  0  0
 24 25  1  0  0  0  0
 24 26  1  0  0  0  0
 24 27  1  0  0  0  0
 25 51  1  0  0  0  0
 25 52  1  0  0  0  0
 25 53  1  0  0  0  0
 26 54  1  0  0  0  0
 26 55  1  0  0  0  0
 26 56  1  0  0  0  0
 27 57  1  0  0  0  0
 27 58  1  0  0  0  0
 27 59  1  0  0  0  0
 28 29  1  0  0  0  0
 28 60  1  0  0  0  0
 29 61  1  0  0  0  0
 30 31  1  0  0  0  0
 30 35  2  0  0  0  0
 31 32  2  0  0  0  0
 31 62  1  0  0  0  0
 32 33  1  0  0  0  0
 32 63  1  0  0  0  0
 33 34  2  0  0  0  0
 33 64  1  0  0  0  0
 34 35  1  0  0  0  0
 35 65  1  0  0  0  0
M  END
$$$$
