
 OpenBabel07202414193D

 67 71  0  0  1  0  0  0  0  0999 V2000
    4.9255   -1.1959   -0.3029 O   0  0  0  0  0  0  0  0  0  0  0  0
    4.1458   -1.1751   -1.2529 C   0  0  0  0  0  0  0  0  0  0  0  0
    2.6638   -0.7717   -1.0788 C   0  0  0  0  0  0  0  0  0  0  0  0
    1.7502   -1.5427   -1.9662 N   0  0  0  0  0  0  0  0  0  0  0  0
    1.7894   -2.9737   -1.6097 C   0  0  0  0  0  0  0  0  0  0  0  0
    0.8047   -3.8054   -2.4042 C   0  0  0  0  0  0  0  0  0  0  0  0
    1.0195   -5.1887   -2.5024 C   0  0  0  0  0  0  0  0  0  0  0  0
    0.1452   -5.9916   -3.2312 C   0  0  0  0  0  0  0  0  0  0  0  0
   -0.9487   -5.4150   -3.8689 C   0  0  0  0  0  0  0  0  0  0  0  0
   -2.0179   -6.4027   -4.7840 Cl  0  0  0  0  0  0  0  0  0  0  0  0
   -1.1840   -4.0437   -3.7731 C   0  0  0  0  0  0  0  0  0  0  0  0
   -0.3251   -3.2279   -3.0162 C   0  0  0  0  0  0  0  0  0  0  0  0
   -0.5419   -1.7197   -2.9368 C   0  0  1  0  0  0  0  0  0  0  0  0
   -2.0244   -1.3136   -2.7865 C   0  0  0  0  0  0  0  0  0  0  0  0
   -2.5156   -0.4909   -3.5560 O   0  0  0  0  0  0  0  0  0  0  0  0
   -2.7051   -1.9410   -1.7545 N   0  0  0  0  0  0  0  0  0  0  0  0
   -4.0780   -1.7879   -1.3911 C   0  0  0  0  0  0  0  0  0  0  0  0
   -4.9651   -0.9652   -2.0925 C   0  0  0  0  0  0  0  0  0  0  0  0
   -6.2377   -0.6913   -1.7045 N   0  0  0  0  0  0  0  0  0  0  0  0
   -6.6674   -1.2912   -0.5772 C   0  0  0  0  0  0  0  0  0  0  0  0
   -5.9225   -2.2125    0.1570 C   0  0  0  0  0  0  0  0  0  0  0  0
   -6.4868   -2.8675    1.2663 C   0  0  0  0  0  0  0  0  0  0  0  0
   -5.7562   -3.8134    1.9780 C   0  0  0  0  0  0  0  0  0  0  0  0
   -4.4561   -4.0981    1.5946 C   0  0  0  0  0  0  0  0  0  0  0  0
   -3.8786   -3.4436    0.5013 C   0  0  0  0  0  0  0  0  0  0  0  0
   -4.5911   -2.4795   -0.2584 C   0  0  0  0  0  0  0  0  0  0  0  0
    0.3477   -1.0642   -1.8489 C   0  0  0  0  0  0  0  0  0  0  0  0
    4.5191   -1.4806   -2.5419 N   0  0  0  0  0  0  0  0  0  0  0  0
    5.8599   -1.8837   -2.9078 C   0  0  0  0  0  0  0  0  0  0  0  0
    6.6546   -0.7281   -3.4593 C   0  0  0  0  0  0  0  0  0  0  0  0
    7.4395    0.0623   -2.6087 C   0  0  0  0  0  0  0  0  0  0  0  0
    8.1179    1.1823   -3.0984 C   0  0  0  0  0  0  0  0  0  0  0  0
    8.0120    1.5420   -4.4470 C   0  0  0  0  0  0  0  0  0  0  0  0
    8.6731    2.7986   -4.9660 C   0  0  0  0  0  0  0  0  0  0  0  0
   10.1261    2.6001   -5.3912 C   0  0  0  0  0  0  0  0  0  0  0  0
   10.2245    1.7459   -6.5260 O   0  0  0  0  0  0  0  0  0  0  0  0
    7.2566    0.7323   -5.3057 C   0  0  0  0  0  0  0  0  0  0  0  0
    6.5828   -0.3906   -4.8170 C   0  0  0  0  0  0  0  0  0  0  0  0
    2.6051    0.2979   -1.3108 H   0  0  0  0  0  0  0  0  0  0  0  0
    2.3942   -0.9121   -0.0241 H   0  0  0  0  0  0  0  0  0  0  0  0
    1.5817   -3.1217   -0.5419 H   0  0  0  0  0  0  0  0  0  0  0  0
    2.7899   -3.3714   -1.8153 H   0  0  0  0  0  0  0  0  0  0  0  0
    1.8835   -5.6451   -2.0216 H   0  0  0  0  0  0  0  0  0  0  0  0
    0.3311   -7.0592   -3.3100 H   0  0  0  0  0  0  0  0  0  0  0  0
   -2.0350   -3.6147   -4.2988 H   0  0  0  0  0  0  0  0  0  0  0  0
   -0.2139   -1.3215   -3.9090 H   0  0  0  0  0  0  0  0  0  0  0  0
   -2.1623   -2.5690   -1.1869 H   0  0  0  0  0  0  0  0  0  0  0  0
   -4.7055   -0.4847   -3.0300 H   0  0  0  0  0  0  0  0  0  0  0  0
   -7.6731   -1.0043   -0.2727 H   0  0  0  0  0  0  0  0  0  0  0  0
   -7.5121   -2.6591    1.5723 H   0  0  0  0  0  0  0  0  0  0  0  0
   -6.2059   -4.3326    2.8208 H   0  0  0  0  0  0  0  0  0  0  0  0
   -3.8795   -4.8453    2.1419 H   0  0  0  0  0  0  0  0  0  0  0  0
   -2.8665   -3.7340    0.2394 H   0  0  0  0  0  0  0  0  0  0  0  0
   -0.0446   -1.2712   -0.8429 H   0  0  0  0  0  0  0  0  0  0  0  0
    0.3085    0.0252   -1.9790 H   0  0  0  0  0  0  0  0  0  0  0  0
    3.8068   -1.4028   -3.2593 H   0  0  0  0  0  0  0  0  0  0  0  0
    5.7735   -2.6741   -3.6615 H   0  0  0  0  0  0  0  0  0  0  0  0
    6.3747   -2.3238   -2.0443 H   0  0  0  0  0  0  0  0  0  0  0  0
    7.5056   -0.1803   -1.5489 H   0  0  0  0  0  0  0  0  0  0  0  0
    8.7031    1.7873   -2.4094 H   0  0  0  0  0  0  0  0  0  0  0  0
    8.6256    3.5691   -4.1862 H   0  0  0  0  0  0  0  0  0  0  0  0
    8.0887    3.1812   -5.8123 H   0  0  0  0  0  0  0  0  0  0  0  0
   10.7395    2.1866   -4.5845 H   0  0  0  0  0  0  0  0  0  0  0  0
   10.5536    3.5667   -5.6779 H   0  0  0  0  0  0  0  0  0  0  0  0
    9.9456    0.8599   -6.2324 H   0  0  0  0  0  0  0  0  0  0  0  0
    7.1688    0.9867   -6.3607 H   0  0  0  0  0  0  0  0  0  0  0  0
    5.9858   -0.9887   -5.5017 H   0  0  0  0  0  0  0  0  0  0  0  0
  1  2  2  0  0  0  0
  2  3  1  0  0  0  0
  2 28  1  0  0  0  0
  3  4  1  0  0  0  0
  3 39  1  0  0  0  0
  3 40  1  0  0  0  0
  4  5  1  0  0  0  0
  4 27  1  0  0  0  0
  5  6  1  0  0  0  0
  5 41  1  0  0  0  0
  5 42  1  0  0  0  0
  6  7  1  0  0  0  0
  6 12  2  0  0  0  0
  7  8  2  0  0  0  0
  7 43  1  0  0  0  0
  8  9  1  0  0  0  0
  8 44  1  0  0  0  0
  9 10  1  0  0  0  0
  9 11  2  0  0  0  0
 11 12  1  0  0  0  0
 11 45  1  0  0  0  0
 12 13  1  0  0  0  0
 13 27  1  0  0  0  0
 13 14  1  0  0  0  0
 13 46  1  6  0  0  0
 14 15  2  0  0  0  0
 14 16  1  0  0  0  0
 16 17  1  0  0  0  0
 16 47  1  0  0  0  0
 17 18  1  0  0  0  0
 17 26  2  0  0  0  0
 18 19  2  0  0  0  0
 18 48  1  0  0  0  0
 19 20  1  0  0  0  0
 20 21  2  0  0  0  0
 20 49  1  0  0  0  0
 21 22  1  0  0  0  0
 21 26  1  0  0  0  0
 22 23  2  0  0  0  0
 22 50  1  0  0  0  0
 23 24  1  0  0  0  0
 23 51  1  0  0  0  0
 24 25  2  0  0  0  0
 24 52  1  0  0  0  0
 25 26  1  0  0  0  0
 25 53  1  0  0  0  0
 27 54  1  0  0  0  0
 27 55  1  0  0  0  0
 28 29  1  0  0  0  0
 28 56  1  0  0  0  0
 29 30  1  0  0  0  0
 29 57  1  0  0  0  0
 29 58  1  0  0  0  0
 30 31  1  0  0  0  0
 30 38  2  0  0  0  0
 31 32  2  0  0  0  0
 31 59  1  0  0  0  0
 32 33  1  0  0  0  0
 32 60  1  0  0  0  0
 33 34  1  0  0  0  0
 33 37  2  0  0  0  0
 34 35  1  0  0  0  0
 34 61  1  0  0  0  0
 34 62  1  0  0  0  0
 35 36  1  0  0  0  0
 35 63  1  0  0  0  0
 35 64  1  0  0  0  0
 36 65  1  0  0  0  0
 37 38  1  0  0  0  0
 37 66  1  0  0  0  0
 38 67  1  0  0  0  0
M  END
$$$$
