
 OpenBabel07202414143D

 72 77  0  0  1  0  0  0  0  0999 V2000
    1.0127   -0.6758   -0.4485 C   0  0  0  0  0  0  0  0  0  0  0  0
    2.4490   -0.6676   -0.4693 N   0  0  0  0  0  0  0  0  0  0  0  0
    3.2039   -1.2615    0.5107 C   0  0  0  0  0  0  0  0  0  0  0  0
    2.7465   -1.8704    1.4704 O   0  0  0  0  0  0  0  0  0  0  0  0
    4.7073   -1.0811    0.3486 C   0  0  0  0  0  0  0  0  0  0  0  0
    5.2194    0.2766    0.5561 N   0  0  0  0  0  0  0  0  0  0  0  0
    5.5528    0.6549    1.9153 C   0  0  0  0  0  0  0  0  0  0  0  0
    6.5932    1.7723    2.0310 C   0  0  3  0  0  0  0  0  0  0  0  0
    6.5782    2.2944    3.4873 C   0  0  0  0  0  0  0  0  0  0  0  0
    7.9875    2.0770    3.9996 C   0  0  0  0  0  0  0  0  0  0  0  0
    8.8006    1.9693    2.8176 N   0  0  0  0  0  0  0  0  0  0  0  0
   10.2185    2.1245    2.8526 C   0  0  0  0  0  0  0  0  0  0  0  0
   11.0641    1.2278    2.2037 C   0  0  0  0  0  0  0  0  0  0  0  0
   12.4124    1.2145    2.3373 N   0  0  0  0  0  0  0  0  0  0  0  0
   12.9601    2.1810    3.1051 C   0  0  0  0  0  0  0  0  0  0  0  0
   12.2446    3.2167    3.6974 C   0  0  0  0  0  0  0  0  0  0  0  0
   12.8893    4.2649    4.3887 C   0  0  0  0  0  0  0  0  0  0  0  0
   12.1568    5.3104    4.9529 C   0  0  0  0  0  0  0  0  0  0  0  0
   10.7780    5.3240    4.8181 C   0  0  0  0  0  0  0  0  0  0  0  0
   10.0870    6.3484    5.4100 O   0  0  0  0  0  0  0  0  0  0  0  0
    8.8959    5.9030    6.0828 C   0  0  0  0  0  0  0  0  0  0  0  0
    8.1988    7.0943    6.7536 C   0  0  0  0  0  0  0  0  0  0  0  0
    7.9348    8.2397    5.8729 N   0  0  0  0  0  0  0  0  0  0  0  0
    7.0488    7.9181    4.7289 C   0  0  0  0  0  0  0  0  0  0  0  0
    6.7391    9.0679    3.7404 C   0  0  0  0  0  0  0  0  0  0  0  0
    7.3576   10.2229    4.0755 F   0  0  0  0  0  0  0  0  0  0  0  0
    7.1473    8.7380    2.4931 F   0  0  0  0  0  0  0  0  0  0  0  0
    5.4100    9.3095    3.6794 F   0  0  0  0  0  0  0  0  0  0  0  0
   10.1538    4.3346    4.0568 C   0  0  0  0  0  0  0  0  0  0  0  0
   10.8400    3.2066    3.5497 C   0  0  0  0  0  0  0  0  0  0  0  0
    8.0518    1.3051    1.8291 C   0  0  0  0  0  0  0  0  0  0  0  0
    8.4553    0.6469    0.8870 O   0  0  0  0  0  0  0  0  0  0  0  0
    6.3343    2.8679    0.9937 C   0  0  0  0  0  0  0  0  0  0  0  0
    7.0005    4.1108    1.0753 C   0  0  0  0  0  0  0  0  0  0  0  0
    6.8706    5.0681    0.0714 C   0  0  0  0  0  0  0  0  0  0  0  0
    7.7735    6.5266    0.1747 Cl  0  0  0  0  0  0  0  0  0  0  0  0
    6.0550    4.8284   -1.0232 C   0  0  0  0  0  0  0  0  0  0  0  0
    5.3963    3.5992   -1.1325 C   0  0  0  0  0  0  0  0  0  0  0  0
    5.5587    2.6077   -0.1489 C   0  0  0  0  0  0  0  0  0  0  0  0
    4.9893    1.2537   -0.4088 C   0  0  0  0  0  0  0  0  0  0  0  0
    4.3681    1.0426   -1.4487 O   0  0  0  0  0  0  0  0  0  0  0  0
    5.4244   -1.9471   -0.6808 C   0  0  0  0  0  0  0  0  0  0  0  0
    5.5802   -2.2654    0.7678 C   0  0  0  0  0  0  0  0  0  0  0  0
    0.6467    0.0535   -1.1752 H   0  0  0  0  0  0  0  0  0  0  0  0
    0.6515   -0.4182    0.5513 H   0  0  0  0  0  0  0  0  0  0  0  0
    0.6584   -1.6751   -0.7148 H   0  0  0  0  0  0  0  0  0  0  0  0
    2.9462   -0.1120   -1.1680 H   0  0  0  0  0  0  0  0  0  0  0  0
    5.8750   -0.2268    2.4802 H   0  0  0  0  0  0  0  0  0  0  0  0
    4.6021    0.9918    2.3574 H   0  0  0  0  0  0  0  0  0  0  0  0
    5.8766    1.7506    4.1340 H   0  0  0  0  0  0  0  0  0  0  0  0
    6.2935    3.3481    3.5563 H   0  0  0  0  0  0  0  0  0  0  0  0
    8.0517    1.1146    4.5235 H   0  0  0  0  0  0  0  0  0  0  0  0
    8.2740    2.8468    4.7121 H   0  0  0  0  0  0  0  0  0  0  0  0
   10.6880    0.4313    1.5694 H   0  0  0  0  0  0  0  0  0  0  0  0
   14.0393    2.1067    3.2159 H   0  0  0  0  0  0  0  0  0  0  0  0
   13.9744    4.2790    4.4778 H   0  0  0  0  0  0  0  0  0  0  0  0
   12.6646    6.1128    5.4816 H   0  0  0  0  0  0  0  0  0  0  0  0
    9.1568    5.1581    6.8447 H   0  0  0  0  0  0  0  0  0  0  0  0
    8.1887    5.4447    5.3836 H   0  0  0  0  0  0  0  0  0  0  0  0
    8.8382    7.4558    7.5673 H   0  0  0  0  0  0  0  0  0  0  0  0
    7.2633    6.7580    7.2178 H   0  0  0  0  0  0  0  0  0  0  0  0
    8.8269    8.5835    5.5084 H   0  0  0  0  0  0  0  0  0  0  0  0
    6.0968    7.5382    5.1182 H   0  0  0  0  0  0  0  0  0  0  0  0
    7.4950    7.1104    4.1380 H   0  0  0  0  0  0  0  0  0  0  0  0
    9.1105    4.4739    3.8036 H   0  0  0  0  0  0  0  0  0  0  0  0
    7.6821    4.3216    1.8941 H   0  0  0  0  0  0  0  0  0  0  0  0
    5.9552    5.5672   -1.8123 H   0  0  0  0  0  0  0  0  0  0  0  0
    4.8004    3.3967   -2.0215 H   0  0  0  0  0  0  0  0  0  0  0  0
    6.2798   -1.5202   -1.1922 H   0  0  0  0  0  0  0  0  0  0  0  0
    4.8351   -2.6212   -1.2901 H   0  0  0  0  0  0  0  0  0  0  0  0
    6.5428   -2.0725    1.2254 H   0  0  0  0  0  0  0  0  0  0  0  0
    5.0874   -3.1525    1.1477 H   0  0  0  0  0  0  0  0  0  0  0  0
  1  2  1  0  0  0  0
  1 44  1  0  0  0  0
  1 45  1  0  0  0  0
  1 46  1  0  0  0  0
  2  3  1  0  0  0  0
  2 47  1  0  0  0  0
  3  4  2  0  0  0  0
  3  5  1  0  0  0  0
  5  6  1  0  0  0  0
  5 42  1  0  0  0  0
  5 43  1  0  0  0  0
  6  7  1  0  0  0  0
  6 40  1  0  0  0  0
  7  8  1  0  0  0  0
  7 48  1  0  0  0  0
  7 49  1  0  0  0  0
  8  9  1  0  0  0  0
  8 31  1  0  0  0  0
  8 33  1  0  0  0  0
  9 10  1  0  0  0  0
  9 50  1  0  0  0  0
  9 51  1  0  0  0  0
 10 11  1  0  0  0  0
 10 52  1  0  0  0  0
 10 53  1  0  0  0  0
 11 12  1  0  0  0  0
 11 31  1  0  0  0  0
 12 13  1  0  0  0  0
 12 30  2  0  0  0  0
 13 14  2  0  0  0  0
 13 54  1  0  0  0  0
 14 15  1  0  0  0  0
 15 16  2  0  0  0  0
 15 55  1  0  0  0  0
 16 17  1  0  0  0  0
 16 30  1  0  0  0  0
 17 18  2  0  0  0  0
 17 56  1  0  0  0  0
 18 19  1  0  0  0  0
 18 57  1  0  0  0  0
 19 20  1  0  0  0  0
 19 29  2  0  0  0  0
 20 21  1  0  0  0  0
 21 22  1  0  0  0  0
 21 58  1  0  0  0  0
 21 59  1  0  0  0  0
 22 23  1  0  0  0  0
 22 60  1  0  0  0  0
 22 61  1  0  0  0  0
 23 24  1  0  0  0  0
 23 62  1  0  0  0  0
 24 25  1  0  0  0  0
 24 63  1  0  0  0  0
 24 64  1  0  0  0  0
 25 26  1  0  0  0  0
 25 27  1  0  0  0  0
 25 28  1  0  0  0  0
 29 30  1  0  0  0  0
 29 65  1  0  0  0  0
 31 32  2  0  0  0  0
 33 34  1  0  0  0  0
 33 39  2  0  0  0  0
 34 35  2  0  0  0  0
 34 66  1  0  0  0  0
 35 36  1  0  0  0  0
 35 37  1  0  0  0  0
 37 38  2  0  0  0  0
 37 67  1  0  0  0  0
 38 39  1  0  0  0  0
 38 68  1  0  0  0  0
 39 40  1  0  0  0  0
 40 41  2  0  0  0  0
 42 43  1  0  0  0  0
 42 69  1  0  0  0  0
 42 70  1  0  0  0  0
 43 71  1  0  0  0  0
 43 72  1  0  0  0  0
M  END
$$$$
