
 OpenBabel07202414133D

 77 82  0  0  1  0  0  0  0  0999 V2000
   -8.1513   12.6464    9.2417 C   0  0  0  0  0  0  0  0  0  0  0  0
   -8.6162   11.3471    9.8952 C   0  0  0  0  0  0  0  0  0  0  0  0
   -8.5777   10.1848    8.9995 N   0  0  0  0  0  0  0  0  0  0  0  0
   -9.1059    8.9699    9.6716 C   0  0  0  0  0  0  0  0  0  0  0  0
   -8.1557    8.2963   10.6945 C   0  0  0  0  0  0  0  0  0  0  0  0
   -6.8302    8.0648   10.0993 N   0  0  0  0  0  0  0  0  0  0  0  0
   -6.1427    6.8794   10.2595 C   0  0  0  0  0  0  0  0  0  0  0  0
   -6.8015    5.6417   10.2251 C   0  0  0  0  0  0  0  0  0  0  0  0
   -6.1143    4.4203   10.3193 C   0  0  0  0  0  0  0  0  0  0  0  0
   -4.7338    4.3971   10.4646 C   0  0  0  0  0  0  0  0  0  0  0  0
   -3.9640    3.2179   10.5329 N   0  0  0  0  0  0  0  0  0  0  0  0
   -4.4103    1.9031   10.5074 C   0  0  0  0  0  0  0  0  0  0  0  0
   -5.5793    1.5219   10.5021 O   0  0  0  0  0  0  0  0  0  0  0  0
   -3.2591    0.9020   10.4562 C   0  0  0  0  0  0  0  0  0  0  0  0
   -2.8603    0.3582   11.7445 N   0  0  0  0  0  0  0  0  0  0  0  0
   -2.4398    1.2644   12.8095 C   0  0  0  0  0  0  0  0  0  0  0  0
   -1.2530    0.5848   13.5066 C   0  0  2  0  0  0  0  0  0  0  0  0
   -0.0542    0.6900   12.5248 C   0  0  0  0  0  0  0  0  0  0  0  0
    0.4323    1.7846   12.2464 O   0  0  0  0  0  0  0  0  0  0  0  0
    0.3386   -0.5068   11.9716 N   0  0  0  0  0  0  0  0  0  0  0  0
    1.3505   -0.7929   11.0319 C   0  0  0  0  0  0  0  0  0  0  0  0
    2.1296    0.1842   10.4140 C   0  0  0  0  0  0  0  0  0  0  0  0
    3.1719   -0.0860    9.5937 N   0  0  0  0  0  0  0  0  0  0  0  0
    3.4214   -1.3880    9.3344 C   0  0  0  0  0  0  0  0  0  0  0  0
    2.6420   -2.4448    9.7955 C   0  0  0  0  0  0  0  0  0  0  0  0
    2.8726   -3.7699    9.3704 C   0  0  0  0  0  0  0  0  0  0  0  0
    2.0669   -4.8177    9.8216 C   0  0  0  0  0  0  0  0  0  0  0  0
    1.0654   -4.5637   10.7428 C   0  0  0  0  0  0  0  0  0  0  0  0
    0.8340   -3.2604   11.1768 C   0  0  0  0  0  0  0  0  0  0  0  0
    1.5919   -2.1572   10.6953 C   0  0  0  0  0  0  0  0  0  0  0  0
   -1.6590   -0.8350   13.9469 C   0  0  0  0  0  0  0  0  0  0  0  0
   -0.9221   -1.5150   14.9309 C   0  0  0  0  0  0  0  0  0  0  0  0
   -1.2715   -2.8203   15.2892 C   0  0  0  0  0  0  0  0  0  0  0  0
   -0.3842   -3.6405   16.5133 Cl  0  0  0  0  0  0  0  0  0  0  0  0
   -2.3374   -3.4714   14.6683 C   0  0  0  0  0  0  0  0  0  0  0  0
   -3.0764   -2.8053   13.6857 C   0  0  0  0  0  0  0  0  0  0  0  0
   -2.7480   -1.4927   13.3188 C   0  0  0  0  0  0  0  0  0  0  0  0
   -3.5981   -0.7782   12.2691 C   0  0  0  0  0  0  0  0  0  0  0  0
   -4.0542    5.6176   10.5179 C   0  0  0  0  0  0  0  0  0  0  0  0
   -4.7504    6.8334   10.4154 C   0  0  0  0  0  0  0  0  0  0  0  0
   -6.2266    9.2329    9.4441 C   0  0  0  0  0  0  0  0  0  0  0  0
   -7.2377    9.8693    8.4560 C   0  0  0  0  0  0  0  0  0  0  0  0
   -8.4069   13.4980    9.8815 H   0  0  0  0  0  0  0  0  0  0  0  0
   -8.6336   12.8034    8.2712 H   0  0  0  0  0  0  0  0  0  0  0  0
   -7.0664   12.6603    9.0999 H   0  0  0  0  0  0  0  0  0  0  0  0
   -9.6599   11.5062   10.1969 H   0  0  0  0  0  0  0  0  0  0  0  0
   -8.0412   11.1820   10.8127 H   0  0  0  0  0  0  0  0  0  0  0  0
   -9.3372    8.2361    8.8877 H   0  0  0  0  0  0  0  0  0  0  0  0
  -10.0646    9.1934   10.1558 H   0  0  0  0  0  0  0  0  0  0  0  0
   -8.6272    7.3756   11.0530 H   0  0  0  0  0  0  0  0  0  0  0  0
   -8.0391    8.9397   11.5750 H   0  0  0  0  0  0  0  0  0  0  0  0
   -7.8740    5.5982   10.0643 H   0  0  0  0  0  0  0  0  0  0  0  0
   -6.6976    3.5073   10.2522 H   0  0  0  0  0  0  0  0  0  0  0  0
   -2.9622    3.3543   10.6005 H   0  0  0  0  0  0  0  0  0  0  0  0
   -2.3822    1.3765    9.9971 H   0  0  0  0  0  0  0  0  0  0  0  0
   -3.5329    0.0976    9.7631 H   0  0  0  0  0  0  0  0  0  0  0  0
   -3.2541    1.4541   13.5171 H   0  0  0  0  0  0  0  0  0  0  0  0
   -2.1332    2.2461   12.4154 H   0  0  0  0  0  0  0  0  0  0  0  0
   -0.9797    1.1536   14.4035 H   0  0  0  0  0  0  0  0  0  0  0  0
   -0.1723   -1.3083   12.3031 H   0  0  0  0  0  0  0  0  0  0  0  0
    1.9395    1.2450   10.5424 H   0  0  0  0  0  0  0  0  0  0  0  0
    4.2909   -1.5624    8.7091 H   0  0  0  0  0  0  0  0  0  0  0  0
    3.6600   -3.9915    8.6500 H   0  0  0  0  0  0  0  0  0  0  0  0
    2.2286   -5.8268    9.4563 H   0  0  0  0  0  0  0  0  0  0  0  0
    0.4462   -5.3756   11.1210 H   0  0  0  0  0  0  0  0  0  0  0  0
    0.0284   -3.1330   11.8943 H   0  0  0  0  0  0  0  0  0  0  0  0
   -0.0778   -1.0365   15.4193 H   0  0  0  0  0  0  0  0  0  0  0  0
   -2.6013   -4.4853   14.9530 H   0  0  0  0  0  0  0  0  0  0  0  0
   -3.9136   -3.3183   13.2126 H   0  0  0  0  0  0  0  0  0  0  0  0
   -4.5475   -0.4732   12.7257 H   0  0  0  0  0  0  0  0  0  0  0  0
   -3.8152   -1.4903   11.4647 H   0  0  0  0  0  0  0  0  0  0  0  0
   -2.9731    5.6511   10.6346 H   0  0  0  0  0  0  0  0  0  0  0  0
   -4.1774    7.7553   10.4786 H   0  0  0  0  0  0  0  0  0  0  0  0
   -5.3425    8.9532    8.8608 H   0  0  0  0  0  0  0  0  0  0  0  0
   -5.9126    9.9640   10.1976 H   0  0  0  0  0  0  0  0  0  0  0  0
   -7.3899    9.1573    7.6324 H   0  0  0  0  0  0  0  0  0  0  0  0
   -6.7869   10.7475    7.9819 H   0  0  0  0  0  0  0  0  0  0  0  0
  1  2  1  0  0  0  0
  1 43  1  0  0  0  0
  1 44  1  0  0  0  0
  1 45  1  0  0  0  0
  2  3  1  0  0  0  0
  2 46  1  0  0  0  0
  2 47  1  0  0  0  0
  3  4  1  0  0  0  0
  3 42  1  0  0  0  0
  4  5  1  0  0  0  0
  4 48  1  0  0  0  0
  4 49  1  0  0  0  0
  5  6  1  0  0  0  0
  5 50  1  0  0  0  0
  5 51  1  0  0  0  0
  6  7  1  0  0  0  0
  6 41  1  0  0  0  0
  7  8  1  0  0  0  0
  7 40  2  0  0  0  0
  8  9  2  0  0  0  0
  8 52  1  0  0  0  0
  9 10  1  0  0  0  0
  9 53  1  0  0  0  0
 10 11  1  0  0  0  0
 10 39  2  0  0  0  0
 11 12  1  0  0  0  0
 11 54  1  0  0  0  0
 12 13  2  0  0  0  0
 12 14  1  0  0  0  0
 14 15  1  0  0  0  0
 14 55  1  0  0  0  0
 14 56  1  0  0  0  0
 15 16  1  0  0  0  0
 15 38  1  0  0  0  0
 16 17  1  0  0  0  0
 16 57  1  0  0  0  0
 16 58  1  0  0  0  0
 17 31  1  0  0  0  0
 17 18  1  0  0  0  0
 17 59  1  1  0  0  0
 18 19  2  0  0  0  0
 18 20  1  0  0  0  0
 20 21  1  0  0  0  0
 20 60  1  0  0  0  0
 21 22  1  0  0  0  0
 21 30  2  0  0  0  0
 22 23  2  0  0  0  0
 22 61  1  0  0  0  0
 23 24  1  0  0  0  0
 24 25  2  0  0  0  0
 24 62  1  0  0  0  0
 25 26  1  0  0  0  0
 25 30  1  0  0  0  0
 26 27  2  0  0  0  0
 26 63  1  0  0  0  0
 27 28  1  0  0  0  0
 27 64  1  0  0  0  0
 28 29  2  0  0  0  0
 28 65  1  0  0  0  0
 29 30  1  0  0  0  0
 29 66  1  0  0  0  0
 31 32  1  0  0  0  0
 31 37  2  0  0  0  0
 32 33  2  0  0  0  0
 32 67  1  0  0  0  0
 33 34  1  0  0  0  0
 33 35  1  0  0  0  0
 35 36  2  0  0  0  0
 35 68  1  0  0  0  0
 36 37  1  0  0  0  0
 36 69  1  0  0  0  0
 37 38  1  0  0  0  0
 38 70  1  0  0  0  0
 38 71  1  0  0  0  0
 39 40  1  0  0  0  0
 39 72  1  0  0  0  0
 40 73  1  0  0  0  0
 41 42  1  0  0  0  0
 41 74  1  0  0  0  0
 41 75  1  0  0  0  0
 42 76  1  0  0  0  0
 42 77  1  0  0  0  0
M  END
$$$$
