
 OpenBabel07202414133D

 43 45  0  0  0  0  0  0  0  0999 V2000
   -0.2049    1.5650   -6.6761 C   0  0  0  0  0  0  0  0  0  0  0  0
    0.1175    0.1478   -6.2231 C   0  0  0  0  0  0  0  0  0  0  0  0
    1.5645    0.0826   -5.7325 C   0  0  0  0  0  0  0  0  0  0  0  0
    1.9214   -1.3254   -5.2982 C   0  0  0  0  0  0  0  0  0  0  0  0
    3.3476   -1.4546   -4.9199 C   0  0  0  0  0  0  0  0  0  0  0  0
    4.1362   -2.4464   -5.2866 N   0  0  0  0  0  0  0  0  0  0  0  0
    5.0921   -2.4856   -4.3081 C   0  0  0  0  0  0  0  0  0  0  0  0
    5.5485   -3.7839   -3.7017 C   0  0  0  0  0  0  0  0  0  0  0  0
    5.8947   -3.8105   -2.4261 N   0  0  0  0  0  0  0  0  0  0  0  0
    4.9292   -4.6125   -1.8655 C   0  0  0  0  0  0  0  0  0  0  0  0
    4.2206   -5.2738   -2.8373 C   0  0  0  0  0  0  0  0  0  0  0  0
    4.8999   -4.9731   -3.9884 N   0  0  0  0  0  0  0  0  0  0  0  0
    5.0398   -5.7835   -5.1798 C   0  0  0  0  0  0  0  0  0  0  0  0
    3.9718   -6.8709   -5.3660 C   0  0  0  0  0  0  0  0  0  0  0  0
    2.5804   -6.3680   -5.6568 C   0  0  0  0  0  0  0  0  0  0  0  0
    2.3460   -5.3414   -6.5669 C   0  0  0  0  0  0  0  0  0  0  0  0
    1.0429   -4.9212   -6.7919 C   0  0  0  0  0  0  0  0  0  0  0  0
   -0.0022   -5.5403   -6.1144 C   0  0  0  0  0  0  0  0  0  0  0  0
    0.3090   -6.5695   -5.2446 C   0  0  0  0  0  0  0  0  0  0  0  0
    1.5680   -6.9956   -5.0039 N   0  0  0  0  0  0  0  0  0  0  0  0
    5.1091   -1.3105   -3.5767 C   0  0  0  0  0  0  0  0  0  0  0  0
    3.9461   -0.6812   -3.9428 N   0  0  0  0  0  0  0  0  0  0  0  0
   -1.2388    1.6311   -7.0217 H   0  0  0  0  0  0  0  0  0  0  0  0
    0.4534    1.8679   -7.4990 H   0  0  0  0  0  0  0  0  0  0  0  0
   -0.0713    2.2774   -5.8545 H   0  0  0  0  0  0  0  0  0  0  0  0
   -0.0271   -0.5441   -7.0560 H   0  0  0  0  0  0  0  0  0  0  0  0
   -0.5638   -0.1447   -5.4194 H   0  0  0  0  0  0  0  0  0  0  0  0
    1.7009    0.7789   -4.8948 H   0  0  0  0  0  0  0  0  0  0  0  0
    2.2458    0.4065   -6.5296 H   0  0  0  0  0  0  0  0  0  0  0  0
    1.7151   -2.0308   -6.1099 H   0  0  0  0  0  0  0  0  0  0  0  0
    1.2990   -1.6338   -4.4480 H   0  0  0  0  0  0  0  0  0  0  0  0
    4.7663   -4.6272   -0.7982 H   0  0  0  0  0  0  0  0  0  0  0  0
    3.3590   -5.9314   -2.8049 H   0  0  0  0  0  0  0  0  0  0  0  0
    6.0062   -6.2876   -5.0567 H   0  0  0  0  0  0  0  0  0  0  0  0
    5.1244   -5.1225   -6.0491 H   0  0  0  0  0  0  0  0  0  0  0  0
    3.9368   -7.5054   -4.4692 H   0  0  0  0  0  0  0  0  0  0  0  0
    4.2698   -7.5357   -6.1852 H   0  0  0  0  0  0  0  0  0  0  0  0
    3.1609   -4.8499   -7.0907 H   0  0  0  0  0  0  0  0  0  0  0  0
    0.8439   -4.1081   -7.4827 H   0  0  0  0  0  0  0  0  0  0  0  0
   -1.0286   -5.2278   -6.2619 H   0  0  0  0  0  0  0  0  0  0  0  0
   -0.4694   -7.0945   -4.6986 H   0  0  0  0  0  0  0  0  0  0  0  0
    5.6339   -1.0418   -2.6710 H   0  0  0  0  0  0  0  0  0  0  0  0
    3.4946    0.0631   -3.4246 H   0  0  0  0  0  0  0  0  0  0  0  0
  1  2  1  0  0  0  0
  1 23  1  0  0  0  0
  1 24  1  0  0  0  0
  1 25  1  0  0  0  0
  2  3  1  0  0  0  0
  2 26  1  0  0  0  0
  2 27  1  0  0  0  0
  3  4  1  0  0  0  0
  3 28  1  0  0  0  0
  3 29  1  0  0  0  0
  4  5  1  0  0  0  0
  4 30  1  0  0  0  0
  4 31  1  0  0  0  0
  5  6  2  0  0  0  0
  5 22  1  0  0  0  0
  6  7  1  0  0  0  0
  7  8  1  0  0  0  0
  7 21  2  0  0  0  0
  8  9  2  0  0  0  0
  8 12  1  0  0  0  0
  9 10  1  0  0  0  0
 10 11  2  0  0  0  0
 10 32  1  0  0  0  0
 11 12  1  0  0  0  0
 11 33  1  0  0  0  0
 12 13  1  0  0  0  0
 13 14  1  0  0  0  0
 13 34  1  0  0  0  0
 13 35  1  0  0  0  0
 14 15  1  0  0  0  0
 14 36  1  0  0  0  0
 14 37  1  0  0  0  0
 15 16  1  0  0  0  0
 15 20  2  0  0  0  0
 16 17  2  0  0  0  0
 16 38  1  0  0  0  0
 17 18  1  0  0  0  0
 17 39  1  0  0  0  0
 18 19  2  0  0  0  0
 18 40  1  0  0  0  0
 19 20  1  0  0  0  0
 19 41  1  0  0  0  0
 21 22  1  0  0  0  0
 21 42  1  0  0  0  0
 22 43  1  0  0  0  0
M  END
$$$$
