
 OpenBabel07202414123D

 64 67  0  0  1  0  0  0  0  0999 V2000
    9.5099   -5.1480   -5.2756 C   0  0  0  0  0  0  0  0  0  0  0  0
    8.0525   -5.4541   -5.6656 C   0  0  0  0  0  0  0  0  0  0  0  0
    7.6616   -4.6082   -6.8809 C   0  0  0  0  0  0  0  0  0  0  0  0
    8.0194   -6.8332   -6.0666 O   0  0  0  0  0  0  0  0  0  0  0  0
    7.0630   -5.2806   -4.5150 C   0  0  0  0  0  0  0  0  0  0  0  0
    7.3013   -4.4140   -3.4505 C   0  0  0  0  0  0  0  0  0  0  0  0
    6.4601   -4.3795   -2.3224 C   0  0  0  0  0  0  0  0  0  0  0  0
    5.3091   -5.1717   -2.2030 C   0  0  0  0  0  0  0  0  0  0  0  0
    4.5150   -5.2232   -0.9575 N   0  0  0  0  0  0  0  0  0  0  0  0
    3.6350   -6.4202   -0.7500 C   0  0  3  0  0  0  0  0  0  0  0  0
    4.2155   -7.3900    0.3323 C   0  0  0  0  0  0  0  0  0  0  0  0
    4.6151   -7.0420    1.4414 O   0  0  0  0  0  0  0  0  0  0  0  0
    4.3570   -8.7193   -0.0621 N   0  0  0  0  0  0  0  0  0  0  0  0
    4.9645   -9.6758    0.8506 C   0  0  0  0  0  0  0  0  0  0  0  0
    5.2550  -11.0346    0.2105 C   0  0  0  0  0  0  0  0  0  0  0  0
    5.8670  -11.9776    1.2183 C   0  0  0  0  0  0  0  0  0  0  0  0
    7.2604  -12.0760    1.3548 C   0  0  0  0  0  0  0  0  0  0  0  0
    7.8230  -12.8736    2.3561 C   0  0  0  0  0  0  0  0  0  0  0  0
    6.9987  -13.5802    3.2297 C   0  0  0  0  0  0  0  0  0  0  0  0
    5.6198  -13.4973    3.0841 C   0  0  0  0  0  0  0  0  0  0  0  0
    4.8257  -14.1727    3.9254 F   0  0  0  0  0  0  0  0  0  0  0  0
    5.0482  -12.7089    2.0900 C   0  0  0  0  0  0  0  0  0  0  0  0
    2.1290   -6.1658   -0.7489 C   0  0  0  0  0  0  0  0  0  0  0  0
    1.5584   -4.8982   -0.9448 C   0  0  0  0  0  0  0  0  0  0  0  0
    0.1769   -4.7395   -1.0130 C   0  0  0  0  0  0  0  0  0  0  0  0
   -0.6137   -5.8685   -0.9462 C   0  0  0  0  0  0  0  0  0  0  0  0
   -0.1207   -7.1127   -0.7740 N   0  0  0  0  0  0  0  0  0  0  0  0
    1.2282   -7.2276   -0.6638 C   0  0  0  0  0  0  0  0  0  0  0  0
    4.6878   -4.2233    0.0547 C   0  0  0  0  0  0  0  0  0  0  0  0
    5.3500   -3.1997   -0.1261 O   0  0  0  0  0  0  0  0  0  0  0  0
    4.0639   -4.3401    1.3801 C   0  0  0  0  0  0  0  0  0  0  0  0
    4.6396   -3.8529    2.5393 C   0  0  0  0  0  0  0  0  0  0  0  0
    3.7844   -4.0592    3.5770 O   0  0  0  0  0  0  0  0  0  0  0  0
    2.7217   -4.6581    2.9910 C   0  0  0  0  0  0  0  0  0  0  0  0
    2.8146   -4.8413    1.6896 N   0  0  0  0  0  0  0  0  0  0  0  0
    5.0017   -5.9364   -3.3435 C   0  0  0  0  0  0  0  0  0  0  0  0
    5.8639   -6.0056   -4.4624 C   0  0  0  0  0  0  0  0  0  0  0  0
   10.1941   -5.3778   -6.1010 H   0  0  0  0  0  0  0  0  0  0  0  0
    9.8285   -5.7687   -4.4296 H   0  0  0  0  0  0  0  0  0  0  0  0
    9.6606   -4.0961   -5.0116 H   0  0  0  0  0  0  0  0  0  0  0  0
    8.3617   -4.7773   -7.7091 H   0  0  0  0  0  0  0  0  0  0  0  0
    7.6592   -3.5380   -6.6496 H   0  0  0  0  0  0  0  0  0  0  0  0
    6.6710   -4.8846   -7.2588 H   0  0  0  0  0  0  0  0  0  0  0  0
    8.6981   -6.9572   -6.7510 H   0  0  0  0  0  0  0  0  0  0  0  0
    8.1693   -3.7605   -3.4399 H   0  0  0  0  0  0  0  0  0  0  0  0
    6.8066   -3.7266   -1.5301 H   0  0  0  0  0  0  0  0  0  0  0  0
    3.7298   -7.0357   -1.6449 H   0  0  0  0  0  0  0  0  0  0  0  0
    4.0072   -9.0396   -0.9557 H   0  0  0  0  0  0  0  0  0  0  0  0
    4.2848   -9.7854    1.7042 H   0  0  0  0  0  0  0  0  0  0  0  0
    5.8940   -9.2363    1.2357 H   0  0  0  0  0  0  0  0  0  0  0  0
    5.9293  -10.9142   -0.6469 H   0  0  0  0  0  0  0  0  0  0  0  0
    4.3330  -11.4718   -0.1927 H   0  0  0  0  0  0  0  0  0  0  0  0
    7.9198  -11.5170    0.6930 H   0  0  0  0  0  0  0  0  0  0  0  0
    8.9036  -12.9312    2.4632 H   0  0  0  0  0  0  0  0  0  0  0  0
    7.4200  -14.1870    4.0244 H   0  0  0  0  0  0  0  0  0  0  0  0
    3.9655  -12.6579    2.0203 H   0  0  0  0  0  0  0  0  0  0  0  0
    2.1735   -4.0053   -1.0035 H   0  0  0  0  0  0  0  0  0  0  0  0
   -0.2663   -3.7551   -1.1233 H   0  0  0  0  0  0  0  0  0  0  0  0
   -1.6951   -5.8023   -1.0311 H   0  0  0  0  0  0  0  0  0  0  0  0
    1.5606   -8.2525   -0.5241 H   0  0  0  0  0  0  0  0  0  0  0  0
    5.5794   -3.3742    2.7711 H   0  0  0  0  0  0  0  0  0  0  0  0
    1.8900   -4.9164    3.6335 H   0  0  0  0  0  0  0  0  0  0  0  0
    4.0834   -6.5076   -3.4393 H   0  0  0  0  0  0  0  0  0  0  0  0
    5.5962   -6.6622   -5.2925 H   0  0  0  0  0  0  0  0  0  0  0  0
  1  2  1  0  0  0  0
  1 38  1  0  0  0  0
  1 39  1  0  0  0  0
  1 40  1  0  0  0  0
  2  3  1  0  0  0  0
  2  4  1  0  0  0  0
  2  5  1  0  0  0  0
  3 41  1  0  0  0  0
  3 42  1  0  0  0  0
  3 43  1  0  0  0  0
  4 44  1  0  0  0  0
  5  6  1  0  0  0  0
  5 37  2  0  0  0  0
  6  7  2  0  0  0  0
  6 45  1  0  0  0  0
  7  8  1  0  0  0  0
  7 46  1  0  0  0  0
  8  9  1  0  0  0  0
  8 36  2  0  0  0  0
  9 10  1  0  0  0  0
  9 29  1  0  0  0  0
 10 11  1  0  0  0  0
 10 23  1  0  0  0  0
 10 47  1  0  0  0  0
 11 12  2  0  0  0  0
 11 13  1  0  0  0  0
 13 14  1  0  0  0  0
 13 48  1  0  0  0  0
 14 15  1  0  0  0  0
 14 49  1  0  0  0  0
 14 50  1  0  0  0  0
 15 16  1  0  0  0  0
 15 51  1  0  0  0  0
 15 52  1  0  0  0  0
 16 17  1  0  0  0  0
 16 22  2  0  0  0  0
 17 18  2  0  0  0  0
 17 53  1  0  0  0  0
 18 19  1  0  0  0  0
 18 54  1  0  0  0  0
 19 20  2  0  0  0  0
 19 55  1  0  0  0  0
 20 21  1  0  0  0  0
 20 22  1  0  0  0  0
 22 56  1  0  0  0  0
 23 24  1  0  0  0  0
 23 28  2  0  0  0  0
 24 25  2  0  0  0  0
 24 57  1  0  0  0  0
 25 26  1  0  0  0  0
 25 58  1  0  0  0  0
 26 27  2  0  0  0  0
 26 59  1  0  0  0  0
 27 28  1  0  0  0  0
 28 60  1  0  0  0  0
 29 30  2  0  0  0  0
 29 31  1  0  0  0  0
 31 32  2  0  0  0  0
 31 35  1  0  0  0  0
 32 33  1  0  0  0  0
 32 61  1  0  0  0  0
 33 34  1  0  0  0  0
 34 35  2  0  0  0  0
 34 62  1  0  0  0  0
 36 37  1  0  0  0  0
 36 63  1  0  0  0  0
 37 64  1  0  0  0  0
M  END
$$$$
