
 OpenBabel07202414193D

 43 46  0  0  1  0  0  0  0  0999 V2000
    1.1853    0.6724    0.0466 O   0  0  0  0  0  0  0  0  0  0  0  0
    2.1898   -0.0396   -0.0333 C   0  0  0  0  0  0  0  0  0  0  0  0
    2.6623   -0.8212    1.1863 C   0  0  0  0  0  0  0  0  0  0  0  0
    3.7181   -0.0804    1.9785 C   0  0  0  0  0  0  0  0  0  0  0  0
    3.6440    1.3156    2.0711 C   0  0  0  0  0  0  0  0  0  0  0  0
    4.5226    2.0911    2.7323 N   0  0  0  0  0  0  0  0  0  0  0  0
    5.5263    1.4539    3.3611 C   0  0  0  0  0  0  0  0  0  0  0  0
    5.7069    0.0708    3.3702 C   0  0  0  0  0  0  0  0  0  0  0  0
    6.7852   -0.5133    4.0570 C   0  0  0  0  0  0  0  0  0  0  0  0
    6.9620   -1.8936    4.0596 C   0  0  0  0  0  0  0  0  0  0  0  0
    6.0610   -2.7042    3.3807 C   0  0  0  0  0  0  0  0  0  0  0  0
    4.9838   -2.1288    2.6979 C   0  0  0  0  0  0  0  0  0  0  0  0
    4.7773   -0.7321    2.6675 C   0  0  0  0  0  0  0  0  0  0  0  0
    2.9702   -0.0967   -1.1782 N   0  0  0  0  0  0  0  0  0  0  0  0
    4.1644   -0.9195   -1.3620 C   0  0  0  0  0  0  0  0  0  0  0  0
    5.3577   -0.0612   -1.7477 C   0  0  0  0  0  0  0  0  0  0  0  0
    5.0527    0.7973   -2.9734 C   0  0  0  0  0  0  0  0  0  0  0  0
    3.7458    1.5968   -2.8124 C   0  0  1  0  0  0  0  0  0  0  0  0
    3.3734    2.2518   -4.0986 C   0  0  0  0  0  0  0  0  0  0  0  0
    3.1285    1.6866   -5.2655 N   0  0  0  0  0  0  0  0  0  0  0  0
    2.7948    2.7424   -6.0705 C   0  0  0  0  0  0  0  0  0  0  0  0
    2.8535    3.9101   -5.3582 C   0  0  0  0  0  0  0  0  0  0  0  0
    3.2297    3.6105   -4.0850 O   0  0  0  0  0  0  0  0  0  0  0  0
    2.5920    0.6917   -2.3516 C   0  0  0  0  0  0  0  0  0  0  0  0
    2.9949   -1.8050    0.8503 H   0  0  0  0  0  0  0  0  0  0  0  0
    1.7968   -1.0204    1.8292 H   0  0  0  0  0  0  0  0  0  0  0  0
    2.8488    1.8810    1.5869 H   0  0  0  0  0  0  0  0  0  0  0  0
    6.2127    2.1157    3.8825 H   0  0  0  0  0  0  0  0  0  0  0  0
    7.4971    0.1098    4.5954 H   0  0  0  0  0  0  0  0  0  0  0  0
    7.8005   -2.3349    4.5929 H   0  0  0  0  0  0  0  0  0  0  0  0
    6.1944   -3.7822    3.3804 H   0  0  0  0  0  0  0  0  0  0  0  0
    4.3021   -2.8099    2.1864 H   0  0  0  0  0  0  0  0  0  0  0  0
    3.9316   -1.6457   -2.1513 H   0  0  0  0  0  0  0  0  0  0  0  0
    4.4249   -1.4930   -0.4726 H   0  0  0  0  0  0  0  0  0  0  0  0
    6.2186   -0.7084   -1.9555 H   0  0  0  0  0  0  0  0  0  0  0  0
    5.6349    0.5856   -0.9076 H   0  0  0  0  0  0  0  0  0  0  0  0
    4.9907    0.1431   -3.8529 H   0  0  0  0  0  0  0  0  0  0  0  0
    5.8895    1.4826   -3.1544 H   0  0  0  0  0  0  0  0  0  0  0  0
    3.9109    2.3627   -2.0430 H   0  0  0  0  0  0  0  0  0  0  0  0
    2.5256    2.6057   -7.1119 H   0  0  0  0  0  0  0  0  0  0  0  0
    2.6752    4.9576   -5.5769 H   0  0  0  0  0  0  0  0  0  0  0  0
    2.3119   -0.0246   -3.1343 H   0  0  0  0  0  0  0  0  0  0  0  0
    1.7008    1.2988   -2.1503 H   0  0  0  0  0  0  0  0  0  0  0  0
  1  2  2  0  0  0  0
  2  3  1  0  0  0  0
  2 14  1  0  0  0  0
  3  4  1  0  0  0  0
  3 25  1  0  0  0  0
  3 26  1  0  0  0  0
  4  5  1  0  0  0  0
  4 13  2  0  0  0  0
  5  6  2  0  0  0  0
  5 27  1  0  0  0  0
  6  7  1  0  0  0  0
  7  8  2  0  0  0  0
  7 28  1  0  0  0  0
  8  9  1  0  0  0  0
  8 13  1  0  0  0  0
  9 10  2  0  0  0  0
  9 29  1  0  0  0  0
 10 11  1  0  0  0  0
 10 30  1  0  0  0  0
 11 12  2  0  0  0  0
 11 31  1  0  0  0  0
 12 13  1  0  0  0  0
 12 32  1  0  0  0  0
 14 15  1  0  0  0  0
 14 24  1  0  0  0  0
 15 16  1  0  0  0  0
 15 33  1  0  0  0  0
 15 34  1  0  0  0  0
 16 17  1  0  0  0  0
 16 35  1  0  0  0  0
 16 36  1  0  0  0  0
 17 18  1  0  0  0  0
 17 37  1  0  0  0  0
 17 38  1  0  0  0  0
 18 19  1  0  0  0  0
 18 24  1  0  0  0  0
 18 39  1  1  0  0  0
 19 20  2  0  0  0  0
 19 23  1  0  0  0  0
 20 21  1  0  0  0  0
 21 22  2  0  0  0  0
 21 40  1  0  0  0  0
 22 23  1  0  0  0  0
 22 41  1  0  0  0  0
 24 42  1  0  0  0  0
 24 43  1  0  0  0  0
M  END
$$$$
