
 OpenBabel07202414203D

 46 49  0  0  0  0  0  0  0  0999 V2000
    4.9943    2.9745   -0.4140 O   0  0  0  0  0  0  0  0  0  0  0  0
    4.3273    2.4820   -1.5050 C   0  0  0  0  0  0  0  0  0  0  0  0
    5.0056    2.2523   -2.6974 C   0  0  0  0  0  0  0  0  0  0  0  0
    4.2987    1.7359   -3.7748 C   0  0  0  0  0  0  0  0  0  0  0  0
    5.1562    1.4065   -5.4198 Br  0  0  0  0  0  0  0  0  0  0  0  0
    2.9497    1.4717   -3.6151 C   0  0  0  0  0  0  0  0  0  0  0  0
    2.2738    1.7085   -2.4725 N   0  0  0  0  0  0  0  0  0  0  0  0
    2.9626    2.2037   -1.4187 C   0  0  0  0  0  0  0  0  0  0  0  0
    2.2703    2.5018   -0.2181 N   0  0  0  0  0  0  0  0  0  0  0  0
    0.8802    2.5852   -0.0519 C   0  0  0  0  0  0  0  0  0  0  0  0
    0.2674    2.0429    1.0836 C   0  0  0  0  0  0  0  0  0  0  0  0
   -1.1135    2.0817    1.2069 C   0  0  0  0  0  0  0  0  0  0  0  0
   -1.8791    1.3450    2.5627 Cl  0  0  0  0  0  0  0  0  0  0  0  0
   -1.9149    2.6787    0.2054 C   0  0  0  0  0  0  0  0  0  0  0  0
   -1.3172    3.2432   -0.9298 C   0  0  0  0  0  0  0  0  0  0  0  0
   -2.1849    3.7073   -2.0811 C   0  0  0  0  0  0  0  0  0  0  0  0
   -2.0219    5.1175   -2.6548 C   0  0  0  0  0  0  0  0  0  0  0  0
   -2.2645    5.3119   -3.8445 O   0  0  0  0  0  0  0  0  0  0  0  0
   -1.6490    6.0965   -1.7719 N   0  0  0  0  0  0  0  0  0  0  0  0
   -1.4857    7.4796   -2.0634 C   0  0  0  0  0  0  0  0  0  0  0  0
   -0.3306    8.0674   -1.5297 C   0  0  0  0  0  0  0  0  0  0  0  0
   -0.0558    9.3878   -1.5155 N   0  0  0  0  0  0  0  0  0  0  0  0
   -1.0307   10.1851   -1.9866 C   0  0  0  0  0  0  0  0  0  0  0  0
   -2.2223    9.7354   -2.5493 C   0  0  0  0  0  0  0  0  0  0  0  0
   -3.1805   10.6729   -2.9655 C   0  0  0  0  0  0  0  0  0  0  0  0
   -4.1604   10.3090   -3.8745 C   0  0  0  0  0  0  0  0  0  0  0  0
   -4.3322    8.9655   -4.1677 C   0  0  0  0  0  0  0  0  0  0  0  0
   -3.5585    7.9964   -3.5053 C   0  0  0  0  0  0  0  0  0  0  0  0
   -2.4247    8.3416   -2.7176 C   0  0  0  0  0  0  0  0  0  0  0  0
    0.0694    3.1835   -1.0421 C   0  0  0  0  0  0  0  0  0  0  0  0
    5.8868    3.2407   -0.6925 H   0  0  0  0  0  0  0  0  0  0  0  0
    6.0626    2.4742   -2.7926 H   0  0  0  0  0  0  0  0  0  0  0  0
    2.3505    1.0566   -4.4210 H   0  0  0  0  0  0  0  0  0  0  0  0
    2.7955    2.1588    0.5840 H   0  0  0  0  0  0  0  0  0  0  0  0
    0.8598    1.5663    1.8545 H   0  0  0  0  0  0  0  0  0  0  0  0
   -2.9895    2.6343    0.3074 H   0  0  0  0  0  0  0  0  0  0  0  0
   -3.2581    3.6017   -1.8254 H   0  0  0  0  0  0  0  0  0  0  0  0
   -2.0038    3.0155   -2.9123 H   0  0  0  0  0  0  0  0  0  0  0  0
   -1.1192    5.7613   -0.9731 H   0  0  0  0  0  0  0  0  0  0  0  0
    0.4608    7.4536   -1.1091 H   0  0  0  0  0  0  0  0  0  0  0  0
   -0.7942   11.2472   -1.9580 H   0  0  0  0  0  0  0  0  0  0  0  0
   -3.1542   11.6945   -2.5911 H   0  0  0  0  0  0  0  0  0  0  0  0
   -4.7754   11.0698   -4.3455 H   0  0  0  0  0  0  0  0  0  0  0  0
   -5.0850    8.6643   -4.8910 H   0  0  0  0  0  0  0  0  0  0  0  0
   -3.8180    6.9597   -3.6839 H   0  0  0  0  0  0  0  0  0  0  0  0
    0.5385    3.5923   -1.9273 H   0  0  0  0  0  0  0  0  0  0  0  0
  1  2  1  0  0  0  0
  1 31  1  0  0  0  0
  2  3  2  0  0  0  0
  2  8  1  0  0  0  0
  3  4  1  0  0  0  0
  3 32  1  0  0  0  0
  4  5  1  0  0  0  0
  4  6  2  0  0  0  0
  6  7  1  0  0  0  0
  6 33  1  0  0  0  0
  7  8  2  0  0  0  0
  8  9  1  0  0  0  0
  9 10  1  0  0  0  0
  9 34  1  0  0  0  0
 10 11  2  0  0  0  0
 10 30  1  0  0  0  0
 11 12  1  0  0  0  0
 11 35  1  0  0  0  0
 12 13  1  0  0  0  0
 12 14  2  0  0  0  0
 14 15  1  0  0  0  0
 14 36  1  0  0  0  0
 15 16  1  0  0  0  0
 15 30  2  0  0  0  0
 16 17  1  0  0  0  0
 16 37  1  0  0  0  0
 16 38  1  0  0  0  0
 17 18  2  0  0  0  0
 17 19  1  0  0  0  0
 19 20  1  0  0  0  0
 19 39  1  0  0  0  0
 20 21  2  0  0  0  0
 20 29  1  0  0  0  0
 21 22  1  0  0  0  0
 21 40  1  0  0  0  0
 22 23  2  0  0  0  0
 23 24  1  0  0  0  0
 23 41  1  0  0  0  0
 24 25  2  0  0  0  0
 24 29  1  0  0  0  0
 25 26  1  0  0  0  0
 25 42  1  0  0  0  0
 26 27  2  0  0  0  0
 26 43  1  0  0  0  0
 27 28  1  0  0  0  0
 27 44  1  0  0  0  0
 28 29  2  0  0  0  0
 28 45  1  0  0  0  0
 30 46  1  0  0  0  0
M  END
$$$$
