
 OpenBabel07202414133D

 64 69  0  0  1  0  0  0  0  0999 V2000
    4.1282   -1.8606    1.4001 C   0  0  0  0  0  0  0  0  0  0  0  0
    3.6104   -2.1628    0.0007 C   0  0  0  0  0  0  0  0  0  0  0  0
    3.4130   -0.8890   -0.8397 C   0  0  1  0  0  0  0  0  0  0  0  0
    4.7770   -0.2491   -1.0046 C   0  0  0  0  0  0  0  0  0  0  0  0
    5.1847   -0.3800   -2.3726 N   0  0  0  0  0  0  0  0  0  0  0  0
    6.6258   -0.3429   -2.5910 C   0  0  0  0  0  0  0  0  0  0  0  0
    7.2449   -1.3081   -3.3776 C   0  0  0  0  0  0  0  0  0  0  0  0
    8.5596   -1.6400   -3.2811 N   0  0  0  0  0  0  0  0  0  0  0  0
    9.3098   -0.9521   -2.3913 C   0  0  0  0  0  0  0  0  0  0  0  0
    8.8647    0.1396   -1.6585 C   0  0  0  0  0  0  0  0  0  0  0  0
    9.7489    0.8607   -0.8136 C   0  0  0  0  0  0  0  0  0  0  0  0
    9.3171    1.9639   -0.0865 C   0  0  0  0  0  0  0  0  0  0  0  0
    8.0030    2.3792   -0.2279 C   0  0  0  0  0  0  0  0  0  0  0  0
    7.1250    1.6775   -1.0733 C   0  0  0  0  0  0  0  0  0  0  0  0
    7.4975    0.4993   -1.7824 C   0  0  0  0  0  0  0  0  0  0  0  0
    4.1685   -1.0737   -3.1020 C   0  0  0  0  0  0  0  0  0  0  0  0
    4.2781   -1.5523   -4.2232 O   0  0  0  0  0  0  0  0  0  0  0  0
    2.8213   -1.0622   -2.2703 C   0  0  1  0  0  0  0  0  0  0  0  0
    1.9841   -2.3879   -2.4216 C   0  0  0  0  0  0  0  0  0  0  0  0
    0.5079   -2.3119   -1.9487 N   0  0  0  0  0  0  0  0  0  0  0  0
    0.1258   -2.2539   -0.2806 S   0  0  0  0  0  0  0  0  0  0  0  0
    0.5826   -3.5024    0.2968 O   0  0  0  0  0  0  0  0  0  0  0  0
    0.6090   -0.9858    0.2142 O   0  0  0  0  0  0  0  0  0  0  0  0
   -1.6831   -2.2566   -0.1257 C   0  0  0  0  0  0  0  0  0  0  0  0
   -2.0405   -2.0935    1.3553 C   0  0  0  0  0  0  0  0  0  0  0  0
   -1.6558   -0.8402    1.9808 C   0  0  0  0  0  0  0  0  0  0  0  0
   -1.4179    0.1766    2.5012 N   0  0  0  0  0  0  0  0  0  0  0  0
   -3.4436   -2.5658    1.7618 C   0  0  0  0  0  0  0  0  0  0  0  0
   -2.2424   -3.3085    2.2554 C   0  0  0  0  0  0  0  0  0  0  0  0
   -0.1747   -1.3450   -2.8115 C   0  0  0  0  0  0  0  0  0  0  0  0
    0.5060   -0.0011   -2.8478 C   0  0  0  0  0  0  0  0  0  0  0  0
   -0.3141    1.1134   -3.0861 C   0  0  0  0  0  0  0  0  0  0  0  0
    0.2164    2.3911   -3.1519 C   0  0  0  0  0  0  0  0  0  0  0  0
    1.5986    2.5544   -3.0272 C   0  0  0  0  0  0  0  0  0  0  0  0
    2.2610    4.1336   -3.1078 Cl  0  0  0  0  0  0  0  0  0  0  0  0
    2.4321    1.4508   -2.8099 C   0  0  0  0  0  0  0  0  0  0  0  0
    1.9133    0.1473   -2.6807 C   0  0  0  0  0  0  0  0  0  0  0  0
    3.9449   -2.7126    2.0566 H   0  0  0  0  0  0  0  0  0  0  0  0
    3.6266   -0.9842    1.8245 H   0  0  0  0  0  0  0  0  0  0  0  0
    5.2064   -1.6778    1.4025 H   0  0  0  0  0  0  0  0  0  0  0  0
    2.6715   -2.6744    0.1359 H   0  0  0  0  0  0  0  0  0  0  0  0
    4.2728   -2.8765   -0.5044 H   0  0  0  0  0  0  0  0  0  0  0  0
    2.7994   -0.1869   -0.2672 H   0  0  0  0  0  0  0  0  0  0  0  0
    5.5364   -0.7767   -0.4185 H   0  0  0  0  0  0  0  0  0  0  0  0
    4.7394    0.7863   -0.6822 H   0  0  0  0  0  0  0  0  0  0  0  0
    6.6938   -1.9316   -4.0711 H   0  0  0  0  0  0  0  0  0  0  0  0
   10.3278   -1.3203   -2.2752 H   0  0  0  0  0  0  0  0  0  0  0  0
   10.7938    0.5593   -0.7286 H   0  0  0  0  0  0  0  0  0  0  0  0
   10.0064    2.5090    0.5515 H   0  0  0  0  0  0  0  0  0  0  0  0
    7.6524    3.2533    0.3203 H   0  0  0  0  0  0  0  0  0  0  0  0
    6.1337    2.1039   -1.1950 H   0  0  0  0  0  0  0  0  0  0  0  0
    2.4647   -3.2656   -1.9804 H   0  0  0  0  0  0  0  0  0  0  0  0
    1.9348   -2.6424   -3.4933 H   0  0  0  0  0  0  0  0  0  0  0  0
   -2.0478   -3.2054   -0.5305 H   0  0  0  0  0  0  0  0  0  0  0  0
   -2.1023   -1.4144   -0.6776 H   0  0  0  0  0  0  0  0  0  0  0  0
   -4.0786   -3.0676    1.0388 H   0  0  0  0  0  0  0  0  0  0  0  0
   -4.0092   -1.9898    2.4900 H   0  0  0  0  0  0  0  0  0  0  0  0
   -2.0743   -4.3052    1.8613 H   0  0  0  0  0  0  0  0  0  0  0  0
   -2.0144   -3.2281    3.3151 H   0  0  0  0  0  0  0  0  0  0  0  0
   -1.2205   -1.2426   -2.5175 H   0  0  0  0  0  0  0  0  0  0  0  0
   -0.2155   -1.7535   -3.8306 H   0  0  0  0  0  0  0  0  0  0  0  0
   -1.4016    0.9931   -3.1897 H   0  0  0  0  0  0  0  0  0  0  0  0
   -0.4361    3.2460   -3.2932 H   0  0  0  0  0  0  0  0  0  0  0  0
    3.4976    1.6387   -2.7258 H   0  0  0  0  0  0  0  0  0  0  0  0
  1  2  1  0  0  0  0
  1 38  1  0  0  0  0
  1 39  1  0  0  0  0
  1 40  1  0  0  0  0
  2 41  1  0  0  0  0
  2 42  1  0  0  0  0
  3  4  1  0  0  0  0
  3 18  1  0  0  0  0
  3  2  1  0  0  0  0
  3 43  1  1  0  0  0
  4  5  1  0  0  0  0
  4 44  1  0  0  0  0
  4 45  1  0  0  0  0
  5  6  1  0  0  0  0
  5 16  1  0  0  0  0
  6  7  1  0  0  0  0
  6 15  2  0  0  0  0
  7  8  2  0  0  0  0
  7 46  1  0  0  0  0
  8  9  1  0  0  0  0
  9 10  2  0  0  0  0
  9 47  1  0  0  0  0
 10 11  1  0  0  0  0
 10 15  1  0  0  0  0
 11 12  2  0  0  0  0
 11 48  1  0  0  0  0
 12 13  1  0  0  0  0
 12 49  1  0  0  0  0
 13 14  2  0  0  0  0
 13 50  1  0  0  0  0
 14 15  1  0  0  0  0
 14 51  1  0  0  0  0
 16 17  2  0  0  0  0
 18 16  1  6  0  0  0
 18 19  1  0  0  0  0
 18 37  1  0  0  0  0
 19 20  1  0  0  0  0
 19 52  1  0  0  0  0
 19 53  1  0  0  0  0
 20 21  1  0  0  0  0
 20 30  1  0  0  0  0
 21 22  2  0  0  0  0
 21 23  2  0  0  0  0
 21 24  1  0  0  0  0
 24 25  1  0  0  0  0
 24 54  1  0  0  0  0
 24 55  1  0  0  0  0
 25 26  1  0  0  0  0
 25 28  1  0  0  0  0
 25 29  1  0  0  0  0
 26 27  3  0  0  0  0
 28 29  1  0  0  0  0
 28 56  1  0  0  0  0
 28 57  1  0  0  0  0
 29 58  1  0  0  0  0
 29 59  1  0  0  0  0
 30 31  1  0  0  0  0
 30 60  1  0  0  0  0
 30 61  1  0  0  0  0
 31 32  1  0  0  0  0
 31 37  2  0  0  0  0
 32 33  2  0  0  0  0
 32 62  1  0  0  0  0
 33 34  1  0  0  0  0
 33 63  1  0  0  0  0
 34 35  1  0  0  0  0
 34 36  2  0  0  0  0
 36 37  1  0  0  0  0
 36 64  1  0  0  0  0
M  END
$$$$
