
 OpenBabel07202414193D

 50 53  0  0  0  0  0  0  0  0999 V2000
    2.4821    0.6511   -0.0300 O   0  0  0  0  0  0  0  0  0  0  0  0
    2.5502    1.8809   -0.0761 C   0  0  0  0  0  0  0  0  0  0  0  0
    1.4970    2.7674    0.7170 C   0  0  0  0  0  0  0  0  0  0  0  0
    0.8613    2.2830    2.0542 C   0  0  0  0  0  0  0  0  0  0  0  0
    1.1260    1.0344    2.6066 C   0  0  0  0  0  0  0  0  0  0  0  0
    0.5981    0.5637    3.7699 N   0  0  0  0  0  0  0  0  0  0  0  0
   -0.2624    1.3709    4.4291 C   0  0  0  0  0  0  0  0  0  0  0  0
   -0.6040    2.6600    4.0130 C   0  0  0  0  0  0  0  0  0  0  0  0
   -1.5024    3.4881    4.7072 C   0  0  0  0  0  0  0  0  0  0  0  0
   -1.7962    4.7701    4.2306 C   0  0  0  0  0  0  0  0  0  0  0  0
   -1.1417    5.2647    3.1103 C   0  0  0  0  0  0  0  0  0  0  0  0
   -0.2344    4.4636    2.4376 C   0  0  0  0  0  0  0  0  0  0  0  0
   -0.0193    3.1229    2.7990 C   0  0  0  0  0  0  0  0  0  0  0  0
    3.5784    2.5588   -0.9076 N   0  0  0  0  0  0  0  0  0  0  0  0
    3.5872    4.2720   -0.8440 C   0  0  0  0  0  0  0  0  0  0  0  0
    3.8491    5.5552   -2.0175 C   0  0  0  0  0  0  0  0  0  0  0  0
    4.5162    4.8895   -3.0650 C   0  0  0  0  0  0  0  0  0  0  0  0
    5.2294    4.2072   -4.2000 C   0  0  0  0  0  0  0  0  0  0  0  0
    5.3037    2.9377   -3.4013 C   0  0  0  0  0  0  0  0  0  0  0  0
    5.5806    1.5851   -3.7263 C   0  0  0  0  0  0  0  0  0  0  0  0
    5.9549    1.2385   -5.0089 C   0  0  0  0  0  0  0  0  0  0  0  0
    5.9146   -0.0885   -5.3218 C   0  0  0  0  0  0  0  0  0  0  0  0
    5.5750   -1.0034   -4.3160 C   0  0  0  0  0  0  0  0  0  0  0  0
    5.2433   -0.6027   -2.9836 C   0  0  0  0  0  0  0  0  0  0  0  0
    5.1865    0.7539   -2.6571 C   0  0  0  0  0  0  0  0  0  0  0  0
    4.7898    1.4145   -1.2246 C   0  0  0  0  0  0  0  0  0  0  0  0
    0.6601    2.9781    0.0312 H   0  0  0  0  0  0  0  0  0  0  0  0
    1.9613    3.7171    0.9917 H   0  0  0  0  0  0  0  0  0  0  0  0
    1.8284    0.3438    2.1595 H   0  0  0  0  0  0  0  0  0  0  0  0
   -0.6788    0.9351    5.3414 H   0  0  0  0  0  0  0  0  0  0  0  0
   -2.0013    3.1321    5.6075 H   0  0  0  0  0  0  0  0  0  0  0  0
   -2.5305    5.3907    4.7355 H   0  0  0  0  0  0  0  0  0  0  0  0
   -1.3425    6.2593    2.7222 H   0  0  0  0  0  0  0  0  0  0  0  0
    0.2908    4.9030    1.5950 H   0  0  0  0  0  0  0  0  0  0  0  0
    4.2198    4.5428    0.0019 H   0  0  0  0  0  0  0  0  0  0  0  0
    2.5565    4.5078   -0.5672 H   0  0  0  0  0  0  0  0  0  0  0  0
    4.4656    6.3774   -1.6315 H   0  0  0  0  0  0  0  0  0  0  0  0
    2.9126    6.0176   -2.4065 H   0  0  0  0  0  0  0  0  0  0  0  0
    3.6136    4.2869   -3.2298 H   0  0  0  0  0  0  0  0  0  0  0  0
    5.3652    4.7627   -2.3599 H   0  0  0  0  0  0  0  0  0  0  0  0
    6.2461    4.5591   -4.4401 H   0  0  0  0  0  0  0  0  0  0  0  0
    4.6390    4.0827   -5.1143 H   0  0  0  0  0  0  0  0  0  0  0  0
    4.2394    2.7218   -3.1659 H   0  0  0  0  0  0  0  0  0  0  0  0
    5.9116    3.0865   -2.4931 H   0  0  0  0  0  0  0  0  0  0  0  0
    6.1690    2.0148   -5.7364 H   0  0  0  0  0  0  0  0  0  0  0  0
    6.1043   -0.3791   -6.3495 H   0  0  0  0  0  0  0  0  0  0  0  0
    5.5460   -2.0532   -4.5952 H   0  0  0  0  0  0  0  0  0  0  0  0
    5.0030   -1.3810   -2.2641 H   0  0  0  0  0  0  0  0  0  0  0  0
    5.6746    1.6610   -0.6132 H   0  0  0  0  0  0  0  0  0  0  0  0
    4.4126    0.4988   -0.7710 H   0  0  0  0  0  0  0  0  0  0  0  0
  1  2  2  0  0  0  0
  2  3  1  0  0  0  0
  2 14  1  0  0  0  0
  3  4  1  0  0  0  0
  3 27  1  0  0  0  0
  3 28  1  0  0  0  0
  4  5  1  0  0  0  0
  4 13  2  0  0  0  0
  5  6  2  0  0  0  0
  5 29  1  0  0  0  0
  6  7  1  0  0  0  0
  7  8  2  0  0  0  0
  7 30  1  0  0  0  0
  8  9  1  0  0  0  0
  8 13  1  0  0  0  0
  9 10  2  0  0  0  0
  9 31  1  0  0  0  0
 10 11  1  0  0  0  0
 10 32  1  0  0  0  0
 11 12  2  0  0  0  0
 11 33  1  0  0  0  0
 12 13  1  0  0  0  0
 12 34  1  0  0  0  0
 14 15  1  0  0  0  0
 14 26  1  0  0  0  0
 15 16  1  0  0  0  0
 15 35  1  0  0  0  0
 15 36  1  0  0  0  0
 16 17  1  0  0  0  0
 16 37  1  0  0  0  0
 16 38  1  0  0  0  0
 17 18  1  0  0  0  0
 17 39  1  0  0  0  0
 17 40  1  0  0  0  0
 18 19  1  0  0  0  0
 18 41  1  0  0  0  0
 18 42  1  0  0  0  0
 19 20  1  0  0  0  0
 19 43  1  0  0  0  0
 19 44  1  0  0  0  0
 20 21  1  0  0  0  0
 20 25  2  0  0  0  0
 21 22  2  0  0  0  0
 21 45  1  0  0  0  0
 22 23  1  0  0  0  0
 22 46  1  0  0  0  0
 23 24  2  0  0  0  0
 23 47  1  0  0  0  0
 24 25  1  0  0  0  0
 24 48  1  0  0  0  0
 25 26  1  0  0  0  0
 26 49  1  0  0  0  0
 26 50  1  0  0  0  0
M  END
$$$$
