
 OpenBabel07202414123D

 65 68  0  0  1  0  0  0  0  0999 V2000
    2.1445    1.3134   -0.9165 C   0  0  0  0  0  0  0  0  0  0  0  0
    1.5696    0.3586    0.1610 C   0  0  0  0  0  0  0  0  0  0  0  0
    0.0361    0.4860    0.1409 C   0  0  0  0  0  0  0  0  0  0  0  0
    1.9485   -1.0751   -0.2822 C   0  0  0  0  0  0  0  0  0  0  0  0
    2.0784    0.6698    1.5796 C   0  0  0  0  0  0  0  0  0  0  0  0
    2.6509    1.8908    1.9148 C   0  0  0  0  0  0  0  0  0  0  0  0
    3.2315    2.1055    3.1804 C   0  0  0  0  0  0  0  0  0  0  0  0
    3.2466    1.1319    4.1978 C   0  0  0  0  0  0  0  0  0  0  0  0
    4.0601    1.2376    5.4173 N   0  0  0  0  0  0  0  0  0  0  0  0
    4.2277    0.0593    6.3622 C   0  0  3  0  0  0  0  0  0  0  0  0
    3.1058    0.0790    7.4582 C   0  0  0  0  0  0  0  0  0  0  0  0
    1.9064    0.1824    7.1912 O   0  0  0  0  0  0  0  0  0  0  0  0
    3.5591   -0.0710    8.7636 N   0  0  0  0  0  0  0  0  0  0  0  0
    2.6967   -0.0135    9.9337 C   0  0  0  0  0  0  0  0  0  0  0  0
    2.9940   -1.1901   10.8707 C   0  0  0  0  0  0  0  0  0  0  0  0
    2.1204   -1.2592   12.0980 C   0  0  0  0  0  0  0  0  0  0  0  0
    0.7262   -1.3714   11.9837 C   0  0  0  0  0  0  0  0  0  0  0  0
   -0.0775   -1.5041   13.1207 C   0  0  0  0  0  0  0  0  0  0  0  0
    0.5047   -1.5359   14.3854 C   0  0  0  0  0  0  0  0  0  0  0  0
    1.8845   -1.4281   14.5030 C   0  0  0  0  0  0  0  0  0  0  0  0
    2.4474   -1.4668   15.7181 F   0  0  0  0  0  0  0  0  0  0  0  0
    2.6936   -1.2904   13.3771 C   0  0  0  0  0  0  0  0  0  0  0  0
    4.5793   -1.3916    5.9417 C   0  0  0  0  0  0  0  0  0  0  0  0
    4.7745   -1.8977    4.6555 C   0  0  0  0  0  0  0  0  0  0  0  0
    5.1523   -3.2364    4.4601 C   0  0  0  0  0  0  0  0  0  0  0  0
    5.3815   -4.0411    5.5654 C   0  0  0  0  0  0  0  0  0  0  0  0
    5.2487   -3.6025    6.8185 N   0  0  0  0  0  0  0  0  0  0  0  0
    4.8492   -2.3196    6.9692 C   0  0  0  0  0  0  0  0  0  0  0  0
    4.6750    2.5015    5.7443 C   0  0  0  0  0  0  0  0  0  0  0  0
    4.6748    3.4897    5.0083 O   0  0  0  0  0  0  0  0  0  0  0  0
    5.4030    2.7144    7.0109 C   0  0  0  0  0  0  0  0  0  0  0  0
    6.4264    3.6589    7.2184 C   0  0  0  0  0  0  0  0  0  0  0  0
    6.8654    3.6109    8.4730 N   0  0  0  0  0  0  0  0  0  0  0  0
    6.0631    2.6605    9.0846 O   0  0  0  0  0  0  0  0  0  0  0  0
    5.1612    2.1212    8.1843 N   0  0  0  0  0  0  0  0  0  0  0  0
    2.4573    0.0134    3.9255 C   0  0  0  0  0  0  0  0  0  0  0  0
    1.9421   -0.2457    2.6346 C   0  0  0  0  0  0  0  0  0  0  0  0
    1.8053    1.0319   -1.9209 H   0  0  0  0  0  0  0  0  0  0  0  0
    3.2413    1.2962   -0.9235 H   0  0  0  0  0  0  0  0  0  0  0  0
    1.8250    2.3500   -0.7605 H   0  0  0  0  0  0  0  0  0  0  0  0
   -0.3698    0.1996   -0.8365 H   0  0  0  0  0  0  0  0  0  0  0  0
   -0.2795    1.5160    0.3425 H   0  0  0  0  0  0  0  0  0  0  0  0
   -0.4319   -0.1583    0.8932 H   0  0  0  0  0  0  0  0  0  0  0  0
    1.5450   -1.2962   -1.2786 H   0  0  0  0  0  0  0  0  0  0  0  0
    1.5506   -1.8422    0.3892 H   0  0  0  0  0  0  0  0  0  0  0  0
    3.0359   -1.2048   -0.3307 H   0  0  0  0  0  0  0  0  0  0  0  0
    2.6962    2.7152    1.2060 H   0  0  0  0  0  0  0  0  0  0  0  0
    3.6910    3.0810    3.2770 H   0  0  0  0  0  0  0  0  0  0  0  0
    5.1733    0.2782    6.8591 H   0  0  0  0  0  0  0  0  0  0  0  0
    4.5455    0.1156    8.9334 H   0  0  0  0  0  0  0  0  0  0  0  0
    1.6485    0.0027    9.6230 H   0  0  0  0  0  0  0  0  0  0  0  0
    2.9070    0.9356   10.4397 H   0  0  0  0  0  0  0  0  0  0  0  0
    4.0499   -1.1408   11.1708 H   0  0  0  0  0  0  0  0  0  0  0  0
    2.8872   -2.1350   10.3220 H   0  0  0  0  0  0  0  0  0  0  0  0
    0.2513   -1.3743   11.0039 H   0  0  0  0  0  0  0  0  0  0  0  0
   -1.1559   -1.5933   13.0154 H   0  0  0  0  0  0  0  0  0  0  0  0
   -0.1046   -1.6508   15.2759 H   0  0  0  0  0  0  0  0  0  0  0  0
    3.7690   -1.2256   13.5176 H   0  0  0  0  0  0  0  0  0  0  0  0
    4.6365   -1.2881    3.7675 H   0  0  0  0  0  0  0  0  0  0  0  0
    5.2774   -3.6425    3.4604 H   0  0  0  0  0  0  0  0  0  0  0  0
    5.7122   -5.0722    5.4590 H   0  0  0  0  0  0  0  0  0  0  0  0
    4.7806   -2.0489    8.0208 H   0  0  0  0  0  0  0  0  0  0  0  0
    6.8623    4.3558    6.5183 H   0  0  0  0  0  0  0  0  0  0  0  0
    2.2437   -0.7271    4.6924 H   0  0  0  0  0  0  0  0  0  0  0  0
    1.4435   -1.1971    2.4786 H   0  0  0  0  0  0  0  0  0  0  0  0
  1  2  1  0  0  0  0
  1 38  1  0  0  0  0
  1 39  1  0  0  0  0
  1 40  1  0  0  0  0
  2  3  1  0  0  0  0
  2  4  1  0  0  0  0
  2  5  1  0  0  0  0
  3 41  1  0  0  0  0
  3 42  1  0  0  0  0
  3 43  1  0  0  0  0
  4 44  1  0  0  0  0
  4 45  1  0  0  0  0
  4 46  1  0  0  0  0
  5  6  1  0  0  0  0
  5 37  2  0  0  0  0
  6  7  2  0  0  0  0
  6 47  1  0  0  0  0
  7  8  1  0  0  0  0
  7 48  1  0  0  0  0
  8  9  1  0  0  0  0
  8 36  2  0  0  0  0
  9 10  1  0  0  0  0
  9 29  1  0  0  0  0
 10 11  1  0  0  0  0
 10 23  1  0  0  0  0
 10 49  1  0  0  0  0
 11 12  2  0  0  0  0
 11 13  1  0  0  0  0
 13 14  1  0  0  0  0
 13 50  1  0  0  0  0
 14 15  1  0  0  0  0
 14 51  1  0  0  0  0
 14 52  1  0  0  0  0
 15 16  1  0  0  0  0
 15 53  1  0  0  0  0
 15 54  1  0  0  0  0
 16 17  1  0  0  0  0
 16 22  2  0  0  0  0
 17 18  2  0  0  0  0
 17 55  1  0  0  0  0
 18 19  1  0  0  0  0
 18 56  1  0  0  0  0
 19 20  2  0  0  0  0
 19 57  1  0  0  0  0
 20 21  1  0  0  0  0
 20 22  1  0  0  0  0
 22 58  1  0  0  0  0
 23 24  1  0  0  0  0
 23 28  2  0  0  0  0
 24 25  2  0  0  0  0
 24 59  1  0  0  0  0
 25 26  1  0  0  0  0
 25 60  1  0  0  0  0
 26 27  2  0  0  0  0
 26 61  1  0  0  0  0
 27 28  1  0  0  0  0
 28 62  1  0  0  0  0
 29 30  2  0  0  0  0
 29 31  1  0  0  0  0
 31 32  1  0  0  0  0
 31 35  2  0  0  0  0
 32 33  2  0  0  0  0
 32 63  1  0  0  0  0
 33 34  1  0  0  0  0
 34 35  1  0  0  0  0
 36 37  1  0  0  0  0
 36 64  1  0  0  0  0
 37 65  1  0  0  0  0
M  END
$$$$
