
 OpenBabel07202414173D

 34 35  0  0  0  0  0  0  0  0999 V2000
    0.9142   -0.0721    0.6413 Cl  0  0  0  0  0  0  0  0  0  0  0  0
    2.6777   -0.2142    0.7928 C   0  0  0  0  0  0  0  0  0  0  0  0
    3.2282   -1.3858   -0.0098 C   0  0  0  0  0  0  0  0  0  0  0  0
    2.5025   -2.1988   -0.5812 O   0  0  0  0  0  0  0  0  0  0  0  0
    4.6208   -1.4918   -0.0817 N   0  0  0  0  0  0  0  0  0  0  0  0
    5.5674   -0.7007    0.7220 C   0  0  0  0  0  0  0  0  0  0  0  0
    6.8846   -0.4150   -0.0352 C   0  0  0  0  0  0  0  0  0  0  0  0
    7.4769   -1.6586   -0.6259 N   0  0  0  0  0  0  0  0  0  0  0  0
    8.3131   -2.6905    0.4474 S   0  0  0  0  0  0  0  0  0  0  0  0
    7.7608   -2.5224    1.7719 O   0  0  0  0  0  0  0  0  0  0  0  0
    8.3958   -4.0029   -0.1618 O   0  0  0  0  0  0  0  0  0  0  0  0
    9.9688   -2.0266    0.4743 C   0  0  0  0  0  0  0  0  0  0  0  0
   10.3219   -1.0655    1.4290 C   0  0  0  0  0  0  0  0  0  0  0  0
   11.6601   -0.6797    1.5606 C   0  0  0  0  0  0  0  0  0  0  0  0
   12.6356   -1.2696    0.7557 C   0  0  0  0  0  0  0  0  0  0  0  0
   14.4512   -0.7911    0.9799 Br  0  0  0  0  0  0  0  0  0  0  0  0
   12.2875   -2.2310   -0.1928 C   0  0  0  0  0  0  0  0  0  0  0  0
   10.9499   -2.6116   -0.3354 C   0  0  0  0  0  0  0  0  0  0  0  0
    6.4669   -2.3375   -1.5048 C   0  0  0  0  0  0  0  0  0  0  0  0
    5.1952   -2.6850   -0.7226 C   0  0  0  0  0  0  0  0  0  0  0  0
    2.9126   -0.3512    1.8515 H   0  0  0  0  0  0  0  0  0  0  0  0
    3.1006    0.7227    0.4231 H   0  0  0  0  0  0  0  0  0  0  0  0
    5.7396   -1.2652    1.6421 H   0  0  0  0  0  0  0  0  0  0  0  0
    5.1242    0.2501    1.0251 H   0  0  0  0  0  0  0  0  0  0  0  0
    7.6070    0.0932    0.6108 H   0  0  0  0  0  0  0  0  0  0  0  0
    6.6728    0.2727   -0.8635 H   0  0  0  0  0  0  0  0  0  0  0  0
    9.5754   -0.6400    2.0941 H   0  0  0  0  0  0  0  0  0  0  0  0
   11.9364    0.0557    2.3122 H   0  0  0  0  0  0  0  0  0  0  0  0
   13.0498   -2.7097   -0.8036 H   0  0  0  0  0  0  0  0  0  0  0  0
   10.6908   -3.3899   -1.0503 H   0  0  0  0  0  0  0  0  0  0  0  0
    6.8978   -3.2239   -1.9796 H   0  0  0  0  0  0  0  0  0  0  0  0
    6.2176   -1.6482   -2.3224 H   0  0  0  0  0  0  0  0  0  0  0  0
    5.4094   -3.4076    0.0735 H   0  0  0  0  0  0  0  0  0  0  0  0
    4.4721   -3.1504   -1.3997 H   0  0  0  0  0  0  0  0  0  0  0  0
  1  2  1  0  0  0  0
  2  3  1  0  0  0  0
  2 21  1  0  0  0  0
  2 22  1  0  0  0  0
  3  4  2  0  0  0  0
  3  5  1  0  0  0  0
  5  6  1  0  0  0  0
  5 20  1  0  0  0  0
  6  7  1  0  0  0  0
  6 23  1  0  0  0  0
  6 24  1  0  0  0  0
  7  8  1  0  0  0  0
  7 25  1  0  0  0  0
  7 26  1  0  0  0  0
  8  9  1  0  0  0  0
  8 19  1  0  0  0  0
  9 10  2  0  0  0  0
  9 11  2  0  0  0  0
  9 12  1  0  0  0  0
 12 13  1  0  0  0  0
 12 18  2  0  0  0  0
 13 14  2  0  0  0  0
 13 27  1  0  0  0  0
 14 15  1  0  0  0  0
 14 28  1  0  0  0  0
 15 16  1  0  0  0  0
 15 17  2  0  0  0  0
 17 18  1  0  0  0  0
 17 29  1  0  0  0  0
 18 30  1  0  0  0  0
 19 20  1  0  0  0  0
 19 31  1  0  0  0  0
 19 32  1  0  0  0  0
 20 33  1  0  0  0  0
 20 34  1  0  0  0  0
M  END
$$$$
