
 OpenBabel07202414123D

 74 77  0  0  1  0  0  0  0  0999 V2000
    6.2206   -9.4476   -7.9046 C   0  0  0  0  0  0  0  0  0  0  0  0
    6.1315   -7.9364   -8.1503 C   0  0  0  0  0  0  0  0  0  0  0  0
    7.4529   -7.3354   -8.6470 C   0  0  0  0  0  0  0  0  0  0  0  0
    5.0600   -7.6972   -9.2284 C   0  0  0  0  0  0  0  0  0  0  0  0
    5.6728   -7.2371   -6.9657 O   0  0  0  0  0  0  0  0  0  0  0  0
    6.4093   -7.3016   -5.8274 C   0  0  0  0  0  0  0  0  0  0  0  0
    7.4449   -7.9408   -5.6814 O   0  0  0  0  0  0  0  0  0  0  0  0
    5.8732   -6.5349   -4.8275 N   0  0  0  0  0  0  0  0  0  0  0  0
    6.5808   -6.0541   -3.6483 C   0  0  0  0  0  0  0  0  0  0  0  0
    6.0541   -4.6511   -4.0119 C   0  0  0  0  0  0  0  0  0  0  0  0
    7.0519   -3.7901   -4.6966 N   0  0  0  0  0  0  0  0  0  0  0  0
    6.7905   -2.4880   -5.0493 C   0  0  0  0  0  0  0  0  0  0  0  0
    5.6705   -2.0019   -4.8541 O   0  0  0  0  0  0  0  0  0  0  0  0
    7.8686   -1.7017   -5.8715 C   0  0  3  0  0  0  0  0  0  0  0  0
    9.3205   -1.7679   -5.4923 N   0  0  0  0  0  0  0  0  0  0  0  0
   10.0161   -2.9866   -5.3857 C   0  0  0  0  0  0  0  0  0  0  0  0
    9.4324   -4.0648   -5.5136 O   0  0  0  0  0  0  0  0  0  0  0  0
   11.4586   -2.9936   -5.0859 C   0  0  0  0  0  0  0  0  0  0  0  0
   12.2736   -4.1003   -5.2324 C   0  0  0  0  0  0  0  0  0  0  0  0
   13.5507   -3.7499   -4.9131 O   0  0  0  0  0  0  0  0  0  0  0  0
   13.4487   -2.4426   -4.5542 C   0  0  0  0  0  0  0  0  0  0  0  0
   12.2316   -1.9492   -4.6024 N   0  0  0  0  0  0  0  0  0  0  0  0
   10.0517   -0.5685   -5.7504 C   0  0  0  0  0  0  0  0  0  0  0  0
   10.7070   -0.3843   -6.9678 C   0  0  0  0  0  0  0  0  0  0  0  0
   11.5462    0.7196   -7.1562 C   0  0  0  0  0  0  0  0  0  0  0  0
   11.7592    1.6680   -6.1403 C   0  0  0  0  0  0  0  0  0  0  0  0
   12.7069    2.8708   -6.3251 C   0  0  0  0  0  0  0  0  0  0  0  0
   13.3490    2.9240   -7.7294 C   0  0  0  0  0  0  0  0  0  0  0  0
   11.9243    4.1849   -6.1223 C   0  0  0  0  0  0  0  0  0  0  0  0
   13.8681    2.8338   -5.3046 C   0  0  0  0  0  0  0  0  0  0  0  0
   11.0586    1.4782   -4.9316 C   0  0  0  0  0  0  0  0  0  0  0  0
   10.2054    0.3802   -4.7395 C   0  0  0  0  0  0  0  0  0  0  0  0
    7.5573   -1.8020   -7.3620 C   0  0  0  0  0  0  0  0  0  0  0  0
    8.0765   -2.7745   -8.2180 C   0  0  0  0  0  0  0  0  0  0  0  0
    7.6912   -2.8103   -9.5587 C   0  0  0  0  0  0  0  0  0  0  0  0
    6.7743   -1.8746  -10.0084 C   0  0  0  0  0  0  0  0  0  0  0  0
    6.2305   -0.9309   -9.2164 N   0  0  0  0  0  0  0  0  0  0  0  0
    6.6199   -0.9230   -7.9199 C   0  0  0  0  0  0  0  0  0  0  0  0
    5.0404   -5.3467   -4.9473 C   0  0  0  0  0  0  0  0  0  0  0  0
    6.5000   -9.9845   -8.8187 H   0  0  0  0  0  0  0  0  0  0  0  0
    5.2578   -9.8359   -7.5542 H   0  0  0  0  0  0  0  0  0  0  0  0
    6.9554   -9.7092   -7.1405 H   0  0  0  0  0  0  0  0  0  0  0  0
    7.7896   -7.8168   -9.5713 H   0  0  0  0  0  0  0  0  0  0  0  0
    8.2564   -7.4315   -7.9121 H   0  0  0  0  0  0  0  0  0  0  0  0
    7.3387   -6.2618   -8.8374 H   0  0  0  0  0  0  0  0  0  0  0  0
    5.3084   -8.2169  -10.1605 H   0  0  0  0  0  0  0  0  0  0  0  0
    4.9511   -6.6294   -9.4492 H   0  0  0  0  0  0  0  0  0  0  0  0
    4.0780   -8.0468   -8.8905 H   0  0  0  0  0  0  0  0  0  0  0  0
    7.6638   -6.1865   -3.6759 H   0  0  0  0  0  0  0  0  0  0  0  0
    6.1789   -6.4788   -2.7216 H   0  0  0  0  0  0  0  0  0  0  0  0
    5.6015   -4.1274   -3.1654 H   0  0  0  0  0  0  0  0  0  0  0  0
    7.9191   -4.2072   -5.0423 H   0  0  0  0  0  0  0  0  0  0  0  0
    7.6127   -0.6665   -5.5880 H   0  0  0  0  0  0  0  0  0  0  0  0
   12.1149   -5.1182   -5.5491 H   0  0  0  0  0  0  0  0  0  0  0  0
   14.3630   -1.9427   -4.2661 H   0  0  0  0  0  0  0  0  0  0  0  0
   10.5981   -1.1020   -7.7763 H   0  0  0  0  0  0  0  0  0  0  0  0
   12.0415    0.7986   -8.1201 H   0  0  0  0  0  0  0  0  0  0  0  0
   12.5868    2.9985   -8.5172 H   0  0  0  0  0  0  0  0  0  0  0  0
   13.9561    2.0336   -7.9282 H   0  0  0  0  0  0  0  0  0  0  0  0
   14.0083    3.7933   -7.8390 H   0  0  0  0  0  0  0  0  0  0  0  0
   11.0940    4.2637   -6.8330 H   0  0  0  0  0  0  0  0  0  0  0  0
   12.5738    5.0575   -6.2686 H   0  0  0  0  0  0  0  0  0  0  0  0
   11.5065    4.2648   -5.1130 H   0  0  0  0  0  0  0  0  0  0  0  0
   14.4859    1.9365   -5.4360 H   0  0  0  0  0  0  0  0  0  0  0  0
   13.5118    2.8432   -4.2691 H   0  0  0  0  0  0  0  0  0  0  0  0
   14.5212    3.7045   -5.4286 H   0  0  0  0  0  0  0  0  0  0  0  0
   11.1871    2.1738   -4.1049 H   0  0  0  0  0  0  0  0  0  0  0  0
    9.7235    0.2411   -3.7757 H   0  0  0  0  0  0  0  0  0  0  0  0
    8.7772   -3.5238   -7.8627 H   0  0  0  0  0  0  0  0  0  0  0  0
    8.0893   -3.5573  -10.2307 H   0  0  0  0  0  0  0  0  0  0  0  0
    6.4399   -1.8648  -11.0414 H   0  0  0  0  0  0  0  0  0  0  0  0
    6.1269   -0.1606   -7.3182 H   0  0  0  0  0  0  0  0  0  0  0  0
    4.9577   -4.9412   -5.9575 H   0  0  0  0  0  0  0  0  0  0  0  0
    4.0443   -5.4995   -4.5207 H   0  0  0  0  0  0  0  0  0  0  0  0
  1  2  1  0  0  0  0
  1 40  1  0  0  0  0
  1 41  1  0  0  0  0
  1 42  1  0  0  0  0
  2  3  1  0  0  0  0
  2  4  1  0  0  0  0
  2  5  1  0  0  0  0
  3 43  1  0  0  0  0
  3 44  1  0  0  0  0
  3 45  1  0  0  0  0
  4 46  1  0  0  0  0
  4 47  1  0  0  0  0
  4 48  1  0  0  0  0
  5  6  1  0  0  0  0
  6  7  2  0  0  0  0
  6  8  1  0  0  0  0
  8  9  1  0  0  0  0
  8 39  1  0  0  0  0
  9 10  1  0  0  0  0
  9 49  1  0  0  0  0
  9 50  1  0  0  0  0
 10 11  1  0  0  0  0
 10 39  1  0  0  0  0
 10 51  1  0  0  0  0
 11 12  1  0  0  0  0
 11 52  1  0  0  0  0
 12 13  2  0  0  0  0
 12 14  1  0  0  0  0
 14 15  1  0  0  0  0
 14 33  1  0  0  0  0
 14 53  1  0  0  0  0
 15 16  1  0  0  0  0
 15 23  1  0  0  0  0
 16 17  2  0  0  0  0
 16 18  1  0  0  0  0
 18 19  2  0  0  0  0
 18 22  1  0  0  0  0
 19 20  1  0  0  0  0
 19 54  1  0  0  0  0
 20 21  1  0  0  0  0
 21 22  2  0  0  0  0
 21 55  1  0  0  0  0
 23 24  1  0  0  0  0
 23 32  2  0  0  0  0
 24 25  2  0  0  0  0
 24 56  1  0  0  0  0
 25 26  1  0  0  0  0
 25 57  1  0  0  0  0
 26 27  1  0  0  0  0
 26 31  2  0  0  0  0
 27 28  1  0  0  0  0
 27 29  1  0  0  0  0
 27 30  1  0  0  0  0
 28 58  1  0  0  0  0
 28 59  1  0  0  0  0
 28 60  1  0  0  0  0
 29 61  1  0  0  0  0
 29 62  1  0  0  0  0
 29 63  1  0  0  0  0
 30 64  1  0  0  0  0
 30 65  1  0  0  0  0
 30 66  1  0  0  0  0
 31 32  1  0  0  0  0
 31 67  1  0  0  0  0
 32 68  1  0  0  0  0
 33 34  1  0  0  0  0
 33 38  2  0  0  0  0
 34 35  2  0  0  0  0
 34 69  1  0  0  0  0
 35 36  1  0  0  0  0
 35 70  1  0  0  0  0
 36 37  2  0  0  0  0
 36 71  1  0  0  0  0
 37 38  1  0  0  0  0
 38 72  1  0  0  0  0
 39 73  1  0  0  0  0
 39 74  1  0  0  0  0
M  END
$$$$
