
 OpenBabel07202414163D

 44 46  0  0  0  0  0  0  0  0999 V2000
   -4.0203    0.7521   -3.9964 C   0  0  0  0  0  0  0  0  0  0  0  0
   -3.1168    1.8575   -4.4690 C   0  0  0  0  0  0  0  0  0  0  0  0
   -2.6740    1.8122   -5.8029 C   0  0  0  0  0  0  0  0  0  0  0  0
   -1.8617    2.8235   -6.2875 C   0  0  0  0  0  0  0  0  0  0  0  0
   -1.4818    3.8819   -5.5546 N   0  0  0  0  0  0  0  0  0  0  0  0
   -1.9200    3.9187   -4.2703 C   0  0  0  0  0  0  0  0  0  0  0  0
   -2.7226    2.9457   -3.6642 C   0  0  0  0  0  0  0  0  0  0  0  0
   -3.1428    3.0316   -2.3095 N   0  0  0  0  0  0  0  0  0  0  0  0
   -2.6273    3.8973   -1.3589 C   0  0  0  0  0  0  0  0  0  0  0  0
   -1.6643    4.6415   -1.5342 O   0  0  0  0  0  0  0  0  0  0  0  0
   -3.2346    3.8160    0.0373 C   0  0  0  0  0  0  0  0  0  0  0  0
   -4.7300    3.6413    0.0841 C   0  0  0  0  0  0  0  0  0  0  0  0
   -5.5815    4.7498    0.0228 C   0  0  0  0  0  0  0  0  0  0  0  0
   -6.9614    4.5635    0.0066 C   0  0  0  0  0  0  0  0  0  0  0  0
   -8.0056    5.9304   -0.0472 Cl  0  0  0  0  0  0  0  0  0  0  0  0
   -7.5076    3.2793    0.0292 C   0  0  0  0  0  0  0  0  0  0  0  0
   -6.6742    2.1592    0.1298 C   0  0  0  0  0  0  0  0  0  0  0  0
   -7.1927    0.8007    0.1663 C   0  0  0  0  0  0  0  0  0  0  0  0
   -6.6039   -0.3834   -0.3380 C   0  0  0  0  0  0  0  0  0  0  0  0
   -7.3408   -1.4645   -0.1030 N   0  0  0  0  0  0  0  0  0  0  0  0
   -8.4167   -0.9870    0.5487 N   0  0  0  0  0  0  0  0  0  0  0  0
   -9.4416   -1.9205    0.9608 C   0  0  0  0  0  0  0  0  0  0  0  0
   -8.3747    0.3707    0.7536 C   0  0  0  0  0  0  0  0  0  0  0  0
   -9.4539    1.0907    1.4658 C   0  0  0  0  0  0  0  0  0  0  0  0
  -10.3980    1.5102    0.5830 F   0  0  0  0  0  0  0  0  0  0  0  0
  -10.1009    0.2980    2.3605 F   0  0  0  0  0  0  0  0  0  0  0  0
   -5.2858    2.3565    0.1655 C   0  0  0  0  0  0  0  0  0  0  0  0
   -3.9621   -0.1160   -4.6641 H   0  0  0  0  0  0  0  0  0  0  0  0
   -5.0600    1.0927   -3.9773 H   0  0  0  0  0  0  0  0  0  0  0  0
   -3.7275    0.4012   -3.0032 H   0  0  0  0  0  0  0  0  0  0  0  0
   -2.9450    0.9937   -6.4621 H   0  0  0  0  0  0  0  0  0  0  0  0
   -1.4871    2.8078   -7.3074 H   0  0  0  0  0  0  0  0  0  0  0  0
   -1.6016    4.8149   -3.7489 H   0  0  0  0  0  0  0  0  0  0  0  0
   -3.8366    2.3617   -2.0093 H   0  0  0  0  0  0  0  0  0  0  0  0
   -2.9810    4.7485    0.5615 H   0  0  0  0  0  0  0  0  0  0  0  0
   -2.7339    3.0110    0.5866 H   0  0  0  0  0  0  0  0  0  0  0  0
   -5.1721    5.7582   -0.0129 H   0  0  0  0  0  0  0  0  0  0  0  0
   -8.5856    3.1738   -0.0497 H   0  0  0  0  0  0  0  0  0  0  0  0
   -5.6665   -0.5032   -0.8664 H   0  0  0  0  0  0  0  0  0  0  0  0
   -9.2153   -2.9119    0.5569 H   0  0  0  0  0  0  0  0  0  0  0  0
  -10.4026   -1.5760    0.5725 H   0  0  0  0  0  0  0  0  0  0  0  0
   -9.4466   -1.9665    2.0523 H   0  0  0  0  0  0  0  0  0  0  0  0
   -9.0825    1.9607    2.0127 H   0  0  0  0  0  0  0  0  0  0  0  0
   -4.6176    1.5006    0.2588 H   0  0  0  0  0  0  0  0  0  0  0  0
  1  2  1  0  0  0  0
  1 28  1  0  0  0  0
  1 29  1  0  0  0  0
  1 30  1  0  0  0  0
  2  3  1  0  0  0  0
  2  7  2  0  0  0  0
  3  4  2  0  0  0  0
  3 31  1  0  0  0  0
  4  5  1  0  0  0  0
  4 32  1  0  0  0  0
  5  6  2  0  0  0  0
  6  7  1  0  0  0  0
  6 33  1  0  0  0  0
  7  8  1  0  0  0  0
  8  9  1  0  0  0  0
  8 34  1  0  0  0  0
  9 10  2  0  0  0  0
  9 11  1  0  0  0  0
 11 12  1  0  0  0  0
 11 35  1  0  0  0  0
 11 36  1  0  0  0  0
 12 13  1  0  0  0  0
 12 27  2  0  0  0  0
 13 14  2  0  0  0  0
 13 37  1  0  0  0  0
 14 15  1  0  0  0  0
 14 16  1  0  0  0  0
 16 17  2  0  0  0  0
 16 38  1  0  0  0  0
 17 18  1  0  0  0  0
 17 27  1  0  0  0  0
 18 19  1  0  0  0  0
 18 23  2  0  0  0  0
 19 20  2  0  0  0  0
 19 39  1  0  0  0  0
 20 21  1  0  0  0  0
 21 22  1  0  0  0  0
 21 23  1  0  0  0  0
 22 40  1  0  0  0  0
 22 41  1  0  0  0  0
 22 42  1  0  0  0  0
 23 24  1  0  0  0  0
 24 25  1  0  0  0  0
 24 26  1  0  0  0  0
 24 43  1  0  0  0  0
 27 44  1  0  0  0  0
M  END
$$$$
