
 OpenBabel07202414193D

 50 53  0  0  1  0  0  0  0  0999 V2000
    1.2575    0.4043   -0.7153 O   0  0  0  0  0  0  0  0  0  0  0  0
    2.2961    0.0250   -0.1666 C   0  0  0  0  0  0  0  0  0  0  0  0
    2.8005    0.7715    1.0621 C   0  0  0  0  0  0  0  0  0  0  0  0
    2.2996    0.2326    2.3854 C   0  0  0  0  0  0  0  0  0  0  0  0
    0.9834   -0.2326    2.4784 C   0  0  0  0  0  0  0  0  0  0  0  0
    0.3960   -0.6664    3.6123 N   0  0  0  0  0  0  0  0  0  0  0  0
    1.1441   -0.6168    4.7322 C   0  0  0  0  0  0  0  0  0  0  0  0
    2.4602   -0.1610    4.7857 C   0  0  0  0  0  0  0  0  0  0  0  0
    3.1654   -0.1294    6.0028 C   0  0  0  0  0  0  0  0  0  0  0  0
    4.4783    0.3306    6.0510 C   0  0  0  0  0  0  0  0  0  0  0  0
    5.0952    0.7669    4.8868 C   0  0  0  0  0  0  0  0  0  0  0  0
    4.3986    0.7473    3.6735 C   0  0  0  0  0  0  0  0  0  0  0  0
    3.0648    0.2789    3.5847 C   0  0  0  0  0  0  0  0  0  0  0  0
    3.0211   -1.0580   -0.6406 N   0  0  0  0  0  0  0  0  0  0  0  0
    4.2142   -1.6259   -0.0181 C   0  0  0  0  0  0  0  0  0  0  0  0
    5.3615   -1.6485   -1.0278 C   0  0  0  0  0  0  0  0  0  0  0  0
    4.9868   -2.4218   -2.3080 C   0  0  0  0  0  0  0  0  0  0  0  0
    4.8348   -3.9524   -2.1148 C   0  0  1  0  0  0  0  0  0  0  0  0
    4.4841   -4.4681   -3.3375 F   0  0  0  0  0  0  0  0  0  0  0  0
    6.0783   -4.6298   -1.5904 C   0  0  0  0  0  0  0  0  0  0  0  0
    7.0704   -5.0918   -2.4658 C   0  0  0  0  0  0  0  0  0  0  0  0
    8.2263   -5.6997   -1.9671 C   0  0  0  0  0  0  0  0  0  0  0  0
    8.4080   -5.8455   -0.5914 C   0  0  0  0  0  0  0  0  0  0  0  0
    7.4239   -5.4014    0.2871 C   0  0  0  0  0  0  0  0  0  0  0  0
    6.2695   -4.8131   -0.2179 C   0  0  0  0  0  0  0  0  0  0  0  0
    5.3336   -4.4047    0.6493 F   0  0  0  0  0  0  0  0  0  0  0  0
    3.6885   -1.8097   -2.8839 C   0  0  0  0  0  0  0  0  0  0  0  0
    2.5648   -1.7502   -1.8467 C   0  0  0  0  0  0  0  0  0  0  0  0
    2.4552    1.8100    0.9728 H   0  0  0  0  0  0  0  0  0  0  0  0
    3.8885    0.8350    1.0049 H   0  0  0  0  0  0  0  0  0  0  0  0
    0.3240   -0.2599    1.6126 H   0  0  0  0  0  0  0  0  0  0  0  0
    0.6300   -0.9591    5.6266 H   0  0  0  0  0  0  0  0  0  0  0  0
    2.6899   -0.4596    6.9241 H   0  0  0  0  0  0  0  0  0  0  0  0
    5.0147    0.3510    6.9959 H   0  0  0  0  0  0  0  0  0  0  0  0
    6.1200    1.1291    4.9181 H   0  0  0  0  0  0  0  0  0  0  0  0
    4.9265    1.1107    2.7973 H   0  0  0  0  0  0  0  0  0  0  0  0
    3.9473   -2.6329    0.3126 H   0  0  0  0  0  0  0  0  0  0  0  0
    4.5233   -1.0818    0.8738 H   0  0  0  0  0  0  0  0  0  0  0  0
    6.2705   -2.0482   -0.5694 H   0  0  0  0  0  0  0  0  0  0  0  0
    5.5975   -0.6124   -1.3085 H   0  0  0  0  0  0  0  0  0  0  0  0
    5.7791   -2.2571   -3.0514 H   0  0  0  0  0  0  0  0  0  0  0  0
    3.9979   -4.1900   -1.4515 H   0  0  0  0  0  0  0  0  0  0  0  0
    6.9395   -4.9907   -3.5421 H   0  0  0  0  0  0  0  0  0  0  0  0
    8.9859   -6.0637   -2.6552 H   0  0  0  0  0  0  0  0  0  0  0  0
    9.3114   -6.3105   -0.2057 H   0  0  0  0  0  0  0  0  0  0  0  0
    7.5453   -5.5096    1.3603 H   0  0  0  0  0  0  0  0  0  0  0  0
    3.3539   -2.3635   -3.7681 H   0  0  0  0  0  0  0  0  0  0  0  0
    3.9058   -0.7865   -3.2195 H   0  0  0  0  0  0  0  0  0  0  0  0
    2.2461   -2.7564   -1.5520 H   0  0  0  0  0  0  0  0  0  0  0  0
    1.6921   -1.2570   -2.2853 H   0  0  0  0  0  0  0  0  0  0  0  0
  1  2  2  0  0  0  0
  2  3  1  0  0  0  0
  2 14  1  0  0  0  0
  3  4  1  0  0  0  0
  3 29  1  0  0  0  0
  3 30  1  0  0  0  0
  4  5  1  0  0  0  0
  4 13  2  0  0  0  0
  5  6  2  0  0  0  0
  5 31  1  0  0  0  0
  6  7  1  0  0  0  0
  7  8  2  0  0  0  0
  7 32  1  0  0  0  0
  8  9  1  0  0  0  0
  8 13  1  0  0  0  0
  9 10  2  0  0  0  0
  9 33  1  0  0  0  0
 10 11  1  0  0  0  0
 10 34  1  0  0  0  0
 11 12  2  0  0  0  0
 11 35  1  0  0  0  0
 12 13  1  0  0  0  0
 12 36  1  0  0  0  0
 14 15  1  0  0  0  0
 14 28  1  0  0  0  0
 15 16  1  0  0  0  0
 15 37  1  0  0  0  0
 15 38  1  0  0  0  0
 16 17  1  0  0  0  0
 16 39  1  0  0  0  0
 16 40  1  0  0  0  0
 17 18  1  0  0  0  0
 17 27  1  0  0  0  0
 17 41  1  0  0  0  0
 18 19  1  0  0  0  0
 18 20  1  0  0  0  0
 18 42  1  1  0  0  0
 20 21  1  0  0  0  0
 20 25  2  0  0  0  0
 21 22  2  0  0  0  0
 21 43  1  0  0  0  0
 22 23  1  0  0  0  0
 22 44  1  0  0  0  0
 23 24  2  0  0  0  0
 23 45  1  0  0  0  0
 24 25  1  0  0  0  0
 24 46  1  0  0  0  0
 25 26  1  0  0  0  0
 27 28  1  0  0  0  0
 27 47  1  0  0  0  0
 27 48  1  0  0  0  0
 28 49  1  0  0  0  0
 28 50  1  0  0  0  0
M  END
$$$$
