
 OpenBabel07202414123D

 50 52  0  0  1  0  0  0  0  0999 V2000
    2.9528   -1.4701   -0.2369 C   0  0  0  0  0  0  0  0  0  0  0  0
    2.4660   -0.4594   -1.2753 C   0  0  0  0  0  0  0  0  0  0  0  0
    0.9377   -0.4112   -1.2926 C   0  0  0  0  0  0  0  0  0  0  0  0
    3.0361    0.9532   -1.0196 C   0  0  0  0  0  0  0  0  0  0  0  0
    4.5019    1.0206   -1.0805 N   0  0  0  0  0  0  0  0  0  0  0  0
    5.1198    0.7163   -2.2756 C   0  0  0  0  0  0  0  0  0  0  0  0
    6.4497    0.6809   -2.4665 C   0  0  0  0  0  0  0  0  0  0  0  0
    7.3106    1.0799   -1.3210 C   0  0  0  0  0  0  0  0  0  0  0  0
    8.7150    1.1301   -1.3822 C   0  0  0  0  0  0  0  0  0  0  0  0
    9.4777    1.4814   -0.2595 C   0  0  0  0  0  0  0  0  0  0  0  0
    8.8592    1.7823    0.9493 C   0  0  0  0  0  0  0  0  0  0  0  0
    7.4721    1.7396    1.0380 C   0  0  0  0  0  0  0  0  0  0  0  0
    6.7051    1.3931   -0.0869 C   0  0  0  0  0  0  0  0  0  0  0  0
    5.2241    1.3582    0.0587 C   0  0  0  0  0  0  0  0  0  0  0  0
    4.7123    1.6242    1.1427 O   0  0  0  0  0  0  0  0  0  0  0  0
    7.0041    0.2804   -3.6741 N   0  0  0  0  0  0  0  0  0  0  0  0
    6.3663   -0.4734   -4.6431 C   0  0  0  0  0  0  0  0  0  0  0  0
    5.2297   -0.9254   -4.5671 O   0  0  0  0  0  0  0  0  0  0  0  0
    7.1484   -0.7001   -5.7497 N   0  0  0  0  0  0  0  0  0  0  0  0
    6.6542   -1.5596   -6.8210 C   0  0  0  0  0  0  0  0  0  0  0  0
    7.0848   -3.0247   -6.6761 C   0  0  3  0  0  0  0  0  0  0  0  0
    6.6778   -3.7370   -5.3934 C   0  0  0  0  0  0  0  0  0  0  0  0
    7.7549   -4.7843   -5.2604 C   0  0  0  0  0  0  0  0  0  0  0  0
    8.9751   -4.0475   -5.7670 C   0  0  0  0  0  0  0  0  0  0  0  0
    8.5251   -3.1105   -6.7540 O   0  0  0  0  0  0  0  0  0  0  0  0
    2.5559   -2.4673   -0.4559 H   0  0  0  0  0  0  0  0  0  0  0  0
    2.6317   -1.1902    0.7714 H   0  0  0  0  0  0  0  0  0  0  0  0
    4.0447   -1.5475   -0.2383 H   0  0  0  0  0  0  0  0  0  0  0  0
    2.7902   -0.8139   -2.2615 H   0  0  0  0  0  0  0  0  0  0  0  0
    0.5379   -0.0836   -0.3271 H   0  0  0  0  0  0  0  0  0  0  0  0
    0.5205   -1.3989   -1.5161 H   0  0  0  0  0  0  0  0  0  0  0  0
    0.5804    0.2820   -2.0616 H   0  0  0  0  0  0  0  0  0  0  0  0
    2.6838    1.3209   -0.0492 H   0  0  0  0  0  0  0  0  0  0  0  0
    2.6523    1.6537   -1.7730 H   0  0  0  0  0  0  0  0  0  0  0  0
    4.4304    0.4927   -3.0816 H   0  0  0  0  0  0  0  0  0  0  0  0
    9.2559    0.8943   -2.2919 H   0  0  0  0  0  0  0  0  0  0  0  0
   10.5634    1.5124   -0.3277 H   0  0  0  0  0  0  0  0  0  0  0  0
    9.4504    2.0465    1.8225 H   0  0  0  0  0  0  0  0  0  0  0  0
    6.9852    1.9704    1.9835 H   0  0  0  0  0  0  0  0  0  0  0  0
    7.9879    0.4333   -3.8192 H   0  0  0  0  0  0  0  0  0  0  0  0
    8.1508   -0.6078   -5.6846 H   0  0  0  0  0  0  0  0  0  0  0  0
    7.0693   -1.1475   -7.7469 H   0  0  0  0  0  0  0  0  0  0  0  0
    5.5623   -1.4924   -6.8783 H   0  0  0  0  0  0  0  0  0  0  0  0
    6.6936   -3.5850   -7.5354 H   0  0  0  0  0  0  0  0  0  0  0  0
    5.6688   -4.1565   -5.4426 H   0  0  0  0  0  0  0  0  0  0  0  0
    6.7291   -3.0837   -4.5186 H   0  0  0  0  0  0  0  0  0  0  0  0
    7.5299   -5.6385   -5.9088 H   0  0  0  0  0  0  0  0  0  0  0  0
    7.8803   -5.1523   -4.2383 H   0  0  0  0  0  0  0  0  0  0  0  0
    9.7194   -4.7174   -6.2055 H   0  0  0  0  0  0  0  0  0  0  0  0
    9.4510   -3.4717   -4.9664 H   0  0  0  0  0  0  0  0  0  0  0  0
  1  2  1  0  0  0  0
  1 26  1  0  0  0  0
  1 27  1  0  0  0  0
  1 28  1  0  0  0  0
  2  3  1  0  0  0  0
  2  4  1  0  0  0  0
  2 29  1  0  0  0  0
  3 30  1  0  0  0  0
  3 31  1  0  0  0  0
  3 32  1  0  0  0  0
  4  5  1  0  0  0  0
  4 33  1  0  0  0  0
  4 34  1  0  0  0  0
  5  6  1  0  0  0  0
  5 14  1  0  0  0  0
  6  7  2  0  0  0  0
  6 35  1  0  0  0  0
  7  8  1  0  0  0  0
  7 16  1  0  0  0  0
  8  9  1  0  0  0  0
  8 13  2  0  0  0  0
  9 10  2  0  0  0  0
  9 36  1  0  0  0  0
 10 11  1  0  0  0  0
 10 37  1  0  0  0  0
 11 12  2  0  0  0  0
 11 38  1  0  0  0  0
 12 13  1  0  0  0  0
 12 39  1  0  0  0  0
 13 14  1  0  0  0  0
 14 15  2  0  0  0  0
 16 17  1  0  0  0  0
 16 40  1  0  0  0  0
 17 18  2  0  0  0  0
 17 19  1  0  0  0  0
 19 20  1  0  0  0  0
 19 41  1  0  0  0  0
 20 21  1  0  0  0  0
 20 42  1  0  0  0  0
 20 43  1  0  0  0  0
 21 22  1  0  0  0  0
 21 25  1  0  0  0  0
 21 44  1  0  0  0  0
 22 23  1  0  0  0  0
 22 45  1  0  0  0  0
 22 46  1  0  0  0  0
 23 24  1  0  0  0  0
 23 47  1  0  0  0  0
 23 48  1  0  0  0  0
 24 25  1  0  0  0  0
 24 49  1  0  0  0  0
 24 50  1  0  0  0  0
M  END
$$$$
