
 OpenBabel07202414143D

 42 43  0  0  1  0  0  0  0  0999 V2000
    7.6706    0.3367    1.6174 C   0  0  0  0  0  0  0  0  0  0  0  0
    6.7131    0.0379    0.5847 N   0  0  0  0  0  0  0  0  0  0  0  0
    5.6450   -0.8163    0.7520 C   0  0  0  0  0  0  0  0  0  0  0  0
    5.3726   -1.3531    1.8256 O   0  0  0  0  0  0  0  0  0  0  0  0
    4.7912   -1.0753   -0.5311 C   0  0  3  0  0  0  0  0  0  0  0  0
    4.3277    0.2116   -1.1977 C   0  0  0  0  0  0  0  0  0  0  0  0
    4.7263    0.6249   -2.4733 C   0  0  0  0  0  0  0  0  0  0  0  0
    4.2227    1.8015   -3.0169 C   0  0  0  0  0  0  0  0  0  0  0  0
    3.3309    2.5440   -2.2607 C   0  0  0  0  0  0  0  0  0  0  0  0
    2.9309    2.1942   -1.0219 N   0  0  0  0  0  0  0  0  0  0  0  0
    3.4394    1.0468   -0.5177 C   0  0  0  0  0  0  0  0  0  0  0  0
    5.2984   -2.1180   -1.4606 N   0  0  0  0  0  0  0  0  0  0  0  0
    4.2664   -2.8693   -2.1917 C   0  0  0  0  0  0  0  0  0  0  0  0
    4.0672   -4.3016   -1.7501 C   0  0  0  0  0  0  0  0  0  0  0  0
    4.6373   -4.7948   -0.5639 C   0  0  0  0  0  0  0  0  0  0  0  0
    4.5092   -6.1408   -0.2113 C   0  0  0  0  0  0  0  0  0  0  0  0
    3.7939   -7.0133   -1.0253 C   0  0  0  0  0  0  0  0  0  0  0  0
    3.1751   -6.5346   -2.1778 C   0  0  0  0  0  0  0  0  0  0  0  0
    3.3014   -5.1883   -2.5322 C   0  0  0  0  0  0  0  0  0  0  0  0
    2.4858   -4.6635   -3.9649 Cl  0  0  0  0  0  0  0  0  0  0  0  0
    6.6141   -2.0492   -1.9042 C   0  0  0  0  0  0  0  0  0  0  0  0
    7.3824   -1.1445   -1.5820 O   0  0  0  0  0  0  0  0  0  0  0  0
    7.0965   -3.1184   -2.8223 C   0  0  0  0  0  0  0  0  0  0  0  0
    8.2402   -2.9420   -3.4983 C   0  0  0  0  0  0  0  0  0  0  0  0
    8.6481   -0.0240    1.2859 H   0  0  0  0  0  0  0  0  0  0  0  0
    7.4078   -0.1314    2.5678 H   0  0  0  0  0  0  0  0  0  0  0  0
    7.7154    1.4226    1.7312 H   0  0  0  0  0  0  0  0  0  0  0  0
    7.0560    0.1012   -0.3762 H   0  0  0  0  0  0  0  0  0  0  0  0
    3.8752   -1.5250   -0.1148 H   0  0  0  0  0  0  0  0  0  0  0  0
    5.4311    0.0461   -3.0630 H   0  0  0  0  0  0  0  0  0  0  0  0
    4.5199    2.1320   -4.0039 H   0  0  0  0  0  0  0  0  0  0  0  0
    2.9059    3.4658   -2.6446 H   0  0  0  0  0  0  0  0  0  0  0  0
    3.0901    0.8089    0.4859 H   0  0  0  0  0  0  0  0  0  0  0  0
    4.5483   -2.8543   -3.2525 H   0  0  0  0  0  0  0  0  0  0  0  0
    3.3099   -2.3370   -2.1171 H   0  0  0  0  0  0  0  0  0  0  0  0
    5.2031   -4.1415    0.0991 H   0  0  0  0  0  0  0  0  0  0  0  0
    4.9779   -6.5058    0.7002 H   0  0  0  0  0  0  0  0  0  0  0  0
    3.7105   -8.0635   -0.7580 H   0  0  0  0  0  0  0  0  0  0  0  0
    2.5991   -7.2168   -2.7987 H   0  0  0  0  0  0  0  0  0  0  0  0
    6.5476   -4.0441   -2.9183 H   0  0  0  0  0  0  0  0  0  0  0  0
    8.8268   -2.0318   -3.3978 H   0  0  0  0  0  0  0  0  0  0  0  0
    8.6213   -3.7084   -4.1638 H   0  0  0  0  0  0  0  0  0  0  0  0
  1  2  1  0  0  0  0
  1 25  1  0  0  0  0
  1 26  1  0  0  0  0
  1 27  1  0  0  0  0
  2  3  1  0  0  0  0
  2 28  1  0  0  0  0
  3  4  2  0  0  0  0
  3  5  1  0  0  0  0
  5  6  1  0  0  0  0
  5 12  1  0  0  0  0
  5 29  1  0  0  0  0
  6  7  1  0  0  0  0
  6 11  2  0  0  0  0
  7  8  2  0  0  0  0
  7 30  1  0  0  0  0
  8  9  1  0  0  0  0
  8 31  1  0  0  0  0
  9 10  2  0  0  0  0
  9 32  1  0  0  0  0
 10 11  1  0  0  0  0
 11 33  1  0  0  0  0
 12 13  1  0  0  0  0
 12 21  1  0  0  0  0
 13 14  1  0  0  0  0
 13 34  1  0  0  0  0
 13 35  1  0  0  0  0
 14 15  1  0  0  0  0
 14 19  2  0  0  0  0
 15 16  2  0  0  0  0
 15 36  1  0  0  0  0
 16 17  1  0  0  0  0
 16 37  1  0  0  0  0
 17 18  2  0  0  0  0
 17 38  1  0  0  0  0
 18 19  1  0  0  0  0
 18 39  1  0  0  0  0
 19 20  1  0  0  0  0
 21 22  2  0  0  0  0
 21 23  1  0  0  0  0
 23 24  2  0  0  0  0
 23 40  1  0  0  0  0
 24 41  1  0  0  0  0
 24 42  1  0  0  0  0
M  END
$$$$
