
 OpenBabel07202414143D

 57 60  0  0  1  0  0  0  0  0999 V2000
    7.7925    1.7795   -0.8327 C   0  0  0  0  0  0  0  0  0  0  0  0
    6.7777    0.8800   -1.3151 N   0  0  0  0  0  0  0  0  0  0  0  0
    5.8591    0.3520   -0.4360 C   0  0  0  0  0  0  0  0  0  0  0  0
    5.8685    0.5960    0.7688 O   0  0  0  0  0  0  0  0  0  0  0  0
    4.7278   -0.4440   -1.0762 C   0  0  0  0  0  0  0  0  0  0  0  0
    5.0617   -1.1652   -2.3067 N   0  0  0  0  0  0  0  0  0  0  0  0
    5.8018   -2.4188   -2.2218 C   0  0  0  0  0  0  0  0  0  0  0  0
    5.0261   -3.5589   -2.8731 C   0  0  3  0  0  0  0  0  0  0  0  0
    3.9632   -4.0619   -1.8902 C   0  0  0  0  0  0  0  0  0  0  0  0
    4.2356   -4.9810   -1.1223 O   0  0  0  0  0  0  0  0  0  0  0  0
    2.7703   -3.3622   -1.9105 N   0  0  0  0  0  0  0  0  0  0  0  0
    1.5616   -3.6909   -1.2454 C   0  0  0  0  0  0  0  0  0  0  0  0
    1.4407   -4.7944   -0.4009 C   0  0  0  0  0  0  0  0  0  0  0  0
    0.2692   -5.2512    0.0965 N   0  0  0  0  0  0  0  0  0  0  0  0
   -0.8347   -4.5454   -0.2138 C   0  0  0  0  0  0  0  0  0  0  0  0
   -0.8308   -3.3534   -0.9333 C   0  0  0  0  0  0  0  0  0  0  0  0
   -2.0163   -2.6184   -1.1053 C   0  0  0  0  0  0  0  0  0  0  0  0
   -2.0134   -1.4379   -1.8495 C   0  0  0  0  0  0  0  0  0  0  0  0
   -3.2247   -0.7234   -2.0688 N   0  0  0  0  0  0  0  0  0  0  0  0
   -4.1759   -1.2463   -3.3727 S   0  0  0  0  0  0  0  0  0  0  0  0
   -3.6236   -0.1555   -4.6626 C   0  0  0  0  0  0  0  0  0  0  0  0
   -3.8289   -2.6049   -3.7220 O   0  0  0  0  0  0  0  0  0  0  0  0
   -5.5332   -0.8802   -3.0294 O   0  0  0  0  0  0  0  0  0  0  0  0
   -0.8388   -0.9968   -2.4381 C   0  0  0  0  0  0  0  0  0  0  0  0
    0.3489   -1.7120   -2.2542 C   0  0  0  0  0  0  0  0  0  0  0  0
    0.3930   -2.9096   -1.4899 C   0  0  0  0  0  0  0  0  0  0  0  0
    4.4763   -3.1290   -4.2253 C   0  0  0  0  0  0  0  0  0  0  0  0
    4.0357   -4.0979   -5.1421 C   0  0  0  0  0  0  0  0  0  0  0  0
    3.4330   -3.7070   -6.3389 C   0  0  0  0  0  0  0  0  0  0  0  0
    2.8580   -4.9017   -7.4334 Cl  0  0  0  0  0  0  0  0  0  0  0  0
    3.2693   -2.3567   -6.6426 C   0  0  0  0  0  0  0  0  0  0  0  0
    3.7196   -1.3831   -5.7489 C   0  0  0  0  0  0  0  0  0  0  0  0
    4.3229   -1.7616   -4.5431 C   0  0  0  0  0  0  0  0  0  0  0  0
    4.6118   -0.7032   -3.5274 C   0  0  0  0  0  0  0  0  0  0  0  0
    4.3302    0.4692   -3.7374 O   0  0  0  0  0  0  0  0  0  0  0  0
    8.4364    2.0659   -1.6658 H   0  0  0  0  0  0  0  0  0  0  0  0
    8.3801    1.2760   -0.0594 H   0  0  0  0  0  0  0  0  0  0  0  0
    7.3159    2.6647   -0.4014 H   0  0  0  0  0  0  0  0  0  0  0  0
    6.5084    0.9120   -2.2939 H   0  0  0  0  0  0  0  0  0  0  0  0
    3.9086    0.2541   -1.2809 H   0  0  0  0  0  0  0  0  0  0  0  0
    4.3653   -1.1828   -0.3536 H   0  0  0  0  0  0  0  0  0  0  0  0
    6.0597   -2.6342   -1.1787 H   0  0  0  0  0  0  0  0  0  0  0  0
    6.7418   -2.2617   -2.7683 H   0  0  0  0  0  0  0  0  0  0  0  0
    5.7185   -4.3950   -3.0420 H   0  0  0  0  0  0  0  0  0  0  0  0
    2.7068   -2.6056   -2.5734 H   0  0  0  0  0  0  0  0  0  0  0  0
    2.2921   -5.3879   -0.0866 H   0  0  0  0  0  0  0  0  0  0  0  0
   -1.7616   -4.9852    0.1468 H   0  0  0  0  0  0  0  0  0  0  0  0
   -2.9455   -2.9729   -0.6646 H   0  0  0  0  0  0  0  0  0  0  0  0
   -3.8268   -0.6228   -1.2488 H   0  0  0  0  0  0  0  0  0  0  0  0
   -2.5683   -0.3454   -4.8661 H   0  0  0  0  0  0  0  0  0  0  0  0
   -3.7854    0.8774   -4.3498 H   0  0  0  0  0  0  0  0  0  0  0  0
   -4.2123   -0.3720   -5.5567 H   0  0  0  0  0  0  0  0  0  0  0  0
   -0.8295   -0.0855   -3.0292 H   0  0  0  0  0  0  0  0  0  0  0  0
    1.2395   -1.2951   -2.7148 H   0  0  0  0  0  0  0  0  0  0  0  0
    4.1336   -5.1583   -4.9125 H   0  0  0  0  0  0  0  0  0  0  0  0
    2.7737   -2.0553   -7.5626 H   0  0  0  0  0  0  0  0  0  0  0  0
    3.5597   -0.3306   -5.9785 H   0  0  0  0  0  0  0  0  0  0  0  0
  1  2  1  0  0  0  0
  1 36  1  0  0  0  0
  1 37  1  0  0  0  0
  1 38  1  0  0  0  0
  2  3  1  0  0  0  0
  2 39  1  0  0  0  0
  3  4  2  0  0  0  0
  3  5  1  0  0  0  0
  5  6  1  0  0  0  0
  5 40  1  0  0  0  0
  5 41  1  0  0  0  0
  6  7  1  0  0  0  0
  6 34  1  0  0  0  0
  7  8  1  0  0  0  0
  7 42  1  0  0  0  0
  7 43  1  0  0  0  0
  8  9  1  0  0  0  0
  8 27  1  0  0  0  0
  8 44  1  0  0  0  0
  9 10  2  0  0  0  0
  9 11  1  0  0  0  0
 11 12  1  0  0  0  0
 11 45  1  0  0  0  0
 12 13  1  0  0  0  0
 12 26  2  0  0  0  0
 13 14  2  0  0  0  0
 13 46  1  0  0  0  0
 14 15  1  0  0  0  0
 15 16  2  0  0  0  0
 15 47  1  0  0  0  0
 16 17  1  0  0  0  0
 16 26  1  0  0  0  0
 17 18  2  0  0  0  0
 17 48  1  0  0  0  0
 18 19  1  0  0  0  0
 18 24  1  0  0  0  0
 19 20  1  0  0  0  0
 19 49  1  0  0  0  0
 20 21  1  0  0  0  0
 20 22  2  0  0  0  0
 20 23  2  0  0  0  0
 21 50  1  0  0  0  0
 21 51  1  0  0  0  0
 21 52  1  0  0  0  0
 24 25  2  0  0  0  0
 24 53  1  0  0  0  0
 25 26  1  0  0  0  0
 25 54  1  0  0  0  0
 27 28  1  0  0  0  0
 27 33  2  0  0  0  0
 28 29  2  0  0  0  0
 28 55  1  0  0  0  0
 29 30  1  0  0  0  0
 29 31  1  0  0  0  0
 31 32  2  0  0  0  0
 31 56  1  0  0  0  0
 32 33  1  0  0  0  0
 32 57  1  0  0  0  0
 33 34  1  0  0  0  0
 34 35  2  0  0  0  0
M  END
$$$$
