
 OpenBabel07202414123D

 60 63  0  0  1  0  0  0  0  0999 V2000
    1.6162   -0.0227   -1.1492 C   0  0  0  0  0  0  0  0  0  0  0  0
    3.0968    0.2368   -0.8871 C   0  0  0  0  0  0  0  0  0  0  0  0
    3.4549    1.6733   -1.2702 C   0  0  0  0  0  0  0  0  0  0  0  0
    3.3725   -0.0066    0.5047 O   0  0  0  0  0  0  0  0  0  0  0  0
    4.6495   -0.3680    0.8544 C   0  0  0  0  0  0  0  0  0  0  0  0
    5.6944   -0.5626   -0.0437 C   0  0  0  0  0  0  0  0  0  0  0  0
    6.9793   -0.8660    0.4089 C   0  0  0  0  0  0  0  0  0  0  0  0
    7.2631   -0.9995    1.7714 C   0  0  0  0  0  0  0  0  0  0  0  0
    8.6359   -1.1192    2.1810 N   0  0  0  0  0  0  0  0  0  0  0  0
    9.0679   -2.3066    2.9810 C   0  0  3  0  0  0  0  0  0  0  0  0
    9.1694   -2.0739    4.5149 C   0  0  0  0  0  0  0  0  0  0  0  0
    9.5200   -2.9657    5.2897 O   0  0  0  0  0  0  0  0  0  0  0  0
    8.7978   -0.8319    4.9836 N   0  0  0  0  0  0  0  0  0  0  0  0
    8.8378   -0.5376    6.4041 C   0  0  0  0  0  0  0  0  0  0  0  0
   10.2260   -0.0609    6.8257 C   0  0  0  0  0  0  0  0  0  0  0  0
   10.3151    0.2491    8.2723 C   0  0  0  0  0  0  0  0  0  0  0  0
   10.6737   -0.6142    9.3314 C   0  0  0  0  0  0  0  0  0  0  0  0
   10.6670    0.0072   10.5126 N   0  0  0  0  0  0  0  0  0  0  0  0
   10.2938    1.3123   10.2377 O   0  0  0  0  0  0  0  0  0  0  0  0
   10.0848    1.4472    8.9053 C   0  0  0  0  0  0  0  0  0  0  0  0
    8.3430   -3.6151    2.6719 C   0  0  0  0  0  0  0  0  0  0  0  0
    8.8223   -4.4988    1.6943 C   0  0  0  0  0  0  0  0  0  0  0  0
    8.1568   -5.7000    1.4576 C   0  0  0  0  0  0  0  0  0  0  0  0
    7.0234   -5.9810    2.2007 C   0  0  0  0  0  0  0  0  0  0  0  0
    6.5444   -5.1733    3.1671 N   0  0  0  0  0  0  0  0  0  0  0  0
    7.2201   -4.0235    3.3891 C   0  0  0  0  0  0  0  0  0  0  0  0
    9.5004   -0.0895    1.7315 C   0  0  0  0  0  0  0  0  0  0  0  0
    9.0666    0.9042    1.1304 O   0  0  0  0  0  0  0  0  0  0  0  0
   10.9418   -0.1093    2.0070 C   0  0  0  0  0  0  0  0  0  0  0  0
   11.8075    0.8958    1.6181 C   0  0  0  0  0  0  0  0  0  0  0  0
   13.0689    0.5604    1.9972 O   0  0  0  0  0  0  0  0  0  0  0  0
   12.9105   -0.6397    2.6112 C   0  0  0  0  0  0  0  0  0  0  0  0
   11.6711   -1.0731    2.6766 N   0  0  0  0  0  0  0  0  0  0  0  0
    6.2072   -0.8672    2.6796 C   0  0  0  0  0  0  0  0  0  0  0  0
    4.9102   -0.5429    2.2161 C   0  0  0  0  0  0  0  0  0  0  0  0
    1.3782    0.1466   -2.2056 H   0  0  0  0  0  0  0  0  0  0  0  0
    0.9753    0.6171   -0.5357 H   0  0  0  0  0  0  0  0  0  0  0  0
    1.3684   -1.0619   -0.9088 H   0  0  0  0  0  0  0  0  0  0  0  0
    3.6225   -0.4753   -1.5302 H   0  0  0  0  0  0  0  0  0  0  0  0
    3.0135    2.3938   -0.5734 H   0  0  0  0  0  0  0  0  0  0  0  0
    3.1128    1.9100   -2.2835 H   0  0  0  0  0  0  0  0  0  0  0  0
    4.5379    1.8312   -1.2415 H   0  0  0  0  0  0  0  0  0  0  0  0
    5.5708   -0.4558   -1.1132 H   0  0  0  0  0  0  0  0  0  0  0  0
    7.7691   -0.9682   -0.3329 H   0  0  0  0  0  0  0  0  0  0  0  0
   10.0946   -2.5267    2.6897 H   0  0  0  0  0  0  0  0  0  0  0  0
    8.7512   -0.0616    4.3272 H   0  0  0  0  0  0  0  0  0  0  0  0
    8.5514   -1.4358    6.9668 H   0  0  0  0  0  0  0  0  0  0  0  0
    8.0772    0.2256    6.5995 H   0  0  0  0  0  0  0  0  0  0  0  0
   10.4873    0.8316    6.2430 H   0  0  0  0  0  0  0  0  0  0  0  0
   10.9757   -0.8194    6.5674 H   0  0  0  0  0  0  0  0  0  0  0  0
   10.9415   -1.6617    9.2938 H   0  0  0  0  0  0  0  0  0  0  0  0
    9.7900    2.4333    8.5778 H   0  0  0  0  0  0  0  0  0  0  0  0
    9.7282   -4.2762    1.1348 H   0  0  0  0  0  0  0  0  0  0  0  0
    8.5147   -6.4049    0.7154 H   0  0  0  0  0  0  0  0  0  0  0  0
    6.4559   -6.8927    2.0395 H   0  0  0  0  0  0  0  0  0  0  0  0
    6.8209   -3.4332    4.2096 H   0  0  0  0  0  0  0  0  0  0  0  0
   11.6892    1.8364    1.0963 H   0  0  0  0  0  0  0  0  0  0  0  0
   13.8086   -1.1154    2.9790 H   0  0  0  0  0  0  0  0  0  0  0  0
    6.3681   -0.9401    3.7491 H   0  0  0  0  0  0  0  0  0  0  0  0
    4.1148   -0.3828    2.9425 H   0  0  0  0  0  0  0  0  0  0  0  0
  1  2  1  0  0  0  0
  1 36  1  0  0  0  0
  1 37  1  0  0  0  0
  1 38  1  0  0  0  0
  2  3  1  0  0  0  0
  2  4  1  0  0  0  0
  2 39  1  0  0  0  0
  3 40  1  0  0  0  0
  3 41  1  0  0  0  0
  3 42  1  0  0  0  0
  4  5  1  0  0  0  0
  5  6  1  0  0  0  0
  5 35  2  0  0  0  0
  6  7  2  0  0  0  0
  6 43  1  0  0  0  0
  7  8  1  0  0  0  0
  7 44  1  0  0  0  0
  8  9  1  0  0  0  0
  8 34  2  0  0  0  0
  9 10  1  0  0  0  0
  9 27  1  0  0  0  0
 10 11  1  0  0  0  0
 10 21  1  0  0  0  0
 10 45  1  0  0  0  0
 11 12  2  0  0  0  0
 11 13  1  0  0  0  0
 13 14  1  0  0  0  0
 13 46  1  0  0  0  0
 14 15  1  0  0  0  0
 14 47  1  0  0  0  0
 14 48  1  0  0  0  0
 15 16  1  0  0  0  0
 15 49  1  0  0  0  0
 15 50  1  0  0  0  0
 16 17  1  0  0  0  0
 16 20  2  0  0  0  0
 17 18  2  0  0  0  0
 17 51  1  0  0  0  0
 18 19  1  0  0  0  0
 19 20  1  0  0  0  0
 20 52  1  0  0  0  0
 21 22  1  0  0  0  0
 21 26  2  0  0  0  0
 22 23  2  0  0  0  0
 22 53  1  0  0  0  0
 23 24  1  0  0  0  0
 23 54  1  0  0  0  0
 24 25  2  0  0  0  0
 24 55  1  0  0  0  0
 25 26  1  0  0  0  0
 26 56  1  0  0  0  0
 27 28  2  0  0  0  0
 27 29  1  0  0  0  0
 29 30  2  0  0  0  0
 29 33  1  0  0  0  0
 30 31  1  0  0  0  0
 30 57  1  0  0  0  0
 31 32  1  0  0  0  0
 32 33  2  0  0  0  0
 32 58  1  0  0  0  0
 34 35  1  0  0  0  0
 34 59  1  0  0  0  0
 35 60  1  0  0  0  0
M  END
$$$$
