
 OpenBabel07202414153D

 30 31  0  0  0  0  0  0  0  0999 V2000
    1.0596    0.6387    0.0550 C   0  0  0  0  0  0  0  0  0  0  0  0
    2.4197    0.2257    0.0442 O   0  0  0  0  0  0  0  0  0  0  0  0
    3.0999    0.4209   -1.1255 C   0  0  0  0  0  0  0  0  0  0  0  0
    2.8178    1.3956   -2.0807 C   0  0  0  0  0  0  0  0  0  0  0  0
    3.6112    1.4880   -3.2285 C   0  0  0  0  0  0  0  0  0  0  0  0
    3.2453    2.6791   -4.4179 Cl  0  0  0  0  0  0  0  0  0  0  0  0
    4.6758    0.6135   -3.4392 C   0  0  0  0  0  0  0  0  0  0  0  0
    4.9465   -0.3600   -2.4818 C   0  0  0  0  0  0  0  0  0  0  0  0
    5.9117   -1.3300   -2.8293 O   0  0  0  0  0  0  0  0  0  0  0  0
    6.5026   -2.0881   -1.8256 C   0  0  0  0  0  0  0  0  0  0  0  0
    6.6991   -1.6913   -0.6866 O   0  0  0  0  0  0  0  0  0  0  0  0
    6.7927   -3.3307   -2.3316 N   0  0  0  0  0  0  0  0  0  0  0  0
    7.1817   -4.4642   -1.6001 C   0  0  0  0  0  0  0  0  0  0  0  0
    7.1558   -4.5363   -0.2088 C   0  0  0  0  0  0  0  0  0  0  0  0
    7.5773   -5.6987    0.4344 C   0  0  0  0  0  0  0  0  0  0  0  0
    8.0071   -6.7616   -0.3400 C   0  0  0  0  0  0  0  0  0  0  0  0
    8.0136   -6.7484   -1.6899 N   0  0  0  0  0  0  0  0  0  0  0  0
    7.5943   -5.6053   -2.2846 C   0  0  0  0  0  0  0  0  0  0  0  0
    4.1701   -0.4504   -1.3247 C   0  0  0  0  0  0  0  0  0  0  0  0
    0.6161    0.2903    0.9929 H   0  0  0  0  0  0  0  0  0  0  0  0
    0.5033    0.1806   -0.7697 H   0  0  0  0  0  0  0  0  0  0  0  0
    0.9759    1.7289    0.0331 H   0  0  0  0  0  0  0  0  0  0  0  0
    1.9967    2.0917   -1.9501 H   0  0  0  0  0  0  0  0  0  0  0  0
    5.2716    0.6734   -4.3447 H   0  0  0  0  0  0  0  0  0  0  0  0
    6.6801   -3.4155   -3.3323 H   0  0  0  0  0  0  0  0  0  0  0  0
    6.7988   -3.7141    0.4039 H   0  0  0  0  0  0  0  0  0  0  0  0
    7.5702   -5.7655    1.5168 H   0  0  0  0  0  0  0  0  0  0  0  0
    8.3662   -7.6781    0.1191 H   0  0  0  0  0  0  0  0  0  0  0  0
    7.6175   -5.6383   -3.3701 H   0  0  0  0  0  0  0  0  0  0  0  0
    4.3556   -1.2122   -0.5724 H   0  0  0  0  0  0  0  0  0  0  0  0
  1  2  1  0  0  0  0
  1 20  1  0  0  0  0
  1 21  1  0  0  0  0
  1 22  1  0  0  0  0
  2  3  1  0  0  0  0
  3  4  1  0  0  0  0
  3 19  2  0  0  0  0
  4  5  2  0  0  0  0
  4 23  1  0  0  0  0
  5  6  1  0  0  0  0
  5  7  1  0  0  0  0
  7  8  2  0  0  0  0
  7 24  1  0  0  0  0
  8  9  1  0  0  0  0
  8 19  1  0  0  0  0
  9 10  1  0  0  0  0
 10 11  2  0  0  0  0
 10 12  1  0  0  0  0
 12 13  1  0  0  0  0
 12 25  1  0  0  0  0
 13 14  1  0  0  0  0
 13 18  2  0  0  0  0
 14 15  2  0  0  0  0
 14 26  1  0  0  0  0
 15 16  1  0  0  0  0
 15 27  1  0  0  0  0
 16 17  2  0  0  0  0
 16 28  1  0  0  0  0
 17 18  1  0  0  0  0
 18 29  1  0  0  0  0
 19 30  1  0  0  0  0
M  END
$$$$
