
 OpenBabel07202414123D

 36 36  0  0  1  0  0  0  0  0999 V2000
    1.1667    0.1153   -0.3177 C   0  0  0  0  0  0  0  0  0  0  0  0
    2.6954    0.0193   -0.1316 C   0  0  0  0  0  0  0  0  0  0  0  0
    2.9884   -1.1077    0.8903 C   0  0  0  0  0  0  0  0  0  0  0  0
    3.3598   -0.3617   -1.4664 C   0  0  0  0  0  0  0  0  0  0  0  0
    3.2121    1.3157    0.3317 N   0  0  0  0  0  0  0  0  0  0  0  0
    3.2827    1.6746    1.6977 C   0  0  0  0  0  0  0  0  0  0  0  0
    3.2345    3.0276    1.8189 C   0  0  0  0  0  0  0  0  0  0  0  0
    3.1184    3.6055    0.5367 N   0  0  0  0  0  0  0  0  0  0  0  0
    3.2117    2.5466   -0.4627 C   0  0  3  0  0  0  0  0  0  0  0  0
    5.1004    2.6198   -1.4228 Au  0  0  0  0  0  0  0  0  0  0  0  0
    7.2207    2.7020   -2.5007 Cl  0  0  0  0  0  0  0  0  0  0  0  0
    2.8048    5.0189    0.3236 C   0  0  0  0  0  0  0  0  0  0  0  0
    3.9122    5.9009    0.9280 C   0  0  0  0  0  0  0  0  0  0  0  0
    2.6608    5.3474   -1.1751 C   0  0  0  0  0  0  0  0  0  0  0  0
    1.4606    5.3320    1.0232 C   0  0  0  0  0  0  0  0  0  0  0  0
    0.7446   -0.8607   -0.6406 H   0  0  0  0  0  0  0  0  0  0  0  0
    0.8933    0.8684   -1.0841 H   0  0  0  0  0  0  0  0  0  0  0  0
    0.6817    0.4064    0.6400 H   0  0  0  0  0  0  0  0  0  0  0  0
    2.6191   -2.0850    0.5120 H   0  0  0  0  0  0  0  0  0  0  0  0
    2.4714   -0.9296    1.8570 H   0  0  0  0  0  0  0  0  0  0  0  0
    4.0805   -1.1933    1.0765 H   0  0  0  0  0  0  0  0  0  0  0  0
    2.9712   -1.3387   -1.8286 H   0  0  0  0  0  0  0  0  0  0  0  0
    4.4604   -0.4459   -1.3399 H   0  0  0  0  0  0  0  0  0  0  0  0
    3.1502    0.3998   -2.2462 H   0  0  0  0  0  0  0  0  0  0  0  0
    3.3219    0.9973    2.5376 H   0  0  0  0  0  0  0  0  0  0  0  0
    3.2381    3.5643    2.7561 H   0  0  0  0  0  0  0  0  0  0  0  0
    2.3399    2.5695   -1.1446 H   0  0  0  0  0  0  0  0  0  0  0  0
    4.8855    5.6913    0.4375 H   0  0  0  0  0  0  0  0  0  0  0  0
    4.0209    5.7149    2.0177 H   0  0  0  0  0  0  0  0  0  0  0  0
    3.6686    6.9769    0.7935 H   0  0  0  0  0  0  0  0  0  0  0  0
    3.6051    5.1304   -1.7148 H   0  0  0  0  0  0  0  0  0  0  0  0
    2.4144    6.4226   -1.3128 H   0  0  0  0  0  0  0  0  0  0  0  0
    1.8388    4.7576   -1.6340 H   0  0  0  0  0  0  0  0  0  0  0  0
    1.5211    5.1403    2.1143 H   0  0  0  0  0  0  0  0  0  0  0  0
    0.6539    4.6896    0.6089 H   0  0  0  0  0  0  0  0  0  0  0  0
    1.1734    6.3964    0.8820 H   0  0  0  0  0  0  0  0  0  0  0  0
  1  2  1  0  0  0  0
  1 16  1  0  0  0  0
  1 17  1  0  0  0  0
  1 18  1  0  0  0  0
  2  3  1  0  0  0  0
  2  4  1  0  0  0  0
  2  5  1  0  0  0  0
  3 19  1  0  0  0  0
  3 20  1  0  0  0  0
  3 21  1  0  0  0  0
  4 22  1  0  0  0  0
  4 23  1  0  0  0  0
  4 24  1  0  0  0  0
  5  6  1  0  0  0  0
  5  9  1  0  0  0  0
  6  7  2  0  0  0  0
  6 25  1  0  0  0  0
  7  8  1  0  0  0  0
  7 26  1  0  0  0  0
  8  9  1  0  0  0  0
  8 12  1  0  0  0  0
  9 10  1  0  0  0  0
  9 27  1  0  0  0  0
 10 11  1  0  0  0  0
 12 13  1  0  0  0  0
 12 14  1  0  0  0  0
 12 15  1  0  0  0  0
 13 28  1  0  0  0  0
 13 29  1  0  0  0  0
 13 30  1  0  0  0  0
 14 31  1  0  0  0  0
 14 32  1  0  0  0  0
 14 33  1  0  0  0  0
 15 34  1  0  0  0  0
 15 35  1  0  0  0  0
 15 36  1  0  0  0  0
M  END
$$$$
