
 OpenBabel07202414153D

 55 58  0  0  0  0  0  0  0  0999 V2000
    3.7016    2.1347   -0.5328 C   0  0  0  0  0  0  0  0  0  0  0  0
    4.5842    1.0323   -0.6952 O   0  0  0  0  0  0  0  0  0  0  0  0
    4.9566    0.3698    0.4408 C   0  0  0  0  0  0  0  0  0  0  0  0
    4.6113    0.7165    1.7468 C   0  0  0  0  0  0  0  0  0  0  0  0
    5.0466   -0.0681    2.8225 C   0  0  0  0  0  0  0  0  0  0  0  0
    5.8267   -1.2109    2.6056 C   0  0  0  0  0  0  0  0  0  0  0  0
    6.2378   -2.0610    3.7200 C   0  0  0  0  0  0  0  0  0  0  0  0
    6.5291   -3.4482    3.6835 C   0  0  0  0  0  0  0  0  0  0  0  0
    6.8708   -3.7754    4.9716 C   0  0  0  0  0  0  0  0  0  0  0  0
    7.2770   -5.0260    5.6473 C   0  0  0  0  0  0  0  0  0  0  0  0
    7.8515   -5.8661    4.6430 O   0  0  0  0  0  0  0  0  0  0  0  0
    8.2907   -7.1005    5.0287 C   0  0  0  0  0  0  0  0  0  0  0  0
    8.2314   -7.6215    6.3192 C   0  0  0  0  0  0  0  0  0  0  0  0
    8.7148   -8.9069    6.5660 C   0  0  0  0  0  0  0  0  0  0  0  0
    8.6320   -9.5535    8.1594 Cl  0  0  0  0  0  0  0  0  0  0  0  0
    9.2678   -9.6765    5.5391 C   0  0  0  0  0  0  0  0  0  0  0  0
    9.3432   -9.1563    4.2379 C   0  0  0  0  0  0  0  0  0  0  0  0
    9.9196   -9.9873    3.1172 C   0  0  0  0  0  0  0  0  0  0  0  0
    8.9512  -10.8481    2.3175 C   0  0  0  0  0  0  0  0  0  0  0  0
    9.3144  -11.3435    1.2508 O   0  0  0  0  0  0  0  0  0  0  0  0
    7.6955  -11.0295    2.8621 N   0  0  0  0  0  0  0  0  0  0  0  0
    6.7028  -11.8484    2.2815 C   0  0  0  0  0  0  0  0  0  0  0  0
    6.9988  -13.0756    1.6856 C   0  0  0  0  0  0  0  0  0  0  0  0
    6.0710  -13.9097    1.1552 N   0  0  0  0  0  0  0  0  0  0  0  0
    4.7919  -13.4883    1.1950 C   0  0  0  0  0  0  0  0  0  0  0  0
    4.3946  -12.2815    1.7514 C   0  0  0  0  0  0  0  0  0  0  0  0
    5.3621  -11.4394    2.3136 C   0  0  0  0  0  0  0  0  0  0  0  0
    4.9566  -10.0964    2.8502 C   0  0  0  0  0  0  0  0  0  0  0  0
    8.8425   -7.8701    3.9965 C   0  0  0  0  0  0  0  0  0  0  0  0
    6.7756   -2.6650    5.7472 O   0  0  0  0  0  0  0  0  0  0  0  0
    6.3698   -1.5963    4.9732 N   0  0  0  0  0  0  0  0  0  0  0  0
    6.1880   -1.5391    1.2926 C   0  0  0  0  0  0  0  0  0  0  0  0
    5.7562   -0.7526    0.2222 C   0  0  0  0  0  0  0  0  0  0  0  0
    3.4496    2.5100   -1.5291 H   0  0  0  0  0  0  0  0  0  0  0  0
    4.1880    2.9460    0.0182 H   0  0  0  0  0  0  0  0  0  0  0  0
    2.7684    1.8295   -0.0474 H   0  0  0  0  0  0  0  0  0  0  0  0
    4.0022    1.5868    1.9669 H   0  0  0  0  0  0  0  0  0  0  0  0
    4.7578    0.2161    3.8333 H   0  0  0  0  0  0  0  0  0  0  0  0
    6.4923   -4.1196    2.8394 H   0  0  0  0  0  0  0  0  0  0  0  0
    6.3889   -5.5021    6.0786 H   0  0  0  0  0  0  0  0  0  0  0  0
    8.0136   -4.8075    6.4286 H   0  0  0  0  0  0  0  0  0  0  0  0
    7.8174   -7.0569    7.1480 H   0  0  0  0  0  0  0  0  0  0  0  0
    9.6442  -10.6709    5.7558 H   0  0  0  0  0  0  0  0  0  0  0  0
   10.6860  -10.6597    3.5203 H   0  0  0  0  0  0  0  0  0  0  0  0
   10.4286   -9.3169    2.4122 H   0  0  0  0  0  0  0  0  0  0  0  0
    7.3779  -10.3395    3.5297 H   0  0  0  0  0  0  0  0  0  0  0  0
    8.0149  -13.4586    1.6461 H   0  0  0  0  0  0  0  0  0  0  0  0
    4.0685  -14.1617    0.7439 H   0  0  0  0  0  0  0  0  0  0  0  0
    3.3475  -11.9983    1.7221 H   0  0  0  0  0  0  0  0  0  0  0  0
    3.9049   -9.8789    2.6403 H   0  0  0  0  0  0  0  0  0  0  0  0
    5.5488   -9.3075    2.3719 H   0  0  0  0  0  0  0  0  0  0  0  0
    5.1062  -10.0553    3.9332 H   0  0  0  0  0  0  0  0  0  0  0  0
    8.8906   -7.4461    2.9924 H   0  0  0  0  0  0  0  0  0  0  0  0
    6.8140   -2.4022    1.0816 H   0  0  0  0  0  0  0  0  0  0  0  0
    6.0420   -1.0211   -0.7921 H   0  0  0  0  0  0  0  0  0  0  0  0
  1  2  1  0  0  0  0
  1 34  1  0  0  0  0
  1 35  1  0  0  0  0
  1 36  1  0  0  0  0
  2  3  1  0  0  0  0
  3  4  1  0  0  0  0
  3 33  2  0  0  0  0
  4  5  2  0  0  0  0
  4 37  1  0  0  0  0
  5  6  1  0  0  0  0
  5 38  1  0  0  0  0
  6  7  1  0  0  0  0
  6 32  2  0  0  0  0
  7  8  1  0  0  0  0
  7 31  2  0  0  0  0
  8  9  2  0  0  0  0
  8 39  1  0  0  0  0
  9 10  1  0  0  0  0
  9 30  1  0  0  0  0
 10 11  1  0  0  0  0
 10 40  1  0  0  0  0
 10 41  1  0  0  0  0
 11 12  1  0  0  0  0
 12 13  1  0  0  0  0
 12 29  2  0  0  0  0
 13 14  2  0  0  0  0
 13 42  1  0  0  0  0
 14 15  1  0  0  0  0
 14 16  1  0  0  0  0
 16 17  2  0  0  0  0
 16 43  1  0  0  0  0
 17 18  1  0  0  0  0
 17 29  1  0  0  0  0
 18 19  1  0  0  0  0
 18 44  1  0  0  0  0
 18 45  1  0  0  0  0
 19 20  2  0  0  0  0
 19 21  1  0  0  0  0
 21 22  1  0  0  0  0
 21 46  1  0  0  0  0
 22 23  1  0  0  0  0
 22 27  2  0  0  0  0
 23 24  2  0  0  0  0
 23 47  1  0  0  0  0
 24 25  1  0  0  0  0
 25 26  2  0  0  0  0
 25 48  1  0  0  0  0
 26 27  1  0  0  0  0
 26 49  1  0  0  0  0
 27 28  1  0  0  0  0
 28 50  1  0  0  0  0
 28 51  1  0  0  0  0
 28 52  1  0  0  0  0
 29 53  1  0  0  0  0
 30 31  1  0  0  0  0
 32 33  1  0  0  0  0
 32 54  1  0  0  0  0
 33 55  1  0  0  0  0
M  END
$$$$
