
 OpenBabel07202414123D

 61 66  0  0  1  0  0  0  0  0999 V2000
    1.4916   -2.7139    0.3853 C   0  0  0  0  0  0  0  0  0  0  0  0
    2.2876   -1.4474    0.1799 C   0  0  0  0  0  0  0  0  0  0  0  0
    2.6017   -0.7341    1.3928 N   0  0  0  0  0  0  0  0  0  0  0  0
    3.6007   -1.1037    2.2767 C   0  0  0  0  0  0  0  0  0  0  0  0
    4.3708   -2.0401    2.0689 O   0  0  0  0  0  0  0  0  0  0  0  0
    3.6385   -0.2386    3.5582 C   0  0  0  0  0  0  0  0  0  0  0  0
    4.9981    0.1717    3.9439 N   0  0  0  0  0  0  0  0  0  0  0  0
    5.0251    1.0319    5.1332 C   0  0  0  0  0  0  0  0  0  0  0  0
    5.1104    2.5304    4.8853 C   0  0  0  0  0  0  0  0  0  0  0  0
    4.9650    3.3961    5.9872 C   0  0  0  0  0  0  0  0  0  0  0  0
    5.0833    4.7804    5.8377 C   0  0  0  0  0  0  0  0  0  0  0  0
    5.3482    5.3144    4.5846 C   0  0  0  0  0  0  0  0  0  0  0  0
    5.4969    7.0170    4.3878 Cl  0  0  0  0  0  0  0  0  0  0  0  0
    5.5004    4.4776    3.4815 C   0  0  0  0  0  0  0  0  0  0  0  0
    5.4036    3.0771    3.6174 C   0  0  0  0  0  0  0  0  0  0  0  0
    5.5529    2.1589    2.4016 C   0  0  3  0  0  0  0  0  0  0  0  0
    6.7390    2.5496    1.4875 C   0  0  0  0  0  0  0  0  0  0  0  0
    6.1549    2.9545    0.1526 C   0  0  0  0  0  0  0  0  0  0  0  0
    4.7229    2.9659    0.2957 N   0  0  0  0  0  0  0  0  0  0  0  0
    3.9410    3.9473   -0.4081 C   0  0  0  0  0  0  0  0  0  0  0  0
    2.9393    4.6593    0.2605 C   0  0  0  0  0  0  0  0  0  0  0  0
    2.3981    5.8209   -0.1775 N   0  0  0  0  0  0  0  0  0  0  0  0
    2.8419    6.2838   -1.3633 C   0  0  0  0  0  0  0  0  0  0  0  0
    3.7212    5.5984   -2.1928 C   0  0  0  0  0  0  0  0  0  0  0  0
    4.0572    6.0914   -3.4699 C   0  0  0  0  0  0  0  0  0  0  0  0
    4.8719    5.3565   -4.3254 C   0  0  0  0  0  0  0  0  0  0  0  0
    5.3593    4.1250   -3.9208 C   0  0  0  0  0  0  0  0  0  0  0  0
    5.0527    3.6381   -2.6466 C   0  0  0  0  0  0  0  0  0  0  0  0
    4.2582    4.3727   -1.7305 C   0  0  0  0  0  0  0  0  0  0  0  0
    4.3204    2.3532    1.4834 C   0  0  0  0  0  0  0  0  0  0  0  0
    3.1540    2.1220    1.7848 O   0  0  0  0  0  0  0  0  0  0  0  0
    5.8263    0.7131    2.8700 C   0  0  0  0  0  0  0  0  0  0  0  0
    1.9737   -0.6209   -1.0530 C   0  0  0  0  0  0  0  0  0  0  0  0
    3.2417   -1.4208   -0.9925 C   0  0  0  0  0  0  0  0  0  0  0  0
    0.6839   -2.5492    1.1063 H   0  0  0  0  0  0  0  0  0  0  0  0
    2.1350   -3.5150    0.7646 H   0  0  0  0  0  0  0  0  0  0  0  0
    1.0353   -3.0673   -0.5467 H   0  0  0  0  0  0  0  0  0  0  0  0
    2.1338    0.1575    1.5517 H   0  0  0  0  0  0  0  0  0  0  0  0
    3.2218   -0.8761    4.3477 H   0  0  0  0  0  0  0  0  0  0  0  0
    2.9684    0.6184    3.4792 H   0  0  0  0  0  0  0  0  0  0  0  0
    5.9145    0.7577    5.7164 H   0  0  0  0  0  0  0  0  0  0  0  0
    4.1632    0.8194    5.7800 H   0  0  0  0  0  0  0  0  0  0  0  0
    4.7635    2.9923    6.9784 H   0  0  0  0  0  0  0  0  0  0  0  0
    4.9698    5.4309    6.7008 H   0  0  0  0  0  0  0  0  0  0  0  0
    5.6932    4.9293    2.5110 H   0  0  0  0  0  0  0  0  0  0  0  0
    7.4267    1.7113    1.3145 H   0  0  0  0  0  0  0  0  0  0  0  0
    7.3652    3.3473    1.9010 H   0  0  0  0  0  0  0  0  0  0  0  0
    6.4192    2.2048   -0.5986 H   0  0  0  0  0  0  0  0  0  0  0  0
    6.5378    3.9342   -0.1496 H   0  0  0  0  0  0  0  0  0  0  0  0
    2.5652    4.3629    1.2357 H   0  0  0  0  0  0  0  0  0  0  0  0
    2.4404    7.2527   -1.6469 H   0  0  0  0  0  0  0  0  0  0  0  0
    3.6515    7.0436   -3.8126 H   0  0  0  0  0  0  0  0  0  0  0  0
    5.0952    5.7331   -5.3231 H   0  0  0  0  0  0  0  0  0  0  0  0
    5.9615    3.5253   -4.5995 H   0  0  0  0  0  0  0  0  0  0  0  0
    5.4068    2.6417   -2.3963 H   0  0  0  0  0  0  0  0  0  0  0  0
    6.8551    0.6835    3.2681 H   0  0  0  0  0  0  0  0  0  0  0  0
    5.8615    0.0342    2.0118 H   0  0  0  0  0  0  0  0  0  0  0  0
    2.0627    0.4582   -0.9910 H   0  0  0  0  0  0  0  0  0  0  0  0
    1.1910   -0.9564   -1.7196 H   0  0  0  0  0  0  0  0  0  0  0  0
    4.1808   -0.8931   -0.8819 H   0  0  0  0  0  0  0  0  0  0  0  0
    3.3117   -2.3036   -1.6194 H   0  0  0  0  0  0  0  0  0  0  0  0
  1  2  1  0  0  0  0
  1 35  1  0  0  0  0
  1 36  1  0  0  0  0
  1 37  1  0  0  0  0
  2  3  1  0  0  0  0
  2 33  1  0  0  0  0
  2 34  1  0  0  0  0
  3  4  1  0  0  0  0
  3 38  1  0  0  0  0
  4  5  2  0  0  0  0
  4  6  1  0  0  0  0
  6  7  1  0  0  0  0
  6 39  1  0  0  0  0
  6 40  1  0  0  0  0
  7  8  1  0  0  0  0
  7 32  1  0  0  0  0
  8  9  1  0  0  0  0
  8 41  1  0  0  0  0
  8 42  1  0  0  0  0
  9 10  1  0  0  0  0
  9 15  2  0  0  0  0
 10 11  2  0  0  0  0
 10 43  1  0  0  0  0
 11 12  1  0  0  0  0
 11 44  1  0  0  0  0
 12 13  1  0  0  0  0
 12 14  2  0  0  0  0
 14 15  1  0  0  0  0
 14 45  1  0  0  0  0
 15 16  1  0  0  0  0
 16 17  1  0  0  0  0
 16 30  1  0  0  0  0
 16 32  1  0  0  0  0
 17 18  1  0  0  0  0
 17 46  1  0  0  0  0
 17 47  1  0  0  0  0
 18 19  1  0  0  0  0
 18 48  1  0  0  0  0
 18 49  1  0  0  0  0
 19 20  1  0  0  0  0
 19 30  1  0  0  0  0
 20 21  1  0  0  0  0
 20 29  2  0  0  0  0
 21 22  2  0  0  0  0
 21 50  1  0  0  0  0
 22 23  1  0  0  0  0
 23 24  2  0  0  0  0
 23 51  1  0  0  0  0
 24 25  1  0  0  0  0
 24 29  1  0  0  0  0
 25 26  2  0  0  0  0
 25 52  1  0  0  0  0
 26 27  1  0  0  0  0
 26 53  1  0  0  0  0
 27 28  2  0  0  0  0
 27 54  1  0  0  0  0
 28 29  1  0  0  0  0
 28 55  1  0  0  0  0
 30 31  2  0  0  0  0
 32 56  1  0  0  0  0
 32 57  1  0  0  0  0
 33 34  1  0  0  0  0
 33 58  1  0  0  0  0
 33 59  1  0  0  0  0
 34 60  1  0  0  0  0
 34 61  1  0  0  0  0
M  END
$$$$
