
 OpenBabel07202414143D

 64 69  0  0  1  0  0  0  0  0999 V2000
   -0.9302    0.7940    8.0561 C   0  0  0  0  0  0  0  0  0  0  0  0
   -0.9852   -0.1183    6.9170 N   0  0  0  0  0  0  0  0  0  0  0  0
   -2.2908   -0.0197    6.2428 C   0  0  0  0  0  0  0  0  0  0  0  0
   -2.4142   -1.0865    5.1477 C   0  0  0  0  0  0  0  0  0  0  0  0
   -1.3236   -1.0169    4.1416 N   0  0  0  0  0  0  0  0  0  0  0  0
   -1.7006   -0.1568    2.7564 S   0  0  0  0  0  0  0  0  0  0  0  0
   -2.3116    1.0826    3.2108 O   0  0  0  0  0  0  0  0  0  0  0  0
   -0.5598   -0.1976    1.8746 O   0  0  0  0  0  0  0  0  0  0  0  0
   -2.9184   -1.1674    2.1385 N   0  0  0  0  0  0  0  0  0  0  0  0
   -2.4476   -2.5066    1.7627 C   0  0  0  0  0  0  0  0  0  0  0  0
   -1.9440   -2.5799    0.3424 C   0  0  0  0  0  0  0  0  0  0  0  0
   -1.1076   -3.6672    0.0213 C   0  0  0  0  0  0  0  0  0  0  0  0
   -0.5158   -3.7569   -1.2303 C   0  0  0  0  0  0  0  0  0  0  0  0
   -0.8012   -2.7864   -2.1818 C   0  0  0  0  0  0  0  0  0  0  0  0
   -0.0410   -2.8719   -3.7244 Cl  0  0  0  0  0  0  0  0  0  0  0  0
   -1.6835   -1.7348   -1.8995 C   0  0  0  0  0  0  0  0  0  0  0  0
   -2.2634   -1.5895   -0.6250 C   0  0  0  0  0  0  0  0  0  0  0  0
   -3.2365   -0.4271   -0.2873 C   0  0  3  0  0  0  0  0  0  0  0  0
   -4.3230   -0.3070   -1.3869 C   0  0  0  0  0  0  0  0  0  0  0  0
   -3.8864    0.8430   -2.2996 C   0  0  0  0  0  0  0  0  0  0  0  0
   -2.7956    1.4973   -1.6460 N   0  0  0  0  0  0  0  0  0  0  0  0
   -1.8642    2.4117   -2.2480 C   0  0  0  0  0  0  0  0  0  0  0  0
   -0.6693    2.7268   -1.5873 C   0  0  0  0  0  0  0  0  0  0  0  0
    0.4629    3.1484   -2.1963 N   0  0  0  0  0  0  0  0  0  0  0  0
    0.3858    3.3542   -3.5199 C   0  0  0  0  0  0  0  0  0  0  0  0
   -0.8099    3.3582   -4.2336 C   0  0  0  0  0  0  0  0  0  0  0  0
   -0.8600    3.8392   -5.5540 C   0  0  0  0  0  0  0  0  0  0  0  0
   -2.0766    3.9676   -6.2161 C   0  0  0  0  0  0  0  0  0  0  0  0
   -3.2458    3.5757   -5.5818 C   0  0  0  0  0  0  0  0  0  0  0  0
   -3.2002    3.0536   -4.2957 C   0  0  0  0  0  0  0  0  0  0  0  0
   -1.9812    2.9077   -3.5757 C   0  0  0  0  0  0  0  0  0  0  0  0
   -2.6590    0.9923   -0.3587 C   0  0  0  0  0  0  0  0  0  0  0  0
   -2.2536    1.6609    0.5791 O   0  0  0  0  0  0  0  0  0  0  0  0
   -3.8628   -0.6354    1.1127 C   0  0  0  0  0  0  0  0  0  0  0  0
    0.0306   -0.8260    4.7413 C   0  0  0  0  0  0  0  0  0  0  0  0
    0.0683    0.1700    5.9238 C   0  0  0  0  0  0  0  0  0  0  0  0
   -1.7267    0.5494    8.7675 H   0  0  0  0  0  0  0  0  0  0  0  0
   -1.0431    1.8425    7.7621 H   0  0  0  0  0  0  0  0  0  0  0  0
    0.0144    0.6779    8.5960 H   0  0  0  0  0  0  0  0  0  0  0  0
   -2.4353    0.9855    5.8267 H   0  0  0  0  0  0  0  0  0  0  0  0
   -3.0980   -0.1899    6.9643 H   0  0  0  0  0  0  0  0  0  0  0  0
   -3.3961   -0.9840    4.6719 H   0  0  0  0  0  0  0  0  0  0  0  0
   -2.3927   -2.0928    5.5833 H   0  0  0  0  0  0  0  0  0  0  0  0
   -3.2756   -3.2194    1.8942 H   0  0  0  0  0  0  0  0  0  0  0  0
   -1.6589   -2.8467    2.4467 H   0  0  0  0  0  0  0  0  0  0  0  0
   -0.8811   -4.4268    0.7691 H   0  0  0  0  0  0  0  0  0  0  0  0
    0.1783   -4.5642   -1.4433 H   0  0  0  0  0  0  0  0  0  0  0  0
   -1.8945   -1.0287   -2.6963 H   0  0  0  0  0  0  0  0  0  0  0  0
   -5.3039   -0.0653   -0.9590 H   0  0  0  0  0  0  0  0  0  0  0  0
   -4.4640   -1.2230   -1.9730 H   0  0  0  0  0  0  0  0  0  0  0  0
   -4.7137    1.5576   -2.3503 H   0  0  0  0  0  0  0  0  0  0  0  0
   -3.6187    0.4956   -3.3008 H   0  0  0  0  0  0  0  0  0  0  0  0
   -0.5522    2.6241   -0.5113 H   0  0  0  0  0  0  0  0  0  0  0  0
    1.3397    3.5712   -3.9977 H   0  0  0  0  0  0  0  0  0  0  0  0
    0.0470    4.1783   -6.0512 H   0  0  0  0  0  0  0  0  0  0  0  0
   -2.1162    4.4091   -7.2098 H   0  0  0  0  0  0  0  0  0  0  0  0
   -4.2073    3.7036   -6.0758 H   0  0  0  0  0  0  0  0  0  0  0  0
   -4.1453    2.8460   -3.8192 H   0  0  0  0  0  0  0  0  0  0  0  0
   -4.6685   -1.3892    1.0232 H   0  0  0  0  0  0  0  0  0  0  0  0
   -4.3628    0.2618    1.4944 H   0  0  0  0  0  0  0  0  0  0  0  0
    0.7653   -0.5255    3.9871 H   0  0  0  0  0  0  0  0  0  0  0  0
    0.3535   -1.8141    5.0949 H   0  0  0  0  0  0  0  0  0  0  0  0
   -0.0131    1.1949    5.5488 H   0  0  0  0  0  0  0  0  0  0  0  0
    1.0513    0.0802    6.4025 H   0  0  0  0  0  0  0  0  0  0  0  0
  1  2  1  0  0  0  0
  1 37  1  0  0  0  0
  1 38  1  0  0  0  0
  1 39  1  0  0  0  0
  2  3  1  0  0  0  0
  2 36  1  0  0  0  0
  3  4  1  0  0  0  0
  3 40  1  0  0  0  0
  3 41  1  0  0  0  0
  4  5  1  0  0  0  0
  4 42  1  0  0  0  0
  4 43  1  0  0  0  0
  5  6  1  0  0  0  0
  5 35  1  0  0  0  0
  6  7  2  0  0  0  0
  6  8  2  0  0  0  0
  6  9  1  0  0  0  0
  9 10  1  0  0  0  0
  9 34  1  0  0  0  0
 10 11  1  0  0  0  0
 10 44  1  0  0  0  0
 10 45  1  0  0  0  0
 11 12  1  0  0  0  0
 11 17  2  0  0  0  0
 12 13  2  0  0  0  0
 12 46  1  0  0  0  0
 13 14  1  0  0  0  0
 13 47  1  0  0  0  0
 14 15  1  0  0  0  0
 14 16  2  0  0  0  0
 16 17  1  0  0  0  0
 16 48  1  0  0  0  0
 17 18  1  0  0  0  0
 18 19  1  0  0  0  0
 18 32  1  0  0  0  0
 18 34  1  0  0  0  0
 19 20  1  0  0  0  0
 19 49  1  0  0  0  0
 19 50  1  0  0  0  0
 20 21  1  0  0  0  0
 20 51  1  0  0  0  0
 20 52  1  0  0  0  0
 21 22  1  0  0  0  0
 21 32  1  0  0  0  0
 22 23  1  0  0  0  0
 22 31  2  0  0  0  0
 23 24  2  0  0  0  0
 23 53  1  0  0  0  0
 24 25  1  0  0  0  0
 25 26  2  0  0  0  0
 25 54  1  0  0  0  0
 26 27  1  0  0  0  0
 26 31  1  0  0  0  0
 27 28  2  0  0  0  0
 27 55  1  0  0  0  0
 28 29  1  0  0  0  0
 28 56  1  0  0  0  0
 29 30  2  0  0  0  0
 29 57  1  0  0  0  0
 30 31  1  0  0  0  0
 30 58  1  0  0  0  0
 32 33  2  0  0  0  0
 34 59  1  0  0  0  0
 34 60  1  0  0  0  0
 35 36  1  0  0  0  0
 35 61  1  0  0  0  0
 35 62  1  0  0  0  0
 36 63  1  0  0  0  0
 36 64  1  0  0  0  0
M  END
$$$$
