
 OpenBabel07202414153D

 19 19  0  0  0  0  0  0  0  0999 V2000
    2.9449    0.8506   -1.0605 C   0  0  0  0  0  0  0  0  0  0  0  0
    2.4591    0.0141   -0.0114 O   0  0  0  0  0  0  0  0  0  0  0  0
    3.1681    0.1563    1.1647 C   0  0  0  0  0  0  0  0  0  0  0  0
    2.7609   -0.6105    2.2292 C   0  0  0  0  0  0  0  0  0  0  0  0
    3.4905   -0.4503    3.3818 C   0  0  0  0  0  0  0  0  0  0  0  0
    4.5337    0.3868    3.4964 N   0  0  0  0  0  0  0  0  0  0  0  0
    4.8384    1.0826    2.3903 C   0  0  0  0  0  0  0  0  0  0  0  0
    4.2011    1.0124    1.2121 N   0  0  0  0  0  0  0  0  0  0  0  0
    5.9538    1.9855    2.4753 C   0  0  0  0  0  0  0  0  0  0  0  0
    6.8575    2.7161    2.5428 N   0  0  0  0  0  0  0  0  0  0  0  0
    3.1075   -1.2090    4.4700 O   0  0  0  0  0  0  0  0  0  0  0  0
    3.9186   -0.9833    5.6220 C   0  0  0  0  0  0  0  0  0  0  0  0
    2.3449    0.6550   -1.9539 H   0  0  0  0  0  0  0  0  0  0  0  0
    3.9883    0.6188   -1.3029 H   0  0  0  0  0  0  0  0  0  0  0  0
    2.8291    1.9097   -0.8038 H   0  0  0  0  0  0  0  0  0  0  0  0
    1.9256   -1.2928    2.1641 H   0  0  0  0  0  0  0  0  0  0  0  0
    3.5505   -1.6276    6.4256 H   0  0  0  0  0  0  0  0  0  0  0  0
    3.8392    0.0551    5.9633 H   0  0  0  0  0  0  0  0  0  0  0  0
    4.9633   -1.2536    5.4301 H   0  0  0  0  0  0  0  0  0  0  0  0
  1  2  1  0  0  0  0
  1 13  1  0  0  0  0
  1 14  1  0  0  0  0
  1 15  1  0  0  0  0
  2  3  1  0  0  0  0
  3  4  1  0  0  0  0
  3  8  2  0  0  0  0
  4  5  2  0  0  0  0
  4 16  1  0  0  0  0
  5  6  1  0  0  0  0
  5 11  1  0  0  0  0
  6  7  2  0  0  0  0
  7  8  1  0  0  0  0
  7  9  1  0  0  0  0
  9 10  3  0  0  0  0
 11 12  1  0  0  0  0
 12 17  1  0  0  0  0
 12 18  1  0  0  0  0
 12 19  1  0  0  0  0
M  END
$$$$
