
 OpenBabel07202414203D

 34 36  0  0  0  0  0  0  0  0999 V2000
    4.3271   -1.0052   -1.0646 C   0  0  0  0  0  0  0  0  0  0  0  0
    4.4828    0.3736   -1.1049 C   0  0  0  0  0  0  0  0  0  0  0  0
    3.4174    1.2143   -0.7585 C   0  0  0  0  0  0  0  0  0  0  0  0
    2.1518    0.7041   -0.3652 C   0  0  0  0  0  0  0  0  0  0  0  0
    2.0284   -0.7090   -0.3320 C   0  0  0  0  0  0  0  0  0  0  0  0
    3.1052   -1.5444   -0.6768 C   0  0  0  0  0  0  0  0  0  0  0  0
    0.8113   -1.2631    0.0555 C   0  0  0  0  0  0  0  0  0  0  0  0
   -0.2817   -0.5499    0.3885 N   0  0  0  0  0  0  0  0  0  0  0  0
   -0.1507    0.7962    0.3574 C   0  0  0  0  0  0  0  0  0  0  0  0
    1.0167    1.4844    0.0122 C   0  0  0  0  0  0  0  0  0  0  0  0
    1.0720    2.9091    0.0089 N   0  0  0  0  0  0  0  0  0  0  0  0
    0.1399    3.7561    0.5944 C   0  0  0  0  0  0  0  0  0  0  0  0
   -0.8132    3.4055    1.2827 O   0  0  0  0  0  0  0  0  0  0  0  0
    0.3934    5.2334    0.3354 C   0  0  0  0  0  0  0  0  0  0  0  0
    1.2811    5.8874    1.3655 C   0  0  0  0  0  0  0  0  0  0  0  0
    0.9541    5.8476    2.7303 C   0  0  0  0  0  0  0  0  0  0  0  0
    1.7562    6.4924    3.6755 C   0  0  0  0  0  0  0  0  0  0  0  0
    2.8890    7.1941    3.2678 C   0  0  0  0  0  0  0  0  0  0  0  0
    3.2137    7.2493    1.9148 C   0  0  0  0  0  0  0  0  0  0  0  0
    2.4176    6.6058    0.9654 C   0  0  0  0  0  0  0  0  0  0  0  0
    4.6041    8.1255    1.4039 Cl  0  0  0  0  0  0  0  0  0  0  0  0
    5.1525   -1.6621   -1.3309 H   0  0  0  0  0  0  0  0  0  0  0  0
    5.4390    0.7980   -1.4016 H   0  0  0  0  0  0  0  0  0  0  0  0
    3.6033    2.2843   -0.7978 H   0  0  0  0  0  0  0  0  0  0  0  0
    2.9962   -2.6269   -0.6433 H   0  0  0  0  0  0  0  0  0  0  0  0
    0.6708   -2.3393    0.1102 H   0  0  0  0  0  0  0  0  0  0  0  0
   -1.0751    1.3057    0.6066 H   0  0  0  0  0  0  0  0  0  0  0  0
    1.9091    3.3376   -0.3574 H   0  0  0  0  0  0  0  0  0  0  0  0
   -0.5777    5.7454    0.3283 H   0  0  0  0  0  0  0  0  0  0  0  0
    0.8036    5.3542   -0.6742 H   0  0  0  0  0  0  0  0  0  0  0  0
    0.0640    5.3169    3.0698 H   0  0  0  0  0  0  0  0  0  0  0  0
    1.4906    6.4521    4.7295 H   0  0  0  0  0  0  0  0  0  0  0  0
    3.5069    7.6985    4.0056 H   0  0  0  0  0  0  0  0  0  0  0  0
    2.6798    6.6791   -0.0870 H   0  0  0  0  0  0  0  0  0  0  0  0
  1  2  1  0  0  0  0
  1  6  2  0  0  0  0
  1 22  1  0  0  0  0
  2  3  2  0  0  0  0
  2 23  1  0  0  0  0
  3  4  1  0  0  0  0
  3 24  1  0  0  0  0
  4  5  1  0  0  0  0
  4 10  2  0  0  0  0
  5  6  1  0  0  0  0
  5  7  2  0  0  0  0
  6 25  1  0  0  0  0
  7  8  1  0  0  0  0
  7 26  1  0  0  0  0
  8  9  2  0  0  0  0
  9 10  1  0  0  0  0
  9 27  1  0  0  0  0
 10 11  1  0  0  0  0
 11 12  1  0  0  0  0
 11 28  1  0  0  0  0
 12 13  2  0  0  0  0
 12 14  1  0  0  0  0
 14 15  1  0  0  0  0
 14 29  1  0  0  0  0
 14 30  1  0  0  0  0
 15 16  1  0  0  0  0
 15 20  2  0  0  0  0
 16 17  2  0  0  0  0
 16 31  1  0  0  0  0
 17 18  1  0  0  0  0
 17 32  1  0  0  0  0
 18 19  2  0  0  0  0
 18 33  1  0  0  0  0
 19 20  1  0  0  0  0
 19 21  1  0  0  0  0
 20 34  1  0  0  0  0
M  END
$$$$
