
 OpenBabel07202414193D

 45 48  0  0  1  0  0  0  0  0999 V2000
    1.0897    0.7254   -0.2156 O   0  0  0  0  0  0  0  0  0  0  0  0
    2.1366    0.0738   -0.1631 C   0  0  0  0  0  0  0  0  0  0  0  0
    2.6320   -0.4382    1.1911 C   0  0  0  0  0  0  0  0  0  0  0  0
    2.2025   -1.8503    1.5352 C   0  0  0  0  0  0  0  0  0  0  0  0
    0.9446   -2.3009    1.1261 C   0  0  0  0  0  0  0  0  0  0  0  0
    0.4382   -3.5226    1.3951 N   0  0  0  0  0  0  0  0  0  0  0  0
    1.2110   -4.3426    2.1350 C   0  0  0  0  0  0  0  0  0  0  0  0
    2.4692   -4.0116    2.6325 C   0  0  0  0  0  0  0  0  0  0  0  0
    3.2004   -4.9251    3.4140 C   0  0  0  0  0  0  0  0  0  0  0  0
    4.4489   -4.5834    3.9251 C   0  0  0  0  0  0  0  0  0  0  0  0
    4.9733   -3.3247    3.6654 C   0  0  0  0  0  0  0  0  0  0  0  0
    4.2536   -2.4091    2.8879 C   0  0  0  0  0  0  0  0  0  0  0  0
    2.9864   -2.7269    2.3401 C   0  0  0  0  0  0  0  0  0  0  0  0
    2.8727   -0.2100   -1.3072 N   0  0  0  0  0  0  0  0  0  0  0  0
    2.4282    0.2970   -2.6118 C   0  0  0  0  0  0  0  0  0  0  0  0
    3.4386    1.2058   -3.3288 C   0  0  0  0  0  0  0  0  0  0  0  0
    5.1601    0.5929   -3.3999 S   0  0  0  0  0  0  0  0  0  0  0  0
    5.3437   -0.0993   -1.7096 C   0  0  1  0  0  0  0  0  0  0  0  0
    5.7111    0.9317   -0.6478 C   0  0  0  0  0  0  0  0  0  0  0  0
    4.9041    2.0415   -0.3424 C   0  0  0  0  0  0  0  0  0  0  0  0
    5.2375    2.9315    0.6794 C   0  0  0  0  0  0  0  0  0  0  0  0
    6.3900    2.7275    1.4272 C   0  0  0  0  0  0  0  0  0  0  0  0
    7.2090    1.6384    1.1454 C   0  0  0  0  0  0  0  0  0  0  0  0
    6.8770    0.7486    0.1157 C   0  0  0  0  0  0  0  0  0  0  0  0
    4.1269   -0.9671   -1.3322 C   0  0  0  0  0  0  0  0  0  0  0  0
    2.2351    0.2339    1.9629 H   0  0  0  0  0  0  0  0  0  0  0  0
    3.7154   -0.3112    1.2334 H   0  0  0  0  0  0  0  0  0  0  0  0
    0.2662   -1.6680    0.5567 H   0  0  0  0  0  0  0  0  0  0  0  0
    0.7642   -5.3141    2.3340 H   0  0  0  0  0  0  0  0  0  0  0  0
    2.7939   -5.9106    3.6349 H   0  0  0  0  0  0  0  0  0  0  0  0
    5.0039   -5.2952    4.5315 H   0  0  0  0  0  0  0  0  0  0  0  0
    5.9430   -3.0482    4.0717 H   0  0  0  0  0  0  0  0  0  0  0  0
    4.7052   -1.4335    2.7295 H   0  0  0  0  0  0  0  0  0  0  0  0
    1.4904    0.8535   -2.5075 H   0  0  0  0  0  0  0  0  0  0  0  0
    2.2053   -0.5760   -3.2356 H   0  0  0  0  0  0  0  0  0  0  0  0
    3.4562    2.2012   -2.8783 H   0  0  0  0  0  0  0  0  0  0  0  0
    3.1071    1.3587   -4.3619 H   0  0  0  0  0  0  0  0  0  0  0  0
    6.1939   -0.7875   -1.8033 H   0  0  0  0  0  0  0  0  0  0  0  0
    3.9814    2.2363   -0.8752 H   0  0  0  0  0  0  0  0  0  0  0  0
    4.5888    3.7789    0.8878 H   0  0  0  0  0  0  0  0  0  0  0  0
    6.6474    3.4177    2.2246 H   0  0  0  0  0  0  0  0  0  0  0  0
    8.1121    1.4779    1.7276 H   0  0  0  0  0  0  0  0  0  0  0  0
    7.5374   -0.0930   -0.0758 H   0  0  0  0  0  0  0  0  0  0  0  0
    4.3118   -1.4648   -0.3787 H   0  0  0  0  0  0  0  0  0  0  0  0
    3.9957   -1.7751   -2.0645 H   0  0  0  0  0  0  0  0  0  0  0  0
  1  2  2  0  0  0  0
  2  3  1  0  0  0  0
  2 14  1  0  0  0  0
  3  4  1  0  0  0  0
  3 26  1  0  0  0  0
  3 27  1  0  0  0  0
  4  5  1  0  0  0  0
  4 13  2  0  0  0  0
  5  6  2  0  0  0  0
  5 28  1  0  0  0  0
  6  7  1  0  0  0  0
  7  8  2  0  0  0  0
  7 29  1  0  0  0  0
  8  9  1  0  0  0  0
  8 13  1  0  0  0  0
  9 10  2  0  0  0  0
  9 30  1  0  0  0  0
 10 11  1  0  0  0  0
 10 31  1  0  0  0  0
 11 12  2  0  0  0  0
 11 32  1  0  0  0  0
 12 13  1  0  0  0  0
 12 33  1  0  0  0  0
 14 15  1  0  0  0  0
 14 25  1  0  0  0  0
 15 16  1  0  0  0  0
 15 34  1  0  0  0  0
 15 35  1  0  0  0  0
 16 17  1  0  0  0  0
 16 36  1  0  0  0  0
 16 37  1  0  0  0  0
 17 18  1  0  0  0  0
 18 25  1  0  0  0  0
 18 19  1  0  0  0  0
 18 38  1  6  0  0  0
 19 20  1  0  0  0  0
 19 24  2  0  0  0  0
 20 21  2  0  0  0  0
 20 39  1  0  0  0  0
 21 22  1  0  0  0  0
 21 40  1  0  0  0  0
 22 23  2  0  0  0  0
 22 41  1  0  0  0  0
 23 24  1  0  0  0  0
 23 42  1  0  0  0  0
 24 43  1  0  0  0  0
 25 44  1  0  0  0  0
 25 45  1  0  0  0  0
M  END
$$$$
