
 OpenBabel07202414183D

 36 38  0  0  1  0  0  0  0  0999 V2000
    2.1722   -0.3370    0.0185 F   0  0  0  0  0  0  0  0  0  0  0  0
    0.8406   -0.1945    0.0456 C   0  0  0  0  0  0  0  0  0  0  0  0
    0.2900    1.0807    0.0442 C   0  0  0  0  0  0  0  0  0  0  0  0
   -1.0972    1.2460    0.0570 C   0  0  0  0  0  0  0  0  0  0  0  0
   -1.7138    2.5222    0.0053 N   0  0  0  0  0  0  0  0  0  0  0  0
   -1.0844    3.7194   -0.3162 C   0  0  0  0  0  0  0  0  0  0  0  0
    0.0822    3.8496   -0.6777 O   0  0  0  0  0  0  0  0  0  0  0  0
   -1.9874    4.9385   -0.2296 C   0  0  0  0  0  0  0  0  0  0  0  0
   -2.6563    5.2720   -1.5264 C   0  0  0  0  0  0  0  0  0  0  0  0
   -4.0233    5.4391   -1.6271 C   0  0  0  0  0  0  0  0  0  0  0  0
   -4.6608    5.7660   -2.7668 N   0  0  0  0  0  0  0  0  0  0  0  0
   -3.8771    5.9476   -3.8403 C   0  0  0  0  0  0  0  0  0  0  0  0
   -2.5426    5.8246   -3.8674 N   0  0  0  0  0  0  0  0  0  0  0  0
   -1.9577    5.4905   -2.7002 C   0  0  0  0  0  0  0  0  0  0  0  0
   -1.9190    0.1025    0.1238 C   0  0  0  0  0  0  0  0  0  0  0  0
   -1.3469   -1.1775    0.1277 C   0  0  0  0  0  0  0  0  0  0  0  0
   -2.0369   -2.3651    0.1279 O   0  0  0  0  0  0  0  0  0  0  0  0
   -3.3469   -2.4261    0.7146 C   0  0  3  0  0  0  0  0  0  0  0  0
   -3.4639   -2.2718    2.2452 C   0  0  0  0  0  0  0  0  0  0  0  0
   -3.7081   -3.7822    2.2388 C   0  0  0  0  0  0  0  0  0  0  0  0
   -3.7033   -4.6861    3.0352 O   0  0  0  0  0  0  0  0  0  0  0  0
   -3.8553   -3.7974    0.8879 N   0  0  0  0  0  0  0  0  0  0  0  0
    0.0366   -1.3216    0.0715 C   0  0  0  0  0  0  0  0  0  0  0  0
    0.9801    1.9167    0.0354 H   0  0  0  0  0  0  0  0  0  0  0  0
   -2.7219    2.5416    0.0979 H   0  0  0  0  0  0  0  0  0  0  0  0
   -1.3736    5.7921    0.0866 H   0  0  0  0  0  0  0  0  0  0  0  0
   -2.7240    4.7862    0.5678 H   0  0  0  0  0  0  0  0  0  0  0  0
   -4.6768    5.3200   -0.7673 H   0  0  0  0  0  0  0  0  0  0  0  0
   -4.3662    6.2218   -4.7685 H   0  0  0  0  0  0  0  0  0  0  0  0
   -0.8733    5.4092   -2.7443 H   0  0  0  0  0  0  0  0  0  0  0  0
   -2.9980    0.2181    0.1261 H   0  0  0  0  0  0  0  0  0  0  0  0
   -4.0749   -1.8399    0.1433 H   0  0  0  0  0  0  0  0  0  0  0  0
   -4.3147   -1.6811    2.5944 H   0  0  0  0  0  0  0  0  0  0  0  0
   -2.5525   -1.9803    2.7719 H   0  0  0  0  0  0  0  0  0  0  0  0
   -3.5271   -4.6279    0.4137 H   0  0  0  0  0  0  0  0  0  0  0  0
    0.4953   -2.3052    0.0508 H   0  0  0  0  0  0  0  0  0  0  0  0
  1  2  1  0  0  0  0
  2  3  1  0  0  0  0
  2 23  2  0  0  0  0
  3  4  2  0  0  0  0
  3 24  1  0  0  0  0
  4  5  1  0  0  0  0
  4 15  1  0  0  0  0
  5  6  1  0  0  0  0
  5 25  1  0  0  0  0
  6  7  2  0  0  0  0
  6  8  1  0  0  0  0
  8  9  1  0  0  0  0
  8 26  1  0  0  0  0
  8 27  1  0  0  0  0
  9 10  1  0  0  0  0
  9 14  2  0  0  0  0
 10 11  2  0  0  0  0
 10 28  1  0  0  0  0
 11 12  1  0  0  0  0
 12 13  2  0  0  0  0
 12 29  1  0  0  0  0
 13 14  1  0  0  0  0
 14 30  1  0  0  0  0
 15 16  2  0  0  0  0
 15 31  1  0  0  0  0
 16 17  1  0  0  0  0
 16 23  1  0  0  0  0
 17 18  1  0  0  0  0
 18 19  1  0  0  0  0
 18 22  1  0  0  0  0
 18 32  1  0  0  0  0
 19 20  1  0  0  0  0
 19 33  1  0  0  0  0
 19 34  1  0  0  0  0
 20 21  2  0  0  0  0
 20 22  1  0  0  0  0
 22 35  1  0  0  0  0
 23 36  1  0  0  0  0
M  END
$$$$
