
 OpenBabel07202414153D

 42 45  0  0  1  0  0  0  0  0999 V2000
    3.0279   -0.0873   -1.3209 C   0  0  0  0  0  0  0  0  0  0  0  0
    2.7488    0.0403    0.1843 C   0  0  1  0  0  0  0  0  0  0  0  0
    3.3912   -1.1093    0.9659 C   0  0  0  0  0  0  0  0  0  0  0  0
    4.8205   -1.1163    0.9213 O   0  0  0  0  0  0  0  0  0  0  0  0
    5.4409    0.0958    0.9638 C   0  0  0  0  0  0  0  0  0  0  0  0
    6.8322    0.0620    1.0814 C   0  0  0  0  0  0  0  0  0  0  0  0
    7.5706    1.2468    1.0995 C   0  0  0  0  0  0  0  0  0  0  0  0
    6.9150    2.4664    0.9588 C   0  0  0  0  0  0  0  0  0  0  0  0
    5.5339    2.5062    0.8051 C   0  0  0  0  0  0  0  0  0  0  0  0
    4.7808    1.3214    0.8412 C   0  0  0  0  0  0  0  0  0  0  0  0
    3.2713    1.3732    0.7708 C   0  0  2  0  0  0  0  0  0  0  0  0
    2.5838    1.6776    2.1304 C   0  0  0  0  0  0  0  0  0  0  0  0
    1.4307    1.2976    2.3293 O   0  0  0  0  0  0  0  0  0  0  0  0
    3.3185    2.4351    3.0365 N   0  0  0  0  0  0  0  0  0  0  0  0
    2.9088    2.8156    4.3472 C   0  0  0  0  0  0  0  0  0  0  0  0
    1.5804    2.7334    4.7659 C   0  0  0  0  0  0  0  0  0  0  0  0
    1.1625    2.9067    6.0399 N   0  0  0  0  0  0  0  0  0  0  0  0
    2.1177    3.1712    6.9515 C   0  0  0  0  0  0  0  0  0  0  0  0
    3.4642    3.3682    6.6536 C   0  0  0  0  0  0  0  0  0  0  0  0
    3.8792    3.2434    5.3062 C   0  0  0  0  0  0  0  0  0  0  0  0
    5.2392    3.5552    5.0318 C   0  0  0  0  0  0  0  0  0  0  0  0
    6.1351    3.9172    6.0463 C   0  0  0  0  0  0  0  0  0  0  0  0
    5.7124    3.9571    7.3676 C   0  0  0  0  0  0  0  0  0  0  0  0
    4.3822    3.6855    7.6703 C   0  0  0  0  0  0  0  0  0  0  0  0
    7.8038    3.9354    1.0327 Cl  0  0  0  0  0  0  0  0  0  0  0  0
    2.6108   -1.0242   -1.7080 H   0  0  0  0  0  0  0  0  0  0  0  0
    4.0967   -0.0849   -1.5552 H   0  0  0  0  0  0  0  0  0  0  0  0
    2.5612    0.7357   -1.8717 H   0  0  0  0  0  0  0  0  0  0  0  0
    1.6599   -0.0277    0.3037 H   0  0  0  0  0  0  0  0  0  0  0  0
    3.0523   -2.0689    0.5575 H   0  0  0  0  0  0  0  0  0  0  0  0
    3.0839   -1.0965    2.0184 H   0  0  0  0  0  0  0  0  0  0  0  0
    7.3373   -0.8982    1.1749 H   0  0  0  0  0  0  0  0  0  0  0  0
    8.6495    1.2072    1.2172 H   0  0  0  0  0  0  0  0  0  0  0  0
    5.0313    3.4681    0.6873 H   0  0  0  0  0  0  0  0  0  0  0  0
    2.9692    2.1870    0.0977 H   0  0  0  0  0  0  0  0  0  0  0  0
    4.3106    2.4999    2.8732 H   0  0  0  0  0  0  0  0  0  0  0  0
    0.7683    2.5260    4.0771 H   0  0  0  0  0  0  0  0  0  0  0  0
    1.7497    3.2416    7.9719 H   0  0  0  0  0  0  0  0  0  0  0  0
    5.6231    3.5598    4.0156 H   0  0  0  0  0  0  0  0  0  0  0  0
    7.1644    4.1692    5.8012 H   0  0  0  0  0  0  0  0  0  0  0  0
    6.4097    4.2163    8.1611 H   0  0  0  0  0  0  0  0  0  0  0  0
    4.0592    3.7330    8.7089 H   0  0  0  0  0  0  0  0  0  0  0  0
  1 26  1  0  0  0  0
  1 27  1  0  0  0  0
  1 28  1  0  0  0  0
  2  3  1  0  0  0  0
  2 11  1  0  0  0  0
  2  1  1  0  0  0  0
  2 29  1  1  0  0  0
  3  4  1  0  0  0  0
  3 30  1  0  0  0  0
  3 31  1  0  0  0  0
  4  5  1  0  0  0  0
  5  6  1  0  0  0  0
  5 10  2  0  0  0  0
  6  7  2  0  0  0  0
  6 32  1  0  0  0  0
  7  8  1  0  0  0  0
  7 33  1  0  0  0  0
  8  9  2  0  0  0  0
  8 25  1  0  0  0  0
  9 10  1  0  0  0  0
  9 34  1  0  0  0  0
 10 11  1  0  0  0  0
 11 12  1  0  0  0  0
 11 35  1  6  0  0  0
 12 13  2  0  0  0  0
 12 14  1  0  0  0  0
 14 15  1  0  0  0  0
 14 36  1  0  0  0  0
 15 16  1  0  0  0  0
 15 20  2  0  0  0  0
 16 17  2  0  0  0  0
 16 37  1  0  0  0  0
 17 18  1  0  0  0  0
 18 19  2  0  0  0  0
 18 38  1  0  0  0  0
 19 20  1  0  0  0  0
 19 24  1  0  0  0  0
 20 21  1  0  0  0  0
 21 22  2  0  0  0  0
 21 39  1  0  0  0  0
 22 23  1  0  0  0  0
 22 40  1  0  0  0  0
 23 24  2  0  0  0  0
 23 41  1  0  0  0  0
 24 42  1  0  0  0  0
M  END
$$$$
