
 OpenBabel07202414203D

 37 40  0  0  0  0  0  0  0  0999 V2000
    0.5127   -0.2032    0.2616 S   0  0  0  0  0  0  0  0  0  0  0  0
    2.1402    0.3586    0.0565 C   0  0  0  0  0  0  0  0  0  0  0  0
    2.9735   -0.6427    0.0173 N   0  0  0  0  0  0  0  0  0  0  0  0
    4.2916   -0.3953    0.0313 C   0  0  0  0  0  0  0  0  0  0  0  0
    4.8825    0.8148    0.1587 C   0  0  0  0  0  0  0  0  0  0  0  0
    6.4037    0.8499    0.2428 C   0  0  0  0  0  0  0  0  0  0  0  0
    7.1775   -0.2622    0.6864 C   0  0  0  0  0  0  0  0  0  0  0  0
    8.5874   -0.2707    0.6628 C   0  0  0  0  0  0  0  0  0  0  0  0
    9.4465   -1.6831    1.1616 Cl  0  0  0  0  0  0  0  0  0  0  0  0
    9.2985    0.8347    0.2257 C   0  0  0  0  0  0  0  0  0  0  0  0
    8.5700    1.9565   -0.1785 C   0  0  0  0  0  0  0  0  0  0  0  0
    7.1584    1.9646   -0.1608 C   0  0  0  0  0  0  0  0  0  0  0  0
    3.8986    1.9969    0.1647 C   0  0  0  0  0  0  0  0  0  0  0  0
    4.3456    3.1443    0.2862 O   0  0  0  0  0  0  0  0  0  0  0  0
    2.5121    1.7180    0.0222 N   0  0  0  0  0  0  0  0  0  0  0  0
    1.5014    2.8179    0.1125 C   0  0  0  0  0  0  0  0  0  0  0  0
    0.1820    2.8039   -0.4327 C   0  0  0  0  0  0  0  0  0  0  0  0
   -0.2149    3.5241   -1.5951 C   0  0  0  0  0  0  0  0  0  0  0  0
   -1.5829    3.7970   -1.8885 C   0  0  0  0  0  0  0  0  0  0  0  0
   -2.5795    3.1601   -1.1632 C   0  0  0  0  0  0  0  0  0  0  0  0
   -2.1938    2.4905   -0.0228 C   0  0  0  0  0  0  0  0  0  0  0  0
   -0.8945    2.7505    0.4367 C   0  0  0  0  0  0  0  0  0  0  0  0
   -0.7060    3.5715    1.5345 C   0  0  0  0  0  0  0  0  0  0  0  0
    0.4925    4.1160    1.8853 N   0  0  0  0  0  0  0  0  0  0  0  0
    1.5863    3.6673    1.2120 C   0  0  0  0  0  0  0  0  0  0  0  0
    0.8523   -1.4986    0.3309 H   0  0  0  0  0  0  0  0  0  0  0  0
    4.8867   -1.3058   -0.0277 H   0  0  0  0  0  0  0  0  0  0  0  0
    6.6995   -1.1638    1.0596 H   0  0  0  0  0  0  0  0  0  0  0  0
   10.3831    0.8358    0.2000 H   0  0  0  0  0  0  0  0  0  0  0  0
    9.1186    2.8358   -0.5215 H   0  0  0  0  0  0  0  0  0  0  0  0
    6.6447    2.8594   -0.5150 H   0  0  0  0  0  0  0  0  0  0  0  0
    0.5340    4.0539   -2.1774 H   0  0  0  0  0  0  0  0  0  0  0  0
   -1.8593    4.5107   -2.6622 H   0  0  0  0  0  0  0  0  0  0  0  0
   -3.6338    3.2517   -1.4215 H   0  0  0  0  0  0  0  0  0  0  0  0
   -2.9103    1.9342    0.5736 H   0  0  0  0  0  0  0  0  0  0  0  0
   -1.5632    3.9901    2.0608 H   0  0  0  0  0  0  0  0  0  0  0  0
    2.5272    3.9420    1.6778 H   0  0  0  0  0  0  0  0  0  0  0  0
  1  2  1  0  0  0  0
  1 26  1  0  0  0  0
  2  3  2  0  0  0  0
  2 15  1  0  0  0  0
  3  4  1  0  0  0  0
  4  5  2  0  0  0  0
  4 27  1  0  0  0  0
  5  6  1  0  0  0  0
  5 13  1  0  0  0  0
  6  7  2  0  0  0  0
  6 12  1  0  0  0  0
  7  8  1  0  0  0  0
  7 28  1  0  0  0  0
  8  9  1  0  0  0  0
  8 10  2  0  0  0  0
 10 11  1  0  0  0  0
 10 29  1  0  0  0  0
 11 12  2  0  0  0  0
 11 30  1  0  0  0  0
 12 31  1  0  0  0  0
 13 14  2  0  0  0  0
 13 15  1  0  0  0  0
 15 16  1  0  0  0  0
 16 17  2  0  0  0  0
 16 25  1  0  0  0  0
 17 18  1  0  0  0  0
 17 22  1  0  0  0  0
 18 19  2  0  0  0  0
 18 32  1  0  0  0  0
 19 20  1  0  0  0  0
 19 33  1  0  0  0  0
 20 21  2  0  0  0  0
 20 34  1  0  0  0  0
 21 22  1  0  0  0  0
 21 35  1  0  0  0  0
 22 23  2  0  0  0  0
 23 24  1  0  0  0  0
 23 36  1  0  0  0  0
 24 25  2  0  0  0  0
 25 37  1  0  0  0  0
M  END
$$$$
