
 OpenBabel07202414153D

 66 68  0  0  1  0  0  0  0  0999 V2000
    1.1241    0.0181   -0.4957 C   0  0  0  0  0  0  0  0  0  0  0  0
    2.4158   -0.0723    0.1025 O   0  0  0  0  0  0  0  0  0  0  0  0
    3.0537   -1.2789    0.0125 C   0  0  0  0  0  0  0  0  0  0  0  0
    2.5766   -2.3894   -0.6630 C   0  0  0  0  0  0  0  0  0  0  0  0
    3.3150   -3.5762   -0.6708 C   0  0  0  0  0  0  0  0  0  0  0  0
    4.5176   -3.7179    0.0395 C   0  0  0  0  0  0  0  0  0  0  0  0
    5.1493   -4.9900    0.1550 N   0  0  0  0  0  0  0  0  0  0  0  0
    4.5834   -6.2145   -0.2078 C   0  0  0  0  0  0  0  0  0  0  0  0
    3.4304   -6.3531   -0.6147 O   0  0  0  0  0  0  0  0  0  0  0  0
    5.5180   -7.4483   -0.0233 C   0  0  3  0  0  0  0  0  0  0  0  0
    5.3973   -8.0527    1.3419 N   0  0  0  0  0  0  0  0  0  0  0  0
    6.4038   -8.1445    2.2949 C   0  0  0  0  0  0  0  0  0  0  0  0
    6.2243   -8.5464    3.4472 O   0  0  0  0  0  0  0  0  0  0  0  0
    7.7779   -7.7196    1.9089 C   0  0  0  0  0  0  0  0  0  0  0  0
    8.6271   -7.2866    2.8518 C   0  0  0  0  0  0  0  0  0  0  0  0
    4.1212   -8.5912    1.7122 C   0  0  0  0  0  0  0  0  0  0  0  0
    3.0392   -7.7571    1.9802 C   0  0  0  0  0  0  0  0  0  0  0  0
    1.8012   -8.2944    2.3464 C   0  0  0  0  0  0  0  0  0  0  0  0
    1.6078   -9.6787    2.4726 C   0  0  0  0  0  0  0  0  0  0  0  0
    0.2545  -10.2856    2.8802 C   0  0  0  0  0  0  0  0  0  0  0  0
   -0.8375   -9.2232    3.1353 C   0  0  0  0  0  0  0  0  0  0  0  0
   -0.2594  -11.2201    1.7655 C   0  0  0  0  0  0  0  0  0  0  0  0
    0.4143  -11.0995    4.1847 C   0  0  0  0  0  0  0  0  0  0  0  0
    2.7190  -10.5050    2.2327 C   0  0  0  0  0  0  0  0  0  0  0  0
    3.9632   -9.9689    1.8843 C   0  0  0  0  0  0  0  0  0  0  0  0
    5.4011   -8.4586   -1.1764 C   0  0  0  0  0  0  0  0  0  0  0  0
    5.0029   -8.0786   -2.4702 C   0  0  0  0  0  0  0  0  0  0  0  0
    4.9762   -9.0067   -3.5098 C   0  0  0  0  0  0  0  0  0  0  0  0
    5.3683  -10.3021   -3.2395 C   0  0  0  0  0  0  0  0  0  0  0  0
    5.7794  -10.7132   -2.0241 N   0  0  0  0  0  0  0  0  0  0  0  0
    5.7862   -9.7893   -1.0325 C   0  0  0  0  0  0  0  0  0  0  0  0
    5.0325   -2.5721    0.6753 C   0  0  0  0  0  0  0  0  0  0  0  0
    6.1485   -2.5123    1.4713 O   0  0  0  0  0  0  0  0  0  0  0  0
    7.3672   -3.0176    0.9419 C   0  0  0  0  0  0  0  0  0  0  0  0
    4.2879   -1.3731    0.6629 C   0  0  0  0  0  0  0  0  0  0  0  0
    0.7944    1.0596   -0.4336 H   0  0  0  0  0  0  0  0  0  0  0  0
    0.3975   -0.5976    0.0464 H   0  0  0  0  0  0  0  0  0  0  0  0
    1.1497   -0.2495   -1.5577 H   0  0  0  0  0  0  0  0  0  0  0  0
    1.6250   -2.3907   -1.1839 H   0  0  0  0  0  0  0  0  0  0  0  0
    2.8799   -4.3917   -1.2379 H   0  0  0  0  0  0  0  0  0  0  0  0
    5.9951   -5.0169    0.7038 H   0  0  0  0  0  0  0  0  0  0  0  0
    6.5294   -7.0468   -0.1387 H   0  0  0  0  0  0  0  0  0  0  0  0
    8.1143   -7.8474    0.8903 H   0  0  0  0  0  0  0  0  0  0  0  0
    8.3268   -7.2088    3.8932 H   0  0  0  0  0  0  0  0  0  0  0  0
    9.6527   -7.0282    2.6113 H   0  0  0  0  0  0  0  0  0  0  0  0
    3.1352   -6.6768    1.9404 H   0  0  0  0  0  0  0  0  0  0  0  0
    1.0007   -7.5857    2.5374 H   0  0  0  0  0  0  0  0  0  0  0  0
   -1.0379   -8.6280    2.2366 H   0  0  0  0  0  0  0  0  0  0  0  0
   -0.5495   -8.5371    3.9409 H   0  0  0  0  0  0  0  0  0  0  0  0
   -1.7844   -9.6882    3.4325 H   0  0  0  0  0  0  0  0  0  0  0  0
   -0.3697  -10.6830    0.8162 H   0  0  0  0  0  0  0  0  0  0  0  0
   -1.2386  -11.6400    2.0253 H   0  0  0  0  0  0  0  0  0  0  0  0
    0.4152  -12.0652    1.5895 H   0  0  0  0  0  0  0  0  0  0  0  0
    0.7824  -10.4664    5.0001 H   0  0  0  0  0  0  0  0  0  0  0  0
    1.1180  -11.9303    4.0691 H   0  0  0  0  0  0  0  0  0  0  0  0
   -0.5418  -11.5282    4.4979 H   0  0  0  0  0  0  0  0  0  0  0  0
    2.6362  -11.5859    2.3197 H   0  0  0  0  0  0  0  0  0  0  0  0
    4.7993  -10.6474    1.7452 H   0  0  0  0  0  0  0  0  0  0  0  0
    4.6908   -7.0606   -2.6933 H   0  0  0  0  0  0  0  0  0  0  0  0
    4.6582   -8.7197   -4.5057 H   0  0  0  0  0  0  0  0  0  0  0  0
    5.3709  -11.0617   -4.0156 H   0  0  0  0  0  0  0  0  0  0  0  0
    6.1371  -10.1846   -0.0845 H   0  0  0  0  0  0  0  0  0  0  0  0
    8.1790   -2.3508    1.2525 H   0  0  0  0  0  0  0  0  0  0  0  0
    7.3800   -3.0890   -0.1501 H   0  0  0  0  0  0  0  0  0  0  0  0
    7.5725   -3.9910    1.3972 H   0  0  0  0  0  0  0  0  0  0  0  0
    4.6662   -0.5025    1.1953 H   0  0  0  0  0  0  0  0  0  0  0  0
  1  2  1  0  0  0  0
  1 36  1  0  0  0  0
  1 37  1  0  0  0  0
  1 38  1  0  0  0  0
  2  3  1  0  0  0  0
  3  4  1  0  0  0  0
  3 35  2  0  0  0  0
  4  5  2  0  0  0  0
  4 39  1  0  0  0  0
  5  6  1  0  0  0  0
  5 40  1  0  0  0  0
  6  7  1  0  0  0  0
  6 32  2  0  0  0  0
  7  8  1  0  0  0  0
  7 41  1  0  0  0  0
  8  9  2  0  0  0  0
  8 10  1  0  0  0  0
 10 11  1  0  0  0  0
 10 26  1  0  0  0  0
 10 42  1  0  0  0  0
 11 12  1  0  0  0  0
 11 16  1  0  0  0  0
 12 13  2  0  0  0  0
 12 14  1  0  0  0  0
 14 15  2  0  0  0  0
 14 43  1  0  0  0  0
 15 44  1  0  0  0  0
 15 45  1  0  0  0  0
 16 17  1  0  0  0  0
 16 25  2  0  0  0  0
 17 18  2  0  0  0  0
 17 46  1  0  0  0  0
 18 19  1  0  0  0  0
 18 47  1  0  0  0  0
 19 20  1  0  0  0  0
 19 24  2  0  0  0  0
 20 21  1  0  0  0  0
 20 22  1  0  0  0  0
 20 23  1  0  0  0  0
 21 48  1  0  0  0  0
 21 49  1  0  0  0  0
 21 50  1  0  0  0  0
 22 51  1  0  0  0  0
 22 52  1  0  0  0  0
 22 53  1  0  0  0  0
 23 54  1  0  0  0  0
 23 55  1  0  0  0  0
 23 56  1  0  0  0  0
 24 25  1  0  0  0  0
 24 57  1  0  0  0  0
 25 58  1  0  0  0  0
 26 27  1  0  0  0  0
 26 31  2  0  0  0  0
 27 28  2  0  0  0  0
 27 59  1  0  0  0  0
 28 29  1  0  0  0  0
 28 60  1  0  0  0  0
 29 30  2  0  0  0  0
 29 61  1  0  0  0  0
 30 31  1  0  0  0  0
 31 62  1  0  0  0  0
 32 33  1  0  0  0  0
 32 35  1  0  0  0  0
 33 34  1  0  0  0  0
 34 63  1  0  0  0  0
 34 64  1  0  0  0  0
 34 65  1  0  0  0  0
 35 66  1  0  0  0  0
M  END
$$$$
