
 OpenBabel07202414143D

 69 72  0  0  1  0  0  0  0  0999 V2000
    2.6831   -0.9593   -1.6486 C   0  0  0  0  0  0  0  0  0  0  0  0
    3.9577   -1.5669   -1.8740 O   0  0  0  0  0  0  0  0  0  0  0  0
    4.9452   -0.6823   -2.2023 C   0  0  0  0  0  0  0  0  0  0  0  0
    4.7501    0.5148   -2.3927 O   0  0  0  0  0  0  0  0  0  0  0  0
    6.2888   -1.3979   -2.5182 C   0  0  0  0  0  0  0  0  0  0  0  0
    6.4886   -2.6831   -1.8194 N   0  0  0  0  0  0  0  0  0  0  0  0
    6.4928   -2.7616   -0.4379 C   0  0  0  0  0  0  0  0  0  0  0  0
    6.2359   -1.7761    0.2555 O   0  0  0  0  0  0  0  0  0  0  0  0
    6.9074   -4.1300    0.2016 C   0  0  3  0  0  0  0  0  0  0  0  0
    6.4663   -5.2679   -0.6862 N   0  0  0  0  0  0  0  0  0  0  0  0
    7.1883   -5.9477   -1.6926 C   0  0  0  0  0  0  0  0  0  0  0  0
    6.6741   -6.8789   -2.3336 O   0  0  0  0  0  0  0  0  0  0  0  0
    8.5729   -5.6187   -1.9639 C   0  0  0  0  0  0  0  0  0  0  0  0
    9.5159   -6.4976   -2.4549 C   0  0  0  0  0  0  0  0  0  0  0  0
   10.7305   -5.8822   -2.4573 O   0  0  0  0  0  0  0  0  0  0  0  0
   10.4558   -4.6290   -2.0094 C   0  0  0  0  0  0  0  0  0  0  0  0
    9.1780   -4.3860   -1.7861 N   0  0  0  0  0  0  0  0  0  0  0  0
    5.0251   -5.4306   -0.7514 C   0  0  0  0  0  0  0  0  0  0  0  0
    4.3335   -6.0923    0.2568 C   0  0  0  0  0  0  0  0  0  0  0  0
    2.9581   -6.3604    0.1002 C   0  0  0  0  0  0  0  0  0  0  0  0
    2.2185   -5.9264   -1.0209 C   0  0  0  0  0  0  0  0  0  0  0  0
    0.7104   -6.2391   -1.1832 C   0  0  0  0  0  0  0  0  0  0  0  0
    0.1649   -7.0703    0.0001 C   0  0  0  0  0  0  0  0  0  0  0  0
   -0.0955   -4.9228   -1.2633 C   0  0  0  0  0  0  0  0  0  0  0  0
    0.4013   -7.0467   -2.4673 C   0  0  0  0  0  0  0  0  0  0  0  0
    2.9140   -5.1701   -1.9663 C   0  0  0  0  0  0  0  0  0  0  0  0
    4.3026   -4.9558   -1.8493 C   0  0  0  0  0  0  0  0  0  0  0  0
    8.3052   -4.1241    0.8387 C   0  0  0  0  0  0  0  0  0  0  0  0
    9.0752   -5.2786    1.0691 C   0  0  0  0  0  0  0  0  0  0  0  0
   10.3414   -5.1906    1.6610 C   0  0  0  0  0  0  0  0  0  0  0  0
   10.7873   -3.9558    2.0842 C   0  0  0  0  0  0  0  0  0  0  0  0
   10.0916   -2.8206    1.9074 N   0  0  0  0  0  0  0  0  0  0  0  0
    8.8830   -2.9299    1.2975 C   0  0  0  0  0  0  0  0  0  0  0  0
    7.4974   -0.4740   -2.3216 C   0  0  0  0  0  0  0  0  0  0  0  0
    8.5333   -0.9498   -3.3348 C   0  0  0  0  0  0  0  0  0  0  0  0
    7.7481   -1.5134   -4.5083 C   0  0  0  0  0  0  0  0  0  0  0  0
    6.2971   -1.6114   -4.0498 C   0  0  0  0  0  0  0  0  0  0  0  0
    2.0583   -1.6641   -1.0940 H   0  0  0  0  0  0  0  0  0  0  0  0
    2.1997   -0.7440   -2.6067 H   0  0  0  0  0  0  0  0  0  0  0  0
    2.7716   -0.0439   -1.0523 H   0  0  0  0  0  0  0  0  0  0  0  0
    6.9591   -3.4257   -2.3225 H   0  0  0  0  0  0  0  0  0  0  0  0
    6.2578   -4.2110    1.0844 H   0  0  0  0  0  0  0  0  0  0  0  0
    9.4997   -7.5358   -2.7713 H   0  0  0  0  0  0  0  0  0  0  0  0
   11.2988   -3.9661   -1.8679 H   0  0  0  0  0  0  0  0  0  0  0  0
    4.8345   -6.4555    1.1465 H   0  0  0  0  0  0  0  0  0  0  0  0
    2.4900   -6.9358    0.8954 H   0  0  0  0  0  0  0  0  0  0  0  0
    0.2970   -6.5461    0.9507 H   0  0  0  0  0  0  0  0  0  0  0  0
    0.6832   -8.0389    0.0684 H   0  0  0  0  0  0  0  0  0  0  0  0
   -0.9018   -7.2870   -0.1062 H   0  0  0  0  0  0  0  0  0  0  0  0
    0.0545   -4.3059   -0.3697 H   0  0  0  0  0  0  0  0  0  0  0  0
   -1.1708   -5.1221   -1.3573 H   0  0  0  0  0  0  0  0  0  0  0  0
    0.1898   -4.3200   -2.1352 H   0  0  0  0  0  0  0  0  0  0  0  0
    0.8846   -8.0331   -2.4503 H   0  0  0  0  0  0  0  0  0  0  0  0
    0.7239   -6.5301   -3.3751 H   0  0  0  0  0  0  0  0  0  0  0  0
   -0.6717   -7.2196   -2.5641 H   0  0  0  0  0  0  0  0  0  0  0  0
    2.4057   -4.7357   -2.8202 H   0  0  0  0  0  0  0  0  0  0  0  0
    4.7887   -4.3936   -2.6342 H   0  0  0  0  0  0  0  0  0  0  0  0
    8.7382   -6.2559    0.7379 H   0  0  0  0  0  0  0  0  0  0  0  0
   10.9646   -6.0693    1.7874 H   0  0  0  0  0  0  0  0  0  0  0  0
   11.7410   -3.8394    2.5968 H   0  0  0  0  0  0  0  0  0  0  0  0
    8.3876   -1.9682    1.1954 H   0  0  0  0  0  0  0  0  0  0  0  0
    7.9070   -0.4968   -1.3062 H   0  0  0  0  0  0  0  0  0  0  0  0
    7.2414    0.5722   -2.5403 H   0  0  0  0  0  0  0  0  0  0  0  0
    9.1612   -1.7340   -2.8976 H   0  0  0  0  0  0  0  0  0  0  0  0
    9.1959   -0.1345   -3.6419 H   0  0  0  0  0  0  0  0  0  0  0  0
    8.1422   -2.4930   -4.8046 H   0  0  0  0  0  0  0  0  0  0  0  0
    7.8278   -0.8595   -5.3839 H   0  0  0  0  0  0  0  0  0  0  0  0
    5.8394   -2.5604   -4.3585 H   0  0  0  0  0  0  0  0  0  0  0  0
    5.7304   -0.8162   -4.5564 H   0  0  0  0  0  0  0  0  0  0  0  0
  1  2  1  0  0  0  0
  1 38  1  0  0  0  0
  1 39  1  0  0  0  0
  1 40  1  0  0  0  0
  2  3  1  0  0  0  0
  3  4  2  0  0  0  0
  3  5  1  0  0  0  0
  5  6  1  0  0  0  0
  5 34  1  0  0  0  0
  5 37  1  0  0  0  0
  6  7  1  0  0  0  0
  6 41  1  0  0  0  0
  7  8  2  0  0  0  0
  7  9  1  0  0  0  0
  9 10  1  0  0  0  0
  9 28  1  0  0  0  0
  9 42  1  0  0  0  0
 10 11  1  0  0  0  0
 10 18  1  0  0  0  0
 11 12  2  0  0  0  0
 11 13  1  0  0  0  0
 13 14  2  0  0  0  0
 13 17  1  0  0  0  0
 14 15  1  0  0  0  0
 14 43  1  0  0  0  0
 15 16  1  0  0  0  0
 16 17  2  0  0  0  0
 16 44  1  0  0  0  0
 18 19  1  0  0  0  0
 18 27  2  0  0  0  0
 19 20  2  0  0  0  0
 19 45  1  0  0  0  0
 20 21  1  0  0  0  0
 20 46  1  0  0  0  0
 21 22  1  0  0  0  0
 21 26  2  0  0  0  0
 22 23  1  0  0  0  0
 22 24  1  0  0  0  0
 22 25  1  0  0  0  0
 23 47  1  0  0  0  0
 23 48  1  0  0  0  0
 23 49  1  0  0  0  0
 24 50  1  0  0  0  0
 24 51  1  0  0  0  0
 24 52  1  0  0  0  0
 25 53  1  0  0  0  0
 25 54  1  0  0  0  0
 25 55  1  0  0  0  0
 26 27  1  0  0  0  0
 26 56  1  0  0  0  0
 27 57  1  0  0  0  0
 28 29  1  0  0  0  0
 28 33  2  0  0  0  0
 29 30  2  0  0  0  0
 29 58  1  0  0  0  0
 30 31  1  0  0  0  0
 30 59  1  0  0  0  0
 31 32  2  0  0  0  0
 31 60  1  0  0  0  0
 32 33  1  0  0  0  0
 33 61  1  0  0  0  0
 34 35  1  0  0  0  0
 34 62  1  0  0  0  0
 34 63  1  0  0  0  0
 35 36  1  0  0  0  0
 35 64  1  0  0  0  0
 35 65  1  0  0  0  0
 36 37  1  0  0  0  0
 36 66  1  0  0  0  0
 36 67  1  0  0  0  0
 37 68  1  0  0  0  0
 37 69  1  0  0  0  0
M  END
$$$$
