
 OpenBabel07202414133D

 49 52  0  0  1  0  0  0  0  0999 V2000
    1.0663   -0.8087    0.3842 C   0  0  0  0  0  0  0  0  0  0  0  0
    2.5819   -0.7457    0.3059 C   0  0  0  0  0  0  0  0  0  0  0  0
    3.1613   -1.2343   -1.3309 S   0  0  0  0  0  0  0  0  0  0  0  0
    2.7631   -2.5953   -1.5866 O   0  0  0  0  0  0  0  0  0  0  0  0
    2.8231   -0.1702   -2.2511 O   0  0  0  0  0  0  0  0  0  0  0  0
    4.8584   -1.2287   -1.2051 N   0  0  0  0  0  0  0  0  0  0  0  0
    5.5048   -2.3981   -0.5442 C   0  0  0  0  0  0  0  0  0  0  0  0
    7.0011   -2.4631   -0.8920 C   0  0  3  0  0  0  0  0  0  0  0  0
    7.3064   -3.0235   -2.2925 C   0  0  0  0  0  0  0  0  0  0  0  0
    8.3442   -3.6609   -2.4725 O   0  0  0  0  0  0  0  0  0  0  0  0
    6.3984   -2.6905   -3.2819 N   0  0  0  0  0  0  0  0  0  0  0  0
    6.5104   -2.9750   -4.6722 C   0  0  0  0  0  0  0  0  0  0  0  0
    7.4636   -3.8589   -5.1851 C   0  0  0  0  0  0  0  0  0  0  0  0
    7.7337   -4.0248   -6.5014 N   0  0  0  0  0  0  0  0  0  0  0  0
    6.9872   -3.3033   -7.3605 C   0  0  0  0  0  0  0  0  0  0  0  0
    5.9204   -2.4893   -6.9868 C   0  0  0  0  0  0  0  0  0  0  0  0
    5.1162   -1.8635   -7.9626 C   0  0  0  0  0  0  0  0  0  0  0  0
    4.0357   -1.0723   -7.5901 C   0  0  0  0  0  0  0  0  0  0  0  0
    3.7592   -0.8797   -6.2428 C   0  0  0  0  0  0  0  0  0  0  0  0
    4.5585   -1.4881   -5.2707 C   0  0  0  0  0  0  0  0  0  0  0  0
    5.6579   -2.3175   -5.6084 C   0  0  0  0  0  0  0  0  0  0  0  0
    7.6939   -1.1354   -0.6426 C   0  0  0  0  0  0  0  0  0  0  0  0
    9.0741   -1.0955   -0.3713 C   0  0  0  0  0  0  0  0  0  0  0  0
    9.7084    0.1206   -0.1138 C   0  0  0  0  0  0  0  0  0  0  0  0
   11.3843    0.1505    0.2735 Cl  0  0  0  0  0  0  0  0  0  0  0  0
    8.9892    1.3104   -0.1462 C   0  0  0  0  0  0  0  0  0  0  0  0
    7.6222    1.2825   -0.4215 C   0  0  0  0  0  0  0  0  0  0  0  0
    6.9622    0.0642   -0.6625 C   0  0  0  0  0  0  0  0  0  0  0  0
    5.4630    0.0811   -0.8545 C   0  0  0  0  0  0  0  0  0  0  0  0
    0.7178   -0.4438    1.3557 H   0  0  0  0  0  0  0  0  0  0  0  0
    0.7077   -1.8343    0.2560 H   0  0  0  0  0  0  0  0  0  0  0  0
    0.6029   -0.1931   -0.3944 H   0  0  0  0  0  0  0  0  0  0  0  0
    3.0332   -1.4108    1.0464 H   0  0  0  0  0  0  0  0  0  0  0  0
    2.9040    0.2833    0.4828 H   0  0  0  0  0  0  0  0  0  0  0  0
    5.0304   -3.3293   -0.8701 H   0  0  0  0  0  0  0  0  0  0  0  0
    5.3746   -2.3113    0.5411 H   0  0  0  0  0  0  0  0  0  0  0  0
    7.4288   -3.1996   -0.1960 H   0  0  0  0  0  0  0  0  0  0  0  0
    5.6705   -2.0388   -3.0089 H   0  0  0  0  0  0  0  0  0  0  0  0
    8.0639   -4.4979   -4.5460 H   0  0  0  0  0  0  0  0  0  0  0  0
    7.2819   -3.4091   -8.4021 H   0  0  0  0  0  0  0  0  0  0  0  0
    5.3219   -2.0103   -9.0203 H   0  0  0  0  0  0  0  0  0  0  0  0
    3.4062   -0.6144   -8.3479 H   0  0  0  0  0  0  0  0  0  0  0  0
    2.9153   -0.2648   -5.9397 H   0  0  0  0  0  0  0  0  0  0  0  0
    4.2773   -1.3166   -4.2374 H   0  0  0  0  0  0  0  0  0  0  0  0
    9.6543   -2.0170   -0.3498 H   0  0  0  0  0  0  0  0  0  0  0  0
    9.4827    2.2587    0.0519 H   0  0  0  0  0  0  0  0  0  0  0  0
    7.0693    2.2205   -0.4316 H   0  0  0  0  0  0  0  0  0  0  0  0
    5.2268    0.7990   -1.6482 H   0  0  0  0  0  0  0  0  0  0  0  0
    5.0370    0.4361    0.0895 H   0  0  0  0  0  0  0  0  0  0  0  0
  1  2  1  0  0  0  0
  1 30  1  0  0  0  0
  1 31  1  0  0  0  0
  1 32  1  0  0  0  0
  2  3  1  0  0  0  0
  2 33  1  0  0  0  0
  2 34  1  0  0  0  0
  3  4  2  0  0  0  0
  3  5  2  0  0  0  0
  3  6  1  0  0  0  0
  6  7  1  0  0  0  0
  6 29  1  0  0  0  0
  7  8  1  0  0  0  0
  7 35  1  0  0  0  0
  7 36  1  0  0  0  0
  8  9  1  0  0  0  0
  8 22  1  0  0  0  0
  8 37  1  0  0  0  0
  9 10  2  0  0  0  0
  9 11  1  0  0  0  0
 11 12  1  0  0  0  0
 11 38  1  0  0  0  0
 12 13  1  0  0  0  0
 12 21  2  0  0  0  0
 13 14  2  0  0  0  0
 13 39  1  0  0  0  0
 14 15  1  0  0  0  0
 15 16  2  0  0  0  0
 15 40  1  0  0  0  0
 16 17  1  0  0  0  0
 16 21  1  0  0  0  0
 17 18  2  0  0  0  0
 17 41  1  0  0  0  0
 18 19  1  0  0  0  0
 18 42  1  0  0  0  0
 19 20  2  0  0  0  0
 19 43  1  0  0  0  0
 20 21  1  0  0  0  0
 20 44  1  0  0  0  0
 22 23  1  0  0  0  0
 22 28  2  0  0  0  0
 23 24  2  0  0  0  0
 23 45  1  0  0  0  0
 24 25  1  0  0  0  0
 24 26  1  0  0  0  0
 26 27  2  0  0  0  0
 26 46  1  0  0  0  0
 27 28  1  0  0  0  0
 27 47  1  0  0  0  0
 28 29  1  0  0  0  0
 29 48  1  0  0  0  0
 29 49  1  0  0  0  0
M  END
$$$$
