
 OpenBabel07202414183D

 50 53  0  0  0  0  0  0  0  0999 V2000
    0.5298   -0.6254    0.1169 F   0  0  0  0  0  0  0  0  0  0  0  0
    0.9466    0.6212    0.4345 C   0  0  0  0  0  0  0  0  0  0  0  0
    0.2086    1.4933   -0.2845 F   0  0  0  0  0  0  0  0  0  0  0  0
    0.7130    0.8469    1.7455 F   0  0  0  0  0  0  0  0  0  0  0  0
    2.3232    0.8373    0.1393 O   0  0  0  0  0  0  0  0  0  0  0  0
    3.1792   -0.2250    0.3054 C   0  0  0  0  0  0  0  0  0  0  0  0
    4.4113   -0.1513   -0.3984 C   0  0  0  0  0  0  0  0  0  0  0  0
    4.6652    0.9604   -1.2483 N   0  0  0  0  0  0  0  0  0  0  0  0
    5.4985    1.2041   -2.3635 C   0  0  0  0  0  0  0  0  0  0  0  0
    6.5026    0.3370   -2.8002 C   0  0  0  0  0  0  0  0  0  0  0  0
    7.2885    0.5582   -3.9422 C   0  0  0  0  0  0  0  0  0  0  0  0
    8.3297   -0.4711   -4.3061 C   0  0  0  0  0  0  0  0  0  0  0  0
    9.7502    0.0423   -4.3774 C   0  0  0  0  0  0  0  0  0  0  0  0
   10.5046   -0.3454   -5.2679 O   0  0  0  0  0  0  0  0  0  0  0  0
   10.1374    0.8477   -3.3227 N   0  0  0  0  0  0  0  0  0  0  0  0
   11.4194    1.4465   -3.2545 C   0  0  0  0  0  0  0  0  0  0  0  0
   12.0269    1.9533   -4.4050 C   0  0  0  0  0  0  0  0  0  0  0  0
   13.2274    2.5725   -4.4305 N   0  0  0  0  0  0  0  0  0  0  0  0
   13.8784    2.6496   -3.2523 C   0  0  0  0  0  0  0  0  0  0  0  0
   13.3889    2.1632   -2.0393 C   0  0  0  0  0  0  0  0  0  0  0  0
   14.1497    2.2431   -0.8592 C   0  0  0  0  0  0  0  0  0  0  0  0
   13.6678    1.7173    0.3327 C   0  0  0  0  0  0  0  0  0  0  0  0
   12.4149    1.1150    0.3705 C   0  0  0  0  0  0  0  0  0  0  0  0
   11.6431    1.0411   -0.7925 C   0  0  0  0  0  0  0  0  0  0  0  0
   12.1092    1.5577   -2.0243 C   0  0  0  0  0  0  0  0  0  0  0  0
    7.0371    1.6856   -4.7193 C   0  0  0  0  0  0  0  0  0  0  0  0
    6.0237    2.5568   -4.3337 C   0  0  0  0  0  0  0  0  0  0  0  0
    5.6744    3.9238   -5.3256 Cl  0  0  0  0  0  0  0  0  0  0  0  0
    5.2665    2.3282   -3.1734 C   0  0  0  0  0  0  0  0  0  0  0  0
    5.2608   -1.2583   -0.2940 C   0  0  0  0  0  0  0  0  0  0  0  0
    4.9028   -2.4100    0.4032 C   0  0  0  0  0  0  0  0  0  0  0  0
    5.9438   -3.7801    0.3614 Cl  0  0  0  0  0  0  0  0  0  0  0  0
    3.7218   -2.4525    1.1182 C   0  0  0  0  0  0  0  0  0  0  0  0
    2.8820   -1.3408    1.1078 C   0  0  0  0  0  0  0  0  0  0  0  0
    4.1061    1.7679   -0.9742 H   0  0  0  0  0  0  0  0  0  0  0  0
    6.7208   -0.5739   -2.2807 H   0  0  0  0  0  0  0  0  0  0  0  0
    8.0636   -0.9046   -5.2763 H   0  0  0  0  0  0  0  0  0  0  0  0
    8.3305   -1.2986   -3.5842 H   0  0  0  0  0  0  0  0  0  0  0  0
    9.5798    0.8224   -2.4793 H   0  0  0  0  0  0  0  0  0  0  0  0
   11.5324    1.9064   -5.3720 H   0  0  0  0  0  0  0  0  0  0  0  0
   14.8547    3.1243   -3.3168 H   0  0  0  0  0  0  0  0  0  0  0  0
   15.1389    2.6991   -0.8733 H   0  0  0  0  0  0  0  0  0  0  0  0
   14.2758    1.7593    1.2348 H   0  0  0  0  0  0  0  0  0  0  0  0
   12.0463    0.6833    1.2953 H   0  0  0  0  0  0  0  0  0  0  0  0
   10.6837    0.5356   -0.7198 H   0  0  0  0  0  0  0  0  0  0  0  0
    7.6097    1.8688   -5.6268 H   0  0  0  0  0  0  0  0  0  0  0  0
    4.4665    3.0222   -2.9279 H   0  0  0  0  0  0  0  0  0  0  0  0
    6.2485   -1.2660   -0.7156 H   0  0  0  0  0  0  0  0  0  0  0  0
    3.4505   -3.3409    1.6806 H   0  0  0  0  0  0  0  0  0  0  0  0
    1.9824   -1.3957    1.7150 H   0  0  0  0  0  0  0  0  0  0  0  0
  1  2  1  0  0  0  0
  2  3  1  0  0  0  0
  2  4  1  0  0  0  0
  2  5  1  0  0  0  0
  5  6  1  0  0  0  0
  6  7  2  0  0  0  0
  6 34  1  0  0  0  0
  7  8  1  0  0  0  0
  7 30  1  0  0  0  0
  8  9  1  0  0  0  0
  8 35  1  0  0  0  0
  9 10  2  0  0  0  0
  9 29  1  0  0  0  0
 10 11  1  0  0  0  0
 10 36  1  0  0  0  0
 11 12  1  0  0  0  0
 11 26  2  0  0  0  0
 12 13  1  0  0  0  0
 12 37  1  0  0  0  0
 12 38  1  0  0  0  0
 13 14  2  0  0  0  0
 13 15  1  0  0  0  0
 15 16  1  0  0  0  0
 15 39  1  0  0  0  0
 16 17  2  0  0  0  0
 16 25  1  0  0  0  0
 17 18  1  0  0  0  0
 17 40  1  0  0  0  0
 18 19  2  0  0  0  0
 19 20  1  0  0  0  0
 19 41  1  0  0  0  0
 20 21  2  0  0  0  0
 20 25  1  0  0  0  0
 21 22  1  0  0  0  0
 21 42  1  0  0  0  0
 22 23  2  0  0  0  0
 22 43  1  0  0  0  0
 23 24  1  0  0  0  0
 23 44  1  0  0  0  0
 24 25  2  0  0  0  0
 24 45  1  0  0  0  0
 26 27  1  0  0  0  0
 26 46  1  0  0  0  0
 27 28  1  0  0  0  0
 27 29  2  0  0  0  0
 29 47  1  0  0  0  0
 30 31  2  0  0  0  0
 30 48  1  0  0  0  0
 31 32  1  0  0  0  0
 31 33  1  0  0  0  0
 33 34  2  0  0  0  0
 33 49  1  0  0  0  0
 34 50  1  0  0  0  0
M  END
$$$$
