
 OpenBabel07202414123D

 67 70  0  0  1  0  0  0  0  0999 V2000
    1.5132   -0.1520   -1.4138 C   0  0  0  0  0  0  0  0  0  0  0  0
    2.3307    0.0201   -0.1111 C   0  0  0  0  0  0  0  0  0  0  0  0
    1.5134   -0.6230    1.0291 C   0  0  0  0  0  0  0  0  0  0  0  0
    3.6378   -0.7811   -0.2889 C   0  0  0  0  0  0  0  0  0  0  0  0
    2.6607    1.4896    0.2034 C   0  0  0  0  0  0  0  0  0  0  0  0
    2.3415    2.5325   -0.6702 C   0  0  0  0  0  0  0  0  0  0  0  0
    2.7478    3.8610   -0.4370 C   0  0  0  0  0  0  0  0  0  0  0  0
    3.4855    4.2369    0.6886 C   0  0  0  0  0  0  0  0  0  0  0  0
    4.0468    5.5924    0.8593 N   0  0  0  0  0  0  0  0  0  0  0  0
    5.1668    5.7369    1.8441 C   0  0  1  0  0  0  0  0  0  0  0  0
    6.5496    6.0715    1.1736 C   0  0  0  0  0  0  0  0  0  0  0  0
    6.7755    7.0385    0.4524 O   0  0  0  0  0  0  0  0  0  0  0  0
    7.5690    5.1557    1.4123 N   0  0  0  0  0  0  0  0  0  0  0  0
    8.9097    5.3761    0.8791 C   0  0  0  0  0  0  0  0  0  0  0  0
    9.7161    6.3201    1.7763 C   0  0  0  0  0  0  0  0  0  0  0  0
   11.1233    6.5708    1.2893 C   0  0  0  0  0  0  0  0  0  0  0  0
   11.4097    7.6810    0.4788 C   0  0  0  0  0  0  0  0  0  0  0  0
   12.7226    7.9545    0.0804 C   0  0  0  0  0  0  0  0  0  0  0  0
   13.7605    7.1147    0.4795 C   0  0  0  0  0  0  0  0  0  0  0  0
   13.4740    6.0022    1.2606 C   0  0  0  0  0  0  0  0  0  0  0  0
   14.4704    5.1925    1.6441 F   0  0  0  0  0  0  0  0  0  0  0  0
   12.1709    5.7207    1.6643 C   0  0  0  0  0  0  0  0  0  0  0  0
    4.8193    6.4619    3.1468 C   0  0  0  0  0  0  0  0  0  0  0  0
    3.5397    6.9720    3.4322 C   0  0  0  0  0  0  0  0  0  0  0  0
    3.2732    7.5834    4.6547 C   0  0  0  0  0  0  0  0  0  0  0  0
    4.2833    7.6197    5.5967 C   0  0  0  0  0  0  0  0  0  0  0  0
    5.5211    7.1268    5.3815 N   0  0  0  0  0  0  0  0  0  0  0  0
    5.7612    6.5806    4.1644 C   0  0  0  0  0  0  0  0  0  0  0  0
    3.5991    6.6992    0.0548 C   0  0  0  0  0  0  0  0  0  0  0  0
    2.6879    6.5890   -0.7681 O   0  0  0  0  0  0  0  0  0  0  0  0
    4.2129    8.0239    0.1727 C   0  0  0  0  0  0  0  0  0  0  0  0
    4.3858    9.0218   -0.7734 C   0  0  0  0  0  0  0  0  0  0  0  0
    5.0795   10.0860   -0.1348 C   0  0  0  0  0  0  0  0  0  0  0  0
    5.2245    9.7078    1.1742 C   0  0  0  0  0  0  0  0  0  0  0  0
    4.6677    8.4926    1.3693 O   0  0  0  0  0  0  0  0  0  0  0  0
    3.6927    3.2041    1.6258 C   0  0  0  0  0  0  0  0  0  0  0  0
    3.3205    1.8608    1.3789 C   0  0  0  0  0  0  0  0  0  0  0  0
    1.2738   -1.2054   -1.5995 H   0  0  0  0  0  0  0  0  0  0  0  0
    2.0696    0.2070   -2.2888 H   0  0  0  0  0  0  0  0  0  0  0  0
    0.5629    0.3931   -1.3649 H   0  0  0  0  0  0  0  0  0  0  0  0
    1.2244   -1.6506    0.7737 H   0  0  0  0  0  0  0  0  0  0  0  0
    0.5954   -0.0586    1.2273 H   0  0  0  0  0  0  0  0  0  0  0  0
    2.0809   -0.6779    1.9646 H   0  0  0  0  0  0  0  0  0  0  0  0
    3.4331   -1.8217   -0.5602 H   0  0  0  0  0  0  0  0  0  0  0  0
    4.2396   -0.7989    0.6287 H   0  0  0  0  0  0  0  0  0  0  0  0
    4.2651   -0.3504   -1.0816 H   0  0  0  0  0  0  0  0  0  0  0  0
    1.7827    2.3538   -1.5849 H   0  0  0  0  0  0  0  0  0  0  0  0
    2.4777    4.5562   -1.2223 H   0  0  0  0  0  0  0  0  0  0  0  0
    5.3803    4.7397    2.2260 H   0  0  0  0  0  0  0  0  0  0  0  0
    7.3440    4.2281    1.7530 H   0  0  0  0  0  0  0  0  0  0  0  0
    8.8293    5.7835   -0.1374 H   0  0  0  0  0  0  0  0  0  0  0  0
    9.3950    4.3980    0.8028 H   0  0  0  0  0  0  0  0  0  0  0  0
    9.7586    5.9091    2.7949 H   0  0  0  0  0  0  0  0  0  0  0  0
    9.1941    7.2803    1.8804 H   0  0  0  0  0  0  0  0  0  0  0  0
   10.6112    8.3534    0.1674 H   0  0  0  0  0  0  0  0  0  0  0  0
   12.9351    8.8290   -0.5294 H   0  0  0  0  0  0  0  0  0  0  0  0
   14.7864    7.3222    0.1922 H   0  0  0  0  0  0  0  0  0  0  0  0
   11.9939    4.8495    2.2873 H   0  0  0  0  0  0  0  0  0  0  0  0
    2.7420    6.9454    2.6935 H   0  0  0  0  0  0  0  0  0  0  0  0
    2.3020    8.0211    4.8595 H   0  0  0  0  0  0  0  0  0  0  0  0
    4.1122    8.0502    6.5792 H   0  0  0  0  0  0  0  0  0  0  0  0
    6.7798    6.2150    4.0479 H   0  0  0  0  0  0  0  0  0  0  0  0
    4.0984    8.9548   -1.8132 H   0  0  0  0  0  0  0  0  0  0  0  0
    5.4386   11.0032   -0.5748 H   0  0  0  0  0  0  0  0  0  0  0  0
    5.6944   10.1484    2.0448 H   0  0  0  0  0  0  0  0  0  0  0  0
    4.1290    3.3789    2.6030 H   0  0  0  0  0  0  0  0  0  0  0  0
    3.5671    1.1136    2.1318 H   0  0  0  0  0  0  0  0  0  0  0  0
  1  2  1  0  0  0  0
  1 38  1  0  0  0  0
  1 39  1  0  0  0  0
  1 40  1  0  0  0  0
  2  3  1  0  0  0  0
  2  4  1  0  0  0  0
  2  5  1  0  0  0  0
  3 41  1  0  0  0  0
  3 42  1  0  0  0  0
  3 43  1  0  0  0  0
  4 44  1  0  0  0  0
  4 45  1  0  0  0  0
  4 46  1  0  0  0  0
  5  6  1  0  0  0  0
  5 37  2  0  0  0  0
  6  7  2  0  0  0  0
  6 47  1  0  0  0  0
  7  8  1  0  0  0  0
  7 48  1  0  0  0  0
  8  9  1  0  0  0  0
  8 36  2  0  0  0  0
  9 10  1  0  0  0  0
  9 29  1  0  0  0  0
 10 11  1  0  0  0  0
 10 23  1  0  0  0  0
 10 49  1  1  0  0  0
 11 12  2  0  0  0  0
 11 13  1  0  0  0  0
 13 14  1  0  0  0  0
 13 50  1  0  0  0  0
 14 15  1  0  0  0  0
 14 51  1  0  0  0  0
 14 52  1  0  0  0  0
 15 16  1  0  0  0  0
 15 53  1  0  0  0  0
 15 54  1  0  0  0  0
 16 17  1  0  0  0  0
 16 22  2  0  0  0  0
 17 18  2  0  0  0  0
 17 55  1  0  0  0  0
 18 19  1  0  0  0  0
 18 56  1  0  0  0  0
 19 20  2  0  0  0  0
 19 57  1  0  0  0  0
 20 21  1  0  0  0  0
 20 22  1  0  0  0  0
 22 58  1  0  0  0  0
 23 24  1  0  0  0  0
 23 28  2  0  0  0  0
 24 25  2  0  0  0  0
 24 59  1  0  0  0  0
 25 26  1  0  0  0  0
 25 60  1  0  0  0  0
 26 27  2  0  0  0  0
 26 61  1  0  0  0  0
 27 28  1  0  0  0  0
 28 62  1  0  0  0  0
 29 30  2  0  0  0  0
 29 31  1  0  0  0  0
 31 32  2  0  0  0  0
 31 35  1  0  0  0  0
 32 33  1  0  0  0  0
 32 63  1  0  0  0  0
 33 34  2  0  0  0  0
 33 64  1  0  0  0  0
 34 35  1  0  0  0  0
 34 65  1  0  0  0  0
 36 37  1  0  0  0  0
 36 66  1  0  0  0  0
 37 67  1  0  0  0  0
M  END
$$$$
