
 OpenBabel07202414123D

 52 54  0  0  0  0  0  0  0  0999 V2000
    0.8288    0.8479    2.3174 C   0  0  0  0  0  0  0  0  0  0  0  0
    2.3484    0.8655    2.5129 C   0  0  0  0  0  0  0  0  0  0  0  0
    2.7551   -0.3070    3.4090 C   0  0  0  0  0  0  0  0  0  0  0  0
    3.0383    0.8420    1.1371 C   0  0  0  0  0  0  0  0  0  0  0  0
    4.5039    0.8413    1.1894 N   0  0  0  0  0  0  0  0  0  0  0  0
    5.1453   -0.3797    1.1959 C   0  0  0  0  0  0  0  0  0  0  0  0
    6.4720   -0.5698    1.1317 C   0  0  0  0  0  0  0  0  0  0  0  0
    7.3084    0.6626    1.0448 C   0  0  0  0  0  0  0  0  0  0  0  0
    8.7054    0.6498    0.8933 C   0  0  0  0  0  0  0  0  0  0  0  0
    9.4396    1.8429    0.7969 C   0  0  0  0  0  0  0  0  0  0  0  0
    8.7990    3.0779    0.8656 C   0  0  0  0  0  0  0  0  0  0  0  0
    7.4211    3.1221    1.0206 C   0  0  0  0  0  0  0  0  0  0  0  0
    6.6810    1.9306    1.0986 C   0  0  0  0  0  0  0  0  0  0  0  0
    5.1989    2.0418    1.1864 C   0  0  0  0  0  0  0  0  0  0  0  0
    4.6601    3.1418    1.2170 O   0  0  0  0  0  0  0  0  0  0  0  0
    7.0381   -1.8515    1.1359 N   0  0  0  0  0  0  0  0  0  0  0  0
    6.3429   -3.0427    1.2688 C   0  0  0  0  0  0  0  0  0  0  0  0
    5.1298   -3.1571    1.4059 O   0  0  0  0  0  0  0  0  0  0  0  0
    7.1431   -4.1749    1.2651 N   0  0  0  0  0  0  0  0  0  0  0  0
    6.4097   -5.4403    1.3485 C   0  0  0  0  0  0  0  0  0  0  0  0
    7.2630   -6.7081    1.3531 C   0  0  0  0  0  0  0  0  0  0  0  0
    6.3979   -7.9549    1.4368 C   0  0  0  0  0  0  0  0  0  0  0  0
    5.9191   -8.5620    0.2663 C   0  0  0  0  0  0  0  0  0  0  0  0
    5.0881   -9.6838    0.3272 C   0  0  0  0  0  0  0  0  0  0  0  0
    4.7230  -10.2072    1.5638 C   0  0  0  0  0  0  0  0  0  0  0  0
    5.1876   -9.6212    2.7388 C   0  0  0  0  0  0  0  0  0  0  0  0
    6.0212   -8.4962    2.6759 C   0  0  0  0  0  0  0  0  0  0  0  0
    3.6814  -11.5774    1.6393 Cl  0  0  0  0  0  0  0  0  0  0  0  0
    0.3108    0.9121    3.2799 H   0  0  0  0  0  0  0  0  0  0  0  0
    0.5026   -0.0743    1.8219 H   0  0  0  0  0  0  0  0  0  0  0  0
    0.5022    1.6932    1.7031 H   0  0  0  0  0  0  0  0  0  0  0  0
    2.6212    1.7950    3.0270 H   0  0  0  0  0  0  0  0  0  0  0  0
    2.5239   -1.2687    2.9373 H   0  0  0  0  0  0  0  0  0  0  0  0
    2.2268   -0.2659    4.3670 H   0  0  0  0  0  0  0  0  0  0  0  0
    3.8252   -0.2832    3.6350 H   0  0  0  0  0  0  0  0  0  0  0  0
    2.7214    1.7185    0.5590 H   0  0  0  0  0  0  0  0  0  0  0  0
    2.7105   -0.0327    0.5585 H   0  0  0  0  0  0  0  0  0  0  0  0
    4.4506   -1.2039    1.2615 H   0  0  0  0  0  0  0  0  0  0  0  0
    9.2615   -0.2807    0.8317 H   0  0  0  0  0  0  0  0  0  0  0  0
   10.5182    1.8086    0.6575 H   0  0  0  0  0  0  0  0  0  0  0  0
    9.3677    4.0006    0.7834 H   0  0  0  0  0  0  0  0  0  0  0  0
    6.9142    4.0859    1.0685 H   0  0  0  0  0  0  0  0  0  0  0  0
    8.0406   -1.9244    1.0968 H   0  0  0  0  0  0  0  0  0  0  0  0
    7.9725   -4.1429    0.6914 H   0  0  0  0  0  0  0  0  0  0  0  0
    5.7081   -5.4682    0.5042 H   0  0  0  0  0  0  0  0  0  0  0  0
    5.8042   -5.4023    2.2640 H   0  0  0  0  0  0  0  0  0  0  0  0
    7.9726   -6.6897    2.1869 H   0  0  0  0  0  0  0  0  0  0  0  0
    7.8659   -6.7501    0.4386 H   0  0  0  0  0  0  0  0  0  0  0  0
    6.1866   -8.1554   -0.7117 H   0  0  0  0  0  0  0  0  0  0  0  0
    4.7249  -10.1391   -0.5901 H   0  0  0  0  0  0  0  0  0  0  0  0
    4.9010  -10.0292    3.7051 H   0  0  0  0  0  0  0  0  0  0  0  0
    6.3632   -8.0459    3.6058 H   0  0  0  0  0  0  0  0  0  0  0  0
  1  2  1  0  0  0  0
  1 29  1  0  0  0  0
  1 30  1  0  0  0  0
  1 31  1  0  0  0  0
  2  3  1  0  0  0  0
  2  4  1  0  0  0  0
  2 32  1  0  0  0  0
  3 33  1  0  0  0  0
  3 34  1  0  0  0  0
  3 35  1  0  0  0  0
  4  5  1  0  0  0  0
  4 36  1  0  0  0  0
  4 37  1  0  0  0  0
  5  6  1  0  0  0  0
  5 14  1  0  0  0  0
  6  7  2  0  0  0  0
  6 38  1  0  0  0  0
  7  8  1  0  0  0  0
  7 16  1  0  0  0  0
  8  9  1  0  0  0  0
  8 13  2  0  0  0  0
  9 10  2  0  0  0  0
  9 39  1  0  0  0  0
 10 11  1  0  0  0  0
 10 40  1  0  0  0  0
 11 12  2  0  0  0  0
 11 41  1  0  0  0  0
 12 13  1  0  0  0  0
 12 42  1  0  0  0  0
 13 14  1  0  0  0  0
 14 15  2  0  0  0  0
 16 17  1  0  0  0  0
 16 43  1  0  0  0  0
 17 18  2  0  0  0  0
 17 19  1  0  0  0  0
 19 20  1  0  0  0  0
 19 44  1  0  0  0  0
 20 21  1  0  0  0  0
 20 45  1  0  0  0  0
 20 46  1  0  0  0  0
 21 22  1  0  0  0  0
 21 47  1  0  0  0  0
 21 48  1  0  0  0  0
 22 23  1  0  0  0  0
 22 27  2  0  0  0  0
 23 24  2  0  0  0  0
 23 49  1  0  0  0  0
 24 25  1  0  0  0  0
 24 50  1  0  0  0  0
 25 26  2  0  0  0  0
 25 28  1  0  0  0  0
 26 27  1  0  0  0  0
 26 51  1  0  0  0  0
 27 52  1  0  0  0  0
M  END
$$$$
