
 OpenBabel07202414143D

 71 76  0  0  1  0  0  0  0  0999 V2000
   11.8034   -7.7294    7.3056 C   0  0  0  0  0  0  0  0  0  0  0  0
   11.3841   -6.5360    6.6471 O   0  0  0  0  0  0  0  0  0  0  0  0
   10.5433   -6.7319    5.5991 C   0  0  0  0  0  0  0  0  0  0  0  0
   10.1358   -7.8066    5.1939 O   0  0  0  0  0  0  0  0  0  0  0  0
   10.1460   -5.4321    5.0023 C   0  0  0  0  0  0  0  0  0  0  0  0
    9.2308   -5.4202    3.9637 C   0  0  0  0  0  0  0  0  0  0  0  0
    8.7945   -4.2699    3.3805 N   0  0  0  0  0  0  0  0  0  0  0  0
    9.3218   -3.1133    3.8751 C   0  0  0  0  0  0  0  0  0  0  0  0
    8.8502   -1.8181    3.2791 C   0  0  0  0  0  0  0  0  0  0  0  0
    9.9487   -1.0542    2.7104 N   0  0  0  0  0  0  0  0  0  0  0  0
   10.7682   -1.4399    1.6891 C   0  0  0  0  0  0  0  0  0  0  0  0
   11.6342   -0.3950    1.4881 C   0  0  0  0  0  0  0  0  0  0  0  0
   11.2406    0.6044    2.4161 C   0  0  0  0  0  0  0  0  0  0  0  0
   11.8091    1.9874    2.5836 C   0  0  0  0  0  0  0  0  0  0  0  0
   12.3697    2.4255    1.3011 N   0  0  0  0  0  0  0  0  0  0  0  0
   12.8978    3.7925    1.3653 C   0  0  0  0  0  0  0  0  0  0  0  0
   13.4963    4.2546   -0.0107 C   0  0  3  0  0  0  0  0  0  0  0  0
   12.3441    4.2910   -1.0599 C   0  0  0  0  0  0  0  0  0  0  0  0
   11.2030    3.9447   -0.7543 O   0  0  0  0  0  0  0  0  0  0  0  0
   12.6977    4.7296   -2.3242 N   0  0  0  0  0  0  0  0  0  0  0  0
   11.8132    5.0098   -3.4071 C   0  0  0  0  0  0  0  0  0  0  0  0
   10.4216    4.9673   -3.2846 C   0  0  0  0  0  0  0  0  0  0  0  0
    9.5490    5.4112   -4.2204 N   0  0  0  0  0  0  0  0  0  0  0  0
   10.0798    5.8521   -5.3752 C   0  0  0  0  0  0  0  0  0  0  0  0
   11.4364    5.8013   -5.6833 C   0  0  0  0  0  0  0  0  0  0  0  0
   11.8900    6.1149   -6.9759 C   0  0  0  0  0  0  0  0  0  0  0  0
   13.2390    6.0072   -7.2982 C   0  0  0  0  0  0  0  0  0  0  0  0
   14.1528    5.6437   -6.3181 C   0  0  0  0  0  0  0  0  0  0  0  0
   13.7147    5.3551   -5.0214 C   0  0  0  0  0  0  0  0  0  0  0  0
   12.3412    5.3925   -4.6725 C   0  0  0  0  0  0  0  0  0  0  0  0
   14.6113    3.2933   -0.4836 C   0  0  0  0  0  0  0  0  0  0  0  0
   15.8346    3.4366    0.4070 C   0  0  0  0  0  0  0  0  0  0  0  0
   16.3912    4.7493    0.3268 O   0  0  0  0  0  0  0  0  0  0  0  0
   15.4913    5.7776    0.4062 C   0  0  0  0  0  0  0  0  0  0  0  0
   16.0509    7.0328    0.6707 C   0  0  0  0  0  0  0  0  0  0  0  0
   15.2382    8.1598    0.7683 C   0  0  0  0  0  0  0  0  0  0  0  0
   13.8663    8.0336    0.5798 C   0  0  0  0  0  0  0  0  0  0  0  0
   12.8577    9.4220    0.6925 Cl  0  0  0  0  0  0  0  0  0  0  0  0
   13.3010    6.7869    0.3087 C   0  0  0  0  0  0  0  0  0  0  0  0
   14.1117    5.6384    0.2154 C   0  0  0  0  0  0  0  0  0  0  0  0
   10.2266    0.1774    3.1857 N   0  0  0  0  0  0  0  0  0  0  0  0
   10.2521   -3.1359    4.9141 C   0  0  0  0  0  0  0  0  0  0  0  0
   10.6816   -4.2812    5.4930 N   0  0  0  0  0  0  0  0  0  0  0  0
   12.3585   -7.4458    8.1969 H   0  0  0  0  0  0  0  0  0  0  0  0
   12.4688   -8.3056    6.6480 H   0  0  0  0  0  0  0  0  0  0  0  0
   10.9443   -8.3374    7.6074 H   0  0  0  0  0  0  0  0  0  0  0  0
    8.7981   -6.3353    3.5702 H   0  0  0  0  0  0  0  0  0  0  0  0
    8.3607   -1.2110    4.0487 H   0  0  0  0  0  0  0  0  0  0  0  0
    8.1321   -1.9906    2.4695 H   0  0  0  0  0  0  0  0  0  0  0  0
   10.6679   -2.3990    1.2015 H   0  0  0  0  0  0  0  0  0  0  0  0
   12.4236   -0.3324    0.7517 H   0  0  0  0  0  0  0  0  0  0  0  0
   12.5888    1.9621    3.3531 H   0  0  0  0  0  0  0  0  0  0  0  0
   11.0182    2.6751    2.9080 H   0  0  0  0  0  0  0  0  0  0  0  0
   11.5887    2.4392    0.6294 H   0  0  0  0  0  0  0  0  0  0  0  0
   13.6614    3.8478    2.1506 H   0  0  0  0  0  0  0  0  0  0  0  0
   12.0959    4.4794    1.6692 H   0  0  0  0  0  0  0  0  0  0  0  0
   13.6649    4.9862   -2.4624 H   0  0  0  0  0  0  0  0  0  0  0  0
    9.9184    4.5830   -2.4049 H   0  0  0  0  0  0  0  0  0  0  0  0
    9.3512    6.2428   -6.0816 H   0  0  0  0  0  0  0  0  0  0  0  0
   11.1843    6.4010   -7.7540 H   0  0  0  0  0  0  0  0  0  0  0  0
   13.5736    6.1940   -8.3153 H   0  0  0  0  0  0  0  0  0  0  0  0
   15.2085    5.5612   -6.5637 H   0  0  0  0  0  0  0  0  0  0  0  0
   14.4719    5.0506   -4.3057 H   0  0  0  0  0  0  0  0  0  0  0  0
   14.9158    3.5297   -1.5113 H   0  0  0  0  0  0  0  0  0  0  0  0
   14.2701    2.2529   -0.4980 H   0  0  0  0  0  0  0  0  0  0  0  0
   16.6124    2.7413    0.0743 H   0  0  0  0  0  0  0  0  0  0  0  0
   15.6330    3.1951    1.4561 H   0  0  0  0  0  0  0  0  0  0  0  0
   17.1223    7.1244    0.8207 H   0  0  0  0  0  0  0  0  0  0  0  0
   15.6803    9.1266    0.9929 H   0  0  0  0  0  0  0  0  0  0  0  0
   12.2217    6.7168    0.1817 H   0  0  0  0  0  0  0  0  0  0  0  0
   10.6842   -2.2192    5.3090 H   0  0  0  0  0  0  0  0  0  0  0  0
  1  2  1  0  0  0  0
  1 44  1  0  0  0  0
  1 45  1  0  0  0  0
  1 46  1  0  0  0  0
  2  3  1  0  0  0  0
  3  4  2  0  0  0  0
  3  5  1  0  0  0  0
  5  6  1  0  0  0  0
  5 43  2  0  0  0  0
  6  7  2  0  0  0  0
  6 47  1  0  0  0  0
  7  8  1  0  0  0  0
  8  9  1  0  0  0  0
  8 42  2  0  0  0  0
  9 10  1  0  0  0  0
  9 48  1  0  0  0  0
  9 49  1  0  0  0  0
 10 11  1  0  0  0  0
 10 41  1  0  0  0  0
 11 12  2  0  0  0  0
 11 50  1  0  0  0  0
 12 13  1  0  0  0  0
 12 51  1  0  0  0  0
 13 14  1  0  0  0  0
 13 41  2  0  0  0  0
 14 15  1  0  0  0  0
 14 52  1  0  0  0  0
 14 53  1  0  0  0  0
 15 16  1  0  0  0  0
 15 54  1  0  0  0  0
 16 17  1  0  0  0  0
 16 55  1  0  0  0  0
 16 56  1  0  0  0  0
 17 18  1  0  0  0  0
 17 31  1  0  0  0  0
 17 40  1  0  0  0  0
 18 19  2  0  0  0  0
 18 20  1  0  0  0  0
 20 21  1  0  0  0  0
 20 57  1  0  0  0  0
 21 22  1  0  0  0  0
 21 30  2  0  0  0  0
 22 23  2  0  0  0  0
 22 58  1  0  0  0  0
 23 24  1  0  0  0  0
 24 25  2  0  0  0  0
 24 59  1  0  0  0  0
 25 26  1  0  0  0  0
 25 30  1  0  0  0  0
 26 27  2  0  0  0  0
 26 60  1  0  0  0  0
 27 28  1  0  0  0  0
 27 61  1  0  0  0  0
 28 29  2  0  0  0  0
 28 62  1  0  0  0  0
 29 30  1  0  0  0  0
 29 63  1  0  0  0  0
 31 32  1  0  0  0  0
 31 64  1  0  0  0  0
 31 65  1  0  0  0  0
 32 33  1  0  0  0  0
 32 66  1  0  0  0  0
 32 67  1  0  0  0  0
 33 34  1  0  0  0  0
 34 35  1  0  0  0  0
 34 40  2  0  0  0  0
 35 36  2  0  0  0  0
 35 68  1  0  0  0  0
 36 37  1  0  0  0  0
 36 69  1  0  0  0  0
 37 38  1  0  0  0  0
 37 39  2  0  0  0  0
 39 40  1  0  0  0  0
 39 70  1  0  0  0  0
 42 43  1  0  0  0  0
 42 71  1  0  0  0  0
M  END
$$$$
