
 OpenBabel07202414123D

 63 66  0  0  1  0  0  0  0  0999 V2000
   -1.1099    4.0178   -1.7986 C   0  0  0  0  0  0  0  0  0  0  0  0
   -1.6906    2.7909   -2.5255 C   0  0  0  0  0  0  0  0  0  0  0  0
   -2.9715    3.2901   -3.2258 C   0  0  0  0  0  0  0  0  0  0  0  0
   -0.7323    2.2087   -3.4900 N   0  0  0  0  0  0  0  0  0  0  0  0
   -1.2676    1.1054   -4.3154 C   0  0  0  0  0  0  0  0  0  0  0  0
   -1.2741   -0.2615   -3.6182 C   0  0  0  0  0  0  0  0  0  0  0  0
    0.0142   -0.6390   -3.1269 O   0  0  0  0  0  0  0  0  0  0  0  0
    0.6018    0.3592   -2.2789 C   0  0  3  0  0  0  0  0  0  0  0  0
    0.1066    0.2891   -0.8111 C   0  0  0  0  0  0  0  0  0  0  0  0
    0.1878    1.2097   -0.0051 O   0  0  0  0  0  0  0  0  0  0  0  0
   -0.3961   -0.9572   -0.4887 N   0  0  0  0  0  0  0  0  0  0  0  0
   -1.0058   -1.3656    0.7947 C   0  0  3  0  0  0  0  0  0  0  0  0
   -0.1150   -0.9967    2.0062 C   0  0  0  0  0  0  0  0  0  0  0  0
   -2.4100   -0.6581    0.8501 C   0  0  0  0  0  0  0  0  0  0  0  0
   -3.4295   -1.2138    0.4434 O   0  0  0  0  0  0  0  0  0  0  0  0
   -2.3693    0.6656    1.2644 N   0  0  0  0  0  0  0  0  0  0  0  0
   -3.4772    1.4846    1.5987 C   0  0  0  0  0  0  0  0  0  0  0  0
   -4.7674    0.9690    1.7494 C   0  0  0  0  0  0  0  0  0  0  0  0
   -5.8574    1.6948    2.0887 N   0  0  0  0  0  0  0  0  0  0  0  0
   -5.6559    3.0141    2.2900 C   0  0  0  0  0  0  0  0  0  0  0  0
   -4.4231    3.6496    2.1914 C   0  0  0  0  0  0  0  0  0  0  0  0
   -4.3060    5.0301    2.4346 C   0  0  0  0  0  0  0  0  0  0  0  0
   -3.0714    5.6680    2.3403 C   0  0  0  0  0  0  0  0  0  0  0  0
   -1.9429    4.9316    2.0038 C   0  0  0  0  0  0  0  0  0  0  0  0
   -2.0481    3.5576    1.7611 C   0  0  0  0  0  0  0  0  0  0  0  0
   -3.2896    2.8729    1.8431 C   0  0  0  0  0  0  0  0  0  0  0  0
   -1.2230   -2.9128    0.8359 C   0  0  0  0  0  0  0  0  0  0  0  0
   -1.7022   -3.5307    2.0145 C   0  0  0  0  0  0  0  0  0  0  0  0
   -1.8941   -4.9149    2.0899 C   0  0  0  0  0  0  0  0  0  0  0  0
   -1.6510   -5.7229    0.9810 C   0  0  0  0  0  0  0  0  0  0  0  0
   -1.8976   -7.4206    1.1439 Cl  0  0  0  0  0  0  0  0  0  0  0  0
   -1.2151   -5.1356   -0.2100 C   0  0  0  0  0  0  0  0  0  0  0  0
   -0.9308   -6.0592   -1.6446 Cl  0  0  0  0  0  0  0  0  0  0  0  0
   -0.9969   -3.7533   -0.2730 C   0  0  0  0  0  0  0  0  0  0  0  0
    0.5610    1.7669   -2.9128 C   0  0  0  0  0  0  0  0  0  0  0  0
   -1.8282    4.3886   -1.0600 H   0  0  0  0  0  0  0  0  0  0  0  0
   -0.9092    4.8372   -2.4986 H   0  0  0  0  0  0  0  0  0  0  0  0
   -0.1917    3.8049   -1.2481 H   0  0  0  0  0  0  0  0  0  0  0  0
   -1.9778    2.0460   -1.7747 H   0  0  0  0  0  0  0  0  0  0  0  0
   -2.7296    3.8813   -4.1177 H   0  0  0  0  0  0  0  0  0  0  0  0
   -3.5614    3.9331   -2.5619 H   0  0  0  0  0  0  0  0  0  0  0  0
   -3.6246    2.4652   -3.5243 H   0  0  0  0  0  0  0  0  0  0  0  0
   -0.6281    1.0318   -5.2050 H   0  0  0  0  0  0  0  0  0  0  0  0
   -2.2673    1.3190   -4.7030 H   0  0  0  0  0  0  0  0  0  0  0  0
   -1.5714   -1.0312   -4.3385 H   0  0  0  0  0  0  0  0  0  0  0  0
   -1.9990   -0.2880   -2.7965 H   0  0  0  0  0  0  0  0  0  0  0  0
    1.6633    0.0802   -2.2076 H   0  0  0  0  0  0  0  0  0  0  0  0
   -0.7235   -1.4425   -1.3146 H   0  0  0  0  0  0  0  0  0  0  0  0
    0.1530    0.0616    2.0536 H   0  0  0  0  0  0  0  0  0  0  0  0
    0.8250   -1.5612    1.9894 H   0  0  0  0  0  0  0  0  0  0  0  0
   -0.6147   -1.2051    2.9598 H   0  0  0  0  0  0  0  0  0  0  0  0
   -1.4556    1.1125    1.2038 H   0  0  0  0  0  0  0  0  0  0  0  0
   -4.9923   -0.0847    1.6219 H   0  0  0  0  0  0  0  0  0  0  0  0
   -6.5579    3.5623    2.5575 H   0  0  0  0  0  0  0  0  0  0  0  0
   -5.1808    5.6193    2.7014 H   0  0  0  0  0  0  0  0  0  0  0  0
   -2.9917    6.7340    2.5271 H   0  0  0  0  0  0  0  0  0  0  0  0
   -0.9780    5.4217    1.9209 H   0  0  0  0  0  0  0  0  0  0  0  0
   -1.1312    3.0409    1.4937 H   0  0  0  0  0  0  0  0  0  0  0  0
   -1.9432   -2.9417    2.8984 H   0  0  0  0  0  0  0  0  0  0  0  0
   -2.2470   -5.3558    3.0199 H   0  0  0  0  0  0  0  0  0  0  0  0
   -0.6461   -3.3600   -1.2234 H   0  0  0  0  0  0  0  0  0  0  0  0
    1.2549    1.7435   -3.7655 H   0  0  0  0  0  0  0  0  0  0  0  0
    0.9967    2.5080   -2.2388 H   0  0  0  0  0  0  0  0  0  0  0  0
  1  2  1  0  0  0  0
  1 36  1  0  0  0  0
  1 37  1  0  0  0  0
  1 38  1  0  0  0  0
  2  3  1  0  0  0  0
  2  4  1  0  0  0  0
  2 39  1  0  0  0  0
  3 40  1  0  0  0  0
  3 41  1  0  0  0  0
  3 42  1  0  0  0  0
  4  5  1  0  0  0  0
  4 35  1  0  0  0  0
  5  6  1  0  0  0  0
  5 43  1  0  0  0  0
  5 44  1  0  0  0  0
  6  7  1  0  0  0  0
  6 45  1  0  0  0  0
  6 46  1  0  0  0  0
  7  8  1  0  0  0  0
  8  9  1  0  0  0  0
  8 35  1  0  0  0  0
  8 47  1  0  0  0  0
  9 10  2  0  0  0  0
  9 11  1  0  0  0  0
 11 12  1  0  0  0  0
 11 48  1  0  0  0  0
 12 13  1  0  0  0  0
 12 14  1  0  0  0  0
 12 27  1  0  0  0  0
 13 49  1  0  0  0  0
 13 50  1  0  0  0  0
 13 51  1  0  0  0  0
 14 15  2  0  0  0  0
 14 16  1  0  0  0  0
 16 17  1  0  0  0  0
 16 52  1  0  0  0  0
 17 18  1  0  0  0  0
 17 26  2  0  0  0  0
 18 19  2  0  0  0  0
 18 53  1  0  0  0  0
 19 20  1  0  0  0  0
 20 21  2  0  0  0  0
 20 54  1  0  0  0  0
 21 22  1  0  0  0  0
 21 26  1  0  0  0  0
 22 23  2  0  0  0  0
 22 55  1  0  0  0  0
 23 24  1  0  0  0  0
 23 56  1  0  0  0  0
 24 25  2  0  0  0  0
 24 57  1  0  0  0  0
 25 26  1  0  0  0  0
 25 58  1  0  0  0  0
 27 28  1  0  0  0  0
 27 34  2  0  0  0  0
 28 29  2  0  0  0  0
 28 59  1  0  0  0  0
 29 30  1  0  0  0  0
 29 60  1  0  0  0  0
 30 31  1  0  0  0  0
 30 32  2  0  0  0  0
 32 33  1  0  0  0  0
 32 34  1  0  0  0  0
 34 61  1  0  0  0  0
 35 62  1  0  0  0  0
 35 63  1  0  0  0  0
M  END
$$$$
