
 OpenBabel07202414173D

 62 66  0  0  0  0  0  0  0  0999 V2000
   -1.9953   -0.1563   -0.2214 Cl  0  0  0  0  0  0  0  0  0  0  0  0
   -0.2800   -0.0956   -0.0691 C   0  0  0  0  0  0  0  0  0  0  0  0
    0.3480    1.1257    0.1558 C   0  0  0  0  0  0  0  0  0  0  0  0
    1.7310    1.1770    0.3478 C   0  0  0  0  0  0  0  0  0  0  0  0
    2.4324    2.3509    0.6314 N   0  0  0  0  0  0  0  0  0  0  0  0
    1.7733    3.4824    1.3052 C   0  0  0  0  0  0  0  0  0  0  0  0
    1.2664    3.1724    2.7480 C   0  0  0  0  0  0  0  0  0  0  0  0
    2.3846    2.7866    3.7197 C   0  0  0  0  0  0  0  0  0  0  0  0
    3.0930    3.7426    4.4677 C   0  0  0  0  0  0  0  0  0  0  0  0
    4.0779    3.3466    5.3786 C   0  0  0  0  0  0  0  0  0  0  0  0
    4.3783    1.9960    5.5474 C   0  0  0  0  0  0  0  0  0  0  0  0
    3.7070    1.0395    4.7926 C   0  0  0  0  0  0  0  0  0  0  0  0
    2.7207    1.4343    3.8852 C   0  0  0  0  0  0  0  0  0  0  0  0
    0.3317    4.2602    3.2918 C   0  0  0  0  0  0  0  0  0  0  0  0
   -0.6586    3.9045    4.2245 C   0  0  0  0  0  0  0  0  0  0  0  0
   -1.5630    4.8538    4.7053 C   0  0  0  0  0  0  0  0  0  0  0  0
   -1.4867    6.1741    4.2708 C   0  0  0  0  0  0  0  0  0  0  0  0
   -0.4929    6.5508    3.3721 C   0  0  0  0  0  0  0  0  0  0  0  0
    0.4159    5.6045    2.8938 C   0  0  0  0  0  0  0  0  0  0  0  0
    2.4762   -0.0131    0.2273 C   0  0  0  0  0  0  0  0  0  0  0  0
    1.8564   -1.2504   -0.0002 C   0  0  0  0  0  0  0  0  0  0  0  0
    2.5931   -2.5714    0.0550 C   0  0  0  0  0  0  0  0  0  0  0  0
    4.0485   -2.5826   -0.3768 C   0  0  0  0  0  0  0  0  0  0  0  0
    4.9660   -2.6447    0.4358 O   0  0  0  0  0  0  0  0  0  0  0  0
    4.2095   -2.5370   -1.7520 N   0  0  0  0  0  0  0  0  0  0  0  0
    5.4957   -2.5585   -2.3529 C   0  0  0  0  0  0  0  0  0  0  0  0
    5.8545   -1.4674   -3.1447 C   0  0  0  0  0  0  0  0  0  0  0  0
    7.0108   -1.3539   -3.8196 N   0  0  0  0  0  0  0  0  0  0  0  0
    7.8077   -2.4427   -3.8033 C   0  0  0  0  0  0  0  0  0  0  0  0
    7.4920   -3.6480   -3.1757 C   0  0  0  0  0  0  0  0  0  0  0  0
    8.2538   -4.8047   -3.4177 C   0  0  0  0  0  0  0  0  0  0  0  0
    7.9397   -6.0059   -2.7897 C   0  0  0  0  0  0  0  0  0  0  0  0
    6.9159   -6.0389   -1.8511 C   0  0  0  0  0  0  0  0  0  0  0  0
    6.1296   -4.9004   -1.6297 C   0  0  0  0  0  0  0  0  0  0  0  0
    6.3506   -3.6949   -2.3426 C   0  0  0  0  0  0  0  0  0  0  0  0
    0.4598   -1.2741   -0.1368 C   0  0  0  0  0  0  0  0  0  0  0  0
   -0.2588    2.0239    0.2077 H   0  0  0  0  0  0  0  0  0  0  0  0
    2.9558    2.6577   -0.1878 H   0  0  0  0  0  0  0  0  0  0  0  0
    0.9497    3.8485    0.6779 H   0  0  0  0  0  0  0  0  0  0  0  0
    2.5068    4.2972    1.3454 H   0  0  0  0  0  0  0  0  0  0  0  0
    0.6218    2.2860    2.6657 H   0  0  0  0  0  0  0  0  0  0  0  0
    2.8801    4.8023    4.3596 H   0  0  0  0  0  0  0  0  0  0  0  0
    4.6039    4.0999    5.9591 H   0  0  0  0  0  0  0  0  0  0  0  0
    5.1358    1.6923    6.2630 H   0  0  0  0  0  0  0  0  0  0  0  0
    3.9461   -0.0166    4.9096 H   0  0  0  0  0  0  0  0  0  0  0  0
    2.2094    0.6672    3.3079 H   0  0  0  0  0  0  0  0  0  0  0  0
   -0.7339    2.8778    4.5797 H   0  0  0  0  0  0  0  0  0  0  0  0
   -2.3298    4.5603    5.4177 H   0  0  0  0  0  0  0  0  0  0  0  0
   -2.1982    6.9100    4.6349 H   0  0  0  0  0  0  0  0  0  0  0  0
   -0.4251    7.5835    3.0397 H   0  0  0  0  0  0  0  0  0  0  0  0
    1.1853    5.9429    2.2054 H   0  0  0  0  0  0  0  0  0  0  0  0
    3.5527    0.0413    0.3952 H   0  0  0  0  0  0  0  0  0  0  0  0
    2.0688   -3.3043   -0.5717 H   0  0  0  0  0  0  0  0  0  0  0  0
    2.5483   -2.9468    1.0843 H   0  0  0  0  0  0  0  0  0  0  0  0
    3.5144   -1.9600   -2.2133 H   0  0  0  0  0  0  0  0  0  0  0  0
    5.1891   -0.6109   -3.2534 H   0  0  0  0  0  0  0  0  0  0  0  0
    8.7423   -2.3219   -4.3459 H   0  0  0  0  0  0  0  0  0  0  0  0
    9.0633   -4.7867   -4.1451 H   0  0  0  0  0  0  0  0  0  0  0  0
    8.4967   -6.9083   -3.0293 H   0  0  0  0  0  0  0  0  0  0  0  0
    6.7109   -6.9577   -1.3067 H   0  0  0  0  0  0  0  0  0  0  0  0
    5.3301   -4.9687   -0.8966 H   0  0  0  0  0  0  0  0  0  0  0  0
   -0.0621   -2.2205   -0.2668 H   0  0  0  0  0  0  0  0  0  0  0  0
  1  2  1  0  0  0  0
  2  3  2  0  0  0  0
  2 36  1  0  0  0  0
  3  4  1  0  0  0  0
  3 37  1  0  0  0  0
  4  5  1  0  0  0  0
  4 20  2  0  0  0  0
  5  6  1  0  0  0  0
  5 38  1  0  0  0  0
  6  7  1  0  0  0  0
  6 39  1  0  0  0  0
  6 40  1  0  0  0  0
  7  8  1  0  0  0  0
  7 14  1  0  0  0  0
  7 41  1  0  0  0  0
  8  9  2  0  0  0  0
  8 13  1  0  0  0  0
  9 10  1  0  0  0  0
  9 42  1  0  0  0  0
 10 11  2  0  0  0  0
 10 43  1  0  0  0  0
 11 12  1  0  0  0  0
 11 44  1  0  0  0  0
 12 13  2  0  0  0  0
 12 45  1  0  0  0  0
 13 46  1  0  0  0  0
 14 15  2  0  0  0  0
 14 19  1  0  0  0  0
 15 16  1  0  0  0  0
 15 47  1  0  0  0  0
 16 17  2  0  0  0  0
 16 48  1  0  0  0  0
 17 18  1  0  0  0  0
 17 49  1  0  0  0  0
 18 19  2  0  0  0  0
 18 50  1  0  0  0  0
 19 51  1  0  0  0  0
 20 21  1  0  0  0  0
 20 52  1  0  0  0  0
 21 22  1  0  0  0  0
 21 36  2  0  0  0  0
 22 23  1  0  0  0  0
 22 53  1  0  0  0  0
 22 54  1  0  0  0  0
 23 24  2  0  0  0  0
 23 25  1  0  0  0  0
 25 26  1  0  0  0  0
 25 55  1  0  0  0  0
 26 27  2  0  0  0  0
 26 35  1  0  0  0  0
 27 28  1  0  0  0  0
 27 56  1  0  0  0  0
 28 29  2  0  0  0  0
 29 30  1  0  0  0  0
 29 57  1  0  0  0  0
 30 31  2  0  0  0  0
 30 35  1  0  0  0  0
 31 32  1  0  0  0  0
 31 58  1  0  0  0  0
 32 33  2  0  0  0  0
 32 59  1  0  0  0  0
 33 34  1  0  0  0  0
 33 60  1  0  0  0  0
 34 35  2  0  0  0  0
 34 61  1  0  0  0  0
 36 62  1  0  0  0  0
M  END
$$$$
