
 OpenBabel07202414193D

 55 59  0  0  1  0  0  0  0  0999 V2000
    3.5201    2.8384    2.3947 O   0  0  0  0  0  0  0  0  0  0  0  0
    2.7387    2.0186    1.9082 C   0  0  0  0  0  0  0  0  0  0  0  0
    3.1010    1.1811    0.6607 C   0  0  2  0  0  0  0  0  0  0  0  0
    4.1677    0.1836    1.1687 C   0  0  0  0  0  0  0  0  0  0  0  0
    4.6885   -0.6467    0.0364 C   0  0  0  0  0  0  0  0  0  0  0  0
    4.9653   -2.0023    0.1721 C   0  0  0  0  0  0  0  0  0  0  0  0
    5.4630   -2.7306   -0.9023 C   0  0  0  0  0  0  0  0  0  0  0  0
    5.6886   -2.0901   -2.1199 C   0  0  0  0  0  0  0  0  0  0  0  0
    5.4354   -0.7210   -2.2555 C   0  0  0  0  0  0  0  0  0  0  0  0
    4.9333    0.0112   -1.1754 C   0  0  0  0  0  0  0  0  0  0  0  0
    4.7353    1.5093   -1.2422 C   0  0  0  0  0  0  0  0  0  0  0  0
    3.5520    1.9878   -0.5077 N   0  0  0  0  0  0  0  0  0  0  0  0
    2.8168    2.9925   -1.1301 C   0  0  0  0  0  0  0  0  0  0  0  0
    3.1944    3.4993   -2.1923 O   0  0  0  0  0  0  0  0  0  0  0  0
    1.5053    3.4869   -0.5253 C   0  0  0  0  0  0  0  0  0  0  0  0
    0.3105    3.3267   -1.4354 C   0  0  0  0  0  0  0  0  0  0  0  0
    0.2486    2.2189   -2.2866 C   0  0  0  0  0  0  0  0  0  0  0  0
   -0.7613    1.9610   -3.1366 N   0  0  0  0  0  0  0  0  0  0  0  0
   -1.7639    2.8615   -3.1579 C   0  0  0  0  0  0  0  0  0  0  0  0
   -1.8417    3.9865   -2.3378 C   0  0  0  0  0  0  0  0  0  0  0  0
   -2.9379    4.8697   -2.4127 C   0  0  0  0  0  0  0  0  0  0  0  0
   -3.0167    5.9799   -1.5777 C   0  0  0  0  0  0  0  0  0  0  0  0
   -2.0088    6.2193   -0.6548 C   0  0  0  0  0  0  0  0  0  0  0  0
   -0.9129    5.3522   -0.5783 C   0  0  0  0  0  0  0  0  0  0  0  0
   -0.7917    4.2230   -1.4241 C   0  0  0  0  0  0  0  0  0  0  0  0
    1.4548    1.8294    2.3996 N   0  0  0  0  0  0  0  0  0  0  0  0
    0.9262    2.6652    3.4663 C   0  0  0  0  0  0  0  0  0  0  0  0
    0.5465    1.6507    4.5250 C   0  0  0  0  0  0  0  0  0  0  0  0
    0.0021    0.4886    3.6996 C   0  0  0  0  0  0  0  0  0  0  0  0
    0.8409    0.5112    2.4311 C   0  0  0  0  0  0  0  0  0  0  0  0
    2.2269    0.6350    0.2932 H   0  0  0  0  0  0  0  0  0  0  0  0
    3.7485   -0.4641    1.9465 H   0  0  0  0  0  0  0  0  0  0  0  0
    5.0162    0.7135    1.6222 H   0  0  0  0  0  0  0  0  0  0  0  0
    4.8093   -2.5102    1.1307 H   0  0  0  0  0  0  0  0  0  0  0  0
    5.6800   -3.7901   -0.7971 H   0  0  0  0  0  0  0  0  0  0  0  0
    6.0791   -2.6544   -2.9619 H   0  0  0  0  0  0  0  0  0  0  0  0
    5.6416   -0.2348   -3.2065 H   0  0  0  0  0  0  0  0  0  0  0  0
    4.6883    1.8132   -2.2931 H   0  0  0  0  0  0  0  0  0  0  0  0
    5.6077    2.0008   -0.7966 H   0  0  0  0  0  0  0  0  0  0  0  0
    1.6825    4.5404   -0.2821 H   0  0  0  0  0  0  0  0  0  0  0  0
    1.2373    2.9926    0.3918 H   0  0  0  0  0  0  0  0  0  0  0  0
    1.0445    1.4798   -2.3157 H   0  0  0  0  0  0  0  0  0  0  0  0
   -2.5388    2.6410   -3.8858 H   0  0  0  0  0  0  0  0  0  0  0  0
   -3.7350    4.6900   -3.1301 H   0  0  0  0  0  0  0  0  0  0  0  0
   -3.8656    6.6560   -1.6447 H   0  0  0  0  0  0  0  0  0  0  0  0
   -2.0679    7.0805    0.0060 H   0  0  0  0  0  0  0  0  0  0  0  0
   -0.1484    5.5844    0.1600 H   0  0  0  0  0  0  0  0  0  0  0  0
    0.0334    3.1812    3.0873 H   0  0  0  0  0  0  0  0  0  0  0  0
    1.6403    3.4150    3.8143 H   0  0  0  0  0  0  0  0  0  0  0  0
   -0.1786    2.0352    5.2453 H   0  0  0  0  0  0  0  0  0  0  0  0
    1.4481    1.3367    5.0643 H   0  0  0  0  0  0  0  0  0  0  0  0
   -1.0529    0.6505    3.4559 H   0  0  0  0  0  0  0  0  0  0  0  0
    0.0936   -0.4695    4.2189 H   0  0  0  0  0  0  0  0  0  0  0  0
    0.2404    0.3468    1.5303 H   0  0  0  0  0  0  0  0  0  0  0  0
    1.6270   -0.2441    2.4820 H   0  0  0  0  0  0  0  0  0  0  0  0
  1  2  2  0  0  0  0
  2 26  1  0  0  0  0
  3  4  1  0  0  0  0
  3 12  1  0  0  0  0
  3  2  1  0  0  0  0
  3 31  1  6  0  0  0
  4  5  1  0  0  0  0
  4 32  1  0  0  0  0
  4 33  1  0  0  0  0
  5  6  1  0  0  0  0
  5 10  2  0  0  0  0
  6  7  2  0  0  0  0
  6 34  1  0  0  0  0
  7  8  1  0  0  0  0
  7 35  1  0  0  0  0
  8  9  2  0  0  0  0
  8 36  1  0  0  0  0
  9 10  1  0  0  0  0
  9 37  1  0  0  0  0
 10 11  1  0  0  0  0
 11 12  1  0  0  0  0
 11 38  1  0  0  0  0
 11 39  1  0  0  0  0
 12 13  1  0  0  0  0
 13 14  2  0  0  0  0
 13 15  1  0  0  0  0
 15 16  1  0  0  0  0
 15 40  1  0  0  0  0
 15 41  1  0  0  0  0
 16 17  1  0  0  0  0
 16 25  2  0  0  0  0
 17 18  2  0  0  0  0
 17 42  1  0  0  0  0
 18 19  1  0  0  0  0
 19 20  2  0  0  0  0
 19 43  1  0  0  0  0
 20 21  1  0  0  0  0
 20 25  1  0  0  0  0
 21 22  2  0  0  0  0
 21 44  1  0  0  0  0
 22 23  1  0  0  0  0
 22 45  1  0  0  0  0
 23 24  2  0  0  0  0
 23 46  1  0  0  0  0
 24 25  1  0  0  0  0
 24 47  1  0  0  0  0
 26 27  1  0  0  0  0
 26 30  1  0  0  0  0
 27 28  1  0  0  0  0
 27 48  1  0  0  0  0
 27 49  1  0  0  0  0
 28 29  1  0  0  0  0
 28 50  1  0  0  0  0
 28 51  1  0  0  0  0
 29 30  1  0  0  0  0
 29 52  1  0  0  0  0
 29 53  1  0  0  0  0
 30 54  1  0  0  0  0
 30 55  1  0  0  0  0
M  END
$$$$
