
 OpenBabel07202414173D

 45 47  0  0  1  0  0  0  0  0999 V2000
    1.0194    0.5588   -0.3293 Cl  0  0  0  0  0  0  0  0  0  0  0  0
    2.7830    0.7564   -0.3653 C   0  0  0  0  0  0  0  0  0  0  0  0
    3.3635    0.9781    1.0237 C   0  0  0  0  0  0  0  0  0  0  0  0
    2.6562    1.0978    2.0242 O   0  0  0  0  0  0  0  0  0  0  0  0
    4.7569    1.0213    1.1182 N   0  0  0  0  0  0  0  0  0  0  0  0
    5.6859    1.0273   -0.0178 C   0  0  0  0  0  0  0  0  0  0  0  0
    6.9861    0.2567    0.2956 C   0  0  0  0  0  0  0  0  0  0  0  0
    7.6347    0.6730    1.5902 N   0  0  0  0  0  0  0  0  0  0  0  0
    8.5065    2.1463    1.5189 S   0  0  0  0  0  0  0  0  0  0  0  0
    7.6950    3.1424    0.8586 O   0  0  0  0  0  0  0  0  0  0  0  0
    9.1262    2.3779    2.7982 O   0  0  0  0  0  0  0  0  0  0  0  0
    9.8754    1.9288    0.4733 C   0  0  0  0  0  0  0  0  0  0  0  0
   10.1051    2.6630   -0.7297 C   0  0  0  0  0  0  0  0  0  0  0  0
   11.3046    2.3229   -1.3175 C   0  0  0  0  0  0  0  0  0  0  0  0
   12.1371    1.1166   -0.4322 S   0  0  0  0  0  0  0  0  0  0  0  0
   10.9057    1.0563    0.7555 C   0  0  0  0  0  0  0  0  0  0  0  0
    6.6170    0.5750    2.7154 C   0  0  1  0  0  0  0  0  0  0  0  0
    7.1227    0.9043    4.1159 C   0  0  0  0  0  0  0  0  0  0  0  0
    6.5978    1.7900    4.7844 O   0  0  0  0  0  0  0  0  0  0  0  0
    8.1574    0.0742    4.5301 N   0  0  0  0  0  0  0  0  0  0  0  0
    8.7535    0.0783    5.8104 C   0  0  0  0  0  0  0  0  0  0  0  0
    8.1850    0.7170    6.9159 C   0  0  0  0  0  0  0  0  0  0  0  0
    8.8405    0.7325    8.1487 C   0  0  0  0  0  0  0  0  0  0  0  0
   10.0685    0.0962    8.2928 C   0  0  0  0  0  0  0  0  0  0  0  0
   10.6295   -0.5754    7.2086 C   0  0  0  0  0  0  0  0  0  0  0  0
    9.9706   -0.5932    5.9741 C   0  0  0  0  0  0  0  0  0  0  0  0
    5.3543    1.4029    2.4080 C   0  0  0  0  0  0  0  0  0  0  0  0
    3.0110    1.6180   -0.9978 H   0  0  0  0  0  0  0  0  0  0  0  0
    3.1934   -0.1590   -0.7971 H   0  0  0  0  0  0  0  0  0  0  0  0
    5.8814    2.0741   -0.2656 H   0  0  0  0  0  0  0  0  0  0  0  0
    5.2227    0.5856   -0.9026 H   0  0  0  0  0  0  0  0  0  0  0  0
    7.6949    0.3400   -0.5339 H   0  0  0  0  0  0  0  0  0  0  0  0
    6.7482   -0.8113    0.3876 H   0  0  0  0  0  0  0  0  0  0  0  0
    9.4425    3.4237   -1.1278 H   0  0  0  0  0  0  0  0  0  0  0  0
   11.7429    2.7325   -2.2182 H   0  0  0  0  0  0  0  0  0  0  0  0
   11.0118    0.4099    1.6162 H   0  0  0  0  0  0  0  0  0  0  0  0
    6.3165   -0.4830    2.7589 H   0  0  0  0  0  0  0  0  0  0  0  0
    8.6336   -0.4489    3.8057 H   0  0  0  0  0  0  0  0  0  0  0  0
    7.2237    1.2170    6.8550 H   0  0  0  0  0  0  0  0  0  0  0  0
    8.3876    1.2527    8.9888 H   0  0  0  0  0  0  0  0  0  0  0  0
   10.5849    0.1269    9.2483 H   0  0  0  0  0  0  0  0  0  0  0  0
   11.5878   -1.0752    7.3226 H   0  0  0  0  0  0  0  0  0  0  0  0
   10.4383   -1.1145    5.1440 H   0  0  0  0  0  0  0  0  0  0  0  0
    5.5803    2.4748    2.3564 H   0  0  0  0  0  0  0  0  0  0  0  0
    4.6261    1.2754    3.2164 H   0  0  0  0  0  0  0  0  0  0  0  0
  1  2  1  0  0  0  0
  2  3  1  0  0  0  0
  2 28  1  0  0  0  0
  2 29  1  0  0  0  0
  3  4  2  0  0  0  0
  3  5  1  0  0  0  0
  5  6  1  0  0  0  0
  5 27  1  0  0  0  0
  6  7  1  0  0  0  0
  6 30  1  0  0  0  0
  6 31  1  0  0  0  0
  7  8  1  0  0  0  0
  7 32  1  0  0  0  0
  7 33  1  0  0  0  0
  8  9  1  0  0  0  0
  8 17  1  0  0  0  0
  9 10  2  0  0  0  0
  9 11  2  0  0  0  0
  9 12  1  0  0  0  0
 12 13  1  0  0  0  0
 12 16  2  0  0  0  0
 13 14  2  0  0  0  0
 13 34  1  0  0  0  0
 14 15  1  0  0  0  0
 14 35  1  0  0  0  0
 15 16  1  0  0  0  0
 16 36  1  0  0  0  0
 17 18  1  0  0  0  0
 17 27  1  0  0  0  0
 17 37  1  1  0  0  0
 18 19  2  0  0  0  0
 18 20  1  0  0  0  0
 20 21  1  0  0  0  0
 20 38  1  0  0  0  0
 21 22  1  0  0  0  0
 21 26  2  0  0  0  0
 22 23  2  0  0  0  0
 22 39  1  0  0  0  0
 23 24  1  0  0  0  0
 23 40  1  0  0  0  0
 24 25  2  0  0  0  0
 24 41  1  0  0  0  0
 25 26  1  0  0  0  0
 25 42  1  0  0  0  0
 26 43  1  0  0  0  0
 27 44  1  0  0  0  0
 27 45  1  0  0  0  0
M  END
$$$$
