
 OpenBabel07202414193D

 43 46  0  0  0  0  0  0  0  0999 V2000
    1.1665    0.1972    0.2658 O   0  0  0  0  0  0  0  0  0  0  0  0
    2.2005   -0.1427   -0.3098 C   0  0  0  0  0  0  0  0  0  0  0  0
    2.5820   -1.6183   -0.3712 C   0  0  0  0  0  0  0  0  0  0  0  0
    3.6597   -2.0246    0.6135 C   0  0  0  0  0  0  0  0  0  0  0  0
    3.6624   -1.4554    1.8918 C   0  0  0  0  0  0  0  0  0  0  0  0
    4.5632   -1.7368    2.8544 N   0  0  0  0  0  0  0  0  0  0  0  0
    5.5097   -2.6452    2.5444 C   0  0  0  0  0  0  0  0  0  0  0  0
    5.6147   -3.2956    1.3157 C   0  0  0  0  0  0  0  0  0  0  0  0
    6.6415   -4.2257    1.0734 C   0  0  0  0  0  0  0  0  0  0  0  0
    6.7436   -4.8662   -0.1576 C   0  0  0  0  0  0  0  0  0  0  0  0
    5.8135   -4.5952   -1.1502 C   0  0  0  0  0  0  0  0  0  0  0  0
    4.7811   -3.6779   -0.9143 C   0  0  0  0  0  0  0  0  0  0  0  0
    4.6588   -2.9928    0.3205 C   0  0  0  0  0  0  0  0  0  0  0  0
    3.0699    0.7749   -0.8944 N   0  0  0  0  0  0  0  0  0  0  0  0
    4.2372    0.3991   -1.6903 C   0  0  0  0  0  0  0  0  0  0  0  0
    5.4114    1.3329   -1.4335 C   0  0  0  0  0  0  0  0  0  0  0  0
    5.0390    2.8084   -1.6071 C   0  0  0  0  0  0  0  0  0  0  0  0
    4.8747    3.1647   -3.0651 C   0  0  0  0  0  0  0  0  0  0  0  0
    3.9953    2.6083   -3.8727 N   0  0  0  0  0  0  0  0  0  0  0  0
    4.0774    3.1740   -5.1259 C   0  0  0  0  0  0  0  0  0  0  0  0
    5.0338    4.1527   -5.2699 C   0  0  0  0  0  0  0  0  0  0  0  0
    5.8655    4.3729   -3.7876 S   0  0  0  0  0  0  0  0  0  0  0  0
    3.7752    3.1464   -0.8024 C   0  0  0  0  0  0  0  0  0  0  0  0
    2.6308    2.1620   -1.0411 C   0  0  0  0  0  0  0  0  0  0  0  0
    2.8547   -1.8342   -1.4093 H   0  0  0  0  0  0  0  0  0  0  0  0
    1.6840   -2.2165   -0.1785 H   0  0  0  0  0  0  0  0  0  0  0  0
    2.9163   -0.7211    2.1914 H   0  0  0  0  0  0  0  0  0  0  0  0
    6.2129   -2.8465    3.3488 H   0  0  0  0  0  0  0  0  0  0  0  0
    7.3741   -4.4525    1.8460 H   0  0  0  0  0  0  0  0  0  0  0  0
    7.5450   -5.5781   -0.3385 H   0  0  0  0  0  0  0  0  0  0  0  0
    5.8825   -5.0958   -2.1126 H   0  0  0  0  0  0  0  0  0  0  0  0
    4.0742   -3.5122   -1.7216 H   0  0  0  0  0  0  0  0  0  0  0  0
    3.9306    0.3900   -2.7408 H   0  0  0  0  0  0  0  0  0  0  0  0
    4.5719   -0.6116   -1.4643 H   0  0  0  0  0  0  0  0  0  0  0  0
    6.2478    1.0572   -2.0868 H   0  0  0  0  0  0  0  0  0  0  0  0
    5.7512    1.1789   -0.4007 H   0  0  0  0  0  0  0  0  0  0  0  0
    5.8643    3.4028   -1.1917 H   0  0  0  0  0  0  0  0  0  0  0  0
    3.4060    2.8335   -5.9047 H   0  0  0  0  0  0  0  0  0  0  0  0
    5.2761    4.7328   -6.1475 H   0  0  0  0  0  0  0  0  0  0  0  0
    3.4379    4.1668   -1.0211 H   0  0  0  0  0  0  0  0  0  0  0  0
    4.0303    3.1192    0.2653 H   0  0  0  0  0  0  0  0  0  0  0  0
    2.2189    2.2705   -2.0510 H   0  0  0  0  0  0  0  0  0  0  0  0
    1.8121    2.3893   -0.3501 H   0  0  0  0  0  0  0  0  0  0  0  0
  1  2  2  0  0  0  0
  2  3  1  0  0  0  0
  2 14  1  0  0  0  0
  3  4  1  0  0  0  0
  3 25  1  0  0  0  0
  3 26  1  0  0  0  0
  4  5  1  0  0  0  0
  4 13  2  0  0  0  0
  5  6  2  0  0  0  0
  5 27  1  0  0  0  0
  6  7  1  0  0  0  0
  7  8  2  0  0  0  0
  7 28  1  0  0  0  0
  8  9  1  0  0  0  0
  8 13  1  0  0  0  0
  9 10  2  0  0  0  0
  9 29  1  0  0  0  0
 10 11  1  0  0  0  0
 10 30  1  0  0  0  0
 11 12  2  0  0  0  0
 11 31  1  0  0  0  0
 12 13  1  0  0  0  0
 12 32  1  0  0  0  0
 14 15  1  0  0  0  0
 14 24  1  0  0  0  0
 15 16  1  0  0  0  0
 15 33  1  0  0  0  0
 15 34  1  0  0  0  0
 16 17  1  0  0  0  0
 16 35  1  0  0  0  0
 16 36  1  0  0  0  0
 17 18  1  0  0  0  0
 17 23  1  0  0  0  0
 17 37  1  0  0  0  0
 18 19  2  0  0  0  0
 18 22  1  0  0  0  0
 19 20  1  0  0  0  0
 20 21  2  0  0  0  0
 20 38  1  0  0  0  0
 21 22  1  0  0  0  0
 21 39  1  0  0  0  0
 23 24  1  0  0  0  0
 23 40  1  0  0  0  0
 23 41  1  0  0  0  0
 24 42  1  0  0  0  0
 24 43  1  0  0  0  0
M  END
$$$$
