
 OpenBabel07202414173D

 46 49  0  0  1  0  0  0  0  0999 V2000
    0.9685    0.1042    0.0159 Cl  0  0  0  0  0  0  0  0  0  0  0  0
    2.6829    0.0385    0.1418 C   0  0  0  0  0  0  0  0  0  0  0  0
    3.4314    1.2001   -0.0039 C   0  0  0  0  0  0  0  0  0  0  0  0
    4.8239    1.1453    0.0658 C   0  0  0  0  0  0  0  0  0  0  0  0
    5.4797   -0.0763    0.2878 C   0  0  0  0  0  0  0  0  0  0  0  0
    4.7140   -1.2503    0.4552 C   0  0  0  0  0  0  0  0  0  0  0  0
    3.3128   -1.1831    0.3787 C   0  0  0  0  0  0  0  0  0  0  0  0
    5.3895   -2.5824    0.7394 C   0  0  3  0  0  0  0  0  0  0  0  0
    5.3097   -2.9928    2.2167 C   0  0  0  0  0  0  0  0  0  0  0  0
    4.8669   -4.0963    2.5235 O   0  0  0  0  0  0  0  0  0  0  0  0
    5.7911   -2.0457    3.1063 N   0  0  0  0  0  0  0  0  0  0  0  0
    5.7088   -2.0875    4.5221 C   0  0  0  0  0  0  0  0  0  0  0  0
    5.4317   -3.2615    5.2232 C   0  0  0  0  0  0  0  0  0  0  0  0
    5.1882   -3.3220    6.5518 N   0  0  0  0  0  0  0  0  0  0  0  0
    5.2628   -2.1589    7.2290 C   0  0  0  0  0  0  0  0  0  0  0  0
    5.6455   -0.9406    6.6700 C   0  0  0  0  0  0  0  0  0  0  0  0
    5.8017    0.2047    7.4724 C   0  0  0  0  0  0  0  0  0  0  0  0
    6.1832    1.4204    6.9120 C   0  0  0  0  0  0  0  0  0  0  0  0
    6.3865    1.5098    5.5425 C   0  0  0  0  0  0  0  0  0  0  0  0
    6.2338    0.3776    4.7357 C   0  0  0  0  0  0  0  0  0  0  0  0
    5.8736   -0.8868    5.2744 C   0  0  0  0  0  0  0  0  0  0  0  0
    6.8468   -2.5704    0.2702 C   0  0  0  0  0  0  0  0  0  0  0  0
    7.5433   -1.3747    0.7596 N   0  0  0  0  0  0  0  0  0  0  0  0
    8.7244   -1.3658    1.4974 C   0  0  0  0  0  0  0  0  0  0  0  0
    9.2506   -0.3016    1.8217 O   0  0  0  0  0  0  0  0  0  0  0  0
    9.3064   -2.7107    1.8920 C   0  0  0  0  0  0  0  0  0  0  0  0
   10.4884   -2.5776    2.7433 C   0  0  0  0  0  0  0  0  0  0  0  0
   11.4360   -2.5405    3.4205 N   0  0  0  0  0  0  0  0  0  0  0  0
    6.9956   -0.0994    0.2945 C   0  0  0  0  0  0  0  0  0  0  0  0
    2.9379    2.1546   -0.1815 H   0  0  0  0  0  0  0  0  0  0  0  0
    5.3966    2.0635   -0.0609 H   0  0  0  0  0  0  0  0  0  0  0  0
    2.7122   -2.0832    0.4961 H   0  0  0  0  0  0  0  0  0  0  0  0
    4.8653   -3.3601    0.1669 H   0  0  0  0  0  0  0  0  0  0  0  0
    6.0293   -1.1508    2.7029 H   0  0  0  0  0  0  0  0  0  0  0  0
    5.4051   -4.2327    4.7396 H   0  0  0  0  0  0  0  0  0  0  0  0
    4.9957   -2.2377    8.2803 H   0  0  0  0  0  0  0  0  0  0  0  0
    5.6458    0.1498    8.5482 H   0  0  0  0  0  0  0  0  0  0  0  0
    6.3259    2.2932    7.5438 H   0  0  0  0  0  0  0  0  0  0  0  0
    6.6751    2.4585    5.0962 H   0  0  0  0  0  0  0  0  0  0  0  0
    6.4238    0.5127    3.6757 H   0  0  0  0  0  0  0  0  0  0  0  0
    6.8881   -2.5303   -0.8262 H   0  0  0  0  0  0  0  0  0  0  0  0
    7.3539   -3.4896    0.5716 H   0  0  0  0  0  0  0  0  0  0  0  0
    9.5792   -3.2496    0.9792 H   0  0  0  0  0  0  0  0  0  0  0  0
    8.5453   -3.2833    2.4327 H   0  0  0  0  0  0  0  0  0  0  0  0
    7.3599    0.0547   -0.7275 H   0  0  0  0  0  0  0  0  0  0  0  0
    7.3625    0.7217    0.9195 H   0  0  0  0  0  0  0  0  0  0  0  0
  1  2  1  0  0  0  0
  2  3  1  0  0  0  0
  2  7  2  0  0  0  0
  3  4  2  0  0  0  0
  3 30  1  0  0  0  0
  4  5  1  0  0  0  0
  4 31  1  0  0  0  0
  5  6  2  0  0  0  0
  5 29  1  0  0  0  0
  6  7  1  0  0  0  0
  6  8  1  0  0  0  0
  7 32  1  0  0  0  0
  8  9  1  0  0  0  0
  8 22  1  0  0  0  0
  8 33  1  0  0  0  0
  9 10  2  0  0  0  0
  9 11  1  0  0  0  0
 11 12  1  0  0  0  0
 11 34  1  0  0  0  0
 12 13  1  0  0  0  0
 12 21  2  0  0  0  0
 13 14  2  0  0  0  0
 13 35  1  0  0  0  0
 14 15  1  0  0  0  0
 15 16  2  0  0  0  0
 15 36  1  0  0  0  0
 16 17  1  0  0  0  0
 16 21  1  0  0  0  0
 17 18  2  0  0  0  0
 17 37  1  0  0  0  0
 18 19  1  0  0  0  0
 18 38  1  0  0  0  0
 19 20  2  0  0  0  0
 19 39  1  0  0  0  0
 20 21  1  0  0  0  0
 20 40  1  0  0  0  0
 22 23  1  0  0  0  0
 22 41  1  0  0  0  0
 22 42  1  0  0  0  0
 23 24  1  0  0  0  0
 23 29  1  0  0  0  0
 24 25  2  0  0  0  0
 24 26  1  0  0  0  0
 26 27  1  0  0  0  0
 26 43  1  0  0  0  0
 26 44  1  0  0  0  0
 27 28  3  0  0  0  0
 29 45  1  0  0  0  0
 29 46  1  0  0  0  0
M  END
$$$$
