
 OpenBabel07202414133D

 53 56  0  0  1  0  0  0  0  0999 V2000
    4.9848   -3.0185   -0.3201 C   0  0  0  0  0  0  0  0  0  0  0  0
    4.6036   -1.6260   -0.1538 N   0  0  0  0  0  0  0  0  0  0  0  0
    3.5405   -1.0957   -0.9932 C   0  0  0  0  0  0  0  0  0  0  0  0
    5.1628   -0.9324    0.9201 C   0  0  0  0  0  0  0  0  0  0  0  0
    6.0045   -1.4679    1.6516 O   0  0  0  0  0  0  0  0  0  0  0  0
    4.6779    0.5128    1.1350 C   0  0  0  0  0  0  0  0  0  0  0  0
    5.3706    1.2391    2.2439 N   0  0  0  0  0  0  0  0  0  0  0  0
    5.0231    0.6636    3.5654 C   0  0  0  0  0  0  0  0  0  0  0  0
    5.7406    1.3914    4.7222 C   0  0  3  0  0  0  0  0  0  0  0  0
    7.2434    1.0755    4.8614 C   0  0  0  0  0  0  0  0  0  0  0  0
    7.7811    1.1464    5.9693 O   0  0  0  0  0  0  0  0  0  0  0  0
    7.9004    0.7741    3.6802 N   0  0  0  0  0  0  0  0  0  0  0  0
    9.2846    0.5261    3.4807 C   0  0  0  0  0  0  0  0  0  0  0  0
   10.2268    0.6216    4.5064 C   0  0  0  0  0  0  0  0  0  0  0  0
   11.5691    0.5380    4.3339 N   0  0  0  0  0  0  0  0  0  0  0  0
   12.0007    0.2961    3.0804 C   0  0  0  0  0  0  0  0  0  0  0  0
   11.1667    0.0655    1.9893 C   0  0  0  0  0  0  0  0  0  0  0  0
   11.6982   -0.3032    0.7370 C   0  0  0  0  0  0  0  0  0  0  0  0
   10.8597   -0.5794   -0.3392 C   0  0  0  0  0  0  0  0  0  0  0  0
    9.4877   -0.4552   -0.1847 C   0  0  0  0  0  0  0  0  0  0  0  0
    8.9568   -0.0624    1.0484 C   0  0  0  0  0  0  0  0  0  0  0  0
    9.7708    0.1900    2.1810 C   0  0  0  0  0  0  0  0  0  0  0  0
    5.4660    2.8807    4.6591 C   0  0  0  0  0  0  0  0  0  0  0  0
    5.4891    3.6607    5.8276 C   0  0  0  0  0  0  0  0  0  0  0  0
    5.1931    5.0216    5.7706 C   0  0  0  0  0  0  0  0  0  0  0  0
    5.1535    5.9538    7.2165 Cl  0  0  0  0  0  0  0  0  0  0  0  0
    4.9011    5.6281    4.5526 C   0  0  0  0  0  0  0  0  0  0  0  0
    4.8805    4.8609    3.3867 C   0  0  0  0  0  0  0  0  0  0  0  0
    5.1476    3.4809    3.4293 C   0  0  0  0  0  0  0  0  0  0  0  0
    4.9534    2.6613    2.1710 C   0  0  0  0  0  0  0  0  0  0  0  0
    4.5290   -3.4533   -1.2127 H   0  0  0  0  0  0  0  0  0  0  0  0
    4.6727   -3.5831    0.5638 H   0  0  0  0  0  0  0  0  0  0  0  0
    6.0741   -3.0799   -0.4119 H   0  0  0  0  0  0  0  0  0  0  0  0
    3.2769   -1.8011   -1.7848 H   0  0  0  0  0  0  0  0  0  0  0  0
    3.8808   -0.1649   -1.4544 H   0  0  0  0  0  0  0  0  0  0  0  0
    2.6612   -0.8928   -0.3773 H   0  0  0  0  0  0  0  0  0  0  0  0
    3.5961    0.4957    1.3093 H   0  0  0  0  0  0  0  0  0  0  0  0
    4.8834    1.0484    0.2007 H   0  0  0  0  0  0  0  0  0  0  0  0
    5.2994   -0.3934    3.6194 H   0  0  0  0  0  0  0  0  0  0  0  0
    3.9355    0.7141    3.7178 H   0  0  0  0  0  0  0  0  0  0  0  0
    5.2765    1.0019    5.6408 H   0  0  0  0  0  0  0  0  0  0  0  0
    7.3110    0.7736    2.8515 H   0  0  0  0  0  0  0  0  0  0  0  0
    9.9458    0.7816    5.5411 H   0  0  0  0  0  0  0  0  0  0  0  0
   13.0829    0.2788    2.9769 H   0  0  0  0  0  0  0  0  0  0  0  0
   12.7729   -0.4094    0.6045 H   0  0  0  0  0  0  0  0  0  0  0  0
   11.2754   -0.9033   -1.2893 H   0  0  0  0  0  0  0  0  0  0  0  0
    8.8190   -0.6794   -1.0114 H   0  0  0  0  0  0  0  0  0  0  0  0
    7.8782   -0.0011    1.1163 H   0  0  0  0  0  0  0  0  0  0  0  0
    5.7185    3.1985    6.7864 H   0  0  0  0  0  0  0  0  0  0  0  0
    4.6708    6.6893    4.5075 H   0  0  0  0  0  0  0  0  0  0  0  0
    4.6246    5.3428    2.4452 H   0  0  0  0  0  0  0  0  0  0  0  0
    5.5135    3.1383    1.3567 H   0  0  0  0  0  0  0  0  0  0  0  0
    3.8834    2.7271    1.9282 H   0  0  0  0  0  0  0  0  0  0  0  0
  1  2  1  0  0  0  0
  1 31  1  0  0  0  0
  1 32  1  0  0  0  0
  1 33  1  0  0  0  0
  2  3  1  0  0  0  0
  2  4  1  0  0  0  0
  3 34  1  0  0  0  0
  3 35  1  0  0  0  0
  3 36  1  0  0  0  0
  4  5  2  0  0  0  0
  4  6  1  0  0  0  0
  6  7  1  0  0  0  0
  6 37  1  0  0  0  0
  6 38  1  0  0  0  0
  7  8  1  0  0  0  0
  7 30  1  0  0  0  0
  8  9  1  0  0  0  0
  8 39  1  0  0  0  0
  8 40  1  0  0  0  0
  9 10  1  0  0  0  0
  9 23  1  0  0  0  0
  9 41  1  0  0  0  0
 10 11  2  0  0  0  0
 10 12  1  0  0  0  0
 12 13  1  0  0  0  0
 12 42  1  0  0  0  0
 13 14  1  0  0  0  0
 13 22  2  0  0  0  0
 14 15  2  0  0  0  0
 14 43  1  0  0  0  0
 15 16  1  0  0  0  0
 16 17  2  0  0  0  0
 16 44  1  0  0  0  0
 17 18  1  0  0  0  0
 17 22  1  0  0  0  0
 18 19  2  0  0  0  0
 18 45  1  0  0  0  0
 19 20  1  0  0  0  0
 19 46  1  0  0  0  0
 20 21  2  0  0  0  0
 20 47  1  0  0  0  0
 21 22  1  0  0  0  0
 21 48  1  0  0  0  0
 23 24  1  0  0  0  0
 23 29  2  0  0  0  0
 24 25  2  0  0  0  0
 24 49  1  0  0  0  0
 25 26  1  0  0  0  0
 25 27  1  0  0  0  0
 27 28  2  0  0  0  0
 27 50  1  0  0  0  0
 28 29  1  0  0  0  0
 28 51  1  0  0  0  0
 29 30  1  0  0  0  0
 30 52  1  0  0  0  0
 30 53  1  0  0  0  0
M  END
$$$$
