
 OpenBabel07202414183D

 33 35  0  0  0  0  0  0  0  0999 V2000
   -1.0140   -5.0296   -2.8254 Cl  0  0  0  0  0  0  0  0  0  0  0  0
    0.4161   -4.0728   -2.8000 C   0  0  0  0  0  0  0  0  0  0  0  0
    1.0273   -3.7079   -3.9946 C   0  0  0  0  0  0  0  0  0  0  0  0
    2.1701   -2.9086   -3.9645 C   0  0  0  0  0  0  0  0  0  0  0  0
    2.7081   -2.4896   -2.7417 C   0  0  0  0  0  0  0  0  0  0  0  0
    2.1231   -2.8883   -1.5309 C   0  0  0  0  0  0  0  0  0  0  0  0
    2.6331   -2.4389   -0.1798 C   0  0  0  0  0  0  0  0  0  0  0  0
    4.1139   -2.1436   -0.0895 C   0  0  0  0  0  0  0  0  0  0  0  0
    4.5384   -0.9907   -0.1849 O   0  0  0  0  0  0  0  0  0  0  0  0
    4.9227   -3.2575    0.0774 N   0  0  0  0  0  0  0  0  0  0  0  0
    6.3305   -3.0936    0.1378 C   0  0  0  0  0  0  0  0  0  0  0  0
    6.8973   -2.2300    1.0816 C   0  0  0  0  0  0  0  0  0  0  0  0
    8.2217   -1.9863    1.1985 N   0  0  0  0  0  0  0  0  0  0  0  0
    9.0219   -2.5937    0.2963 C   0  0  0  0  0  0  0  0  0  0  0  0
    8.5645   -3.4597   -0.6979 C   0  0  0  0  0  0  0  0  0  0  0  0
    9.4157   -4.0223   -1.6499 C   0  0  0  0  0  0  0  0  0  0  0  0
    9.0048   -4.8258   -2.6580 N   0  0  0  0  0  0  0  0  0  0  0  0
    7.6856   -5.0845   -2.7223 C   0  0  0  0  0  0  0  0  0  0  0  0
    6.7548   -4.5899   -1.8190 C   0  0  0  0  0  0  0  0  0  0  0  0
    7.1865   -3.7473   -0.7786 C   0  0  0  0  0  0  0  0  0  0  0  0
    0.9526   -3.6650   -1.5778 C   0  0  0  0  0  0  0  0  0  0  0  0
    0.6121   -4.0268   -4.9469 H   0  0  0  0  0  0  0  0  0  0  0  0
    2.6356   -2.5986   -4.8989 H   0  0  0  0  0  0  0  0  0  0  0  0
    3.5780   -1.8338   -2.7569 H   0  0  0  0  0  0  0  0  0  0  0  0
    2.4029   -3.1996    0.5774 H   0  0  0  0  0  0  0  0  0  0  0  0
    2.0972   -1.5274    0.1120 H   0  0  0  0  0  0  0  0  0  0  0  0
    4.5650   -4.1161   -0.3206 H   0  0  0  0  0  0  0  0  0  0  0  0
    6.2795   -1.7046    1.8044 H   0  0  0  0  0  0  0  0  0  0  0  0
   10.0739   -2.3371    0.3872 H   0  0  0  0  0  0  0  0  0  0  0  0
   10.4830   -3.8193   -1.6444 H   0  0  0  0  0  0  0  0  0  0  0  0
    7.3764   -5.7089   -3.5572 H   0  0  0  0  0  0  0  0  0  0  0  0
    5.7119   -4.8385   -1.9699 H   0  0  0  0  0  0  0  0  0  0  0  0
    0.4456   -3.9435   -0.6559 H   0  0  0  0  0  0  0  0  0  0  0  0
  1  2  1  0  0  0  0
  2  3  1  0  0  0  0
  2 21  2  0  0  0  0
  3  4  2  0  0  0  0
  3 22  1  0  0  0  0
  4  5  1  0  0  0  0
  4 23  1  0  0  0  0
  5  6  2  0  0  0  0
  5 24  1  0  0  0  0
  6  7  1  0  0  0  0
  6 21  1  0  0  0  0
  7  8  1  0  0  0  0
  7 25  1  0  0  0  0
  7 26  1  0  0  0  0
  8  9  2  0  0  0  0
  8 10  1  0  0  0  0
 10 11  1  0  0  0  0
 10 27  1  0  0  0  0
 11 12  1  0  0  0  0
 11 20  2  0  0  0  0
 12 13  2  0  0  0  0
 12 28  1  0  0  0  0
 13 14  1  0  0  0  0
 14 15  2  0  0  0  0
 14 29  1  0  0  0  0
 15 16  1  0  0  0  0
 15 20  1  0  0  0  0
 16 17  2  0  0  0  0
 16 30  1  0  0  0  0
 17 18  1  0  0  0  0
 18 19  2  0  0  0  0
 18 31  1  0  0  0  0
 19 20  1  0  0  0  0
 19 32  1  0  0  0  0
 21 33  1  0  0  0  0
M  END
$$$$
