
 OpenBabel07202414123D

 52 53  0  0  1  0  0  0  0  0999 V2000
    3.1712    2.3549    2.8281 C   0  0  0  0  0  0  0  0  0  0  0  0
    4.6914    2.2885    2.7016 C   0  0  0  0  0  0  0  0  0  0  0  0
    5.3148    2.0308    4.0786 C   0  0  0  0  0  0  0  0  0  0  0  0
    5.1640    1.2051    1.7024 C   0  0  0  0  0  0  0  0  0  0  0  0
    4.7008    1.3746    0.2222 C   0  0  1  0  0  0  0  0  0  0  0  0
    5.2166    2.7160   -0.3665 C   0  0  0  0  0  0  0  0  0  0  0  0
    6.6675    2.6799   -0.5629 N   0  0  0  0  0  0  0  0  0  0  0  0
    7.4519    3.6960   -0.0415 C   0  0  0  0  0  0  0  0  0  0  0  0
    7.0012    4.5842    0.6805 O   0  0  0  0  0  0  0  0  0  0  0  0
    8.9473    3.6622   -0.3696 C   0  0  0  0  0  0  0  0  0  0  0  0
    9.2440    3.6538   -1.7521 O   0  0  0  0  0  0  0  0  0  0  0  0
    8.8084    4.9581   -2.6104 S   0  0  0  0  0  0  0  0  0  0  0  0
    9.3615    4.5509   -4.1349 N   0  0  0  0  0  0  0  0  0  0  0  0
    7.3706    4.9843   -2.7194 O   0  0  0  0  0  0  0  0  0  0  0  0
    9.5973    6.0769   -2.1636 O   0  0  0  0  0  0  0  0  0  0  0  0
    7.1552    1.5342   -1.3364 C   0  0  0  0  0  0  0  0  0  0  0  0
    6.5987    0.2068   -0.7917 C   0  0  0  0  0  0  0  0  0  0  0  0
    5.1298    0.1856   -0.6016 N   0  0  0  0  0  0  0  0  0  0  0  0
    4.4187    0.1606   -1.9022 C   0  0  0  0  0  0  0  0  0  0  0  0
    4.7348   -1.0475   -2.7680 C   0  0  0  0  0  0  0  0  0  0  0  0
    5.2389   -0.8813   -4.0703 C   0  0  0  0  0  0  0  0  0  0  0  0
    5.5091   -1.9887   -4.8786 C   0  0  0  0  0  0  0  0  0  0  0  0
    5.2818   -3.2761   -4.3942 C   0  0  0  0  0  0  0  0  0  0  0  0
    4.7903   -3.4500   -3.1016 C   0  0  0  0  0  0  0  0  0  0  0  0
    4.5254   -5.0406   -2.5005 Cl  0  0  0  0  0  0  0  0  0  0  0  0
    4.5135   -2.3475   -2.2913 C   0  0  0  0  0  0  0  0  0  0  0  0
    2.8782    3.0686    3.6063 H   0  0  0  0  0  0  0  0  0  0  0  0
    2.7512    1.3789    3.0915 H   0  0  0  0  0  0  0  0  0  0  0  0
    2.7092    2.6894    1.8940 H   0  0  0  0  0  0  0  0  0  0  0  0
    5.0501    3.2713    2.3775 H   0  0  0  0  0  0  0  0  0  0  0  0
    5.0264    1.0497    4.4702 H   0  0  0  0  0  0  0  0  0  0  0  0
    4.9963    2.7913    4.8002 H   0  0  0  0  0  0  0  0  0  0  0  0
    6.4078    2.0681    4.0225 H   0  0  0  0  0  0  0  0  0  0  0  0
    4.8365    0.2218    2.0649 H   0  0  0  0  0  0  0  0  0  0  0  0
    6.2603    1.1962    1.7454 H   0  0  0  0  0  0  0  0  0  0  0  0
    3.6042    1.3918    0.2285 H   0  0  0  0  0  0  0  0  0  0  0  0
    4.9149    3.5637    0.2537 H   0  0  0  0  0  0  0  0  0  0  0  0
    4.7659    2.9030   -1.3486 H   0  0  0  0  0  0  0  0  0  0  0  0
    9.3727    2.7601    0.0865 H   0  0  0  0  0  0  0  0  0  0  0  0
    9.4397    4.5136    0.1120 H   0  0  0  0  0  0  0  0  0  0  0  0
    8.7783    3.8378   -4.5597 H   0  0  0  0  0  0  0  0  0  0  0  0
   10.3592    4.3541   -4.1280 H   0  0  0  0  0  0  0  0  0  0  0  0
    8.2435    1.4707   -1.3254 H   0  0  0  0  0  0  0  0  0  0  0  0
    6.8485    1.6915   -2.3763 H   0  0  0  0  0  0  0  0  0  0  0  0
    7.0752   -0.0032    0.1733 H   0  0  0  0  0  0  0  0  0  0  0  0
    6.9312   -0.6172   -1.4325 H   0  0  0  0  0  0  0  0  0  0  0  0
    4.6178    1.0666   -2.4853 H   0  0  0  0  0  0  0  0  0  0  0  0
    3.3357    0.1455   -1.7258 H   0  0  0  0  0  0  0  0  0  0  0  0
    5.4240    0.1145   -4.4680 H   0  0  0  0  0  0  0  0  0  0  0  0
    5.8945   -1.8489   -5.8860 H   0  0  0  0  0  0  0  0  0  0  0  0
    5.4894   -4.1359   -5.0255 H   0  0  0  0  0  0  0  0  0  0  0  0
    4.1334   -2.4945   -1.2830 H   0  0  0  0  0  0  0  0  0  0  0  0
  1  2  1  0  0  0  0
  1 27  1  0  0  0  0
  1 28  1  0  0  0  0
  1 29  1  0  0  0  0
  2  3  1  0  0  0  0
  2  4  1  0  0  0  0
  2 30  1  0  0  0  0
  3 31  1  0  0  0  0
  3 32  1  0  0  0  0
  3 33  1  0  0  0  0
  4 34  1  0  0  0  0
  4 35  1  0  0  0  0
  5  6  1  0  0  0  0
  5 18  1  0  0  0  0
  5  4  1  0  0  0  0
  5 36  1  6  0  0  0
  6  7  1  0  0  0  0
  6 37  1  0  0  0  0
  6 38  1  0  0  0  0
  7  8  1  0  0  0  0
  7 16  1  0  0  0  0
  8  9  2  0  0  0  0
  8 10  1  0  0  0  0
 10 11  1  0  0  0  0
 10 39  1  0  0  0  0
 10 40  1  0  0  0  0
 11 12  1  0  0  0  0
 12 13  1  0  0  0  0
 12 14  2  0  0  0  0
 12 15  2  0  0  0  0
 13 41  1  0  0  0  0
 13 42  1  0  0  0  0
 16 17  1  0  0  0  0
 16 43  1  0  0  0  0
 16 44  1  0  0  0  0
 17 18  1  0  0  0  0
 17 45  1  0  0  0  0
 17 46  1  0  0  0  0
 18 19  1  0  0  0  0
 19 20  1  0  0  0  0
 19 47  1  0  0  0  0
 19 48  1  0  0  0  0
 20 21  1  0  0  0  0
 20 26  2  0  0  0  0
 21 22  2  0  0  0  0
 21 49  1  0  0  0  0
 22 23  1  0  0  0  0
 22 50  1  0  0  0  0
 23 24  2  0  0  0  0
 23 51  1  0  0  0  0
 24 25  1  0  0  0  0
 24 26  1  0  0  0  0
 26 52  1  0  0  0  0
M  END
$$$$
