
 OpenBabel07202414193D

 44 47  0  0  1  0  0  0  0  0999 V2000
    1.0610    0.6808   -0.0539 O   0  0  0  0  0  0  0  0  0  0  0  0
    2.1248    0.0586   -0.0568 C   0  0  0  0  0  0  0  0  0  0  0  0
    2.6806   -0.5226    1.2373 C   0  0  0  0  0  0  0  0  0  0  0  0
    2.1804   -1.9142    1.5374 C   0  0  0  0  0  0  0  0  0  0  0  0
    0.8003   -2.0890    1.6935 C   0  0  0  0  0  0  0  0  0  0  0  0
    0.2048   -3.2569    1.9970 N   0  0  0  0  0  0  0  0  0  0  0  0
    1.0191   -4.3191    2.1603 C   0  0  0  0  0  0  0  0  0  0  0  0
    2.4074   -4.2836    2.0334 C   0  0  0  0  0  0  0  0  0  0  0  0
    3.1813   -5.4431    2.2233 C   0  0  0  0  0  0  0  0  0  0  0  0
    4.5667   -5.4033    2.0942 C   0  0  0  0  0  0  0  0  0  0  0  0
    5.1912   -4.2046    1.7790 C   0  0  0  0  0  0  0  0  0  0  0  0
    4.4312   -3.0446    1.5965 C   0  0  0  0  0  0  0  0  0  0  0  0
    3.0177   -3.0484    1.7127 C   0  0  0  0  0  0  0  0  0  0  0  0
    2.8507   -0.1221   -1.2105 N   0  0  0  0  0  0  0  0  0  0  0  0
    2.4744    0.5210   -2.4607 C   0  0  0  0  0  0  0  0  0  0  0  0
    3.7826    0.6177   -3.2350 C   0  0  1  0  0  0  0  0  0  0  0  0
    4.4310    1.7394   -2.8137 F   0  0  0  0  0  0  0  0  0  0  0  0
    4.5403   -0.6530   -2.8147 C   0  0  1  0  0  0  0  0  0  0  0  0
    6.0489   -0.6009   -2.9255 C   0  0  0  0  0  0  0  0  0  0  0  0
    6.8009    0.3429   -2.2048 C   0  0  0  0  0  0  0  0  0  0  0  0
    8.1937    0.3529   -2.2645 C   0  0  0  0  0  0  0  0  0  0  0  0
    8.8597   -0.5814   -3.0508 C   0  0  0  0  0  0  0  0  0  0  0  0
    8.1308   -1.5201   -3.7787 C   0  0  0  0  0  0  0  0  0  0  0  0
    6.7345   -1.5316   -3.7176 C   0  0  0  0  0  0  0  0  0  0  0  0
    4.0705   -0.8954   -1.3708 C   0  0  0  0  0  0  0  0  0  0  0  0
    2.3660    0.1399    2.0554 H   0  0  0  0  0  0  0  0  0  0  0  0
    3.7681   -0.4438    1.2448 H   0  0  0  0  0  0  0  0  0  0  0  0
    0.1120   -1.2517    1.5825 H   0  0  0  0  0  0  0  0  0  0  0  0
    0.4999   -5.2410    2.4108 H   0  0  0  0  0  0  0  0  0  0  0  0
    2.7043   -6.3878    2.4766 H   0  0  0  0  0  0  0  0  0  0  0  0
    5.1553   -6.3049    2.2426 H   0  0  0  0  0  0  0  0  0  0  0  0
    6.2735   -4.1653    1.6781 H   0  0  0  0  0  0  0  0  0  0  0  0
    4.9745   -2.1345    1.3621 H   0  0  0  0  0  0  0  0  0  0  0  0
    2.0219    1.4995   -2.2752 H   0  0  0  0  0  0  0  0  0  0  0  0
    1.7550   -0.1331   -2.9642 H   0  0  0  0  0  0  0  0  0  0  0  0
    3.6392    0.7016   -4.3157 H   0  0  0  0  0  0  0  0  0  0  0  0
    4.1557   -1.4805   -3.4293 H   0  0  0  0  0  0  0  0  0  0  0  0
    6.3056    1.0859   -1.5809 H   0  0  0  0  0  0  0  0  0  0  0  0
    8.7544    1.0899   -1.6955 H   0  0  0  0  0  0  0  0  0  0  0  0
    9.9454   -0.5765   -3.0962 H   0  0  0  0  0  0  0  0  0  0  0  0
    8.6530   -2.2482   -4.3938 H   0  0  0  0  0  0  0  0  0  0  0  0
    6.1926   -2.2813   -4.2899 H   0  0  0  0  0  0  0  0  0  0  0  0
    4.7963   -0.5833   -0.6167 H   0  0  0  0  0  0  0  0  0  0  0  0
    3.8384   -1.9537   -1.2095 H   0  0  0  0  0  0  0  0  0  0  0  0
  1  2  2  0  0  0  0
  2  3  1  0  0  0  0
  2 14  1  0  0  0  0
  3  4  1  0  0  0  0
  3 26  1  0  0  0  0
  3 27  1  0  0  0  0
  4  5  1  0  0  0  0
  4 13  2  0  0  0  0
  5  6  2  0  0  0  0
  5 28  1  0  0  0  0
  6  7  1  0  0  0  0
  7  8  2  0  0  0  0
  7 29  1  0  0  0  0
  8  9  1  0  0  0  0
  8 13  1  0  0  0  0
  9 10  2  0  0  0  0
  9 30  1  0  0  0  0
 10 11  1  0  0  0  0
 10 31  1  0  0  0  0
 11 12  2  0  0  0  0
 11 32  1  0  0  0  0
 12 13  1  0  0  0  0
 12 33  1  0  0  0  0
 14 15  1  0  0  0  0
 14 25  1  0  0  0  0
 15 16  1  0  0  0  0
 15 34  1  0  0  0  0
 15 35  1  0  0  0  0
 16 17  1  0  0  0  0
 16 18  1  0  0  0  0
 16 36  1  6  0  0  0
 18 19  1  0  0  0  0
 18 25  1  0  0  0  0
 18 37  1  6  0  0  0
 19 20  1  0  0  0  0
 19 24  2  0  0  0  0
 20 21  2  0  0  0  0
 20 38  1  0  0  0  0
 21 22  1  0  0  0  0
 21 39  1  0  0  0  0
 22 23  2  0  0  0  0
 22 40  1  0  0  0  0
 23 24  1  0  0  0  0
 23 41  1  0  0  0  0
 24 42  1  0  0  0  0
 25 43  1  0  0  0  0
 25 44  1  0  0  0  0
M  END
$$$$
