
 OpenBabel07202414193D

 44 47  0  0  1  0  0  0  0  0999 V2000
    1.2509    0.6910    0.1596 O   0  0  0  0  0  0  0  0  0  0  0  0
    2.2265    0.0110   -0.1632 C   0  0  0  0  0  0  0  0  0  0  0  0
    2.6285   -1.2031    0.6630 C   0  0  0  0  0  0  0  0  0  0  0  0
    3.7045   -0.9289    1.6883 C   0  0  0  0  0  0  0  0  0  0  0  0
    3.7163    0.3000    2.3565 C   0  0  0  0  0  0  0  0  0  0  0  0
    4.6198    0.6571    3.2907 N   0  0  0  0  0  0  0  0  0  0  0  0
    5.5568   -0.2616    3.6003 C   0  0  0  0  0  0  0  0  0  0  0  0
    5.6409   -1.5325    3.0356 C   0  0  0  0  0  0  0  0  0  0  0  0
    6.6417   -2.4388    3.4287 C   0  0  0  0  0  0  0  0  0  0  0  0
    6.7082   -3.7121    2.8700 C   0  0  0  0  0  0  0  0  0  0  0  0
    5.7709   -4.0938    1.9195 C   0  0  0  0  0  0  0  0  0  0  0  0
    4.7722   -3.1993    1.5211 C   0  0  0  0  0  0  0  0  0  0  0  0
    4.6830   -1.8915    2.0588 C   0  0  0  0  0  0  0  0  0  0  0  0
    2.9959    0.3113   -1.2673 N   0  0  0  0  0  0  0  0  0  0  0  0
    4.1568   -0.4268   -1.7511 C   0  0  0  0  0  0  0  0  0  0  0  0
    4.6096    0.3202   -3.0013 C   0  0  0  0  0  0  0  0  0  0  0  0
    3.3168    0.9876   -3.4837 C   0  0  2  0  0  0  0  0  0  0  0  0
    3.5078    2.1086   -4.4981 C   0  0  0  0  0  0  0  0  0  0  0  0
    4.0215    3.4089   -3.8910 C   0  0  0  0  0  0  0  0  0  0  0  0
    3.1811    3.8339   -2.6921 C   0  0  0  0  0  0  0  0  0  0  0  0
    3.1691    2.7508   -1.6201 C   0  0  0  0  0  0  0  0  0  0  0  0
    2.6527    1.4111   -2.1662 C   0  0  2  0  0  0  0  0  0  0  0  0
    2.9169   -1.9931   -0.0343 H   0  0  0  0  0  0  0  0  0  0  0  0
    1.7348   -1.5731    1.1808 H   0  0  0  0  0  0  0  0  0  0  0  0
    2.9696    1.0667    2.1565 H   0  0  0  0  0  0  0  0  0  0  0  0
    6.2650    0.0658    4.3574 H   0  0  0  0  0  0  0  0  0  0  0  0
    7.3760   -2.1556    4.1801 H   0  0  0  0  0  0  0  0  0  0  0  0
    7.4851   -4.4053    3.1818 H   0  0  0  0  0  0  0  0  0  0  0  0
    5.8107   -5.0906    1.4871 H   0  0  0  0  0  0  0  0  0  0  0  0
    4.0553   -3.5552    0.7868 H   0  0  0  0  0  0  0  0  0  0  0  0
    3.8436   -1.4476   -1.9947 H   0  0  0  0  0  0  0  0  0  0  0  0
    4.9350   -0.4622   -0.9844 H   0  0  0  0  0  0  0  0  0  0  0  0
    5.0385   -0.3548   -3.7477 H   0  0  0  0  0  0  0  0  0  0  0  0
    5.3724    1.0632   -2.7421 H   0  0  0  0  0  0  0  0  0  0  0  0
    2.7013    0.2048   -3.9511 H   0  0  0  0  0  0  0  0  0  0  0  0
    2.5380    2.3119   -4.9706 H   0  0  0  0  0  0  0  0  0  0  0  0
    4.1812    1.7814   -5.2989 H   0  0  0  0  0  0  0  0  0  0  0  0
    4.0012    4.1977   -4.6519 H   0  0  0  0  0  0  0  0  0  0  0  0
    5.0681    3.2914   -3.5863 H   0  0  0  0  0  0  0  0  0  0  0  0
    2.1545    4.0464   -3.0147 H   0  0  0  0  0  0  0  0  0  0  0  0
    3.5842    4.7631   -2.2735 H   0  0  0  0  0  0  0  0  0  0  0  0
    2.5485    3.0730   -0.7754 H   0  0  0  0  0  0  0  0  0  0  0  0
    4.1847    2.6362   -1.2185 H   0  0  0  0  0  0  0  0  0  0  0  0
    1.5641    1.4676   -2.2863 H   0  0  0  0  0  0  0  0  0  0  0  0
  1  2  2  0  0  0  0
  2  3  1  0  0  0  0
  2 14  1  0  0  0  0
  3  4  1  0  0  0  0
  3 23  1  0  0  0  0
  3 24  1  0  0  0  0
  4  5  1  0  0  0  0
  4 13  2  0  0  0  0
  5  6  2  0  0  0  0
  5 25  1  0  0  0  0
  6  7  1  0  0  0  0
  7  8  2  0  0  0  0
  7 26  1  0  0  0  0
  8  9  1  0  0  0  0
  8 13  1  0  0  0  0
  9 10  2  0  0  0  0
  9 27  1  0  0  0  0
 10 11  1  0  0  0  0
 10 28  1  0  0  0  0
 11 12  2  0  0  0  0
 11 29  1  0  0  0  0
 12 13  1  0  0  0  0
 12 30  1  0  0  0  0
 14 15  1  0  0  0  0
 14 22  1  0  0  0  0
 15 16  1  0  0  0  0
 15 31  1  0  0  0  0
 15 32  1  0  0  0  0
 16 17  1  0  0  0  0
 16 33  1  0  0  0  0
 16 34  1  0  0  0  0
 17 18  1  0  0  0  0
 17 22  1  0  0  0  0
 17 35  1  6  0  0  0
 18 19  1  0  0  0  0
 18 36  1  0  0  0  0
 18 37  1  0  0  0  0
 19 20  1  0  0  0  0
 19 38  1  0  0  0  0
 19 39  1  0  0  0  0
 20 21  1  0  0  0  0
 20 40  1  0  0  0  0
 20 41  1  0  0  0  0
 21 22  1  0  0  0  0
 21 42  1  0  0  0  0
 21 43  1  0  0  0  0
 22 44  1  6  0  0  0
M  END
$$$$
