
 OpenBabel07202414173D

 61 65  0  0  1  0  0  0  0  0999 V2000
    0.8519   -0.0312   -0.0108 Cl  0  0  0  0  0  0  0  0  0  0  0  0
    2.5670   -0.0208    0.1236 C   0  0  0  0  0  0  0  0  0  0  0  0
    3.2544    1.1816   -0.0047 C   0  0  0  0  0  0  0  0  0  0  0  0
    4.6435    1.1901    0.0782 C   0  0  0  0  0  0  0  0  0  0  0  0
    5.3540   -0.0016    0.2984 C   0  0  0  0  0  0  0  0  0  0  0  0
    4.6597   -1.2169    0.4444 C   0  0  0  0  0  0  0  0  0  0  0  0
    3.2570   -1.2134    0.3496 C   0  0  0  0  0  0  0  0  0  0  0  0
    5.4224   -2.5134    0.7185 C   0  0  3  0  0  0  0  0  0  0  0  0
    5.2817   -2.9622    2.2009 C   0  0  0  0  0  0  0  0  0  0  0  0
    4.2702   -2.6930    2.8457 O   0  0  0  0  0  0  0  0  0  0  0  0
    6.2962   -3.7705    2.6797 N   0  0  0  0  0  0  0  0  0  0  0  0
    6.4577   -4.2844    3.9954 C   0  0  0  0  0  0  0  0  0  0  0  0
    5.5527   -4.0488    5.0294 C   0  0  0  0  0  0  0  0  0  0  0  0
    5.7962   -4.3270    6.3320 N   0  0  0  0  0  0  0  0  0  0  0  0
    6.9676   -4.9333    6.6110 C   0  0  0  0  0  0  0  0  0  0  0  0
    7.8793   -5.3680    5.6513 C   0  0  0  0  0  0  0  0  0  0  0  0
    9.0040   -6.1343    6.0100 C   0  0  0  0  0  0  0  0  0  0  0  0
    9.8933   -6.5922    5.0412 C   0  0  0  0  0  0  0  0  0  0  0  0
    9.6894   -6.2587    3.7103 C   0  0  0  0  0  0  0  0  0  0  0  0
    8.5829   -5.4872    3.3457 C   0  0  0  0  0  0  0  0  0  0  0  0
    7.6342   -5.0315    4.3010 C   0  0  0  0  0  0  0  0  0  0  0  0
    6.8603   -2.3741    0.1766 C   0  0  0  0  0  0  0  0  0  0  0  0
    7.5465   -1.1722    0.7645 N   0  0  0  0  0  0  0  0  0  0  0  0
    9.2393   -1.1594    0.4874 S   0  0  0  0  0  0  0  0  0  0  0  0
    9.7573   -2.3555    1.1178 O   0  0  0  0  0  0  0  0  0  0  0  0
    9.4225   -0.9235   -0.9260 O   0  0  0  0  0  0  0  0  0  0  0  0
    9.7960    0.2738    1.4265 C   0  0  0  0  0  0  0  0  0  0  0  0
   11.2855    0.6465    1.2591 C   0  0  0  0  0  0  0  0  0  0  0  0
   11.5551    1.0243   -0.1534 C   0  0  0  0  0  0  0  0  0  0  0  0
   11.7743    1.3735   -1.2299 N   0  0  0  0  0  0  0  0  0  0  0  0
   12.2737   -0.4519    1.6941 C   0  0  0  0  0  0  0  0  0  0  0  0
   12.2506   -0.6674    3.2014 C   0  0  0  0  0  0  0  0  0  0  0  0
   12.5660    0.5486    3.8748 O   0  0  0  0  0  0  0  0  0  0  0  0
   11.6323    1.5904    3.6171 C   0  0  0  0  0  0  0  0  0  0  0  0
   11.5832    1.9081    2.1273 C   0  0  0  0  0  0  0  0  0  0  0  0
    6.8610    0.0652    0.2967 C   0  0  0  0  0  0  0  0  0  0  0  0
    2.7195    2.1116   -0.1761 H   0  0  0  0  0  0  0  0  0  0  0  0
    5.1748    2.1330   -0.0390 H   0  0  0  0  0  0  0  0  0  0  0  0
    2.6978   -2.1393    0.4678 H   0  0  0  0  0  0  0  0  0  0  0  0
    4.9439   -3.3127    0.1343 H   0  0  0  0  0  0  0  0  0  0  0  0
    7.1199   -3.8675    2.1114 H   0  0  0  0  0  0  0  0  0  0  0  0
    4.5778   -3.6025    4.8660 H   0  0  0  0  0  0  0  0  0  0  0  0
    7.1551   -5.0756    7.6725 H   0  0  0  0  0  0  0  0  0  0  0  0
    9.1741   -6.4088    7.0492 H   0  0  0  0  0  0  0  0  0  0  0  0
   10.7370   -7.2164    5.3237 H   0  0  0  0  0  0  0  0  0  0  0  0
   10.3808   -6.6080    2.9469 H   0  0  0  0  0  0  0  0  0  0  0  0
    8.4652   -5.2858    2.2849 H   0  0  0  0  0  0  0  0  0  0  0  0
    6.8294   -2.2634   -0.9160 H   0  0  0  0  0  0  0  0  0  0  0  0
    7.4440   -3.2788    0.3638 H   0  0  0  0  0  0  0  0  0  0  0  0
    9.5387    0.0617    2.4678 H   0  0  0  0  0  0  0  0  0  0  0  0
    9.1956    1.1246    1.0891 H   0  0  0  0  0  0  0  0  0  0  0  0
   13.2915   -0.1400    1.4176 H   0  0  0  0  0  0  0  0  0  0  0  0
   12.0980   -1.3946    1.1663 H   0  0  0  0  0  0  0  0  0  0  0  0
   13.0113   -1.4040    3.4811 H   0  0  0  0  0  0  0  0  0  0  0  0
   11.2848   -1.0444    3.5528 H   0  0  0  0  0  0  0  0  0  0  0  0
   11.9629    2.4773    4.1717 H   0  0  0  0  0  0  0  0  0  0  0  0
   10.6508    1.3125    4.0133 H   0  0  0  0  0  0  0  0  0  0  0  0
   12.5626    2.3183    1.8411 H   0  0  0  0  0  0  0  0  0  0  0  0
   10.8492    2.7021    1.9393 H   0  0  0  0  0  0  0  0  0  0  0  0
    7.1779    0.3039   -0.7255 H   0  0  0  0  0  0  0  0  0  0  0  0
    7.1405    0.8839    0.9663 H   0  0  0  0  0  0  0  0  0  0  0  0
  1  2  1  0  0  0  0
  2  3  1  0  0  0  0
  2  7  2  0  0  0  0
  3  4  2  0  0  0  0
  3 37  1  0  0  0  0
  4  5  1  0  0  0  0
  4 38  1  0  0  0  0
  5  6  2  0  0  0  0
  5 36  1  0  0  0  0
  6  7  1  0  0  0  0
  6  8  1  0  0  0  0
  7 39  1  0  0  0  0
  8  9  1  0  0  0  0
  8 22  1  0  0  0  0
  8 40  1  0  0  0  0
  9 10  2  0  0  0  0
  9 11  1  0  0  0  0
 11 12  1  0  0  0  0
 11 41  1  0  0  0  0
 12 13  1  0  0  0  0
 12 21  2  0  0  0  0
 13 14  2  0  0  0  0
 13 42  1  0  0  0  0
 14 15  1  0  0  0  0
 15 16  2  0  0  0  0
 15 43  1  0  0  0  0
 16 17  1  0  0  0  0
 16 21  1  0  0  0  0
 17 18  2  0  0  0  0
 17 44  1  0  0  0  0
 18 19  1  0  0  0  0
 18 45  1  0  0  0  0
 19 20  2  0  0  0  0
 19 46  1  0  0  0  0
 20 21  1  0  0  0  0
 20 47  1  0  0  0  0
 22 23  1  0  0  0  0
 22 48  1  0  0  0  0
 22 49  1  0  0  0  0
 23 24  1  0  0  0  0
 23 36  1  0  0  0  0
 24 25  2  0  0  0  0
 24 26  2  0  0  0  0
 24 27  1  0  0  0  0
 27 28  1  0  0  0  0
 27 50  1  0  0  0  0
 27 51  1  0  0  0  0
 28 29  1  0  0  0  0
 28 31  1  0  0  0  0
 28 35  1  0  0  0  0
 29 30  3  0  0  0  0
 31 32  1  0  0  0  0
 31 52  1  0  0  0  0
 31 53  1  0  0  0  0
 32 33  1  0  0  0  0
 32 54  1  0  0  0  0
 32 55  1  0  0  0  0
 33 34  1  0  0  0  0
 34 35  1  0  0  0  0
 34 56  1  0  0  0  0
 34 57  1  0  0  0  0
 35 58  1  0  0  0  0
 35 59  1  0  0  0  0
 36 60  1  0  0  0  0
 36 61  1  0  0  0  0
M  END
$$$$
