
 OpenBabel07202414123D

 61 65  0  0  1  0  0  0  0  0999 V2000
    0.7746   -0.0055   -0.1871 C   0  0  0  0  0  0  0  0  0  0  0  0
    2.3166   -0.0030   -0.0702 C   0  0  3  0  0  0  0  0  0  0  0  0
    2.7698   -1.1014    0.8360 N   0  0  0  0  0  0  0  0  0  0  0  0
    2.4229   -2.4322    0.6590 C   0  0  0  0  0  0  0  0  0  0  0  0
    1.8095   -2.8338   -0.3263 O   0  0  0  0  0  0  0  0  0  0  0  0
    3.0253   -3.3981    1.6862 C   0  0  0  0  0  0  0  0  0  0  0  0
    2.0506   -4.2894    2.2652 N   0  0  0  0  0  0  0  0  0  0  0  0
    1.5267   -5.4698    1.6084 C   0  0  0  0  0  0  0  0  0  0  0  0
    0.5849   -6.0386    2.6621 C   0  0  0  0  0  0  0  0  0  0  0  0
    0.2063   -4.8646    3.4106 N   0  0  0  0  0  0  0  0  0  0  0  0
   -0.8784   -4.8630    4.3272 C   0  0  0  0  0  0  0  0  0  0  0  0
   -2.2778   -5.1168    3.8248 C   0  0  0  0  0  0  0  0  0  0  0  0
   -1.9043   -3.7619    4.3427 C   0  0  0  0  0  0  0  0  0  0  0  0
    1.1632   -3.8539    3.2557 C   0  0  0  0  0  0  0  0  0  0  0  0
    1.2276   -2.7770    3.8257 O   0  0  0  0  0  0  0  0  0  0  0  0
    2.9116   -0.1310   -1.5376 C   0  0  0  0  0  0  0  0  0  0  0  0
    2.5279    0.5914   -2.4571 O   0  0  0  0  0  0  0  0  0  0  0  0
    3.9469   -1.0509   -1.6617 N   0  0  0  0  0  0  0  0  0  0  0  0
    4.5232   -1.4024   -2.9052 C   0  0  0  0  0  0  0  0  0  0  0  0
    4.9202   -0.4202   -3.8128 C   0  0  0  0  0  0  0  0  0  0  0  0
    5.5166   -0.6754   -4.9980 N   0  0  0  0  0  0  0  0  0  0  0  0
    5.6911   -1.9792   -5.3106 C   0  0  0  0  0  0  0  0  0  0  0  0
    5.3187   -3.0521   -4.4994 C   0  0  0  0  0  0  0  0  0  0  0  0
    5.4937   -4.3895   -4.9171 C   0  0  0  0  0  0  0  0  0  0  0  0
    5.0701   -5.4466   -4.1158 C   0  0  0  0  0  0  0  0  0  0  0  0
    4.4776   -5.1878   -2.8895 C   0  0  0  0  0  0  0  0  0  0  0  0
    4.3135   -3.8687   -2.4611 C   0  0  0  0  0  0  0  0  0  0  0  0
    4.7267   -2.7655   -3.2478 C   0  0  0  0  0  0  0  0  0  0  0  0
    2.8460    1.3489    0.4982 C   0  0  0  0  0  0  0  0  0  0  0  0
    4.2270    1.5352    0.6984 C   0  0  0  0  0  0  0  0  0  0  0  0
    4.7397    2.7663    1.1328 C   0  0  0  0  0  0  0  0  0  0  0  0
    3.8851    3.8411    1.3829 C   0  0  0  0  0  0  0  0  0  0  0  0
    4.5872    5.3333    1.8962 Cl  0  0  0  0  0  0  0  0  0  0  0  0
    2.5116    3.6799    1.2039 C   0  0  0  0  0  0  0  0  0  0  0  0
    1.3832    4.9581    1.4934 Cl  0  0  0  0  0  0  0  0  0  0  0  0
    2.0024    2.4476    0.7661 C   0  0  0  0  0  0  0  0  0  0  0  0
    0.3806   -0.9567   -0.5522 H   0  0  0  0  0  0  0  0  0  0  0  0
    0.4206    0.7520   -0.8972 H   0  0  0  0  0  0  0  0  0  0  0  0
    0.2981    0.1840    0.7828 H   0  0  0  0  0  0  0  0  0  0  0  0
    2.8975   -0.8274    1.8061 H   0  0  0  0  0  0  0  0  0  0  0  0
    3.5175   -2.8393    2.4868 H   0  0  0  0  0  0  0  0  0  0  0  0
    3.7852   -4.0006    1.1749 H   0  0  0  0  0  0  0  0  0  0  0  0
    2.3259   -6.1621    1.3318 H   0  0  0  0  0  0  0  0  0  0  0  0
    0.9673   -5.1629    0.7184 H   0  0  0  0  0  0  0  0  0  0  0  0
    1.1198   -6.7111    3.3436 H   0  0  0  0  0  0  0  0  0  0  0  0
   -0.2797   -6.5540    2.2368 H   0  0  0  0  0  0  0  0  0  0  0  0
   -0.6118   -5.2822    5.2942 H   0  0  0  0  0  0  0  0  0  0  0  0
   -2.9278   -5.7377    4.4285 H   0  0  0  0  0  0  0  0  0  0  0  0
   -2.4361   -5.2116    2.7564 H   0  0  0  0  0  0  0  0  0  0  0  0
   -2.3064   -3.4563    5.3013 H   0  0  0  0  0  0  0  0  0  0  0  0
   -1.7923   -2.9507    3.6325 H   0  0  0  0  0  0  0  0  0  0  0  0
    3.9661   -1.7512   -0.9390 H   0  0  0  0  0  0  0  0  0  0  0  0
    4.8001    0.6367   -3.5905 H   0  0  0  0  0  0  0  0  0  0  0  0
    6.1470   -2.1448   -6.2834 H   0  0  0  0  0  0  0  0  0  0  0  0
    5.9377   -4.6047   -5.8837 H   0  0  0  0  0  0  0  0  0  0  0  0
    5.1867   -6.4706   -4.4600 H   0  0  0  0  0  0  0  0  0  0  0  0
    4.1172   -6.0067   -2.2716 H   0  0  0  0  0  0  0  0  0  0  0  0
    3.8048   -3.7218   -1.5168 H   0  0  0  0  0  0  0  0  0  0  0  0
    4.9329    0.7326    0.4902 H   0  0  0  0  0  0  0  0  0  0  0  0
    5.8141    2.8856    1.2577 H   0  0  0  0  0  0  0  0  0  0  0  0
    0.9270    2.3805    0.6180 H   0  0  0  0  0  0  0  0  0  0  0  0
  1  2  1  0  0  0  0
  1 37  1  0  0  0  0
  1 38  1  0  0  0  0
  1 39  1  0  0  0  0
  2  3  1  0  0  0  0
  2 16  1  0  0  0  0
  2 29  1  0  0  0  0
  3  4  1  0  0  0  0
  3 40  1  0  0  0  0
  4  5  2  0  0  0  0
  4  6  1  0  0  0  0
  6  7  1  0  0  0  0
  6 41  1  0  0  0  0
  6 42  1  0  0  0  0
  7  8  1  0  0  0  0
  7 14  1  0  0  0  0
  8  9  1  0  0  0  0
  8 43  1  0  0  0  0
  8 44  1  0  0  0  0
  9 10  1  0  0  0  0
  9 45  1  0  0  0  0
  9 46  1  0  0  0  0
 10 11  1  0  0  0  0
 10 14  1  0  0  0  0
 11 12  1  0  0  0  0
 11 13  1  0  0  0  0
 11 47  1  0  0  0  0
 12 13  1  0  0  0  0
 12 48  1  0  0  0  0
 12 49  1  0  0  0  0
 13 50  1  0  0  0  0
 13 51  1  0  0  0  0
 14 15  2  0  0  0  0
 16 17  2  0  0  0  0
 16 18  1  0  0  0  0
 18 19  1  0  0  0  0
 18 52  1  0  0  0  0
 19 20  1  0  0  0  0
 19 28  2  0  0  0  0
 20 21  2  0  0  0  0
 20 53  1  0  0  0  0
 21 22  1  0  0  0  0
 22 23  2  0  0  0  0
 22 54  1  0  0  0  0
 23 24  1  0  0  0  0
 23 28  1  0  0  0  0
 24 25  2  0  0  0  0
 24 55  1  0  0  0  0
 25 26  1  0  0  0  0
 25 56  1  0  0  0  0
 26 27  2  0  0  0  0
 26 57  1  0  0  0  0
 27 28  1  0  0  0  0
 27 58  1  0  0  0  0
 29 30  1  0  0  0  0
 29 36  2  0  0  0  0
 30 31  2  0  0  0  0
 30 59  1  0  0  0  0
 31 32  1  0  0  0  0
 31 60  1  0  0  0  0
 32 33  1  0  0  0  0
 32 34  2  0  0  0  0
 34 35  1  0  0  0  0
 34 36  1  0  0  0  0
 36 61  1  0  0  0  0
M  END
$$$$
