
 OpenBabel07202414203D

 39 42  0  0  1  0  0  0  0  0999 V2000
    4.8153   -0.6336   -0.3719 C   0  0  0  0  0  0  0  0  0  0  0  0
    4.8218    0.6802    0.0795 C   0  0  0  0  0  0  0  0  0  0  0  0
    3.6622    1.4658    0.0085 C   0  0  0  0  0  0  0  0  0  0  0  0
    2.4459    0.9593   -0.5202 C   0  0  0  0  0  0  0  0  0  0  0  0
    2.4804   -0.3871   -0.9855 C   0  0  0  0  0  0  0  0  0  0  0  0
    3.6478   -1.1634   -0.9056 C   0  0  0  0  0  0  0  0  0  0  0  0
    1.3245   -0.9331   -1.5382 C   0  0  0  0  0  0  0  0  0  0  0  0
    0.1596   -0.2780   -1.6592 N   0  0  0  0  0  0  0  0  0  0  0  0
    0.1414    1.0004   -1.2154 C   0  0  0  0  0  0  0  0  0  0  0  0
    1.2263    1.6858   -0.6475 C   0  0  0  0  0  0  0  0  0  0  0  0
    1.0873    3.0383   -0.1782 N   0  0  0  0  0  0  0  0  0  0  0  0
    0.0875    3.8946   -0.6053 C   0  0  0  0  0  0  0  0  0  0  0  0
   -0.6437    3.6546   -1.5690 O   0  0  0  0  0  0  0  0  0  0  0  0
   -0.1264    5.2130    0.1323 C   0  0  3  0  0  0  0  0  0  0  0  0
   -0.3490    5.0903    1.6341 C   0  0  0  0  0  0  0  0  0  0  0  0
   -0.8757    6.4458    2.0946 C   0  0  0  0  0  0  0  0  0  0  0  0
    0.0897    7.4857    1.9125 O   0  0  0  0  0  0  0  0  0  0  0  0
    0.7631    7.4785    0.7183 C   0  0  0  0  0  0  0  0  0  0  0  0
    0.7927    6.3785   -0.1583 C   0  0  0  0  0  0  0  0  0  0  0  0
    1.5382    6.4859   -1.3408 C   0  0  0  0  0  0  0  0  0  0  0  0
    2.2189    7.6740   -1.6491 C   0  0  0  0  0  0  0  0  0  0  0  0
    2.1566    8.7671   -0.7779 C   0  0  0  0  0  0  0  0  0  0  0  0
    1.4415    8.6596    0.4138 C   0  0  0  0  0  0  0  0  0  0  0  0
    2.9131   10.2810   -1.1270 Cl  0  0  0  0  0  0  0  0  0  0  0  0
    3.0902    7.7355   -3.1402 Cl  0  0  0  0  0  0  0  0  0  0  0  0
    5.7129   -1.2436   -0.3183 H   0  0  0  0  0  0  0  0  0  0  0  0
    5.7406    1.0996    0.4831 H   0  0  0  0  0  0  0  0  0  0  0  0
    3.7336    2.4904    0.3584 H   0  0  0  0  0  0  0  0  0  0  0  0
    3.6549   -2.1919   -1.2659 H   0  0  0  0  0  0  0  0  0  0  0  0
    1.3064   -1.9503   -1.9193 H   0  0  0  0  0  0  0  0  0  0  0  0
   -0.8418    1.4500   -1.3132 H   0  0  0  0  0  0  0  0  0  0  0  0
    1.8353    3.4208    0.3833 H   0  0  0  0  0  0  0  0  0  0  0  0
   -1.0934    5.5504   -0.2794 H   0  0  0  0  0  0  0  0  0  0  0  0
    0.5890    4.8571    2.1530 H   0  0  0  0  0  0  0  0  0  0  0  0
   -1.0724    4.3012    1.8643 H   0  0  0  0  0  0  0  0  0  0  0  0
   -1.1286    6.4145    3.1591 H   0  0  0  0  0  0  0  0  0  0  0  0
   -1.7935    6.7263    1.5595 H   0  0  0  0  0  0  0  0  0  0  0  0
    1.5638    5.6649   -2.0554 H   0  0  0  0  0  0  0  0  0  0  0  0
    1.3787    9.5039    1.0968 H   0  0  0  0  0  0  0  0  0  0  0  0
  1  2  1  0  0  0  0
  1  6  2  0  0  0  0
  1 26  1  0  0  0  0
  2  3  2  0  0  0  0
  2 27  1  0  0  0  0
  3  4  1  0  0  0  0
  3 28  1  0  0  0  0
  4  5  1  0  0  0  0
  4 10  2  0  0  0  0
  5  6  1  0  0  0  0
  5  7  2  0  0  0  0
  6 29  1  0  0  0  0
  7  8  1  0  0  0  0
  7 30  1  0  0  0  0
  8  9  2  0  0  0  0
  9 10  1  0  0  0  0
  9 31  1  0  0  0  0
 10 11  1  0  0  0  0
 11 12  1  0  0  0  0
 11 32  1  0  0  0  0
 12 13  2  0  0  0  0
 12 14  1  0  0  0  0
 14 15  1  0  0  0  0
 14 19  1  0  0  0  0
 14 33  1  0  0  0  0
 15 16  1  0  0  0  0
 15 34  1  0  0  0  0
 15 35  1  0  0  0  0
 16 17  1  0  0  0  0
 16 36  1  0  0  0  0
 16 37  1  0  0  0  0
 17 18  1  0  0  0  0
 18 19  1  0  0  0  0
 18 23  2  0  0  0  0
 19 20  2  0  0  0  0
 20 21  1  0  0  0  0
 20 38  1  0  0  0  0
 21 22  2  0  0  0  0
 21 25  1  0  0  0  0
 22 23  1  0  0  0  0
 22 24  1  0  0  0  0
 23 39  1  0  0  0  0
M  END
$$$$
