
 OpenBabel07202414133D

 55 58  0  0  1  0  0  0  0  0999 V2000
    3.0759   -0.5662   -0.7755 C   0  0  0  0  0  0  0  0  0  0  0  0
    2.6644    0.6434   -0.0104 N   0  0  0  0  0  0  0  0  0  0  0  0
    1.1673    0.8276   -0.2008 C   0  0  0  0  0  0  0  0  0  0  0  0
    0.5739    2.1032    0.4007 C   0  0  0  0  0  0  0  0  0  0  0  0
    1.2219    3.2570   -0.1212 O   0  0  0  0  0  0  0  0  0  0  0  0
    3.1819    0.6983    1.5976 S   0  0  0  0  0  0  0  0  0  0  0  0
    2.9521    2.0406    2.0961 O   0  0  0  0  0  0  0  0  0  0  0  0
    2.6486   -0.4495    2.2816 O   0  0  0  0  0  0  0  0  0  0  0  0
    4.8781    0.5024    1.4943 N   0  0  0  0  0  0  0  0  0  0  0  0
    5.5121    0.5626    2.8688 C   0  0  0  0  0  0  0  0  0  0  0  0
    7.0167    0.2517    2.8148 C   0  0  3  0  0  0  0  0  0  0  0  0
    7.3603   -1.2430    2.6487 C   0  0  0  0  0  0  0  0  0  0  0  0
    8.4172   -1.6870    3.0822 O   0  0  0  0  0  0  0  0  0  0  0  0
    6.3994   -1.9796    1.9813 N   0  0  0  0  0  0  0  0  0  0  0  0
    6.4635   -3.3383    1.5851 C   0  0  0  0  0  0  0  0  0  0  0  0
    7.6604   -4.0465    1.5117 C   0  0  0  0  0  0  0  0  0  0  0  0
    7.7920   -5.2431    0.8880 N   0  0  0  0  0  0  0  0  0  0  0  0
    6.6611   -5.8080    0.4185 C   0  0  0  0  0  0  0  0  0  0  0  0
    5.3814   -5.2984    0.6261 C   0  0  0  0  0  0  0  0  0  0  0  0
    4.2302   -6.0498    0.3255 C   0  0  0  0  0  0  0  0  0  0  0  0
    2.9594   -5.5337    0.5650 C   0  0  0  0  0  0  0  0  0  0  0  0
    2.8262   -4.2445    1.0614 C   0  0  0  0  0  0  0  0  0  0  0  0
    3.9676   -3.4974    1.3666 C   0  0  0  0  0  0  0  0  0  0  0  0
    5.2746   -4.0073    1.1857 C   0  0  0  0  0  0  0  0  0  0  0  0
    7.7227    1.1117    1.7843 C   0  0  0  0  0  0  0  0  0  0  0  0
    9.1041    1.3575    1.8893 C   0  0  0  0  0  0  0  0  0  0  0  0
    9.7586    2.1260    0.9268 C   0  0  0  0  0  0  0  0  0  0  0  0
   11.4473    2.4236    1.0636 Cl  0  0  0  0  0  0  0  0  0  0  0  0
    9.0525    2.6596   -0.1458 C   0  0  0  0  0  0  0  0  0  0  0  0
    7.6800    2.4359   -0.2480 C   0  0  0  0  0  0  0  0  0  0  0  0
    7.0036    1.6631    0.7109 C   0  0  0  0  0  0  0  0  0  0  0  0
    5.5046    1.5090    0.5809 C   0  0  0  0  0  0  0  0  0  0  0  0
    2.8514   -0.4155   -1.8379 H   0  0  0  0  0  0  0  0  0  0  0  0
    2.5341   -1.4512   -0.4311 H   0  0  0  0  0  0  0  0  0  0  0  0
    4.1496   -0.7474   -0.7077 H   0  0  0  0  0  0  0  0  0  0  0  0
    0.6391   -0.0486    0.1922 H   0  0  0  0  0  0  0  0  0  0  0  0
    0.9871    0.8679   -1.2836 H   0  0  0  0  0  0  0  0  0  0  0  0
    0.6179    2.1209    1.4928 H   0  0  0  0  0  0  0  0  0  0  0  0
   -0.4862    2.1690    0.1333 H   0  0  0  0  0  0  0  0  0  0  0  0
    2.1284    3.2332    0.2383 H   0  0  0  0  0  0  0  0  0  0  0  0
    5.0163   -0.1588    3.5292 H   0  0  0  0  0  0  0  0  0  0  0  0
    5.3565    1.5661    3.2871 H   0  0  0  0  0  0  0  0  0  0  0  0
    7.4063    0.5282    3.8092 H   0  0  0  0  0  0  0  0  0  0  0  0
    5.5760   -1.4722    1.6638 H   0  0  0  0  0  0  0  0  0  0  0  0
    8.5935   -3.6644    1.9150 H   0  0  0  0  0  0  0  0  0  0  0  0
    6.8176   -6.7276   -0.1408 H   0  0  0  0  0  0  0  0  0  0  0  0
    4.3213   -7.0705   -0.0430 H   0  0  0  0  0  0  0  0  0  0  0  0
    2.0768   -6.1434    0.3867 H   0  0  0  0  0  0  0  0  0  0  0  0
    1.8401   -3.8278    1.2511 H   0  0  0  0  0  0  0  0  0  0  0  0
    3.8101   -2.5242    1.8173 H   0  0  0  0  0  0  0  0  0  0  0  0
    9.6728    0.9455    2.7221 H   0  0  0  0  0  0  0  0  0  0  0  0
    9.5603    3.2536   -0.9012 H   0  0  0  0  0  0  0  0  0  0  0  0
    7.1355    2.8747   -1.0825 H   0  0  0  0  0  0  0  0  0  0  0  0
    5.3080    1.1935   -0.4498 H   0  0  0  0  0  0  0  0  0  0  0  0
    5.0579    2.4977    0.7368 H   0  0  0  0  0  0  0  0  0  0  0  0
  1  2  1  0  0  0  0
  1 33  1  0  0  0  0
  1 34  1  0  0  0  0
  1 35  1  0  0  0  0
  2  3  1  0  0  0  0
  2  6  1  0  0  0  0
  3  4  1  0  0  0  0
  3 36  1  0  0  0  0
  3 37  1  0  0  0  0
  4  5  1  0  0  0  0
  4 38  1  0  0  0  0
  4 39  1  0  0  0  0
  5 40  1  0  0  0  0
  6  7  2  0  0  0  0
  6  8  2  0  0  0  0
  6  9  1  0  0  0  0
  9 10  1  0  0  0  0
  9 32  1  0  0  0  0
 10 11  1  0  0  0  0
 10 41  1  0  0  0  0
 10 42  1  0  0  0  0
 11 12  1  0  0  0  0
 11 25  1  0  0  0  0
 11 43  1  0  0  0  0
 12 13  2  0  0  0  0
 12 14  1  0  0  0  0
 14 15  1  0  0  0  0
 14 44  1  0  0  0  0
 15 16  1  0  0  0  0
 15 24  2  0  0  0  0
 16 17  2  0  0  0  0
 16 45  1  0  0  0  0
 17 18  1  0  0  0  0
 18 19  2  0  0  0  0
 18 46  1  0  0  0  0
 19 20  1  0  0  0  0
 19 24  1  0  0  0  0
 20 21  2  0  0  0  0
 20 47  1  0  0  0  0
 21 22  1  0  0  0  0
 21 48  1  0  0  0  0
 22 23  2  0  0  0  0
 22 49  1  0  0  0  0
 23 24  1  0  0  0  0
 23 50  1  0  0  0  0
 25 26  1  0  0  0  0
 25 31  2  0  0  0  0
 26 27  2  0  0  0  0
 26 51  1  0  0  0  0
 27 28  1  0  0  0  0
 27 29  1  0  0  0  0
 29 30  2  0  0  0  0
 29 52  1  0  0  0  0
 30 31  1  0  0  0  0
 30 53  1  0  0  0  0
 31 32  1  0  0  0  0
 32 54  1  0  0  0  0
 32 55  1  0  0  0  0
M  END
$$$$
