
 OpenBabel07202414163D

 43 46  0  0  1  0  0  0  0  0999 V2000
   -2.5177   -0.4132   -0.1364 C   0  0  0  0  0  0  0  0  0  0  0  0
   -1.0498   -0.1813   -0.1073 C   0  0  0  0  0  0  0  0  0  0  0  0
   -0.0556   -1.1383   -0.1293 C   0  0  0  0  0  0  0  0  0  0  0  0
    1.4883   -0.3940   -0.0647 S   0  0  0  0  0  0  0  0  0  0  0  0
    0.7330    1.1505   -0.0017 C   0  0  0  0  0  0  0  0  0  0  0  0
    1.5041    2.4420   -0.0014 C   0  0  2  0  0  0  0  0  0  0  0  0
    2.2516    2.6791   -1.3176 C   0  0  0  0  0  0  0  0  0  0  0  0
    3.1763    3.8392   -0.9804 C   0  0  0  0  0  0  0  0  0  0  0  0
    3.5109    3.6417    0.4938 C   0  0  0  0  0  0  0  0  0  0  0  0
    2.5492    2.6731    1.0055 N   0  0  0  0  0  0  0  0  0  0  0  0
    2.4287    2.3322    2.3401 C   0  0  0  0  0  0  0  0  0  0  0  0
    1.5720    1.5523    2.7555 O   0  0  0  0  0  0  0  0  0  0  0  0
    3.3957    2.9831    3.3316 C   0  0  0  0  0  0  0  0  0  0  0  0
    4.7908    2.3989    3.3956 C   0  0  0  0  0  0  0  0  0  0  0  0
    4.9533    1.0124    3.3369 C   0  0  0  0  0  0  0  0  0  0  0  0
    6.1375    0.3738    3.4450 N   0  0  0  0  0  0  0  0  0  0  0  0
    7.2252    1.1459    3.6437 C   0  0  0  0  0  0  0  0  0  0  0  0
    7.2038    2.5355    3.7411 C   0  0  0  0  0  0  0  0  0  0  0  0
    8.3870    3.2655    3.9639 C   0  0  0  0  0  0  0  0  0  0  0  0
    8.3574    4.6548    4.0756 C   0  0  0  0  0  0  0  0  0  0  0  0
    7.1439    5.3206    3.9664 C   0  0  0  0  0  0  0  0  0  0  0  0
    5.9637    4.6029    3.7513 C   0  0  0  0  0  0  0  0  0  0  0  0
    5.9558    3.1914    3.6214 C   0  0  0  0  0  0  0  0  0  0  0  0
   -0.5864    1.1219   -0.0644 N   0  0  0  0  0  0  0  0  0  0  0  0
   -2.7577   -1.4799   -0.0787 H   0  0  0  0  0  0  0  0  0  0  0  0
   -2.9473   -0.0166   -1.0620 H   0  0  0  0  0  0  0  0  0  0  0  0
   -2.9993    0.0887    0.7089 H   0  0  0  0  0  0  0  0  0  0  0  0
   -0.1595   -2.2131   -0.1759 H   0  0  0  0  0  0  0  0  0  0  0  0
    0.7786    3.2553    0.1443 H   0  0  0  0  0  0  0  0  0  0  0  0
    1.5832    2.9035   -2.1545 H   0  0  0  0  0  0  0  0  0  0  0  0
    2.8604    1.8105   -1.5992 H   0  0  0  0  0  0  0  0  0  0  0  0
    2.6498    4.7903   -1.1225 H   0  0  0  0  0  0  0  0  0  0  0  0
    4.0740    3.8591   -1.6053 H   0  0  0  0  0  0  0  0  0  0  0  0
    3.3993    4.5910    1.0285 H   0  0  0  0  0  0  0  0  0  0  0  0
    4.5242    3.2619    0.6437 H   0  0  0  0  0  0  0  0  0  0  0  0
    2.9520    2.8986    4.3307 H   0  0  0  0  0  0  0  0  0  0  0  0
    3.4061    4.0514    3.1111 H   0  0  0  0  0  0  0  0  0  0  0  0
    4.1032    0.3439    3.2114 H   0  0  0  0  0  0  0  0  0  0  0  0
    8.1547    0.5901    3.7394 H   0  0  0  0  0  0  0  0  0  0  0  0
    9.3428    2.7534    4.0602 H   0  0  0  0  0  0  0  0  0  0  0  0
    9.2758    5.2081    4.2484 H   0  0  0  0  0  0  0  0  0  0  0  0
    7.1129    6.4037    4.0635 H   0  0  0  0  0  0  0  0  0  0  0  0
    5.0446    5.1778    3.6959 H   0  0  0  0  0  0  0  0  0  0  0  0
  1  2  1  0  0  0  0
  1 25  1  0  0  0  0
  1 26  1  0  0  0  0
  1 27  1  0  0  0  0
  2  3  2  0  0  0  0
  2 24  1  0  0  0  0
  3  4  1  0  0  0  0
  3 28  1  0  0  0  0
  4  5  1  0  0  0  0
  5  6  1  0  0  0  0
  5 24  2  0  0  0  0
  6  7  1  0  0  0  0
  6 10  1  0  0  0  0
  6 29  1  1  0  0  0
  7  8  1  0  0  0  0
  7 30  1  0  0  0  0
  7 31  1  0  0  0  0
  8  9  1  0  0  0  0
  8 32  1  0  0  0  0
  8 33  1  0  0  0  0
  9 10  1  0  0  0  0
  9 34  1  0  0  0  0
  9 35  1  0  0  0  0
 10 11  1  0  0  0  0
 11 12  2  0  0  0  0
 11 13  1  0  0  0  0
 13 14  1  0  0  0  0
 13 36  1  0  0  0  0
 13 37  1  0  0  0  0
 14 15  1  0  0  0  0
 14 23  2  0  0  0  0
 15 16  2  0  0  0  0
 15 38  1  0  0  0  0
 16 17  1  0  0  0  0
 17 18  2  0  0  0  0
 17 39  1  0  0  0  0
 18 19  1  0  0  0  0
 18 23  1  0  0  0  0
 19 20  2  0  0  0  0
 19 40  1  0  0  0  0
 20 21  1  0  0  0  0
 20 41  1  0  0  0  0
 21 22  2  0  0  0  0
 21 42  1  0  0  0  0
 22 23  1  0  0  0  0
 22 43  1  0  0  0  0
M  END
$$$$
