
 OpenBabel07202414183D

 57 61  0  0  1  0  0  0  0  0999 V2000
   -0.6975   -1.4293    1.8225 C   0  0  0  0  0  0  0  0  0  0  0  0
    0.2369   -0.3373    1.9505 N   0  0  0  0  0  0  0  0  0  0  0  0
    0.4718    0.4076    3.0674 C   0  0  0  0  0  0  0  0  0  0  0  0
    1.4128    1.3417    2.7072 C   0  0  0  0  0  0  0  0  0  0  0  0
    1.6820    1.0877    1.3394 C   0  0  0  0  0  0  0  0  0  0  0  0
    2.6193    1.8403    0.4403 C   0  0  0  0  0  0  0  0  0  0  0  0
    3.9230    1.1576    0.4337 N   0  0  0  0  0  0  0  0  0  0  0  0
    4.8678    1.8425   -0.4639 C   0  0  0  0  0  0  0  0  0  0  0  0
    6.3557    1.3091   -0.4835 C   0  0  3  0  0  0  0  0  0  0  0  0
    7.1291    2.2224   -1.5006 C   0  0  0  0  0  0  0  0  0  0  0  0
    6.5491    3.1333   -2.0836 O   0  0  0  0  0  0  0  0  0  0  0  0
    8.4679    1.9159   -1.6891 N   0  0  0  0  0  0  0  0  0  0  0  0
    9.3510    2.4691   -2.6712 C   0  0  0  0  0  0  0  0  0  0  0  0
    8.9613    3.4685   -3.5673 C   0  0  0  0  0  0  0  0  0  0  0  0
    9.7060    3.9147   -4.6090 N   0  0  0  0  0  0  0  0  0  0  0  0
   10.9342    3.3787   -4.7437 C   0  0  0  0  0  0  0  0  0  0  0  0
   11.4908    2.4611   -3.8561 C   0  0  0  0  0  0  0  0  0  0  0  0
   12.8257    2.0437   -4.0081 C   0  0  0  0  0  0  0  0  0  0  0  0
   13.3975    1.1539   -3.1048 C   0  0  0  0  0  0  0  0  0  0  0  0
   12.6321    0.6482   -2.0635 C   0  0  0  0  0  0  0  0  0  0  0  0
   11.2986    1.0462   -1.9122 C   0  0  0  0  0  0  0  0  0  0  0  0
   10.6880    1.9799   -2.7913 C   0  0  0  0  0  0  0  0  0  0  0  0
    6.4071   -0.1532   -0.9870 C   0  0  0  0  0  0  0  0  0  0  0  0
    6.1499   -1.1519    0.1294 C   0  0  0  0  0  0  0  0  0  0  0  0
    7.1099   -1.0232    1.1739 O   0  0  0  0  0  0  0  0  0  0  0  0
    7.2233    0.2470    1.6679 C   0  0  0  0  0  0  0  0  0  0  0  0
    7.6737    0.3332    2.9879 C   0  0  0  0  0  0  0  0  0  0  0  0
    7.8607    1.5773    3.5864 C   0  0  0  0  0  0  0  0  0  0  0  0
    7.6267    2.7328    2.8484 C   0  0  0  0  0  0  0  0  0  0  0  0
    7.8696    4.2726    3.5764 Cl  0  0  0  0  0  0  0  0  0  0  0  0
    7.1833    2.6533    1.5265 C   0  0  0  0  0  0  0  0  0  0  0  0
    6.9550    1.4028    0.9200 C   0  0  0  0  0  0  0  0  0  0  0  0
    0.9700    0.0437    0.8861 N   0  0  0  0  0  0  0  0  0  0  0  0
   -1.2094   -1.5837    2.7763 H   0  0  0  0  0  0  0  0  0  0  0  0
   -0.1429   -2.3291    1.5471 H   0  0  0  0  0  0  0  0  0  0  0  0
   -1.4255   -1.1716    1.0492 H   0  0  0  0  0  0  0  0  0  0  0  0
   -0.0374    0.2208    4.0022 H   0  0  0  0  0  0  0  0  0  0  0  0
    1.8471    2.1080    3.3327 H   0  0  0  0  0  0  0  0  0  0  0  0
    2.7230    2.8700    0.7996 H   0  0  0  0  0  0  0  0  0  0  0  0
    2.2004    1.8732   -0.5737 H   0  0  0  0  0  0  0  0  0  0  0  0
    3.7246    0.2171    0.0933 H   0  0  0  0  0  0  0  0  0  0  0  0
    4.8864    2.9048   -0.1829 H   0  0  0  0  0  0  0  0  0  0  0  0
    4.4649    1.7989   -1.4851 H   0  0  0  0  0  0  0  0  0  0  0  0
    8.8454    1.1686   -1.1190 H   0  0  0  0  0  0  0  0  0  0  0  0
    8.0087    3.9803   -3.4966 H   0  0  0  0  0  0  0  0  0  0  0  0
   11.4828    3.7332   -5.6129 H   0  0  0  0  0  0  0  0  0  0  0  0
   13.4386    2.4335   -4.8189 H   0  0  0  0  0  0  0  0  0  0  0  0
   14.4410    0.8649   -3.2076 H   0  0  0  0  0  0  0  0  0  0  0  0
   13.0728   -0.0480   -1.3539 H   0  0  0  0  0  0  0  0  0  0  0  0
   10.7613    0.6340   -1.0645 H   0  0  0  0  0  0  0  0  0  0  0  0
    7.4011   -0.3852   -1.3903 H   0  0  0  0  0  0  0  0  0  0  0  0
    5.7036   -0.3070   -1.8139 H   0  0  0  0  0  0  0  0  0  0  0  0
    6.2453   -2.1678   -0.2701 H   0  0  0  0  0  0  0  0  0  0  0  0
    5.1472   -1.0971    0.5580 H   0  0  0  0  0  0  0  0  0  0  0  0
    7.8517   -0.5750    3.5587 H   0  0  0  0  0  0  0  0  0  0  0  0
    8.1821    1.6360    4.6224 H   0  0  0  0  0  0  0  0  0  0  0  0
    6.9934    3.5748    0.9788 H   0  0  0  0  0  0  0  0  0  0  0  0
  1  2  1  0  0  0  0
  1 34  1  0  0  0  0
  1 35  1  0  0  0  0
  1 36  1  0  0  0  0
  2  3  1  0  0  0  0
  2 33  1  0  0  0  0
  3  4  2  0  0  0  0
  3 37  1  0  0  0  0
  4  5  1  0  0  0  0
  4 38  1  0  0  0  0
  5  6  1  0  0  0  0
  5 33  2  0  0  0  0
  6  7  1  0  0  0  0
  6 39  1  0  0  0  0
  6 40  1  0  0  0  0
  7  8  1  0  0  0  0
  7 41  1  0  0  0  0
  8  9  1  0  0  0  0
  8 42  1  0  0  0  0
  8 43  1  0  0  0  0
  9 10  1  0  0  0  0
  9 23  1  0  0  0  0
  9 32  1  0  0  0  0
 10 11  2  0  0  0  0
 10 12  1  0  0  0  0
 12 13  1  0  0  0  0
 12 44  1  0  0  0  0
 13 14  1  0  0  0  0
 13 22  2  0  0  0  0
 14 15  2  0  0  0  0
 14 45  1  0  0  0  0
 15 16  1  0  0  0  0
 16 17  2  0  0  0  0
 16 46  1  0  0  0  0
 17 18  1  0  0  0  0
 17 22  1  0  0  0  0
 18 19  2  0  0  0  0
 18 47  1  0  0  0  0
 19 20  1  0  0  0  0
 19 48  1  0  0  0  0
 20 21  2  0  0  0  0
 20 49  1  0  0  0  0
 21 22  1  0  0  0  0
 21 50  1  0  0  0  0
 23 24  1  0  0  0  0
 23 51  1  0  0  0  0
 23 52  1  0  0  0  0
 24 25  1  0  0  0  0
 24 53  1  0  0  0  0
 24 54  1  0  0  0  0
 25 26  1  0  0  0  0
 26 27  1  0  0  0  0
 26 32  2  0  0  0  0
 27 28  2  0  0  0  0
 27 55  1  0  0  0  0
 28 29  1  0  0  0  0
 28 56  1  0  0  0  0
 29 30  1  0  0  0  0
 29 31  2  0  0  0  0
 31 32  1  0  0  0  0
 31 57  1  0  0  0  0
M  END
$$$$
