
 OpenBabel07202414133D

 46 48  0  0  0  0  0  0  0  0999 V2000
    4.9377   -1.1050   -0.7127 C   0  0  0  0  0  0  0  0  0  0  0  0
    4.7804    0.3436   -1.1365 C   0  0  0  0  0  0  0  0  0  0  0  0
    5.2072    1.2123   -0.0849 O   0  0  0  0  0  0  0  0  0  0  0  0
    4.2661    1.4944    0.8696 C   0  0  0  0  0  0  0  0  0  0  0  0
    3.1225    1.0832    0.8974 O   0  0  0  0  0  0  0  0  0  0  0  0
    4.8540    2.3883    1.9119 C   0  0  0  0  0  0  0  0  0  0  0  0
    4.0688    2.7676    3.0058 C   0  0  0  0  0  0  0  0  0  0  0  0
    4.5789    3.5922    4.0003 C   0  0  0  0  0  0  0  0  0  0  0  0
    5.9106    4.0504    3.9459 C   0  0  0  0  0  0  0  0  0  0  0  0
    6.6866    3.6723    2.8477 C   0  0  0  0  0  0  0  0  0  0  0  0
    6.1786    2.8485    1.8444 C   0  0  0  0  0  0  0  0  0  0  0  0
    6.5048    4.8811    4.9118 N   0  0  0  0  0  0  0  0  0  0  0  0
    5.9600    5.2469    6.1281 C   0  0  0  0  0  0  0  0  0  0  0  0
    4.9000    4.8708    6.5781 O   0  0  0  0  0  0  0  0  0  0  0  0
    6.7987    6.1659    6.7871 N   0  0  0  0  0  0  0  0  0  0  0  0
    6.6240    6.6145    8.0855 C   0  0  0  0  0  0  0  0  0  0  0  0
    5.9216    5.9452    9.0256 C   0  0  0  0  0  0  0  0  0  0  0  0
    5.8478    6.3738   10.3547 N   0  0  0  0  0  0  0  0  0  0  0  0
    6.7287    7.3610   10.7698 C   0  0  0  0  0  0  0  0  0  0  0  0
    7.2453    7.4528   11.8736 O   0  0  0  0  0  0  0  0  0  0  0  0
    6.8419    8.4195    9.7682 C   0  0  0  0  0  0  0  0  0  0  0  0
    6.9795    8.0291    8.4273 C   0  0  0  0  0  0  0  0  0  0  0  0
    7.0260    9.0475    7.4691 C   0  0  0  0  0  0  0  0  0  0  0  0
    6.6631   10.3543    7.8261 C   0  0  0  0  0  0  0  0  0  0  0  0
    6.2858   10.6598    9.1348 C   0  0  0  0  0  0  0  0  0  0  0  0
    6.4294    9.7020   10.1265 C   0  0  0  0  0  0  0  0  0  0  0  0
    4.5167    6.5203   10.9254 C   0  0  0  0  0  0  0  0  0  0  0  0
    4.7029   -1.7794   -1.5416 H   0  0  0  0  0  0  0  0  0  0  0  0
    4.2780   -1.3427    0.1278 H   0  0  0  0  0  0  0  0  0  0  0  0
    5.9625   -1.2995   -0.3782 H   0  0  0  0  0  0  0  0  0  0  0  0
    3.7545    0.5631   -1.4538 H   0  0  0  0  0  0  0  0  0  0  0  0
    5.4341    0.5468   -1.9906 H   0  0  0  0  0  0  0  0  0  0  0  0
    3.0303    2.4181    3.0740 H   0  0  0  0  0  0  0  0  0  0  0  0
    3.9225    3.8612    4.8201 H   0  0  0  0  0  0  0  0  0  0  0  0
    7.7199    4.0083    2.7628 H   0  0  0  0  0  0  0  0  0  0  0  0
    6.8210    2.5746    1.0126 H   0  0  0  0  0  0  0  0  0  0  0  0
    7.4818    5.1050    4.7708 H   0  0  0  0  0  0  0  0  0  0  0  0
    7.4124    6.6985    6.2028 H   0  0  0  0  0  0  0  0  0  0  0  0
    5.4013    5.0095    8.8392 H   0  0  0  0  0  0  0  0  0  0  0  0
    7.2016    8.8379    6.4190 H   0  0  0  0  0  0  0  0  0  0  0  0
    6.5865   11.1208    7.0579 H   0  0  0  0  0  0  0  0  0  0  0  0
    5.8509   11.6268    9.3741 H   0  0  0  0  0  0  0  0  0  0  0  0
    6.1048    9.9009   11.1463 H   0  0  0  0  0  0  0  0  0  0  0  0
    4.0666    5.5505   11.1305 H   0  0  0  0  0  0  0  0  0  0  0  0
    3.8966    7.0873   10.2161 H   0  0  0  0  0  0  0  0  0  0  0  0
    4.5618    7.1204   11.8426 H   0  0  0  0  0  0  0  0  0  0  0  0
  1  2  1  0  0  0  0
  1 28  1  0  0  0  0
  1 29  1  0  0  0  0
  1 30  1  0  0  0  0
  2  3  1  0  0  0  0
  2 31  1  0  0  0  0
  2 32  1  0  0  0  0
  3  4  1  0  0  0  0
  4  5  2  0  0  0  0
  4  6  1  0  0  0  0
  6  7  1  0  0  0  0
  6 11  2  0  0  0  0
  7  8  2  0  0  0  0
  7 33  1  0  0  0  0
  8  9  1  0  0  0  0
  8 34  1  0  0  0  0
  9 10  2  0  0  0  0
  9 12  1  0  0  0  0
 10 11  1  0  0  0  0
 10 35  1  0  0  0  0
 11 36  1  0  0  0  0
 12 13  1  0  0  0  0
 12 37  1  0  0  0  0
 13 14  2  0  0  0  0
 13 15  1  0  0  0  0
 15 16  1  0  0  0  0
 15 38  1  0  0  0  0
 16 17  2  0  0  0  0
 16 22  1  0  0  0  0
 17 18  1  0  0  0  0
 17 39  1  0  0  0  0
 18 19  1  0  0  0  0
 18 27  1  0  0  0  0
 19 20  2  0  0  0  0
 19 21  1  0  0  0  0
 21 22  1  0  0  0  0
 21 26  2  0  0  0  0
 22 23  2  0  0  0  0
 23 24  1  0  0  0  0
 23 40  1  0  0  0  0
 24 25  2  0  0  0  0
 24 41  1  0  0  0  0
 25 26  1  0  0  0  0
 25 42  1  0  0  0  0
 26 43  1  0  0  0  0
 27 44  1  0  0  0  0
 27 45  1  0  0  0  0
 27 46  1  0  0  0  0
M  END
$$$$
