
 OpenBabel07202414193D

 60 64  0  0  1  0  0  0  0  0999 V2000
    0.5842    0.7181   -2.0250 F   0  0  0  0  0  0  0  0  0  0  0  0
   -0.7361    0.9316   -2.1095 C   0  0  0  0  0  0  0  0  0  0  0  0
   -1.2249    2.2334   -2.0470 C   0  0  0  0  0  0  0  0  0  0  0  0
   -2.5950    2.4486   -2.1297 C   0  0  0  0  0  0  0  0  0  0  0  0
   -3.4700    1.3636   -2.2773 C   0  0  0  0  0  0  0  0  0  0  0  0
   -2.9824    0.0482   -2.3459 C   0  0  0  0  0  0  0  0  0  0  0  0
   -3.9265   -1.1331   -2.4680 C   0  0  0  0  0  0  0  0  0  0  0  0
   -4.2886   -1.7033   -1.0928 C   0  0  0  0  0  0  0  0  0  0  0  0
   -5.1605   -2.8754   -1.1069 N   0  0  0  0  0  0  0  0  0  0  0  0
   -5.5052   -3.4638    0.1111 C   0  0  0  0  0  0  0  0  0  0  0  0
   -5.1269   -2.9626    1.1712 O   0  0  0  0  0  0  0  0  0  0  0  0
   -6.4412   -4.7144    0.0542 C   0  0  3  0  0  0  0  0  0  0  0  0
   -6.3049   -5.5333    1.3100 N   0  0  0  0  0  0  0  0  0  0  0  0
   -5.3310   -6.5246    1.5485 C   0  0  0  0  0  0  0  0  0  0  0  0
   -5.2986   -7.1505    2.6134 O   0  0  0  0  0  0  0  0  0  0  0  0
   -4.3256   -6.8750    0.5412 C   0  0  0  0  0  0  0  0  0  0  0  0
   -3.4327   -7.9174    0.7094 C   0  0  0  0  0  0  0  0  0  0  0  0
   -2.6493   -8.0090   -0.3923 O   0  0  0  0  0  0  0  0  0  0  0  0
   -3.0935   -6.9991   -1.1830 C   0  0  0  0  0  0  0  0  0  0  0  0
   -4.0850   -6.2855   -0.6907 N   0  0  0  0  0  0  0  0  0  0  0  0
   -7.2808   -5.3588    2.3538 C   0  0  0  0  0  0  0  0  0  0  0  0
   -8.1198   -6.4456    2.6643 C   0  0  0  0  0  0  0  0  0  0  0  0
   -9.1047   -6.3561    3.6526 C   0  0  0  0  0  0  0  0  0  0  0  0
   -9.1917   -5.1757    4.3941 C   0  0  0  0  0  0  0  0  0  0  0  0
  -10.0264   -4.8713    5.4351 N   0  0  0  0  0  0  0  0  0  0  0  0
   -9.6470   -3.6794    5.8642 C   0  0  0  0  0  0  0  0  0  0  0  0
  -10.1618   -2.9116    7.0326 C   0  0  0  0  0  0  0  0  0  0  0  0
  -11.2070   -3.5113    7.6575 F   0  0  0  0  0  0  0  0  0  0  0  0
   -9.1926   -2.7307    7.9707 F   0  0  0  0  0  0  0  0  0  0  0  0
  -10.5752   -1.6675    6.6734 F   0  0  0  0  0  0  0  0  0  0  0  0
   -8.6187   -3.1928    5.0840 N   0  0  0  0  0  0  0  0  0  0  0  0
   -8.3229   -4.1270    4.1199 C   0  0  0  0  0  0  0  0  0  0  0  0
   -7.3743   -4.1628    3.0846 C   0  0  0  0  0  0  0  0  0  0  0  0
   -7.8995   -4.3966   -0.3167 C   0  0  0  0  0  0  0  0  0  0  0  0
   -8.8485   -5.4305   -0.4209 C   0  0  0  0  0  0  0  0  0  0  0  0
  -10.1883   -5.1440   -0.6731 C   0  0  0  0  0  0  0  0  0  0  0  0
  -10.5431   -3.8261   -0.8816 C   0  0  0  0  0  0  0  0  0  0  0  0
   -9.6596   -2.8068   -0.8602 N   0  0  0  0  0  0  0  0  0  0  0  0
   -8.3705   -3.1106   -0.5676 C   0  0  0  0  0  0  0  0  0  0  0  0
   -1.5953   -0.1548   -2.2559 C   0  0  0  0  0  0  0  0  0  0  0  0
   -0.5313    3.0624   -1.9281 H   0  0  0  0  0  0  0  0  0  0  0  0
   -2.9859    3.4620   -2.0765 H   0  0  0  0  0  0  0  0  0  0  0  0
   -4.5395    1.5592   -2.3342 H   0  0  0  0  0  0  0  0  0  0  0  0
   -3.4541   -1.9061   -3.0873 H   0  0  0  0  0  0  0  0  0  0  0  0
   -4.8297   -0.8283   -3.0107 H   0  0  0  0  0  0  0  0  0  0  0  0
   -4.7931   -0.9333   -0.4952 H   0  0  0  0  0  0  0  0  0  0  0  0
   -3.3772   -1.9839   -0.5504 H   0  0  0  0  0  0  0  0  0  0  0  0
   -5.2713   -3.4097   -1.9615 H   0  0  0  0  0  0  0  0  0  0  0  0
   -6.0961   -5.3249   -0.7838 H   0  0  0  0  0  0  0  0  0  0  0  0
   -3.2582   -8.6382    1.4998 H   0  0  0  0  0  0  0  0  0  0  0  0
   -2.5916   -6.8857   -2.1337 H   0  0  0  0  0  0  0  0  0  0  0  0
   -8.0211   -7.3842    2.1242 H   0  0  0  0  0  0  0  0  0  0  0  0
   -9.7624   -7.1891    3.8711 H   0  0  0  0  0  0  0  0  0  0  0  0
   -8.1311   -2.3186    5.2284 H   0  0  0  0  0  0  0  0  0  0  0  0
   -6.6959   -3.3341    2.9235 H   0  0  0  0  0  0  0  0  0  0  0  0
   -8.5598   -6.4661   -0.2552 H   0  0  0  0  0  0  0  0  0  0  0  0
  -10.9376   -5.9283   -0.6881 H   0  0  0  0  0  0  0  0  0  0  0  0
  -11.5758   -3.5460   -1.0719 H   0  0  0  0  0  0  0  0  0  0  0  0
   -7.7259   -2.2368   -0.5429 H   0  0  0  0  0  0  0  0  0  0  0  0
   -1.1714   -1.1551   -2.2938 H   0  0  0  0  0  0  0  0  0  0  0  0
  1  2  1  0  0  0  0
  2  3  1  0  0  0  0
  2 40  2  0  0  0  0
  3  4  2  0  0  0  0
  3 41  1  0  0  0  0
  4  5  1  0  0  0  0
  4 42  1  0  0  0  0
  5  6  2  0  0  0  0
  5 43  1  0  0  0  0
  6  7  1  0  0  0  0
  6 40  1  0  0  0  0
  7  8  1  0  0  0  0
  7 44  1  0  0  0  0
  7 45  1  0  0  0  0
  8  9  1  0  0  0  0
  8 46  1  0  0  0  0
  8 47  1  0  0  0  0
  9 10  1  0  0  0  0
  9 48  1  0  0  0  0
 10 11  2  0  0  0  0
 10 12  1  0  0  0  0
 12 13  1  0  0  0  0
 12 34  1  0  0  0  0
 12 49  1  0  0  0  0
 13 14  1  0  0  0  0
 13 21  1  0  0  0  0
 14 15  2  0  0  0  0
 14 16  1  0  0  0  0
 16 17  2  0  0  0  0
 16 20  1  0  0  0  0
 17 18  1  0  0  0  0
 17 50  1  0  0  0  0
 18 19  1  0  0  0  0
 19 20  2  0  0  0  0
 19 51  1  0  0  0  0
 21 22  1  0  0  0  0
 21 33  2  0  0  0  0
 22 23  2  0  0  0  0
 22 52  1  0  0  0  0
 23 24  1  0  0  0  0
 23 53  1  0  0  0  0
 24 25  1  0  0  0  0
 24 32  2  0  0  0  0
 25 26  2  0  0  0  0
 26 27  1  0  0  0  0
 26 31  1  0  0  0  0
 27 28  1  0  0  0  0
 27 29  1  0  0  0  0
 27 30  1  0  0  0  0
 31 32  1  0  0  0  0
 31 54  1  0  0  0  0
 32 33  1  0  0  0  0
 33 55  1  0  0  0  0
 34 35  1  0  0  0  0
 34 39  2  0  0  0  0
 35 36  2  0  0  0  0
 35 56  1  0  0  0  0
 36 37  1  0  0  0  0
 36 57  1  0  0  0  0
 37 38  2  0  0  0  0
 37 58  1  0  0  0  0
 38 39  1  0  0  0  0
 39 59  1  0  0  0  0
 40 60  1  0  0  0  0
M  END
$$$$
