
 OpenBabel07202414203D

 37 40  0  0  1  0  0  0  0  0999 V2000
    4.7026   -4.8714    1.0989 C   0  0  0  0  0  0  0  0  0  0  0  0
    5.4552   -3.7671    0.7077 C   0  0  0  0  0  0  0  0  0  0  0  0
    4.8529   -2.6571    0.1091 C   0  0  0  0  0  0  0  0  0  0  0  0
    3.4685   -2.7149   -0.0822 C   0  0  0  0  0  0  0  0  0  0  0  0
    2.6860   -3.8067    0.2844 C   0  0  0  0  0  0  0  0  0  0  0  0
    3.3157   -4.9082    0.8941 C   0  0  0  0  0  0  0  0  0  0  0  0
    1.3561   -3.4563   -0.1049 C   0  0  0  0  0  0  0  0  0  0  0  0
    1.3210   -2.2335   -0.6354 N   0  0  0  0  0  0  0  0  0  0  0  0
    2.5907   -1.8163   -0.6198 N   0  0  0  0  0  0  0  0  0  0  0  0
    0.2506   -4.2757    0.0543 N   0  0  0  0  0  0  0  0  0  0  0  0
   -1.0296   -3.9457   -0.3427 C   0  0  0  0  0  0  0  0  0  0  0  0
   -1.3815   -2.8938   -0.8757 O   0  0  0  0  0  0  0  0  0  0  0  0
   -2.1087   -4.9660    0.0205 C   0  0  3  0  0  0  0  0  0  0  0  0
   -2.6001   -4.7303    1.4510 C   0  0  0  0  0  0  0  0  0  0  0  0
   -1.8160   -5.5900    2.4250 C   0  0  0  0  0  0  0  0  0  0  0  0
   -2.0049   -6.9802    2.1520 O   0  0  0  0  0  0  0  0  0  0  0  0
   -1.7988   -7.3370    0.8475 C   0  0  0  0  0  0  0  0  0  0  0  0
   -1.7582   -6.4199   -0.2103 C   0  0  0  0  0  0  0  0  0  0  0  0
   -1.4978   -6.8923   -1.5076 C   0  0  0  0  0  0  0  0  0  0  0  0
   -1.3457   -8.2610   -1.7385 C   0  0  0  0  0  0  0  0  0  0  0  0
   -1.4557   -9.1713   -0.6904 C   0  0  0  0  0  0  0  0  0  0  0  0
   -1.6752   -8.7058    0.6056 C   0  0  0  0  0  0  0  0  0  0  0  0
   -1.0517   -8.8320   -3.3343 Cl  0  0  0  0  0  0  0  0  0  0  0  0
    5.1979   -5.7193    1.5678 H   0  0  0  0  0  0  0  0  0  0  0  0
    6.5314   -3.7638    0.8697 H   0  0  0  0  0  0  0  0  0  0  0  0
    5.4377   -1.7950   -0.1931 H   0  0  0  0  0  0  0  0  0  0  0  0
    2.7461   -5.7795    1.2094 H   0  0  0  0  0  0  0  0  0  0  0  0
    2.7941   -0.8963   -0.9928 H   0  0  0  0  0  0  0  0  0  0  0  0
    0.4355   -5.1916    0.4345 H   0  0  0  0  0  0  0  0  0  0  0  0
   -2.9541   -4.7465   -0.6488 H   0  0  0  0  0  0  0  0  0  0  0  0
   -3.6572   -5.0231    1.5073 H   0  0  0  0  0  0  0  0  0  0  0  0
   -2.5373   -3.6734    1.7314 H   0  0  0  0  0  0  0  0  0  0  0  0
   -2.1722   -5.4093    3.4437 H   0  0  0  0  0  0  0  0  0  0  0  0
   -0.7441   -5.3610    2.4174 H   0  0  0  0  0  0  0  0  0  0  0  0
   -1.4484   -6.1983   -2.3452 H   0  0  0  0  0  0  0  0  0  0  0  0
   -1.3778  -10.2396   -0.8740 H   0  0  0  0  0  0  0  0  0  0  0  0
   -1.7648   -9.4116    1.4280 H   0  0  0  0  0  0  0  0  0  0  0  0
  1  2  1  0  0  0  0
  1  6  2  0  0  0  0
  1 24  1  0  0  0  0
  2  3  2  0  0  0  0
  2 25  1  0  0  0  0
  3  4  1  0  0  0  0
  3 26  1  0  0  0  0
  4  5  2  0  0  0  0
  4  9  1  0  0  0  0
  5  6  1  0  0  0  0
  5  7  1  0  0  0  0
  6 27  1  0  0  0  0
  7  8  2  0  0  0  0
  7 10  1  0  0  0  0
  8  9  1  0  0  0  0
  9 28  1  0  0  0  0
 10 11  1  0  0  0  0
 10 29  1  0  0  0  0
 11 12  2  0  0  0  0
 11 13  1  0  0  0  0
 13 14  1  0  0  0  0
 13 18  1  0  0  0  0
 13 30  1  0  0  0  0
 14 15  1  0  0  0  0
 14 31  1  0  0  0  0
 14 32  1  0  0  0  0
 15 16  1  0  0  0  0
 15 33  1  0  0  0  0
 15 34  1  0  0  0  0
 16 17  1  0  0  0  0
 17 18  1  0  0  0  0
 17 22  2  0  0  0  0
 18 19  2  0  0  0  0
 19 20  1  0  0  0  0
 19 35  1  0  0  0  0
 20 21  2  0  0  0  0
 20 23  1  0  0  0  0
 21 22  1  0  0  0  0
 21 36  1  0  0  0  0
 22 37  1  0  0  0  0
M  END
$$$$
