
 OpenBabel07202414163D

 36 37  0  0  0  0  0  0  0  0999 V2000
   -1.0644    5.2315    1.7165 C   0  0  0  0  0  0  0  0  0  0  0  0
   -1.8948    4.4538    0.7712 C   0  0  0  0  0  0  0  0  0  0  0  0
   -3.1372    4.8687    0.4921 N   0  0  0  0  0  0  0  0  0  0  0  0
   -3.6529    3.9534   -0.4003 O   0  0  0  0  0  0  0  0  0  0  0  0
   -2.7246    2.9911   -0.6639 C   0  0  0  0  0  0  0  0  0  0  0  0
   -3.1595    1.9504   -1.6149 C   0  0  0  0  0  0  0  0  0  0  0  0
   -1.5912    3.2661    0.0695 C   0  0  0  0  0  0  0  0  0  0  0  0
   -0.1590    2.3398    0.2194 S   0  0  0  0  0  0  0  0  0  0  0  0
   -0.1280    2.0175    1.6314 O   0  0  0  0  0  0  0  0  0  0  0  0
   -0.2912    1.3162   -0.7958 O   0  0  0  0  0  0  0  0  0  0  0  0
    1.2076    3.3024   -0.1439 N   0  0  0  0  0  0  0  0  0  0  0  0
    1.8175    3.0968   -1.4948 C   0  0  0  0  0  0  0  0  0  0  0  0
    2.6022    1.7699   -1.5662 C   0  0  0  0  0  0  0  0  0  0  0  0
    3.5323    1.5560   -0.4473 N   0  0  0  0  0  0  0  0  0  0  0  0
    4.4916    0.5327   -0.4513 C   0  0  0  0  0  0  0  0  0  0  0  0
    5.1994    0.3117    0.5359 O   0  0  0  0  0  0  0  0  0  0  0  0
    4.6205   -0.3466   -1.6844 C   0  0  0  0  0  0  0  0  0  0  0  0
    5.6960    0.4150   -2.8658 Cl  0  0  0  0  0  0  0  0  0  0  0  0
    3.1047    2.0195    0.8838 C   0  0  0  0  0  0  0  0  0  0  0  0
    2.3014    3.3267    0.8785 C   0  0  0  0  0  0  0  0  0  0  0  0
   -1.6199    6.0822    2.1268 H   0  0  0  0  0  0  0  0  0  0  0  0
   -0.1809    5.6267    1.2067 H   0  0  0  0  0  0  0  0  0  0  0  0
   -0.7399    4.6101    2.5557 H   0  0  0  0  0  0  0  0  0  0  0  0
   -4.2245    2.0575   -1.8525 H   0  0  0  0  0  0  0  0  0  0  0  0
   -3.0161    0.9460   -1.2077 H   0  0  0  0  0  0  0  0  0  0  0  0
   -2.6059    2.0364   -2.5549 H   0  0  0  0  0  0  0  0  0  0  0  0
    2.5073    3.9317   -1.6815 H   0  0  0  0  0  0  0  0  0  0  0  0
    1.0530    3.1502   -2.2759 H   0  0  0  0  0  0  0  0  0  0  0  0
    3.1626    1.7500   -2.5048 H   0  0  0  0  0  0  0  0  0  0  0  0
    1.9282    0.9099   -1.5806 H   0  0  0  0  0  0  0  0  0  0  0  0
    3.6503   -0.5525   -2.1427 H   0  0  0  0  0  0  0  0  0  0  0  0
    5.0515   -1.3091   -1.3902 H   0  0  0  0  0  0  0  0  0  0  0  0
    3.9867    2.1450    1.5243 H   0  0  0  0  0  0  0  0  0  0  0  0
    2.5096    1.2095    1.3183 H   0  0  0  0  0  0  0  0  0  0  0  0
    2.9727    4.1593    0.6333 H   0  0  0  0  0  0  0  0  0  0  0  0
    1.9022    3.5484    1.8730 H   0  0  0  0  0  0  0  0  0  0  0  0
  1  2  1  0  0  0  0
  1 21  1  0  0  0  0
  1 22  1  0  0  0  0
  1 23  1  0  0  0  0
  2  3  2  0  0  0  0
  2  7  1  0  0  0  0
  3  4  1  0  0  0  0
  4  5  1  0  0  0  0
  5  6  1  0  0  0  0
  5  7  2  0  0  0  0
  6 24  1  0  0  0  0
  6 25  1  0  0  0  0
  6 26  1  0  0  0  0
  7  8  1  0  0  0  0
  8  9  2  0  0  0  0
  8 10  2  0  0  0  0
  8 11  1  0  0  0  0
 11 12  1  0  0  0  0
 11 20  1  0  0  0  0
 12 13  1  0  0  0  0
 12 27  1  0  0  0  0
 12 28  1  0  0  0  0
 13 14  1  0  0  0  0
 13 29  1  0  0  0  0
 13 30  1  0  0  0  0
 14 15  1  0  0  0  0
 14 19  1  0  0  0  0
 15 16  2  0  0  0  0
 15 17  1  0  0  0  0
 17 18  1  0  0  0  0
 17 31  1  0  0  0  0
 17 32  1  0  0  0  0
 19 20  1  0  0  0  0
 19 33  1  0  0  0  0
 19 34  1  0  0  0  0
 20 35  1  0  0  0  0
 20 36  1  0  0  0  0
M  END
$$$$
