
 OpenBabel07202414123D

 60 62  0  0  1  0  0  0  0  0999 V2000
    2.3795    1.6472   -0.8839 C   0  0  0  0  0  0  0  0  0  0  0  0
    2.4464    0.2931   -0.1442 C   0  0  0  0  0  0  0  0  0  0  0  0
    1.0270   -0.3160   -0.1973 C   0  0  0  0  0  0  0  0  0  0  0  0
    3.4172   -0.6221   -0.9202 C   0  0  0  0  0  0  0  0  0  0  0  0
    2.8984    0.4092    1.3177 C   0  0  0  0  0  0  0  0  0  0  0  0
    3.4762    1.5563    1.8592 C   0  0  0  0  0  0  0  0  0  0  0  0
    3.9278    1.5832    3.1938 C   0  0  0  0  0  0  0  0  0  0  0  0
    3.8008    0.4838    4.0607 C   0  0  0  0  0  0  0  0  0  0  0  0
    4.4079    0.4185    5.3945 N   0  0  0  0  0  0  0  0  0  0  0  0
    4.4356   -0.9111    6.1312 C   0  0  3  0  0  0  0  0  0  0  0  0
    3.0714   -1.1882    6.8767 C   0  0  0  0  0  0  0  0  0  0  0  0
    2.8300   -2.2553    7.4548 O   0  0  0  0  0  0  0  0  0  0  0  0
    2.1905   -0.1337    6.9949 N   0  0  0  0  0  0  0  0  0  0  0  0
    0.9438   -0.3012    7.7197 C   0  0  0  0  0  0  0  0  0  0  0  0
    0.4924    0.9835    8.3342 C   0  0  0  0  0  0  0  0  0  0  0  0
   -0.3581    1.8654    7.6627 C   0  0  0  0  0  0  0  0  0  0  0  0
   -0.7464    3.0525    8.2787 C   0  0  0  0  0  0  0  0  0  0  0  0
   -0.2644    3.3253    9.5485 C   0  0  0  0  0  0  0  0  0  0  0  0
    0.5662    2.5023   10.2247 N   0  0  0  0  0  0  0  0  0  0  0  0
    0.9234    1.3579    9.6063 C   0  0  0  0  0  0  0  0  0  0  0  0
    5.0233   -2.1678    5.4349 C   0  0  0  0  0  0  0  0  0  0  0  0
    5.5810   -2.2130    4.1493 C   0  0  0  0  0  0  0  0  0  0  0  0
    5.9579   -3.4330    3.5744 C   0  0  0  0  0  0  0  0  0  0  0  0
    5.8506   -4.5850    4.3277 C   0  0  0  0  0  0  0  0  0  0  0  0
    5.4332   -4.5841    5.6040 N   0  0  0  0  0  0  0  0  0  0  0  0
    5.0446   -3.3912    6.1203 C   0  0  0  0  0  0  0  0  0  0  0  0
    4.9316    1.5922    5.9895 C   0  0  0  0  0  0  0  0  0  0  0  0
    5.0516    2.6828    5.4321 O   0  0  0  0  0  0  0  0  0  0  0  0
    5.3248    1.5634    7.4320 C   0  0  0  0  0  0  0  0  0  0  0  0
    6.1862    2.4831    7.8956 C   0  0  0  0  0  0  0  0  0  0  0  0
    3.0948   -0.6034    3.5424 C   0  0  0  0  0  0  0  0  0  0  0  0
    2.7287   -0.6704    2.1929 C   0  0  0  0  0  0  0  0  0  0  0  0
    2.0100    1.5166   -1.9081 H   0  0  0  0  0  0  0  0  0  0  0  0
    3.3633    2.1245   -0.9592 H   0  0  0  0  0  0  0  0  0  0  0  0
    1.7025    2.3447   -0.3770 H   0  0  0  0  0  0  0  0  0  0  0  0
    0.6792   -0.4257   -1.2293 H   0  0  0  0  0  0  0  0  0  0  0  0
    0.3123    0.3194    0.3390 H   0  0  0  0  0  0  0  0  0  0  0  0
    0.9784   -1.3134    0.2516 H   0  0  0  0  0  0  0  0  0  0  0  0
    3.0576   -0.7972   -1.9415 H   0  0  0  0  0  0  0  0  0  0  0  0
    3.5317   -1.6020   -0.4433 H   0  0  0  0  0  0  0  0  0  0  0  0
    4.4161   -0.1756   -0.9957 H   0  0  0  0  0  0  0  0  0  0  0  0
    3.6229    2.4569    1.2661 H   0  0  0  0  0  0  0  0  0  0  0  0
    4.4104    2.5121    3.4774 H   0  0  0  0  0  0  0  0  0  0  0  0
    5.1516   -0.7848    6.9492 H   0  0  0  0  0  0  0  0  0  0  0  0
    2.2476    0.6209    6.3177 H   0  0  0  0  0  0  0  0  0  0  0  0
    1.0572   -1.0615    8.5066 H   0  0  0  0  0  0  0  0  0  0  0  0
    0.1862   -0.6907    7.0273 H   0  0  0  0  0  0  0  0  0  0  0  0
   -0.7277    1.6302    6.6683 H   0  0  0  0  0  0  0  0  0  0  0  0
   -1.4117    3.7491    7.7811 H   0  0  0  0  0  0  0  0  0  0  0  0
   -0.5383    4.2367   10.0686 H   0  0  0  0  0  0  0  0  0  0  0  0
    1.5888    0.7187   10.1842 H   0  0  0  0  0  0  0  0  0  0  0  0
    5.6945   -1.3193    3.5426 H   0  0  0  0  0  0  0  0  0  0  0  0
    6.3159   -3.4825    2.5515 H   0  0  0  0  0  0  0  0  0  0  0  0
    6.1091   -5.5588    3.9216 H   0  0  0  0  0  0  0  0  0  0  0  0
    4.7345   -3.4749    7.1604 H   0  0  0  0  0  0  0  0  0  0  0  0
    4.8439    0.8854    8.1224 H   0  0  0  0  0  0  0  0  0  0  0  0
    6.6397    3.2254    7.2389 H   0  0  0  0  0  0  0  0  0  0  0  0
    6.4366    2.5431    8.9485 H   0  0  0  0  0  0  0  0  0  0  0  0
    2.8567   -1.4794    4.1355 H   0  0  0  0  0  0  0  0  0  0  0  0
    2.3178   -1.6133    1.8416 H   0  0  0  0  0  0  0  0  0  0  0  0
  1  2  1  0  0  0  0
  1 33  1  0  0  0  0
  1 34  1  0  0  0  0
  1 35  1  0  0  0  0
  2  3  1  0  0  0  0
  2  4  1  0  0  0  0
  2  5  1  0  0  0  0
  3 36  1  0  0  0  0
  3 37  1  0  0  0  0
  3 38  1  0  0  0  0
  4 39  1  0  0  0  0
  4 40  1  0  0  0  0
  4 41  1  0  0  0  0
  5  6  1  0  0  0  0
  5 32  2  0  0  0  0
  6  7  2  0  0  0  0
  6 42  1  0  0  0  0
  7  8  1  0  0  0  0
  7 43  1  0  0  0  0
  8  9  1  0  0  0  0
  8 31  2  0  0  0  0
  9 10  1  0  0  0  0
  9 27  1  0  0  0  0
 10 11  1  0  0  0  0
 10 21  1  0  0  0  0
 10 44  1  0  0  0  0
 11 12  2  0  0  0  0
 11 13  1  0  0  0  0
 13 14  1  0  0  0  0
 13 45  1  0  0  0  0
 14 15  1  0  0  0  0
 14 46  1  0  0  0  0
 14 47  1  0  0  0  0
 15 16  1  0  0  0  0
 15 20  2  0  0  0  0
 16 17  2  0  0  0  0
 16 48  1  0  0  0  0
 17 18  1  0  0  0  0
 17 49  1  0  0  0  0
 18 19  2  0  0  0  0
 18 50  1  0  0  0  0
 19 20  1  0  0  0  0
 20 51  1  0  0  0  0
 21 22  1  0  0  0  0
 21 26  2  0  0  0  0
 22 23  2  0  0  0  0
 22 52  1  0  0  0  0
 23 24  1  0  0  0  0
 23 53  1  0  0  0  0
 24 25  2  0  0  0  0
 24 54  1  0  0  0  0
 25 26  1  0  0  0  0
 26 55  1  0  0  0  0
 27 28  2  0  0  0  0
 27 29  1  0  0  0  0
 29 30  2  0  0  0  0
 29 56  1  0  0  0  0
 30 57  1  0  0  0  0
 30 58  1  0  0  0  0
 31 32  1  0  0  0  0
 31 59  1  0  0  0  0
 32 60  1  0  0  0  0
M  END
$$$$
