
 OpenBabel07202414143D

 61 66  0  0  1  0  0  0  0  0999 V2000
    8.0932   -3.5737   -1.5367 C   0  0  0  0  0  0  0  0  0  0  0  0
    6.9053   -3.4594   -0.7416 O   0  0  0  0  0  0  0  0  0  0  0  0
    5.7878   -2.8461   -1.4549 C   0  0  0  0  0  0  0  0  0  0  0  0
    6.1259   -1.4506   -1.8988 C   0  0  0  0  0  0  0  0  0  0  0  0
    4.8135   -0.6092   -2.7519 S   0  0  0  0  0  0  0  0  0  0  0  0
    4.4691   -1.3673   -3.9209 O   0  0  0  0  0  0  0  0  0  0  0  0
    3.8090   -0.1467   -1.8002 O   0  0  0  0  0  0  0  0  0  0  0  0
    5.6510    0.7350   -3.2919 N   0  0  0  0  0  0  0  0  0  0  0  0
    6.1324    1.7646   -2.3713 C   0  0  0  0  0  0  0  0  0  0  0  0
    5.4016    3.0777   -2.5285 C   0  0  0  0  0  0  0  0  0  0  0  0
    5.4843    4.0306   -1.5000 C   0  0  0  0  0  0  0  0  0  0  0  0
    4.8773    5.2799   -1.6362 C   0  0  0  0  0  0  0  0  0  0  0  0
    4.2006    5.5970   -2.8057 C   0  0  0  0  0  0  0  0  0  0  0  0
    3.5007    7.1532   -3.0126 Cl  0  0  0  0  0  0  0  0  0  0  0  0
    4.0953    4.6616   -3.8281 C   0  0  0  0  0  0  0  0  0  0  0  0
    4.6815    3.3888   -3.7058 C   0  0  0  0  0  0  0  0  0  0  0  0
    4.4904    2.3541   -4.8280 C   0  0  3  0  0  0  0  0  0  0  0  0
    4.8465    2.9692   -6.1919 C   0  0  0  0  0  0  0  0  0  0  0  0
    3.5646    3.0641   -6.9696 C   0  0  0  0  0  0  0  0  0  0  0  0
    2.4806    2.6157   -6.1444 N   0  0  0  0  0  0  0  0  0  0  0  0
    1.1356    3.0824   -6.4192 C   0  0  0  0  0  0  0  0  0  0  0  0
    0.2480    3.3405   -5.3726 C   0  0  0  0  0  0  0  0  0  0  0  0
   -0.7331    4.2713   -5.4405 N   0  0  0  0  0  0  0  0  0  0  0  0
   -0.9261    4.8612   -6.6373 C   0  0  0  0  0  0  0  0  0  0  0  0
   -0.3955    4.3905   -7.8329 C   0  0  0  0  0  0  0  0  0  0  0  0
   -0.9270    4.7888   -9.0864 C   0  0  0  0  0  0  0  0  0  0  0  0
   -0.3527    4.3586  -10.2793 C   0  0  0  0  0  0  0  0  0  0  0  0
    0.7754    3.5648  -10.2268 C   0  0  0  0  0  0  0  0  0  0  0  0
    1.2784    3.1329   -8.9815 C   0  0  0  0  0  0  0  0  0  0  0  0
    0.7033    3.5133   -7.7351 C   0  0  0  0  0  0  0  0  0  0  0  0
    2.9678    2.0288   -4.9556 C   0  0  0  0  0  0  0  0  0  0  0  0
    2.2857    1.4453   -4.1067 O   0  0  0  0  0  0  0  0  0  0  0  0
    5.4685    1.1826   -4.6698 C   0  0  0  0  0  0  0  0  0  0  0  0
    4.3977   -3.2827   -1.0337 C   0  0  0  0  0  0  0  0  0  0  0  0
    5.0250   -3.8629   -2.2707 C   0  0  0  0  0  0  0  0  0  0  0  0
    8.6994   -4.3894   -1.1397 H   0  0  0  0  0  0  0  0  0  0  0  0
    8.6706   -2.6436   -1.4649 H   0  0  0  0  0  0  0  0  0  0  0  0
    7.8668   -3.7868   -2.5908 H   0  0  0  0  0  0  0  0  0  0  0  0
    6.9528   -1.5239   -2.6122 H   0  0  0  0  0  0  0  0  0  0  0  0
    6.4445   -0.8492   -1.0430 H   0  0  0  0  0  0  0  0  0  0  0  0
    7.2000    1.9303   -2.5870 H   0  0  0  0  0  0  0  0  0  0  0  0
    6.0933    1.4171   -1.3336 H   0  0  0  0  0  0  0  0  0  0  0  0
    6.0187    3.8032   -0.5795 H   0  0  0  0  0  0  0  0  0  0  0  0
    4.9390    6.0036   -0.8286 H   0  0  0  0  0  0  0  0  0  0  0  0
    3.5467    4.9357   -4.7252 H   0  0  0  0  0  0  0  0  0  0  0  0
    5.5495    2.3583   -6.7755 H   0  0  0  0  0  0  0  0  0  0  0  0
    5.3334    3.9486   -6.1072 H   0  0  0  0  0  0  0  0  0  0  0  0
    3.6296    2.3769   -7.8126 H   0  0  0  0  0  0  0  0  0  0  0  0
    3.4350    4.1030   -7.2853 H   0  0  0  0  0  0  0  0  0  0  0  0
    0.3382    2.8823   -4.3915 H   0  0  0  0  0  0  0  0  0  0  0  0
   -1.4737    5.8006   -6.6025 H   0  0  0  0  0  0  0  0  0  0  0  0
   -1.8317    5.3919   -9.1362 H   0  0  0  0  0  0  0  0  0  0  0  0
   -0.7874    4.6229  -11.2404 H   0  0  0  0  0  0  0  0  0  0  0  0
    1.2687    3.2404  -11.1409 H   0  0  0  0  0  0  0  0  0  0  0  0
    2.0888    2.4297   -9.0443 H   0  0  0  0  0  0  0  0  0  0  0  0
    6.4758    1.5205   -4.9690 H   0  0  0  0  0  0  0  0  0  0  0  0
    5.2532    0.3585   -5.3571 H   0  0  0  0  0  0  0  0  0  0  0  0
    3.5430   -2.6274   -1.1716 H   0  0  0  0  0  0  0  0  0  0  0  0
    4.2714   -3.9357   -0.1750 H   0  0  0  0  0  0  0  0  0  0  0  0
    4.6143   -3.5998   -3.2340 H   0  0  0  0  0  0  0  0  0  0  0  0
    5.3736   -4.8905   -2.2266 H   0  0  0  0  0  0  0  0  0  0  0  0
  1  2  1  0  0  0  0
  1 36  1  0  0  0  0
  1 37  1  0  0  0  0
  1 38  1  0  0  0  0
  2  3  1  0  0  0  0
  3  4  1  0  0  0  0
  3 34  1  0  0  0  0
  3 35  1  0  0  0  0
  4  5  1  0  0  0  0
  4 39  1  0  0  0  0
  4 40  1  0  0  0  0
  5  6  2  0  0  0  0
  5  7  2  0  0  0  0
  5  8  1  0  0  0  0
  8  9  1  0  0  0  0
  8 33  1  0  0  0  0
  9 10  1  0  0  0  0
  9 41  1  0  0  0  0
  9 42  1  0  0  0  0
 10 11  1  0  0  0  0
 10 16  2  0  0  0  0
 11 12  2  0  0  0  0
 11 43  1  0  0  0  0
 12 13  1  0  0  0  0
 12 44  1  0  0  0  0
 13 14  1  0  0  0  0
 13 15  2  0  0  0  0
 15 16  1  0  0  0  0
 15 45  1  0  0  0  0
 16 17  1  0  0  0  0
 17 18  1  0  0  0  0
 17 31  1  0  0  0  0
 17 33  1  0  0  0  0
 18 19  1  0  0  0  0
 18 46  1  0  0  0  0
 18 47  1  0  0  0  0
 19 20  1  0  0  0  0
 19 48  1  0  0  0  0
 19 49  1  0  0  0  0
 20 21  1  0  0  0  0
 20 31  1  0  0  0  0
 21 22  1  0  0  0  0
 21 30  2  0  0  0  0
 22 23  2  0  0  0  0
 22 50  1  0  0  0  0
 23 24  1  0  0  0  0
 24 25  2  0  0  0  0
 24 51  1  0  0  0  0
 25 26  1  0  0  0  0
 25 30  1  0  0  0  0
 26 27  2  0  0  0  0
 26 52  1  0  0  0  0
 27 28  1  0  0  0  0
 27 53  1  0  0  0  0
 28 29  2  0  0  0  0
 28 54  1  0  0  0  0
 29 30  1  0  0  0  0
 29 55  1  0  0  0  0
 31 32  2  0  0  0  0
 33 56  1  0  0  0  0
 33 57  1  0  0  0  0
 34 35  1  0  0  0  0
 34 58  1  0  0  0  0
 34 59  1  0  0  0  0
 35 60  1  0  0  0  0
 35 61  1  0  0  0  0
M  END
$$$$
