
 OpenBabel07202414143D

 51 53  0  0  0  0  0  0  0  0999 V2000
    1.3397    0.6799    2.6202 C   0  0  0  0  0  0  0  0  0  0  0  0
    2.7415    0.6721    2.3796 O   0  0  0  0  0  0  0  0  0  0  0  0
    3.0811    0.9481    1.0923 C   0  0  0  0  0  0  0  0  0  0  0  0
    2.3012    1.1862    0.1856 O   0  0  0  0  0  0  0  0  0  0  0  0
    4.5567    0.9566    0.9198 C   0  0  0  0  0  0  0  0  0  0  0  0
    5.4339    0.6746    1.9580 C   0  0  0  0  0  0  0  0  0  0  0  0
    6.8140    0.7340    1.7398 C   0  0  0  0  0  0  0  0  0  0  0  0
    7.3813    1.0796    0.4876 C   0  0  0  0  0  0  0  0  0  0  0  0
    8.8777    1.1714    0.3840 C   0  0  0  0  0  0  0  0  0  0  0  0
    9.5259    2.0597   -0.4911 C   0  0  0  0  0  0  0  0  0  0  0  0
   10.9170    2.2035   -0.4938 C   0  0  0  0  0  0  0  0  0  0  0  0
   11.6576    3.3152   -1.5800 Cl  0  0  0  0  0  0  0  0  0  0  0  0
   11.7098    1.4951    0.4025 C   0  0  0  0  0  0  0  0  0  0  0  0
   11.1133    0.6075    1.2987 C   0  0  0  0  0  0  0  0  0  0  0  0
   11.9405   -0.0960    2.3535 C   0  0  0  0  0  0  0  0  0  0  0  0
   11.9115    0.5520    3.7348 C   0  0  0  0  0  0  0  0  0  0  0  0
   11.7795   -0.1345    4.7473 O   0  0  0  0  0  0  0  0  0  0  0  0
   12.0782    1.9261    3.7420 N   0  0  0  0  0  0  0  0  0  0  0  0
   12.1489    2.6956    4.9250 C   0  0  0  0  0  0  0  0  0  0  0  0
   12.8665    2.2751    6.0464 C   0  0  0  0  0  0  0  0  0  0  0  0
   12.9966    2.9985    7.1864 N   0  0  0  0  0  0  0  0  0  0  0  0
   12.3583    4.1847    7.2217 C   0  0  0  0  0  0  0  0  0  0  0  0
   11.6116    4.6887    6.1672 C   0  0  0  0  0  0  0  0  0  0  0  0
   11.5022    3.9388    4.9890 C   0  0  0  0  0  0  0  0  0  0  0  0
   10.6406    4.4443    3.8668 C   0  0  0  0  0  0  0  0  0  0  0  0
    9.7183    0.4252    1.2467 C   0  0  0  0  0  0  0  0  0  0  0  0
    6.4641    1.3753   -0.5561 C   0  0  0  0  0  0  0  0  0  0  0  0
    6.9589    1.7098   -1.7955 O   0  0  0  0  0  0  0  0  0  0  0  0
    6.1171    2.5181   -2.6206 C   0  0  0  0  0  0  0  0  0  0  0  0
    5.0751    1.2915   -0.3354 C   0  0  0  0  0  0  0  0  0  0  0  0
    1.1823    0.5554    3.6945 H   0  0  0  0  0  0  0  0  0  0  0  0
    0.8584   -0.1525    2.0977 H   0  0  0  0  0  0  0  0  0  0  0  0
    0.9002    1.6349    2.3157 H   0  0  0  0  0  0  0  0  0  0  0  0
    5.0712    0.4095    2.9483 H   0  0  0  0  0  0  0  0  0  0  0  0
    7.4464    0.5290    2.6013 H   0  0  0  0  0  0  0  0  0  0  0  0
    8.9554    2.6807   -1.1750 H   0  0  0  0  0  0  0  0  0  0  0  0
   12.7872    1.6470    0.4090 H   0  0  0  0  0  0  0  0  0  0  0  0
   12.9885   -0.1612    2.0384 H   0  0  0  0  0  0  0  0  0  0  0  0
   11.5799   -1.1263    2.4550 H   0  0  0  0  0  0  0  0  0  0  0  0
   11.8143    2.4178    2.8983 H   0  0  0  0  0  0  0  0  0  0  0  0
   13.4087    1.3332    6.0529 H   0  0  0  0  0  0  0  0  0  0  0  0
   12.4562    4.7360    8.1529 H   0  0  0  0  0  0  0  0  0  0  0  0
   11.1054    5.6420    6.2793 H   0  0  0  0  0  0  0  0  0  0  0  0
   10.0706    5.3300    4.1650 H   0  0  0  0  0  0  0  0  0  0  0  0
    9.9125    3.6782    3.5773 H   0  0  0  0  0  0  0  0  0  0  0  0
   11.2553    4.7075    3.0010 H   0  0  0  0  0  0  0  0  0  0  0  0
    9.2856   -0.3153    1.9197 H   0  0  0  0  0  0  0  0  0  0  0  0
    6.7479    3.0144   -3.3641 H   0  0  0  0  0  0  0  0  0  0  0  0
    5.6070    3.3036   -2.0500 H   0  0  0  0  0  0  0  0  0  0  0  0
    5.3950    1.8925   -3.1550 H   0  0  0  0  0  0  0  0  0  0  0  0
    4.3705    1.4840   -1.1408 H   0  0  0  0  0  0  0  0  0  0  0  0
  1  2  1  0  0  0  0
  1 31  1  0  0  0  0
  1 32  1  0  0  0  0
  1 33  1  0  0  0  0
  2  3  1  0  0  0  0
  3  4  2  0  0  0  0
  3  5  1  0  0  0  0
  5  6  1  0  0  0  0
  5 30  2  0  0  0  0
  6  7  2  0  0  0  0
  6 34  1  0  0  0  0
  7  8  1  0  0  0  0
  7 35  1  0  0  0  0
  8  9  1  0  0  0  0
  8 27  2  0  0  0  0
  9 10  1  0  0  0  0
  9 26  2  0  0  0  0
 10 11  2  0  0  0  0
 10 36  1  0  0  0  0
 11 12  1  0  0  0  0
 11 13  1  0  0  0  0
 13 14  2  0  0  0  0
 13 37  1  0  0  0  0
 14 15  1  0  0  0  0
 14 26  1  0  0  0  0
 15 16  1  0  0  0  0
 15 38  1  0  0  0  0
 15 39  1  0  0  0  0
 16 17  2  0  0  0  0
 16 18  1  0  0  0  0
 18 19  1  0  0  0  0
 18 40  1  0  0  0  0
 19 20  1  0  0  0  0
 19 24  2  0  0  0  0
 20 21  2  0  0  0  0
 20 41  1  0  0  0  0
 21 22  1  0  0  0  0
 22 23  2  0  0  0  0
 22 42  1  0  0  0  0
 23 24  1  0  0  0  0
 23 43  1  0  0  0  0
 24 25  1  0  0  0  0
 25 44  1  0  0  0  0
 25 45  1  0  0  0  0
 25 46  1  0  0  0  0
 26 47  1  0  0  0  0
 27 28  1  0  0  0  0
 27 30  1  0  0  0  0
 28 29  1  0  0  0  0
 29 48  1  0  0  0  0
 29 49  1  0  0  0  0
 29 50  1  0  0  0  0
 30 51  1  0  0  0  0
M  END
$$$$
