
 OpenBabel07202414173D

 69 74  0  0  1  0  0  0  0  0999 V2000
    1.1288    0.1111   -0.0342 Cl  0  0  0  0  0  0  0  0  0  0  0  0
    2.8494    0.0165    0.0470 C   0  0  0  0  0  0  0  0  0  0  0  0
    3.6121    1.1632   -0.1187 C   0  0  0  0  0  0  0  0  0  0  0  0
    5.0043    1.0672   -0.0561 C   0  0  0  0  0  0  0  0  0  0  0  0
    5.6257   -0.1645    0.1631 C   0  0  0  0  0  0  0  0  0  0  0  0
    4.8677   -1.3345    0.3009 C   0  0  0  0  0  0  0  0  0  0  0  0
    3.4641   -1.2153    0.2626 C   0  0  0  0  0  0  0  0  0  0  0  0
    5.5484   -2.7129    0.4984 C   0  0  3  0  0  0  0  0  0  0  0  0
    4.9123   -3.6828   -0.5343 C   0  0  0  0  0  0  0  0  0  0  0  0
    5.5397   -5.0564   -0.6600 C   0  0  0  0  0  0  0  0  0  0  0  0
    6.5880   -5.3394   -0.0790 O   0  0  0  0  0  0  0  0  0  0  0  0
    4.8776   -5.9740   -1.4615 N   0  0  0  0  0  0  0  0  0  0  0  0
    5.3789   -7.3454   -1.4178 C   0  0  0  0  0  0  0  0  0  0  0  0
    4.9480   -8.1850   -2.6247 C   0  0  0  0  0  0  0  0  0  0  0  0
    3.5176   -8.1258   -2.9454 N   0  0  3  0  0  0  0  0  0  0  0  0
    2.6069   -9.0575   -2.2616 C   0  0  3  0  0  0  0  0  0  0  0  0
    2.4981   -9.0320   -0.7465 C   0  0  0  0  0  0  0  0  0  0  0  0
    3.4664  -10.0918   -0.2624 C   0  0  0  0  0  0  0  0  0  0  0  0
    3.7154  -10.9852   -1.3502 O   0  0  0  0  0  0  0  0  0  0  0  0
    2.9772  -10.5304   -2.4939 C   0  0  0  0  0  0  0  0  0  0  0  0
    3.0565   -6.7342   -3.0212 C   0  0  0  0  0  0  0  0  0  0  0  0
    3.4706   -5.8226   -1.8545 C   0  0  0  0  0  0  0  0  0  0  0  0
    5.2667   -3.2303    1.9557 C   0  0  0  0  0  0  0  0  0  0  0  0
    4.5397   -2.6065    2.7262 O   0  0  0  0  0  0  0  0  0  0  0  0
    5.8779   -4.4258    2.2938 N   0  0  0  0  0  0  0  0  0  0  0  0
    5.8598   -5.0757    3.5602 C   0  0  0  0  0  0  0  0  0  0  0  0
    4.9609   -4.7338    4.5722 C   0  0  0  0  0  0  0  0  0  0  0  0
    4.9859   -5.2367    5.8291 N   0  0  0  0  0  0  0  0  0  0  0  0
    5.9469   -6.1424    6.0928 C   0  0  0  0  0  0  0  0  0  0  0  0
    6.8469   -6.6393    5.1504 C   0  0  0  0  0  0  0  0  0  0  0  0
    7.7721   -7.6434    5.4970 C   0  0  0  0  0  0  0  0  0  0  0  0
    8.6599   -8.1502    4.5475 C   0  0  0  0  0  0  0  0  0  0  0  0
    8.6448   -7.6444    3.2577 C   0  0  0  0  0  0  0  0  0  0  0  0
    7.7409   -6.6358    2.9114 C   0  0  0  0  0  0  0  0  0  0  0  0
    6.8065   -6.1052    3.8394 C   0  0  0  0  0  0  0  0  0  0  0  0
    7.0630   -2.5506    0.2231 C   0  0  0  0  0  0  0  0  0  0  0  0
    7.6002   -1.2550    0.7973 C   0  0  0  0  0  0  0  0  0  0  0  0
    6.9924   -0.1229    0.1887 O   0  0  0  0  0  0  0  0  0  0  0  0
    3.1451    2.1267   -0.2856 H   0  0  0  0  0  0  0  0  0  0  0  0
    5.6098    1.9624   -0.1726 H   0  0  0  0  0  0  0  0  0  0  0  0
    2.8278   -2.0834    0.4232 H   0  0  0  0  0  0  0  0  0  0  0  0
    4.9601   -3.2311   -1.5356 H   0  0  0  0  0  0  0  0  0  0  0  0
    3.8609   -3.8370   -0.2734 H   0  0  0  0  0  0  0  0  0  0  0  0
    5.0180   -7.7672   -0.4776 H   0  0  0  0  0  0  0  0  0  0  0  0
    6.4729   -7.3429   -1.3582 H   0  0  0  0  0  0  0  0  0  0  0  0
    5.3062   -9.2127   -2.5158 H   0  0  0  0  0  0  0  0  0  0  0  0
    5.4846   -7.7929   -3.5002 H   0  0  0  0  0  0  0  0  0  0  0  0
    1.6159   -8.8968   -2.7052 H   0  0  0  0  0  0  0  0  0  0  0  0
    1.4814   -9.3419   -0.4686 H   0  0  0  0  0  0  0  0  0  0  0  0
    2.6525   -8.0633   -0.2701 H   0  0  0  0  0  0  0  0  0  0  0  0
    3.0630  -10.6542    0.5851 H   0  0  0  0  0  0  0  0  0  0  0  0
    4.4245   -9.6760    0.0548 H   0  0  0  0  0  0  0  0  0  0  0  0
    2.0726  -11.1444   -2.5624 H   0  0  0  0  0  0  0  0  0  0  0  0
    3.5635  -10.7009   -3.4024 H   0  0  0  0  0  0  0  0  0  0  0  0
    1.9710   -6.6790   -3.1665 H   0  0  0  0  0  0  0  0  0  0  0  0
    3.4891   -6.3050   -3.9355 H   0  0  0  0  0  0  0  0  0  0  0  0
    2.8618   -6.0232   -0.9666 H   0  0  0  0  0  0  0  0  0  0  0  0
    3.2785   -4.7851   -2.1454 H   0  0  0  0  0  0  0  0  0  0  0  0
    6.4914   -4.8357    1.5937 H   0  0  0  0  0  0  0  0  0  0  0  0
    4.1433   -4.0379    4.4119 H   0  0  0  0  0  0  0  0  0  0  0  0
    5.9731   -6.4761    7.1281 H   0  0  0  0  0  0  0  0  0  0  0  0
    7.7973   -8.0449    6.5037 H   0  0  0  0  0  0  0  0  0  0  0  0
    9.3559   -8.9380    4.8196 H   0  0  0  0  0  0  0  0  0  0  0  0
    9.3340   -8.0320    2.5123 H   0  0  0  0  0  0  0  0  0  0  0  0
    7.7830   -6.2861    1.8853 H   0  0  0  0  0  0  0  0  0  0  0  0
    7.2333   -2.5391   -0.8625 H   0  0  0  0  0  0  0  0  0  0  0  0
    7.6622   -3.3664    0.6347 H   0  0  0  0  0  0  0  0  0  0  0  0
    8.6720   -1.1897    0.5787 H   0  0  0  0  0  0  0  0  0  0  0  0
    7.4891   -1.2036    1.8866 H   0  0  0  0  0  0  0  0  0  0  0  0
  1  2  1  0  0  0  0
  2  3  1  0  0  0  0
  2  7  2  0  0  0  0
  3  4  2  0  0  0  0
  3 39  1  0  0  0  0
  4  5  1  0  0  0  0
  4 40  1  0  0  0  0
  5  6  2  0  0  0  0
  5 38  1  0  0  0  0
  6  7  1  0  0  0  0
  6  8  1  0  0  0  0
  7 41  1  0  0  0  0
  8  9  1  0  0  0  0
  8 23  1  0  0  0  0
  8 36  1  0  0  0  0
  9 10  1  0  0  0  0
  9 42  1  0  0  0  0
  9 43  1  0  0  0  0
 10 11  2  0  0  0  0
 10 12  1  0  0  0  0
 12 13  1  0  0  0  0
 12 22  1  0  0  0  0
 13 14  1  0  0  0  0
 13 44  1  0  0  0  0
 13 45  1  0  0  0  0
 14 15  1  0  0  0  0
 14 46  1  0  0  0  0
 14 47  1  0  0  0  0
 15 16  1  0  0  0  0
 15 21  1  0  0  0  0
 16 17  1  0  0  0  0
 16 20  1  0  0  0  0
 16 48  1  0  0  0  0
 17 18  1  0  0  0  0
 17 49  1  0  0  0  0
 17 50  1  0  0  0  0
 18 19  1  0  0  0  0
 18 51  1  0  0  0  0
 18 52  1  0  0  0  0
 19 20  1  0  0  0  0
 20 53  1  0  0  0  0
 20 54  1  0  0  0  0
 21 22  1  0  0  0  0
 21 55  1  0  0  0  0
 21 56  1  0  0  0  0
 22 57  1  0  0  0  0
 22 58  1  0  0  0  0
 23 24  2  0  0  0  0
 23 25  1  0  0  0  0
 25 26  1  0  0  0  0
 25 59  1  0  0  0  0
 26 27  1  0  0  0  0
 26 35  2  0  0  0  0
 27 28  2  0  0  0  0
 27 60  1  0  0  0  0
 28 29  1  0  0  0  0
 29 30  2  0  0  0  0
 29 61  1  0  0  0  0
 30 31  1  0  0  0  0
 30 35  1  0  0  0  0
 31 32  2  0  0  0  0
 31 62  1  0  0  0  0
 32 33  1  0  0  0  0
 32 63  1  0  0  0  0
 33 34  2  0  0  0  0
 33 64  1  0  0  0  0
 34 35  1  0  0  0  0
 34 65  1  0  0  0  0
 36 37  1  0  0  0  0
 36 66  1  0  0  0  0
 36 67  1  0  0  0  0
 37 38  1  0  0  0  0
 37 68  1  0  0  0  0
 37 69  1  0  0  0  0
M  END
$$$$
