
 OpenBabel07202414133D

 51 53  0  0  0  0  0  0  0  0999 V2000
    6.3326   -0.5232    0.6211 C   0  0  0  0  0  0  0  0  0  0  0  0
    4.9709   -0.7352   -0.0187 C   0  0  0  0  0  0  0  0  0  0  0  0
    4.9152    0.0787   -1.1943 O   0  0  0  0  0  0  0  0  0  0  0  0
    4.5118    1.3657   -1.0008 C   0  0  0  0  0  0  0  0  0  0  0  0
    3.8845    1.7500   -0.0218 O   0  0  0  0  0  0  0  0  0  0  0  0
    5.0183    2.2625   -2.0410 C   0  0  0  0  0  0  0  0  0  0  0  0
    4.4725    3.4969   -2.3894 C   0  0  0  0  0  0  0  0  0  0  0  0
    3.2310    4.1502   -1.8682 C   0  0  0  0  0  0  0  0  0  0  0  0
    5.2674    4.0243   -3.3992 N   0  0  0  0  0  0  0  0  0  0  0  0
    5.1210    5.6346   -4.0099 S   0  0  0  0  0  0  0  0  0  0  0  0
    6.0309    6.6921   -2.9179 C   0  0  0  0  0  0  0  0  0  0  0  0
    5.7776    5.6436   -5.3002 O   0  0  0  0  0  0  0  0  0  0  0  0
    3.7159    5.9861   -3.9071 O   0  0  0  0  0  0  0  0  0  0  0  0
    6.3414    3.1861   -3.6784 C   0  0  0  0  0  0  0  0  0  0  0  0
    7.4203    3.2604   -4.5880 C   0  0  0  0  0  0  0  0  0  0  0  0
    8.2880    2.1612   -4.7236 C   0  0  0  0  0  0  0  0  0  0  0  0
    8.1438    1.0331   -3.9252 C   0  0  0  0  0  0  0  0  0  0  0  0
    8.8742   -0.1826   -4.1805 N   0  0  0  0  0  0  0  0  0  0  0  0
   10.2869   -0.2846   -4.0133 C   0  0  0  0  0  0  0  0  0  0  0  0
   10.8818   -1.3028   -4.3573 O   0  0  0  0  0  0  0  0  0  0  0  0
   11.0268    0.8039   -3.3954 C   0  0  0  0  0  0  0  0  0  0  0  0
   12.3566    1.1581   -3.5491 C   0  0  0  0  0  0  0  0  0  0  0  0
   12.5950    2.2443   -2.6747 C   0  0  0  0  0  0  0  0  0  0  0  0
   11.4110    2.4697   -2.0198 C   0  0  0  0  0  0  0  0  0  0  0  0
   10.4569    1.5995   -2.4391 O   0  0  0  0  0  0  0  0  0  0  0  0
    8.0825   -1.2893   -5.2021 S   0  0  0  0  0  0  0  0  0  0  0  0
    8.0391   -2.7497   -4.1793 C   0  0  0  0  0  0  0  0  0  0  0  0
    6.7011   -0.8847   -5.3862 O   0  0  0  0  0  0  0  0  0  0  0  0
    8.9134   -1.5549   -6.3583 O   0  0  0  0  0  0  0  0  0  0  0  0
    7.1243    1.0039   -2.9681 C   0  0  0  0  0  0  0  0  0  0  0  0
    6.1840    2.0611   -2.8595 C   0  0  0  0  0  0  0  0  0  0  0  0
    6.4408   -1.1130    1.5332 H   0  0  0  0  0  0  0  0  0  0  0  0
    6.4912    0.5345    0.8594 H   0  0  0  0  0  0  0  0  0  0  0  0
    7.1281   -0.8048   -0.0780 H   0  0  0  0  0  0  0  0  0  0  0  0
    4.1558   -0.5129    0.6777 H   0  0  0  0  0  0  0  0  0  0  0  0
    4.8631   -1.7778   -0.3337 H   0  0  0  0  0  0  0  0  0  0  0  0
    2.7256    3.5398   -1.1159 H   0  0  0  0  0  0  0  0  0  0  0  0
    2.4995    4.2909   -2.6700 H   0  0  0  0  0  0  0  0  0  0  0  0
    3.4592    5.1123   -1.4005 H   0  0  0  0  0  0  0  0  0  0  0  0
    7.0887    6.4309   -2.9683 H   0  0  0  0  0  0  0  0  0  0  0  0
    5.6480    6.5778   -1.9028 H   0  0  0  0  0  0  0  0  0  0  0  0
    5.8867    7.7227   -3.2517 H   0  0  0  0  0  0  0  0  0  0  0  0
    7.5579    4.1125   -5.2486 H   0  0  0  0  0  0  0  0  0  0  0  0
    9.0539    2.1944   -5.4951 H   0  0  0  0  0  0  0  0  0  0  0  0
   13.0610    0.6793   -4.2168 H   0  0  0  0  0  0  0  0  0  0  0  0
   13.5221    2.7843   -2.5324 H   0  0  0  0  0  0  0  0  0  0  0  0
   11.0995    3.1715   -1.2573 H   0  0  0  0  0  0  0  0  0  0  0  0
    7.4405   -2.5385   -3.2906 H   0  0  0  0  0  0  0  0  0  0  0  0
    9.0490   -3.0550   -3.9073 H   0  0  0  0  0  0  0  0  0  0  0  0
    7.5622   -3.5456   -4.7569 H   0  0  0  0  0  0  0  0  0  0  0  0
    7.0164    0.1184   -2.3511 H   0  0  0  0  0  0  0  0  0  0  0  0
  1  2  1  0  0  0  0
  1 32  1  0  0  0  0
  1 33  1  0  0  0  0
  1 34  1  0  0  0  0
  2  3  1  0  0  0  0
  2 35  1  0  0  0  0
  2 36  1  0  0  0  0
  3  4  1  0  0  0  0
  4  5  2  0  0  0  0
  4  6  1  0  0  0  0
  6  7  2  0  0  0  0
  6 31  1  0  0  0  0
  7  8  1  0  0  0  0
  7  9  1  0  0  0  0
  8 37  1  0  0  0  0
  8 38  1  0  0  0  0
  8 39  1  0  0  0  0
  9 10  1  0  0  0  0
  9 14  1  0  0  0  0
 10 11  1  0  0  0  0
 10 12  2  0  0  0  0
 10 13  2  0  0  0  0
 11 40  1  0  0  0  0
 11 41  1  0  0  0  0
 11 42  1  0  0  0  0
 14 15  1  0  0  0  0
 14 31  2  0  0  0  0
 15 16  2  0  0  0  0
 15 43  1  0  0  0  0
 16 17  1  0  0  0  0
 16 44  1  0  0  0  0
 17 18  1  0  0  0  0
 17 30  2  0  0  0  0
 18 19  1  0  0  0  0
 18 26  1  0  0  0  0
 19 20  2  0  0  0  0
 19 21  1  0  0  0  0
 21 22  2  0  0  0  0
 21 25  1  0  0  0  0
 22 23  1  0  0  0  0
 22 45  1  0  0  0  0
 23 24  2  0  0  0  0
 23 46  1  0  0  0  0
 24 25  1  0  0  0  0
 24 47  1  0  0  0  0
 26 27  1  0  0  0  0
 26 28  2  0  0  0  0
 26 29  2  0  0  0  0
 27 48  1  0  0  0  0
 27 49  1  0  0  0  0
 27 50  1  0  0  0  0
 30 31  1  0  0  0  0
 30 51  1  0  0  0  0
M  END
$$$$
