
 OpenBabel07202414123D

 61 63  0  0  1  0  0  0  0  0999 V2000
    3.5788    1.2353   -0.0198 C   0  0  0  0  0  0  0  0  0  0  0  0
    2.5252    0.1034    0.0445 C   0  0  0  0  0  0  0  0  0  0  0  0
    1.5654    0.4548    1.2012 C   0  0  0  0  0  0  0  0  0  0  0  0
    1.7463    0.1322   -1.2891 C   0  0  0  0  0  0  0  0  0  0  0  0
    3.1241   -1.3014    0.2312 C   0  0  0  0  0  0  0  0  0  0  0  0
    4.4929   -1.5558    0.1432 C   0  0  0  0  0  0  0  0  0  0  0  0
    5.0052   -2.8689    0.1765 C   0  0  0  0  0  0  0  0  0  0  0  0
    4.1889   -4.0021    0.3237 C   0  0  0  0  0  0  0  0  0  0  0  0
    4.7118   -5.3770    0.2320 N   0  0  0  0  0  0  0  0  0  0  0  0
    3.7406   -6.4564   -0.1847 C   0  0  3  0  0  0  0  0  0  0  0  0
    3.9819   -6.9740   -1.6456 C   0  0  0  0  0  0  0  0  0  0  0  0
    5.0738   -6.9597   -2.2059 O   0  0  0  0  0  0  0  0  0  0  0  0
    2.8632   -7.5060   -2.2744 N   0  0  0  0  0  0  0  0  0  0  0  0
    2.9676   -8.1522   -3.5656 C   0  0  0  0  0  0  0  0  0  0  0  0
    1.9693   -9.2679   -3.7145 C   0  0  0  0  0  0  0  0  0  0  0  0
    0.6775   -9.0236   -4.2021 C   0  0  0  0  0  0  0  0  0  0  0  0
   -0.2277  -10.0724   -4.3876 C   0  0  0  0  0  0  0  0  0  0  0  0
    0.1430  -11.3807   -4.0792 C   0  0  0  0  0  0  0  0  0  0  0  0
    1.4163  -11.6341   -3.5689 C   0  0  0  0  0  0  0  0  0  0  0  0
    2.3221  -10.5893   -3.3852 C   0  0  0  0  0  0  0  0  0  0  0  0
    3.4315   -7.5390    0.8630 C   0  0  0  0  0  0  0  0  0  0  0  0
    3.4504   -7.2703    2.2398 C   0  0  0  0  0  0  0  0  0  0  0  0
    2.9078   -8.1867    3.1471 C   0  0  0  0  0  0  0  0  0  0  0  0
    2.3529   -9.3552    2.6597 C   0  0  0  0  0  0  0  0  0  0  0  0
    2.3645   -9.6841    1.3572 N   0  0  0  0  0  0  0  0  0  0  0  0
    2.9085   -8.7858    0.5023 C   0  0  0  0  0  0  0  0  0  0  0  0
    6.0936   -5.6088    0.3901 C   0  0  0  0  0  0  0  0  0  0  0  0
    6.9183   -4.7591    0.7391 O   0  0  0  0  0  0  0  0  0  0  0  0
    6.6349   -6.9799    0.1594 C   0  0  0  0  0  0  0  0  0  0  0  0
    7.9068   -7.1192   -0.2521 C   0  0  0  0  0  0  0  0  0  0  0  0
    2.8281   -3.7277    0.5257 C   0  0  0  0  0  0  0  0  0  0  0  0
    2.3064   -2.4192    0.4520 C   0  0  0  0  0  0  0  0  0  0  0  0
    3.0999    2.2132   -0.1574 H   0  0  0  0  0  0  0  0  0  0  0  0
    4.2704    1.1036   -0.8602 H   0  0  0  0  0  0  0  0  0  0  0  0
    4.1685    1.2890    0.9026 H   0  0  0  0  0  0  0  0  0  0  0  0
    1.1373    1.4558    1.0674 H   0  0  0  0  0  0  0  0  0  0  0  0
    2.0895    0.4435    2.1639 H   0  0  0  0  0  0  0  0  0  0  0  0
    0.7235   -0.2407    1.2735 H   0  0  0  0  0  0  0  0  0  0  0  0
    1.3160    1.1235   -1.4758 H   0  0  0  0  0  0  0  0  0  0  0  0
    0.9207   -0.5877   -1.2963 H   0  0  0  0  0  0  0  0  0  0  0  0
    2.4005   -0.1094   -2.1354 H   0  0  0  0  0  0  0  0  0  0  0  0
    5.2123   -0.7515    0.0108 H   0  0  0  0  0  0  0  0  0  0  0  0
    6.0783   -2.9409    0.0283 H   0  0  0  0  0  0  0  0  0  0  0  0
    2.7635   -5.9822   -0.3037 H   0  0  0  0  0  0  0  0  0  0  0  0
    1.9351   -7.3235   -1.9131 H   0  0  0  0  0  0  0  0  0  0  0  0
    3.9822   -8.5433   -3.7065 H   0  0  0  0  0  0  0  0  0  0  0  0
    2.8072   -7.3875   -4.3343 H   0  0  0  0  0  0  0  0  0  0  0  0
    0.3746   -8.0130   -4.4652 H   0  0  0  0  0  0  0  0  0  0  0  0
   -1.2189   -9.8719   -4.7869 H   0  0  0  0  0  0  0  0  0  0  0  0
   -0.5576  -12.1964   -4.2382 H   0  0  0  0  0  0  0  0  0  0  0  0
    1.7032  -12.6607   -3.3286 H   0  0  0  0  0  0  0  0  0  0  0  0
    3.3113  -10.8158   -2.9937 H   0  0  0  0  0  0  0  0  0  0  0  0
    3.8535   -6.3358    2.6249 H   0  0  0  0  0  0  0  0  0  0  0  0
    2.8896   -7.9805    4.2120 H   0  0  0  0  0  0  0  0  0  0  0  0
    1.8656  -10.0725    3.3145 H   0  0  0  0  0  0  0  0  0  0  0  0
    2.8656   -9.1347   -0.5235 H   0  0  0  0  0  0  0  0  0  0  0  0
    6.0269   -7.8496    0.3357 H   0  0  0  0  0  0  0  0  0  0  0  0
    8.5411   -6.2574   -0.4446 H   0  0  0  0  0  0  0  0  0  0  0  0
    8.3384   -8.0982   -0.4244 H   0  0  0  0  0  0  0  0  0  0  0  0
    2.1111   -4.5045    0.7715 H   0  0  0  0  0  0  0  0  0  0  0  0
    1.2300   -2.2988    0.5601 H   0  0  0  0  0  0  0  0  0  0  0  0
  1  2  1  0  0  0  0
  1 33  1  0  0  0  0
  1 34  1  0  0  0  0
  1 35  1  0  0  0  0
  2  3  1  0  0  0  0
  2  4  1  0  0  0  0
  2  5  1  0  0  0  0
  3 36  1  0  0  0  0
  3 37  1  0  0  0  0
  3 38  1  0  0  0  0
  4 39  1  0  0  0  0
  4 40  1  0  0  0  0
  4 41  1  0  0  0  0
  5  6  1  0  0  0  0
  5 32  2  0  0  0  0
  6  7  2  0  0  0  0
  6 42  1  0  0  0  0
  7  8  1  0  0  0  0
  7 43  1  0  0  0  0
  8  9  1  0  0  0  0
  8 31  2  0  0  0  0
  9 10  1  0  0  0  0
  9 27  1  0  0  0  0
 10 11  1  0  0  0  0
 10 21  1  0  0  0  0
 10 44  1  0  0  0  0
 11 12  2  0  0  0  0
 11 13  1  0  0  0  0
 13 14  1  0  0  0  0
 13 45  1  0  0  0  0
 14 15  1  0  0  0  0
 14 46  1  0  0  0  0
 14 47  1  0  0  0  0
 15 16  1  0  0  0  0
 15 20  2  0  0  0  0
 16 17  2  0  0  0  0
 16 48  1  0  0  0  0
 17 18  1  0  0  0  0
 17 49  1  0  0  0  0
 18 19  2  0  0  0  0
 18 50  1  0  0  0  0
 19 20  1  0  0  0  0
 19 51  1  0  0  0  0
 20 52  1  0  0  0  0
 21 22  1  0  0  0  0
 21 26  2  0  0  0  0
 22 23  2  0  0  0  0
 22 53  1  0  0  0  0
 23 24  1  0  0  0  0
 23 54  1  0  0  0  0
 24 25  2  0  0  0  0
 24 55  1  0  0  0  0
 25 26  1  0  0  0  0
 26 56  1  0  0  0  0
 27 28  2  0  0  0  0
 27 29  1  0  0  0  0
 29 30  2  0  0  0  0
 29 57  1  0  0  0  0
 30 58  1  0  0  0  0
 30 59  1  0  0  0  0
 31 32  1  0  0  0  0
 31 60  1  0  0  0  0
 32 61  1  0  0  0  0
M  END
$$$$
