
 OpenBabel07202414163D

 41 45  0  0  0  0  0  0  0  0999 V2000
    0.9989   -0.0227   -0.0783 C   0  0  0  0  0  0  0  0  0  0  0  0
    2.4981   -0.0222   -0.0903 C   0  0  0  0  0  0  0  0  0  0  0  0
    3.1725    1.2653   -0.1863 C   0  0  0  0  0  0  0  0  0  0  0  0
    4.5141    1.3062   -0.2158 C   0  0  0  0  0  0  0  0  0  0  0  0
    5.2589    0.1234   -0.1046 N   0  0  0  0  0  0  0  0  0  0  0  0
    4.6437   -1.1223   -0.0307 C   0  0  0  0  0  0  0  0  0  0  0  0
    3.2175   -1.1637   -0.0322 C   0  0  0  0  0  0  0  0  0  0  0  0
    5.5220   -2.0948    0.0291 N   0  0  0  0  0  0  0  0  0  0  0  0
    6.7536   -1.4813    0.0561 C   0  0  0  0  0  0  0  0  0  0  0  0
    6.6408   -0.0897   -0.0457 C   0  0  0  0  0  0  0  0  0  0  0  0
    7.6638    0.9752   -0.1217 C   0  0  0  0  0  0  0  0  0  0  0  0
    8.8425    0.7825   -0.8630 C   0  0  0  0  0  0  0  0  0  0  0  0
    9.8511    1.7542   -0.9424 C   0  0  0  0  0  0  0  0  0  0  0  0
    9.5903    2.9800   -0.3322 C   0  0  0  0  0  0  0  0  0  0  0  0
    8.4322    3.2293    0.3893 C   0  0  0  0  0  0  0  0  0  0  0  0
    7.4924    2.1970    0.5567 C   0  0  0  0  0  0  0  0  0  0  0  0
    8.5411    4.5813    0.7814 C   0  0  0  0  0  0  0  0  0  0  0  0
    9.6797    5.1443    0.3723 N   0  0  0  0  0  0  0  0  0  0  0  0
   10.3074    4.1499   -0.2812 N   0  0  0  0  0  0  0  0  0  0  0  0
    7.9747   -2.2730    0.1726 C   0  0  0  0  0  0  0  0  0  0  0  0
    8.0768   -3.4969   -0.5083 C   0  0  0  0  0  0  0  0  0  0  0  0
    9.2445   -4.2632   -0.4304 C   0  0  0  0  0  0  0  0  0  0  0  0
   10.3148   -3.8030    0.3270 C   0  0  0  0  0  0  0  0  0  0  0  0
   10.2309   -2.6050    1.0236 C   0  0  0  0  0  0  0  0  0  0  0  0
    9.0543   -1.8520    0.9648 C   0  0  0  0  0  0  0  0  0  0  0  0
   11.4407   -4.5259    0.3904 F   0  0  0  0  0  0  0  0  0  0  0  0
    0.5858    0.9920   -0.0689 H   0  0  0  0  0  0  0  0  0  0  0  0
    0.6196   -0.5344    0.8132 H   0  0  0  0  0  0  0  0  0  0  0  0
    0.6078   -0.5278   -0.9680 H   0  0  0  0  0  0  0  0  0  0  0  0
    2.5870    2.1767   -0.2407 H   0  0  0  0  0  0  0  0  0  0  0  0
    5.0391    2.2437   -0.3192 H   0  0  0  0  0  0  0  0  0  0  0  0
    2.7408   -2.1362    0.0181 H   0  0  0  0  0  0  0  0  0  0  0  0
    9.0103   -0.1565   -1.3902 H   0  0  0  0  0  0  0  0  0  0  0  0
   10.7716    1.5628   -1.4834 H   0  0  0  0  0  0  0  0  0  0  0  0
    6.6297    2.3759    1.1902 H   0  0  0  0  0  0  0  0  0  0  0  0
    7.8223    5.1813    1.3256 H   0  0  0  0  0  0  0  0  0  0  0  0
   11.2149    4.3392   -0.6887 H   0  0  0  0  0  0  0  0  0  0  0  0
    7.2415   -3.8586   -1.1060 H   0  0  0  0  0  0  0  0  0  0  0  0
    9.3246   -5.2094   -0.9557 H   0  0  0  0  0  0  0  0  0  0  0  0
   11.0775   -2.2610    1.6097 H   0  0  0  0  0  0  0  0  0  0  0  0
    8.9982   -0.9275    1.5327 H   0  0  0  0  0  0  0  0  0  0  0  0
  1  2  1  0  0  0  0
  1 27  1  0  0  0  0
  1 28  1  0  0  0  0
  1 29  1  0  0  0  0
  2  3  1  0  0  0  0
  2  7  2  0  0  0  0
  3  4  2  0  0  0  0
  3 30  1  0  0  0  0
  4  5  1  0  0  0  0
  4 31  1  0  0  0  0
  5  6  1  0  0  0  0
  5 10  1  0  0  0  0
  6  7  1  0  0  0  0
  6  8  2  0  0  0  0
  7 32  1  0  0  0  0
  8  9  1  0  0  0  0
  9 10  2  0  0  0  0
  9 20  1  0  0  0  0
 10 11  1  0  0  0  0
 11 12  1  0  0  0  0
 11 16  2  0  0  0  0
 12 13  2  0  0  0  0
 12 33  1  0  0  0  0
 13 14  1  0  0  0  0
 13 34  1  0  0  0  0
 14 15  2  0  0  0  0
 14 19  1  0  0  0  0
 15 16  1  0  0  0  0
 15 17  1  0  0  0  0
 16 35  1  0  0  0  0
 17 18  2  0  0  0  0
 17 36  1  0  0  0  0
 18 19  1  0  0  0  0
 19 37  1  0  0  0  0
 20 21  1  0  0  0  0
 20 25  2  0  0  0  0
 21 22  2  0  0  0  0
 21 38  1  0  0  0  0
 22 23  1  0  0  0  0
 22 39  1  0  0  0  0
 23 24  2  0  0  0  0
 23 26  1  0  0  0  0
 24 25  1  0  0  0  0
 24 40  1  0  0  0  0
 25 41  1  0  0  0  0
M  END
$$$$
