
 OpenBabel07202414183D

 49 52  0  0  0  0  0  0  0  0999 V2000
    2.8847   -1.3747   -0.5953 F   0  0  0  0  0  0  0  0  0  0  0  0
    1.5627   -1.2028   -0.7306 C   0  0  0  0  0  0  0  0  0  0  0  0
    0.7341   -2.3209   -0.7913 C   0  0  0  0  0  0  0  0  0  0  0  0
   -0.6558   -2.1693   -0.9450 C   0  0  0  0  0  0  0  0  0  0  0  0
   -1.5407   -3.3872   -1.0649 C   0  0  0  0  0  0  0  0  0  0  0  0
   -1.3635   -4.2342    0.1110 N   0  0  0  0  0  0  0  0  0  0  0  0
   -1.6391   -5.6030   -0.0251 C   0  0  0  0  0  0  0  0  0  0  0  0
   -1.0244   -6.4949    0.8752 C   0  0  0  0  0  0  0  0  0  0  0  0
   -1.2473   -7.8812    0.8084 C   0  0  0  0  0  0  0  0  0  0  0  0
   -0.6506   -8.8665    1.7905 C   0  0  0  0  0  0  0  0  0  0  0  0
    0.6785   -8.4871    2.4145 C   0  0  0  0  0  0  0  0  0  0  0  0
    0.7426   -8.0026    3.5409 O   0  0  0  0  0  0  0  0  0  0  0  0
    1.7686   -8.7213    1.5935 N   0  0  0  0  0  0  0  0  0  0  0  0
    3.0968   -8.4478    2.0043 C   0  0  0  0  0  0  0  0  0  0  0  0
    3.5546   -8.8302    3.2665 C   0  0  0  0  0  0  0  0  0  0  0  0
    4.8170   -8.6487    3.7120 N   0  0  0  0  0  0  0  0  0  0  0  0
    5.6652   -8.0132    2.8677 C   0  0  0  0  0  0  0  0  0  0  0  0
    5.3182   -7.5622    1.5919 C   0  0  0  0  0  0  0  0  0  0  0  0
    6.2391   -6.8718    0.7849 C   0  0  0  0  0  0  0  0  0  0  0  0
    5.8658   -6.3869   -0.4677 C   0  0  0  0  0  0  0  0  0  0  0  0
    4.5713   -6.5920   -0.9277 C   0  0  0  0  0  0  0  0  0  0  0  0
    3.6520   -7.2887   -0.1420 C   0  0  0  0  0  0  0  0  0  0  0  0
    4.0001   -7.7939    1.1337 C   0  0  0  0  0  0  0  0  0  0  0  0
   -2.1521   -8.3623   -0.1497 C   0  0  0  0  0  0  0  0  0  0  0  0
   -2.8083   -7.4809   -1.0062 C   0  0  0  0  0  0  0  0  0  0  0  0
   -3.9457   -8.0863   -2.1476 Cl  0  0  0  0  0  0  0  0  0  0  0  0
   -2.5654   -6.1113   -0.9382 C   0  0  0  0  0  0  0  0  0  0  0  0
   -1.1866   -0.8747   -1.0413 C   0  0  0  0  0  0  0  0  0  0  0  0
   -0.3404    0.2328   -0.9778 C   0  0  0  0  0  0  0  0  0  0  0  0
   -0.8681    1.4605   -1.0804 F   0  0  0  0  0  0  0  0  0  0  0  0
    1.0301    0.0742   -0.8232 C   0  0  0  0  0  0  0  0  0  0  0  0
    1.8328    1.1467   -0.7741 F   0  0  0  0  0  0  0  0  0  0  0  0
    1.1760   -3.3124   -0.7177 H   0  0  0  0  0  0  0  0  0  0  0  0
   -1.2464   -3.9083   -1.9854 H   0  0  0  0  0  0  0  0  0  0  0  0
   -2.5930   -3.0949   -1.1631 H   0  0  0  0  0  0  0  0  0  0  0  0
   -1.8757   -3.8607    0.9117 H   0  0  0  0  0  0  0  0  0  0  0  0
   -0.3524   -6.0837    1.6297 H   0  0  0  0  0  0  0  0  0  0  0  0
   -0.5167   -9.8405    1.3020 H   0  0  0  0  0  0  0  0  0  0  0  0
   -1.3667   -9.0179    2.6071 H   0  0  0  0  0  0  0  0  0  0  0  0
    1.5835   -8.7491    0.5998 H   0  0  0  0  0  0  0  0  0  0  0  0
    2.9080   -9.3546    3.9682 H   0  0  0  0  0  0  0  0  0  0  0  0
    6.6592   -7.8620    3.2702 H   0  0  0  0  0  0  0  0  0  0  0  0
    7.2510   -6.6850    1.1398 H   0  0  0  0  0  0  0  0  0  0  0  0
    6.5789   -5.8340   -1.0729 H   0  0  0  0  0  0  0  0  0  0  0  0
    4.2671   -6.1957   -1.8941 H   0  0  0  0  0  0  0  0  0  0  0  0
    2.6444   -7.3907   -0.5343 H   0  0  0  0  0  0  0  0  0  0  0  0
   -2.3707   -9.4264   -0.2125 H   0  0  0  0  0  0  0  0  0  0  0  0
   -3.1189   -5.4515   -1.5987 H   0  0  0  0  0  0  0  0  0  0  0  0
   -2.2527   -0.7097   -1.1733 H   0  0  0  0  0  0  0  0  0  0  0  0
  1  2  1  0  0  0  0
  2  3  2  0  0  0  0
  2 31  1  0  0  0  0
  3  4  1  0  0  0  0
  3 33  1  0  0  0  0
  4  5  1  0  0  0  0
  4 28  2  0  0  0  0
  5  6  1  0  0  0  0
  5 34  1  0  0  0  0
  5 35  1  0  0  0  0
  6  7  1  0  0  0  0
  6 36  1  0  0  0  0
  7  8  2  0  0  0  0
  7 27  1  0  0  0  0
  8  9  1  0  0  0  0
  8 37  1  0  0  0  0
  9 10  1  0  0  0  0
  9 24  2  0  0  0  0
 10 11  1  0  0  0  0
 10 38  1  0  0  0  0
 10 39  1  0  0  0  0
 11 12  2  0  0  0  0
 11 13  1  0  0  0  0
 13 14  1  0  0  0  0
 13 40  1  0  0  0  0
 14 15  2  0  0  0  0
 14 23  1  0  0  0  0
 15 16  1  0  0  0  0
 15 41  1  0  0  0  0
 16 17  2  0  0  0  0
 17 18  1  0  0  0  0
 17 42  1  0  0  0  0
 18 19  2  0  0  0  0
 18 23  1  0  0  0  0
 19 20  1  0  0  0  0
 19 43  1  0  0  0  0
 20 21  2  0  0  0  0
 20 44  1  0  0  0  0
 21 22  1  0  0  0  0
 21 45  1  0  0  0  0
 22 23  2  0  0  0  0
 22 46  1  0  0  0  0
 24 25  1  0  0  0  0
 24 47  1  0  0  0  0
 25 26  1  0  0  0  0
 25 27  2  0  0  0  0
 27 48  1  0  0  0  0
 28 29  1  0  0  0  0
 28 49  1  0  0  0  0
 29 30  1  0  0  0  0
 29 31  2  0  0  0  0
 31 32  1  0  0  0  0
M  END
$$$$
