
 OpenBabel07202414133D

 40 42  0  0  0  0  0  0  0  0999 V2000
    2.1209    0.6793    0.1770 C   0  0  0  0  0  0  0  0  0  0  0  0
    3.2508   -0.3174    0.3908 C   0  0  0  0  0  0  0  0  0  0  0  0
    3.2851   -1.3293   -0.7275 C   0  0  0  0  0  0  0  0  0  0  0  0
    2.5776   -2.5317   -0.6114 C   0  0  0  0  0  0  0  0  0  0  0  0
    2.5651   -3.4338   -1.6713 C   0  0  0  0  0  0  0  0  0  0  0  0
    1.7063   -4.9171   -1.5214 Cl  0  0  0  0  0  0  0  0  0  0  0  0
    3.2347   -3.1402   -2.8592 C   0  0  0  0  0  0  0  0  0  0  0  0
    3.9361   -1.9319   -3.0053 C   0  0  0  0  0  0  0  0  0  0  0  0
    4.6764   -1.6764   -4.2997 C   0  0  0  0  0  0  0  0  0  0  0  0
    4.9135   -0.2226   -4.6581 C   0  0  0  0  0  0  0  0  0  0  0  0
    6.0320    0.2830   -4.5676 O   0  0  0  0  0  0  0  0  0  0  0  0
    3.7743    0.4522   -5.0565 N   0  0  0  0  0  0  0  0  0  0  0  0
    3.7870    1.8097   -5.4676 C   0  0  0  0  0  0  0  0  0  0  0  0
    4.8112    2.3071   -6.2787 C   0  0  0  0  0  0  0  0  0  0  0  0
    4.8737    3.5761   -6.7445 N   0  0  0  0  0  0  0  0  0  0  0  0
    3.8850    4.4053   -6.3516 C   0  0  0  0  0  0  0  0  0  0  0  0
    2.8195    4.0343   -5.5245 C   0  0  0  0  0  0  0  0  0  0  0  0
    1.8538    4.9724   -5.1189 C   0  0  0  0  0  0  0  0  0  0  0  0
    0.8216    4.6008   -4.2606 C   0  0  0  0  0  0  0  0  0  0  0  0
    0.7374    3.2896   -3.8091 C   0  0  0  0  0  0  0  0  0  0  0  0
    1.6853    2.3477   -4.2139 C   0  0  0  0  0  0  0  0  0  0  0  0
    2.7524    2.6961   -5.0793 C   0  0  0  0  0  0  0  0  0  0  0  0
    3.9770   -1.0462   -1.9182 C   0  0  0  0  0  0  0  0  0  0  0  0
    2.1208    1.4331    0.9716 H   0  0  0  0  0  0  0  0  0  0  0  0
    1.1464    0.1782    0.1836 H   0  0  0  0  0  0  0  0  0  0  0  0
    2.2225    1.1968   -0.7829 H   0  0  0  0  0  0  0  0  0  0  0  0
    3.1232   -0.8254    1.3548 H   0  0  0  0  0  0  0  0  0  0  0  0
    4.2112    0.2088    0.4459 H   0  0  0  0  0  0  0  0  0  0  0  0
    2.0383   -2.7638    0.3030 H   0  0  0  0  0  0  0  0  0  0  0  0
    3.2155   -3.8623   -3.6728 H   0  0  0  0  0  0  0  0  0  0  0  0
    4.1244   -2.1247   -5.1360 H   0  0  0  0  0  0  0  0  0  0  0  0
    5.6507   -2.1766   -4.2520 H   0  0  0  0  0  0  0  0  0  0  0  0
    2.8916    0.0623   -4.7548 H   0  0  0  0  0  0  0  0  0  0  0  0
    5.6231    1.6711   -6.6223 H   0  0  0  0  0  0  0  0  0  0  0  0
    3.9822    5.4218   -6.7244 H   0  0  0  0  0  0  0  0  0  0  0  0
    1.9140    6.0070   -5.4519 H   0  0  0  0  0  0  0  0  0  0  0  0
    0.0918    5.3371   -3.9346 H   0  0  0  0  0  0  0  0  0  0  0  0
   -0.0576    2.9986   -3.1268 H   0  0  0  0  0  0  0  0  0  0  0  0
    1.5932    1.3450   -3.8076 H   0  0  0  0  0  0  0  0  0  0  0  0
    4.5487   -0.1201   -1.9835 H   0  0  0  0  0  0  0  0  0  0  0  0
  1  2  1  0  0  0  0
  1 24  1  0  0  0  0
  1 25  1  0  0  0  0
  1 26  1  0  0  0  0
  2  3  1  0  0  0  0
  2 27  1  0  0  0  0
  2 28  1  0  0  0  0
  3  4  1  0  0  0  0
  3 23  2  0  0  0  0
  4  5  2  0  0  0  0
  4 29  1  0  0  0  0
  5  6  1  0  0  0  0
  5  7  1  0  0  0  0
  7  8  2  0  0  0  0
  7 30  1  0  0  0  0
  8  9  1  0  0  0  0
  8 23  1  0  0  0  0
  9 10  1  0  0  0  0
  9 31  1  0  0  0  0
  9 32  1  0  0  0  0
 10 11  2  0  0  0  0
 10 12  1  0  0  0  0
 12 13  1  0  0  0  0
 12 33  1  0  0  0  0
 13 14  1  0  0  0  0
 13 22  2  0  0  0  0
 14 15  2  0  0  0  0
 14 34  1  0  0  0  0
 15 16  1  0  0  0  0
 16 17  2  0  0  0  0
 16 35  1  0  0  0  0
 17 18  1  0  0  0  0
 17 22  1  0  0  0  0
 18 19  2  0  0  0  0
 18 36  1  0  0  0  0
 19 20  1  0  0  0  0
 19 37  1  0  0  0  0
 20 21  2  0  0  0  0
 20 38  1  0  0  0  0
 21 22  1  0  0  0  0
 21 39  1  0  0  0  0
 23 40  1  0  0  0  0
M  END
$$$$
