
 OpenBabel07202414173D

 67 72  0  0  1  0  0  0  0  0999 V2000
    0.9998    0.3497   -0.0854 Cl  0  0  0  0  0  0  0  0  0  0  0  0
    2.7139    0.2160   -0.0143 C   0  0  0  0  0  0  0  0  0  0  0  0
    3.5072    1.3512   -0.0361 C   0  0  0  0  0  0  0  0  0  0  0  0
    4.8915    1.2136    0.0594 C   0  0  0  0  0  0  0  0  0  0  0  0
    5.4771   -0.0479    0.2322 C   0  0  0  0  0  0  0  0  0  0  0  0
    4.6890   -1.2065    0.2715 C   0  0  0  0  0  0  0  0  0  0  0  0
    3.2974   -1.0464    0.0967 C   0  0  0  0  0  0  0  0  0  0  0  0
    5.3238   -2.5826    0.5589 C   0  0  3  0  0  0  0  0  0  0  0  0
    4.7487   -3.6846   -0.4098 C   0  0  0  0  0  0  0  0  0  0  0  0
    5.3126   -5.0404   -0.4149 N   0  0  0  0  0  0  0  0  0  0  0  0
    5.0725   -5.7840    0.8194 C   0  0  0  0  0  0  0  0  0  0  0  0
    5.6028   -7.1688    0.7460 C   0  0  0  0  0  0  0  0  0  0  0  0
    5.1267   -8.2892    1.3908 C   0  0  0  0  0  0  0  0  0  0  0  0
    6.0469   -9.2505    1.1080 N   0  0  0  0  0  0  0  0  0  0  0  0
    6.0869  -10.6064    1.6110 C   0  0  0  0  0  0  0  0  0  0  0  0
    5.3086  -11.6052    0.7550 C   0  0  3  0  0  0  0  0  0  0  0  0
    5.7819  -11.7383   -0.6844 C   0  0  0  0  0  0  0  0  0  0  0  0
    4.5106  -11.9710   -1.4588 C   0  0  0  0  0  0  0  0  0  0  0  0
    3.4498  -11.2908   -0.6242 C   0  0  0  0  0  0  0  0  0  0  0  0
    3.9078  -11.2785    0.7322 O   0  0  0  0  0  0  0  0  0  0  0  0
    7.0445   -8.7636    0.3481 N   0  0  0  0  0  0  0  0  0  0  0  0
    6.7782   -7.4850    0.1104 N   0  0  0  0  0  0  0  0  0  0  0  0
    5.0521   -2.9429    2.0719 C   0  0  0  0  0  0  0  0  0  0  0  0
    5.9560   -3.0447    2.8989 O   0  0  0  0  0  0  0  0  0  0  0  0
    3.7117   -3.1502    2.3561 N   0  0  0  0  0  0  0  0  0  0  0  0
    3.0861   -3.6344    3.5343 C   0  0  0  0  0  0  0  0  0  0  0  0
    3.7900   -4.1411    4.6206 C   0  0  0  0  0  0  0  0  0  0  0  0
    3.2112   -4.8129    5.6442 N   0  0  0  0  0  0  0  0  0  0  0  0
    1.8643   -4.9222    5.6186 C   0  0  0  0  0  0  0  0  0  0  0  0
    1.0383   -4.3335    4.6620 C   0  0  0  0  0  0  0  0  0  0  0  0
   -0.3661   -4.3737    4.7761 C   0  0  0  0  0  0  0  0  0  0  0  0
   -1.1800   -3.7478    3.8345 C   0  0  0  0  0  0  0  0  0  0  0  0
   -0.6006   -3.1021    2.7533 C   0  0  0  0  0  0  0  0  0  0  0  0
    0.7899   -3.0710    2.6251 C   0  0  0  0  0  0  0  0  0  0  0  0
    1.6562   -3.6732    3.5780 C   0  0  0  0  0  0  0  0  0  0  0  0
    6.8409   -2.4829    0.2749 C   0  0  0  0  0  0  0  0  0  0  0  0
    7.4349   -1.2126    0.8529 C   0  0  0  0  0  0  0  0  0  0  0  0
    6.8385   -0.0379    0.3096 O   0  0  0  0  0  0  0  0  0  0  0  0
    3.0633    2.3375   -0.1301 H   0  0  0  0  0  0  0  0  0  0  0  0
    5.5230    2.0975    0.0219 H   0  0  0  0  0  0  0  0  0  0  0  0
    2.6283   -1.8985    0.0559 H   0  0  0  0  0  0  0  0  0  0  0  0
    4.8681   -3.3107   -1.4376 H   0  0  0  0  0  0  0  0  0  0  0  0
    3.6645   -3.7917   -0.2918 H   0  0  0  0  0  0  0  0  0  0  0  0
    6.3138   -5.0462   -0.6171 H   0  0  0  0  0  0  0  0  0  0  0  0
    3.9965   -5.8206    1.0255 H   0  0  0  0  0  0  0  0  0  0  0  0
    5.5793   -5.3148    1.6636 H   0  0  0  0  0  0  0  0  0  0  0  0
    4.2738   -8.4615    2.0294 H   0  0  0  0  0  0  0  0  0  0  0  0
    5.6623  -10.5708    2.6219 H   0  0  0  0  0  0  0  0  0  0  0  0
    7.1387  -10.9000    1.6978 H   0  0  0  0  0  0  0  0  0  0  0  0
    5.3748  -12.5863    1.2416 H   0  0  0  0  0  0  0  0  0  0  0  0
    6.4972  -12.5595   -0.7993 H   0  0  0  0  0  0  0  0  0  0  0  0
    6.2741  -10.8348   -1.0522 H   0  0  0  0  0  0  0  0  0  0  0  0
    4.3053  -13.0445   -1.5288 H   0  0  0  0  0  0  0  0  0  0  0  0
    4.5548  -11.5723   -2.4769 H   0  0  0  0  0  0  0  0  0  0  0  0
    2.4900  -11.8133   -0.6766 H   0  0  0  0  0  0  0  0  0  0  0  0
    3.2953  -10.2534   -0.9378 H   0  0  0  0  0  0  0  0  0  0  0  0
    3.0758   -3.0417    1.5921 H   0  0  0  0  0  0  0  0  0  0  0  0
    4.8687   -4.0597    4.7067 H   0  0  0  0  0  0  0  0  0  0  0  0
    1.4468   -5.5127    6.4310 H   0  0  0  0  0  0  0  0  0  0  0  0
   -0.8354   -4.8637    5.6270 H   0  0  0  0  0  0  0  0  0  0  0  0
   -2.2601   -3.7461    3.9557 H   0  0  0  0  0  0  0  0  0  0  0  0
   -1.2273   -2.6014    2.0178 H   0  0  0  0  0  0  0  0  0  0  0  0
    1.1764   -2.5152    1.7791 H   0  0  0  0  0  0  0  0  0  0  0  0
    7.0038   -2.4611   -0.8129 H   0  0  0  0  0  0  0  0  0  0  0  0
    7.3806   -3.3530    0.6655 H   0  0  0  0  0  0  0  0  0  0  0  0
    8.4990   -1.1713    0.5925 H   0  0  0  0  0  0  0  0  0  0  0  0
    7.3749   -1.1719    1.9447 H   0  0  0  0  0  0  0  0  0  0  0  0
  1  2  1  0  0  0  0
  2  3  1  0  0  0  0
  2  7  2  0  0  0  0
  3  4  2  0  0  0  0
  3 39  1  0  0  0  0
  4  5  1  0  0  0  0
  4 40  1  0  0  0  0
  5  6  2  0  0  0  0
  5 38  1  0  0  0  0
  6  7  1  0  0  0  0
  6  8  1  0  0  0  0
  7 41  1  0  0  0  0
  8  9  1  0  0  0  0
  8 23  1  0  0  0  0
  8 36  1  0  0  0  0
  9 10  1  0  0  0  0
  9 42  1  0  0  0  0
  9 43  1  0  0  0  0
 10 11  1  0  0  0  0
 10 44  1  0  0  0  0
 11 12  1  0  0  0  0
 11 45  1  0  0  0  0
 11 46  1  0  0  0  0
 12 13  2  0  0  0  0
 12 22  1  0  0  0  0
 13 14  1  0  0  0  0
 13 47  1  0  0  0  0
 14 15  1  0  0  0  0
 14 21  1  0  0  0  0
 15 16  1  0  0  0  0
 15 48  1  0  0  0  0
 15 49  1  0  0  0  0
 16 17  1  0  0  0  0
 16 20  1  0  0  0  0
 16 50  1  0  0  0  0
 17 18  1  0  0  0  0
 17 51  1  0  0  0  0
 17 52  1  0  0  0  0
 18 19  1  0  0  0  0
 18 53  1  0  0  0  0
 18 54  1  0  0  0  0
 19 20  1  0  0  0  0
 19 55  1  0  0  0  0
 19 56  1  0  0  0  0
 21 22  2  0  0  0  0
 23 24  2  0  0  0  0
 23 25  1  0  0  0  0
 25 26  1  0  0  0  0
 25 57  1  0  0  0  0
 26 27  1  0  0  0  0
 26 35  2  0  0  0  0
 27 28  2  0  0  0  0
 27 58  1  0  0  0  0
 28 29  1  0  0  0  0
 29 30  2  0  0  0  0
 29 59  1  0  0  0  0
 30 31  1  0  0  0  0
 30 35  1  0  0  0  0
 31 32  2  0  0  0  0
 31 60  1  0  0  0  0
 32 33  1  0  0  0  0
 32 61  1  0  0  0  0
 33 34  2  0  0  0  0
 33 62  1  0  0  0  0
 34 35  1  0  0  0  0
 34 63  1  0  0  0  0
 36 37  1  0  0  0  0
 36 64  1  0  0  0  0
 36 65  1  0  0  0  0
 37 38  1  0  0  0  0
 37 66  1  0  0  0  0
 37 67  1  0  0  0  0
M  END
$$$$
