
 OpenBabel07202414173D

 45 48  0  0  1  0  0  0  0  0999 V2000
    3.1584    1.4510   -2.2686 Cl  0  0  0  0  0  0  0  0  0  0  0  0
    4.6181    0.6626   -1.8051 C   0  0  0  0  0  0  0  0  0  0  0  0
    5.8112    1.3814   -1.8104 C   0  0  0  0  0  0  0  0  0  0  0  0
    6.9813    0.7623   -1.3920 C   0  0  0  0  0  0  0  0  0  0  0  0
    6.9579   -0.5711   -0.9653 C   0  0  0  0  0  0  0  0  0  0  0  0
    5.7731   -1.3332   -1.0104 C   0  0  0  0  0  0  0  0  0  0  0  0
    4.5928   -0.6808   -1.4061 C   0  0  0  0  0  0  0  0  0  0  0  0
    5.7793   -2.7825   -0.5125 C   0  0  1  0  0  0  0  0  0  0  0  0
    4.9370   -3.8067   -1.3318 C   0  0  0  0  0  0  0  0  0  0  0  0
    4.4650   -3.4778   -2.4230 O   0  0  0  0  0  0  0  0  0  0  0  0
    4.7606   -5.1005   -0.7700 N   0  0  0  0  0  0  0  0  0  0  0  0
    5.0194   -5.3508    0.5806 C   0  0  0  0  0  0  0  0  0  0  0  0
    5.9527   -6.0221    1.0103 O   0  0  0  0  0  0  0  0  0  0  0  0
    4.1566   -4.5768    1.5266 C   0  0  0  0  0  0  0  0  0  0  0  0
    4.4815   -4.5244    2.8258 C   0  0  0  0  0  0  0  0  0  0  0  0
    3.9799   -6.1362   -1.4555 C   0  0  0  0  0  0  0  0  0  0  0  0
    2.8603   -5.7726   -2.2163 C   0  0  0  0  0  0  0  0  0  0  0  0
    1.8716   -6.6179   -2.5928 N   0  0  0  0  0  0  0  0  0  0  0  0
    2.0111   -7.9097   -2.2414 C   0  0  0  0  0  0  0  0  0  0  0  0
    3.1404   -8.4386   -1.6213 C   0  0  0  0  0  0  0  0  0  0  0  0
    3.2376   -9.8222   -1.3890 C   0  0  0  0  0  0  0  0  0  0  0  0
    4.3965  -10.3741   -0.8554 C   0  0  0  0  0  0  0  0  0  0  0  0
    5.4723   -9.5414   -0.5775 C   0  0  0  0  0  0  0  0  0  0  0  0
    5.3653   -8.1621   -0.7875 C   0  0  0  0  0  0  0  0  0  0  0  0
    4.1795   -7.5437   -1.2589 C   0  0  0  0  0  0  0  0  0  0  0  0
    7.2263   -3.2732   -0.4089 C   0  0  0  0  0  0  0  0  0  0  0  0
    8.0477   -2.2149    0.2956 C   0  0  0  0  0  0  0  0  0  0  0  0
    8.1588   -1.0502   -0.5153 O   0  0  0  0  0  0  0  0  0  0  0  0
    5.8341    2.4223   -2.1235 H   0  0  0  0  0  0  0  0  0  0  0  0
    7.9165    1.3170   -1.3708 H   0  0  0  0  0  0  0  0  0  0  0  0
    3.6424   -1.2093   -1.4147 H   0  0  0  0  0  0  0  0  0  0  0  0
    5.3538   -2.6976    0.4910 H   0  0  0  0  0  0  0  0  0  0  0  0
    3.3133   -4.0206    1.1352 H   0  0  0  0  0  0  0  0  0  0  0  0
    5.3324   -5.0738    3.2246 H   0  0  0  0  0  0  0  0  0  0  0  0
    3.9110   -3.9237    3.5261 H   0  0  0  0  0  0  0  0  0  0  0  0
    2.6461   -4.7488   -2.5057 H   0  0  0  0  0  0  0  0  0  0  0  0
    1.1648   -8.5404   -2.5039 H   0  0  0  0  0  0  0  0  0  0  0  0
    2.4135  -10.4871   -1.6444 H   0  0  0  0  0  0  0  0  0  0  0  0
    4.4748  -11.4441   -0.6914 H   0  0  0  0  0  0  0  0  0  0  0  0
    6.4017   -9.9637   -0.2040 H   0  0  0  0  0  0  0  0  0  0  0  0
    6.2657   -7.5690   -0.6127 H   0  0  0  0  0  0  0  0  0  0  0  0
    7.6292   -3.4567   -1.4131 H   0  0  0  0  0  0  0  0  0  0  0  0
    7.3049   -4.2094    0.1445 H   0  0  0  0  0  0  0  0  0  0  0  0
    9.0600   -2.5891    0.4776 H   0  0  0  0  0  0  0  0  0  0  0  0
    7.6217   -1.9464    1.2718 H   0  0  0  0  0  0  0  0  0  0  0  0
  1  2  1  0  0  0  0
  2  3  1  0  0  0  0
  2  7  2  0  0  0  0
  3  4  2  0  0  0  0
  3 29  1  0  0  0  0
  4  5  1  0  0  0  0
  4 30  1  0  0  0  0
  5  6  2  0  0  0  0
  5 28  1  0  0  0  0
  6  7  1  0  0  0  0
  6  8  1  0  0  0  0
  7 31  1  0  0  0  0
  8 26  1  0  0  0  0
  8  9  1  0  0  0  0
  8 32  1  1  0  0  0
  9 10  2  0  0  0  0
  9 11  1  0  0  0  0
 11 12  1  0  0  0  0
 11 16  1  0  0  0  0
 12 13  2  0  0  0  0
 12 14  1  0  0  0  0
 14 15  2  0  0  0  0
 14 33  1  0  0  0  0
 15 34  1  0  0  0  0
 15 35  1  0  0  0  0
 16 17  1  0  0  0  0
 16 25  2  0  0  0  0
 17 18  2  0  0  0  0
 17 36  1  0  0  0  0
 18 19  1  0  0  0  0
 19 20  2  0  0  0  0
 19 37  1  0  0  0  0
 20 21  1  0  0  0  0
 20 25  1  0  0  0  0
 21 22  2  0  0  0  0
 21 38  1  0  0  0  0
 22 23  1  0  0  0  0
 22 39  1  0  0  0  0
 23 24  2  0  0  0  0
 23 40  1  0  0  0  0
 24 25  1  0  0  0  0
 24 41  1  0  0  0  0
 26 27  1  0  0  0  0
 26 42  1  0  0  0  0
 26 43  1  0  0  0  0
 27 28  1  0  0  0  0
 27 44  1  0  0  0  0
 27 45  1  0  0  0  0
M  END
$$$$
