
 OpenBabel07202414183D

 24 25  0  0  0  0  0  0  0  0999 V2000
   -1.8569   -0.0887   -1.1804 Cl  0  0  0  0  0  0  0  0  0  0  0  0
   -0.2550   -0.0107   -0.5581 C   0  0  0  0  0  0  0  0  0  0  0  0
    0.2297    1.1848   -0.0390 C   0  0  0  0  0  0  0  0  0  0  0  0
    1.5206    1.2318    0.4885 C   0  0  0  0  0  0  0  0  0  0  0  0
    2.3255    0.0855    0.4933 C   0  0  0  0  0  0  0  0  0  0  0  0
    1.8559   -1.1191   -0.0512 C   0  0  0  0  0  0  0  0  0  0  0  0
    2.6497   -2.4048   -0.0006 C   0  0  0  0  0  0  0  0  0  0  0  0
    4.1562   -2.2970   -0.0881 C   0  0  0  0  0  0  0  0  0  0  0  0
    4.8934   -2.7162    0.8026 O   0  0  0  0  0  0  0  0  0  0  0  0
    4.6253   -1.7607   -1.2733 N   0  0  0  0  0  0  0  0  0  0  0  0
    5.9727   -1.6490   -1.5108 C   0  0  0  0  0  0  0  0  0  0  0  0
    6.5478   -0.8612   -2.3874 N   0  0  0  0  0  0  0  0  0  0  0  0
    7.9048   -1.0498   -2.2373 N   0  0  0  0  0  0  0  0  0  0  0  0
    8.1599   -1.9796   -1.3267 N   0  0  0  0  0  0  0  0  0  0  0  0
    6.9555   -2.3622   -0.8751 N   0  0  0  0  0  0  0  0  0  0  0  0
    0.5466   -1.1542   -0.5648 C   0  0  0  0  0  0  0  0  0  0  0  0
   -0.3931    2.0748   -0.0296 H   0  0  0  0  0  0  0  0  0  0  0  0
    1.8950    2.1614    0.9124 H   0  0  0  0  0  0  0  0  0  0  0  0
    3.3141    0.1508    0.9446 H   0  0  0  0  0  0  0  0  0  0  0  0
    2.3342   -3.0668   -0.8224 H   0  0  0  0  0  0  0  0  0  0  0  0
    2.4011   -2.9203    0.9364 H   0  0  0  0  0  0  0  0  0  0  0  0
    4.0129   -1.2364   -1.8864 H   0  0  0  0  0  0  0  0  0  0  0  0
    6.8667   -3.0911   -0.1772 H   0  0  0  0  0  0  0  0  0  0  0  0
    0.1370   -2.0838   -0.9553 H   0  0  0  0  0  0  0  0  0  0  0  0
  1  2  1  0  0  0  0
  2  3  1  0  0  0  0
  2 16  2  0  0  0  0
  3  4  2  0  0  0  0
  3 17  1  0  0  0  0
  4  5  1  0  0  0  0
  4 18  1  0  0  0  0
  5  6  2  0  0  0  0
  5 19  1  0  0  0  0
  6  7  1  0  0  0  0
  6 16  1  0  0  0  0
  7  8  1  0  0  0  0
  7 20  1  0  0  0  0
  7 21  1  0  0  0  0
  8  9  2  0  0  0  0
  8 10  1  0  0  0  0
 10 11  1  0  0  0  0
 10 22  1  0  0  0  0
 11 12  2  0  0  0  0
 11 15  1  0  0  0  0
 12 13  1  0  0  0  0
 13 14  2  0  0  0  0
 14 15  1  0  0  0  0
 15 23  1  0  0  0  0
 16 24  1  0  0  0  0
M  END
$$$$
