
 OpenBabel07202414153D

 42 44  0  0  0  0  0  0  0  0999 V2000
    2.5188   -2.4857   -1.5268 C   0  0  0  0  0  0  0  0  0  0  0  0
    2.4669   -1.5449   -0.4630 O   0  0  0  0  0  0  0  0  0  0  0  0
    2.9275   -0.2922   -0.7645 C   0  0  0  0  0  0  0  0  0  0  0  0
    2.8068    0.1819   -2.0767 C   0  0  0  0  0  0  0  0  0  0  0  0
    3.1001    1.5083   -2.3866 C   0  0  0  0  0  0  0  0  0  0  0  0
    3.4844    2.3805   -1.3761 C   0  0  0  0  0  0  0  0  0  0  0  0
    3.5359    1.9281   -0.0504 C   0  0  0  0  0  0  0  0  0  0  0  0
    3.3415    0.5701    0.2652 C   0  0  0  0  0  0  0  0  0  0  0  0
    3.6333    0.2157    1.5754 O   0  0  0  0  0  0  0  0  0  0  0  0
    3.4941   -1.1784    1.8990 C   0  0  0  0  0  0  0  0  0  0  0  0
    3.8273   -1.5512    3.3760 C   0  0  0  0  0  0  0  0  0  0  0  0
    2.8184   -0.7190    4.2324 C   0  0  0  0  0  0  0  0  0  0  0  0
    2.8696   -0.8319    5.4548 O   0  0  0  0  0  0  0  0  0  0  0  0
    1.9576    0.1898    3.6705 N   0  0  0  0  0  0  0  0  0  0  0  0
    1.0030    1.1357    4.2765 C   0  0  0  0  0  0  0  0  0  0  0  0
    0.7757    1.3029    5.6858 C   0  0  0  0  0  0  0  0  0  0  0  0
   -0.0864    2.3741    5.8380 N   0  0  0  0  0  0  0  0  0  0  0  0
   -0.7397    3.0295    4.8751 C   0  0  0  0  0  0  0  0  0  0  0  0
   -0.6154    2.8326    3.5432 C   0  0  0  0  0  0  0  0  0  0  0  0
    0.2805    1.8595    3.1636 C   0  0  0  0  0  0  0  0  0  0  0  0
    0.3938    1.7549    1.7150 C   0  0  0  0  0  0  0  0  0  0  0  0
   -0.3678    2.5173    0.8008 C   0  0  0  0  0  0  0  0  0  0  0  0
   -1.3082    3.4009    1.2857 C   0  0  0  0  0  0  0  0  0  0  0  0
   -1.3585    3.6201    2.6493 C   0  0  0  0  0  0  0  0  0  0  0  0
    2.2968   -3.4682   -1.0977 H   0  0  0  0  0  0  0  0  0  0  0  0
    3.5126   -2.5365   -1.9860 H   0  0  0  0  0  0  0  0  0  0  0  0
    1.7519   -2.2606   -2.2686 H   0  0  0  0  0  0  0  0  0  0  0  0
    2.4711   -0.4795   -2.8673 H   0  0  0  0  0  0  0  0  0  0  0  0
    2.9949    1.8627   -3.4086 H   0  0  0  0  0  0  0  0  0  0  0  0
    3.7491    3.4078   -1.6200 H   0  0  0  0  0  0  0  0  0  0  0  0
    3.7173    2.6593    0.7330 H   0  0  0  0  0  0  0  0  0  0  0  0
    4.1508   -1.7848    1.2539 H   0  0  0  0  0  0  0  0  0  0  0  0
    2.4438   -1.4568    1.7454 H   0  0  0  0  0  0  0  0  0  0  0  0
    4.8728   -1.2821    3.5617 H   0  0  0  0  0  0  0  0  0  0  0  0
    3.7272   -2.6454    3.4726 H   0  0  0  0  0  0  0  0  0  0  0  0
    2.0542    0.3145    2.6798 H   0  0  0  0  0  0  0  0  0  0  0  0
    0.5754    1.4630    6.7991 H   0  0  0  0  0  0  0  0  0  0  0  0
   -1.4546    3.7057    5.3117 H   0  0  0  0  0  0  0  0  0  0  0  0
    1.0619    1.0491    1.2244 H   0  0  0  0  0  0  0  0  0  0  0  0
   -0.2691    2.4040   -0.2788 H   0  0  0  0  0  0  0  0  0  0  0  0
   -1.9994    3.9186    0.6318 H   0  0  0  0  0  0  0  0  0  0  0  0
   -1.9573    4.4324    3.0522 H   0  0  0  0  0  0  0  0  0  0  0  0
  1  2  1  0  0  0  0
  1 25  1  0  0  0  0
  1 26  1  0  0  0  0
  1 27  1  0  0  0  0
  2  3  1  0  0  0  0
  3  4  1  0  0  0  0
  3  8  2  0  0  0  0
  4  5  2  0  0  0  0
  4 28  1  0  0  0  0
  5  6  1  0  0  0  0
  5 29  1  0  0  0  0
  6  7  2  0  0  0  0
  6 30  1  0  0  0  0
  7  8  1  0  0  0  0
  7 31  1  0  0  0  0
  8  9  1  0  0  0  0
  9 10  1  0  0  0  0
 10 11  1  0  0  0  0
 10 32  1  0  0  0  0
 10 33  1  0  0  0  0
 11 12  1  0  0  0  0
 11 34  1  0  0  0  0
 11 35  1  0  0  0  0
 12 13  2  0  0  0  0
 12 14  1  0  0  0  0
 14 15  1  0  0  0  0
 14 36  1  0  0  0  0
 15 16  1  0  0  0  0
 15 20  2  0  0  0  0
 16 17  2  0  0  0  0
 16 37  1  0  0  0  0
 17 18  1  0  0  0  0
 18 19  2  0  0  0  0
 18 38  1  0  0  0  0
 19 20  1  0  0  0  0
 19 24  1  0  0  0  0
 20 21  1  0  0  0  0
 21 22  2  0  0  0  0
 21 39  1  0  0  0  0
 22 23  1  0  0  0  0
 22 40  1  0  0  0  0
 23 24  2  0  0  0  0
 23 41  1  0  0  0  0
 24 42  1  0  0  0  0
M  END
$$$$
