
 OpenBabel07202414203D

 41 44  0  0  1  0  0  0  0  0999 V2000
    4.4610   -1.2713   -0.0427 C   0  0  0  0  0  0  0  0  0  0  0  0
    4.6977    0.0809    0.1733 C   0  0  0  0  0  0  0  0  0  0  0  0
    3.6311    0.9835    0.1730 C   0  0  0  0  0  0  0  0  0  0  0  0
    2.2980    0.5595   -0.0475 C   0  0  0  0  0  0  0  0  0  0  0  0
    2.0776   -0.8215   -0.2428 C   0  0  0  0  0  0  0  0  0  0  0  0
    3.1587   -1.7228   -0.2467 C   0  0  0  0  0  0  0  0  0  0  0  0
    0.7630   -1.2618   -0.4122 C   0  0  0  0  0  0  0  0  0  0  0  0
   -0.3254   -0.4619   -0.3943 N   0  0  0  0  0  0  0  0  0  0  0  0
   -0.0932    0.8524   -0.1889 C   0  0  0  0  0  0  0  0  0  0  0  0
    1.1746    1.4230   -0.0391 C   0  0  0  0  0  0  0  0  0  0  0  0
    1.3227    2.8442    0.0940 N   0  0  0  0  0  0  0  0  0  0  0  0
    1.8126    3.5194   -1.1136 C   0  0  0  0  0  0  0  0  0  0  0  0
    2.2068    4.9687   -0.8856 C   0  0  0  0  0  0  0  0  0  0  0  0
    1.0703    5.6999   -0.1947 C   0  0  0  0  0  0  0  0  0  0  0  0
    0.6957    5.0346    1.1305 C   0  0  3  0  0  0  0  0  0  0  0  0
    0.5230    3.5143    1.0285 C   0  0  0  0  0  0  0  0  0  0  0  0
   -0.2001    2.9312    1.8412 O   0  0  0  0  0  0  0  0  0  0  0  0
    1.6233    5.4440    2.2716 C   0  0  0  0  0  0  0  0  0  0  0  0
    1.2823    6.5436    3.0775 C   0  0  0  0  0  0  0  0  0  0  0  0
    2.1067    6.9385    4.1353 C   0  0  0  0  0  0  0  0  0  0  0  0
    3.2843    6.2434    4.3918 C   0  0  0  0  0  0  0  0  0  0  0  0
    3.6462    5.1585    3.6001 C   0  0  0  0  0  0  0  0  0  0  0  0
    2.8192    4.7608    2.5465 C   0  0  0  0  0  0  0  0  0  0  0  0
    4.2983    6.7251    5.6964 Cl  0  0  0  0  0  0  0  0  0  0  0  0
    5.2876   -1.9777   -0.0379 H   0  0  0  0  0  0  0  0  0  0  0  0
    5.7100    0.4343    0.3523 H   0  0  0  0  0  0  0  0  0  0  0  0
    3.8496    2.0297    0.3732 H   0  0  0  0  0  0  0  0  0  0  0  0
    2.9879   -2.7874   -0.3957 H   0  0  0  0  0  0  0  0  0  0  0  0
    0.5375   -2.3153   -0.5615 H   0  0  0  0  0  0  0  0  0  0  0  0
   -0.9919    1.4652   -0.1764 H   0  0  0  0  0  0  0  0  0  0  0  0
    1.0052    3.4773   -1.8576 H   0  0  0  0  0  0  0  0  0  0  0  0
    2.6694    2.9796   -1.5285 H   0  0  0  0  0  0  0  0  0  0  0  0
    2.4258    5.4459   -1.8483 H   0  0  0  0  0  0  0  0  0  0  0  0
    3.1234    5.0256   -0.2892 H   0  0  0  0  0  0  0  0  0  0  0  0
    0.1947    5.6866   -0.8578 H   0  0  0  0  0  0  0  0  0  0  0  0
    1.3360    6.7536   -0.0480 H   0  0  0  0  0  0  0  0  0  0  0  0
   -0.3095    5.4038    1.3837 H   0  0  0  0  0  0  0  0  0  0  0  0
    0.3614    7.0954    2.8969 H   0  0  0  0  0  0  0  0  0  0  0  0
    1.8196    7.7832    4.7566 H   0  0  0  0  0  0  0  0  0  0  0  0
    4.5630    4.6108    3.8012 H   0  0  0  0  0  0  0  0  0  0  0  0
    3.1218    3.8998    1.9557 H   0  0  0  0  0  0  0  0  0  0  0  0
  1  2  1  0  0  0  0
  1  6  2  0  0  0  0
  1 25  1  0  0  0  0
  2  3  2  0  0  0  0
  2 26  1  0  0  0  0
  3  4  1  0  0  0  0
  3 27  1  0  0  0  0
  4  5  1  0  0  0  0
  4 10  2  0  0  0  0
  5  6  1  0  0  0  0
  5  7  2  0  0  0  0
  6 28  1  0  0  0  0
  7  8  1  0  0  0  0
  7 29  1  0  0  0  0
  8  9  2  0  0  0  0
  9 10  1  0  0  0  0
  9 30  1  0  0  0  0
 10 11  1  0  0  0  0
 11 12  1  0  0  0  0
 11 16  1  0  0  0  0
 12 13  1  0  0  0  0
 12 31  1  0  0  0  0
 12 32  1  0  0  0  0
 13 14  1  0  0  0  0
 13 33  1  0  0  0  0
 13 34  1  0  0  0  0
 14 15  1  0  0  0  0
 14 35  1  0  0  0  0
 14 36  1  0  0  0  0
 15 16  1  0  0  0  0
 15 18  1  0  0  0  0
 15 37  1  0  0  0  0
 16 17  2  0  0  0  0
 18 19  1  0  0  0  0
 18 23  2  0  0  0  0
 19 20  2  0  0  0  0
 19 38  1  0  0  0  0
 20 21  1  0  0  0  0
 20 39  1  0  0  0  0
 21 22  2  0  0  0  0
 21 24  1  0  0  0  0
 22 23  1  0  0  0  0
 22 40  1  0  0  0  0
 23 41  1  0  0  0  0
M  END
$$$$
