
 OpenBabel07202414193D

 47 51  0  0  1  0  0  0  0  0999 V2000
    1.1712   -0.6526    0.5429 O   0  0  0  0  0  0  0  0  0  0  0  0
    2.3471   -0.3428    0.5262 C   0  0  0  0  0  0  0  0  0  0  0  0
    3.0474   -0.0671   -0.6341 N   0  0  0  0  0  0  0  0  0  0  0  0
    4.4655    0.1036   -0.3932 C   0  0  2  0  0  0  0  0  0  0  0  0
    4.9405    1.5449   -0.6118 C   0  0  0  0  0  0  0  0  0  0  0  0
    5.2426    1.8453   -2.0708 C   0  0  0  0  0  0  0  0  0  0  0  0
    6.1406    0.7712   -2.6990 C   0  0  1  0  0  0  0  0  0  0  0  0
    7.6040    0.7265   -2.2685 C   0  0  0  0  0  0  0  0  0  0  0  0
    8.3266   -0.4754   -2.3865 C   0  0  0  0  0  0  0  0  0  0  0  0
    9.6693   -0.5568   -2.0137 C   0  0  0  0  0  0  0  0  0  0  0  0
   10.3304    0.5746   -1.5489 C   0  0  0  0  0  0  0  0  0  0  0  0
    9.6496    1.7855   -1.4634 C   0  0  0  0  0  0  0  0  0  0  0  0
    8.2997    1.8635   -1.8264 C   0  0  0  0  0  0  0  0  0  0  0  0
    5.4821   -0.5033   -2.5484 O   0  0  0  0  0  0  0  0  0  0  0  0
    5.2755   -0.9148   -1.1873 C   0  0  0  0  0  0  0  0  0  0  0  0
    4.5101   -0.1346    1.1184 C   0  0  0  0  0  0  0  0  0  0  0  0
    5.5323   -0.1916    1.7861 O   0  0  0  0  0  0  0  0  0  0  0  0
    3.2176   -0.2160    1.5752 N   0  0  0  0  0  0  0  0  0  0  0  0
    2.8130   -0.0332    2.9143 C   0  0  0  0  0  0  0  0  0  0  0  0
    1.9932   -0.9760    3.5294 C   0  0  0  0  0  0  0  0  0  0  0  0
    1.5297   -0.8694    4.7942 N   0  0  0  0  0  0  0  0  0  0  0  0
    1.7954    0.2892    5.4357 C   0  0  0  0  0  0  0  0  0  0  0  0
    2.4870    1.3656    4.8768 C   0  0  0  0  0  0  0  0  0  0  0  0
    2.5470    2.6134    5.5272 C   0  0  0  0  0  0  0  0  0  0  0  0
    3.1932    3.6974    4.9369 C   0  0  0  0  0  0  0  0  0  0  0  0
    3.8496    3.5253    3.7283 C   0  0  0  0  0  0  0  0  0  0  0  0
    3.8002    2.2890    3.0810 C   0  0  0  0  0  0  0  0  0  0  0  0
    3.0755    1.1868    3.6049 C   0  0  0  0  0  0  0  0  0  0  0  0
    2.6159   -0.1876   -1.5425 H   0  0  0  0  0  0  0  0  0  0  0  0
    5.8558    1.7186   -0.0293 H   0  0  0  0  0  0  0  0  0  0  0  0
    4.2035    2.2644   -0.2356 H   0  0  0  0  0  0  0  0  0  0  0  0
    5.6704    2.8490   -2.1633 H   0  0  0  0  0  0  0  0  0  0  0  0
    4.2873    1.8651   -2.6104 H   0  0  0  0  0  0  0  0  0  0  0  0
    6.1639    0.9707   -3.7783 H   0  0  0  0  0  0  0  0  0  0  0  0
    7.8368   -1.3722   -2.7633 H   0  0  0  0  0  0  0  0  0  0  0  0
   10.1970   -1.5038   -2.0909 H   0  0  0  0  0  0  0  0  0  0  0  0
   11.3769    0.5148   -1.2621 H   0  0  0  0  0  0  0  0  0  0  0  0
   10.1708    2.6744   -1.1182 H   0  0  0  0  0  0  0  0  0  0  0  0
    7.8146    2.8331   -1.7568 H   0  0  0  0  0  0  0  0  0  0  0  0
    6.2365   -1.1344   -0.7135 H   0  0  0  0  0  0  0  0  0  0  0  0
    4.7373   -1.8700   -1.2396 H   0  0  0  0  0  0  0  0  0  0  0  0
    1.6827   -1.8803    3.0123 H   0  0  0  0  0  0  0  0  0  0  0  0
    1.3965    0.3435    6.4462 H   0  0  0  0  0  0  0  0  0  0  0  0
    2.0389    2.7626    6.4774 H   0  0  0  0  0  0  0  0  0  0  0  0
    3.1800    4.6725    5.4172 H   0  0  0  0  0  0  0  0  0  0  0  0
    4.3842    4.3546    3.2702 H   0  0  0  0  0  0  0  0  0  0  0  0
    4.3254    2.2162    2.1364 H   0  0  0  0  0  0  0  0  0  0  0  0
  1  2  2  0  0  0  0
  2  3  1  0  0  0  0
  2 18  1  0  0  0  0
  3  4  1  0  0  0  0
  3 29  1  0  0  0  0
  4  5  1  0  0  0  0
  4 15  1  0  0  0  0
  4 16  1  1  0  0  0
  5  6  1  0  0  0  0
  5 30  1  0  0  0  0
  5 31  1  0  0  0  0
  6  7  1  0  0  0  0
  6 32  1  0  0  0  0
  6 33  1  0  0  0  0
  7  8  1  0  0  0  0
  7 14  1  0  0  0  0
  7 34  1  6  0  0  0
  8  9  1  0  0  0  0
  8 13  2  0  0  0  0
  9 10  2  0  0  0  0
  9 35  1  0  0  0  0
 10 11  1  0  0  0  0
 10 36  1  0  0  0  0
 11 12  2  0  0  0  0
 11 37  1  0  0  0  0
 12 13  1  0  0  0  0
 12 38  1  0  0  0  0
 13 39  1  0  0  0  0
 14 15  1  0  0  0  0
 15 40  1  0  0  0  0
 15 41  1  0  0  0  0
 16 17  2  0  0  0  0
 16 18  1  0  0  0  0
 18 19  1  0  0  0  0
 19 20  1  0  0  0  0
 19 28  2  0  0  0  0
 20 21  2  0  0  0  0
 20 42  1  0  0  0  0
 21 22  1  0  0  0  0
 22 23  2  0  0  0  0
 22 43  1  0  0  0  0
 23 24  1  0  0  0  0
 23 28  1  0  0  0  0
 24 25  2  0  0  0  0
 24 44  1  0  0  0  0
 25 26  1  0  0  0  0
 25 45  1  0  0  0  0
 26 27  2  0  0  0  0
 26 46  1  0  0  0  0
 27 28  1  0  0  0  0
 27 47  1  0  0  0  0
M  END
$$$$
