
 OpenBabel07202414173D

 39 42  0  0  1  0  0  0  0  0999 V2000
   10.1221   -3.8661   -2.1266 Cl  0  0  0  0  0  0  0  0  0  0  0  0
    8.9682   -3.7548   -0.8562 C   0  0  0  0  0  0  0  0  0  0  0  0
    9.3384   -4.0817    0.4451 C   0  0  0  0  0  0  0  0  0  0  0  0
    8.4043   -3.9740    1.4768 C   0  0  0  0  0  0  0  0  0  0  0  0
    7.1095   -3.5389    1.2026 C   0  0  0  0  0  0  0  0  0  0  0  0
    6.7107   -3.2546   -0.1122 C   0  0  0  0  0  0  0  0  0  0  0  0
    7.6648   -3.3420   -1.1385 C   0  0  0  0  0  0  0  0  0  0  0  0
    5.2860   -2.8422   -0.4171 C   0  0  1  0  0  0  0  0  0  0  0  0
    4.6551   -3.6891   -1.5324 C   0  0  0  0  0  0  0  0  0  0  0  0
    4.2089   -3.1524   -2.5422 O   0  0  0  0  0  0  0  0  0  0  0  0
    4.6244   -5.0446   -1.2516 N   0  0  0  0  0  0  0  0  0  0  0  0
    3.9582   -6.0685   -1.9732 C   0  0  0  0  0  0  0  0  0  0  0  0
    3.2567   -5.8270   -3.1551 C   0  0  0  0  0  0  0  0  0  0  0  0
    2.4836   -6.7397   -3.7892 N   0  0  0  0  0  0  0  0  0  0  0  0
    2.4367   -7.9711   -3.2440 C   0  0  0  0  0  0  0  0  0  0  0  0
    3.1692   -8.3702   -2.1277 C   0  0  0  0  0  0  0  0  0  0  0  0
    3.1383   -9.7049   -1.6833 C   0  0  0  0  0  0  0  0  0  0  0  0
    3.8898  -10.1067   -0.5827 C   0  0  0  0  0  0  0  0  0  0  0  0
    4.6570   -9.1744    0.1008 C   0  0  0  0  0  0  0  0  0  0  0  0
    4.6853   -7.8428   -0.3255 C   0  0  0  0  0  0  0  0  0  0  0  0
    3.9539   -7.4000   -1.4602 C   0  0  0  0  0  0  0  0  0  0  0  0
    4.3957   -2.8884    0.8326 C   0  0  0  0  0  0  0  0  0  0  0  0
    5.2015   -2.4961    2.0556 C   0  0  0  0  0  0  0  0  0  0  0  0
    6.2640   -3.4301    2.2727 O   0  0  0  0  0  0  0  0  0  0  0  0
   10.3513   -4.4085    0.6660 H   0  0  0  0  0  0  0  0  0  0  0  0
    8.6949   -4.2087    2.4952 H   0  0  0  0  0  0  0  0  0  0  0  0
    7.3938   -3.0935   -2.1629 H   0  0  0  0  0  0  0  0  0  0  0  0
    5.3245   -1.8020   -0.7694 H   0  0  0  0  0  0  0  0  0  0  0  0
    5.0620   -5.3210   -0.3842 H   0  0  0  0  0  0  0  0  0  0  0  0
    3.2780   -4.8676   -3.6607 H   0  0  0  0  0  0  0  0  0  0  0  0
    1.7708   -8.6603   -3.7581 H   0  0  0  0  0  0  0  0  0  0  0  0
    2.5430  -10.4479   -2.2109 H   0  0  0  0  0  0  0  0  0  0  0  0
    3.8828  -11.1465   -0.2659 H   0  0  0  0  0  0  0  0  0  0  0  0
    5.2468   -9.4807    0.9616 H   0  0  0  0  0  0  0  0  0  0  0  0
    5.3206   -7.1677    0.2400 H   0  0  0  0  0  0  0  0  0  0  0  0
    3.9973   -3.8936    0.9937 H   0  0  0  0  0  0  0  0  0  0  0  0
    3.5347   -2.2226    0.7045 H   0  0  0  0  0  0  0  0  0  0  0  0
    4.5588   -2.5246    2.9417 H   0  0  0  0  0  0  0  0  0  0  0  0
    5.6079   -1.4788    1.9784 H   0  0  0  0  0  0  0  0  0  0  0  0
  1  2  1  0  0  0  0
  2  3  1  0  0  0  0
  2  7  2  0  0  0  0
  3  4  2  0  0  0  0
  3 25  1  0  0  0  0
  4  5  1  0  0  0  0
  4 26  1  0  0  0  0
  5  6  2  0  0  0  0
  5 24  1  0  0  0  0
  6  7  1  0  0  0  0
  6  8  1  0  0  0  0
  7 27  1  0  0  0  0
  8 22  1  0  0  0  0
  8  9  1  0  0  0  0
  8 28  1  6  0  0  0
  9 10  2  0  0  0  0
  9 11  1  0  0  0  0
 11 12  1  0  0  0  0
 11 29  1  0  0  0  0
 12 13  1  0  0  0  0
 12 21  2  0  0  0  0
 13 14  2  0  0  0  0
 13 30  1  0  0  0  0
 14 15  1  0  0  0  0
 15 16  2  0  0  0  0
 15 31  1  0  0  0  0
 16 17  1  0  0  0  0
 16 21  1  0  0  0  0
 17 18  2  0  0  0  0
 17 32  1  0  0  0  0
 18 19  1  0  0  0  0
 18 33  1  0  0  0  0
 19 20  2  0  0  0  0
 19 34  1  0  0  0  0
 20 21  1  0  0  0  0
 20 35  1  0  0  0  0
 22 23  1  0  0  0  0
 22 36  1  0  0  0  0
 22 37  1  0  0  0  0
 23 24  1  0  0  0  0
 23 38  1  0  0  0  0
 23 39  1  0  0  0  0
M  END
$$$$
