
 OpenBabel07202414183D

 38 41  0  0  1  0  0  0  0  0999 V2000
    1.1602    0.1153   -0.1565 F   0  0  0  0  0  0  0  0  0  0  0  0
    2.4829    0.0265    0.0420 C   0  0  0  0  0  0  0  0  0  0  0  0
    3.2362    1.1938    0.0750 C   0  0  0  0  0  0  0  0  0  0  0  0
    4.6164    1.1273    0.2710 C   0  0  0  0  0  0  0  0  0  0  0  0
    5.2525   -0.1101    0.4414 C   0  0  0  0  0  0  0  0  0  0  0  0
    4.4780   -1.2831    0.3949 C   0  0  0  0  0  0  0  0  0  0  0  0
    3.0982   -1.2123    0.1945 C   0  0  0  0  0  0  0  0  0  0  0  0
    2.1825   -2.6677    0.1214 Cl  0  0  0  0  0  0  0  0  0  0  0  0
    6.7476   -0.1855    0.6462 C   0  0  3  0  0  0  0  0  0  0  0  0
    7.1114   -0.4658    2.1179 C   0  0  0  0  0  0  0  0  0  0  0  0
    7.3278    0.4378    2.9178 O   0  0  0  0  0  0  0  0  0  0  0  0
    7.1572   -1.8227    2.4136 N   0  0  0  0  0  0  0  0  0  0  0  0
    7.5634   -2.4159    3.6372 C   0  0  0  0  0  0  0  0  0  0  0  0
    7.9285   -1.6803    4.7631 C   0  0  0  0  0  0  0  0  0  0  0  0
    8.4834   -2.2091    5.8804 N   0  0  0  0  0  0  0  0  0  0  0  0
    8.6421   -3.5453    5.9087 C   0  0  0  0  0  0  0  0  0  0  0  0
    8.2132   -4.4077    4.9026 C   0  0  0  0  0  0  0  0  0  0  0  0
    8.3146   -5.7983    5.0421 C   0  0  0  0  0  0  0  0  0  0  0  0
    7.8365   -6.6046    4.0236 C   0  0  0  0  0  0  0  0  0  0  0  0
    7.2982   -6.1202    2.8928 N   0  0  0  0  0  0  0  0  0  0  0  0
    7.2222   -4.7713    2.7795 C   0  0  0  0  0  0  0  0  0  0  0  0
    7.6550   -3.8390    3.7401 C   0  0  0  0  0  0  0  0  0  0  0  0
    7.4000    1.1035    0.1435 C   0  0  0  0  0  0  0  0  0  0  0  0
    6.6349    2.3234    0.6327 C   0  0  0  0  0  0  0  0  0  0  0  0
    5.2696    2.3258    0.2148 O   0  0  0  0  0  0  0  0  0  0  0  0
    2.7448    2.1523   -0.0600 H   0  0  0  0  0  0  0  0  0  0  0  0
    4.9432   -2.2598    0.4965 H   0  0  0  0  0  0  0  0  0  0  0  0
    7.1523   -1.0026    0.0347 H   0  0  0  0  0  0  0  0  0  0  0  0
    7.0153   -2.4488    1.6340 H   0  0  0  0  0  0  0  0  0  0  0  0
    7.8012   -0.6059    4.8243 H   0  0  0  0  0  0  0  0  0  0  0  0
    9.1342   -3.9181    6.8044 H   0  0  0  0  0  0  0  0  0  0  0  0
    8.7349   -6.2535    5.9328 H   0  0  0  0  0  0  0  0  0  0  0  0
    7.8651   -7.6875    4.1030 H   0  0  0  0  0  0  0  0  0  0  0  0
    6.7496   -4.4629    1.8523 H   0  0  0  0  0  0  0  0  0  0  0  0
    7.3777    1.0980   -0.9548 H   0  0  0  0  0  0  0  0  0  0  0  0
    8.4506    1.1615    0.4491 H   0  0  0  0  0  0  0  0  0  0  0  0
    7.0965    3.2226    0.2094 H   0  0  0  0  0  0  0  0  0  0  0  0
    6.6699    2.4407    1.7199 H   0  0  0  0  0  0  0  0  0  0  0  0
  1  2  1  0  0  0  0
  2  3  1  0  0  0  0
  2  7  2  0  0  0  0
  3  4  2  0  0  0  0
  3 26  1  0  0  0  0
  4  5  1  0  0  0  0
  4 25  1  0  0  0  0
  5  6  2  0  0  0  0
  5  9  1  0  0  0  0
  6  7  1  0  0  0  0
  6 27  1  0  0  0  0
  7  8  1  0  0  0  0
  9 10  1  0  0  0  0
  9 23  1  0  0  0  0
  9 28  1  0  0  0  0
 10 11  2  0  0  0  0
 10 12  1  0  0  0  0
 12 13  1  0  0  0  0
 12 29  1  0  0  0  0
 13 14  1  0  0  0  0
 13 22  2  0  0  0  0
 14 15  2  0  0  0  0
 14 30  1  0  0  0  0
 15 16  1  0  0  0  0
 16 17  2  0  0  0  0
 16 31  1  0  0  0  0
 17 18  1  0  0  0  0
 17 22  1  0  0  0  0
 18 19  2  0  0  0  0
 18 32  1  0  0  0  0
 19 20  1  0  0  0  0
 19 33  1  0  0  0  0
 20 21  2  0  0  0  0
 21 22  1  0  0  0  0
 21 34  1  0  0  0  0
 23 24  1  0  0  0  0
 23 35  1  0  0  0  0
 23 36  1  0  0  0  0
 24 25  1  0  0  0  0
 24 37  1  0  0  0  0
 24 38  1  0  0  0  0
M  END
$$$$
