
 OpenBabel07202414183D

 52 55  0  0  1  0  0  0  0  0999 V2000
    7.7071   -1.4022   -5.1820 F   0  0  0  0  0  0  0  0  0  0  0  0
    7.6406   -1.2193   -3.8577 C   0  0  0  0  0  0  0  0  0  0  0  0
    8.6654   -0.5717   -3.2051 C   0  0  0  0  0  0  0  0  0  0  0  0
    8.5774   -0.3794   -1.8268 C   0  0  0  0  0  0  0  0  0  0  0  0
    7.4117   -0.7012   -1.0786 C   0  0  0  0  0  0  0  0  0  0  0  0
    7.1520   -0.3457    0.2829 C   0  0  0  0  0  0  0  0  0  0  0  0
    7.8882    0.6091    1.0621 N   0  0  0  0  0  0  0  0  0  0  0  0
    8.5780    1.6772    0.5217 C   0  0  0  0  0  0  0  0  0  0  0  0
    8.5797    1.9471   -0.6753 O   0  0  0  0  0  0  0  0  0  0  0  0
    9.4635    2.4845    1.4795 C   0  0  3  0  0  0  0  0  0  0  0  0
    9.1482    3.9929    1.5118 C   0  0  0  0  0  0  0  0  0  0  0  0
    9.4716    4.6749    0.2631 N   0  0  0  0  0  0  0  0  0  0  0  0
    8.4232    4.6723   -0.7762 C   0  0  0  0  0  0  0  0  0  0  0  0
    7.3287    5.7136   -0.8496 C   0  0  0  0  0  0  0  0  0  0  0  0
    6.1903    5.4093   -1.2129 O   0  0  0  0  0  0  0  0  0  0  0  0
    7.6625    7.0114   -0.5928 N   0  0  0  0  0  0  0  0  0  0  0  0
    6.5905    7.9984   -0.6898 C   0  0  0  0  0  0  0  0  0  0  0  0
    5.4321    7.8279    0.3178 C   0  0  0  0  0  0  0  0  0  0  0  0
    5.6181    6.7957    1.1750 F   0  0  0  0  0  0  0  0  0  0  0  0
    5.3171    8.9445    1.0803 F   0  0  0  0  0  0  0  0  0  0  0  0
    4.2439    7.6475   -0.3009 F   0  0  0  0  0  0  0  0  0  0  0  0
   10.7904    4.5379   -0.2007 C   0  0  0  0  0  0  0  0  0  0  0  0
   11.2581    5.2563   -1.0775 O   0  0  0  0  0  0  0  0  0  0  0  0
   11.5659    3.3492    0.3218 C   0  0  0  0  0  0  0  0  0  0  0  0
   12.9048    3.1715   -0.0540 C   0  0  0  0  0  0  0  0  0  0  0  0
   13.5423    1.9449    0.1743 C   0  0  0  0  0  0  0  0  0  0  0  0
   12.8419    0.8916    0.7583 C   0  0  0  0  0  0  0  0  0  0  0  0
   13.5559   -0.6690    0.8750 Cl  0  0  0  0  0  0  0  0  0  0  0  0
   11.5418    1.0815    1.2141 C   0  0  0  0  0  0  0  0  0  0  0  0
   10.9066    2.3209    1.0302 C   0  0  0  0  0  0  0  0  0  0  0  0
    6.0464   -0.9387    0.8975 C   0  0  0  0  0  0  0  0  0  0  0  0
    5.1656   -1.7598    0.2848 N   0  0  0  0  0  0  0  0  0  0  0  0
    5.3638   -1.9825   -1.0354 C   0  0  0  0  0  0  0  0  0  0  0  0
    6.4389   -1.4700   -1.7589 C   0  0  0  0  0  0  0  0  0  0  0  0
    6.5545   -1.7153   -3.1437 C   0  0  0  0  0  0  0  0  0  0  0  0
    9.5245   -0.2006   -3.7557 H   0  0  0  0  0  0  0  0  0  0  0  0
    9.4408    0.0716   -1.3462 H   0  0  0  0  0  0  0  0  0  0  0  0
    7.6363    0.6765    2.0412 H   0  0  0  0  0  0  0  0  0  0  0  0
    9.3586    2.0952    2.4997 H   0  0  0  0  0  0  0  0  0  0  0  0
    9.7913    4.4600    2.2745 H   0  0  0  0  0  0  0  0  0  0  0  0
    8.1139    4.2119    1.7936 H   0  0  0  0  0  0  0  0  0  0  0  0
    7.7975    3.8115   -0.5619 H   0  0  0  0  0  0  0  0  0  0  0  0
    8.8609    4.5391   -1.7705 H   0  0  0  0  0  0  0  0  0  0  0  0
    8.6420    7.2727   -0.6506 H   0  0  0  0  0  0  0  0  0  0  0  0
    6.1872    7.9489   -1.7100 H   0  0  0  0  0  0  0  0  0  0  0  0
    7.0520    8.9817   -0.5675 H   0  0  0  0  0  0  0  0  0  0  0  0
   13.4433    3.9651   -0.5686 H   0  0  0  0  0  0  0  0  0  0  0  0
   14.5698    1.7984   -0.1526 H   0  0  0  0  0  0  0  0  0  0  0  0
   11.0004    0.2481    1.6566 H   0  0  0  0  0  0  0  0  0  0  0  0
    5.8003   -0.7495    1.9374 H   0  0  0  0  0  0  0  0  0  0  0  0
    4.6136   -2.6004   -1.5061 H   0  0  0  0  0  0  0  0  0  0  0  0
    5.7953   -2.2645   -3.6853 H   0  0  0  0  0  0  0  0  0  0  0  0
  1  2  1  0  0  0  0
  2  3  1  0  0  0  0
  2 35  2  0  0  0  0
  3  4  2  0  0  0  0
  3 36  1  0  0  0  0
  4  5  1  0  0  0  0
  4 37  1  0  0  0  0
  5  6  1  0  0  0  0
  5 34  2  0  0  0  0
  6  7  1  0  0  0  0
  6 31  2  0  0  0  0
  7  8  1  0  0  0  0
  7 38  1  0  0  0  0
  8  9  2  0  0  0  0
  8 10  1  0  0  0  0
 10 11  1  0  0  0  0
 10 30  1  0  0  0  0
 10 39  1  0  0  0  0
 11 12  1  0  0  0  0
 11 40  1  0  0  0  0
 11 41  1  0  0  0  0
 12 13  1  0  0  0  0
 12 22  1  0  0  0  0
 13 14  1  0  0  0  0
 13 42  1  0  0  0  0
 13 43  1  0  0  0  0
 14 15  2  0  0  0  0
 14 16  1  0  0  0  0
 16 17  1  0  0  0  0
 16 44  1  0  0  0  0
 17 18  1  0  0  0  0
 17 45  1  0  0  0  0
 17 46  1  0  0  0  0
 18 19  1  0  0  0  0
 18 20  1  0  0  0  0
 18 21  1  0  0  0  0
 22 23  2  0  0  0  0
 22 24  1  0  0  0  0
 24 25  1  0  0  0  0
 24 30  2  0  0  0  0
 25 26  2  0  0  0  0
 25 47  1  0  0  0  0
 26 27  1  0  0  0  0
 26 48  1  0  0  0  0
 27 28  1  0  0  0  0
 27 29  2  0  0  0  0
 29 30  1  0  0  0  0
 29 49  1  0  0  0  0
 31 32  1  0  0  0  0
 31 50  1  0  0  0  0
 32 33  2  0  0  0  0
 33 34  1  0  0  0  0
 33 51  1  0  0  0  0
 34 35  1  0  0  0  0
 35 52  1  0  0  0  0
M  END
$$$$
