
 OpenBabel07202414133D

 47 50  0  0  0  0  0  0  0  0999 V2000
    2.8146   -1.3431    0.4818 C   0  0  0  0  0  0  0  0  0  0  0  0
    2.4252   -0.0070    0.0487 N   0  0  0  0  0  0  0  0  0  0  0  0
    1.5861    0.1709   -1.0482 C   0  0  0  0  0  0  0  0  0  0  0  0
    1.1156   -0.7871   -1.6710 O   0  0  0  0  0  0  0  0  0  0  0  0
    1.1961    1.5857   -1.4437 C   0  0  0  0  0  0  0  0  0  0  0  0
    2.0528    2.1233   -2.4750 N   0  0  0  0  0  0  0  0  0  0  0  0
    2.8641    3.1653   -2.1991 N   0  0  0  0  0  0  0  0  0  0  0  0
    3.5204    3.4712   -3.3094 N   0  0  0  0  0  0  0  0  0  0  0  0
    3.0587    2.6608   -4.3095 C   0  0  0  0  0  0  0  0  0  0  0  0
    3.3971    2.6057   -5.6679 C   0  0  0  0  0  0  0  0  0  0  0  0
    2.7294    1.6839   -6.4834 C   0  0  0  0  0  0  0  0  0  0  0  0
    1.7535    0.8343   -5.9556 C   0  0  0  0  0  0  0  0  0  0  0  0
    1.4160    0.8658   -4.5974 C   0  0  0  0  0  0  0  0  0  0  0  0
    2.0947    1.7954   -3.8043 C   0  0  0  0  0  0  0  0  0  0  0  0
    3.1150    1.0621    0.6529 C   0  0  0  0  0  0  0  0  0  0  0  0
    2.5653    1.6842    1.7756 C   0  0  0  0  0  0  0  0  0  0  0  0
    3.1866    2.8090    2.3198 C   0  0  0  0  0  0  0  0  0  0  0  0
    4.3636    3.3029    1.7541 C   0  0  0  0  0  0  0  0  0  0  0  0
    4.8851    4.4403    2.3365 O   0  0  0  0  0  0  0  0  0  0  0  0
    6.2552    4.6353    2.2549 C   0  0  0  0  0  0  0  0  0  0  0  0
    6.7035    5.9407    2.1287 C   0  0  0  0  0  0  0  0  0  0  0  0
    8.0634    6.1446    1.9043 C   0  0  0  0  0  0  0  0  0  0  0  0
    8.9228    5.0436    1.8148 C   0  0  0  0  0  0  0  0  0  0  0  0
   10.3692    5.1560    1.4496 C   0  0  0  0  0  0  0  0  0  0  0  0
   10.7785    6.4360    1.2358 F   0  0  0  0  0  0  0  0  0  0  0  0
   11.1932    4.6483    2.4022 F   0  0  0  0  0  0  0  0  0  0  0  0
   10.6605    4.4773    0.3028 F   0  0  0  0  0  0  0  0  0  0  0  0
    8.3830    3.7850    2.0372 C   0  0  0  0  0  0  0  0  0  0  0  0
    7.0774    3.5613    2.2776 N   0  0  0  0  0  0  0  0  0  0  0  0
    4.8976    2.6806    0.6191 C   0  0  0  0  0  0  0  0  0  0  0  0
    4.2937    1.5417    0.0862 C   0  0  0  0  0  0  0  0  0  0  0  0
    2.1897   -2.1109    0.0176 H   0  0  0  0  0  0  0  0  0  0  0  0
    2.7035   -1.4170    1.5686 H   0  0  0  0  0  0  0  0  0  0  0  0
    3.8579   -1.5279    0.2063 H   0  0  0  0  0  0  0  0  0  0  0  0
    1.1793    2.2710   -0.5928 H   0  0  0  0  0  0  0  0  0  0  0  0
    0.1744    1.5664   -1.8398 H   0  0  0  0  0  0  0  0  0  0  0  0
    4.1525    3.2704   -6.0721 H   0  0  0  0  0  0  0  0  0  0  0  0
    2.9733    1.6317   -7.5419 H   0  0  0  0  0  0  0  0  0  0  0  0
    1.2469    0.1291   -6.6117 H   0  0  0  0  0  0  0  0  0  0  0  0
    0.6659    0.1956   -4.1895 H   0  0  0  0  0  0  0  0  0  0  0  0
    1.6444    1.3141    2.2146 H   0  0  0  0  0  0  0  0  0  0  0  0
    2.7472    3.3092    3.1780 H   0  0  0  0  0  0  0  0  0  0  0  0
    6.0081    6.7725    2.1594 H   0  0  0  0  0  0  0  0  0  0  0  0
    8.4409    7.1563    1.7649 H   0  0  0  0  0  0  0  0  0  0  0  0
    8.9961    2.8866    1.9966 H   0  0  0  0  0  0  0  0  0  0  0  0
    5.7828    3.0724    0.1257 H   0  0  0  0  0  0  0  0  0  0  0  0
    4.7269    1.0728   -0.7934 H   0  0  0  0  0  0  0  0  0  0  0  0
  1  2  1  0  0  0  0
  1 32  1  0  0  0  0
  1 33  1  0  0  0  0
  1 34  1  0  0  0  0
  2  3  1  0  0  0  0
  2 15  1  0  0  0  0
  3  4  2  0  0  0  0
  3  5  1  0  0  0  0
  5  6  1  0  0  0  0
  5 35  1  0  0  0  0
  5 36  1  0  0  0  0
  6  7  1  0  0  0  0
  6 14  1  0  0  0  0
  7  8  2  0  0  0  0
  8  9  1  0  0  0  0
  9 10  1  0  0  0  0
  9 14  2  0  0  0  0
 10 11  2  0  0  0  0
 10 37  1  0  0  0  0
 11 12  1  0  0  0  0
 11 38  1  0  0  0  0
 12 13  2  0  0  0  0
 12 39  1  0  0  0  0
 13 14  1  0  0  0  0
 13 40  1  0  0  0  0
 15 16  1  0  0  0  0
 15 31  2  0  0  0  0
 16 17  2  0  0  0  0
 16 41  1  0  0  0  0
 17 18  1  0  0  0  0
 17 42  1  0  0  0  0
 18 19  1  0  0  0  0
 18 30  2  0  0  0  0
 19 20  1  0  0  0  0
 20 21  1  0  0  0  0
 20 29  2  0  0  0  0
 21 22  2  0  0  0  0
 21 43  1  0  0  0  0
 22 23  1  0  0  0  0
 22 44  1  0  0  0  0
 23 24  1  0  0  0  0
 23 28  2  0  0  0  0
 24 25  1  0  0  0  0
 24 26  1  0  0  0  0
 24 27  1  0  0  0  0
 28 29  1  0  0  0  0
 28 45  1  0  0  0  0
 30 31  1  0  0  0  0
 30 46  1  0  0  0  0
 31 47  1  0  0  0  0
M  END
$$$$
