
 OpenBabel07202414143D

 56 60  0  0  1  0  0  0  0  0999 V2000
    0.7162    0.7903   -1.9770 C   0  0  0  0  0  0  0  0  0  0  0  0
    2.0706    1.2182   -1.7674 N   0  0  0  0  0  0  0  0  0  0  0  0
    3.1284    0.3426   -1.7659 C   0  0  0  0  0  0  0  0  0  0  0  0
    2.9919   -0.8743   -1.8802 O   0  0  0  0  0  0  0  0  0  0  0  0
    4.4828    0.9653   -1.4098 C   0  0  0  0  0  0  0  0  0  0  0  0
    5.0176    2.0504   -2.2456 N   0  0  0  0  0  0  0  0  0  0  0  0
    6.2703    1.8671   -2.9898 C   0  0  0  0  0  0  0  0  0  0  0  0
    7.3723    2.8629   -2.5587 C   0  0  2  0  0  0  0  0  0  0  0  0
    8.5567    2.7325   -3.5516 C   0  0  0  0  0  0  0  0  0  0  0  0
    8.4192    2.7796   -4.7674 O   0  0  0  0  0  0  0  0  0  0  0  0
    9.7593    2.5812   -2.8267 N   0  0  0  0  0  0  0  0  0  0  0  0
   11.1222    2.5479   -3.3244 C   0  0  0  0  0  0  0  0  0  0  0  0
   11.3562    2.6526   -4.7033 C   0  0  0  0  0  0  0  0  0  0  0  0
   12.5782    2.6593   -5.2963 N   0  0  0  0  0  0  0  0  0  0  0  0
   13.6471    2.5803   -4.4829 C   0  0  0  0  0  0  0  0  0  0  0  0
   13.5871    2.4869   -3.0978 C   0  0  0  0  0  0  0  0  0  0  0  0
   14.7930    2.4465   -2.3606 C   0  0  0  0  0  0  0  0  0  0  0  0
   14.7977    2.3524   -0.9734 C   0  0  0  0  0  0  0  0  0  0  0  0
   13.5932    2.2677   -0.3126 C   0  0  0  0  0  0  0  0  0  0  0  0
   12.4012    2.3020   -1.0458 C   0  0  0  0  0  0  0  0  0  0  0  0
   12.3162    2.4399   -2.4734 C   0  0  0  0  0  0  0  0  0  0  0  0
    9.4914    2.5259   -1.4251 C   0  0  0  0  0  0  0  0  0  0  0  0
    8.0017    2.5903   -1.1741 C   0  0  2  0  0  0  0  0  0  0  0  0
    7.6002    1.3443   -0.3889 C   0  0  0  0  0  0  0  0  0  0  0  0
    6.7694    4.2780   -2.5550 C   0  0  0  0  0  0  0  0  0  0  0  0
    7.5685    5.4291   -2.5478 C   0  0  0  0  0  0  0  0  0  0  0  0
    8.9028    5.3198   -2.5734 F   0  0  0  0  0  0  0  0  0  0  0  0
    7.0261    6.7083   -2.4172 C   0  0  0  0  0  0  0  0  0  0  0  0
    5.6503    6.8751   -2.3112 C   0  0  0  0  0  0  0  0  0  0  0  0
    4.8276    5.7539   -2.3072 C   0  0  0  0  0  0  0  0  0  0  0  0
    5.3812    4.4650   -2.4015 C   0  0  0  0  0  0  0  0  0  0  0  0
    4.4835    3.3191   -2.1075 C   0  0  0  0  0  0  0  0  0  0  0  0
    3.3599    3.5257   -1.6573 O   0  0  0  0  0  0  0  0  0  0  0  0
    0.0458    1.6160   -1.7273 H   0  0  0  0  0  0  0  0  0  0  0  0
    0.4969   -0.0719   -1.3411 H   0  0  0  0  0  0  0  0  0  0  0  0
    0.5948    0.5115   -3.0259 H   0  0  0  0  0  0  0  0  0  0  0  0
    2.2789    2.2185   -1.7228 H   0  0  0  0  0  0  0  0  0  0  0  0
    5.2139    0.1520   -1.3652 H   0  0  0  0  0  0  0  0  0  0  0  0
    4.3778    1.3637   -0.3908 H   0  0  0  0  0  0  0  0  0  0  0  0
    6.0097    2.0252   -4.0461 H   0  0  0  0  0  0  0  0  0  0  0  0
    6.6055    0.8263   -2.9224 H   0  0  0  0  0  0  0  0  0  0  0  0
   10.5580    2.7479   -5.4288 H   0  0  0  0  0  0  0  0  0  0  0  0
   14.6026    2.5979   -5.0032 H   0  0  0  0  0  0  0  0  0  0  0  0
   15.7523    2.4960   -2.8698 H   0  0  0  0  0  0  0  0  0  0  0  0
   15.7281    2.3408   -0.4151 H   0  0  0  0  0  0  0  0  0  0  0  0
   13.5583    2.1778    0.7698 H   0  0  0  0  0  0  0  0  0  0  0  0
   11.5385    2.2052   -0.4055 H   0  0  0  0  0  0  0  0  0  0  0  0
    9.9667    3.3780   -0.9417 H   0  0  0  0  0  0  0  0  0  0  0  0
    9.8694    1.5586   -1.0817 H   0  0  0  0  0  0  0  0  0  0  0  0
    7.8191    3.4313   -0.4915 H   0  0  0  0  0  0  0  0  0  0  0  0
    7.6722    0.4317   -0.9880 H   0  0  0  0  0  0  0  0  0  0  0  0
    6.5968    1.4470    0.0202 H   0  0  0  0  0  0  0  0  0  0  0  0
    8.2626    1.2144    0.4761 H   0  0  0  0  0  0  0  0  0  0  0  0
    7.6883    7.5681   -2.3700 H   0  0  0  0  0  0  0  0  0  0  0  0
    5.2207    7.8663   -2.1893 H   0  0  0  0  0  0  0  0  0  0  0  0
    3.7542    5.8815   -2.1713 H   0  0  0  0  0  0  0  0  0  0  0  0
  1  2  1  0  0  0  0
  1 34  1  0  0  0  0
  1 35  1  0  0  0  0
  1 36  1  0  0  0  0
  2  3  1  0  0  0  0
  2 37  1  0  0  0  0
  3  4  2  0  0  0  0
  3  5  1  0  0  0  0
  5  6  1  0  0  0  0
  5 38  1  0  0  0  0
  5 39  1  0  0  0  0
  6  7  1  0  0  0  0
  6 32  1  0  0  0  0
  7  8  1  0  0  0  0
  7 40  1  0  0  0  0
  7 41  1  0  0  0  0
  8  9  1  6  0  0  0
  8 23  1  0  0  0  0
  8 25  1  0  0  0  0
  9 10  2  0  0  0  0
  9 11  1  0  0  0  0
 11 12  1  0  0  0  0
 11 22  1  0  0  0  0
 12 13  1  0  0  0  0
 12 21  2  0  0  0  0
 13 14  2  0  0  0  0
 13 42  1  0  0  0  0
 14 15  1  0  0  0  0
 15 16  2  0  0  0  0
 15 43  1  0  0  0  0
 16 17  1  0  0  0  0
 16 21  1  0  0  0  0
 17 18  2  0  0  0  0
 17 44  1  0  0  0  0
 18 19  1  0  0  0  0
 18 45  1  0  0  0  0
 19 20  2  0  0  0  0
 19 46  1  0  0  0  0
 20 21  1  0  0  0  0
 20 47  1  0  0  0  0
 22 23  1  0  0  0  0
 22 48  1  0  0  0  0
 22 49  1  0  0  0  0
 23 24  1  0  0  0  0
 23 50  1  1  0  0  0
 24 51  1  0  0  0  0
 24 52  1  0  0  0  0
 24 53  1  0  0  0  0
 25 26  1  0  0  0  0
 25 31  2  0  0  0  0
 26 27  1  0  0  0  0
 26 28  2  0  0  0  0
 28 29  1  0  0  0  0
 28 54  1  0  0  0  0
 29 30  2  0  0  0  0
 29 55  1  0  0  0  0
 30 31  1  0  0  0  0
 30 56  1  0  0  0  0
 31 32  1  0  0  0  0
 32 33  2  0  0  0  0
M  END
$$$$
