
 OpenBabel07202414183D

 49 52  0  0  0  0  0  0  0  0999 V2000
    8.1713   -3.2916    1.8095 F   0  0  0  0  0  0  0  0  0  0  0  0
    8.2503   -1.9368    1.9384 C   0  0  0  0  0  0  0  0  0  0  0  0
    9.5111   -1.6784    2.3831 F   0  0  0  0  0  0  0  0  0  0  0  0
    8.1914   -1.4395    0.6722 F   0  0  0  0  0  0  0  0  0  0  0  0
    7.1878   -1.3508    2.8358 C   0  0  0  0  0  0  0  0  0  0  0  0
    6.2157   -2.1629    3.4364 C   0  0  0  0  0  0  0  0  0  0  0  0
    5.2342   -1.6021    4.2605 C   0  0  0  0  0  0  0  0  0  0  0  0
    5.2161   -0.2280    4.5184 C   0  0  0  0  0  0  0  0  0  0  0  0
    4.1849    0.2995    5.3275 N   0  0  0  0  0  0  0  0  0  0  0  0
    4.2579    1.4569    6.1335 C   0  0  0  0  0  0  0  0  0  0  0  0
    3.1378    2.2943    6.2588 C   0  0  0  0  0  0  0  0  0  0  0  0
    3.1692    3.4488    7.0580 C   0  0  0  0  0  0  0  0  0  0  0  0
    2.0150    4.4235    7.1358 C   0  0  0  0  0  0  0  0  0  0  0  0
    0.6120    3.8264    7.1643 C   0  0  0  0  0  0  0  0  0  0  0  0
    0.2062    3.0155    6.3380 O   0  0  0  0  0  0  0  0  0  0  0  0
   -0.1803    4.3783    8.1671 N   0  0  0  0  0  0  0  0  0  0  0  0
   -1.5546    4.0681    8.2995 C   0  0  0  0  0  0  0  0  0  0  0  0
   -2.4625    5.1319    8.2533 C   0  0  0  0  0  0  0  0  0  0  0  0
   -3.7869    5.0214    8.4195 N   0  0  0  0  0  0  0  0  0  0  0  0
   -4.2356    3.7932    8.7576 C   0  0  0  0  0  0  0  0  0  0  0  0
   -3.4153    2.6786    8.9610 C   0  0  0  0  0  0  0  0  0  0  0  0
   -3.9346    1.5016    9.5326 C   0  0  0  0  0  0  0  0  0  0  0  0
   -3.1158    0.3965    9.7392 C   0  0  0  0  0  0  0  0  0  0  0  0
   -1.7961    0.4275    9.3087 C   0  0  0  0  0  0  0  0  0  0  0  0
   -1.2645    1.6018    8.7667 C   0  0  0  0  0  0  0  0  0  0  0  0
   -2.0486    2.7806    8.6364 C   0  0  0  0  0  0  0  0  0  0  0  0
    4.3637    3.7578    7.7281 C   0  0  0  0  0  0  0  0  0  0  0  0
    5.4704    2.9174    7.6320 C   0  0  0  0  0  0  0  0  0  0  0  0
    6.9201    3.3152    8.4703 Cl  0  0  0  0  0  0  0  0  0  0  0  0
    5.4162    1.7672    6.8538 C   0  0  0  0  0  0  0  0  0  0  0  0
    6.1723    0.5843    3.8970 C   0  0  0  0  0  0  0  0  0  0  0  0
    7.1536    0.0304    3.0701 C   0  0  0  0  0  0  0  0  0  0  0  0
    6.2160   -3.2388    3.2724 H   0  0  0  0  0  0  0  0  0  0  0  0
    4.4915   -2.2487    4.7226 H   0  0  0  0  0  0  0  0  0  0  0  0
    3.2902    0.2168    4.8475 H   0  0  0  0  0  0  0  0  0  0  0  0
    2.2394    2.0449    5.6994 H   0  0  0  0  0  0  0  0  0  0  0  0
    2.0672    5.1071    6.2795 H   0  0  0  0  0  0  0  0  0  0  0  0
    2.1480    5.0387    8.0349 H   0  0  0  0  0  0  0  0  0  0  0  0
    0.0725    5.3271    8.4156 H   0  0  0  0  0  0  0  0  0  0  0  0
   -2.1178    6.1472    8.0578 H   0  0  0  0  0  0  0  0  0  0  0  0
   -5.3138    3.7316    8.8898 H   0  0  0  0  0  0  0  0  0  0  0  0
   -4.9676    1.4625    9.8688 H   0  0  0  0  0  0  0  0  0  0  0  0
   -3.5080   -0.4891   10.2357 H   0  0  0  0  0  0  0  0  0  0  0  0
   -1.1660   -0.4512    9.4155 H   0  0  0  0  0  0  0  0  0  0  0  0
   -0.2222    1.5948    8.4570 H   0  0  0  0  0  0  0  0  0  0  0  0
    4.4391    4.6643    8.3260 H   0  0  0  0  0  0  0  0  0  0  0  0
    6.2797    1.1080    6.8037 H   0  0  0  0  0  0  0  0  0  0  0  0
    6.1553    1.6613    4.0415 H   0  0  0  0  0  0  0  0  0  0  0  0
    7.8881    0.6849    2.6056 H   0  0  0  0  0  0  0  0  0  0  0  0
  1  2  1  0  0  0  0
  2  3  1  0  0  0  0
  2  4  1  0  0  0  0
  2  5  1  0  0  0  0
  5  6  2  0  0  0  0
  5 32  1  0  0  0  0
  6  7  1  0  0  0  0
  6 33  1  0  0  0  0
  7  8  2  0  0  0  0
  7 34  1  0  0  0  0
  8  9  1  0  0  0  0
  8 31  1  0  0  0  0
  9 10  1  0  0  0  0
  9 35  1  0  0  0  0
 10 11  2  0  0  0  0
 10 30  1  0  0  0  0
 11 12  1  0  0  0  0
 11 36  1  0  0  0  0
 12 13  1  0  0  0  0
 12 27  2  0  0  0  0
 13 14  1  0  0  0  0
 13 37  1  0  0  0  0
 13 38  1  0  0  0  0
 14 15  2  0  0  0  0
 14 16  1  0  0  0  0
 16 17  1  0  0  0  0
 16 39  1  0  0  0  0
 17 18  2  0  0  0  0
 17 26  1  0  0  0  0
 18 19  1  0  0  0  0
 18 40  1  0  0  0  0
 19 20  2  0  0  0  0
 20 21  1  0  0  0  0
 20 41  1  0  0  0  0
 21 22  2  0  0  0  0
 21 26  1  0  0  0  0
 22 23  1  0  0  0  0
 22 42  1  0  0  0  0
 23 24  2  0  0  0  0
 23 43  1  0  0  0  0
 24 25  1  0  0  0  0
 24 44  1  0  0  0  0
 25 26  2  0  0  0  0
 25 45  1  0  0  0  0
 27 28  1  0  0  0  0
 27 46  1  0  0  0  0
 28 29  1  0  0  0  0
 28 30  2  0  0  0  0
 30 47  1  0  0  0  0
 31 32  2  0  0  0  0
 31 48  1  0  0  0  0
 32 49  1  0  0  0  0
M  END
$$$$
