
 OpenBabel07202414143D

 48 51  0  0  1  0  0  0  0  0999 V2000
    1.5893   -2.6923   -2.8855 C   0  0  0  0  0  0  0  0  0  0  0  0
    2.9495   -2.3080   -2.4789 N   0  0  0  0  0  0  0  0  0  0  0  0
    3.0393   -1.3535   -1.0994 S   0  0  0  0  0  0  0  0  0  0  0  0
    2.5268   -0.0508   -1.4290 O   0  0  0  0  0  0  0  0  0  0  0  0
    2.5367   -2.1236    0.0208 O   0  0  0  0  0  0  0  0  0  0  0  0
    4.7275   -1.2490   -0.9486 N   0  0  0  0  0  0  0  0  0  0  0  0
    5.3951   -0.3125   -1.9011 C   0  0  0  0  0  0  0  0  0  0  0  0
    6.8873   -0.1374   -1.5946 C   0  0  3  0  0  0  0  0  0  0  0  0
    7.1989    0.8552   -0.4609 C   0  0  0  0  0  0  0  0  0  0  0  0
    8.2395    1.5106   -0.5032 O   0  0  0  0  0  0  0  0  0  0  0  0
    6.2641    0.9073    0.5545 N   0  0  0  0  0  0  0  0  0  0  0  0
    6.3354    1.6596    1.7603 C   0  0  0  0  0  0  0  0  0  0  0  0
    7.4385    2.4372    2.1094 C   0  0  0  0  0  0  0  0  0  0  0  0
    7.6442    2.9769    3.3347 N   0  0  0  0  0  0  0  0  0  0  0  0
    6.6647    2.7957    4.2425 C   0  0  0  0  0  0  0  0  0  0  0  0
    5.4393    2.1949    3.9661 C   0  0  0  0  0  0  0  0  0  0  0  0
    4.3992    2.2023    4.9143 C   0  0  0  0  0  0  0  0  0  0  0  0
    3.1607    1.6403    4.6161 C   0  0  0  0  0  0  0  0  0  0  0  0
    2.9629    1.0328    3.3845 C   0  0  0  0  0  0  0  0  0  0  0  0
    3.9961    1.0041    2.4421 C   0  0  0  0  0  0  0  0  0  0  0  0
    5.2607    1.5968    2.6963 C   0  0  0  0  0  0  0  0  0  0  0  0
    7.5892   -1.4675   -1.4182 C   0  0  0  0  0  0  0  0  0  0  0  0
    8.9637   -1.5847   -1.6851 C   0  0  0  0  0  0  0  0  0  0  0  0
    9.6032   -2.8193   -1.5682 C   0  0  0  0  0  0  0  0  0  0  0  0
   11.2750   -2.9599   -1.9473 Cl  0  0  0  0  0  0  0  0  0  0  0  0
    8.8935   -3.9466   -1.1685 C   0  0  0  0  0  0  0  0  0  0  0  0
    7.5319   -3.8394   -0.8955 C   0  0  0  0  0  0  0  0  0  0  0  0
    6.8689   -2.6061   -1.0241 C   0  0  0  0  0  0  0  0  0  0  0  0
    5.3724   -2.5842   -0.8324 C   0  0  0  0  0  0  0  0  0  0  0  0
    1.6677   -3.4105   -3.7074 H   0  0  0  0  0  0  0  0  0  0  0  0
    1.0528   -1.8158   -3.2555 H   0  0  0  0  0  0  0  0  0  0  0  0
    1.0382   -3.1663   -2.0708 H   0  0  0  0  0  0  0  0  0  0  0  0
    3.4354   -1.8610   -3.2556 H   0  0  0  0  0  0  0  0  0  0  0  0
    4.9068    0.6675   -1.8504 H   0  0  0  0  0  0  0  0  0  0  0  0
    5.2762   -0.6968   -2.9198 H   0  0  0  0  0  0  0  0  0  0  0  0
    7.3015    0.3398   -2.4957 H   0  0  0  0  0  0  0  0  0  0  0  0
    5.4994    0.2424    0.4911 H   0  0  0  0  0  0  0  0  0  0  0  0
    8.2409    2.6607    1.4130 H   0  0  0  0  0  0  0  0  0  0  0  0
    6.8977    3.1756    5.2344 H   0  0  0  0  0  0  0  0  0  0  0  0
    4.5369    2.6861    5.8795 H   0  0  0  0  0  0  0  0  0  0  0  0
    2.3489    1.6910    5.3369 H   0  0  0  0  0  0  0  0  0  0  0  0
    1.9981    0.5921    3.1402 H   0  0  0  0  0  0  0  0  0  0  0  0
    3.7682    0.5486    1.4829 H   0  0  0  0  0  0  0  0  0  0  0  0
    9.5348   -0.7131   -2.0016 H   0  0  0  0  0  0  0  0  0  0  0  0
    9.3873   -4.9107   -1.0809 H   0  0  0  0  0  0  0  0  0  0  0  0
    6.9786   -4.7320   -0.6057 H   0  0  0  0  0  0  0  0  0  0  0  0
    5.1354   -3.0026    0.1520 H   0  0  0  0  0  0  0  0  0  0  0  0
    4.9772   -3.2577   -1.6007 H   0  0  0  0  0  0  0  0  0  0  0  0
  1  2  1  0  0  0  0
  1 30  1  0  0  0  0
  1 31  1  0  0  0  0
  1 32  1  0  0  0  0
  2  3  1  0  0  0  0
  2 33  1  0  0  0  0
  3  4  2  0  0  0  0
  3  5  2  0  0  0  0
  3  6  1  0  0  0  0
  6  7  1  0  0  0  0
  6 29  1  0  0  0  0
  7  8  1  0  0  0  0
  7 34  1  0  0  0  0
  7 35  1  0  0  0  0
  8  9  1  0  0  0  0
  8 22  1  0  0  0  0
  8 36  1  0  0  0  0
  9 10  2  0  0  0  0
  9 11  1  0  0  0  0
 11 12  1  0  0  0  0
 11 37  1  0  0  0  0
 12 13  1  0  0  0  0
 12 21  2  0  0  0  0
 13 14  2  0  0  0  0
 13 38  1  0  0  0  0
 14 15  1  0  0  0  0
 15 16  2  0  0  0  0
 15 39  1  0  0  0  0
 16 17  1  0  0  0  0
 16 21  1  0  0  0  0
 17 18  2  0  0  0  0
 17 40  1  0  0  0  0
 18 19  1  0  0  0  0
 18 41  1  0  0  0  0
 19 20  2  0  0  0  0
 19 42  1  0  0  0  0
 20 21  1  0  0  0  0
 20 43  1  0  0  0  0
 22 23  1  0  0  0  0
 22 28  2  0  0  0  0
 23 24  2  0  0  0  0
 23 44  1  0  0  0  0
 24 25  1  0  0  0  0
 24 26  1  0  0  0  0
 26 27  2  0  0  0  0
 26 45  1  0  0  0  0
 27 28  1  0  0  0  0
 27 46  1  0  0  0  0
 28 29  1  0  0  0  0
 29 47  1  0  0  0  0
 29 48  1  0  0  0  0
M  END
$$$$
