
 OpenBabel07202414203D

 51 54  0  0  0  0  0  0  0  0999 V2000
    3.5040    2.0927    2.8342 O   0  5  0  0  0  0  0  0  0  0  0  0
    2.5835    2.8411    3.1943 N   0  3  0  0  0  0  0  0  0  0  0  0
    2.4959    4.0495    2.9363 O   0  0  0  0  0  0  0  0  0  0  0  0
    1.5251    2.2580    4.0035 C   0  0  0  0  0  0  0  0  0  0  0  0
    0.9008    1.0642    3.5985 C   0  0  0  0  0  0  0  0  0  0  0  0
    1.2741    0.3463    2.4451 N   0  0  0  0  0  0  0  0  0  0  0  0
    0.4839   -0.3129    1.4843 C   0  0  0  0  0  0  0  0  0  0  0  0
    1.0091   -1.4213    0.7969 C   0  0  0  0  0  0  0  0  0  0  0  0
    0.2710   -2.1000   -0.1894 C   0  0  0  0  0  0  0  0  0  0  0  0
    0.8921   -3.2149   -1.0070 C   0  0  0  0  0  0  0  0  0  0  0  0
    1.3392   -4.4489   -0.2333 C   0  0  0  0  0  0  0  0  0  0  0  0
    2.4085   -4.9987   -0.4857 O   0  0  0  0  0  0  0  0  0  0  0  0
    0.3968   -4.9369    0.6485 N   0  0  0  0  0  0  0  0  0  0  0  0
    0.6030   -6.0750    1.4679 C   0  0  0  0  0  0  0  0  0  0  0  0
   -0.3750   -7.0697    1.4408 C   0  0  0  0  0  0  0  0  0  0  0  0
   -0.3943   -8.1545    2.2415 N   0  0  0  0  0  0  0  0  0  0  0  0
    0.5432   -8.1842    3.2104 C   0  0  0  0  0  0  0  0  0  0  0  0
    1.4995   -7.1892    3.4198 C   0  0  0  0  0  0  0  0  0  0  0  0
    2.2801   -7.1741    4.5893 C   0  0  0  0  0  0  0  0  0  0  0  0
    3.2407   -6.1872    4.7904 C   0  0  0  0  0  0  0  0  0  0  0  0
    3.4891   -5.2613    3.7868 C   0  0  0  0  0  0  0  0  0  0  0  0
    2.6863   -5.2408    2.6419 C   0  0  0  0  0  0  0  0  0  0  0  0
    1.6180   -6.1555    2.4619 C   0  0  0  0  0  0  0  0  0  0  0  0
   -1.0302   -1.6595   -0.4725 C   0  0  0  0  0  0  0  0  0  0  0  0
   -1.5709   -0.5853    0.2338 C   0  0  0  0  0  0  0  0  0  0  0  0
   -3.1609   -0.0449   -0.1389 Cl  0  0  0  0  0  0  0  0  0  0  0  0
   -0.8291    0.0774    1.2095 C   0  0  0  0  0  0  0  0  0  0  0  0
   -0.1779    0.6247    4.3811 C   0  0  0  0  0  0  0  0  0  0  0  0
   -0.5641    1.2982    5.5484 C   0  0  0  0  0  0  0  0  0  0  0  0
    0.1057    2.4554    5.9669 C   0  0  0  0  0  0  0  0  0  0  0  0
   -0.2636    3.1519    7.2554 C   0  0  0  0  0  0  0  0  0  0  0  0
   -1.2990    2.5637    7.9142 F   0  0  0  0  0  0  0  0  0  0  0  0
    0.7744    3.1785    8.1356 F   0  0  0  0  0  0  0  0  0  0  0  0
   -0.6262    4.4478    7.0605 F   0  0  0  0  0  0  0  0  0  0  0  0
    1.1461    2.9502    5.1689 C   0  0  0  0  0  0  0  0  0  0  0  0
    2.2634    0.4072    2.1975 H   0  0  0  0  0  0  0  0  0  0  0  0
    2.0156   -1.7623    1.0365 H   0  0  0  0  0  0  0  0  0  0  0  0
    1.7707   -2.8027   -1.5098 H   0  0  0  0  0  0  0  0  0  0  0  0
    0.2097   -3.5471   -1.7894 H   0  0  0  0  0  0  0  0  0  0  0  0
   -0.5650   -4.7331    0.4035 H   0  0  0  0  0  0  0  0  0  0  0  0
   -1.2007   -7.0269    0.7361 H   0  0  0  0  0  0  0  0  0  0  0  0
    0.4929   -9.0584    3.8555 H   0  0  0  0  0  0  0  0  0  0  0  0
    2.1008   -7.9016    5.3787 H   0  0  0  0  0  0  0  0  0  0  0  0
    3.7968   -6.1471    5.7232 H   0  0  0  0  0  0  0  0  0  0  0  0
    4.2886   -4.5338    3.9019 H   0  0  0  0  0  0  0  0  0  0  0  0
    2.9075   -4.4917    1.8880 H   0  0  0  0  0  0  0  0  0  0  0  0
   -1.6162   -2.1374   -1.2522 H   0  0  0  0  0  0  0  0  0  0  0  0
   -1.2632    0.9347    1.7155 H   0  0  0  0  0  0  0  0  0  0  0  0
   -0.7099   -0.2861    4.1097 H   0  0  0  0  0  0  0  0  0  0  0  0
   -1.3896    0.8973    6.1375 H   0  0  0  0  0  0  0  0  0  0  0  0
    1.6657    3.8638    5.4619 H   0  0  0  0  0  0  0  0  0  0  0  0
  1  2  1  0  0  0  0
  2  3  2  0  0  0  0
  2  4  1  0  0  0  0
  4  5  2  0  0  0  0
  4 35  1  0  0  0  0
  5  6  1  0  0  0  0
  5 28  1  0  0  0  0
  6  7  1  0  0  0  0
  6 36  1  0  0  0  0
  7  8  2  0  0  0  0
  7 27  1  0  0  0  0
  8  9  1  0  0  0  0
  8 37  1  0  0  0  0
  9 10  1  0  0  0  0
  9 24  2  0  0  0  0
 10 11  1  0  0  0  0
 10 38  1  0  0  0  0
 10 39  1  0  0  0  0
 11 12  2  0  0  0  0
 11 13  1  0  0  0  0
 13 14  1  0  0  0  0
 13 40  1  0  0  0  0
 14 15  2  0  0  0  0
 14 23  1  0  0  0  0
 15 16  1  0  0  0  0
 15 41  1  0  0  0  0
 16 17  2  0  0  0  0
 17 18  1  0  0  0  0
 17 42  1  0  0  0  0
 18 19  2  0  0  0  0
 18 23  1  0  0  0  0
 19 20  1  0  0  0  0
 19 43  1  0  0  0  0
 20 21  2  0  0  0  0
 20 44  1  0  0  0  0
 21 22  1  0  0  0  0
 21 45  1  0  0  0  0
 22 23  2  0  0  0  0
 22 46  1  0  0  0  0
 24 25  1  0  0  0  0
 24 47  1  0  0  0  0
 25 26  1  0  0  0  0
 25 27  2  0  0  0  0
 27 48  1  0  0  0  0
 28 29  2  0  0  0  0
 28 49  1  0  0  0  0
 29 30  1  0  0  0  0
 29 50  1  0  0  0  0
 30 31  1  0  0  0  0
 30 35  2  0  0  0  0
 31 32  1  0  0  0  0
 31 33  1  0  0  0  0
 31 34  1  0  0  0  0
 35 51  1  0  0  0  0
M  CHG  2   1  -1   2   1
M  END
$$$$
