
 OpenBabel07202414193D

 44 47  0  0  1  0  0  0  0  0999 V2000
    2.4960    0.8769   -0.4298 O   0  0  0  0  0  0  0  0  0  0  0  0
    2.1076   -0.1519    0.1175 C   0  0  0  0  0  0  0  0  0  0  0  0
    0.8328   -0.8736   -0.3117 C   0  0  0  0  0  0  0  0  0  0  0  0
   -0.3278    0.0157   -0.6819 C   0  0  0  0  0  0  0  0  0  0  0  0
   -0.8900   -0.1173   -1.9519 C   0  0  0  0  0  0  0  0  0  0  0  0
   -1.9767    0.5527   -2.3827 N   0  0  0  0  0  0  0  0  0  0  0  0
   -2.5303    1.4180   -1.5064 C   0  0  0  0  0  0  0  0  0  0  0  0
   -2.0682    1.6439   -0.2085 C   0  0  0  0  0  0  0  0  0  0  0  0
   -2.7018    2.5583    0.6529 C   0  0  0  0  0  0  0  0  0  0  0  0
   -2.2299    2.7615    1.9485 C   0  0  0  0  0  0  0  0  0  0  0  0
   -1.1309    2.0445    2.4006 C   0  0  0  0  0  0  0  0  0  0  0  0
   -0.5024    1.1281    1.5548 C   0  0  0  0  0  0  0  0  0  0  0  0
   -0.9406    0.9157    0.2271 C   0  0  0  0  0  0  0  0  0  0  0  0
    2.8042   -0.7462    1.1626 N   0  0  0  0  0  0  0  0  0  0  0  0
    2.6145   -2.1104    1.6285 C   0  0  0  0  0  0  0  0  0  0  0  0
    3.9909   -2.5508    2.0888 C   0  0  1  0  0  0  0  0  0  0  0  0
    4.6928   -2.9954    1.0108 F   0  0  0  0  0  0  0  0  0  0  0  0
    4.6320   -1.2761    2.6019 C   0  0  0  0  0  0  0  0  0  0  0  0
    4.0370   -0.1704    1.7048 C   0  0  2  0  0  0  0  0  0  0  0  0
    3.7784    1.0962    2.5034 C   0  0  0  0  0  0  0  0  0  0  0  0
    4.4788    2.2786    2.2153 C   0  0  0  0  0  0  0  0  0  0  0  0
    4.2314    3.4520    2.9378 C   0  0  0  0  0  0  0  0  0  0  0  0
    3.2813    3.4590    3.9571 C   0  0  0  0  0  0  0  0  0  0  0  0
    2.5913    2.2918    4.2499 C   0  0  0  0  0  0  0  0  0  0  0  0
    1.6721    2.2908    5.2245 F   0  0  0  0  0  0  0  0  0  0  0  0
    2.8324    1.1197    3.5419 C   0  0  0  0  0  0  0  0  0  0  0  0
    0.4623   -1.5313    0.4806 H   0  0  0  0  0  0  0  0  0  0  0  0
    1.1145   -1.5195   -1.1528 H   0  0  0  0  0  0  0  0  0  0  0  0
   -0.4774   -0.8094   -2.6825 H   0  0  0  0  0  0  0  0  0  0  0  0
   -3.3997    1.9446   -1.8914 H   0  0  0  0  0  0  0  0  0  0  0  0
   -3.5683    3.1223    0.3148 H   0  0  0  0  0  0  0  0  0  0  0  0
   -2.7176    3.4794    2.6022 H   0  0  0  0  0  0  0  0  0  0  0  0
   -0.7516    2.1999    3.4078 H   0  0  0  0  0  0  0  0  0  0  0  0
    0.3495    0.5891    1.9547 H   0  0  0  0  0  0  0  0  0  0  0  0
    2.2304   -2.7569    0.8361 H   0  0  0  0  0  0  0  0  0  0  0  0
    1.9046   -2.0674    2.4619 H   0  0  0  0  0  0  0  0  0  0  0  0
    3.9554   -3.3568    2.8256 H   0  0  0  0  0  0  0  0  0  0  0  0
    5.7236   -1.3040    2.5274 H   0  0  0  0  0  0  0  0  0  0  0  0
    4.3692   -1.1415    3.6573 H   0  0  0  0  0  0  0  0  0  0  0  0
    4.7080    0.0317    0.8597 H   0  0  0  0  0  0  0  0  0  0  0  0
    5.2110    2.3022    1.4100 H   0  0  0  0  0  0  0  0  0  0  0  0
    4.7709    4.3637    2.6934 H   0  0  0  0  0  0  0  0  0  0  0  0
    3.0697    4.3649    4.5156 H   0  0  0  0  0  0  0  0  0  0  0  0
    2.2644    0.2326    3.8025 H   0  0  0  0  0  0  0  0  0  0  0  0
  1  2  2  0  0  0  0
  2  3  1  0  0  0  0
  2 14  1  0  0  0  0
  3  4  1  0  0  0  0
  3 27  1  0  0  0  0
  3 28  1  0  0  0  0
  4  5  1  0  0  0  0
  4 13  2  0  0  0  0
  5  6  2  0  0  0  0
  5 29  1  0  0  0  0
  6  7  1  0  0  0  0
  7  8  2  0  0  0  0
  7 30  1  0  0  0  0
  8  9  1  0  0  0  0
  8 13  1  0  0  0  0
  9 10  2  0  0  0  0
  9 31  1  0  0  0  0
 10 11  1  0  0  0  0
 10 32  1  0  0  0  0
 11 12  2  0  0  0  0
 11 33  1  0  0  0  0
 12 13  1  0  0  0  0
 12 34  1  0  0  0  0
 14 15  1  0  0  0  0
 14 19  1  0  0  0  0
 15 16  1  0  0  0  0
 15 35  1  0  0  0  0
 15 36  1  0  0  0  0
 16 17  1  0  0  0  0
 16 18  1  0  0  0  0
 16 37  1  1  0  0  0
 18 19  1  0  0  0  0
 18 38  1  0  0  0  0
 18 39  1  0  0  0  0
 19 20  1  0  0  0  0
 19 40  1  6  0  0  0
 20 21  1  0  0  0  0
 20 26  2  0  0  0  0
 21 22  2  0  0  0  0
 21 41  1  0  0  0  0
 22 23  1  0  0  0  0
 22 42  1  0  0  0  0
 23 24  2  0  0  0  0
 23 43  1  0  0  0  0
 24 25  1  0  0  0  0
 24 26  1  0  0  0  0
 26 44  1  0  0  0  0
M  END
$$$$
