
 OpenBabel07202414193D

 47 50  0  0  1  0  0  0  0  0999 V2000
    1.3347    0.5018    0.3853 O   0  0  0  0  0  0  0  0  0  0  0  0
    2.3318    0.0174   -0.1526 C   0  0  0  0  0  0  0  0  0  0  0  0
    2.7594   -1.4094    0.1714 C   0  0  0  0  0  0  0  0  0  0  0  0
    3.8300   -1.4909    1.2395 C   0  0  0  0  0  0  0  0  0  0  0  0
    3.8277   -0.5587    2.2817 C   0  0  0  0  0  0  0  0  0  0  0  0
    4.7279   -0.5256    3.2850 N   0  0  0  0  0  0  0  0  0  0  0  0
    5.6796   -1.4784    3.2680 C   0  0  0  0  0  0  0  0  0  0  0  0
    5.7902   -2.4722    2.2991 C   0  0  0  0  0  0  0  0  0  0  0  0
    6.8223   -3.4300    2.3475 C   0  0  0  0  0  0  0  0  0  0  0  0
    6.9271   -4.4149    1.3696 C   0  0  0  0  0  0  0  0  0  0  0  0
    5.9918   -4.4660    0.3451 C   0  0  0  0  0  0  0  0  0  0  0  0
    4.9585   -3.5255    0.2919 C   0  0  0  0  0  0  0  0  0  0  0  0
    4.8355   -2.5021    1.2546 C   0  0  0  0  0  0  0  0  0  0  0  0
    3.1300    0.7302   -1.0383 N   0  0  0  0  0  0  0  0  0  0  0  0
    4.3119    0.1987   -1.7192 C   0  0  0  0  0  0  0  0  0  0  0  0
    5.5118    1.1147   -1.5377 C   0  0  0  0  0  0  0  0  0  0  0  0
    5.1921    2.5384   -1.9763 C   0  0  0  0  0  0  0  0  0  0  0  0
    3.9123    3.0652   -1.2947 C   0  0  1  0  0  0  0  0  0  0  0  0
    3.5341    4.4488   -1.7940 C   0  0  0  0  0  0  0  0  0  0  0  0
    3.2610    4.6948   -3.1482 C   0  0  0  0  0  0  0  0  0  0  0  0
    2.8894    5.9678   -3.5776 C   0  0  0  0  0  0  0  0  0  0  0  0
    2.7798    7.0125   -2.6612 C   0  0  0  0  0  0  0  0  0  0  0  0
    3.0484    6.7812   -1.3139 C   0  0  0  0  0  0  0  0  0  0  0  0
    3.4253    5.5084   -0.8823 C   0  0  0  0  0  0  0  0  0  0  0  0
    2.7411    2.0767   -1.4519 C   0  0  0  0  0  0  0  0  0  0  0  0
    3.0716   -1.8809   -0.7663 H   0  0  0  0  0  0  0  0  0  0  0  0
    1.8781   -1.9805    0.4854 H   0  0  0  0  0  0  0  0  0  0  0  0
    3.0804    0.2300    2.3440 H   0  0  0  0  0  0  0  0  0  0  0  0
    6.3825   -1.4161    4.0958 H   0  0  0  0  0  0  0  0  0  0  0  0
    7.5554   -3.4059    3.1525 H   0  0  0  0  0  0  0  0  0  0  0  0
    7.7304   -5.1462    1.4168 H   0  0  0  0  0  0  0  0  0  0  0  0
    6.0619   -5.2416   -0.4136 H   0  0  0  0  0  0  0  0  0  0  0  0
    4.2441   -3.6232   -0.5222 H   0  0  0  0  0  0  0  0  0  0  0  0
    4.0475    0.0965   -2.7779 H   0  0  0  0  0  0  0  0  0  0  0  0
    4.5984   -0.7885   -1.3635 H   0  0  0  0  0  0  0  0  0  0  0  0
    6.3546    0.7227   -2.1179 H   0  0  0  0  0  0  0  0  0  0  0  0
    5.8179    1.1141   -0.4833 H   0  0  0  0  0  0  0  0  0  0  0  0
    5.0871    2.5470   -3.0676 H   0  0  0  0  0  0  0  0  0  0  0  0
    6.0420    3.1898   -1.7371 H   0  0  0  0  0  0  0  0  0  0  0  0
    4.1358    3.1302   -0.2197 H   0  0  0  0  0  0  0  0  0  0  0  0
    3.3311    3.8961   -3.8853 H   0  0  0  0  0  0  0  0  0  0  0  0
    2.6714    6.1466   -4.6278 H   0  0  0  0  0  0  0  0  0  0  0  0
    2.4810    7.9990   -2.9961 H   0  0  0  0  0  0  0  0  0  0  0  0
    2.9588    7.5923   -0.5954 H   0  0  0  0  0  0  0  0  0  0  0  0
    3.6305    5.3513    0.1737 H   0  0  0  0  0  0  0  0  0  0  0  0
    2.4249    1.9988   -2.4994 H   0  0  0  0  0  0  0  0  0  0  0  0
    1.8703    2.4296   -0.8878 H   0  0  0  0  0  0  0  0  0  0  0  0
  1  2  2  0  0  0  0
  2  3  1  0  0  0  0
  2 14  1  0  0  0  0
  3  4  1  0  0  0  0
  3 26  1  0  0  0  0
  3 27  1  0  0  0  0
  4  5  1  0  0  0  0
  4 13  2  0  0  0  0
  5  6  2  0  0  0  0
  5 28  1  0  0  0  0
  6  7  1  0  0  0  0
  7  8  2  0  0  0  0
  7 29  1  0  0  0  0
  8  9  1  0  0  0  0
  8 13  1  0  0  0  0
  9 10  2  0  0  0  0
  9 30  1  0  0  0  0
 10 11  1  0  0  0  0
 10 31  1  0  0  0  0
 11 12  2  0  0  0  0
 11 32  1  0  0  0  0
 12 13  1  0  0  0  0
 12 33  1  0  0  0  0
 14 15  1  0  0  0  0
 14 25  1  0  0  0  0
 15 16  1  0  0  0  0
 15 34  1  0  0  0  0
 15 35  1  0  0  0  0
 16 17  1  0  0  0  0
 16 36  1  0  0  0  0
 16 37  1  0  0  0  0
 17 18  1  0  0  0  0
 17 38  1  0  0  0  0
 17 39  1  0  0  0  0
 18 19  1  0  0  0  0
 18 25  1  0  0  0  0
 18 40  1  1  0  0  0
 19 20  1  0  0  0  0
 19 24  2  0  0  0  0
 20 21  2  0  0  0  0
 20 41  1  0  0  0  0
 21 22  1  0  0  0  0
 21 42  1  0  0  0  0
 22 23  2  0  0  0  0
 22 43  1  0  0  0  0
 23 24  1  0  0  0  0
 23 44  1  0  0  0  0
 24 45  1  0  0  0  0
 25 46  1  0  0  0  0
 25 47  1  0  0  0  0
M  END
$$$$
