
 OpenBabel07202414153D

 43 46  0  0  1  0  0  0  0  0999 V2000
   10.1914    4.7261   -5.3167 C   0  0  0  0  0  0  0  0  0  0  0  0
    9.2527    3.6551   -5.2791 O   0  0  0  0  0  0  0  0  0  0  0  0
    8.2615    3.7598   -4.3410 C   0  0  0  0  0  0  0  0  0  0  0  0
    7.8408    4.9434   -3.7474 C   0  0  0  0  0  0  0  0  0  0  0  0
    6.7973    4.9180   -2.8247 C   0  0  0  0  0  0  0  0  0  0  0  0
    6.1676    3.7100   -2.4799 C   0  0  0  0  0  0  0  0  0  0  0  0
    5.1112    3.6986   -1.5723 C   0  0  0  0  0  0  0  0  0  0  0  0
    4.4519    2.5921   -1.1824 N   0  0  0  0  0  0  0  0  0  0  0  0
    4.8686    1.4217   -1.7178 C   0  0  0  0  0  0  0  0  0  0  0  0
    5.9144    1.2894   -2.6359 C   0  0  0  0  0  0  0  0  0  0  0  0
    6.3479    0.0199   -3.1140 N   0  0  0  0  0  0  0  0  0  0  0  0
    5.6833   -1.1913   -2.9645 C   0  0  0  0  0  0  0  0  0  0  0  0
    4.5599   -1.3243   -2.4855 O   0  0  0  0  0  0  0  0  0  0  0  0
    6.4880   -2.4012   -3.4675 C   0  0  3  0  0  0  0  0  0  0  0  0
    5.5474   -3.4254   -4.1187 C   0  0  0  0  0  0  0  0  0  0  0  0
    4.9765   -4.3690   -3.0728 C   0  0  0  0  0  0  0  0  0  0  0  0
    6.0123   -5.1179   -2.4375 O   0  0  0  0  0  0  0  0  0  0  0  0
    7.0123   -4.3418   -1.9157 C   0  0  0  0  0  0  0  0  0  0  0  0
    7.7868   -4.9478   -0.9224 C   0  0  0  0  0  0  0  0  0  0  0  0
    8.8343   -4.2493   -0.3271 C   0  0  0  0  0  0  0  0  0  0  0  0
    9.1128   -2.9508   -0.7409 C   0  0  0  0  0  0  0  0  0  0  0  0
   10.4005   -2.0766   -0.0066 Cl  0  0  0  0  0  0  0  0  0  0  0  0
    8.3598   -2.3504   -1.7521 C   0  0  0  0  0  0  0  0  0  0  0  0
    7.2953   -3.0416   -2.3555 C   0  0  0  0  0  0  0  0  0  0  0  0
    6.5821    2.4815   -3.0484 C   0  0  0  0  0  0  0  0  0  0  0  0
    7.6309    2.5526   -4.0056 C   0  0  0  0  0  0  0  0  0  0  0  0
   11.0015    4.4370   -5.9929 H   0  0  0  0  0  0  0  0  0  0  0  0
   10.6284    4.9020   -4.3276 H   0  0  0  0  0  0  0  0  0  0  0  0
    9.7373    5.6393   -5.7148 H   0  0  0  0  0  0  0  0  0  0  0  0
    8.2859    5.9013   -3.9948 H   0  0  0  0  0  0  0  0  0  0  0  0
    6.4723    5.8556   -2.3764 H   0  0  0  0  0  0  0  0  0  0  0  0
    4.7468    4.6163   -1.1169 H   0  0  0  0  0  0  0  0  0  0  0  0
    4.3216    0.5683   -1.3306 H   0  0  0  0  0  0  0  0  0  0  0  0
    7.2099    0.0083   -3.6389 H   0  0  0  0  0  0  0  0  0  0  0  0
    7.1775   -2.0584   -4.2504 H   0  0  0  0  0  0  0  0  0  0  0  0
    6.1231   -4.0179   -4.8421 H   0  0  0  0  0  0  0  0  0  0  0  0
    4.7388   -2.9325   -4.6707 H   0  0  0  0  0  0  0  0  0  0  0  0
    4.3133   -5.0930   -3.5595 H   0  0  0  0  0  0  0  0  0  0  0  0
    4.3806   -3.8553   -2.3105 H   0  0  0  0  0  0  0  0  0  0  0  0
    7.5617   -5.9641   -0.6079 H   0  0  0  0  0  0  0  0  0  0  0  0
    9.4229   -4.7220    0.4550 H   0  0  0  0  0  0  0  0  0  0  0  0
    8.6114   -1.3397   -2.0620 H   0  0  0  0  0  0  0  0  0  0  0  0
    7.9756    1.6633   -4.5244 H   0  0  0  0  0  0  0  0  0  0  0  0
  1  2  1  0  0  0  0
  1 27  1  0  0  0  0
  1 28  1  0  0  0  0
  1 29  1  0  0  0  0
  2  3  1  0  0  0  0
  3  4  1  0  0  0  0
  3 26  2  0  0  0  0
  4  5  2  0  0  0  0
  4 30  1  0  0  0  0
  5  6  1  0  0  0  0
  5 31  1  0  0  0  0
  6  7  1  0  0  0  0
  6 25  2  0  0  0  0
  7  8  2  0  0  0  0
  7 32  1  0  0  0  0
  8  9  1  0  0  0  0
  9 10  2  0  0  0  0
  9 33  1  0  0  0  0
 10 11  1  0  0  0  0
 10 25  1  0  0  0  0
 11 12  1  0  0  0  0
 11 34  1  0  0  0  0
 12 13  2  0  0  0  0
 12 14  1  0  0  0  0
 14 15  1  0  0  0  0
 14 24  1  0  0  0  0
 14 35  1  0  0  0  0
 15 16  1  0  0  0  0
 15 36  1  0  0  0  0
 15 37  1  0  0  0  0
 16 17  1  0  0  0  0
 16 38  1  0  0  0  0
 16 39  1  0  0  0  0
 17 18  1  0  0  0  0
 18 19  1  0  0  0  0
 18 24  2  0  0  0  0
 19 20  2  0  0  0  0
 19 40  1  0  0  0  0
 20 21  1  0  0  0  0
 20 41  1  0  0  0  0
 21 22  1  0  0  0  0
 21 23  2  0  0  0  0
 23 24  1  0  0  0  0
 23 42  1  0  0  0  0
 25 26  1  0  0  0  0
 26 43  1  0  0  0  0
M  END
$$$$
