
 OpenBabel07202414183D

 61 66  0  0  1  0  0  0  0  0999 V2000
    4.3781   -1.0160    2.2305 F   0  0  0  0  0  0  0  0  0  0  0  0
    4.1144   -0.5465    0.9814 C   0  0  0  0  0  0  0  0  0  0  0  0
    5.0869    0.3729    0.7161 F   0  0  0  0  0  0  0  0  0  0  0  0
    4.0465   -1.6332   -0.0589 C   0  0  0  0  0  0  0  0  0  0  0  0
    3.5973   -2.9148    0.2560 C   0  0  0  0  0  0  0  0  0  0  0  0
    3.4384   -3.8642   -0.7517 C   0  0  0  0  0  0  0  0  0  0  0  0
    3.7276   -3.5474   -2.0914 C   0  0  0  0  0  0  0  0  0  0  0  0
    3.4795   -4.4659   -3.1133 C   0  0  0  0  0  0  0  0  0  0  0  0
    3.6657   -4.2172   -4.4235 N   0  0  0  0  0  0  0  0  0  0  0  0
    4.1485   -2.9934   -4.7300 C   0  0  0  0  0  0  0  0  0  0  0  0
    4.5005   -2.0045   -3.7966 C   0  0  0  0  0  0  0  0  0  0  0  0
    5.1276   -0.8469   -4.3157 N   0  0  0  0  0  0  0  0  0  0  0  0
    6.1479   -0.0379   -3.7295 C   0  0  0  0  0  0  0  0  0  0  0  0
    6.6045    0.8960   -4.8612 C   0  0  0  0  0  0  0  0  0  0  0  0
    5.5907    0.6858   -6.0313 C   0  0  3  0  0  0  0  0  0  0  0  0
    5.0001    2.0172   -6.5232 C   0  0  0  0  0  0  0  0  0  0  0  0
    4.4087    1.9568   -7.8935 N   0  0  0  0  0  0  0  0  0  0  0  0
    2.8899    1.2792   -8.2099 S   0  0  0  0  0  0  0  0  0  0  0  0
    2.5708    1.5945   -9.5898 O   0  0  0  0  0  0  0  0  0  0  0  0
    2.9163   -0.1104   -7.8328 O   0  0  0  0  0  0  0  0  0  0  0  0
    1.7660    2.2329   -7.1526 C   0  0  0  0  0  0  0  0  0  0  0  0
    1.6867    3.6239   -7.7513 C   0  0  0  0  0  0  0  0  0  0  0  0
    2.8801    4.4294   -7.6484 C   0  0  0  0  0  0  0  0  0  0  0  0
    3.8249    5.0948   -7.5393 N   0  0  0  0  0  0  0  0  0  0  0  0
    0.7652    3.8608   -8.9372 C   0  0  0  0  0  0  0  0  0  0  0  0
    0.3871    4.4067   -7.5960 C   0  0  0  0  0  0  0  0  0  0  0  0
    5.4377    1.6062   -8.8840 C   0  0  0  0  0  0  0  0  0  0  0  0
    6.1806    0.3468   -8.5153 C   0  0  0  0  0  0  0  0  0  0  0  0
    6.8322   -0.3516   -9.5475 C   0  0  0  0  0  0  0  0  0  0  0  0
    7.5480   -1.5124   -9.2771 C   0  0  0  0  0  0  0  0  0  0  0  0
    7.6192   -1.9786   -7.9718 C   0  0  0  0  0  0  0  0  0  0  0  0
    8.5140   -3.4071   -7.6262 Cl  0  0  0  0  0  0  0  0  0  0  0  0
    6.9848   -1.2918   -6.9331 C   0  0  0  0  0  0  0  0  0  0  0  0
    6.2559   -0.1103   -7.1770 C   0  0  0  0  0  0  0  0  0  0  0  0
    4.5012   -0.0778   -5.2863 C   0  0  0  0  0  0  0  0  0  0  0  0
    3.2931    0.1042   -5.3244 O   0  0  0  0  0  0  0  0  0  0  0  0
    4.2389   -2.2732   -2.4351 C   0  0  0  0  0  0  0  0  0  0  0  0
    4.3568   -1.3308   -1.3938 C   0  0  0  0  0  0  0  0  0  0  0  0
    3.1586   -0.0129    1.0146 H   0  0  0  0  0  0  0  0  0  0  0  0
    3.3414   -3.1728    1.2815 H   0  0  0  0  0  0  0  0  0  0  0  0
    3.0546   -4.8476   -0.4908 H   0  0  0  0  0  0  0  0  0  0  0  0
    3.0871   -5.4581   -2.9003 H   0  0  0  0  0  0  0  0  0  0  0  0
    4.2956   -2.8383   -5.7981 H   0  0  0  0  0  0  0  0  0  0  0  0
    6.9571   -0.6355   -3.3036 H   0  0  0  0  0  0  0  0  0  0  0  0
    5.7087    0.6041   -2.9611 H   0  0  0  0  0  0  0  0  0  0  0  0
    7.6395    0.6711   -5.1448 H   0  0  0  0  0  0  0  0  0  0  0  0
    6.6102    1.9319   -4.4993 H   0  0  0  0  0  0  0  0  0  0  0  0
    5.8069    2.7643   -6.5775 H   0  0  0  0  0  0  0  0  0  0  0  0
    4.2856    2.4432   -5.8120 H   0  0  0  0  0  0  0  0  0  0  0  0
    2.1215    2.2374   -6.1205 H   0  0  0  0  0  0  0  0  0  0  0  0
    0.7986    1.7204   -7.1781 H   0  0  0  0  0  0  0  0  0  0  0  0
    0.1929    3.0251   -9.3273 H   0  0  0  0  0  0  0  0  0  0  0  0
    1.1003    4.5427   -9.7132 H   0  0  0  0  0  0  0  0  0  0  0  0
   -0.4499    3.9500   -7.0833 H   0  0  0  0  0  0  0  0  0  0  0  0
    0.4417    5.4847   -7.4660 H   0  0  0  0  0  0  0  0  0  0  0  0
    6.1492    2.4380   -8.9528 H   0  0  0  0  0  0  0  0  0  0  0  0
    4.9952    1.5078   -9.8813 H   0  0  0  0  0  0  0  0  0  0  0  0
    6.7739    0.0074  -10.5742 H   0  0  0  0  0  0  0  0  0  0  0  0
    8.0409   -2.0440  -10.0859 H   0  0  0  0  0  0  0  0  0  0  0  0
    7.0823   -1.6928   -5.9279 H   0  0  0  0  0  0  0  0  0  0  0  0
    4.6269   -0.3044   -1.6090 H   0  0  0  0  0  0  0  0  0  0  0  0
  1  2  1  0  0  0  0
  2  3  1  0  0  0  0
  2  4  1  0  0  0  0
  2 39  1  0  0  0  0
  4  5  1  0  0  0  0
  4 38  2  0  0  0  0
  5  6  2  0  0  0  0
  5 40  1  0  0  0  0
  6  7  1  0  0  0  0
  6 41  1  0  0  0  0
  7  8  1  0  0  0  0
  7 37  2  0  0  0  0
  8  9  2  0  0  0  0
  8 42  1  0  0  0  0
  9 10  1  0  0  0  0
 10 11  2  0  0  0  0
 10 43  1  0  0  0  0
 11 12  1  0  0  0  0
 11 37  1  0  0  0  0
 12 13  1  0  0  0  0
 12 35  1  0  0  0  0
 13 14  1  0  0  0  0
 13 44  1  0  0  0  0
 13 45  1  0  0  0  0
 14 15  1  0  0  0  0
 14 46  1  0  0  0  0
 14 47  1  0  0  0  0
 15 16  1  0  0  0  0
 15 34  1  0  0  0  0
 15 35  1  0  0  0  0
 16 17  1  0  0  0  0
 16 48  1  0  0  0  0
 16 49  1  0  0  0  0
 17 18  1  0  0  0  0
 17 27  1  0  0  0  0
 18 19  2  0  0  0  0
 18 20  2  0  0  0  0
 18 21  1  0  0  0  0
 21 22  1  0  0  0  0
 21 50  1  0  0  0  0
 21 51  1  0  0  0  0
 22 23  1  0  0  0  0
 22 25  1  0  0  0  0
 22 26  1  0  0  0  0
 23 24  3  0  0  0  0
 25 26  1  0  0  0  0
 25 52  1  0  0  0  0
 25 53  1  0  0  0  0
 26 54  1  0  0  0  0
 26 55  1  0  0  0  0
 27 28  1  0  0  0  0
 27 56  1  0  0  0  0
 27 57  1  0  0  0  0
 28 29  1  0  0  0  0
 28 34  2  0  0  0  0
 29 30  2  0  0  0  0
 29 58  1  0  0  0  0
 30 31  1  0  0  0  0
 30 59  1  0  0  0  0
 31 32  1  0  0  0  0
 31 33  2  0  0  0  0
 33 34  1  0  0  0  0
 33 60  1  0  0  0  0
 35 36  2  0  0  0  0
 37 38  1  0  0  0  0
 38 61  1  0  0  0  0
M  END
$$$$
