
 OpenBabel07202414143D

 53 57  0  0  1  0  0  0  0  0999 V2000
    8.0524    1.6349    2.1224 C   0  0  0  0  0  0  0  0  0  0  0  0
    6.8976    1.1803    1.3960 N   0  0  0  0  0  0  0  0  0  0  0  0
    5.7062    0.9645    2.0386 C   0  0  0  0  0  0  0  0  0  0  0  0
    5.5444    1.0303    3.2505 O   0  0  0  0  0  0  0  0  0  0  0  0
    4.5324    0.7049    1.1237 C   0  0  0  0  0  0  0  0  0  0  0  0
    4.4360   -0.6085    0.4884 N   0  0  0  0  0  0  0  0  0  0  0  0
    3.9257   -1.7415    1.2475 C   0  0  0  0  0  0  0  0  0  0  0  0
    2.7269   -2.4072    0.5663 C   0  0  3  0  0  0  0  0  0  0  0  0
    1.4086   -1.7746    1.0515 C   0  0  0  0  0  0  0  0  0  0  0  0
    0.8679   -2.1949    2.0749 O   0  0  0  0  0  0  0  0  0  0  0  0
    0.9632   -0.7025    0.3066 N   0  0  0  0  0  0  0  0  0  0  0  0
   -0.2081    0.0845    0.4910 C   0  0  0  0  0  0  0  0  0  0  0  0
   -1.1975   -0.2176    1.4230 C   0  0  0  0  0  0  0  0  0  0  0  0
   -2.3970    0.4100    1.4902 N   0  0  0  0  0  0  0  0  0  0  0  0
   -2.6015    1.4251    0.6244 C   0  0  0  0  0  0  0  0  0  0  0  0
   -1.6402    1.9166   -0.2557 C   0  0  0  0  0  0  0  0  0  0  0  0
   -1.8739    3.0697   -1.0312 C   0  0  0  0  0  0  0  0  0  0  0  0
   -0.8756    3.5945   -1.8492 C   0  0  0  0  0  0  0  0  0  0  0  0
    0.3503    2.9534   -1.9291 C   0  0  0  0  0  0  0  0  0  0  0  0
    0.5710    1.7827   -1.2000 C   0  0  0  0  0  0  0  0  0  0  0  0
   -0.4052    1.2343   -0.3305 C   0  0  0  0  0  0  0  0  0  0  0  0
    2.9006   -2.4586   -0.9448 C   0  0  0  0  0  0  0  0  0  0  0  0
    2.0092   -3.2210   -1.7204 C   0  0  0  0  0  0  0  0  0  0  0  0
    2.1167   -3.2337   -3.1129 C   0  0  0  0  0  0  0  0  0  0  0  0
    0.9851   -4.1307   -4.0466 Cl  0  0  0  0  0  0  0  0  0  0  0  0
    3.1190   -2.5076   -3.7512 C   0  0  0  0  0  0  0  0  0  0  0  0
    4.0230   -1.7603   -2.9949 C   0  0  0  0  0  0  0  0  0  0  0  0
    3.9162   -1.7282   -1.5976 C   0  0  0  0  0  0  0  0  0  0  0  0
    4.7853   -0.7631   -0.8463 C   0  0  0  0  0  0  0  0  0  0  0  0
    5.5930   -0.0548   -1.4266 O   0  0  0  0  0  0  0  0  0  0  0  0
    4.0090    1.8909    0.3065 C   0  0  0  0  0  0  0  0  0  0  0  0
    3.2505    1.4385    1.5057 C   0  0  0  0  0  0  0  0  0  0  0  0
    8.7334    2.1278    1.4254 H   0  0  0  0  0  0  0  0  0  0  0  0
    8.5433    0.7752    2.5843 H   0  0  0  0  0  0  0  0  0  0  0  0
    7.7545    2.3415    2.9026 H   0  0  0  0  0  0  0  0  0  0  0  0
    6.9467    0.9932    0.3972 H   0  0  0  0  0  0  0  0  0  0  0  0
    3.7159   -1.4500    2.2817 H   0  0  0  0  0  0  0  0  0  0  0  0
    4.7459   -2.4719    1.2739 H   0  0  0  0  0  0  0  0  0  0  0  0
    2.6866   -3.4494    0.9123 H   0  0  0  0  0  0  0  0  0  0  0  0
    1.5291   -0.4512   -0.4895 H   0  0  0  0  0  0  0  0  0  0  0  0
   -1.0819   -0.9978    2.1683 H   0  0  0  0  0  0  0  0  0  0  0  0
   -3.5959    1.8635    0.6750 H   0  0  0  0  0  0  0  0  0  0  0  0
   -2.8282    3.5895   -0.9723 H   0  0  0  0  0  0  0  0  0  0  0  0
   -1.0493    4.5089   -2.4104 H   0  0  0  0  0  0  0  0  0  0  0  0
    1.1453    3.3650   -2.5461 H   0  0  0  0  0  0  0  0  0  0  0  0
    1.5530    1.3355   -1.2957 H   0  0  0  0  0  0  0  0  0  0  0  0
    1.2109   -3.7883   -1.2429 H   0  0  0  0  0  0  0  0  0  0  0  0
    3.1901   -2.5025   -4.8366 H   0  0  0  0  0  0  0  0  0  0  0  0
    4.7849   -1.1708   -3.5038 H   0  0  0  0  0  0  0  0  0  0  0  0
    3.6213    1.6870   -0.6826 H   0  0  0  0  0  0  0  0  0  0  0  0
    4.5406    2.8312    0.3614 H   0  0  0  0  0  0  0  0  0  0  0  0
    2.3143    0.9261    1.3985 H   0  0  0  0  0  0  0  0  0  0  0  0
    3.2598    2.0862    2.3768 H   0  0  0  0  0  0  0  0  0  0  0  0
  1  2  1  0  0  0  0
  1 33  1  0  0  0  0
  1 34  1  0  0  0  0
  1 35  1  0  0  0  0
  2  3  1  0  0  0  0
  2 36  1  0  0  0  0
  3  4  2  0  0  0  0
  3  5  1  0  0  0  0
  5  6  1  0  0  0  0
  5 31  1  0  0  0  0
  5 32  1  0  0  0  0
  6  7  1  0  0  0  0
  6 29  1  0  0  0  0
  7  8  1  0  0  0  0
  7 37  1  0  0  0  0
  7 38  1  0  0  0  0
  8  9  1  0  0  0  0
  8 22  1  0  0  0  0
  8 39  1  0  0  0  0
  9 10  2  0  0  0  0
  9 11  1  0  0  0  0
 11 12  1  0  0  0  0
 11 40  1  0  0  0  0
 12 13  1  0  0  0  0
 12 21  2  0  0  0  0
 13 14  2  0  0  0  0
 13 41  1  0  0  0  0
 14 15  1  0  0  0  0
 15 16  2  0  0  0  0
 15 42  1  0  0  0  0
 16 17  1  0  0  0  0
 16 21  1  0  0  0  0
 17 18  2  0  0  0  0
 17 43  1  0  0  0  0
 18 19  1  0  0  0  0
 18 44  1  0  0  0  0
 19 20  2  0  0  0  0
 19 45  1  0  0  0  0
 20 21  1  0  0  0  0
 20 46  1  0  0  0  0
 22 23  1  0  0  0  0
 22 28  2  0  0  0  0
 23 24  2  0  0  0  0
 23 47  1  0  0  0  0
 24 25  1  0  0  0  0
 24 26  1  0  0  0  0
 26 27  2  0  0  0  0
 26 48  1  0  0  0  0
 27 28  1  0  0  0  0
 27 49  1  0  0  0  0
 28 29  1  0  0  0  0
 29 30  2  0  0  0  0
 31 32  1  0  0  0  0
 31 50  1  0  0  0  0
 31 51  1  0  0  0  0
 32 52  1  0  0  0  0
 32 53  1  0  0  0  0
M  END
$$$$
