
 OpenBabel07202414193D

 42 45  0  0  1  0  0  0  0  0999 V2000
    1.0286   -0.0994   -0.2540 O   0  0  0  0  0  0  0  0  0  0  0  0
    2.2448    0.0235   -0.1382 C   0  0  0  0  0  0  0  0  0  0  0  0
    2.8999    0.0354    1.2400 C   0  0  0  0  0  0  0  0  0  0  0  0
    1.9535    0.3404    2.3737 C   0  0  0  0  0  0  0  0  0  0  0  0
    1.3392   -0.7332    3.0194 C   0  0  0  0  0  0  0  0  0  0  0  0
    0.4969   -0.6155    4.0618 N   0  0  0  0  0  0  0  0  0  0  0  0
    0.2245    0.6428    4.4695 C   0  0  0  0  0  0  0  0  0  0  0  0
    0.7526    1.8016    3.8961 C   0  0  0  0  0  0  0  0  0  0  0  0
    0.4104    3.0767    4.3815 C   0  0  0  0  0  0  0  0  0  0  0  0
    0.9433    4.2218    3.7931 C   0  0  0  0  0  0  0  0  0  0  0  0
    1.8148    4.1024    2.7192 C   0  0  0  0  0  0  0  0  0  0  0  0
    2.1585    2.8383    2.2309 C   0  0  0  0  0  0  0  0  0  0  0  0
    1.6405    1.6543    2.8097 C   0  0  0  0  0  0  0  0  0  0  0  0
    3.1160    0.1937   -1.2117 N   0  0  0  0  0  0  0  0  0  0  0  0
    4.5385   -0.1725   -1.1263 C   0  0  0  0  0  0  0  0  0  0  0  0
    5.3901    0.9627   -1.6802 C   0  0  0  0  0  0  0  0  0  0  0  0
    5.0619    1.1838   -3.0574 O   0  0  0  0  0  0  0  0  0  0  0  0
    3.6746    1.5455   -3.2010 C   0  0  0  0  0  0  0  0  0  0  0  0
    2.7012    0.4768   -2.6150 C   0  0  2  0  0  0  0  0  0  0  0  0
    1.2852    0.9606   -2.7987 C   0  0  0  0  0  0  0  0  0  0  0  0
    0.6585    2.0722   -2.2679 C   0  0  0  0  0  0  0  0  0  0  0  0
   -0.7055    2.1786   -2.6676 C   0  0  0  0  0  0  0  0  0  0  0  0
   -1.0709    1.1632   -3.5212 C   0  0  0  0  0  0  0  0  0  0  0  0
    0.2226    0.0942   -3.8393 S   0  0  0  0  0  0  0  0  0  0  0  0
    3.7162    0.7655    1.2634 H   0  0  0  0  0  0  0  0  0  0  0  0
    3.3531   -0.9505    1.4044 H   0  0  0  0  0  0  0  0  0  0  0  0
    1.5203   -1.7581    2.7028 H   0  0  0  0  0  0  0  0  0  0  0  0
   -0.4644    0.6944    5.3060 H   0  0  0  0  0  0  0  0  0  0  0  0
   -0.2758    3.1801    5.2158 H   0  0  0  0  0  0  0  0  0  0  0  0
    0.6714    5.2019    4.1741 H   0  0  0  0  0  0  0  0  0  0  0  0
    2.2281    4.9956    2.2566 H   0  0  0  0  0  0  0  0  0  0  0  0
    2.8357    2.7954    1.3823 H   0  0  0  0  0  0  0  0  0  0  0  0
    4.6691   -1.0751   -1.7370 H   0  0  0  0  0  0  0  0  0  0  0  0
    4.8559   -0.4300   -0.1158 H   0  0  0  0  0  0  0  0  0  0  0  0
    6.4516    0.7058   -1.6205 H   0  0  0  0  0  0  0  0  0  0  0  0
    5.2295    1.8870   -1.1116 H   0  0  0  0  0  0  0  0  0  0  0  0
    3.4846    1.6916   -4.2697 H   0  0  0  0  0  0  0  0  0  0  0  0
    3.5300    2.5170   -2.7100 H   0  0  0  0  0  0  0  0  0  0  0  0
    2.8588   -0.4653   -3.1590 H   0  0  0  0  0  0  0  0  0  0  0  0
    1.1437    2.7567   -1.5813 H   0  0  0  0  0  0  0  0  0  0  0  0
   -1.3858    2.9486   -2.3300 H   0  0  0  0  0  0  0  0  0  0  0  0
   -2.0407    0.9914   -3.9692 H   0  0  0  0  0  0  0  0  0  0  0  0
  1  2  2  0  0  0  0
  2  3  1  0  0  0  0
  2 14  1  0  0  0  0
  3  4  1  0  0  0  0
  3 25  1  0  0  0  0
  3 26  1  0  0  0  0
  4  5  1  0  0  0  0
  4 13  2  0  0  0  0
  5  6  2  0  0  0  0
  5 27  1  0  0  0  0
  6  7  1  0  0  0  0
  7  8  2  0  0  0  0
  7 28  1  0  0  0  0
  8  9  1  0  0  0  0
  8 13  1  0  0  0  0
  9 10  2  0  0  0  0
  9 29  1  0  0  0  0
 10 11  1  0  0  0  0
 10 30  1  0  0  0  0
 11 12  2  0  0  0  0
 11 31  1  0  0  0  0
 12 13  1  0  0  0  0
 12 32  1  0  0  0  0
 14 15  1  0  0  0  0
 14 19  1  0  0  0  0
 15 16  1  0  0  0  0
 15 33  1  0  0  0  0
 15 34  1  0  0  0  0
 16 17  1  0  0  0  0
 16 35  1  0  0  0  0
 16 36  1  0  0  0  0
 17 18  1  0  0  0  0
 18 19  1  0  0  0  0
 18 37  1  0  0  0  0
 18 38  1  0  0  0  0
 19 20  1  0  0  0  0
 19 39  1  6  0  0  0
 20 21  2  0  0  0  0
 20 24  1  0  0  0  0
 21 22  1  0  0  0  0
 21 40  1  0  0  0  0
 22 23  2  0  0  0  0
 22 41  1  0  0  0  0
 23 24  1  0  0  0  0
 23 42  1  0  0  0  0
M  END
$$$$
