
 OpenBabel07202414173D

 51 55  0  0  1  0  0  0  0  0999 V2000
    0.9640    0.0852   -0.0494 Cl  0  0  0  0  0  0  0  0  0  0  0  0
    2.6790    0.0510    0.0789 C   0  0  0  0  0  0  0  0  0  0  0  0
    3.4006    1.2306   -0.0856 C   0  0  0  0  0  0  0  0  0  0  0  0
    4.7911    1.1969   -0.0291 C   0  0  0  0  0  0  0  0  0  0  0  0
    5.4709   -0.0126    0.1941 C   0  0  0  0  0  0  0  0  0  0  0  0
    4.7403   -1.1981    0.3910 C   0  0  0  0  0  0  0  0  0  0  0  0
    3.3370   -1.1544    0.3280 C   0  0  0  0  0  0  0  0  0  0  0  0
    5.4615   -2.5078    0.6661 C   0  0  3  0  0  0  0  0  0  0  0  0
    5.4055   -2.9217    2.1410 C   0  0  0  0  0  0  0  0  0  0  0  0
    4.8949   -3.9966    2.4638 O   0  0  0  0  0  0  0  0  0  0  0  0
    5.9887   -2.0179    3.0047 N   0  0  0  0  0  0  0  0  0  0  0  0
    5.9655   -2.0167    4.4233 C   0  0  0  0  0  0  0  0  0  0  0  0
    5.3124   -2.9918    5.1749 C   0  0  0  0  0  0  0  0  0  0  0  0
    5.1198   -2.9283    6.5130 N   0  0  0  0  0  0  0  0  0  0  0  0
    5.6487   -1.8645    7.1512 C   0  0  0  0  0  0  0  0  0  0  0  0
    6.4360   -0.8931    6.5370 C   0  0  0  0  0  0  0  0  0  0  0  0
    7.0688    0.1087    7.2972 C   0  0  0  0  0  0  0  0  0  0  0  0
    7.8847    1.0551    6.6857 C   0  0  0  0  0  0  0  0  0  0  0  0
    8.0401    1.0381    5.3066 C   0  0  0  0  0  0  0  0  0  0  0  0
    7.3968    0.0604    4.5405 C   0  0  0  0  0  0  0  0  0  0  0  0
    6.5953   -0.9505    5.1329 C   0  0  0  0  0  0  0  0  0  0  0  0
    6.9136   -2.4845    0.1608 C   0  0  0  0  0  0  0  0  0  0  0  0
    7.6441   -1.2496    0.6216 N   0  0  0  0  0  0  0  0  0  0  0  0
    9.3297   -1.2202    0.1596 S   0  0  0  0  0  0  0  0  0  0  0  0
    9.3942   -1.8404   -1.1483 O   0  0  0  0  0  0  0  0  0  0  0  0
    9.7353    0.1644    0.3104 O   0  0  0  0  0  0  0  0  0  0  0  0
   10.2368   -2.2008    1.3196 C   0  0  0  0  0  0  0  0  0  0  0  0
   10.2610   -1.6750    2.7489 C   0  0  0  0  0  0  0  0  0  0  0  0
   11.7105   -1.7211    2.7768 O   0  0  0  0  0  0  0  0  0  0  0  0
   11.7338   -1.8858    1.3354 C   0  0  0  0  0  0  0  0  0  0  0  0
    6.9780   -0.0046    0.1214 C   0  0  0  0  0  0  0  0  0  0  0  0
    2.8898    2.1716   -0.2740 H   0  0  0  0  0  0  0  0  0  0  0  0
    5.3486    2.1205   -0.1814 H   0  0  0  0  0  0  0  0  0  0  0  0
    2.7522   -2.0641    0.4545 H   0  0  0  0  0  0  0  0  0  0  0  0
    4.9402   -3.2965    0.1039 H   0  0  0  0  0  0  0  0  0  0  0  0
    6.3818   -1.2005    2.5600 H   0  0  0  0  0  0  0  0  0  0  0  0
    4.8915   -3.8881    4.7299 H   0  0  0  0  0  0  0  0  0  0  0  0
    5.4243   -1.8225    8.2129 H   0  0  0  0  0  0  0  0  0  0  0  0
    6.9576    0.1326    8.3801 H   0  0  0  0  0  0  0  0  0  0  0  0
    8.4050    1.7981    7.2844 H   0  0  0  0  0  0  0  0  0  0  0  0
    8.6749    1.7759    4.8217 H   0  0  0  0  0  0  0  0  0  0  0  0
    7.5699    0.0921    3.4713 H   0  0  0  0  0  0  0  0  0  0  0  0
    6.8991   -2.4982   -0.9374 H   0  0  0  0  0  0  0  0  0  0  0  0
    7.4475   -3.3756    0.5099 H   0  0  0  0  0  0  0  0  0  0  0  0
   10.0131   -3.2693    1.2428 H   0  0  0  0  0  0  0  0  0  0  0  0
    9.8261   -2.3428    3.4973 H   0  0  0  0  0  0  0  0  0  0  0  0
    9.9018   -0.6555    2.9137 H   0  0  0  0  0  0  0  0  0  0  0  0
   12.3918   -2.7048    1.0332 H   0  0  0  0  0  0  0  0  0  0  0  0
   12.0627   -0.9622    0.8458 H   0  0  0  0  0  0  0  0  0  0  0  0
    7.2591    0.1765   -0.9230 H   0  0  0  0  0  0  0  0  0  0  0  0
    7.3311    0.8254    0.7464 H   0  0  0  0  0  0  0  0  0  0  0  0
  1  2  1  0  0  0  0
  2  3  1  0  0  0  0
  2  7  2  0  0  0  0
  3  4  2  0  0  0  0
  3 32  1  0  0  0  0
  4  5  1  0  0  0  0
  4 33  1  0  0  0  0
  5  6  2  0  0  0  0
  5 31  1  0  0  0  0
  6  7  1  0  0  0  0
  6  8  1  0  0  0  0
  7 34  1  0  0  0  0
  8  9  1  0  0  0  0
  8 22  1  0  0  0  0
  8 35  1  0  0  0  0
  9 10  2  0  0  0  0
  9 11  1  0  0  0  0
 11 12  1  0  0  0  0
 11 36  1  0  0  0  0
 12 13  1  0  0  0  0
 12 21  2  0  0  0  0
 13 14  2  0  0  0  0
 13 37  1  0  0  0  0
 14 15  1  0  0  0  0
 15 16  2  0  0  0  0
 15 38  1  0  0  0  0
 16 17  1  0  0  0  0
 16 21  1  0  0  0  0
 17 18  2  0  0  0  0
 17 39  1  0  0  0  0
 18 19  1  0  0  0  0
 18 40  1  0  0  0  0
 19 20  2  0  0  0  0
 19 41  1  0  0  0  0
 20 21  1  0  0  0  0
 20 42  1  0  0  0  0
 22 23  1  0  0  0  0
 22 43  1  0  0  0  0
 22 44  1  0  0  0  0
 23 24  1  0  0  0  0
 23 31  1  0  0  0  0
 24 25  2  0  0  0  0
 24 26  2  0  0  0  0
 24 27  1  0  0  0  0
 27 28  1  0  0  0  0
 27 30  1  0  0  0  0
 27 45  1  0  0  0  0
 28 29  1  0  0  0  0
 28 46  1  0  0  0  0
 28 47  1  0  0  0  0
 29 30  1  0  0  0  0
 30 48  1  0  0  0  0
 30 49  1  0  0  0  0
 31 50  1  0  0  0  0
 31 51  1  0  0  0  0
M  END
$$$$
