
 OpenBabel07202414143D

 52 55  0  0  1  0  0  0  0  0999 V2000
    6.1433    1.9432   -3.0266 C   0  0  0  0  0  0  0  0  0  0  0  0
    5.5644    0.6982   -2.5941 N   0  0  0  0  0  0  0  0  0  0  0  0
    5.6067    0.3383   -1.2658 C   0  0  0  0  0  0  0  0  0  0  0  0
    6.2441    0.9834   -0.4289 O   0  0  0  0  0  0  0  0  0  0  0  0
    4.6701   -0.8238   -0.8809 C   0  0  2  0  0  0  0  0  0  0  0  0
    4.6206   -1.0195    0.6377 C   0  0  0  0  0  0  0  0  0  0  0  0
    4.8924   -2.0773   -1.6345 N   0  0  0  0  0  0  0  0  0  0  0  0
    5.8977   -3.0558   -1.2177 C   0  0  0  0  0  0  0  0  0  0  0  0
    5.2984   -4.4601   -1.1837 C   0  0  1  0  0  0  0  0  0  0  0  0
    4.4412   -4.6789    0.0722 C   0  0  0  0  0  0  0  0  0  0  0  0
    4.8466   -5.4297    0.9553 O   0  0  0  0  0  0  0  0  0  0  0  0
    3.2420   -3.9883    0.1010 N   0  0  0  0  0  0  0  0  0  0  0  0
    2.2162   -4.1152    1.0789 C   0  0  0  0  0  0  0  0  0  0  0  0
    2.4288   -4.7262    2.3157 C   0  0  0  0  0  0  0  0  0  0  0  0
    1.4495   -5.0525    3.1902 N   0  0  0  0  0  0  0  0  0  0  0  0
    0.1910   -4.7418    2.8233 C   0  0  0  0  0  0  0  0  0  0  0  0
   -0.1437   -4.0283    1.6737 C   0  0  0  0  0  0  0  0  0  0  0  0
   -1.4806   -3.6865    1.4019 C   0  0  0  0  0  0  0  0  0  0  0  0
   -1.8126   -2.9678    0.2573 C   0  0  0  0  0  0  0  0  0  0  0  0
   -0.8113   -2.5751   -0.6203 C   0  0  0  0  0  0  0  0  0  0  0  0
    0.5212   -2.9146   -0.3629 C   0  0  0  0  0  0  0  0  0  0  0  0
    0.8951   -3.6692    0.7809 C   0  0  0  0  0  0  0  0  0  0  0  0
    4.5760   -4.7388   -2.4899 C   0  0  0  0  0  0  0  0  0  0  0  0
    4.3171   -6.0630   -2.8847 C   0  0  0  0  0  0  0  0  0  0  0  0
    3.6784   -6.3148   -4.1002 C   0  0  0  0  0  0  0  0  0  0  0  0
    3.3605   -7.9383   -4.5709 Cl  0  0  0  0  0  0  0  0  0  0  0  0
    3.2964   -5.2690   -4.9376 C   0  0  0  0  0  0  0  0  0  0  0  0
    3.5424   -3.9463   -4.5518 C   0  0  0  0  0  0  0  0  0  0  0  0
    4.1717   -3.6783   -3.3305 C   0  0  0  0  0  0  0  0  0  0  0  0
    4.2887   -2.2590   -2.8757 C   0  0  0  0  0  0  0  0  0  0  0  0
    3.7870   -1.3441   -3.5148 O   0  0  0  0  0  0  0  0  0  0  0  0
    5.9986    2.0513   -4.1031 H   0  0  0  0  0  0  0  0  0  0  0  0
    7.2080    1.9503   -2.7832 H   0  0  0  0  0  0  0  0  0  0  0  0
    5.6509    2.7702   -2.5014 H   0  0  0  0  0  0  0  0  0  0  0  0
    4.8872    0.2241   -3.1960 H   0  0  0  0  0  0  0  0  0  0  0  0
    3.6687   -0.4761   -1.1669 H   0  0  0  0  0  0  0  0  0  0  0  0
    5.5161   -1.4998    1.0387 H   0  0  0  0  0  0  0  0  0  0  0  0
    3.7586   -1.6266    0.9190 H   0  0  0  0  0  0  0  0  0  0  0  0
    4.5142   -0.0631    1.1571 H   0  0  0  0  0  0  0  0  0  0  0  0
    6.3604   -2.7906   -0.2665 H   0  0  0  0  0  0  0  0  0  0  0  0
    6.6962   -3.0262   -1.9726 H   0  0  0  0  0  0  0  0  0  0  0  0
    6.1343   -5.1693   -1.1085 H   0  0  0  0  0  0  0  0  0  0  0  0
    3.0044   -3.4719   -0.7324 H   0  0  0  0  0  0  0  0  0  0  0  0
    3.4218   -4.9798    2.6735 H   0  0  0  0  0  0  0  0  0  0  0  0
   -0.5737   -5.0978    3.5097 H   0  0  0  0  0  0  0  0  0  0  0  0
   -2.2746   -3.9773    2.0877 H   0  0  0  0  0  0  0  0  0  0  0  0
   -2.8492   -2.7104    0.0560 H   0  0  0  0  0  0  0  0  0  0  0  0
   -1.0641   -2.0048   -1.5114 H   0  0  0  0  0  0  0  0  0  0  0  0
    1.2607   -2.5582   -1.0737 H   0  0  0  0  0  0  0  0  0  0  0  0
    4.6089   -6.9022   -2.2508 H   0  0  0  0  0  0  0  0  0  0  0  0
    2.7959   -5.4685   -5.8790 H   0  0  0  0  0  0  0  0  0  0  0  0
    3.2239   -3.1311   -5.2000 H   0  0  0  0  0  0  0  0  0  0  0  0
  1  2  1  0  0  0  0
  1 32  1  0  0  0  0
  1 33  1  0  0  0  0
  1 34  1  0  0  0  0
  2  3  1  0  0  0  0
  2 35  1  0  0  0  0
  3  4  2  0  0  0  0
  5  7  1  0  0  0  0
  5  6  1  0  0  0  0
  5  3  1  0  0  0  0
  5 36  1  6  0  0  0
  6 37  1  0  0  0  0
  6 38  1  0  0  0  0
  6 39  1  0  0  0  0
  7  8  1  0  0  0  0
  7 30  1  0  0  0  0
  8  9  1  0  0  0  0
  8 40  1  0  0  0  0
  8 41  1  0  0  0  0
  9 10  1  0  0  0  0
  9 23  1  0  0  0  0
  9 42  1  1  0  0  0
 10 11  2  0  0  0  0
 10 12  1  0  0  0  0
 12 13  1  0  0  0  0
 12 43  1  0  0  0  0
 13 14  1  0  0  0  0
 13 22  2  0  0  0  0
 14 15  2  0  0  0  0
 14 44  1  0  0  0  0
 15 16  1  0  0  0  0
 16 17  2  0  0  0  0
 16 45  1  0  0  0  0
 17 18  1  0  0  0  0
 17 22  1  0  0  0  0
 18 19  2  0  0  0  0
 18 46  1  0  0  0  0
 19 20  1  0  0  0  0
 19 47  1  0  0  0  0
 20 21  2  0  0  0  0
 20 48  1  0  0  0  0
 21 22  1  0  0  0  0
 21 49  1  0  0  0  0
 23 24  1  0  0  0  0
 23 29  2  0  0  0  0
 24 25  2  0  0  0  0
 24 50  1  0  0  0  0
 25 26  1  0  0  0  0
 25 27  1  0  0  0  0
 27 28  2  0  0  0  0
 27 51  1  0  0  0  0
 28 29  1  0  0  0  0
 28 52  1  0  0  0  0
 29 30  1  0  0  0  0
 30 31  2  0  0  0  0
M  END
$$$$
