
 OpenBabel07202414153D

 58 59  0  0  1  0  0  0  0  0999 V2000
   11.6948   -1.5076    1.4804 C   0  0  0  0  0  0  0  0  0  0  0  0
   10.3425   -1.6905    1.8878 O   0  0  0  0  0  0  0  0  0  0  0  0
    9.4287   -1.1470    0.9283 C   0  0  0  0  0  0  0  0  0  0  0  0
    7.9890   -1.4394    1.3690 C   0  0  0  0  0  0  0  0  0  0  0  0
    7.6315   -0.7998    2.6318 N   0  0  0  0  0  0  0  0  0  0  0  0
    7.0731    0.4570    2.6622 C   0  0  0  0  0  0  0  0  0  0  0  0
    6.8531    1.0701    1.6130 O   0  0  0  0  0  0  0  0  0  0  0  0
    6.9138    1.1568    4.0416 C   0  0  3  0  0  0  0  0  0  0  0  0
    6.4773    0.2827    5.1808 N   0  0  0  0  0  0  0  0  0  0  0  0
    7.2530   -0.3605    6.1477 C   0  0  0  0  0  0  0  0  0  0  0  0
    6.7785   -1.0816    7.0362 O   0  0  0  0  0  0  0  0  0  0  0  0
    8.7285   -0.1858    6.1351 C   0  0  0  0  0  0  0  0  0  0  0  0
    9.3902   -0.2054    7.3028 C   0  0  0  0  0  0  0  0  0  0  0  0
    5.0432    0.1720    5.3490 C   0  0  0  0  0  0  0  0  0  0  0  0
    4.4616    0.5141    6.5736 C   0  0  0  0  0  0  0  0  0  0  0  0
    3.0899    0.3458    6.8009 C   0  0  0  0  0  0  0  0  0  0  0  0
    2.2401   -0.1853    5.8192 C   0  0  0  0  0  0  0  0  0  0  0  0
    0.7353   -0.4147    6.0770 C   0  0  0  0  0  0  0  0  0  0  0  0
    0.2837    0.0384    7.4872 C   0  0  0  0  0  0  0  0  0  0  0  0
   -0.1020    0.3766    5.0503 C   0  0  0  0  0  0  0  0  0  0  0  0
    0.3698   -1.9109    5.9551 C   0  0  0  0  0  0  0  0  0  0  0  0
    2.8311   -0.4978    4.5782 C   0  0  0  0  0  0  0  0  0  0  0  0
    4.2074   -0.3048    4.3364 C   0  0  0  0  0  0  0  0  0  0  0  0
    8.0498    2.1408    4.3317 C   0  0  0  0  0  0  0  0  0  0  0  0
    9.1599    2.3010    3.4861 C   0  0  0  0  0  0  0  0  0  0  0  0
   10.1285    3.2639    3.7572 C   0  0  0  0  0  0  0  0  0  0  0  0
    9.9637    4.0503    4.8837 C   0  0  0  0  0  0  0  0  0  0  0  0
    8.9244    3.9277    5.7305 N   0  0  0  0  0  0  0  0  0  0  0  0
    7.9914    2.9896    5.4349 C   0  0  0  0  0  0  0  0  0  0  0  0
   12.3464   -1.9702    2.2269 H   0  0  0  0  0  0  0  0  0  0  0  0
   11.9342   -0.4415    1.4199 H   0  0  0  0  0  0  0  0  0  0  0  0
   11.8781   -1.9892    0.5143 H   0  0  0  0  0  0  0  0  0  0  0  0
    9.6072   -1.6211   -0.0444 H   0  0  0  0  0  0  0  0  0  0  0  0
    9.6003   -0.0696    0.8322 H   0  0  0  0  0  0  0  0  0  0  0  0
    7.8492   -2.5148    1.5153 H   0  0  0  0  0  0  0  0  0  0  0  0
    7.3012   -1.1027    0.5855 H   0  0  0  0  0  0  0  0  0  0  0  0
    7.9421   -1.2444    3.4860 H   0  0  0  0  0  0  0  0  0  0  0  0
    6.0569    1.8288    3.8653 H   0  0  0  0  0  0  0  0  0  0  0  0
    9.2538   -0.0780    5.2014 H   0  0  0  0  0  0  0  0  0  0  0  0
    8.8720   -0.3298    8.2522 H   0  0  0  0  0  0  0  0  0  0  0  0
   10.4685   -0.0957    7.3405 H   0  0  0  0  0  0  0  0  0  0  0  0
    5.0722    0.9142    7.3802 H   0  0  0  0  0  0  0  0  0  0  0  0
    2.7205    0.6299    7.7819 H   0  0  0  0  0  0  0  0  0  0  0  0
    0.4679    1.1076    7.6445 H   0  0  0  0  0  0  0  0  0  0  0  0
    0.8090   -0.5174    8.2739 H   0  0  0  0  0  0  0  0  0  0  0  0
   -0.7886   -0.1306    7.6396 H   0  0  0  0  0  0  0  0  0  0  0  0
    0.1106    1.4499    5.1089 H   0  0  0  0  0  0  0  0  0  0  0  0
   -1.1756    0.2393    5.2280 H   0  0  0  0  0  0  0  0  0  0  0  0
    0.0947    0.0538    4.0222 H   0  0  0  0  0  0  0  0  0  0  0  0
    0.8987   -2.5147    6.7015 H   0  0  0  0  0  0  0  0  0  0  0  0
    0.6058   -2.3188    4.9668 H   0  0  0  0  0  0  0  0  0  0  0  0
   -0.7060   -2.0625    6.1159 H   0  0  0  0  0  0  0  0  0  0  0  0
    2.2270   -0.9198    3.7768 H   0  0  0  0  0  0  0  0  0  0  0  0
    4.6061   -0.6065    3.3726 H   0  0  0  0  0  0  0  0  0  0  0  0
    9.2885    1.6998    2.5883 H   0  0  0  0  0  0  0  0  0  0  0  0
   10.9768    3.4058    3.0974 H   0  0  0  0  0  0  0  0  0  0  0  0
   10.6840    4.8259    5.1291 H   0  0  0  0  0  0  0  0  0  0  0  0
    7.1688    2.9423    6.1447 H   0  0  0  0  0  0  0  0  0  0  0  0
  1  2  1  0  0  0  0
  1 30  1  0  0  0  0
  1 31  1  0  0  0  0
  1 32  1  0  0  0  0
  2  3  1  0  0  0  0
  3  4  1  0  0  0  0
  3 33  1  0  0  0  0
  3 34  1  0  0  0  0
  4  5  1  0  0  0  0
  4 35  1  0  0  0  0
  4 36  1  0  0  0  0
  5  6  1  0  0  0  0
  5 37  1  0  0  0  0
  6  7  2  0  0  0  0
  6  8  1  0  0  0  0
  8  9  1  0  0  0  0
  8 24  1  0  0  0  0
  8 38  1  0  0  0  0
  9 10  1  0  0  0  0
  9 14  1  0  0  0  0
 10 11  2  0  0  0  0
 10 12  1  0  0  0  0
 12 13  2  0  0  0  0
 12 39  1  0  0  0  0
 13 40  1  0  0  0  0
 13 41  1  0  0  0  0
 14 15  1  0  0  0  0
 14 23  2  0  0  0  0
 15 16  2  0  0  0  0
 15 42  1  0  0  0  0
 16 17  1  0  0  0  0
 16 43  1  0  0  0  0
 17 18  1  0  0  0  0
 17 22  2  0  0  0  0
 18 19  1  0  0  0  0
 18 20  1  0  0  0  0
 18 21  1  0  0  0  0
 19 44  1  0  0  0  0
 19 45  1  0  0  0  0
 19 46  1  0  0  0  0
 20 47  1  0  0  0  0
 20 48  1  0  0  0  0
 20 49  1  0  0  0  0
 21 50  1  0  0  0  0
 21 51  1  0  0  0  0
 21 52  1  0  0  0  0
 22 23  1  0  0  0  0
 22 53  1  0  0  0  0
 23 54  1  0  0  0  0
 24 25  1  0  0  0  0
 24 29  2  0  0  0  0
 25 26  2  0  0  0  0
 25 55  1  0  0  0  0
 26 27  1  0  0  0  0
 26 56  1  0  0  0  0
 27 28  2  0  0  0  0
 27 57  1  0  0  0  0
 28 29  1  0  0  0  0
 29 58  1  0  0  0  0
M  END
$$$$
