
 OpenBabel07202414133D

 53 56  0  0  1  0  0  0  0  0999 V2000
    4.2634   -1.0770   -3.7104 C   0  0  0  0  0  0  0  0  0  0  0  0
    4.1423   -0.0114   -2.7319 N   0  0  0  0  0  0  0  0  0  0  0  0
    3.0266    0.9101   -2.8774 C   0  0  0  0  0  0  0  0  0  0  0  0
    4.8615   -0.1500   -1.5432 C   0  0  0  0  0  0  0  0  0  0  0  0
    5.5787   -1.1390   -1.3268 O   0  0  0  0  0  0  0  0  0  0  0  0
    4.7807    0.9832   -0.4970 C   0  0  0  0  0  0  0  0  0  0  0  0
    5.3002    2.2203   -1.0745 N   0  0  0  0  0  0  0  0  0  0  0  0
    6.7270    2.1771   -1.4063 C   0  0  0  0  0  0  0  0  0  0  0  0
    7.0190    3.2127   -2.4969 C   0  0  0  0  0  0  0  0  0  0  0  0
    6.3394    4.5416   -2.2660 C   0  0  0  0  0  0  0  0  0  0  0  0
    6.6988    5.6375   -3.0627 C   0  0  0  0  0  0  0  0  0  0  0  0
    6.0369    6.8549   -2.9210 C   0  0  0  0  0  0  0  0  0  0  0  0
    5.0104    6.9777   -1.9878 C   0  0  0  0  0  0  0  0  0  0  0  0
    4.1799    8.4769   -1.8296 Cl  0  0  0  0  0  0  0  0  0  0  0  0
    4.6427    5.8977   -1.1845 C   0  0  0  0  0  0  0  0  0  0  0  0
    5.3006    4.6661   -1.3165 C   0  0  0  0  0  0  0  0  0  0  0  0
    4.9245    3.4888   -0.4127 C   0  0  3  0  0  0  0  0  0  0  0  0
    5.5597    3.6497    1.0066 C   0  0  0  0  0  0  0  0  0  0  0  0
    6.6546    4.1867    1.1663 O   0  0  0  0  0  0  0  0  0  0  0  0
    4.7739    3.1391    2.0397 N   0  0  0  0  0  0  0  0  0  0  0  0
    5.1330    3.0763    3.4211 C   0  0  0  0  0  0  0  0  0  0  0  0
    6.3192    3.6187    3.9199 C   0  0  0  0  0  0  0  0  0  0  0  0
    6.8040    3.4072    5.1647 N   0  0  0  0  0  0  0  0  0  0  0  0
    6.0455    2.6609    5.9875 C   0  0  0  0  0  0  0  0  0  0  0  0
    4.7735    2.1946    5.6699 C   0  0  0  0  0  0  0  0  0  0  0  0
    3.9895    1.5500    6.6458 C   0  0  0  0  0  0  0  0  0  0  0  0
    2.7017    1.1228    6.3499 C   0  0  0  0  0  0  0  0  0  0  0  0
    2.1969    1.3060    5.0696 C   0  0  0  0  0  0  0  0  0  0  0  0
    2.9762    1.9275    4.0853 C   0  0  0  0  0  0  0  0  0  0  0  0
    4.2873    2.3988    4.3545 C   0  0  0  0  0  0  0  0  0  0  0  0
    3.7752   -0.8014   -4.6491 H   0  0  0  0  0  0  0  0  0  0  0  0
    3.8148   -1.9911   -3.3110 H   0  0  0  0  0  0  0  0  0  0  0  0
    5.3242   -1.2590   -3.9134 H   0  0  0  0  0  0  0  0  0  0  0  0
    2.6858    0.9395   -3.9162 H   0  0  0  0  0  0  0  0  0  0  0  0
    3.3175    1.9229   -2.5961 H   0  0  0  0  0  0  0  0  0  0  0  0
    2.2101    0.5806   -2.2306 H   0  0  0  0  0  0  0  0  0  0  0  0
    5.3447    0.6861    0.3952 H   0  0  0  0  0  0  0  0  0  0  0  0
    3.7295    1.0827   -0.2047 H   0  0  0  0  0  0  0  0  0  0  0  0
    7.0295    1.2007   -1.8015 H   0  0  0  0  0  0  0  0  0  0  0  0
    7.3523    2.3493   -0.5229 H   0  0  0  0  0  0  0  0  0  0  0  0
    6.6572    2.8218   -3.4579 H   0  0  0  0  0  0  0  0  0  0  0  0
    8.1028    3.3511   -2.5799 H   0  0  0  0  0  0  0  0  0  0  0  0
    7.4935    5.5412   -3.7993 H   0  0  0  0  0  0  0  0  0  0  0  0
    6.3247    7.6986   -3.5421 H   0  0  0  0  0  0  0  0  0  0  0  0
    3.8458    6.0201   -0.4560 H   0  0  0  0  0  0  0  0  0  0  0  0
    3.8315    3.5065   -0.3091 H   0  0  0  0  0  0  0  0  0  0  0  0
    3.9440    2.6377    1.7706 H   0  0  0  0  0  0  0  0  0  0  0  0
    6.9602    4.2660    3.3308 H   0  0  0  0  0  0  0  0  0  0  0  0
    6.5009    2.4551    6.9506 H   0  0  0  0  0  0  0  0  0  0  0  0
    4.3716    1.4108    7.6553 H   0  0  0  0  0  0  0  0  0  0  0  0
    2.0901    0.6600    7.1205 H   0  0  0  0  0  0  0  0  0  0  0  0
    1.1836    0.9808    4.8367 H   0  0  0  0  0  0  0  0  0  0  0  0
    2.5140    2.0726    3.1138 H   0  0  0  0  0  0  0  0  0  0  0  0
  1  2  1  0  0  0  0
  1 31  1  0  0  0  0
  1 32  1  0  0  0  0
  1 33  1  0  0  0  0
  2  3  1  0  0  0  0
  2  4  1  0  0  0  0
  3 34  1  0  0  0  0
  3 35  1  0  0  0  0
  3 36  1  0  0  0  0
  4  5  2  0  0  0  0
  4  6  1  0  0  0  0
  6  7  1  0  0  0  0
  6 37  1  0  0  0  0
  6 38  1  0  0  0  0
  7  8  1  0  0  0  0
  7 17  1  0  0  0  0
  8  9  1  0  0  0  0
  8 39  1  0  0  0  0
  8 40  1  0  0  0  0
  9 10  1  0  0  0  0
  9 41  1  0  0  0  0
  9 42  1  0  0  0  0
 10 11  1  0  0  0  0
 10 16  2  0  0  0  0
 11 12  2  0  0  0  0
 11 43  1  0  0  0  0
 12 13  1  0  0  0  0
 12 44  1  0  0  0  0
 13 14  1  0  0  0  0
 13 15  2  0  0  0  0
 15 16  1  0  0  0  0
 15 45  1  0  0  0  0
 16 17  1  0  0  0  0
 17 18  1  0  0  0  0
 17 46  1  0  0  0  0
 18 19  2  0  0  0  0
 18 20  1  0  0  0  0
 20 21  1  0  0  0  0
 20 47  1  0  0  0  0
 21 22  1  0  0  0  0
 21 30  2  0  0  0  0
 22 23  2  0  0  0  0
 22 48  1  0  0  0  0
 23 24  1  0  0  0  0
 24 25  2  0  0  0  0
 24 49  1  0  0  0  0
 25 26  1  0  0  0  0
 25 30  1  0  0  0  0
 26 27  2  0  0  0  0
 26 50  1  0  0  0  0
 27 28  1  0  0  0  0
 27 51  1  0  0  0  0
 28 29  2  0  0  0  0
 28 52  1  0  0  0  0
 29 30  1  0  0  0  0
 29 53  1  0  0  0  0
M  END
$$$$
