
 OpenBabel07202414163D

 46 49  0  0  0  0  0  0  0  0999 V2000
   -2.1330   -0.2077    0.1205 Cl  0  0  0  0  0  0  0  0  0  0  0  0
   -0.4179   -0.0991    0.0222 C   0  0  0  0  0  0  0  0  0  0  0  0
    0.1945    1.1556   -0.0365 C   0  0  0  0  0  0  0  0  0  0  0  0
    1.5897    1.2544   -0.1176 C   0  0  0  0  0  0  0  0  0  0  0  0
    2.3264    2.5765   -0.1207 C   0  0  0  0  0  0  0  0  0  0  0  0
    1.5574    3.7838   -0.6252 C   0  0  0  0  0  0  0  0  0  0  0  0
    1.0775    4.6064    0.1521 O   0  0  0  0  0  0  0  0  0  0  0  0
    1.4422    3.8418   -2.0027 N   0  0  0  0  0  0  0  0  0  0  0  0
    0.8056    4.9165   -2.6730 C   0  0  0  0  0  0  0  0  0  0  0  0
    1.0324    6.2432   -2.2844 C   0  0  0  0  0  0  0  0  0  0  0  0
    0.5043    7.3225   -2.9065 N   0  0  0  0  0  0  0  0  0  0  0  0
   -0.3196    7.0726   -3.9440 C   0  0  0  0  0  0  0  0  0  0  0  0
   -0.6455    5.7987   -4.4117 C   0  0  0  0  0  0  0  0  0  0  0  0
   -1.5548    5.6128   -5.4671 C   0  0  0  0  0  0  0  0  0  0  0  0
   -1.9048    4.3332   -5.8901 C   0  0  0  0  0  0  0  0  0  0  0  0
   -1.3406    3.2248   -5.2691 C   0  0  0  0  0  0  0  0  0  0  0  0
   -0.4264    3.3934   -4.2287 C   0  0  0  0  0  0  0  0  0  0  0  0
   -0.0527    4.6815   -3.7715 C   0  0  0  0  0  0  0  0  0  0  0  0
    2.3432    0.0644   -0.1003 C   0  0  0  0  0  0  0  0  0  0  0  0
    1.7341   -1.1982   -0.0640 C   0  0  0  0  0  0  0  0  0  0  0  0
    2.5526   -2.3493    0.0215 N   0  0  0  0  0  0  0  0  0  0  0  0
    2.2500   -3.6407   -0.4889 C   0  0  0  0  0  0  0  0  0  0  0  0
    2.6472   -4.8171    0.1751 C   0  0  0  0  0  0  0  0  0  0  0  0
    3.5557   -4.7560    2.0663 I   0  0  0  0  0  0  0  0  0  0  0  0
    2.4159   -6.0772   -0.3921 C   0  0  0  0  0  0  0  0  0  0  0  0
    1.7892   -6.1790   -1.6335 C   0  0  0  0  0  0  0  0  0  0  0  0
    1.3895   -5.0273   -2.3044 C   0  0  0  0  0  0  0  0  0  0  0  0
    1.6265   -3.7716   -1.7406 C   0  0  0  0  0  0  0  0  0  0  0  0
    0.3413   -1.2684    0.0153 C   0  0  0  0  0  0  0  0  0  0  0  0
   -0.4281    2.0481    0.0053 H   0  0  0  0  0  0  0  0  0  0  0  0
    3.2337    2.4906   -0.7320 H   0  0  0  0  0  0  0  0  0  0  0  0
    2.6506    2.7960    0.9039 H   0  0  0  0  0  0  0  0  0  0  0  0
    1.5316    2.9670   -2.5015 H   0  0  0  0  0  0  0  0  0  0  0  0
    1.6943    6.4869   -1.4588 H   0  0  0  0  0  0  0  0  0  0  0  0
   -0.7453    7.9647   -4.4004 H   0  0  0  0  0  0  0  0  0  0  0  0
   -2.0186    6.4715   -5.9520 H   0  0  0  0  0  0  0  0  0  0  0  0
   -2.6267    4.2003   -6.6908 H   0  0  0  0  0  0  0  0  0  0  0  0
   -1.6265    2.2230   -5.5807 H   0  0  0  0  0  0  0  0  0  0  0  0
   -0.0422    2.4968   -3.7531 H   0  0  0  0  0  0  0  0  0  0  0  0
    3.4323    0.1160   -0.1231 H   0  0  0  0  0  0  0  0  0  0  0  0
    2.9443   -2.4260    0.9613 H   0  0  0  0  0  0  0  0  0  0  0  0
    2.7199   -6.9869    0.1199 H   0  0  0  0  0  0  0  0  0  0  0  0
    1.6168   -7.1557   -2.0789 H   0  0  0  0  0  0  0  0  0  0  0  0
    0.9038   -5.1013   -3.2743 H   0  0  0  0  0  0  0  0  0  0  0  0
    1.3345   -2.8854   -2.2987 H   0  0  0  0  0  0  0  0  0  0  0  0
   -0.1548   -2.2324    0.0936 H   0  0  0  0  0  0  0  0  0  0  0  0
  1  2  1  0  0  0  0
  2  3  2  0  0  0  0
  2 29  1  0  0  0  0
  3  4  1  0  0  0  0
  3 30  1  0  0  0  0
  4  5  1  0  0  0  0
  4 19  2  0  0  0  0
  5  6  1  0  0  0  0
  5 31  1  0  0  0  0
  5 32  1  0  0  0  0
  6  7  2  0  0  0  0
  6  8  1  0  0  0  0
  8  9  1  0  0  0  0
  8 33  1  0  0  0  0
  9 10  2  0  0  0  0
  9 18  1  0  0  0  0
 10 11  1  0  0  0  0
 10 34  1  0  0  0  0
 11 12  2  0  0  0  0
 12 13  1  0  0  0  0
 12 35  1  0  0  0  0
 13 14  2  0  0  0  0
 13 18  1  0  0  0  0
 14 15  1  0  0  0  0
 14 36  1  0  0  0  0
 15 16  2  0  0  0  0
 15 37  1  0  0  0  0
 16 17  1  0  0  0  0
 16 38  1  0  0  0  0
 17 18  2  0  0  0  0
 17 39  1  0  0  0  0
 19 20  1  0  0  0  0
 19 40  1  0  0  0  0
 20 21  1  0  0  0  0
 20 29  2  0  0  0  0
 21 22  1  0  0  0  0
 21 41  1  0  0  0  0
 22 23  2  0  0  0  0
 22 28  1  0  0  0  0
 23 24  1  0  0  0  0
 23 25  1  0  0  0  0
 25 26  2  0  0  0  0
 25 42  1  0  0  0  0
 26 27  1  0  0  0  0
 26 43  1  0  0  0  0
 27 28  2  0  0  0  0
 27 44  1  0  0  0  0
 28 45  1  0  0  0  0
 29 46  1  0  0  0  0
M  END
$$$$
