
 OpenBabel07202414203D

 52 56  0  0  1  0  0  0  0  0999 V2000
   -3.5970   -1.3439   -0.2941 C   0  0  0  0  0  0  0  0  0  0  0  0
   -3.8840    0.0086   -0.3755 C   0  0  0  0  0  0  0  0  0  0  0  0
   -2.8689    0.9562   -0.1748 C   0  0  0  0  0  0  0  0  0  0  0  0
   -1.5324    0.5792    0.1225 C   0  0  0  0  0  0  0  0  0  0  0  0
   -1.2794   -0.8105    0.2204 C   0  0  0  0  0  0  0  0  0  0  0  0
   -2.2984   -1.7557   -0.0012 C   0  0  0  0  0  0  0  0  0  0  0  0
    0.0231   -1.2193    0.5134 C   0  0  0  0  0  0  0  0  0  0  0  0
    1.0638   -0.3933    0.7271 N   0  0  0  0  0  0  0  0  0  0  0  0
    0.8199    0.9259    0.6010 C   0  0  0  0  0  0  0  0  0  0  0  0
   -0.4249    1.4678    0.2884 C   0  0  0  0  0  0  0  0  0  0  0  0
   -0.5995    2.8722    0.2008 N   0  0  0  0  0  0  0  0  0  0  0  0
    0.3500    3.8229   -0.2419 C   0  0  0  0  0  0  0  0  0  0  0  0
    1.4479    3.5464   -0.7106 O   0  0  0  0  0  0  0  0  0  0  0  0
   -0.1385    5.2743   -0.0100 C   0  0  3  0  0  0  0  0  0  0  0  0
   -0.0006    5.3726    1.5277 C   0  0  0  0  0  0  0  0  0  0  0  0
   -0.5622    6.6508    2.0812 C   0  0  0  0  0  0  0  0  0  0  0  0
   -0.0192    7.8179    1.4914 O   0  0  0  0  0  0  0  0  0  0  0  0
    0.4680    7.7234    0.2167 C   0  0  0  0  0  0  0  0  0  0  0  0
    0.6161    6.5203   -0.5247 C   0  0  0  0  0  0  0  0  0  0  0  0
    1.1757    6.6249   -1.8063 C   0  0  0  0  0  0  0  0  0  0  0  0
    1.4075    7.8884   -2.3779 C   0  0  0  0  0  0  0  0  0  0  0  0
    1.1801    9.0590   -1.6599 C   0  0  0  0  0  0  0  0  0  0  0  0
    0.7595    8.9705   -0.3424 C   0  0  0  0  0  0  0  0  0  0  0  0
    1.8721    8.0096   -4.0292 Cl  0  0  0  0  0  0  0  0  0  0  0  0
   -1.5621    5.4250   -0.6741 C   0  0  0  0  0  0  0  0  0  0  0  0
   -1.5968    4.8964   -2.1393 C   0  0  0  0  0  0  0  0  0  0  0  0
   -2.8855    5.1589   -2.8559 C   0  0  0  0  0  0  0  0  0  0  0  0
   -4.2000    4.6238   -2.3602 C   0  0  0  0  0  0  0  0  0  0  0  0
   -3.5645    4.0183   -3.5789 C   0  0  0  0  0  0  0  0  0  0  0  0
   -4.3802   -2.0840   -0.4709 H   0  0  0  0  0  0  0  0  0  0  0  0
   -4.8948    0.3336   -0.6088 H   0  0  0  0  0  0  0  0  0  0  0  0
   -3.1437    2.0055   -0.2696 H   0  0  0  0  0  0  0  0  0  0  0  0
   -2.0892   -2.8211    0.0462 H   0  0  0  0  0  0  0  0  0  0  0  0
    0.2701   -2.2754    0.5791 H   0  0  0  0  0  0  0  0  0  0  0  0
    1.6726    1.5606    0.8243 H   0  0  0  0  0  0  0  0  0  0  0  0
   -1.5387    3.1853    0.3941 H   0  0  0  0  0  0  0  0  0  0  0  0
    1.0778    5.3405    1.7690 H   0  0  0  0  0  0  0  0  0  0  0  0
   -0.4398    4.5251    2.0631 H   0  0  0  0  0  0  0  0  0  0  0  0
   -0.3354    6.6971    3.1529 H   0  0  0  0  0  0  0  0  0  0  0  0
   -1.6513    6.6739    1.9797 H   0  0  0  0  0  0  0  0  0  0  0  0
    1.3294    5.7345   -2.4122 H   0  0  0  0  0  0  0  0  0  0  0  0
    1.3047   10.0377   -2.1168 H   0  0  0  0  0  0  0  0  0  0  0  0
    0.5870    9.8750    0.2395 H   0  0  0  0  0  0  0  0  0  0  0  0
   -1.8845    6.4755   -0.6832 H   0  0  0  0  0  0  0  0  0  0  0  0
   -2.3262    4.9071   -0.0855 H   0  0  0  0  0  0  0  0  0  0  0  0
   -1.3803    3.8237   -2.1633 H   0  0  0  0  0  0  0  0  0  0  0  0
   -0.8194    5.3643   -2.7475 H   0  0  0  0  0  0  0  0  0  0  0  0
   -2.8795    6.1217   -3.3588 H   0  0  0  0  0  0  0  0  0  0  0  0
   -5.0738    5.2465   -2.5033 H   0  0  0  0  0  0  0  0  0  0  0  0
   -4.2124    4.0364   -1.4514 H   0  0  0  0  0  0  0  0  0  0  0  0
   -4.0166    4.2194   -4.5442 H   0  0  0  0  0  0  0  0  0  0  0  0
   -3.1539    3.0191   -3.4941 H   0  0  0  0  0  0  0  0  0  0  0  0
  1  2  1  0  0  0  0
  1  6  2  0  0  0  0
  1 30  1  0  0  0  0
  2  3  2  0  0  0  0
  2 31  1  0  0  0  0
  3  4  1  0  0  0  0
  3 32  1  0  0  0  0
  4  5  1  0  0  0  0
  4 10  2  0  0  0  0
  5  6  1  0  0  0  0
  5  7  2  0  0  0  0
  6 33  1  0  0  0  0
  7  8  1  0  0  0  0
  7 34  1  0  0  0  0
  8  9  2  0  0  0  0
  9 10  1  0  0  0  0
  9 35  1  0  0  0  0
 10 11  1  0  0  0  0
 11 12  1  0  0  0  0
 11 36  1  0  0  0  0
 12 13  2  0  0  0  0
 12 14  1  0  0  0  0
 14 15  1  0  0  0  0
 14 19  1  0  0  0  0
 14 25  1  0  0  0  0
 15 16  1  0  0  0  0
 15 37  1  0  0  0  0
 15 38  1  0  0  0  0
 16 17  1  0  0  0  0
 16 39  1  0  0  0  0
 16 40  1  0  0  0  0
 17 18  1  0  0  0  0
 18 19  1  0  0  0  0
 18 23  2  0  0  0  0
 19 20  2  0  0  0  0
 20 21  1  0  0  0  0
 20 41  1  0  0  0  0
 21 22  2  0  0  0  0
 21 24  1  0  0  0  0
 22 23  1  0  0  0  0
 22 42  1  0  0  0  0
 23 43  1  0  0  0  0
 25 26  1  0  0  0  0
 25 44  1  0  0  0  0
 25 45  1  0  0  0  0
 26 27  1  0  0  0  0
 26 46  1  0  0  0  0
 26 47  1  0  0  0  0
 27 28  1  0  0  0  0
 27 29  1  0  0  0  0
 27 48  1  0  0  0  0
 28 29  1  0  0  0  0
 28 49  1  0  0  0  0
 28 50  1  0  0  0  0
 29 51  1  0  0  0  0
 29 52  1  0  0  0  0
M  END
$$$$
