
 OpenBabel07202414173D

 52 56  0  0  1  0  0  0  0  0999 V2000
    0.9531    0.1172   -0.0834 Cl  0  0  0  0  0  0  0  0  0  0  0  0
    2.6679    0.0741    0.0485 C   0  0  0  0  0  0  0  0  0  0  0  0
    3.3965    1.2478   -0.1086 C   0  0  0  0  0  0  0  0  0  0  0  0
    4.7860    1.2080   -0.0453 C   0  0  0  0  0  0  0  0  0  0  0  0
    5.4575   -0.0086    0.1777 C   0  0  0  0  0  0  0  0  0  0  0  0
    4.7205   -1.1911    0.3593 C   0  0  0  0  0  0  0  0  0  0  0  0
    3.3174   -1.1374    0.2899 C   0  0  0  0  0  0  0  0  0  0  0  0
    5.4354   -2.5124    0.5962 C   0  0  3  0  0  0  0  0  0  0  0  0
    5.3299   -2.9836    2.0684 C   0  0  0  0  0  0  0  0  0  0  0  0
    4.2262   -3.2548    2.5467 O   0  0  0  0  0  0  0  0  0  0  0  0
    6.5245   -3.0876    2.7563 N   0  0  0  0  0  0  0  0  0  0  0  0
    6.7314   -3.4485    4.1161 C   0  0  0  0  0  0  0  0  0  0  0  0
    5.6920   -3.6647    5.0199 C   0  0  0  0  0  0  0  0  0  0  0  0
    5.8600   -3.8024    6.3577 N   0  0  0  0  0  0  0  0  0  0  0  0
    7.1272   -3.7632    6.8147 C   0  0  0  0  0  0  0  0  0  0  0  0
    8.2579   -3.6730    6.0081 C   0  0  0  0  0  0  0  0  0  0  0  0
    9.5566   -3.7495    6.5500 C   0  0  0  0  0  0  0  0  0  0  0  0
   10.6779   -3.7127    5.7240 C   0  0  0  0  0  0  0  0  0  0  0  0
   10.5136   -3.5988    4.3528 C   0  0  0  0  0  0  0  0  0  0  0  0
    9.2292   -3.5136    3.8108 C   0  0  0  0  0  0  0  0  0  0  0  0
    8.0643   -3.5307    4.6143 C   0  0  0  0  0  0  0  0  0  0  0  0
    6.8536   -2.4673   -0.0016 C   0  0  0  0  0  0  0  0  0  0  0  0
    7.6191   -1.2881    0.5330 N   0  0  0  0  0  0  0  0  0  0  0  0
    9.2727   -1.3310    0.1055 S   0  0  0  0  0  0  0  0  0  0  0  0
    9.8080   -2.5555    0.6509 O   0  0  0  0  0  0  0  0  0  0  0  0
    9.3712   -1.0302   -1.3020 O   0  0  0  0  0  0  0  0  0  0  0  0
    9.8902   -0.0644    0.9690 N   0  0  0  0  0  0  0  0  0  0  0  0
    9.7580    0.3025    2.3925 C   0  0  0  0  0  0  0  0  0  0  0  0
   10.2315    1.7320    2.0670 C   0  0  0  0  0  0  0  0  0  0  0  0
   10.0967    1.3467    0.5842 C   0  0  0  0  0  0  0  0  0  0  0  0
    6.9668   -0.0112    0.1277 C   0  0  0  0  0  0  0  0  0  0  0  0
    2.8918    2.1925   -0.2939 H   0  0  0  0  0  0  0  0  0  0  0  0
    5.3503    2.1277   -0.1897 H   0  0  0  0  0  0  0  0  0  0  0  0
    2.7304   -2.0455    0.4160 H   0  0  0  0  0  0  0  0  0  0  0  0
    4.9053   -3.2876    0.0245 H   0  0  0  0  0  0  0  0  0  0  0  0
    7.3493   -2.7360    2.2830 H   0  0  0  0  0  0  0  0  0  0  0  0
    4.6520   -3.7148    4.7152 H   0  0  0  0  0  0  0  0  0  0  0  0
    7.2124   -3.8233    7.8981 H   0  0  0  0  0  0  0  0  0  0  0  0
    9.6985   -3.8640    7.6233 H   0  0  0  0  0  0  0  0  0  0  0  0
   11.6742   -3.7972    6.1481 H   0  0  0  0  0  0  0  0  0  0  0  0
   11.3764   -3.5963    3.6897 H   0  0  0  0  0  0  0  0  0  0  0  0
    9.1576   -3.4915    2.7298 H   0  0  0  0  0  0  0  0  0  0  0  0
    6.7964   -2.3896   -1.0952 H   0  0  0  0  0  0  0  0  0  0  0  0
    7.3810   -3.3990    0.2343 H   0  0  0  0  0  0  0  0  0  0  0  0
   10.4204   -0.2671    3.0487 H   0  0  0  0  0  0  0  0  0  0  0  0
    8.7297    0.2402    2.7599 H   0  0  0  0  0  0  0  0  0  0  0  0
   11.2565    1.9525    2.3799 H   0  0  0  0  0  0  0  0  0  0  0  0
    9.5646    2.5322    2.3999 H   0  0  0  0  0  0  0  0  0  0  0  0
   10.9937    1.4995   -0.0213 H   0  0  0  0  0  0  0  0  0  0  0  0
    9.2362    1.7898    0.0757 H   0  0  0  0  0  0  0  0  0  0  0  0
    7.2531    0.2515   -0.8973 H   0  0  0  0  0  0  0  0  0  0  0  0
    7.3046    0.7749    0.8097 H   0  0  0  0  0  0  0  0  0  0  0  0
  1  2  1  0  0  0  0
  2  3  1  0  0  0  0
  2  7  2  0  0  0  0
  3  4  2  0  0  0  0
  3 32  1  0  0  0  0
  4  5  1  0  0  0  0
  4 33  1  0  0  0  0
  5  6  2  0  0  0  0
  5 31  1  0  0  0  0
  6  7  1  0  0  0  0
  6  8  1  0  0  0  0
  7 34  1  0  0  0  0
  8  9  1  0  0  0  0
  8 22  1  0  0  0  0
  8 35  1  0  0  0  0
  9 10  2  0  0  0  0
  9 11  1  0  0  0  0
 11 12  1  0  0  0  0
 11 36  1  0  0  0  0
 12 13  1  0  0  0  0
 12 21  2  0  0  0  0
 13 14  2  0  0  0  0
 13 37  1  0  0  0  0
 14 15  1  0  0  0  0
 15 16  2  0  0  0  0
 15 38  1  0  0  0  0
 16 17  1  0  0  0  0
 16 21  1  0  0  0  0
 17 18  2  0  0  0  0
 17 39  1  0  0  0  0
 18 19  1  0  0  0  0
 18 40  1  0  0  0  0
 19 20  2  0  0  0  0
 19 41  1  0  0  0  0
 20 21  1  0  0  0  0
 20 42  1  0  0  0  0
 22 23  1  0  0  0  0
 22 43  1  0  0  0  0
 22 44  1  0  0  0  0
 23 24  1  0  0  0  0
 23 31  1  0  0  0  0
 24 25  2  0  0  0  0
 24 26  2  0  0  0  0
 24 27  1  0  0  0  0
 27 28  1  0  0  0  0
 27 30  1  0  0  0  0
 28 29  1  0  0  0  0
 28 45  1  0  0  0  0
 28 46  1  0  0  0  0
 29 30  1  0  0  0  0
 29 47  1  0  0  0  0
 29 48  1  0  0  0  0
 30 49  1  0  0  0  0
 30 50  1  0  0  0  0
 31 51  1  0  0  0  0
 31 52  1  0  0  0  0
M  END
$$$$
