
 OpenBabel07202414183D

 36 39  0  0  1  0  0  0  0  0999 V2000
    5.6983   -2.1802    2.4213 Cl  0  0  0  0  0  0  0  0  0  0  0  0
    6.2689   -0.8940    1.4264 C   0  0  0  0  0  0  0  0  0  0  0  0
    7.5709   -0.9282    0.9228 C   0  0  0  0  0  0  0  0  0  0  0  0
    8.0513    0.1228    0.1337 C   0  0  0  0  0  0  0  0  0  0  0  0
    7.2035    1.1816   -0.1261 C   0  0  0  0  0  0  0  0  0  0  0  0
    5.9024    1.2144    0.3679 C   0  0  0  0  0  0  0  0  0  0  0  0
    5.4174    0.1851    1.1587 C   0  0  0  0  0  0  0  0  0  0  0  0
    5.2375    2.4848   -0.0217 C   0  0  1  0  0  0  0  0  0  0  0  0
    4.8960    3.3230    1.1871 C   0  0  0  0  0  0  0  0  0  0  0  0
    5.7291    3.6399    2.0411 O   0  0  0  0  0  0  0  0  0  0  0  0
    3.6541    3.8822    1.3003 N   0  0  0  0  0  0  0  0  0  0  0  0
    2.4502    3.1419    1.4772 C   0  0  0  0  0  0  0  0  0  0  0  0
    1.4623    3.3889    0.5255 C   0  0  0  0  0  0  0  0  0  0  0  0
    0.1958    3.6642    0.8494 N   0  0  0  0  0  0  0  0  0  0  0  0
   -0.0989    3.5361    2.1630 C   0  0  0  0  0  0  0  0  0  0  0  0
    0.6494    2.8119    3.0849 C   0  0  0  0  0  0  0  0  0  0  0  0
    0.0921    2.3159    4.2489 C   0  0  0  0  0  0  0  0  0  0  0  0
    0.9085    1.7495    5.2229 C   0  0  0  0  0  0  0  0  0  0  0  0
    2.2928    1.8268    5.0664 C   0  0  0  0  0  0  0  0  0  0  0  0
    2.8499    2.3247    3.8687 C   0  0  0  0  0  0  0  0  0  0  0  0
    2.0320    2.7471    2.7888 C   0  0  0  0  0  0  0  0  0  0  0  0
    6.3955    3.1506   -0.7999 C   0  0  0  0  0  0  0  0  0  0  0  0
    7.5502    2.2683   -0.8660 O   0  0  0  0  0  0  0  0  0  0  0  0
    8.2345   -1.7644    1.1559 H   0  0  0  0  0  0  0  0  0  0  0  0
    9.0616    0.1364   -0.2394 H   0  0  0  0  0  0  0  0  0  0  0  0
    4.4132    0.2136    1.5601 H   0  0  0  0  0  0  0  0  0  0  0  0
    4.3777    2.3195   -0.6873 H   0  0  0  0  0  0  0  0  0  0  0  0
    3.7563    4.4932    2.1106 H   0  0  0  0  0  0  0  0  0  0  0  0
    1.6938    3.5553   -0.5212 H   0  0  0  0  0  0  0  0  0  0  0  0
   -0.7415    4.3374    2.5497 H   0  0  0  0  0  0  0  0  0  0  0  0
   -1.0012    2.2443    4.3640 H   0  0  0  0  0  0  0  0  0  0  0  0
    0.4820    1.2729    6.1060 H   0  0  0  0  0  0  0  0  0  0  0  0
    2.9470    1.4716    5.8555 H   0  0  0  0  0  0  0  0  0  0  0  0
    3.9343    2.3485    3.7803 H   0  0  0  0  0  0  0  0  0  0  0  0
    6.7287    4.0976   -0.3519 H   0  0  0  0  0  0  0  0  0  0  0  0
    6.1044    3.3778   -1.8313 H   0  0  0  0  0  0  0  0  0  0  0  0
  1  2  1  0  0  0  0
  2  3  1  0  0  0  0
  2  7  2  0  0  0  0
  3  4  2  0  0  0  0
  3 24  1  0  0  0  0
  4  5  1  0  0  0  0
  4 25  1  0  0  0  0
  5  6  2  0  0  0  0
  5 23  1  0  0  0  0
  6  7  1  0  0  0  0
  6  8  1  0  0  0  0
  7 26  1  0  0  0  0
  8  9  1  0  0  0  0
  8 22  1  0  0  0  0
  8 27  1  6  0  0  0
  9 10  2  0  0  0  0
  9 11  1  0  0  0  0
 11 12  1  0  0  0  0
 11 28  1  0  0  0  0
 12 13  1  0  0  0  0
 12 21  2  0  0  0  0
 13 14  2  0  0  0  0
 13 29  1  0  0  0  0
 14 15  1  0  0  0  0
 15 16  2  0  0  0  0
 15 30  1  0  0  0  0
 16 17  1  0  0  0  0
 16 21  1  0  0  0  0
 17 18  2  0  0  0  0
 17 31  1  0  0  0  0
 18 19  1  0  0  0  0
 18 32  1  0  0  0  0
 19 20  2  0  0  0  0
 19 33  1  0  0  0  0
 20 21  1  0  0  0  0
 20 34  1  0  0  0  0
 22 23  1  0  0  0  0
 22 35  1  0  0  0  0
 22 36  1  0  0  0  0
M  END
$$$$
