
 OpenBabel07202414183D

 32 34  0  0  0  0  0  0  0  0999 V2000
    2.3568    1.7930    4.7766 Cl  0  0  0  0  0  0  0  0  0  0  0  0
    2.2709    1.1021    3.2012 C   0  0  0  0  0  0  0  0  0  0  0  0
    1.5367    1.7491    2.2113 C   0  0  0  0  0  0  0  0  0  0  0  0
    1.4672    1.1908    0.9401 C   0  0  0  0  0  0  0  0  0  0  0  0
    2.1505    0.0042    0.6585 C   0  0  0  0  0  0  0  0  0  0  0  0
    2.9198   -0.6352    1.6375 C   0  0  0  0  0  0  0  0  0  0  0  0
    3.6726   -1.8088    1.3843 N   0  0  0  0  0  0  0  0  0  0  0  0
    4.0009   -2.3004    0.1286 C   0  0  0  0  0  0  0  0  0  0  0  0
    3.7367   -1.7599   -0.9453 O   0  0  0  0  0  0  0  0  0  0  0  0
    4.7670   -3.6055    0.1329 C   0  0  0  0  0  0  0  0  0  0  0  0
    6.2018   -3.4047    0.1227 N   0  0  0  0  0  0  0  0  0  0  0  0
    6.8933   -2.6676   -0.7989 C   0  0  0  0  0  0  0  0  0  0  0  0
    8.1840   -2.6736   -0.5560 N   0  0  0  0  0  0  0  0  0  0  0  0
    8.3402   -3.4793    0.5435 C   0  0  0  0  0  0  0  0  0  0  0  0
    9.5132   -3.8457    1.2195 C   0  0  0  0  0  0  0  0  0  0  0  0
    9.4176   -4.7117    2.3149 C   0  0  0  0  0  0  0  0  0  0  0  0
    8.1792   -5.2070    2.7260 C   0  0  0  0  0  0  0  0  0  0  0  0
    6.9968   -4.8471    2.0693 C   0  0  0  0  0  0  0  0  0  0  0  0
    7.1122   -3.9716    0.9846 C   0  0  0  0  0  0  0  0  0  0  0  0
    2.9504   -0.0910    2.9275 C   0  0  0  0  0  0  0  0  0  0  0  0
    1.0200    2.6830    2.4198 H   0  0  0  0  0  0  0  0  0  0  0  0
    0.8898    1.6773    0.1566 H   0  0  0  0  0  0  0  0  0  0  0  0
    2.0527   -0.4005   -0.3443 H   0  0  0  0  0  0  0  0  0  0  0  0
    4.1203   -2.2345    2.1889 H   0  0  0  0  0  0  0  0  0  0  0  0
    4.5102   -4.1701   -0.7702 H   0  0  0  0  0  0  0  0  0  0  0  0
    4.4817   -4.2114    0.9976 H   0  0  0  0  0  0  0  0  0  0  0  0
    6.4146   -2.1443   -1.6202 H   0  0  0  0  0  0  0  0  0  0  0  0
   10.4726   -3.4648    0.8864 H   0  0  0  0  0  0  0  0  0  0  0  0
   10.3208   -5.0055    2.8442 H   0  0  0  0  0  0  0  0  0  0  0  0
    8.1327   -5.8898    3.5721 H   0  0  0  0  0  0  0  0  0  0  0  0
    6.0434   -5.2482    2.3933 H   0  0  0  0  0  0  0  0  0  0  0  0
    3.5240   -0.5620    3.7196 H   0  0  0  0  0  0  0  0  0  0  0  0
  1  2  1  0  0  0  0
  2  3  1  0  0  0  0
  2 20  2  0  0  0  0
  3  4  2  0  0  0  0
  3 21  1  0  0  0  0
  4  5  1  0  0  0  0
  4 22  1  0  0  0  0
  5  6  2  0  0  0  0
  5 23  1  0  0  0  0
  6  7  1  0  0  0  0
  6 20  1  0  0  0  0
  7  8  1  0  0  0  0
  7 24  1  0  0  0  0
  8  9  2  0  0  0  0
  8 10  1  0  0  0  0
 10 11  1  0  0  0  0
 10 25  1  0  0  0  0
 10 26  1  0  0  0  0
 11 12  1  0  0  0  0
 11 19  1  0  0  0  0
 12 13  2  0  0  0  0
 12 27  1  0  0  0  0
 13 14  1  0  0  0  0
 14 15  1  0  0  0  0
 14 19  2  0  0  0  0
 15 16  2  0  0  0  0
 15 28  1  0  0  0  0
 16 17  1  0  0  0  0
 16 29  1  0  0  0  0
 17 18  2  0  0  0  0
 17 30  1  0  0  0  0
 18 19  1  0  0  0  0
 18 31  1  0  0  0  0
 20 32  1  0  0  0  0
M  END
$$$$
