
 OpenBabel07202414183D

 38 41  0  0  1  0  0  0  0  0999 V2000
    1.1640    0.1142   -0.3058 F   0  0  0  0  0  0  0  0  0  0  0  0
    2.4930    0.0306   -0.1457 C   0  0  0  0  0  0  0  0  0  0  0  0
    3.2386    1.2047   -0.1261 C   0  0  0  0  0  0  0  0  0  0  0  0
    4.6201    1.1468    0.0543 C   0  0  0  0  0  0  0  0  0  0  0  0
    5.2606   -0.0890    0.2148 C   0  0  0  0  0  0  0  0  0  0  0  0
    4.4972   -1.2693    0.1887 C   0  0  0  0  0  0  0  0  0  0  0  0
    3.1145   -1.2060    0.0062 C   0  0  0  0  0  0  0  0  0  0  0  0
    2.1959   -2.6609   -0.0135 Cl  0  0  0  0  0  0  0  0  0  0  0  0
    6.7482   -0.1490    0.4788 C   0  0  2  0  0  0  0  0  0  0  0  0
    7.1112   -0.3690    1.9628 C   0  0  0  0  0  0  0  0  0  0  0  0
    8.1703   -0.9115    2.2543 O   0  0  0  0  0  0  0  0  0  0  0  0
    6.2071    0.1526    2.8719 N   0  0  0  0  0  0  0  0  0  0  0  0
    6.1816   -0.0384    4.2761 C   0  0  0  0  0  0  0  0  0  0  0  0
    7.1090   -0.8194    4.9561 C   0  0  0  0  0  0  0  0  0  0  0  0
    7.0095   -1.1600    6.2636 N   0  0  0  0  0  0  0  0  0  0  0  0
    5.9587   -0.6608    6.9456 C   0  0  0  0  0  0  0  0  0  0  0  0
    5.0270    0.2242    6.4126 C   0  0  0  0  0  0  0  0  0  0  0  0
    4.0184    0.7963    7.2015 C   0  0  0  0  0  0  0  0  0  0  0  0
    3.1459    1.6946    6.6183 C   0  0  0  0  0  0  0  0  0  0  0  0
    3.1925    2.0325    5.3176 N   0  0  0  0  0  0  0  0  0  0  0  0
    4.1661    1.4560    4.5728 C   0  0  0  0  0  0  0  0  0  0  0  0
    5.1329    0.5500    5.0448 C   0  0  0  0  0  0  0  0  0  0  0  0
    7.4061    1.1219   -0.0562 C   0  0  0  0  0  0  0  0  0  0  0  0
    6.6505    2.3481    0.4277 C   0  0  0  0  0  0  0  0  0  0  0  0
    5.2677    2.3483    0.0640 O   0  0  0  0  0  0  0  0  0  0  0  0
    2.7348    2.1596   -0.2444 H   0  0  0  0  0  0  0  0  0  0  0  0
    4.9789   -2.2378    0.3160 H   0  0  0  0  0  0  0  0  0  0  0  0
    7.1585   -1.0048   -0.0726 H   0  0  0  0  0  0  0  0  0  0  0  0
    5.4024    0.6180    2.4796 H   0  0  0  0  0  0  0  0  0  0  0  0
    7.9892   -1.2384    4.4769 H   0  0  0  0  0  0  0  0  0  0  0  0
    5.8966   -0.9960    7.9794 H   0  0  0  0  0  0  0  0  0  0  0  0
    3.9250    0.5670    8.2592 H   0  0  0  0  0  0  0  0  0  0  0  0
    2.3739    2.1898    7.2000 H   0  0  0  0  0  0  0  0  0  0  0  0
    4.1502    1.7978    3.5408 H   0  0  0  0  0  0  0  0  0  0  0  0
    7.3763    1.1007   -1.1540 H   0  0  0  0  0  0  0  0  0  0  0  0
    8.4584    1.1818    0.2431 H   0  0  0  0  0  0  0  0  0  0  0  0
    7.0976    3.2451   -0.0142 H   0  0  0  0  0  0  0  0  0  0  0  0
    6.7245    2.4670    1.5143 H   0  0  0  0  0  0  0  0  0  0  0  0
  1  2  1  0  0  0  0
  2  3  1  0  0  0  0
  2  7  2  0  0  0  0
  3  4  2  0  0  0  0
  3 26  1  0  0  0  0
  4  5  1  0  0  0  0
  4 25  1  0  0  0  0
  5  6  2  0  0  0  0
  5  9  1  0  0  0  0
  6  7  1  0  0  0  0
  6 27  1  0  0  0  0
  7  8  1  0  0  0  0
  9 10  1  0  0  0  0
  9 23  1  0  0  0  0
  9 28  1  6  0  0  0
 10 11  2  0  0  0  0
 10 12  1  0  0  0  0
 12 13  1  0  0  0  0
 12 29  1  0  0  0  0
 13 14  1  0  0  0  0
 13 22  2  0  0  0  0
 14 15  2  0  0  0  0
 14 30  1  0  0  0  0
 15 16  1  0  0  0  0
 16 17  2  0  0  0  0
 16 31  1  0  0  0  0
 17 18  1  0  0  0  0
 17 22  1  0  0  0  0
 18 19  2  0  0  0  0
 18 32  1  0  0  0  0
 19 20  1  0  0  0  0
 19 33  1  0  0  0  0
 20 21  2  0  0  0  0
 21 22  1  0  0  0  0
 21 34  1  0  0  0  0
 23 24  1  0  0  0  0
 23 35  1  0  0  0  0
 23 36  1  0  0  0  0
 24 25  1  0  0  0  0
 24 37  1  0  0  0  0
 24 38  1  0  0  0  0
M  END
$$$$
