
 OpenBabel07202414193D

 70 75  0  0  1  0  0  0  0  0999 V2000
   -0.1817   -1.6313   -2.7359 F   0  0  0  0  0  0  0  0  0  0  0  0
   -1.3583   -1.0430   -2.4842 C   0  0  0  0  0  0  0  0  0  0  0  0
   -2.0524   -0.4289   -3.5184 C   0  0  0  0  0  0  0  0  0  0  0  0
   -3.2691    0.1939   -3.2501 C   0  0  0  0  0  0  0  0  0  0  0  0
   -3.7849    0.1895   -1.9507 C   0  0  0  0  0  0  0  0  0  0  0  0
   -3.0948   -0.4484   -0.9078 C   0  0  0  0  0  0  0  0  0  0  0  0
   -3.6287   -0.4410    0.5035 C   0  0  0  0  0  0  0  0  0  0  0  0
   -5.0430   -1.0100    0.6621 C   0  0  0  0  0  0  0  0  0  0  0  0
   -5.1870   -2.4069    0.2760 N   0  0  0  0  0  0  0  0  0  0  0  0
   -6.3650   -3.0752    0.6024 C   0  0  0  0  0  0  0  0  0  0  0  0
   -7.2359   -2.4911    1.2438 O   0  0  0  0  0  0  0  0  0  0  0  0
   -6.4715   -4.5615    0.1478 C   0  0  3  0  0  0  0  0  0  0  0  0
   -6.2347   -5.5003    1.3008 N   0  0  0  0  0  0  0  0  0  0  0  0
   -7.1914   -5.9955    2.2250 C   0  0  0  0  0  0  0  0  0  0  0  0
   -6.8544   -6.7999    3.1013 O   0  0  0  0  0  0  0  0  0  0  0  0
   -8.5931   -5.6266    2.1576 C   0  0  0  0  0  0  0  0  0  0  0  0
   -9.7069   -6.3681    2.5205 C   0  0  0  0  0  0  0  0  0  0  0  0
  -10.8363   -5.5421    2.3175 C   0  0  0  0  0  0  0  0  0  0  0  0
  -10.3473   -4.3396    1.8773 C   0  0  0  0  0  0  0  0  0  0  0  0
   -8.9931   -4.3779    1.7958 O   0  0  0  0  0  0  0  0  0  0  0  0
   -4.8724   -5.9413    1.4808 C   0  0  0  0  0  0  0  0  0  0  0  0
   -4.5688   -7.3060    1.5679 C   0  0  0  0  0  0  0  0  0  0  0  0
   -3.2576   -7.7371    1.8220 C   0  0  0  0  0  0  0  0  0  0  0  0
   -2.2188   -6.8136    1.9926 C   0  0  0  0  0  0  0  0  0  0  0  0
   -0.8672   -7.2640    2.3379 C   0  0  0  0  0  0  0  0  0  0  0  0
   -0.3874   -8.4424    1.8917 N   0  0  0  0  0  0  0  0  0  0  0  0
    0.8430   -8.5461    2.4264 N   0  0  0  0  0  0  0  0  0  0  0  0
    1.1847   -7.4672    3.1711 C   0  0  0  0  0  0  0  0  0  0  0  0
    0.0992   -6.6254    3.1641 C   0  0  0  0  0  0  0  0  0  0  0  0
    0.1028   -5.3750    3.9623 C   0  0  0  0  0  0  0  0  0  0  0  0
    1.0796   -5.4338    5.0294 O   0  0  0  0  0  0  0  0  0  0  0  0
    2.3869   -5.8251    4.5647 C   0  0  0  0  0  0  0  0  0  0  0  0
    2.4190   -7.2504    3.9597 C   0  0  0  0  0  0  0  0  0  0  0  0
   -2.5183   -5.4553    1.8753 C   0  0  0  0  0  0  0  0  0  0  0  0
   -3.8307   -5.0256    1.6409 C   0  0  0  0  0  0  0  0  0  0  0  0
   -7.6921   -4.8836   -0.7254 C   0  0  0  0  0  0  0  0  0  0  0  0
   -8.0110   -6.2003   -1.0894 C   0  0  0  0  0  0  0  0  0  0  0  0
   -9.1765   -6.4731   -1.8124 C   0  0  0  0  0  0  0  0  0  0  0  0
   -9.9756   -5.4096   -2.1944 C   0  0  0  0  0  0  0  0  0  0  0  0
   -9.6711   -4.1246   -1.9377 N   0  0  0  0  0  0  0  0  0  0  0  0
   -8.5478   -3.8910   -1.2130 C   0  0  0  0  0  0  0  0  0  0  0  0
   -1.8633   -1.0557   -1.1876 C   0  0  0  0  0  0  0  0  0  0  0  0
   -1.6382   -0.4319   -4.5213 H   0  0  0  0  0  0  0  0  0  0  0  0
   -3.8146    0.6893   -4.0498 H   0  0  0  0  0  0  0  0  0  0  0  0
   -4.7280    0.6992   -1.7612 H   0  0  0  0  0  0  0  0  0  0  0  0
   -3.6268    0.5989    0.8573 H   0  0  0  0  0  0  0  0  0  0  0  0
   -2.9475   -0.9914    1.1628 H   0  0  0  0  0  0  0  0  0  0  0  0
   -5.7716   -0.4339    0.0833 H   0  0  0  0  0  0  0  0  0  0  0  0
   -5.3290   -0.9259    1.7175 H   0  0  0  0  0  0  0  0  0  0  0  0
   -4.4672   -2.8523   -0.2741 H   0  0  0  0  0  0  0  0  0  0  0  0
   -5.6370   -4.7212   -0.5501 H   0  0  0  0  0  0  0  0  0  0  0  0
   -9.6852   -7.3843    2.8879 H   0  0  0  0  0  0  0  0  0  0  0  0
  -11.8768   -5.7892    2.4801 H   0  0  0  0  0  0  0  0  0  0  0  0
  -10.8006   -3.3986    1.5930 H   0  0  0  0  0  0  0  0  0  0  0  0
   -5.3496   -8.0557    1.4657 H   0  0  0  0  0  0  0  0  0  0  0  0
   -3.0611   -8.8042    1.9186 H   0  0  0  0  0  0  0  0  0  0  0  0
    1.3740   -9.3933    2.2524 H   0  0  0  0  0  0  0  0  0  0  0  0
   -0.8720   -5.2010    4.4270 H   0  0  0  0  0  0  0  0  0  0  0  0
    0.3402   -4.5142    3.3263 H   0  0  0  0  0  0  0  0  0  0  0  0
    3.0646   -5.7846    5.4244 H   0  0  0  0  0  0  0  0  0  0  0  0
    2.7374   -5.0807    3.8395 H   0  0  0  0  0  0  0  0  0  0  0  0
    2.4591   -7.9884    4.7684 H   0  0  0  0  0  0  0  0  0  0  0  0
    3.3172   -7.3705    3.3449 H   0  0  0  0  0  0  0  0  0  0  0  0
   -1.7435   -4.7026    1.9908 H   0  0  0  0  0  0  0  0  0  0  0  0
   -4.0173   -3.9614    1.6940 H   0  0  0  0  0  0  0  0  0  0  0  0
   -7.3820   -7.0332   -0.7818 H   0  0  0  0  0  0  0  0  0  0  0  0
   -9.4647   -7.4878   -2.0543 H   0  0  0  0  0  0  0  0  0  0  0  0
  -10.9079   -5.5687   -2.7301 H   0  0  0  0  0  0  0  0  0  0  0  0
   -8.3871   -2.8359   -1.0139 H   0  0  0  0  0  0  0  0  0  0  0  0
   -1.2792   -1.5340   -0.4068 H   0  0  0  0  0  0  0  0  0  0  0  0
  1  2  1  0  0  0  0
  2  3  1  0  0  0  0
  2 42  2  0  0  0  0
  3  4  2  0  0  0  0
  3 43  1  0  0  0  0
  4  5  1  0  0  0  0
  4 44  1  0  0  0  0
  5  6  2  0  0  0  0
  5 45  1  0  0  0  0
  6  7  1  0  0  0  0
  6 42  1  0  0  0  0
  7  8  1  0  0  0  0
  7 46  1  0  0  0  0
  7 47  1  0  0  0  0
  8  9  1  0  0  0  0
  8 48  1  0  0  0  0
  8 49  1  0  0  0  0
  9 10  1  0  0  0  0
  9 50  1  0  0  0  0
 10 11  2  0  0  0  0
 10 12  1  0  0  0  0
 12 13  1  0  0  0  0
 12 36  1  0  0  0  0
 12 51  1  0  0  0  0
 13 14  1  0  0  0  0
 13 21  1  0  0  0  0
 14 15  2  0  0  0  0
 14 16  1  0  0  0  0
 16 17  2  0  0  0  0
 16 20  1  0  0  0  0
 17 18  1  0  0  0  0
 17 52  1  0  0  0  0
 18 19  2  0  0  0  0
 18 53  1  0  0  0  0
 19 20  1  0  0  0  0
 19 54  1  0  0  0  0
 21 22  1  0  0  0  0
 21 35  2  0  0  0  0
 22 23  2  0  0  0  0
 22 55  1  0  0  0  0
 23 24  1  0  0  0  0
 23 56  1  0  0  0  0
 24 25  1  0  0  0  0
 24 34  2  0  0  0  0
 25 26  2  0  0  0  0
 25 29  1  0  0  0  0
 26 27  1  0  0  0  0
 27 28  1  0  0  0  0
 27 57  1  0  0  0  0
 28 29  2  0  0  0  0
 28 33  1  0  0  0  0
 29 30  1  0  0  0  0
 30 31  1  0  0  0  0
 30 58  1  0  0  0  0
 30 59  1  0  0  0  0
 31 32  1  0  0  0  0
 32 33  1  0  0  0  0
 32 60  1  0  0  0  0
 32 61  1  0  0  0  0
 33 62  1  0  0  0  0
 33 63  1  0  0  0  0
 34 35  1  0  0  0  0
 34 64  1  0  0  0  0
 35 65  1  0  0  0  0
 36 37  1  0  0  0  0
 36 41  2  0  0  0  0
 37 38  2  0  0  0  0
 37 66  1  0  0  0  0
 38 39  1  0  0  0  0
 38 67  1  0  0  0  0
 39 40  2  0  0  0  0
 39 68  1  0  0  0  0
 40 41  1  0  0  0  0
 41 69  1  0  0  0  0
 42 70  1  0  0  0  0
M  END
$$$$
