
 OpenBabel07202414173D

 49 53  0  0  1  0  0  0  0  0999 V2000
    0.9337    0.1631   -0.1109 Cl  0  0  0  0  0  0  0  0  0  0  0  0
    2.6466    0.1395    0.0075 C   0  0  0  0  0  0  0  0  0  0  0  0
    3.3756    1.3162   -0.1150 C   0  0  0  0  0  0  0  0  0  0  0  0
    4.7744    1.2894   -0.0566 C   0  0  0  0  0  0  0  0  0  0  0  0
    5.4496    0.0783    0.1432 C   0  0  0  0  0  0  0  0  0  0  0  0
    4.7044   -1.1024    0.2910 C   0  0  0  0  0  0  0  0  0  0  0  0
    3.3043   -1.0713    0.2107 C   0  0  0  0  0  0  0  0  0  0  0  0
    5.4024   -2.4190    0.4917 C   0  0  3  0  0  0  0  0  0  0  0  0
    5.1066   -3.0535    1.8482 C   0  0  0  0  0  0  0  0  0  0  0  0
    4.4118   -4.0824    1.9210 O   0  0  0  0  0  0  0  0  0  0  0  0
    5.6314   -2.4719    2.9796 N   0  0  0  0  0  0  0  0  0  0  0  0
    5.9303   -3.1758    4.1681 C   0  0  0  0  0  0  0  0  0  0  0  0
    5.7276   -2.5337    5.3861 C   0  0  0  0  0  0  0  0  0  0  0  0
    6.3437   -2.8940    6.5329 N   0  0  0  0  0  0  0  0  0  0  0  0
    7.0663   -4.0302    6.4783 C   0  0  0  0  0  0  0  0  0  0  0  0
    7.0601   -4.9291    5.4112 C   0  0  0  0  0  0  0  0  0  0  0  0
    7.5488   -6.2488    5.5316 C   0  0  0  0  0  0  0  0  0  0  0  0
    7.6249   -7.0777    4.4185 C   0  0  0  0  0  0  0  0  0  0  0  0
    7.3111   -6.5718    3.1673 C   0  0  0  0  0  0  0  0  0  0  0  0
    6.8202   -5.2775    3.0560 C   0  0  0  0  0  0  0  0  0  0  0  0
    6.5640   -4.4713    4.1802 C   0  0  0  0  0  0  0  0  0  0  0  0
    6.8948   -2.3595    0.1113 C   0  0  0  0  0  0  0  0  0  0  0  0
    7.5814   -1.1656    0.6374 N   0  0  0  0  0  0  0  0  0  0  0  0
    9.0125   -1.2089    0.2550 C   0  0  0  0  0  0  0  0  0  0  0  0
    9.7830   -0.0959    0.8740 C   0  0  0  0  0  0  0  0  0  0  0  0
   10.0828    1.0752    0.3585 N   0  0  0  0  0  0  0  0  0  0  0  0
   10.7325    1.7128    1.3766 C   0  0  0  0  0  0  0  0  0  0  0  0
   10.8659    1.0012    2.4986 N   0  0  0  0  0  0  0  0  0  0  0  0
   10.2444   -0.1382    2.1675 N   0  0  0  0  0  0  0  0  0  0  0  0
    6.9623    0.0578    0.0719 C   0  0  0  0  0  0  0  0  0  0  0  0
    2.8682    2.2665   -0.2846 H   0  0  0  0  0  0  0  0  0  0  0  0
    5.3256    2.2146   -0.1902 H   0  0  0  0  0  0  0  0  0  0  0  0
    2.7325   -1.9955    0.2879 H   0  0  0  0  0  0  0  0  0  0  0  0
    4.9651   -3.1132   -0.2372 H   0  0  0  0  0  0  0  0  0  0  0  0
    5.6440   -1.4548    3.0051 H   0  0  0  0  0  0  0  0  0  0  0  0
    5.0463   -1.6913    5.4874 H   0  0  0  0  0  0  0  0  0  0  0  0
    7.7470   -4.1742    7.3181 H   0  0  0  0  0  0  0  0  0  0  0  0
    7.8134   -6.6463    6.5087 H   0  0  0  0  0  0  0  0  0  0  0  0
    7.9281   -8.1162    4.5203 H   0  0  0  0  0  0  0  0  0  0  0  0
    7.4178   -7.1834    2.2763 H   0  0  0  0  0  0  0  0  0  0  0  0
    6.5918   -4.9412    2.0511 H   0  0  0  0  0  0  0  0  0  0  0  0
    6.9639   -2.3573   -0.9869 H   0  0  0  0  0  0  0  0  0  0  0  0
    7.3972   -3.2719    0.4520 H   0  0  0  0  0  0  0  0  0  0  0  0
    9.1374   -1.1752   -0.8365 H   0  0  0  0  0  0  0  0  0  0  0  0
    9.4569   -2.1587    0.5872 H   0  0  0  0  0  0  0  0  0  0  0  0
   11.1153    2.7218    1.2951 H   0  0  0  0  0  0  0  0  0  0  0  0
   10.1557   -0.8866    2.8511 H   0  0  0  0  0  0  0  0  0  0  0  0
    7.2406    0.1810   -0.9834 H   0  0  0  0  0  0  0  0  0  0  0  0
    7.3292    0.9283    0.6282 H   0  0  0  0  0  0  0  0  0  0  0  0
  1  2  1  0  0  0  0
  2  3  1  0  0  0  0
  2  7  2  0  0  0  0
  3  4  2  0  0  0  0
  3 31  1  0  0  0  0
  4  5  1  0  0  0  0
  4 32  1  0  0  0  0
  5  6  2  0  0  0  0
  5 30  1  0  0  0  0
  6  7  1  0  0  0  0
  6  8  1  0  0  0  0
  7 33  1  0  0  0  0
  8  9  1  0  0  0  0
  8 22  1  0  0  0  0
  8 34  1  0  0  0  0
  9 10  2  0  0  0  0
  9 11  1  0  0  0  0
 11 12  1  0  0  0  0
 11 35  1  0  0  0  0
 12 13  1  0  0  0  0
 12 21  2  0  0  0  0
 13 14  2  0  0  0  0
 13 36  1  0  0  0  0
 14 15  1  0  0  0  0
 15 16  2  0  0  0  0
 15 37  1  0  0  0  0
 16 17  1  0  0  0  0
 16 21  1  0  0  0  0
 17 18  2  0  0  0  0
 17 38  1  0  0  0  0
 18 19  1  0  0  0  0
 18 39  1  0  0  0  0
 19 20  2  0  0  0  0
 19 40  1  0  0  0  0
 20 21  1  0  0  0  0
 20 41  1  0  0  0  0
 22 23  1  0  0  0  0
 22 42  1  0  0  0  0
 22 43  1  0  0  0  0
 23 24  1  0  0  0  0
 23 30  1  0  0  0  0
 24 25  1  0  0  0  0
 24 44  1  0  0  0  0
 24 45  1  0  0  0  0
 25 26  2  0  0  0  0
 25 29  1  0  0  0  0
 26 27  1  0  0  0  0
 27 28  2  0  0  0  0
 27 46  1  0  0  0  0
 28 29  1  0  0  0  0
 29 47  1  0  0  0  0
 30 48  1  0  0  0  0
 30 49  1  0  0  0  0
M  END
$$$$
