
 OpenBabel07202414133D

 68 70  0  0  1  0  0  0  0  0999 V2000
    2.4627    2.5127    7.2053 C   0  0  0  0  0  0  0  0  0  0  0  0
    3.6525    3.0438    7.9849 C   0  0  0  0  0  0  0  0  0  0  0  0
    4.8281    2.4766    7.4020 O   0  0  0  0  0  0  0  0  0  0  0  0
    5.1549    1.2327    7.8546 C   0  0  0  0  0  0  0  0  0  0  0  0
    4.7767    0.7440    8.9024 O   0  0  0  0  0  0  0  0  0  0  0  0
    5.9901    0.5348    6.8140 C   0  0  0  0  0  0  0  0  0  0  0  0
    5.8562   -0.9793    6.9561 C   0  0  0  0  0  0  0  0  0  0  0  0
    6.6597   -1.7575    5.9177 C   0  0  0  0  0  0  0  0  0  0  0  0
    8.0903   -1.5834    6.0596 N   0  0  0  0  0  0  0  0  0  0  0  0
    8.9834   -2.1447    5.1732 C   0  0  0  0  0  0  0  0  0  0  0  0
    8.5977   -2.7023    4.1440 O   0  0  0  0  0  0  0  0  0  0  0  0
   10.5030   -2.0903    5.5592 C   0  0  3  0  0  0  0  0  0  0  0  0
   11.1616   -0.7642    5.3299 N   0  0  0  0  0  0  0  0  0  0  0  0
   10.9275    0.4701    5.9807 C   0  0  0  0  0  0  0  0  0  0  0  0
   11.5370    1.4932    5.6527 O   0  0  0  0  0  0  0  0  0  0  0  0
   10.0047    0.6130    7.1093 C   0  0  0  0  0  0  0  0  0  0  0  0
    9.5812    1.8439    7.5741 C   0  0  0  0  0  0  0  0  0  0  0  0
    8.8190    1.6609    8.6832 O   0  0  0  0  0  0  0  0  0  0  0  0
    8.8241    0.3141    8.8589 C   0  0  0  0  0  0  0  0  0  0  0  0
    9.4763   -0.3646    7.9360 N   0  0  0  0  0  0  0  0  0  0  0  0
   12.2070   -0.7557    4.3262 C   0  0  0  0  0  0  0  0  0  0  0  0
   13.2900   -1.6339    4.4108 C   0  0  0  0  0  0  0  0  0  0  0  0
   14.3876   -1.5063    3.5393 C   0  0  0  0  0  0  0  0  0  0  0  0
   14.4324   -0.5192    2.5389 C   0  0  0  0  0  0  0  0  0  0  0  0
   15.6447   -0.3227    1.6057 C   0  0  0  0  0  0  0  0  0  0  0  0
   16.8225   -1.2724    1.9214 C   0  0  0  0  0  0  0  0  0  0  0  0
   15.2259   -0.5730    0.1414 C   0  0  0  0  0  0  0  0  0  0  0  0
   16.1945    1.1192    1.7165 C   0  0  0  0  0  0  0  0  0  0  0  0
   13.3053    0.3118    2.4239 C   0  0  0  0  0  0  0  0  0  0  0  0
   12.2175    0.1996    3.3034 C   0  0  0  0  0  0  0  0  0  0  0  0
   10.8167   -2.8593    6.8339 C   0  0  0  0  0  0  0  0  0  0  0  0
   10.3118   -4.1613    7.0016 C   0  0  0  0  0  0  0  0  0  0  0  0
   10.5105   -4.8472    8.1956 C   0  0  0  0  0  0  0  0  0  0  0  0
   11.2371   -4.2219    9.1898 C   0  0  0  0  0  0  0  0  0  0  0  0
   11.8051   -3.0080    9.0453 N   0  0  0  0  0  0  0  0  0  0  0  0
   11.5961   -2.3651    7.8725 C   0  0  0  0  0  0  0  0  0  0  0  0
    1.5222    2.9342    7.5703 H   0  0  0  0  0  0  0  0  0  0  0  0
    2.4112    1.4205    7.2733 H   0  0  0  0  0  0  0  0  0  0  0  0
    2.5735    2.7509    6.1410 H   0  0  0  0  0  0  0  0  0  0  0  0
    3.5705    2.8218    9.0533 H   0  0  0  0  0  0  0  0  0  0  0  0
    3.7171    4.1333    7.8779 H   0  0  0  0  0  0  0  0  0  0  0  0
    7.0191    0.8672    6.9139 H   0  0  0  0  0  0  0  0  0  0  0  0
    5.6379    0.8351    5.8207 H   0  0  0  0  0  0  0  0  0  0  0  0
    4.7968   -1.2450    6.8508 H   0  0  0  0  0  0  0  0  0  0  0  0
    6.1533   -1.2899    7.9657 H   0  0  0  0  0  0  0  0  0  0  0  0
    6.3659   -1.4717    4.9029 H   0  0  0  0  0  0  0  0  0  0  0  0
    6.4519   -2.8268    6.0355 H   0  0  0  0  0  0  0  0  0  0  0  0
    8.4589   -1.3954    6.9911 H   0  0  0  0  0  0  0  0  0  0  0  0
   10.9307   -2.7464    4.7820 H   0  0  0  0  0  0  0  0  0  0  0  0
    9.7398    2.8635    7.2514 H   0  0  0  0  0  0  0  0  0  0  0  0
    8.2565   -0.0655    9.6986 H   0  0  0  0  0  0  0  0  0  0  0  0
   13.3485   -2.3810    5.1974 H   0  0  0  0  0  0  0  0  0  0  0  0
   15.2206   -2.1874    3.6934 H   0  0  0  0  0  0  0  0  0  0  0  0
   16.5333   -2.3240    1.8141 H   0  0  0  0  0  0  0  0  0  0  0  0
   17.1949   -1.1222    2.9419 H   0  0  0  0  0  0  0  0  0  0  0  0
   17.6658   -1.0999    1.2420 H   0  0  0  0  0  0  0  0  0  0  0  0
   14.8249   -1.5843    0.0106 H   0  0  0  0  0  0  0  0  0  0  0  0
   16.0808   -0.4630   -0.5371 H   0  0  0  0  0  0  0  0  0  0  0  0
   14.4591    0.1341   -0.1941 H   0  0  0  0  0  0  0  0  0  0  0  0
   16.5214    1.3444    2.7383 H   0  0  0  0  0  0  0  0  0  0  0  0
   15.4526    1.8732    1.4318 H   0  0  0  0  0  0  0  0  0  0  0  0
   17.0590    1.2609    1.0548 H   0  0  0  0  0  0  0  0  0  0  0  0
   13.2642    1.0858    1.6602 H   0  0  0  0  0  0  0  0  0  0  0  0
   11.3853    0.8902    3.1854 H   0  0  0  0  0  0  0  0  0  0  0  0
    9.7467   -4.6473    6.2065 H   0  0  0  0  0  0  0  0  0  0  0  0
   10.0991   -5.8387    8.3482 H   0  0  0  0  0  0  0  0  0  0  0  0
   11.3888   -4.6938   10.1559 H   0  0  0  0  0  0  0  0  0  0  0  0
   12.0793   -1.3938    7.8174 H   0  0  0  0  0  0  0  0  0  0  0  0
  1  2  1  0  0  0  0
  1 37  1  0  0  0  0
  1 38  1  0  0  0  0
  1 39  1  0  0  0  0
  2  3  1  0  0  0  0
  2 40  1  0  0  0  0
  2 41  1  0  0  0  0
  3  4  1  0  0  0  0
  4  5  2  0  0  0  0
  4  6  1  0  0  0  0
  6  7  1  0  0  0  0
  6 42  1  0  0  0  0
  6 43  1  0  0  0  0
  7  8  1  0  0  0  0
  7 44  1  0  0  0  0
  7 45  1  0  0  0  0
  8  9  1  0  0  0  0
  8 46  1  0  0  0  0
  8 47  1  0  0  0  0
  9 10  1  0  0  0  0
  9 48  1  0  0  0  0
 10 11  2  0  0  0  0
 10 12  1  0  0  0  0
 12 13  1  0  0  0  0
 12 31  1  0  0  0  0
 12 49  1  0  0  0  0
 13 14  1  0  0  0  0
 13 21  1  0  0  0  0
 14 15  2  0  0  0  0
 14 16  1  0  0  0  0
 16 17  2  0  0  0  0
 16 20  1  0  0  0  0
 17 18  1  0  0  0  0
 17 50  1  0  0  0  0
 18 19  1  0  0  0  0
 19 20  2  0  0  0  0
 19 51  1  0  0  0  0
 21 22  1  0  0  0  0
 21 30  2  0  0  0  0
 22 23  2  0  0  0  0
 22 52  1  0  0  0  0
 23 24  1  0  0  0  0
 23 53  1  0  0  0  0
 24 25  1  0  0  0  0
 24 29  2  0  0  0  0
 25 26  1  0  0  0  0
 25 27  1  0  0  0  0
 25 28  1  0  0  0  0
 26 54  1  0  0  0  0
 26 55  1  0  0  0  0
 26 56  1  0  0  0  0
 27 57  1  0  0  0  0
 27 58  1  0  0  0  0
 27 59  1  0  0  0  0
 28 60  1  0  0  0  0
 28 61  1  0  0  0  0
 28 62  1  0  0  0  0
 29 30  1  0  0  0  0
 29 63  1  0  0  0  0
 30 64  1  0  0  0  0
 31 32  1  0  0  0  0
 31 36  2  0  0  0  0
 32 33  2  0  0  0  0
 32 65  1  0  0  0  0
 33 34  1  0  0  0  0
 33 66  1  0  0  0  0
 34 35  2  0  0  0  0
 34 67  1  0  0  0  0
 35 36  1  0  0  0  0
 36 68  1  0  0  0  0
M  END
$$$$
