
 OpenBabel07202414143D

 49 52  0  0  1  0  0  0  0  0999 V2000
    8.0107    0.4644    0.9542 C   0  0  0  0  0  0  0  0  0  0  0  0
    6.9579   -0.3370    0.3899 N   0  0  0  0  0  0  0  0  0  0  0  0
    5.7561   -0.5035    1.0405 C   0  0  0  0  0  0  0  0  0  0  0  0
    5.5017   -0.0043    2.1334 O   0  0  0  0  0  0  0  0  0  0  0  0
    4.7212   -1.3151    0.2613 C   0  0  0  0  0  0  0  0  0  0  0  0
    5.1103   -2.7055    0.0105 N   0  0  0  0  0  0  0  0  0  0  0  0
    4.9929   -3.6670    1.1068 C   0  0  0  0  0  0  0  0  0  0  0  0
    4.6493   -5.0678    0.5963 C   0  0  1  0  0  0  0  0  0  0  0  0
    3.1459   -5.1885    0.3095 C   0  0  0  0  0  0  0  0  0  0  0  0
    2.4828   -6.0501    0.8841 O   0  0  0  0  0  0  0  0  0  0  0  0
    2.6559   -4.2886   -0.6202 N   0  0  0  0  0  0  0  0  0  0  0  0
    1.3244   -4.2119   -1.1149 C   0  0  0  0  0  0  0  0  0  0  0  0
    0.2590   -4.8806   -0.5079 C   0  0  0  0  0  0  0  0  0  0  0  0
   -0.9823   -4.9770   -1.0335 N   0  0  0  0  0  0  0  0  0  0  0  0
   -1.1967   -4.3448   -2.2030 C   0  0  0  0  0  0  0  0  0  0  0  0
   -0.2587   -3.5315   -2.8363 C   0  0  0  0  0  0  0  0  0  0  0  0
   -0.6043   -2.7983   -3.9892 C   0  0  0  0  0  0  0  0  0  0  0  0
    0.3269   -1.9676   -4.5969 C   0  0  0  0  0  0  0  0  0  0  0  0
   -0.1311   -1.0209   -5.9606 Cl  0  0  0  0  0  0  0  0  0  0  0  0
    1.6137   -1.8789   -4.0979 C   0  0  0  0  0  0  0  0  0  0  0  0
    1.9736   -2.6156   -2.9628 C   0  0  0  0  0  0  0  0  0  0  0  0
    1.0470   -3.4520   -2.2883 C   0  0  0  0  0  0  0  0  0  0  0  0
    5.5210   -5.4420   -0.5854 C   0  0  0  0  0  0  0  0  0  0  0  0
    5.7089   -6.7915   -0.9305 C   0  0  0  0  0  0  0  0  0  0  0  0
    6.5090   -7.1332   -2.0240 C   0  0  0  0  0  0  0  0  0  0  0  0
    6.7287   -8.7875   -2.4402 Cl  0  0  0  0  0  0  0  0  0  0  0  0
    7.1305   -6.1445   -2.7839 C   0  0  0  0  0  0  0  0  0  0  0  0
    6.9554   -4.8010   -2.4489 C   0  0  0  0  0  0  0  0  0  0  0  0
    6.1537   -4.4469   -1.3555 C   0  0  0  0  0  0  0  0  0  0  0  0
    5.9223   -2.9997   -1.0765 C   0  0  0  0  0  0  0  0  0  0  0  0
    6.3770   -2.1344   -1.8170 O   0  0  0  0  0  0  0  0  0  0  0  0
    8.8860    0.4083    0.3037 H   0  0  0  0  0  0  0  0  0  0  0  0
    8.2575    0.0860    1.9498 H   0  0  0  0  0  0  0  0  0  0  0  0
    7.6709    1.5007    1.0368 H   0  0  0  0  0  0  0  0  0  0  0  0
    7.0554   -0.7114   -0.5543 H   0  0  0  0  0  0  0  0  0  0  0  0
    4.5460   -0.8145   -0.6981 H   0  0  0  0  0  0  0  0  0  0  0  0
    3.7721   -1.3149    0.8077 H   0  0  0  0  0  0  0  0  0  0  0  0
    4.2377   -3.3190    1.8206 H   0  0  0  0  0  0  0  0  0  0  0  0
    5.9633   -3.6858    1.6192 H   0  0  0  0  0  0  0  0  0  0  0  0
    4.8610   -5.7681    1.4165 H   0  0  0  0  0  0  0  0  0  0  0  0
    3.3480   -3.7356   -1.1035 H   0  0  0  0  0  0  0  0  0  0  0  0
    0.3534   -5.3612    0.4591 H   0  0  0  0  0  0  0  0  0  0  0  0
   -2.1817   -4.5081   -2.6248 H   0  0  0  0  0  0  0  0  0  0  0  0
   -1.6131   -2.8596   -4.3919 H   0  0  0  0  0  0  0  0  0  0  0  0
    2.3499   -1.2273   -4.5708 H   0  0  0  0  0  0  0  0  0  0  0  0
    2.9925   -2.4932   -2.6080 H   0  0  0  0  0  0  0  0  0  0  0  0
    5.2324   -7.5802   -0.3490 H   0  0  0  0  0  0  0  0  0  0  0  0
    7.7445   -6.4107   -3.6413 H   0  0  0  0  0  0  0  0  0  0  0  0
    7.4363   -4.0329   -3.0524 H   0  0  0  0  0  0  0  0  0  0  0  0
  1  2  1  0  0  0  0
  1 32  1  0  0  0  0
  1 33  1  0  0  0  0
  1 34  1  0  0  0  0
  2  3  1  0  0  0  0
  2 35  1  0  0  0  0
  3  4  2  0  0  0  0
  3  5  1  0  0  0  0
  5  6  1  0  0  0  0
  5 36  1  0  0  0  0
  5 37  1  0  0  0  0
  6  7  1  0  0  0  0
  6 30  1  0  0  0  0
  7  8  1  0  0  0  0
  7 38  1  0  0  0  0
  7 39  1  0  0  0  0
  8  9  1  0  0  0  0
  8 23  1  0  0  0  0
  8 40  1  1  0  0  0
  9 10  2  0  0  0  0
  9 11  1  0  0  0  0
 11 12  1  0  0  0  0
 11 41  1  0  0  0  0
 12 13  1  0  0  0  0
 12 22  2  0  0  0  0
 13 14  2  0  0  0  0
 13 42  1  0  0  0  0
 14 15  1  0  0  0  0
 15 16  2  0  0  0  0
 15 43  1  0  0  0  0
 16 17  1  0  0  0  0
 16 22  1  0  0  0  0
 17 18  2  0  0  0  0
 17 44  1  0  0  0  0
 18 19  1  0  0  0  0
 18 20  1  0  0  0  0
 20 21  2  0  0  0  0
 20 45  1  0  0  0  0
 21 22  1  0  0  0  0
 21 46  1  0  0  0  0
 23 24  1  0  0  0  0
 23 29  2  0  0  0  0
 24 25  2  0  0  0  0
 24 47  1  0  0  0  0
 25 26  1  0  0  0  0
 25 27  1  0  0  0  0
 27 28  2  0  0  0  0
 27 48  1  0  0  0  0
 28 29  1  0  0  0  0
 28 49  1  0  0  0  0
 29 30  1  0  0  0  0
 30 31  2  0  0  0  0
M  END
$$$$
