
 OpenBabel07202414163D

 48 50  0  0  0  0  0  0  0  0999 V2000
   -3.1338    7.8973    3.4033 C   0  0  0  0  0  0  0  0  0  0  0  0
   -2.3988    6.7661    4.0651 C   0  0  0  0  0  0  0  0  0  0  0  0
   -1.8414    6.9962    5.3333 C   0  0  0  0  0  0  0  0  0  0  0  0
   -1.1652    5.9738    5.9789 C   0  0  0  0  0  0  0  0  0  0  0  0
   -1.0229    4.7421    5.4644 N   0  0  0  0  0  0  0  0  0  0  0  0
   -1.5683    4.5309    4.2403 C   0  0  0  0  0  0  0  0  0  0  0  0
   -2.2500    5.4916    3.4865 C   0  0  0  0  0  0  0  0  0  0  0  0
   -2.7835    5.2154    2.1981 N   0  0  0  0  0  0  0  0  0  0  0  0
   -2.4757    4.1091    1.4205 C   0  0  0  0  0  0  0  0  0  0  0  0
   -1.6506    3.2441    1.6991 O   0  0  0  0  0  0  0  0  0  0  0  0
   -3.1965    4.0605    0.0830 C   0  0  0  0  0  0  0  0  0  0  0  0
   -4.6683    3.7445    0.1807 C   0  0  0  0  0  0  0  0  0  0  0  0
   -5.6308    4.7703    0.1704 C   0  0  0  0  0  0  0  0  0  0  0  0
   -7.0006    4.4729    0.2037 C   0  0  0  0  0  0  0  0  0  0  0  0
   -7.4149    3.1407    0.2561 C   0  0  0  0  0  0  0  0  0  0  0  0
   -6.4620    2.1164    0.2749 C   0  0  0  0  0  0  0  0  0  0  0  0
   -5.0977    2.4114    0.2470 C   0  0  0  0  0  0  0  0  0  0  0  0
   -6.9753    0.4734    0.2901 Cl  0  0  0  0  0  0  0  0  0  0  0  0
   -7.9886    5.5599    0.1277 C   0  0  0  0  0  0  0  0  0  0  0  0
   -8.5467    6.1686    1.1972 C   0  0  0  0  0  0  0  0  0  0  0  0
   -9.4992    7.2745    0.9800 C   0  0  0  0  0  0  0  0  0  0  0  0
  -10.8677    7.0184    0.8243 C   0  0  0  0  0  0  0  0  0  0  0  0
  -11.7776    8.0766    0.7704 C   0  0  0  0  0  0  0  0  0  0  0  0
  -11.3291    9.3931    0.8673 C   0  0  0  0  0  0  0  0  0  0  0  0
   -9.9650    9.6551    0.9855 C   0  0  0  0  0  0  0  0  0  0  0  0
   -9.0518    8.6014    1.0363 C   0  0  0  0  0  0  0  0  0  0  0  0
   -8.2781    5.8457    2.6411 C   0  0  0  0  0  0  0  0  0  0  0  0
   -8.9807    6.6208    3.5101 F   0  0  0  0  0  0  0  0  0  0  0  0
   -8.5923    4.5595    2.9417 F   0  0  0  0  0  0  0  0  0  0  0  0
   -6.9670    6.0226    2.9544 F   0  0  0  0  0  0  0  0  0  0  0  0
   -2.9166    8.8522    3.8970 H   0  0  0  0  0  0  0  0  0  0  0  0
   -4.2139    7.7299    3.4566 H   0  0  0  0  0  0  0  0  0  0  0  0
   -2.8284    8.0102    2.3585 H   0  0  0  0  0  0  0  0  0  0  0  0
   -1.9213    7.9644    5.8200 H   0  0  0  0  0  0  0  0  0  0  0  0
   -0.7115    6.1244    6.9532 H   0  0  0  0  0  0  0  0  0  0  0  0
   -1.4464    3.5069    3.9015 H   0  0  0  0  0  0  0  0  0  0  0  0
   -3.3857    5.9220    1.7919 H   0  0  0  0  0  0  0  0  0  0  0  0
   -2.7092    3.2866   -0.5271 H   0  0  0  0  0  0  0  0  0  0  0  0
   -3.0310    5.0006   -0.4546 H   0  0  0  0  0  0  0  0  0  0  0  0
   -5.3122    5.8083    0.1066 H   0  0  0  0  0  0  0  0  0  0  0  0
   -8.4703    2.8883    0.2648 H   0  0  0  0  0  0  0  0  0  0  0  0
   -4.3724    1.6019    0.2535 H   0  0  0  0  0  0  0  0  0  0  0  0
   -8.2429    5.8676   -0.8868 H   0  0  0  0  0  0  0  0  0  0  0  0
  -11.2410    5.9979    0.7791 H   0  0  0  0  0  0  0  0  0  0  0  0
  -12.8438    7.8738    0.6854 H   0  0  0  0  0  0  0  0  0  0  0  0
  -12.0424   10.2137    0.8588 H   0  0  0  0  0  0  0  0  0  0  0  0
   -9.6164   10.6826    1.0644 H   0  0  0  0  0  0  0  0  0  0  0  0
   -7.9945    8.8252    1.1561 H   0  0  0  0  0  0  0  0  0  0  0  0
  1  2  1  0  0  0  0
  1 31  1  0  0  0  0
  1 32  1  0  0  0  0
  1 33  1  0  0  0  0
  2  3  1  0  0  0  0
  2  7  2  0  0  0  0
  3  4  2  0  0  0  0
  3 34  1  0  0  0  0
  4  5  1  0  0  0  0
  4 35  1  0  0  0  0
  5  6  2  0  0  0  0
  6  7  1  0  0  0  0
  6 36  1  0  0  0  0
  7  8  1  0  0  0  0
  8  9  1  0  0  0  0
  8 37  1  0  0  0  0
  9 10  2  0  0  0  0
  9 11  1  0  0  0  0
 11 12  1  0  0  0  0
 11 38  1  0  0  0  0
 11 39  1  0  0  0  0
 12 13  1  0  0  0  0
 12 17  2  0  0  0  0
 13 14  2  0  0  0  0
 13 40  1  0  0  0  0
 14 15  1  0  0  0  0
 14 19  1  0  0  0  0
 15 16  2  0  0  0  0
 15 41  1  0  0  0  0
 16 17  1  0  0  0  0
 16 18  1  0  0  0  0
 17 42  1  0  0  0  0
 19 20  2  0  0  0  0
 19 43  1  0  0  0  0
 20 21  1  0  0  0  0
 20 27  1  0  0  0  0
 21 22  1  0  0  0  0
 21 26  2  0  0  0  0
 22 23  2  0  0  0  0
 22 44  1  0  0  0  0
 23 24  1  0  0  0  0
 23 45  1  0  0  0  0
 24 25  2  0  0  0  0
 24 46  1  0  0  0  0
 25 26  1  0  0  0  0
 25 47  1  0  0  0  0
 26 48  1  0  0  0  0
 27 28  1  0  0  0  0
 27 29  1  0  0  0  0
 27 30  1  0  0  0  0
M  END
$$$$
