
 OpenBabel07202414173D

 51 55  0  0  1  0  0  0  0  0999 V2000
    1.0289    0.1124   -0.0783 Cl  0  0  0  0  0  0  0  0  0  0  0  0
    2.7413    0.0654    0.0853 C   0  0  0  0  0  0  0  0  0  0  0  0
    3.4747    1.2417   -0.0353 C   0  0  0  0  0  0  0  0  0  0  0  0
    4.8657    1.1982    0.0492 C   0  0  0  0  0  0  0  0  0  0  0  0
    5.5339   -0.0205    0.2615 C   0  0  0  0  0  0  0  0  0  0  0  0
    4.7856   -1.2027    0.4133 C   0  0  0  0  0  0  0  0  0  0  0  0
    3.3859   -1.1507    0.3159 C   0  0  0  0  0  0  0  0  0  0  0  0
    5.4945   -2.5258    0.6321 C   0  0  3  0  0  0  0  0  0  0  0  0
    5.4100   -3.0159    2.1019 C   0  0  0  0  0  0  0  0  0  0  0  0
    4.4851   -3.7155    2.4718 O   0  0  0  0  0  0  0  0  0  0  0  0
    6.4491   -2.5646    2.9000 N   0  0  0  0  0  0  0  0  0  0  0  0
    6.6412   -2.7441    4.2950 C   0  0  0  0  0  0  0  0  0  0  0  0
    5.7294   -3.4067    5.1132 C   0  0  0  0  0  0  0  0  0  0  0  0
    5.7516   -3.3606    6.4678 N   0  0  0  0  0  0  0  0  0  0  0  0
    6.7826   -2.7002    7.0333 C   0  0  0  0  0  0  0  0  0  0  0  0
    7.8718   -2.1914    6.3298 C   0  0  0  0  0  0  0  0  0  0  0  0
    9.0236   -1.7180    6.9917 C   0  0  0  0  0  0  0  0  0  0  0  0
   10.1110   -1.2326    6.2696 C   0  0  0  0  0  0  0  0  0  0  0  0
   10.0408   -1.1741    4.8864 C   0  0  0  0  0  0  0  0  0  0  0  0
    8.9006   -1.6417    4.2261 C   0  0  0  0  0  0  0  0  0  0  0  0
    7.7939   -2.1865    4.9208 C   0  0  0  0  0  0  0  0  0  0  0  0
    6.9323   -2.4663    0.0694 C   0  0  0  0  0  0  0  0  0  0  0  0
    7.6847   -1.3030    0.5840 N   0  0  3  0  0  0  0  0  0  0  0  0
    9.1189   -1.3679    0.2023 C   0  0  3  0  0  0  0  0  0  0  0  0
    9.4804   -1.3656   -1.2954 C   0  0  0  0  0  0  0  0  0  0  0  0
   10.8930   -0.8050   -1.3257 C   0  0  0  0  0  0  0  0  0  0  0  0
   10.9271    0.0917   -0.2120 N   0  0  0  0  0  0  0  0  0  0  0  0
    9.9607   -0.1951    0.7315 C   0  0  0  0  0  0  0  0  0  0  0  0
    9.8541    0.3826    1.7993 O   0  0  0  0  0  0  0  0  0  0  0  0
    7.0485   -0.0301    0.1921 C   0  0  0  0  0  0  0  0  0  0  0  0
    2.9739    2.1903   -0.2113 H   0  0  0  0  0  0  0  0  0  0  0  0
    5.4322    2.1195   -0.0761 H   0  0  0  0  0  0  0  0  0  0  0  0
    2.7974   -2.0626    0.4009 H   0  0  0  0  0  0  0  0  0  0  0  0
    4.9735   -3.2928    0.0414 H   0  0  0  0  0  0  0  0  0  0  0  0
    7.0757   -1.9009    2.4476 H   0  0  0  0  0  0  0  0  0  0  0  0
    4.9155   -4.0027    4.7150 H   0  0  0  0  0  0  0  0  0  0  0  0
    6.7103   -2.5924    8.1139 H   0  0  0  0  0  0  0  0  0  0  0  0
    9.0943   -1.7662    8.0775 H   0  0  0  0  0  0  0  0  0  0  0  0
   11.0110   -0.9037    6.7830 H   0  0  0  0  0  0  0  0  0  0  0  0
   10.8693   -0.7748    4.3076 H   0  0  0  0  0  0  0  0  0  0  0  0
    8.9170   -1.6007    3.1451 H   0  0  0  0  0  0  0  0  0  0  0  0
    6.8854   -2.4258   -1.0267 H   0  0  0  0  0  0  0  0  0  0  0  0
    7.4529   -3.3934    0.3397 H   0  0  0  0  0  0  0  0  0  0  0  0
    9.5558   -2.2608    0.6675 H   0  0  0  0  0  0  0  0  0  0  0  0
    8.8302   -0.7033   -1.8746 H   0  0  0  0  0  0  0  0  0  0  0  0
    9.4192   -2.3601   -1.7474 H   0  0  0  0  0  0  0  0  0  0  0  0
   11.1091   -0.2574   -2.2454 H   0  0  0  0  0  0  0  0  0  0  0  0
   11.6486   -1.5818   -1.1727 H   0  0  0  0  0  0  0  0  0  0  0  0
   11.6616    0.7603   -0.0076 H   0  0  0  0  0  0  0  0  0  0  0  0
    7.2995    0.2357   -0.8402 H   0  0  0  0  0  0  0  0  0  0  0  0
    7.4165    0.7695    0.8454 H   0  0  0  0  0  0  0  0  0  0  0  0
  1  2  1  0  0  0  0
  2  3  1  0  0  0  0
  2  7  2  0  0  0  0
  3  4  2  0  0  0  0
  3 31  1  0  0  0  0
  4  5  1  0  0  0  0
  4 32  1  0  0  0  0
  5  6  2  0  0  0  0
  5 30  1  0  0  0  0
  6  7  1  0  0  0  0
  6  8  1  0  0  0  0
  7 33  1  0  0  0  0
  8  9  1  0  0  0  0
  8 22  1  0  0  0  0
  8 34  1  0  0  0  0
  9 10  2  0  0  0  0
  9 11  1  0  0  0  0
 11 12  1  0  0  0  0
 11 35  1  0  0  0  0
 12 13  1  0  0  0  0
 12 21  2  0  0  0  0
 13 14  2  0  0  0  0
 13 36  1  0  0  0  0
 14 15  1  0  0  0  0
 15 16  2  0  0  0  0
 15 37  1  0  0  0  0
 16 17  1  0  0  0  0
 16 21  1  0  0  0  0
 17 18  2  0  0  0  0
 17 38  1  0  0  0  0
 18 19  1  0  0  0  0
 18 39  1  0  0  0  0
 19 20  2  0  0  0  0
 19 40  1  0  0  0  0
 20 21  1  0  0  0  0
 20 41  1  0  0  0  0
 22 23  1  0  0  0  0
 22 42  1  0  0  0  0
 22 43  1  0  0  0  0
 23 24  1  0  0  0  0
 23 30  1  0  0  0  0
 24 25  1  0  0  0  0
 24 28  1  0  0  0  0
 24 44  1  0  0  0  0
 25 26  1  0  0  0  0
 25 45  1  0  0  0  0
 25 46  1  0  0  0  0
 26 27  1  0  0  0  0
 26 47  1  0  0  0  0
 26 48  1  0  0  0  0
 27 28  1  0  0  0  0
 27 49  1  0  0  0  0
 28 29  2  0  0  0  0
 30 50  1  0  0  0  0
 30 51  1  0  0  0  0
M  END
$$$$
