
 OpenBabel07202414183D

 45 47  0  0  0  0  0  0  0  0999 V2000
   -3.3163    0.1696    0.4646 C   0  0  0  0  0  0  0  0  0  0  0  0
   -1.9251   -0.2362    0.3407 N   0  0  0  0  0  0  0  0  0  0  0  0
   -1.6136   -1.5761    0.3187 C   0  0  0  0  0  0  0  0  0  0  0  0
   -0.3723   -2.0799    0.1590 C   0  0  0  0  0  0  0  0  0  0  0  0
    0.7277   -1.0855   -0.0387 C   0  0  0  0  0  0  0  0  0  0  0  0
    2.0610   -1.4318   -0.3189 C   0  0  0  0  0  0  0  0  0  0  0  0
    3.0491   -0.4450   -0.4859 C   0  0  0  0  0  0  0  0  0  0  0  0
    2.7359    0.9057   -0.3685 C   0  0  0  0  0  0  0  0  0  0  0  0
    1.4247    1.2776   -0.1085 C   0  0  0  0  0  0  0  0  0  0  0  0
    0.4321    0.2957    0.0386 C   0  0  0  0  0  0  0  0  0  0  0  0
   -0.9631    0.7539    0.2384 C   0  0  0  0  0  0  0  0  0  0  0  0
   -1.2177    1.9540    0.2883 O   0  0  0  0  0  0  0  0  0  0  0  0
   -0.1112   -3.4521    0.2013 N   0  0  0  0  0  0  0  0  0  0  0  0
   -1.0617   -4.4658    0.2887 C   0  0  0  0  0  0  0  0  0  0  0  0
   -2.2748   -4.2865    0.2431 O   0  0  0  0  0  0  0  0  0  0  0  0
   -0.5068   -5.7302    0.4677 N   0  0  0  0  0  0  0  0  0  0  0  0
   -1.3752   -6.8559    0.5644 C   0  0  0  0  0  0  0  0  0  0  0  0
   -2.4347   -7.0310   -0.3288 C   0  0  0  0  0  0  0  0  0  0  0  0
   -3.3689   -8.0558   -0.1438 C   0  0  0  0  0  0  0  0  0  0  0  0
   -3.2629   -8.9329    0.9402 C   0  0  0  0  0  0  0  0  0  0  0  0
   -2.1576   -8.8009    1.8046 C   0  0  0  0  0  0  0  0  0  0  0  0
   -1.2171   -7.7705    1.6035 C   0  0  0  0  0  0  0  0  0  0  0  0
   -1.8988   -9.5426    2.9328 O   0  0  0  0  0  0  0  0  0  0  0  0
   -2.3739  -10.8830    2.9497 C   0  0  0  0  0  0  0  0  0  0  0  0
   -4.1989   -9.8914    1.2230 O   0  0  0  0  0  0  0  0  0  0  0  0
   -5.3516   -9.9784    0.3938 C   0  0  0  0  0  0  0  0  0  0  0  0
   -3.9805   -0.6890    0.6045 H   0  0  0  0  0  0  0  0  0  0  0  0
   -3.6070    0.7007   -0.4476 H   0  0  0  0  0  0  0  0  0  0  0  0
   -3.4206    0.8474    1.3170 H   0  0  0  0  0  0  0  0  0  0  0  0
   -2.4768   -2.2105    0.4640 H   0  0  0  0  0  0  0  0  0  0  0  0
    2.3698   -2.4631   -0.4376 H   0  0  0  0  0  0  0  0  0  0  0  0
    4.0734   -0.7331   -0.7139 H   0  0  0  0  0  0  0  0  0  0  0  0
    3.5011    1.6683   -0.4922 H   0  0  0  0  0  0  0  0  0  0  0  0
    1.1678    2.3336   -0.0325 H   0  0  0  0  0  0  0  0  0  0  0  0
    0.8408   -3.7564    0.0704 H   0  0  0  0  0  0  0  0  0  0  0  0
    0.3134   -5.7535    1.0569 H   0  0  0  0  0  0  0  0  0  0  0  0
   -2.5715   -6.3468   -1.1637 H   0  0  0  0  0  0  0  0  0  0  0  0
   -4.1897   -8.1119   -0.8513 H   0  0  0  0  0  0  0  0  0  0  0  0
   -0.4083   -7.6613    2.3202 H   0  0  0  0  0  0  0  0  0  0  0  0
   -1.8331  -11.4128    3.7401 H   0  0  0  0  0  0  0  0  0  0  0  0
   -2.1672  -11.3992    2.0062 H   0  0  0  0  0  0  0  0  0  0  0  0
   -3.4353  -10.9245    3.2119 H   0  0  0  0  0  0  0  0  0  0  0  0
   -5.9999  -10.7593    0.8043 H   0  0  0  0  0  0  0  0  0  0  0  0
   -5.0783  -10.2759   -0.6236 H   0  0  0  0  0  0  0  0  0  0  0  0
   -5.9219   -9.0434    0.3960 H   0  0  0  0  0  0  0  0  0  0  0  0
  1  2  1  0  0  0  0
  1 27  1  0  0  0  0
  1 28  1  0  0  0  0
  1 29  1  0  0  0  0
  2  3  1  0  0  0  0
  2 11  1  0  0  0  0
  3  4  2  0  0  0  0
  3 30  1  0  0  0  0
  4  5  1  0  0  0  0
  4 13  1  0  0  0  0
  5  6  1  0  0  0  0
  5 10  2  0  0  0  0
  6  7  2  0  0  0  0
  6 31  1  0  0  0  0
  7  8  1  0  0  0  0
  7 32  1  0  0  0  0
  8  9  2  0  0  0  0
  8 33  1  0  0  0  0
  9 10  1  0  0  0  0
  9 34  1  0  0  0  0
 10 11  1  0  0  0  0
 11 12  2  0  0  0  0
 13 14  1  0  0  0  0
 13 35  1  0  0  0  0
 14 15  2  0  0  0  0
 14 16  1  0  0  0  0
 16 17  1  0  0  0  0
 16 36  1  0  0  0  0
 17 18  1  0  0  0  0
 17 22  2  0  0  0  0
 18 19  2  0  0  0  0
 18 37  1  0  0  0  0
 19 20  1  0  0  0  0
 19 38  1  0  0  0  0
 20 21  2  0  0  0  0
 20 25  1  0  0  0  0
 21 22  1  0  0  0  0
 21 23  1  0  0  0  0
 22 39  1  0  0  0  0
 23 24  1  0  0  0  0
 24 40  1  0  0  0  0
 24 41  1  0  0  0  0
 24 42  1  0  0  0  0
 25 26  1  0  0  0  0
 26 43  1  0  0  0  0
 26 44  1  0  0  0  0
 26 45  1  0  0  0  0
M  END
$$$$
