
 OpenBabel07202414153D

 49 52  0  0  1  0  0  0  0  0999 V2000
    4.4692    0.9774    3.1220 C   0  0  0  0  0  0  0  0  0  0  0  0
    4.1520    0.4002    1.8639 O   0  0  0  0  0  0  0  0  0  0  0  0
    4.7070   -0.9089    1.7266 C   0  0  0  0  0  0  0  0  0  0  0  0
    4.2741   -1.4685    0.3738 C   0  0  0  0  0  0  0  0  0  0  0  0
    4.7380   -2.8283    0.0922 N   0  0  0  0  0  0  0  0  0  0  0  0
    4.3382   -3.9087    0.9931 C   0  0  0  0  0  0  0  0  0  0  0  0
    4.1124   -5.2268    0.2562 C   0  0  3  0  0  0  0  0  0  0  0  0
    2.7181   -5.2589   -0.3763 C   0  0  0  0  0  0  0  0  0  0  0  0
    1.9299   -6.1533   -0.0821 O   0  0  0  0  0  0  0  0  0  0  0  0
    2.4775   -4.2296   -1.2645 N   0  0  0  0  0  0  0  0  0  0  0  0
    1.3547   -4.0463   -2.1107 C   0  0  0  0  0  0  0  0  0  0  0  0
    0.2712   -4.9233   -2.1274 C   0  0  0  0  0  0  0  0  0  0  0  0
   -0.7412   -4.8711   -3.0233 N   0  0  0  0  0  0  0  0  0  0  0  0
   -0.6938   -3.8716   -3.9264 C   0  0  0  0  0  0  0  0  0  0  0  0
    0.2766   -2.8723   -3.9534 C   0  0  0  0  0  0  0  0  0  0  0  0
    0.1977   -1.8124   -4.8775 C   0  0  0  0  0  0  0  0  0  0  0  0
    1.1582   -0.8014   -4.8814 C   0  0  0  0  0  0  0  0  0  0  0  0
    2.2119   -0.8513   -3.9757 C   0  0  0  0  0  0  0  0  0  0  0  0
    2.3069   -1.9115   -3.0725 C   0  0  0  0  0  0  0  0  0  0  0  0
    1.3385   -2.9486   -3.0188 C   0  0  0  0  0  0  0  0  0  0  0  0
    5.2237   -5.4922   -0.7389 C   0  0  0  0  0  0  0  0  0  0  0  0
    5.4390   -6.7957   -1.2218 C   0  0  0  0  0  0  0  0  0  0  0  0
    6.4482   -7.0401   -2.1543 C   0  0  0  0  0  0  0  0  0  0  0  0
    6.6936   -8.6369   -2.7474 Cl  0  0  0  0  0  0  0  0  0  0  0  0
    7.2534   -6.0013   -2.6172 C   0  0  0  0  0  0  0  0  0  0  0  0
    7.0489   -4.7040   -2.1462 C   0  0  0  0  0  0  0  0  0  0  0  0
    6.0357   -4.4448   -1.2118 C   0  0  0  0  0  0  0  0  0  0  0  0
    5.7759   -3.0293   -0.8124 C   0  0  0  0  0  0  0  0  0  0  0  0
    6.3949   -2.1167   -1.3460 O   0  0  0  0  0  0  0  0  0  0  0  0
    4.0244    1.9749    3.1642 H   0  0  0  0  0  0  0  0  0  0  0  0
    5.5527    1.0692    3.2392 H   0  0  0  0  0  0  0  0  0  0  0  0
    4.0499    0.3735    3.9334 H   0  0  0  0  0  0  0  0  0  0  0  0
    4.3303   -1.5437    2.5353 H   0  0  0  0  0  0  0  0  0  0  0  0
    5.7994   -0.8645    1.7926 H   0  0  0  0  0  0  0  0  0  0  0  0
    4.6051   -0.7886   -0.4211 H   0  0  0  0  0  0  0  0  0  0  0  0
    3.1788   -1.4806    0.3104 H   0  0  0  0  0  0  0  0  0  0  0  0
    3.4351   -3.6106    1.5383 H   0  0  0  0  0  0  0  0  0  0  0  0
    5.1514   -4.0227    1.7199 H   0  0  0  0  0  0  0  0  0  0  0  0
    4.1299   -6.0235    1.0136 H   0  0  0  0  0  0  0  0  0  0  0  0
    3.2363   -3.5730   -1.3903 H   0  0  0  0  0  0  0  0  0  0  0  0
    0.1635   -5.7336   -1.4156 H   0  0  0  0  0  0  0  0  0  0  0  0
   -1.4991   -3.8947   -4.6590 H   0  0  0  0  0  0  0  0  0  0  0  0
   -0.6226   -1.7561   -5.5866 H   0  0  0  0  0  0  0  0  0  0  0  0
    1.0797    0.0257   -5.5778 H   0  0  0  0  0  0  0  0  0  0  0  0
    2.9664   -0.0658   -3.9723 H   0  0  0  0  0  0  0  0  0  0  0  0
    3.1498   -1.8823   -2.3897 H   0  0  0  0  0  0  0  0  0  0  0  0
    4.8129   -7.6173   -0.8799 H   0  0  0  0  0  0  0  0  0  0  0  0
    8.0326   -6.1919   -3.3521 H   0  0  0  0  0  0  0  0  0  0  0  0
    7.6675   -3.8925   -2.5279 H   0  0  0  0  0  0  0  0  0  0  0  0
  1  2  1  0  0  0  0
  1 30  1  0  0  0  0
  1 31  1  0  0  0  0
  1 32  1  0  0  0  0
  2  3  1  0  0  0  0
  3  4  1  0  0  0  0
  3 33  1  0  0  0  0
  3 34  1  0  0  0  0
  4  5  1  0  0  0  0
  4 35  1  0  0  0  0
  4 36  1  0  0  0  0
  5  6  1  0  0  0  0
  5 28  1  0  0  0  0
  6  7  1  0  0  0  0
  6 37  1  0  0  0  0
  6 38  1  0  0  0  0
  7  8  1  0  0  0  0
  7 21  1  0  0  0  0
  7 39  1  0  0  0  0
  8  9  2  0  0  0  0
  8 10  1  0  0  0  0
 10 11  1  0  0  0  0
 10 40  1  0  0  0  0
 11 12  1  0  0  0  0
 11 20  2  0  0  0  0
 12 13  2  0  0  0  0
 12 41  1  0  0  0  0
 13 14  1  0  0  0  0
 14 15  2  0  0  0  0
 14 42  1  0  0  0  0
 15 16  1  0  0  0  0
 15 20  1  0  0  0  0
 16 17  2  0  0  0  0
 16 43  1  0  0  0  0
 17 18  1  0  0  0  0
 17 44  1  0  0  0  0
 18 19  2  0  0  0  0
 18 45  1  0  0  0  0
 19 20  1  0  0  0  0
 19 46  1  0  0  0  0
 21 22  1  0  0  0  0
 21 27  2  0  0  0  0
 22 23  2  0  0  0  0
 22 47  1  0  0  0  0
 23 24  1  0  0  0  0
 23 25  1  0  0  0  0
 25 26  2  0  0  0  0
 25 48  1  0  0  0  0
 26 27  1  0  0  0  0
 26 49  1  0  0  0  0
 27 28  1  0  0  0  0
 28 29  2  0  0  0  0
M  END
$$$$
