
 OpenBabel07202414193D

 36 39  0  0  1  0  0  0  0  0999 V2000
    1.3376    0.1884   -0.6442 O   0  0  0  0  0  0  0  0  0  0  0  0
    2.4441    0.0679   -0.1388 C   0  0  0  0  0  0  0  0  0  0  0  0
    3.2275   -1.2336   -0.0774 C   0  0  2  0  0  0  0  0  0  0  0  0
    2.5450   -2.5169    0.3086 C   0  0  0  0  0  0  0  0  0  0  0  0
    3.6196   -3.6106    0.3197 C   0  0  0  0  0  0  0  0  0  0  0  0
    4.7620   -3.2883    1.2925 C   0  0  0  0  0  0  0  0  0  0  0  0
    5.2530   -1.8339    1.2884 C   0  0  0  0  0  0  0  0  0  0  0  0
    4.2543   -0.8765    0.8671 N   0  0  0  0  0  0  0  0  0  0  0  0
    4.4456    0.4992    0.8398 C   0  0  0  0  0  0  0  0  0  0  0  0
    5.4446    1.0731    1.2450 O   0  0  0  0  0  0  0  0  0  0  0  0
    3.3139    1.0627    0.2885 N   0  0  0  0  0  0  0  0  0  0  0  0
    3.2128    2.4168   -0.0914 C   0  0  0  0  0  0  0  0  0  0  0  0
    4.2294    2.9802   -0.8671 C   0  0  0  0  0  0  0  0  0  0  0  0
    4.2319    4.2504   -1.3313 N   0  0  0  0  0  0  0  0  0  0  0  0
    3.1860    5.0197   -0.9672 C   0  0  0  0  0  0  0  0  0  0  0  0
    2.1319    4.5881   -0.1583 C   0  0  0  0  0  0  0  0  0  0  0  0
    1.1111    5.4721    0.2389 C   0  0  0  0  0  0  0  0  0  0  0  0
    0.0906    5.0446    1.0821 C   0  0  0  0  0  0  0  0  0  0  0  0
    0.0707    3.7300    1.5279 C   0  0  0  0  0  0  0  0  0  0  0  0
    1.0750    2.8405    1.1346 C   0  0  0  0  0  0  0  0  0  0  0  0
    2.1315    3.2442    0.2885 C   0  0  0  0  0  0  0  0  0  0  0  0
    3.7092   -1.3419   -1.0611 H   0  0  0  0  0  0  0  0  0  0  0  0
    1.7548   -2.7675   -0.4072 H   0  0  0  0  0  0  0  0  0  0  0  0
    2.0778   -2.4370    1.2980 H   0  0  0  0  0  0  0  0  0  0  0  0
    4.0318   -3.7222   -0.6922 H   0  0  0  0  0  0  0  0  0  0  0  0
    3.1725   -4.5758    0.5825 H   0  0  0  0  0  0  0  0  0  0  0  0
    5.6135   -3.9492    1.0867 H   0  0  0  0  0  0  0  0  0  0  0  0
    4.4247   -3.5411    2.3050 H   0  0  0  0  0  0  0  0  0  0  0  0
    6.1298   -1.7151    0.6440 H   0  0  0  0  0  0  0  0  0  0  0  0
    5.5664   -1.5507    2.3012 H   0  0  0  0  0  0  0  0  0  0  0  0
    5.0869    2.3936   -1.1877 H   0  0  0  0  0  0  0  0  0  0  0  0
    3.2316    6.0391   -1.3380 H   0  0  0  0  0  0  0  0  0  0  0  0
    1.1201    6.5084   -0.0951 H   0  0  0  0  0  0  0  0  0  0  0  0
   -0.6812    5.7411    1.4005 H   0  0  0  0  0  0  0  0  0  0  0  0
   -0.7206    3.3907    2.1917 H   0  0  0  0  0  0  0  0  0  0  0  0
    1.0267    1.8237    1.5157 H   0  0  0  0  0  0  0  0  0  0  0  0
  1  2  2  0  0  0  0
  2  3  1  0  0  0  0
  2 11  1  0  0  0  0
  3  4  1  0  0  0  0
  3  8  1  0  0  0  0
  3 22  1  6  0  0  0
  4  5  1  0  0  0  0
  4 23  1  0  0  0  0
  4 24  1  0  0  0  0
  5  6  1  0  0  0  0
  5 25  1  0  0  0  0
  5 26  1  0  0  0  0
  6  7  1  0  0  0  0
  6 27  1  0  0  0  0
  6 28  1  0  0  0  0
  7  8  1  0  0  0  0
  7 29  1  0  0  0  0
  7 30  1  0  0  0  0
  8  9  1  0  0  0  0
  9 10  2  0  0  0  0
  9 11  1  0  0  0  0
 11 12  1  0  0  0  0
 12 13  1  0  0  0  0
 12 21  2  0  0  0  0
 13 14  2  0  0  0  0
 13 31  1  0  0  0  0
 14 15  1  0  0  0  0
 15 16  2  0  0  0  0
 15 32  1  0  0  0  0
 16 17  1  0  0  0  0
 16 21  1  0  0  0  0
 17 18  2  0  0  0  0
 17 33  1  0  0  0  0
 18 19  1  0  0  0  0
 18 34  1  0  0  0  0
 19 20  2  0  0  0  0
 19 35  1  0  0  0  0
 20 21  1  0  0  0  0
 20 36  1  0  0  0  0
M  END
$$$$
