
 OpenBabel07202414123D

 58 61  0  0  1  0  0  0  0  0999 V2000
    4.5557   -7.3299   -0.1316 C   0  0  0  0  0  0  0  0  0  0  0  0
    4.8606   -6.3501    1.0163 C   0  0  0  0  0  0  0  0  0  0  0  0
    3.6330   -6.2128    1.9332 C   0  0  0  0  0  0  0  0  0  0  0  0
    6.0279   -6.9246    1.8347 C   0  0  0  0  0  0  0  0  0  0  0  0
    5.2573   -5.0462    0.4765 N   0  0  0  0  0  0  0  0  0  0  0  0
    4.4416   -4.3090   -0.3433 C   0  0  0  0  0  0  0  0  0  0  0  0
    3.3065   -4.6194   -0.6547 O   0  0  0  0  0  0  0  0  0  0  0  0
    5.0134   -2.9684   -0.7851 C   0  0  0  0  0  0  0  0  0  0  0  0
    6.4615   -2.9542   -0.9827 N   0  0  0  0  0  0  0  0  0  0  0  0
    7.0158   -3.4011   -2.2524 C   0  0  0  0  0  0  0  0  0  0  0  0
    7.6502   -2.2602   -3.0477 C   0  0  3  0  0  0  0  0  0  0  0  0
    6.5840   -1.3924   -3.7390 C   0  0  0  0  0  0  0  0  0  0  0  0
    5.4369   -1.2936   -3.3216 O   0  0  0  0  0  0  0  0  0  0  0  0
    7.0728   -0.7232   -4.8486 N   0  0  0  0  0  0  0  0  0  0  0  0
    6.4417    0.3317   -5.5559 C   0  0  0  0  0  0  0  0  0  0  0  0
    5.1668    0.8036   -5.2417 C   0  0  0  0  0  0  0  0  0  0  0  0
    4.6563    1.9700   -5.6978 N   0  0  0  0  0  0  0  0  0  0  0  0
    5.3924    2.6373   -6.6050 C   0  0  0  0  0  0  0  0  0  0  0  0
    6.5571    2.1389   -7.1806 C   0  0  0  0  0  0  0  0  0  0  0  0
    7.1170    2.7435   -8.3176 C   0  0  0  0  0  0  0  0  0  0  0  0
    8.2605    2.2104   -8.8922 C   0  0  0  0  0  0  0  0  0  0  0  0
    8.7241    2.7193  -10.0401 F   0  0  0  0  0  0  0  0  0  0  0  0
    8.9161    1.1417   -8.3057 C   0  0  0  0  0  0  0  0  0  0  0  0
    8.3732    0.5428   -7.1668 C   0  0  0  0  0  0  0  0  0  0  0  0
    7.1410    0.9825   -6.6111 C   0  0  0  0  0  0  0  0  0  0  0  0
    8.5413   -1.4355   -2.1265 C   0  0  0  0  0  0  0  0  0  0  0  0
    9.5692   -0.6406   -2.6583 C   0  0  0  0  0  0  0  0  0  0  0  0
   10.3098    0.2006   -1.8279 C   0  0  0  0  0  0  0  0  0  0  0  0
   11.5320    1.1983   -2.5121 Cl  0  0  0  0  0  0  0  0  0  0  0  0
   10.0553    0.2536   -0.4583 C   0  0  0  0  0  0  0  0  0  0  0  0
    9.0714   -0.5651    0.0922 C   0  0  0  0  0  0  0  0  0  0  0  0
    8.3226   -1.4157   -0.7307 C   0  0  0  0  0  0  0  0  0  0  0  0
    7.2228   -2.2060   -0.1098 C   0  0  0  0  0  0  0  0  0  0  0  0
    6.9741   -2.1302    1.0895 O   0  0  0  0  0  0  0  0  0  0  0  0
    4.2818   -8.3183    0.2519 H   0  0  0  0  0  0  0  0  0  0  0  0
    5.4271   -7.4469   -0.7864 H   0  0  0  0  0  0  0  0  0  0  0  0
    3.7272   -6.9907   -0.7606 H   0  0  0  0  0  0  0  0  0  0  0  0
    3.3227   -7.1868    2.3253 H   0  0  0  0  0  0  0  0  0  0  0  0
    2.7694   -5.7896    1.4096 H   0  0  0  0  0  0  0  0  0  0  0  0
    3.8465   -5.5547    2.7829 H   0  0  0  0  0  0  0  0  0  0  0  0
    5.7682   -7.9012    2.2612 H   0  0  0  0  0  0  0  0  0  0  0  0
    6.3020   -6.2586    2.6603 H   0  0  0  0  0  0  0  0  0  0  0  0
    6.9197   -7.0565    1.2116 H   0  0  0  0  0  0  0  0  0  0  0  0
    6.0780   -4.5725    0.8529 H   0  0  0  0  0  0  0  0  0  0  0  0
    4.7254   -2.2178   -0.0413 H   0  0  0  0  0  0  0  0  0  0  0  0
    4.5321   -2.7095   -1.7305 H   0  0  0  0  0  0  0  0  0  0  0  0
    6.2635   -3.9538   -2.8266 H   0  0  0  0  0  0  0  0  0  0  0  0
    7.8099   -4.1173   -1.9949 H   0  0  0  0  0  0  0  0  0  0  0  0
    8.2669   -2.7173   -3.8326 H   0  0  0  0  0  0  0  0  0  0  0  0
    8.0396   -0.8864   -5.0795 H   0  0  0  0  0  0  0  0  0  0  0  0
    4.4837    0.2679   -4.5913 H   0  0  0  0  0  0  0  0  0  0  0  0
    4.9969    3.6140   -6.8734 H   0  0  0  0  0  0  0  0  0  0  0  0
    6.6330    3.5872   -8.8020 H   0  0  0  0  0  0  0  0  0  0  0  0
    9.8276    0.7585   -8.7542 H   0  0  0  0  0  0  0  0  0  0  0  0
    8.9102   -0.3091   -6.7628 H   0  0  0  0  0  0  0  0  0  0  0  0
    9.7941   -0.6560   -3.7208 H   0  0  0  0  0  0  0  0  0  0  0  0
   10.6093    0.9355    0.1814 H   0  0  0  0  0  0  0  0  0  0  0  0
    8.8665   -0.5169    1.1622 H   0  0  0  0  0  0  0  0  0  0  0  0
  1  2  1  0  0  0  0
  1 35  1  0  0  0  0
  1 36  1  0  0  0  0
  1 37  1  0  0  0  0
  2  3  1  0  0  0  0
  2  4  1  0  0  0  0
  2  5  1  0  0  0  0
  3 38  1  0  0  0  0
  3 39  1  0  0  0  0
  3 40  1  0  0  0  0
  4 41  1  0  0  0  0
  4 42  1  0  0  0  0
  4 43  1  0  0  0  0
  5  6  1  0  0  0  0
  5 44  1  0  0  0  0
  6  7  2  0  0  0  0
  6  8  1  0  0  0  0
  8  9  1  0  0  0  0
  8 45  1  0  0  0  0
  8 46  1  0  0  0  0
  9 10  1  0  0  0  0
  9 33  1  0  0  0  0
 10 11  1  0  0  0  0
 10 47  1  0  0  0  0
 10 48  1  0  0  0  0
 11 12  1  0  0  0  0
 11 26  1  0  0  0  0
 11 49  1  0  0  0  0
 12 13  2  0  0  0  0
 12 14  1  0  0  0  0
 14 15  1  0  0  0  0
 14 50  1  0  0  0  0
 15 16  1  0  0  0  0
 15 25  2  0  0  0  0
 16 17  2  0  0  0  0
 16 51  1  0  0  0  0
 17 18  1  0  0  0  0
 18 19  2  0  0  0  0
 18 52  1  0  0  0  0
 19 20  1  0  0  0  0
 19 25  1  0  0  0  0
 20 21  2  0  0  0  0
 20 53  1  0  0  0  0
 21 22  1  0  0  0  0
 21 23  1  0  0  0  0
 23 24  2  0  0  0  0
 23 54  1  0  0  0  0
 24 25  1  0  0  0  0
 24 55  1  0  0  0  0
 26 27  1  0  0  0  0
 26 32  2  0  0  0  0
 27 28  2  0  0  0  0
 27 56  1  0  0  0  0
 28 29  1  0  0  0  0
 28 30  1  0  0  0  0
 30 31  2  0  0  0  0
 30 57  1  0  0  0  0
 31 32  1  0  0  0  0
 31 58  1  0  0  0  0
 32 33  1  0  0  0  0
 33 34  2  0  0  0  0
M  END
$$$$
