
 OpenBabel07202414193D

 39 42  0  0  1  0  0  0  0  0999 V2000
    1.4051   -0.6974   -0.4140 O   0  0  0  0  0  0  0  0  0  0  0  0
    2.2389    0.0435    0.0983 C   0  0  0  0  0  0  0  0  0  0  0  0
    2.4434    0.2254    1.4525 N   0  0  0  0  0  0  0  0  0  0  0  0
    1.5866   -0.2955    2.4023 C   0  0  0  0  0  0  0  0  0  0  0  0
    0.5256   -1.0565    2.2320 N   0  0  0  0  0  0  0  0  0  0  0  0
   -0.0018   -1.3683    3.4688 N   0  0  0  0  0  0  0  0  0  0  0  0
    0.7428   -0.7808    4.3752 C   0  0  0  0  0  0  0  0  0  0  0  0
    1.7173   -0.0607    3.7568 N   0  0  0  0  0  0  0  0  0  0  0  0
    2.6773    0.8150    4.3965 C   0  0  0  0  0  0  0  0  0  0  0  0
    3.2456    0.5399    5.7767 C   0  0  0  0  0  0  0  0  0  0  0  0
    2.2922    1.6693    5.5936 C   0  0  0  0  0  0  0  0  0  0  0  0
    3.2096    0.8319   -0.8104 C   0  0  3  0  0  0  0  0  0  0  0  0
    4.4447    0.0021   -1.1837 C   0  0  0  0  0  0  0  0  0  0  0  0
    5.5275   -0.0119   -0.1254 C   0  0  0  0  0  0  0  0  0  0  0  0
    6.1619    1.6103    0.1938 S   0  0  0  0  0  0  0  0  0  0  0  0
    6.6487    1.6126    1.5615 O   0  0  0  0  0  0  0  0  0  0  0  0
    6.9915    2.0129   -0.9176 O   0  0  0  0  0  0  0  0  0  0  0  0
    4.7406    2.6668    0.1772 C   0  0  0  0  0  0  0  0  0  0  0  0
    4.9122    3.9610    0.6894 C   0  0  0  0  0  0  0  0  0  0  0  0
    3.8450    4.8542    0.6937 C   0  0  0  0  0  0  0  0  0  0  0  0
    2.6111    4.4575    0.1878 C   0  0  0  0  0  0  0  0  0  0  0  0
    2.4378    3.1621   -0.3023 C   0  0  0  0  0  0  0  0  0  0  0  0
    3.4982    2.2354   -0.3076 C   0  0  0  0  0  0  0  0  0  0  0  0
    3.1850    0.8296    1.7676 H   0  0  0  0  0  0  0  0  0  0  0  0
    0.6110   -0.8435    5.4449 H   0  0  0  0  0  0  0  0  0  0  0  0
    3.3619    1.2944    3.7050 H   0  0  0  0  0  0  0  0  0  0  0  0
    4.2908    0.7807    5.9452 H   0  0  0  0  0  0  0  0  0  0  0  0
    2.9112   -0.3284    6.3327 H   0  0  0  0  0  0  0  0  0  0  0  0
    2.6820    2.6820    5.6289 H   0  0  0  0  0  0  0  0  0  0  0  0
    1.2991    1.5783    6.0197 H   0  0  0  0  0  0  0  0  0  0  0  0
    2.6549    0.9672   -1.7524 H   0  0  0  0  0  0  0  0  0  0  0  0
    4.8673    0.4043   -2.1138 H   0  0  0  0  0  0  0  0  0  0  0  0
    4.1471   -1.0316   -1.3968 H   0  0  0  0  0  0  0  0  0  0  0  0
    6.3775   -0.6192   -0.4554 H   0  0  0  0  0  0  0  0  0  0  0  0
    5.1634   -0.4250    0.8182 H   0  0  0  0  0  0  0  0  0  0  0  0
    5.8800    4.2780    1.0757 H   0  0  0  0  0  0  0  0  0  0  0  0
    3.9783    5.8626    1.0783 H   0  0  0  0  0  0  0  0  0  0  0  0
    1.7791    5.1592    0.1707 H   0  0  0  0  0  0  0  0  0  0  0  0
    1.4572    2.8791   -0.6875 H   0  0  0  0  0  0  0  0  0  0  0  0
  1  2  2  0  0  0  0
  2  3  1  0  0  0  0
  2 12  1  0  0  0  0
  3  4  1  0  0  0  0
  3 24  1  0  0  0  0
  4  5  2  0  0  0  0
  4  8  1  0  0  0  0
  5  6  1  0  0  0  0
  6  7  2  0  0  0  0
  7  8  1  0  0  0  0
  7 25  1  0  0  0  0
  8  9  1  0  0  0  0
  9 10  1  0  0  0  0
  9 11  1  0  0  0  0
  9 26  1  0  0  0  0
 10 11  1  0  0  0  0
 10 27  1  0  0  0  0
 10 28  1  0  0  0  0
 11 29  1  0  0  0  0
 11 30  1  0  0  0  0
 12 13  1  0  0  0  0
 12 23  1  0  0  0  0
 12 31  1  0  0  0  0
 13 14  1  0  0  0  0
 13 32  1  0  0  0  0
 13 33  1  0  0  0  0
 14 15  1  0  0  0  0
 14 34  1  0  0  0  0
 14 35  1  0  0  0  0
 15 16  2  0  0  0  0
 15 17  2  0  0  0  0
 15 18  1  0  0  0  0
 18 19  1  0  0  0  0
 18 23  2  0  0  0  0
 19 20  2  0  0  0  0
 19 36  1  0  0  0  0
 20 21  1  0  0  0  0
 20 37  1  0  0  0  0
 21 22  2  0  0  0  0
 21 38  1  0  0  0  0
 22 23  1  0  0  0  0
 22 39  1  0  0  0  0
M  END
$$$$
