
 OpenBabel07202414123D

 61 64  0  0  1  0  0  0  0  0999 V2000
    3.4922    0.9323   -0.6011 C   0  0  0  0  0  0  0  0  0  0  0  0
    2.4455   -0.0195    0.0242 C   0  0  0  0  0  0  0  0  0  0  0  0
    2.0270    0.5542    1.3911 C   0  0  0  0  0  0  0  0  0  0  0  0
    1.2235   -0.0111   -0.9225 C   0  0  0  0  0  0  0  0  0  0  0  0
    2.9897   -1.4410    0.2318 C   0  0  0  0  0  0  0  0  0  0  0  0
    4.3470   -1.6904    0.4438 C   0  0  0  0  0  0  0  0  0  0  0  0
    4.8464   -2.9979    0.5805 C   0  0  0  0  0  0  0  0  0  0  0  0
    4.0178   -4.1265    0.5459 C   0  0  0  0  0  0  0  0  0  0  0  0
    2.6484   -3.8561    0.4490 C   0  0  0  0  0  0  0  0  0  0  0  0
    2.1468   -2.5560    0.2629 C   0  0  0  0  0  0  0  0  0  0  0  0
    4.5556   -5.4900    0.4943 N   0  0  0  0  0  0  0  0  0  0  0  0
    3.6448   -6.6041    0.0447 C   0  0  3  0  0  0  0  0  0  0  0  0
    2.8037   -7.1453    1.2081 C   0  0  0  0  0  0  0  0  0  0  0  0
    3.4065   -7.7457    2.3264 C   0  0  0  0  0  0  0  0  0  0  0  0
    2.6652   -8.0782    3.4524 C   0  0  0  0  0  0  0  0  0  0  0  0
    1.3125   -7.8344    3.4217 C   0  0  0  0  0  0  0  0  0  0  0  0
    0.6628   -7.3391    2.3479 N   0  0  0  0  0  0  0  0  0  0  0  0
    1.4196   -7.0240    1.2673 C   0  0  0  0  0  0  0  0  0  0  0  0
    2.8837   -6.5169   -1.3379 C   0  0  0  0  0  0  0  0  0  0  0  0
    2.1485   -7.4507   -1.6716 O   0  0  0  0  0  0  0  0  0  0  0  0
    3.1343   -5.4125   -2.1396 N   0  0  0  0  0  0  0  0  0  0  0  0
    2.5920   -5.1264   -3.4225 C   0  0  0  0  0  0  0  0  0  0  0  0
    1.7228   -5.9901   -4.1171 C   0  0  0  0  0  0  0  0  0  0  0  0
    1.2350   -5.6718   -5.3951 C   0  0  0  0  0  0  0  0  0  0  0  0
    1.6180   -4.4761   -5.9512 C   0  0  0  0  0  0  0  0  0  0  0  0
    2.4571   -3.6172   -5.2860 C   0  0  0  0  0  0  0  0  0  0  0  0
    2.9585   -3.9141   -4.0277 C   0  0  0  0  0  0  0  0  0  0  0  0
    2.7122   -2.4903   -6.0062 O   0  0  0  0  0  0  0  0  0  0  0  0
    1.8909   -2.7185   -7.1740 C   0  0  0  0  0  0  0  0  0  0  0  0
    1.2431   -4.0061   -7.1703 O   0  0  0  0  0  0  0  0  0  0  0  0
    5.8617   -5.7493    0.9837 C   0  0  0  0  0  0  0  0  0  0  0  0
    6.6199   -4.8996    1.4635 O   0  0  0  0  0  0  0  0  0  0  0  0
    6.3839   -7.1551    1.0122 C   0  0  0  0  0  0  0  0  0  0  0  0
    7.2246   -7.5310    1.9942 C   0  0  0  0  0  0  0  0  0  0  0  0
    3.0548    1.9141   -0.8179 H   0  0  0  0  0  0  0  0  0  0  0  0
    3.8855    0.5282   -1.5412 H   0  0  0  0  0  0  0  0  0  0  0  0
    4.3388    1.1141    0.0701 H   0  0  0  0  0  0  0  0  0  0  0  0
    1.6240    1.5683    1.2870 H   0  0  0  0  0  0  0  0  0  0  0  0
    2.8788    0.6063    2.0799 H   0  0  0  0  0  0  0  0  0  0  0  0
    1.2567   -0.0615    1.8696 H   0  0  0  0  0  0  0  0  0  0  0  0
    0.8983    1.0118   -1.1450 H   0  0  0  0  0  0  0  0  0  0  0  0
    0.3579   -0.5222   -0.4873 H   0  0  0  0  0  0  0  0  0  0  0  0
    1.4603   -0.5010   -1.8748 H   0  0  0  0  0  0  0  0  0  0  0  0
    5.0703   -0.8796    0.4878 H   0  0  0  0  0  0  0  0  0  0  0  0
    5.9248   -3.0662    0.6730 H   0  0  0  0  0  0  0  0  0  0  0  0
    1.8963   -4.6296    0.4989 H   0  0  0  0  0  0  0  0  0  0  0  0
    1.0716   -2.4518    0.1351 H   0  0  0  0  0  0  0  0  0  0  0  0
    4.2957   -7.4427   -0.2148 H   0  0  0  0  0  0  0  0  0  0  0  0
    4.4685   -7.9487    2.3601 H   0  0  0  0  0  0  0  0  0  0  0  0
    3.1449   -8.4918    4.3295 H   0  0  0  0  0  0  0  0  0  0  0  0
    0.6906   -8.0354    4.2961 H   0  0  0  0  0  0  0  0  0  0  0  0
    0.8327   -6.6269    0.4412 H   0  0  0  0  0  0  0  0  0  0  0  0
    3.7435   -4.6958   -1.7612 H   0  0  0  0  0  0  0  0  0  0  0  0
    1.3974   -6.9362   -3.6939 H   0  0  0  0  0  0  0  0  0  0  0  0
    0.5723   -6.3473   -5.9249 H   0  0  0  0  0  0  0  0  0  0  0  0
    3.6190   -3.2027   -3.5396 H   0  0  0  0  0  0  0  0  0  0  0  0
    2.5148   -2.6387   -8.0715 H   0  0  0  0  0  0  0  0  0  0  0  0
    1.1189   -1.9407   -7.2163 H   0  0  0  0  0  0  0  0  0  0  0  0
    6.0894   -7.8844    0.2754 H   0  0  0  0  0  0  0  0  0  0  0  0
    7.5569   -6.8342    2.7583 H   0  0  0  0  0  0  0  0  0  0  0  0
    7.5883   -8.5510    2.0587 H   0  0  0  0  0  0  0  0  0  0  0  0
  1  2  1  0  0  0  0
  1 35  1  0  0  0  0
  1 36  1  0  0  0  0
  1 37  1  0  0  0  0
  2  3  1  0  0  0  0
  2  4  1  0  0  0  0
  2  5  1  0  0  0  0
  3 38  1  0  0  0  0
  3 39  1  0  0  0  0
  3 40  1  0  0  0  0
  4 41  1  0  0  0  0
  4 42  1  0  0  0  0
  4 43  1  0  0  0  0
  5  6  1  0  0  0  0
  5 10  2  0  0  0  0
  6  7  2  0  0  0  0
  6 44  1  0  0  0  0
  7  8  1  0  0  0  0
  7 45  1  0  0  0  0
  8  9  2  0  0  0  0
  8 11  1  0  0  0  0
  9 10  1  0  0  0  0
  9 46  1  0  0  0  0
 10 47  1  0  0  0  0
 11 12  1  0  0  0  0
 11 31  1  0  0  0  0
 12 13  1  0  0  0  0
 12 19  1  0  0  0  0
 12 48  1  0  0  0  0
 13 14  1  0  0  0  0
 13 18  2  0  0  0  0
 14 15  2  0  0  0  0
 14 49  1  0  0  0  0
 15 16  1  0  0  0  0
 15 50  1  0  0  0  0
 16 17  2  0  0  0  0
 16 51  1  0  0  0  0
 17 18  1  0  0  0  0
 18 52  1  0  0  0  0
 19 20  2  0  0  0  0
 19 21  1  0  0  0  0
 21 22  1  0  0  0  0
 21 53  1  0  0  0  0
 22 23  1  0  0  0  0
 22 27  2  0  0  0  0
 23 24  2  0  0  0  0
 23 54  1  0  0  0  0
 24 25  1  0  0  0  0
 24 55  1  0  0  0  0
 25 26  2  0  0  0  0
 25 30  1  0  0  0  0
 26 27  1  0  0  0  0
 26 28  1  0  0  0  0
 27 56  1  0  0  0  0
 28 29  1  0  0  0  0
 29 30  1  0  0  0  0
 29 57  1  0  0  0  0
 29 58  1  0  0  0  0
 31 32  2  0  0  0  0
 31 33  1  0  0  0  0
 33 34  2  0  0  0  0
 33 59  1  0  0  0  0
 34 60  1  0  0  0  0
 34 61  1  0  0  0  0
M  END
$$$$
