
 OpenBabel07202414143D

 73 78  0  0  1  0  0  0  0  0999 V2000
    0.7813    1.7498   -1.5517 C   0  0  0  0  0  0  0  0  0  0  0  0
    2.2142    1.6559   -1.5275 N   0  0  0  0  0  0  0  0  0  0  0  0
    2.8318    0.7612   -0.6926 C   0  0  0  0  0  0  0  0  0  0  0  0
    2.2388   -0.0222    0.0402 O   0  0  0  0  0  0  0  0  0  0  0  0
    4.3491    0.8078   -0.7068 C   0  0  0  0  0  0  0  0  0  0  0  0
    4.9504    0.4832   -2.0370 N   0  0  3  0  0  0  0  0  0  0  0  0
    4.6256   -0.8413   -2.5671 C   0  0  0  0  0  0  0  0  0  0  0  0
    5.7117   -1.8819   -2.3990 C   0  0  0  0  0  0  0  0  0  0  0  0
    5.3445   -3.2329   -2.5669 C   0  0  0  0  0  0  0  0  0  0  0  0
    6.2842   -4.2565   -2.4910 C   0  0  0  0  0  0  0  0  0  0  0  0
    7.6166   -3.9332   -2.2950 C   0  0  0  0  0  0  0  0  0  0  0  0
    8.7917   -5.1838   -2.1751 Cl  0  0  0  0  0  0  0  0  0  0  0  0
    8.0051   -2.5994   -2.1471 C   0  0  0  0  0  0  0  0  0  0  0  0
    7.0643   -1.5487   -2.1853 C   0  0  0  0  0  0  0  0  0  0  0  0
    7.5021   -0.0722   -2.0355 C   0  0  3  0  0  0  0  0  0  0  0  0
    8.6924    0.2435   -2.9878 C   0  0  0  0  0  0  0  0  0  0  0  0
    9.9569    0.2915   -2.1320 C   0  0  0  0  0  0  0  0  0  0  0  0
    9.5448   -0.0893   -0.8174 N   0  0  0  0  0  0  0  0  0  0  0  0
   10.4393   -0.4143    0.2422 C   0  0  0  0  0  0  0  0  0  0  0  0
   11.7149    0.1601    0.2529 C   0  0  0  0  0  0  0  0  0  0  0  0
   12.7234   -0.2150    1.0626 N   0  0  0  0  0  0  0  0  0  0  0  0
   12.4565   -1.2111    1.9327 C   0  0  0  0  0  0  0  0  0  0  0  0
   11.2164   -1.8326    2.0778 C   0  0  0  0  0  0  0  0  0  0  0  0
   11.0223   -2.8470    3.0385 C   0  0  0  0  0  0  0  0  0  0  0  0
    9.8087   -3.5291    3.1240 C   0  0  0  0  0  0  0  0  0  0  0  0
    8.7844   -3.2163    2.2442 C   0  0  0  0  0  0  0  0  0  0  0  0
    7.6324   -3.9524    2.3501 O   0  0  0  0  0  0  0  0  0  0  0  0
    7.0399   -4.3131    1.0956 C   0  0  0  0  0  0  0  0  0  0  0  0
    5.5188   -4.4840    1.2211 C   0  0  0  0  0  0  0  0  0  0  0  0
    4.8743   -3.2266    1.6210 N   0  0  0  0  0  0  0  0  0  0  0  0
    3.4003   -3.3416    1.7260 C   0  0  0  0  0  0  0  0  0  0  0  0
    2.5563   -3.6130    0.4612 C   0  0  0  0  0  0  0  0  0  0  0  0
    3.2937   -3.5337   -0.6676 F   0  0  0  0  0  0  0  0  0  0  0  0
    2.0250   -4.8587    0.4963 F   0  0  0  0  0  0  0  0  0  0  0  0
    1.5331   -2.7450    0.3361 F   0  0  0  0  0  0  0  0  0  0  0  0
    8.9509   -2.1508    1.3510 C   0  0  0  0  0  0  0  0  0  0  0  0
   10.1686   -1.4348    1.2134 C   0  0  0  0  0  0  0  0  0  0  0  0
    8.1899    0.1835   -0.6683 C   0  0  0  0  0  0  0  0  0  0  0  0
    7.7120    0.5585    0.3857 O   0  0  0  0  0  0  0  0  0  0  0  0
    6.3211    0.8848   -2.3807 C   0  0  0  0  0  0  0  0  0  0  0  0
    4.9819    0.3600    0.5849 C   0  0  0  0  0  0  0  0  0  0  0  0
    5.0269    1.8132    0.2000 C   0  0  0  0  0  0  0  0  0  0  0  0
    0.4787    2.3506   -2.4100 H   0  0  0  0  0  0  0  0  0  0  0  0
    0.4418    2.2185   -0.6234 H   0  0  0  0  0  0  0  0  0  0  0  0
    0.3484    0.7472   -1.6222 H   0  0  0  0  0  0  0  0  0  0  0  0
    2.7947    2.2760   -2.0772 H   0  0  0  0  0  0  0  0  0  0  0  0
    4.4407   -0.7406   -3.6454 H   0  0  0  0  0  0  0  0  0  0  0  0
    3.6879   -1.2191   -2.1415 H   0  0  0  0  0  0  0  0  0  0  0  0
    4.3021   -3.4950   -2.7485 H   0  0  0  0  0  0  0  0  0  0  0  0
    5.9648   -5.2918   -2.5744 H   0  0  0  0  0  0  0  0  0  0  0  0
    9.0605   -2.4012   -1.9791 H   0  0  0  0  0  0  0  0  0  0  0  0
    8.5762    1.2128   -3.4894 H   0  0  0  0  0  0  0  0  0  0  0  0
    8.7988   -0.4991   -3.7884 H   0  0  0  0  0  0  0  0  0  0  0  0
   10.3318    1.3199   -2.0890 H   0  0  0  0  0  0  0  0  0  0  0  0
   10.7402   -0.3735   -2.5061 H   0  0  0  0  0  0  0  0  0  0  0  0
   11.9540    0.9911   -0.3956 H   0  0  0  0  0  0  0  0  0  0  0  0
   13.3133   -1.5271    2.5230 H   0  0  0  0  0  0  0  0  0  0  0  0
   11.8222   -3.1174    3.7257 H   0  0  0  0  0  0  0  0  0  0  0  0
    9.6699   -4.3086    3.8683 H   0  0  0  0  0  0  0  0  0  0  0  0
    7.4884   -5.2559    0.7606 H   0  0  0  0  0  0  0  0  0  0  0  0
    7.2148   -3.5728    0.3191 H   0  0  0  0  0  0  0  0  0  0  0  0
    5.3027   -5.2656    1.9557 H   0  0  0  0  0  0  0  0  0  0  0  0
    5.1348   -4.8110    0.2488 H   0  0  0  0  0  0  0  0  0  0  0  0
    5.1077   -2.4930    0.9499 H   0  0  0  0  0  0  0  0  0  0  0  0
    3.0518   -2.3992    2.1630 H   0  0  0  0  0  0  0  0  0  0  0  0
    3.1678   -4.1122    2.4707 H   0  0  0  0  0  0  0  0  0  0  0  0
    8.0976   -1.8501    0.7611 H   0  0  0  0  0  0  0  0  0  0  0  0
    6.3026    0.9681   -3.4794 H   0  0  0  0  0  0  0  0  0  0  0  0
    6.5361    1.9094   -2.0588 H   0  0  0  0  0  0  0  0  0  0  0  0
    5.7908   -0.3386    0.4797 H   0  0  0  0  0  0  0  0  0  0  0  0
    4.3702    0.1211    1.4484 H   0  0  0  0  0  0  0  0  0  0  0  0
    5.9751    2.2558   -0.0692 H   0  0  0  0  0  0  0  0  0  0  0  0
    4.4011    2.5038    0.7557 H   0  0  0  0  0  0  0  0  0  0  0  0
  1  2  1  0  0  0  0
  1 43  1  0  0  0  0
  1 44  1  0  0  0  0
  1 45  1  0  0  0  0
  2  3  1  0  0  0  0
  2 46  1  0  0  0  0
  3  4  2  0  0  0  0
  3  5  1  0  0  0  0
  5  6  1  0  0  0  0
  5 41  1  0  0  0  0
  5 42  1  0  0  0  0
  6  7  1  0  0  0  0
  6 40  1  0  0  0  0
  7  8  1  0  0  0  0
  7 47  1  0  0  0  0
  7 48  1  0  0  0  0
  8  9  1  0  0  0  0
  8 14  2  0  0  0  0
  9 10  2  0  0  0  0
  9 49  1  0  0  0  0
 10 11  1  0  0  0  0
 10 50  1  0  0  0  0
 11 12  1  0  0  0  0
 11 13  2  0  0  0  0
 13 14  1  0  0  0  0
 13 51  1  0  0  0  0
 14 15  1  0  0  0  0
 15 16  1  0  0  0  0
 15 38  1  0  0  0  0
 15 40  1  0  0  0  0
 16 17  1  0  0  0  0
 16 52  1  0  0  0  0
 16 53  1  0  0  0  0
 17 18  1  0  0  0  0
 17 54  1  0  0  0  0
 17 55  1  0  0  0  0
 18 19  1  0  0  0  0
 18 38  1  0  0  0  0
 19 20  1  0  0  0  0
 19 37  2  0  0  0  0
 20 21  2  0  0  0  0
 20 56  1  0  0  0  0
 21 22  1  0  0  0  0
 22 23  2  0  0  0  0
 22 57  1  0  0  0  0
 23 24  1  0  0  0  0
 23 37  1  0  0  0  0
 24 25  2  0  0  0  0
 24 58  1  0  0  0  0
 25 26  1  0  0  0  0
 25 59  1  0  0  0  0
 26 27  1  0  0  0  0
 26 36  2  0  0  0  0
 27 28  1  0  0  0  0
 28 29  1  0  0  0  0
 28 60  1  0  0  0  0
 28 61  1  0  0  0  0
 29 30  1  0  0  0  0
 29 62  1  0  0  0  0
 29 63  1  0  0  0  0
 30 31  1  0  0  0  0
 30 64  1  0  0  0  0
 31 32  1  0  0  0  0
 31 65  1  0  0  0  0
 31 66  1  0  0  0  0
 32 33  1  0  0  0  0
 32 34  1  0  0  0  0
 32 35  1  0  0  0  0
 36 37  1  0  0  0  0
 36 67  1  0  0  0  0
 38 39  2  0  0  0  0
 40 68  1  0  0  0  0
 40 69  1  0  0  0  0
 41 42  1  0  0  0  0
 41 70  1  0  0  0  0
 41 71  1  0  0  0  0
 42 72  1  0  0  0  0
 42 73  1  0  0  0  0
M  END
$$$$
