
 OpenBabel07202414133D

 71 77  0  0  1  0  0  0  0  0999 V2000
    1.2240   -1.9101    3.9012 C   0  0  0  0  0  0  0  0  0  0  0  0
    2.5699   -1.5650    3.4746 N   0  0  0  0  0  0  0  0  0  0  0  0
    3.4205   -2.7761    3.3963 C   0  0  0  0  0  0  0  0  0  0  0  0
    4.5586   -1.9527    4.0455 C   0  0  0  0  0  0  0  0  0  0  0  0
    5.4551   -1.2618    3.1519 O   0  0  0  0  0  0  0  0  0  0  0  0
    6.5069   -1.9562    2.6240 C   0  0  0  0  0  0  0  0  0  0  0  0
    6.6157   -3.3321    2.5096 C   0  0  0  0  0  0  0  0  0  0  0  0
    7.7503   -3.8841    1.9111 C   0  0  0  0  0  0  0  0  0  0  0  0
    8.8042   -3.0611    1.4749 C   0  0  0  0  0  0  0  0  0  0  0  0
    9.9320   -3.5736    0.8369 C   0  0  0  0  0  0  0  0  0  0  0  0
   10.9519   -2.8187    0.3779 N   0  0  0  0  0  0  0  0  0  0  0  0
   10.8892   -1.4893    0.6411 C   0  0  0  0  0  0  0  0  0  0  0  0
    9.8556   -0.8641    1.3484 C   0  0  0  0  0  0  0  0  0  0  0  0
   10.0393    0.4554    1.8655 N   0  0  0  0  0  0  0  0  0  0  0  0
    9.4292    0.9905    3.0444 C   0  0  0  0  0  0  0  0  0  0  0  0
   10.4590    1.9175    3.6674 C   0  0  0  0  0  0  0  0  0  0  0  0
   11.5972    2.0685    2.6194 C   0  0  3  0  0  0  0  0  0  0  0  0
   11.8081    3.5554    2.2813 C   0  0  0  0  0  0  0  0  0  0  0  0
   13.1698    3.9125    1.8042 N   0  0  0  0  0  0  0  0  0  0  0  0
   13.6978    3.5514    0.2283 S   0  0  0  0  0  0  0  0  0  0  0  0
   14.9411    4.2808    0.0817 O   0  0  0  0  0  0  0  0  0  0  0  0
   13.7013    2.1148    0.0686 O   0  0  0  0  0  0  0  0  0  0  0  0
   12.4830    4.3393   -0.8548 C   0  0  0  0  0  0  0  0  0  0  0  0
   12.7700    3.8336   -2.2529 C   0  0  0  0  0  0  0  0  0  0  0  0
   14.1022    4.0519   -2.7603 C   0  0  0  0  0  0  0  0  0  0  0  0
   15.1523    4.2480   -3.2191 N   0  0  0  0  0  0  0  0  0  0  0  0
   12.0013    2.6234   -2.7509 C   0  0  0  0  0  0  0  0  0  0  0  0
   11.6830    3.9710   -3.3191 C   0  0  0  0  0  0  0  0  0  0  0  0
   14.1833    3.5426    2.8258 C   0  0  0  0  0  0  0  0  0  0  0  0
   14.0889    2.0934    3.2407 C   0  0  0  0  0  0  0  0  0  0  0  0
   15.2439    1.4589    3.7333 C   0  0  0  0  0  0  0  0  0  0  0  0
   15.2095    0.1251    4.1331 C   0  0  0  0  0  0  0  0  0  0  0  0
   14.0162   -0.5793    4.0558 C   0  0  0  0  0  0  0  0  0  0  0  0
   13.9565   -2.2215    4.5667 Cl  0  0  0  0  0  0  0  0  0  0  0  0
   12.8595    0.0375    3.5757 C   0  0  0  0  0  0  0  0  0  0  0  0
   12.8708    1.3836    3.1529 C   0  0  0  0  0  0  0  0  0  0  0  0
   10.9932    1.3469    1.4084 C   0  0  0  0  0  0  0  0  0  0  0  0
   11.1977    1.5674    0.2269 O   0  0  0  0  0  0  0  0  0  0  0  0
    8.7415   -1.6622    1.6725 C   0  0  0  0  0  0  0  0  0  0  0  0
    7.5336   -1.1429    2.1677 C   0  0  0  0  0  0  0  0  0  0  0  0
    3.3982   -1.0908    4.6087 C   0  0  0  0  0  0  0  0  0  0  0  0
    0.6839   -2.3623    3.0626 H   0  0  0  0  0  0  0  0  0  0  0  0
    0.6799   -1.0058    4.1911 H   0  0  0  0  0  0  0  0  0  0  0  0
    1.1958   -2.6117    4.7425 H   0  0  0  0  0  0  0  0  0  0  0  0
    3.6027   -3.1247    2.3759 H   0  0  0  0  0  0  0  0  0  0  0  0
    3.1176   -3.6325    4.0118 H   0  0  0  0  0  0  0  0  0  0  0  0
    5.1178   -2.4621    4.8404 H   0  0  0  0  0  0  0  0  0  0  0  0
    5.8255   -3.9960    2.8373 H   0  0  0  0  0  0  0  0  0  0  0  0
    7.8059   -4.9636    1.7855 H   0  0  0  0  0  0  0  0  0  0  0  0
   10.0461   -4.6409    0.6579 H   0  0  0  0  0  0  0  0  0  0  0  0
   11.7738   -0.9463    0.3076 H   0  0  0  0  0  0  0  0  0  0  0  0
    9.1034    0.2299    3.7570 H   0  0  0  0  0  0  0  0  0  0  0  0
    8.5749    1.5960    2.7154 H   0  0  0  0  0  0  0  0  0  0  0  0
   10.8076    1.4938    4.6172 H   0  0  0  0  0  0  0  0  0  0  0  0
    9.9818    2.8698    3.9271 H   0  0  0  0  0  0  0  0  0  0  0  0
   11.6706    4.1445    3.2025 H   0  0  0  0  0  0  0  0  0  0  0  0
   11.0428    3.9427    1.6019 H   0  0  0  0  0  0  0  0  0  0  0  0
   12.6271    5.4223   -0.7771 H   0  0  0  0  0  0  0  0  0  0  0  0
   11.4730    4.0815   -0.5335 H   0  0  0  0  0  0  0  0  0  0  0  0
   11.2482    2.1687   -2.1176 H   0  0  0  0  0  0  0  0  0  0  0  0
   12.5362    1.8983   -3.3550 H   0  0  0  0  0  0  0  0  0  0  0  0
   10.7313    4.4185   -3.0601 H   0  0  0  0  0  0  0  0  0  0  0  0
   11.9788    4.1521   -4.3498 H   0  0  0  0  0  0  0  0  0  0  0  0
   14.0393    4.1770    3.7091 H   0  0  0  0  0  0  0  0  0  0  0  0
   15.1929    3.7669    2.4618 H   0  0  0  0  0  0  0  0  0  0  0  0
   16.1873    2.0002    3.7877 H   0  0  0  0  0  0  0  0  0  0  0  0
   16.1142   -0.3559    4.4947 H   0  0  0  0  0  0  0  0  0  0  0  0
   11.9479   -0.5529    3.5409 H   0  0  0  0  0  0  0  0  0  0  0  0
    7.3568   -0.0740    2.1890 H   0  0  0  0  0  0  0  0  0  0  0  0
    3.5776   -0.0108    4.6174 H   0  0  0  0  0  0  0  0  0  0  0  0
    3.0739   -1.4001    5.6105 H   0  0  0  0  0  0  0  0  0  0  0  0
  1  2  1  0  0  0  0
  1 42  1  0  0  0  0
  1 43  1  0  0  0  0
  1 44  1  0  0  0  0
  2  3  1  0  0  0  0
  2 41  1  0  0  0  0
  3  4  1  0  0  0  0
  3 45  1  0  0  0  0
  3 46  1  0  0  0  0
  4  5  1  0  0  0  0
  4 41  1  0  0  0  0
  4 47  1  0  0  0  0
  5  6  1  0  0  0  0
  6  7  1  0  0  0  0
  6 40  2  0  0  0  0
  7  8  2  0  0  0  0
  7 48  1  0  0  0  0
  8  9  1  0  0  0  0
  8 49  1  0  0  0  0
  9 10  1  0  0  0  0
  9 39  2  0  0  0  0
 10 11  2  0  0  0  0
 10 50  1  0  0  0  0
 11 12  1  0  0  0  0
 12 13  2  0  0  0  0
 12 51  1  0  0  0  0
 13 14  1  0  0  0  0
 13 39  1  0  0  0  0
 14 15  1  0  0  0  0
 14 37  1  0  0  0  0
 15 16  1  0  0  0  0
 15 52  1  0  0  0  0
 15 53  1  0  0  0  0
 16 17  1  0  0  0  0
 16 54  1  0  0  0  0
 16 55  1  0  0  0  0
 17 18  1  0  0  0  0
 17 36  1  0  0  0  0
 17 37  1  0  0  0  0
 18 19  1  0  0  0  0
 18 56  1  0  0  0  0
 18 57  1  0  0  0  0
 19 20  1  0  0  0  0
 19 29  1  0  0  0  0
 20 21  2  0  0  0  0
 20 22  2  0  0  0  0
 20 23  1  0  0  0  0
 23 24  1  0  0  0  0
 23 58  1  0  0  0  0
 23 59  1  0  0  0  0
 24 25  1  0  0  0  0
 24 27  1  0  0  0  0
 24 28  1  0  0  0  0
 25 26  3  0  0  0  0
 27 28  1  0  0  0  0
 27 60  1  0  0  0  0
 27 61  1  0  0  0  0
 28 62  1  0  0  0  0
 28 63  1  0  0  0  0
 29 30  1  0  0  0  0
 29 64  1  0  0  0  0
 29 65  1  0  0  0  0
 30 31  1  0  0  0  0
 30 36  2  0  0  0  0
 31 32  2  0  0  0  0
 31 66  1  0  0  0  0
 32 33  1  0  0  0  0
 32 67  1  0  0  0  0
 33 34  1  0  0  0  0
 33 35  2  0  0  0  0
 35 36  1  0  0  0  0
 35 68  1  0  0  0  0
 37 38  2  0  0  0  0
 39 40  1  0  0  0  0
 40 69  1  0  0  0  0
 41 70  1  0  0  0  0
 41 71  1  0  0  0  0
M  END
$$$$
