
 OpenBabel07202414183D

 60 65  0  0  1  0  0  0  0  0999 V2000
    5.2078   -0.5520    1.7008 F   0  0  0  0  0  0  0  0  0  0  0  0
    5.0248   -1.7886    2.2044 C   0  0  0  0  0  0  0  0  0  0  0  0
    3.9286   -2.3599    1.6594 F   0  0  0  0  0  0  0  0  0  0  0  0
    6.0933   -2.5205    1.7970 F   0  0  0  0  0  0  0  0  0  0  0  0
    4.9283   -1.7881    3.7230 C   0  0  0  0  0  0  0  0  0  0  0  0
    4.6781   -0.4369    4.3609 C   0  0  0  0  0  0  0  0  0  0  0  0
    3.1286    0.3160    3.8090 S   0  0  0  0  0  0  0  0  0  0  0  0
    3.1735    1.6735    4.3322 O   0  0  0  0  0  0  0  0  0  0  0  0
    2.9443    0.0619    2.4036 O   0  0  0  0  0  0  0  0  0  0  0  0
    1.9118   -0.4967    4.6385 N   0  0  0  0  0  0  0  0  0  0  0  0
    1.5329   -1.8348    4.1485 C   0  0  0  0  0  0  0  0  0  0  0  0
    0.3633   -1.8861    3.2040 C   0  0  0  0  0  0  0  0  0  0  0  0
    0.2425   -3.0092    2.3625 C   0  0  0  0  0  0  0  0  0  0  0  0
   -0.7811   -3.0938    1.4222 C   0  0  0  0  0  0  0  0  0  0  0  0
   -1.7113   -2.0686    1.3414 C   0  0  0  0  0  0  0  0  0  0  0  0
   -2.9670   -2.1377    0.1675 Cl  0  0  0  0  0  0  0  0  0  0  0  0
   -1.6211   -0.9670    2.1902 C   0  0  0  0  0  0  0  0  0  0  0  0
   -0.5767   -0.8471    3.1312 C   0  0  0  0  0  0  0  0  0  0  0  0
   -0.3850    0.4460    3.9415 C   0  0  3  0  0  0  0  0  0  0  0  0
   -1.6913    0.8687    4.6642 C   0  0  0  0  0  0  0  0  0  0  0  0
   -2.1499    2.1499    3.9935 C   0  0  0  0  0  0  0  0  0  0  0  0
   -1.4471    2.2070    2.7462 N   0  0  0  0  0  0  0  0  0  0  0  0
   -1.7742    3.1666    1.7352 C   0  0  0  0  0  0  0  0  0  0  0  0
   -0.7714    3.9060    1.0993 C   0  0  0  0  0  0  0  0  0  0  0  0
   -0.9901    4.9559    0.2730 N   0  0  0  0  0  0  0  0  0  0  0  0
   -2.2725    5.2261   -0.0260 C   0  0  0  0  0  0  0  0  0  0  0  0
   -3.3538    4.4539    0.3813 C   0  0  0  0  0  0  0  0  0  0  0  0
   -4.6327    4.6994   -0.1513 C   0  0  0  0  0  0  0  0  0  0  0  0
   -5.7183    3.9061    0.2016 C   0  0  0  0  0  0  0  0  0  0  0  0
   -5.5369    2.8694    1.1024 C   0  0  0  0  0  0  0  0  0  0  0  0
   -4.2621    2.6083    1.6205 C   0  0  0  0  0  0  0  0  0  0  0  0
   -3.1224    3.3972    1.2970 C   0  0  0  0  0  0  0  0  0  0  0  0
   -0.1883    1.6004    2.9327 C   0  0  0  0  0  0  0  0  0  0  0  0
    0.8296    1.8293    2.3053 O   0  0  0  0  0  0  0  0  0  0  0  0
    0.7161    0.3098    5.0180 C   0  0  0  0  0  0  0  0  0  0  0  0
    5.9202   -2.7035    4.4521 C   0  0  0  0  0  0  0  0  0  0  0  0
    4.4727   -3.0444    4.4745 C   0  0  0  0  0  0  0  0  0  0  0  0
    5.4784    0.2561    4.0759 H   0  0  0  0  0  0  0  0  0  0  0  0
    4.6478   -0.4765    5.4550 H   0  0  0  0  0  0  0  0  0  0  0  0
    1.3167   -2.4715    5.0160 H   0  0  0  0  0  0  0  0  0  0  0  0
    2.3689   -2.2873    3.6254 H   0  0  0  0  0  0  0  0  0  0  0  0
    0.9824   -3.8074    2.4004 H   0  0  0  0  0  0  0  0  0  0  0  0
   -0.8307   -3.9425    0.7466 H   0  0  0  0  0  0  0  0  0  0  0  0
   -2.3509   -0.1715    2.0666 H   0  0  0  0  0  0  0  0  0  0  0  0
   -1.5427    1.0693    5.7321 H   0  0  0  0  0  0  0  0  0  0  0  0
   -2.4651    0.0955    4.6074 H   0  0  0  0  0  0  0  0  0  0  0  0
   -1.8243    3.0142    4.5859 H   0  0  0  0  0  0  0  0  0  0  0  0
   -3.2332    2.1893    3.9269 H   0  0  0  0  0  0  0  0  0  0  0  0
    0.2850    3.7125    1.2515 H   0  0  0  0  0  0  0  0  0  0  0  0
   -2.4086    6.1035   -0.6534 H   0  0  0  0  0  0  0  0  0  0  0  0
   -4.7786    5.4861   -0.8893 H   0  0  0  0  0  0  0  0  0  0  0  0
   -6.6920    4.0783   -0.2497 H   0  0  0  0  0  0  0  0  0  0  0  0
   -6.3772    2.2375    1.3792 H   0  0  0  0  0  0  0  0  0  0  0  0
   -4.1715    1.7229    2.2408 H   0  0  0  0  0  0  0  0  0  0  0  0
    0.2946   -0.2249    5.8851 H   0  0  0  0  0  0  0  0  0  0  0  0
    1.0120    1.2854    5.4179 H   0  0  0  0  0  0  0  0  0  0  0  0
    6.3767   -2.3633    5.3742 H   0  0  0  0  0  0  0  0  0  0  0  0
    6.5637   -3.3627    3.8752 H   0  0  0  0  0  0  0  0  0  0  0  0
    3.9552   -2.9360    5.4227 H   0  0  0  0  0  0  0  0  0  0  0  0
    4.1316   -3.8927    3.8881 H   0  0  0  0  0  0  0  0  0  0  0  0
  1  2  1  0  0  0  0
  2  3  1  0  0  0  0
  2  4  1  0  0  0  0
  2  5  1  0  0  0  0
  5  6  1  0  0  0  0
  5 36  1  0  0  0  0
  5 37  1  0  0  0  0
  6  7  1  0  0  0  0
  6 38  1  0  0  0  0
  6 39  1  0  0  0  0
  7  8  2  0  0  0  0
  7  9  2  0  0  0  0
  7 10  1  0  0  0  0
 10 11  1  0  0  0  0
 10 35  1  0  0  0  0
 11 12  1  0  0  0  0
 11 40  1  0  0  0  0
 11 41  1  0  0  0  0
 12 13  1  0  0  0  0
 12 18  2  0  0  0  0
 13 14  2  0  0  0  0
 13 42  1  0  0  0  0
 14 15  1  0  0  0  0
 14 43  1  0  0  0  0
 15 16  1  0  0  0  0
 15 17  2  0  0  0  0
 17 18  1  0  0  0  0
 17 44  1  0  0  0  0
 18 19  1  0  0  0  0
 19 20  1  0  0  0  0
 19 33  1  0  0  0  0
 19 35  1  0  0  0  0
 20 21  1  0  0  0  0
 20 45  1  0  0  0  0
 20 46  1  0  0  0  0
 21 22  1  0  0  0  0
 21 47  1  0  0  0  0
 21 48  1  0  0  0  0
 22 23  1  0  0  0  0
 22 33  1  0  0  0  0
 23 24  1  0  0  0  0
 23 32  2  0  0  0  0
 24 25  2  0  0  0  0
 24 49  1  0  0  0  0
 25 26  1  0  0  0  0
 26 27  2  0  0  0  0
 26 50  1  0  0  0  0
 27 28  1  0  0  0  0
 27 32  1  0  0  0  0
 28 29  2  0  0  0  0
 28 51  1  0  0  0  0
 29 30  1  0  0  0  0
 29 52  1  0  0  0  0
 30 31  2  0  0  0  0
 30 53  1  0  0  0  0
 31 32  1  0  0  0  0
 31 54  1  0  0  0  0
 33 34  2  0  0  0  0
 35 55  1  0  0  0  0
 35 56  1  0  0  0  0
 36 37  1  0  0  0  0
 36 57  1  0  0  0  0
 36 58  1  0  0  0  0
 37 59  1  0  0  0  0
 37 60  1  0  0  0  0
M  END
$$$$
