
 OpenBabel07202414173D

 48 52  0  0  0  0  0  0  0  0999 V2000
   10.3764    0.2278    2.9745 Cl  0  0  0  0  0  0  0  0  0  0  0  0
    8.8379    0.4026    2.2214 C   0  0  0  0  0  0  0  0  0  0  0  0
    8.1322   -0.7351    1.8400 C   0  0  0  0  0  0  0  0  0  0  0  0
    6.8769   -0.5893    1.2204 C   0  0  0  0  0  0  0  0  0  0  0  0
    6.3664    0.6855    0.9983 C   0  0  0  0  0  0  0  0  0  0  0  0
    4.8479    0.5420    0.1975 S   0  0  0  0  0  0  0  0  0  0  0  0
    4.9688   -1.1801    0.2462 C   0  0  0  0  0  0  0  0  0  0  0  0
    3.9859   -1.9516   -0.2819 N   0  0  0  0  0  0  0  0  0  0  0  0
    3.8522   -3.3463   -0.1271 C   0  0  0  0  0  0  0  0  0  0  0  0
    3.2220   -4.0957   -1.1389 C   0  0  0  0  0  0  0  0  0  0  0  0
    3.1587   -5.5005   -1.0783 C   0  0  0  0  0  0  0  0  0  0  0  0
    2.5784   -6.3113   -2.2142 C   0  0  0  0  0  0  0  0  0  0  0  0
    1.1341   -6.0163   -2.5684 C   0  0  0  0  0  0  0  0  0  0  0  0
    0.7962   -5.8221   -3.7330 O   0  0  0  0  0  0  0  0  0  0  0  0
    0.2677   -6.0223   -1.4899 N   0  0  0  0  0  0  0  0  0  0  0  0
   -1.1246   -5.8136   -1.6338 C   0  0  0  0  0  0  0  0  0  0  0  0
   -1.8498   -6.4671   -2.6327 C   0  0  0  0  0  0  0  0  0  0  0  0
   -3.1879   -6.3643   -2.7964 N   0  0  0  0  0  0  0  0  0  0  0  0
   -3.8316   -5.5409   -1.9420 C   0  0  0  0  0  0  0  0  0  0  0  0
   -3.2142   -4.8118   -0.9219 C   0  0  0  0  0  0  0  0  0  0  0  0
   -3.9424   -3.9336   -0.1015 C   0  0  0  0  0  0  0  0  0  0  0  0
   -3.3003   -3.1769    0.8777 C   0  0  0  0  0  0  0  0  0  0  0  0
   -1.9280   -3.2955    1.0518 C   0  0  0  0  0  0  0  0  0  0  0  0
   -1.1950   -4.1734    0.2529 C   0  0  0  0  0  0  0  0  0  0  0  0
   -1.8188   -4.9556   -0.7494 C   0  0  0  0  0  0  0  0  0  0  0  0
    3.7275   -6.1586    0.0197 C   0  0  0  0  0  0  0  0  0  0  0  0
    4.3514   -5.4285    1.0253 C   0  0  0  0  0  0  0  0  0  0  0  0
    5.0689   -6.2486    2.3572 Cl  0  0  0  0  0  0  0  0  0  0  0  0
    4.4163   -4.0413    0.9517 C   0  0  0  0  0  0  0  0  0  0  0  0
    6.0711   -1.6258    0.7991 N   0  0  0  0  0  0  0  0  0  0  0  0
    7.0652    1.8406    1.3958 C   0  0  0  0  0  0  0  0  0  0  0  0
    8.3119    1.6745    2.0126 C   0  0  0  0  0  0  0  0  0  0  0  0
    8.5292   -1.7316    2.0049 H   0  0  0  0  0  0  0  0  0  0  0  0
    3.2998   -1.5073   -0.8742 H   0  0  0  0  0  0  0  0  0  0  0  0
    2.8172   -3.5821   -2.0107 H   0  0  0  0  0  0  0  0  0  0  0  0
    2.6366   -7.3841   -1.9939 H   0  0  0  0  0  0  0  0  0  0  0  0
    3.1949   -6.1375   -3.1046 H   0  0  0  0  0  0  0  0  0  0  0  0
    0.6722   -5.8419   -0.5806 H   0  0  0  0  0  0  0  0  0  0  0  0
   -1.3670   -7.1471   -3.3300 H   0  0  0  0  0  0  0  0  0  0  0  0
   -4.9025   -5.4677   -2.1171 H   0  0  0  0  0  0  0  0  0  0  0  0
   -5.0165   -3.8174   -0.2348 H   0  0  0  0  0  0  0  0  0  0  0  0
   -3.8706   -2.4868    1.4945 H   0  0  0  0  0  0  0  0  0  0  0  0
   -1.4185   -2.6899    1.7996 H   0  0  0  0  0  0  0  0  0  0  0  0
   -0.1199   -4.2050    0.4043 H   0  0  0  0  0  0  0  0  0  0  0  0
    3.7147   -7.2456    0.0821 H   0  0  0  0  0  0  0  0  0  0  0  0
    4.9185   -3.5017    1.7506 H   0  0  0  0  0  0  0  0  0  0  0  0
    6.6561    2.8319    1.2250 H   0  0  0  0  0  0  0  0  0  0  0  0
    8.8706    2.5522    2.3256 H   0  0  0  0  0  0  0  0  0  0  0  0
  1  2  1  0  0  0  0
  2  3  2  0  0  0  0
  2 32  1  0  0  0  0
  3  4  1  0  0  0  0
  3 33  1  0  0  0  0
  4  5  2  0  0  0  0
  4 30  1  0  0  0  0
  5  6  1  0  0  0  0
  5 31  1  0  0  0  0
  6  7  1  0  0  0  0
  7  8  1  0  0  0  0
  7 30  2  0  0  0  0
  8  9  1  0  0  0  0
  8 34  1  0  0  0  0
  9 10  2  0  0  0  0
  9 29  1  0  0  0  0
 10 11  1  0  0  0  0
 10 35  1  0  0  0  0
 11 12  1  0  0  0  0
 11 26  2  0  0  0  0
 12 13  1  0  0  0  0
 12 36  1  0  0  0  0
 12 37  1  0  0  0  0
 13 14  2  0  0  0  0
 13 15  1  0  0  0  0
 15 16  1  0  0  0  0
 15 38  1  0  0  0  0
 16 17  2  0  0  0  0
 16 25  1  0  0  0  0
 17 18  1  0  0  0  0
 17 39  1  0  0  0  0
 18 19  2  0  0  0  0
 19 20  1  0  0  0  0
 19 40  1  0  0  0  0
 20 21  2  0  0  0  0
 20 25  1  0  0  0  0
 21 22  1  0  0  0  0
 21 41  1  0  0  0  0
 22 23  2  0  0  0  0
 22 42  1  0  0  0  0
 23 24  1  0  0  0  0
 23 43  1  0  0  0  0
 24 25  2  0  0  0  0
 24 44  1  0  0  0  0
 26 27  1  0  0  0  0
 26 45  1  0  0  0  0
 27 28  1  0  0  0  0
 27 29  2  0  0  0  0
 29 46  1  0  0  0  0
 31 32  2  0  0  0  0
 31 47  1  0  0  0  0
 32 48  1  0  0  0  0
M  END
$$$$
