
 OpenBabel07202414123D

 65 68  0  0  1  0  0  0  0  0999 V2000
    2.9752    1.9074    0.6184 C   0  0  0  0  0  0  0  0  0  0  0  0
    2.5741    0.4726    0.2207 C   0  0  0  0  0  0  0  0  0  0  0  0
    1.0277    0.4647    0.1050 C   0  0  0  0  0  0  0  0  0  0  0  0
    3.1678    0.1758   -1.1721 C   0  0  0  0  0  0  0  0  0  0  0  0
    3.0204   -0.5818    1.2492 C   0  0  0  0  0  0  0  0  0  0  0  0
    3.9605   -0.3556    2.2587 C   0  0  0  0  0  0  0  0  0  0  0  0
    4.2528   -1.3392    3.2350 C   0  0  0  0  0  0  0  0  0  0  0  0
    3.5731   -2.5675    3.2993 C   0  0  0  0  0  0  0  0  0  0  0  0
    3.8324   -3.5804    4.3384 N   0  0  0  0  0  0  0  0  0  0  0  0
    3.4408   -5.0313    4.0905 C   0  0  3  0  0  0  0  0  0  0  0  0
    3.0932   -5.4746    2.6117 C   0  0  0  0  0  0  0  0  0  0  0  0
    3.8657   -5.3352    1.6655 O   0  0  0  0  0  0  0  0  0  0  0  0
    1.8212   -6.0155    2.4498 N   0  0  0  0  0  0  0  0  0  0  0  0
    1.2950   -6.2914    1.1196 C   0  0  0  0  0  0  0  0  0  0  0  0
   -0.1256   -6.8549    1.1702 C   0  0  0  0  0  0  0  0  0  0  0  0
   -0.6867   -7.1541   -0.1971 C   0  0  0  0  0  0  0  0  0  0  0  0
   -1.4578   -6.2035   -0.8823 C   0  0  0  0  0  0  0  0  0  0  0  0
   -1.9827   -6.4894   -2.1482 C   0  0  0  0  0  0  0  0  0  0  0  0
   -1.7367   -7.7261   -2.7402 C   0  0  0  0  0  0  0  0  0  0  0  0
   -0.9673   -8.6651   -2.0657 C   0  0  0  0  0  0  0  0  0  0  0  0
   -0.7323   -9.8558   -2.6326 F   0  0  0  0  0  0  0  0  0  0  0  0
   -0.4391   -8.3914   -0.8071 C   0  0  0  0  0  0  0  0  0  0  0  0
    4.4458   -6.1007    4.4956 C   0  0  0  0  0  0  0  0  0  0  0  0
    4.0098   -7.3987    4.7389 C   0  0  0  0  0  0  0  0  0  0  0  0
    4.8205   -8.4579    4.9180 N   0  0  0  0  0  0  0  0  0  0  0  0
    6.1308   -8.1895    4.8535 C   0  0  0  0  0  0  0  0  0  0  0  0
    6.6786   -6.9785    4.6636 N   0  0  0  0  0  0  0  0  0  0  0  0
    5.8152   -5.9570    4.4704 C   0  0  0  0  0  0  0  0  0  0  0  0
    4.1959   -3.0947    5.6365 C   0  0  0  0  0  0  0  0  0  0  0  0
    4.4539   -1.9158    5.8778 O   0  0  0  0  0  0  0  0  0  0  0  0
    4.2928   -4.0123    6.7797 C   0  0  0  0  0  0  0  0  0  0  0  0
    5.1552   -3.8069    7.8429 C   0  0  0  0  0  0  0  0  0  0  0  0
    4.9733   -4.7991    8.7508 O   0  0  0  0  0  0  0  0  0  0  0  0
    3.9866   -5.5604    8.1938 C   0  0  0  0  0  0  0  0  0  0  0  0
    3.5323   -5.1382    7.0395 N   0  0  0  0  0  0  0  0  0  0  0  0
    2.6023   -2.7378    2.3130 C   0  0  0  0  0  0  0  0  0  0  0  0
    2.4052   -1.8330    1.2622 C   0  0  0  0  0  0  0  0  0  0  0  0
    2.5724    2.6396   -0.0915 H   0  0  0  0  0  0  0  0  0  0  0  0
    4.0627    2.0396    0.6324 H   0  0  0  0  0  0  0  0  0  0  0  0
    2.5881    2.1660    1.6111 H   0  0  0  0  0  0  0  0  0  0  0  0
    0.6749    1.2254   -0.5992 H   0  0  0  0  0  0  0  0  0  0  0  0
    0.5628    0.6620    1.0786 H   0  0  0  0  0  0  0  0  0  0  0  0
    0.6348   -0.4911   -0.2586 H   0  0  0  0  0  0  0  0  0  0  0  0
    2.7659    0.8711   -1.9201 H   0  0  0  0  0  0  0  0  0  0  0  0
    2.9336   -0.8391   -1.5142 H   0  0  0  0  0  0  0  0  0  0  0  0
    4.2588    0.2852   -1.1774 H   0  0  0  0  0  0  0  0  0  0  0  0
    4.4898    0.5921    2.3345 H   0  0  0  0  0  0  0  0  0  0  0  0
    5.0332   -1.0819    3.9453 H   0  0  0  0  0  0  0  0  0  0  0  0
    2.5344   -5.1651    4.6958 H   0  0  0  0  0  0  0  0  0  0  0  0
    1.2731   -6.2801    3.2588 H   0  0  0  0  0  0  0  0  0  0  0  0
    1.9818   -6.9817    0.6177 H   0  0  0  0  0  0  0  0  0  0  0  0
    1.3123   -5.3503    0.5549 H   0  0  0  0  0  0  0  0  0  0  0  0
   -0.7894   -6.1525    1.6919 H   0  0  0  0  0  0  0  0  0  0  0  0
   -0.1400   -7.7705    1.7752 H   0  0  0  0  0  0  0  0  0  0  0  0
   -1.6646   -5.2327   -0.4358 H   0  0  0  0  0  0  0  0  0  0  0  0
   -2.5839   -5.7488   -2.6693 H   0  0  0  0  0  0  0  0  0  0  0  0
   -2.1390   -7.9647   -3.7202 H   0  0  0  0  0  0  0  0  0  0  0  0
    0.1569   -9.1532   -0.3137 H   0  0  0  0  0  0  0  0  0  0  0  0
    2.9519   -7.6481    4.7587 H   0  0  0  0  0  0  0  0  0  0  0  0
    6.8082   -9.0303    4.9513 H   0  0  0  0  0  0  0  0  0  0  0  0
    6.2885   -4.9997    4.2686 H   0  0  0  0  0  0  0  0  0  0  0  0
    5.8952   -3.0544    8.0776 H   0  0  0  0  0  0  0  0  0  0  0  0
    3.6798   -6.4198    8.7772 H   0  0  0  0  0  0  0  0  0  0  0  0
    1.8996   -3.5570    2.3202 H   0  0  0  0  0  0  0  0  0  0  0  0
    1.7098   -2.1239    0.4806 H   0  0  0  0  0  0  0  0  0  0  0  0
  1  2  1  0  0  0  0
  1 38  1  0  0  0  0
  1 39  1  0  0  0  0
  1 40  1  0  0  0  0
  2  3  1  0  0  0  0
  2  4  1  0  0  0  0
  2  5  1  0  0  0  0
  3 41  1  0  0  0  0
  3 42  1  0  0  0  0
  3 43  1  0  0  0  0
  4 44  1  0  0  0  0
  4 45  1  0  0  0  0
  4 46  1  0  0  0  0
  5  6  1  0  0  0  0
  5 37  2  0  0  0  0
  6  7  2  0  0  0  0
  6 47  1  0  0  0  0
  7  8  1  0  0  0  0
  7 48  1  0  0  0  0
  8  9  1  0  0  0  0
  8 36  2  0  0  0  0
  9 10  1  0  0  0  0
  9 29  1  0  0  0  0
 10 11  1  0  0  0  0
 10 23  1  0  0  0  0
 10 49  1  0  0  0  0
 11 12  2  0  0  0  0
 11 13  1  0  0  0  0
 13 14  1  0  0  0  0
 13 50  1  0  0  0  0
 14 15  1  0  0  0  0
 14 51  1  0  0  0  0
 14 52  1  0  0  0  0
 15 16  1  0  0  0  0
 15 53  1  0  0  0  0
 15 54  1  0  0  0  0
 16 17  1  0  0  0  0
 16 22  2  0  0  0  0
 17 18  2  0  0  0  0
 17 55  1  0  0  0  0
 18 19  1  0  0  0  0
 18 56  1  0  0  0  0
 19 20  2  0  0  0  0
 19 57  1  0  0  0  0
 20 21  1  0  0  0  0
 20 22  1  0  0  0  0
 22 58  1  0  0  0  0
 23 24  1  0  0  0  0
 23 28  2  0  0  0  0
 24 25  2  0  0  0  0
 24 59  1  0  0  0  0
 25 26  1  0  0  0  0
 26 27  2  0  0  0  0
 26 60  1  0  0  0  0
 27 28  1  0  0  0  0
 28 61  1  0  0  0  0
 29 30  2  0  0  0  0
 29 31  1  0  0  0  0
 31 32  2  0  0  0  0
 31 35  1  0  0  0  0
 32 33  1  0  0  0  0
 32 62  1  0  0  0  0
 33 34  1  0  0  0  0
 34 35  2  0  0  0  0
 34 63  1  0  0  0  0
 36 37  1  0  0  0  0
 36 64  1  0  0  0  0
 37 65  1  0  0  0  0
M  END
$$$$
