
 OpenBabel07202414163D

 37 39  0  0  0  0  0  0  0  0999 V2000
    0.8656   -0.1191   -0.0617 C   0  0  0  0  0  0  0  0  0  0  0  0
    2.3644   -0.0866    0.0114 C   0  0  0  0  0  0  0  0  0  0  0  0
    3.0391    1.1324    0.0476 C   0  0  0  0  0  0  0  0  0  0  0  0
    4.4273    1.1570    0.1350 C   0  0  0  0  0  0  0  0  0  0  0  0
    5.1659   -0.0355    0.1777 C   0  0  0  0  0  0  0  0  0  0  0  0
    6.5562    0.0062    0.2574 C   0  0  0  0  0  0  0  0  0  0  0  0
    7.3524   -1.0779    0.2861 N   0  0  0  0  0  0  0  0  0  0  0  0
    6.7334   -2.2775    0.2042 C   0  0  0  0  0  0  0  0  0  0  0  0
    5.3497   -2.4632    0.1144 C   0  0  0  0  0  0  0  0  0  0  0  0
    4.7781   -3.7636    0.0153 N   0  0  0  0  0  0  0  0  0  0  0  0
    5.4534   -4.9100   -0.3845 C   0  0  0  0  0  0  0  0  0  0  0  0
    6.6185   -4.9526   -0.7732 O   0  0  0  0  0  0  0  0  0  0  0  0
    4.6128   -6.1741   -0.3342 C   0  0  0  0  0  0  0  0  0  0  0  0
    3.8748   -6.4676   -1.6192 C   0  0  0  0  0  0  0  0  0  0  0  0
    4.5726   -6.6659   -2.8239 C   0  0  0  0  0  0  0  0  0  0  0  0
    3.8880   -6.9873   -3.9975 C   0  0  0  0  0  0  0  0  0  0  0  0
    2.5007   -7.1226   -3.9839 C   0  0  0  0  0  0  0  0  0  0  0  0
    1.8024   -6.9311   -2.7943 C   0  0  0  0  0  0  0  0  0  0  0  0
    0.0905   -7.1054   -2.7701 Cl  0  0  0  0  0  0  0  0  0  0  0  0
    2.4777   -6.6084   -1.6157 C   0  0  0  0  0  0  0  0  0  0  0  0
    4.5249   -1.2984    0.1278 C   0  0  0  0  0  0  0  0  0  0  0  0
    3.1030   -1.2841    0.0596 C   0  0  0  0  0  0  0  0  0  0  0  0
    0.4545    0.8765   -0.2635 H   0  0  0  0  0  0  0  0  0  0  0  0
    0.4508   -0.4715    0.8875 H   0  0  0  0  0  0  0  0  0  0  0  0
    0.5375   -0.7794   -0.8702 H   0  0  0  0  0  0  0  0  0  0  0  0
    2.4928    2.0723    0.0036 H   0  0  0  0  0  0  0  0  0  0  0  0
    4.9328    2.1207    0.1558 H   0  0  0  0  0  0  0  0  0  0  0  0
    7.0908    0.9507    0.2998 H   0  0  0  0  0  0  0  0  0  0  0  0
    7.4280   -3.1102    0.2435 H   0  0  0  0  0  0  0  0  0  0  0  0
    3.7740   -3.8349    0.1014 H   0  0  0  0  0  0  0  0  0  0  0  0
    3.9188   -6.1103    0.5123 H   0  0  0  0  0  0  0  0  0  0  0  0
    5.2816   -7.0148   -0.1090 H   0  0  0  0  0  0  0  0  0  0  0  0
    5.6579   -6.5717   -2.8522 H   0  0  0  0  0  0  0  0  0  0  0  0
    4.4406   -7.1423   -4.9210 H   0  0  0  0  0  0  0  0  0  0  0  0
    1.9744   -7.3846   -4.8980 H   0  0  0  0  0  0  0  0  0  0  0  0
    1.9148   -6.4849   -0.6969 H   0  0  0  0  0  0  0  0  0  0  0  0
    2.5431   -2.2143    0.0283 H   0  0  0  0  0  0  0  0  0  0  0  0
  1  2  1  0  0  0  0
  1 23  1  0  0  0  0
  1 24  1  0  0  0  0
  1 25  1  0  0  0  0
  2  3  1  0  0  0  0
  2 22  2  0  0  0  0
  3  4  2  0  0  0  0
  3 26  1  0  0  0  0
  4  5  1  0  0  0  0
  4 27  1  0  0  0  0
  5  6  1  0  0  0  0
  5 21  2  0  0  0  0
  6  7  2  0  0  0  0
  6 28  1  0  0  0  0
  7  8  1  0  0  0  0
  8  9  2  0  0  0  0
  8 29  1  0  0  0  0
  9 10  1  0  0  0  0
  9 21  1  0  0  0  0
 10 11  1  0  0  0  0
 10 30  1  0  0  0  0
 11 12  2  0  0  0  0
 11 13  1  0  0  0  0
 13 14  1  0  0  0  0
 13 31  1  0  0  0  0
 13 32  1  0  0  0  0
 14 15  1  0  0  0  0
 14 20  2  0  0  0  0
 15 16  2  0  0  0  0
 15 33  1  0  0  0  0
 16 17  1  0  0  0  0
 16 34  1  0  0  0  0
 17 18  2  0  0  0  0
 17 35  1  0  0  0  0
 18 19  1  0  0  0  0
 18 20  1  0  0  0  0
 20 36  1  0  0  0  0
 21 22  1  0  0  0  0
 22 37  1  0  0  0  0
M  END
$$$$
