
 OpenBabel07202414193D

 67 72  0  0  1  0  0  0  0  0999 V2000
   13.4198    3.5372    3.0212 N   0  0  0  0  0  0  0  0  0  0  0  0
   12.2940    3.8550    2.3226 C   0  0  0  0  0  0  0  0  0  0  0  0
   12.0620    5.0016    1.9713 O   0  0  0  0  0  0  0  0  0  0  0  0
   11.4243    2.7167    2.0194 C   0  0  0  0  0  0  0  0  0  0  0  0
   10.2352    2.7415    1.2532 C   0  0  0  0  0  0  0  0  0  0  0  0
    9.8242    1.4353    1.1798 C   0  0  0  0  0  0  0  0  0  0  0  0
   10.7329    0.6865    1.8936 N   0  0  0  0  0  0  0  0  0  0  0  0
   10.7100   -0.7319    2.0433 C   0  0  0  0  0  0  0  0  0  0  0  0
   11.6727   -1.3461    2.8392 C   0  0  0  0  0  0  0  0  0  0  0  0
   11.6290   -2.7312    2.9827 C   0  0  0  0  0  0  0  0  0  0  0  0
   10.6363   -3.4723    2.3320 C   0  0  0  0  0  0  0  0  0  0  0  0
   10.5251   -4.9666    2.4965 C   0  0  0  0  0  0  0  0  0  0  0  0
   10.3675   -5.2964    3.9098 N   0  0  0  0  0  0  0  0  0  0  0  0
   10.1213   -6.7222    4.1603 C   0  0  0  0  0  0  0  0  0  0  0  0
    9.9508   -7.0335    5.6938 C   0  0  3  0  0  0  0  0  0  0  0  0
    8.6554   -6.3496    6.2277 C   0  0  0  0  0  0  0  0  0  0  0  0
    8.1166   -5.4316    5.6049 O   0  0  0  0  0  0  0  0  0  0  0  0
    8.1986   -6.7658    7.4716 N   0  0  0  0  0  0  0  0  0  0  0  0
    6.9777   -6.3064    8.0418 C   0  0  0  0  0  0  0  0  0  0  0  0
    5.8351   -6.1372    7.2533 C   0  0  0  0  0  0  0  0  0  0  0  0
    4.6253   -5.7481    7.7181 N   0  0  0  0  0  0  0  0  0  0  0  0
    4.5379   -5.5346    9.0464 C   0  0  0  0  0  0  0  0  0  0  0  0
    5.5891   -5.7087    9.9463 C   0  0  0  0  0  0  0  0  0  0  0  0
    5.3970   -5.5280   11.3267 C   0  0  0  0  0  0  0  0  0  0  0  0
    6.4600   -5.6702   12.2134 C   0  0  0  0  0  0  0  0  0  0  0  0
    7.7353   -5.9244   11.7228 C   0  0  0  0  0  0  0  0  0  0  0  0
    7.9347   -6.1223   10.3524 C   0  0  0  0  0  0  0  0  0  0  0  0
    6.8586   -6.0725    9.4348 C   0  0  0  0  0  0  0  0  0  0  0  0
   11.1582   -6.4866    6.4893 C   0  0  0  0  0  0  0  0  0  0  0  0
   12.3853   -7.3342    6.1984 C   0  0  0  0  0  0  0  0  0  0  0  0
   12.2101   -8.6667    6.6784 O   0  0  0  0  0  0  0  0  0  0  0  0
   11.0224   -9.2533    6.3392 C   0  0  0  0  0  0  0  0  0  0  0  0
   10.9632  -10.6342    6.5326 C   0  0  0  0  0  0  0  0  0  0  0  0
    9.7969  -11.3406    6.2413 C   0  0  0  0  0  0  0  0  0  0  0  0
    8.6867  -10.6589    5.7525 C   0  0  0  0  0  0  0  0  0  0  0  0
    7.2378  -11.5188    5.4095 Cl  0  0  0  0  0  0  0  0  0  0  0  0
    8.7385   -9.2808    5.5523 C   0  0  0  0  0  0  0  0  0  0  0  0
    9.9034   -8.5538    5.8665 C   0  0  0  0  0  0  0  0  0  0  0  0
    9.7320   -2.7698    1.5444 C   0  0  0  0  0  0  0  0  0  0  0  0
    9.7415   -1.4277    1.3872 N   0  0  0  0  0  0  0  0  0  0  0  0
   11.7110    1.4641    2.4388 N   0  0  0  0  0  0  0  0  0  0  0  0
   14.1250    4.2558    3.1630 H   0  0  0  0  0  0  0  0  0  0  0  0
   13.6268    2.5663    3.2123 H   0  0  0  0  0  0  0  0  0  0  0  0
    9.7690    3.6026    0.7946 H   0  0  0  0  0  0  0  0  0  0  0  0
    8.9868    0.9644    0.6828 H   0  0  0  0  0  0  0  0  0  0  0  0
   12.4365   -0.7724    3.3548 H   0  0  0  0  0  0  0  0  0  0  0  0
   12.3549   -3.2292    3.6221 H   0  0  0  0  0  0  0  0  0  0  0  0
   11.4306   -5.4301    2.0873 H   0  0  0  0  0  0  0  0  0  0  0  0
    9.6721   -5.3412    1.9175 H   0  0  0  0  0  0  0  0  0  0  0  0
    9.5560   -4.7757    4.2728 H   0  0  0  0  0  0  0  0  0  0  0  0
   10.9603   -7.2992    3.7513 H   0  0  0  0  0  0  0  0  0  0  0  0
    9.2277   -7.0495    3.6117 H   0  0  0  0  0  0  0  0  0  0  0  0
    8.8240   -7.2905    8.0707 H   0  0  0  0  0  0  0  0  0  0  0  0
    5.8395   -6.3678    6.1913 H   0  0  0  0  0  0  0  0  0  0  0  0
    3.5588   -5.2005    9.3833 H   0  0  0  0  0  0  0  0  0  0  0  0
    4.4115   -5.2843   11.7194 H   0  0  0  0  0  0  0  0  0  0  0  0
    6.2939   -5.5663   13.2827 H   0  0  0  0  0  0  0  0  0  0  0  0
    8.5786   -5.9674   12.4076 H   0  0  0  0  0  0  0  0  0  0  0  0
    8.9519   -6.2878   10.0079 H   0  0  0  0  0  0  0  0  0  0  0  0
   10.9543   -6.5203    7.5670 H   0  0  0  0  0  0  0  0  0  0  0  0
   11.3579   -5.4365    6.2494 H   0  0  0  0  0  0  0  0  0  0  0  0
   13.2537   -6.9130    6.7158 H   0  0  0  0  0  0  0  0  0  0  0  0
   12.6468   -7.3652    5.1343 H   0  0  0  0  0  0  0  0  0  0  0  0
   11.8318  -11.1670    6.9140 H   0  0  0  0  0  0  0  0  0  0  0  0
    9.7636  -12.4125    6.3947 H   0  0  0  0  0  0  0  0  0  0  0  0
    7.8563   -8.7748    5.1673 H   0  0  0  0  0  0  0  0  0  0  0  0
    8.9378   -3.2794    1.0047 H   0  0  0  0  0  0  0  0  0  0  0  0
  1  2  1  0  0  0  0
  1 42  1  0  0  0  0
  1 43  1  0  0  0  0
  2  3  2  0  0  0  0
  2  4  1  0  0  0  0
  4  5  1  0  0  0  0
  4 41  2  0  0  0  0
  5  6  2  0  0  0  0
  5 44  1  0  0  0  0
  6  7  1  0  0  0  0
  6 45  1  0  0  0  0
  7  8  1  0  0  0  0
  7 41  1  0  0  0  0
  8  9  1  0  0  0  0
  8 40  2  0  0  0  0
  9 10  2  0  0  0  0
  9 46  1  0  0  0  0
 10 11  1  0  0  0  0
 10 47  1  0  0  0  0
 11 12  1  0  0  0  0
 11 39  2  0  0  0  0
 12 13  1  0  0  0  0
 12 48  1  0  0  0  0
 12 49  1  0  0  0  0
 13 14  1  0  0  0  0
 13 50  1  0  0  0  0
 14 15  1  0  0  0  0
 14 51  1  0  0  0  0
 14 52  1  0  0  0  0
 15 16  1  0  0  0  0
 15 29  1  0  0  0  0
 15 38  1  0  0  0  0
 16 17  2  0  0  0  0
 16 18  1  0  0  0  0
 18 19  1  0  0  0  0
 18 53  1  0  0  0  0
 19 20  1  0  0  0  0
 19 28  2  0  0  0  0
 20 21  2  0  0  0  0
 20 54  1  0  0  0  0
 21 22  1  0  0  0  0
 22 23  2  0  0  0  0
 22 55  1  0  0  0  0
 23 24  1  0  0  0  0
 23 28  1  0  0  0  0
 24 25  2  0  0  0  0
 24 56  1  0  0  0  0
 25 26  1  0  0  0  0
 25 57  1  0  0  0  0
 26 27  2  0  0  0  0
 26 58  1  0  0  0  0
 27 28  1  0  0  0  0
 27 59  1  0  0  0  0
 29 30  1  0  0  0  0
 29 60  1  0  0  0  0
 29 61  1  0  0  0  0
 30 31  1  0  0  0  0
 30 62  1  0  0  0  0
 30 63  1  0  0  0  0
 31 32  1  0  0  0  0
 32 33  1  0  0  0  0
 32 38  2  0  0  0  0
 33 34  2  0  0  0  0
 33 64  1  0  0  0  0
 34 35  1  0  0  0  0
 34 65  1  0  0  0  0
 35 36  1  0  0  0  0
 35 37  2  0  0  0  0
 37 38  1  0  0  0  0
 37 66  1  0  0  0  0
 39 40  1  0  0  0  0
 39 67  1  0  0  0  0
M  END
$$$$
