
 OpenBabel07202414163D

 33 34  0  0  0  0  0  0  0  0999 V2000
    1.7318    2.2415   -0.2730 C   0  0  0  0  0  0  0  0  0  0  0  0
    0.8240    1.0463   -0.3150 C   0  0  0  0  0  0  0  0  0  0  0  0
    1.4124   -0.2137   -0.5210 C   0  0  0  0  0  0  0  0  0  0  0  0
    0.6139   -1.3458   -0.5583 C   0  0  0  0  0  0  0  0  0  0  0  0
   -0.7140   -1.3145   -0.3792 N   0  0  0  0  0  0  0  0  0  0  0  0
   -1.2709   -0.0919   -0.1823 C   0  0  0  0  0  0  0  0  0  0  0  0
   -0.5712    1.1232   -0.1573 C   0  0  0  0  0  0  0  0  0  0  0  0
   -1.2253    2.3814    0.0191 N   0  0  0  0  0  0  0  0  0  0  0  0
   -2.5761    2.5968   -0.2191 C   0  0  0  0  0  0  0  0  0  0  0  0
   -3.3066    1.7049   -0.6592 O   0  0  0  0  0  0  0  0  0  0  0  0
   -3.0486    3.8956   -0.0098 N   0  0  0  0  0  0  0  0  0  0  0  0
   -2.2954    5.0092    0.5580 C   0  0  0  0  0  0  0  0  0  0  0  0
   -4.3688    4.2040   -0.4817 C   0  0  0  0  0  0  0  0  0  0  0  0
   -5.4621    3.4014   -0.1205 C   0  0  0  0  0  0  0  0  0  0  0  0
   -6.7238    3.6150   -0.6798 C   0  0  0  0  0  0  0  0  0  0  0  0
   -6.9007    4.6250   -1.6219 C   0  0  0  0  0  0  0  0  0  0  0  0
   -5.8222    5.4357   -1.9717 C   0  0  0  0  0  0  0  0  0  0  0  0
   -4.5659    5.2503   -1.3895 C   0  0  0  0  0  0  0  0  0  0  0  0
   -6.0282    6.6468   -3.1789 Cl  0  0  0  0  0  0  0  0  0  0  0  0
    2.7492    1.9833   -0.5880 H   0  0  0  0  0  0  0  0  0  0  0  0
    1.7910    2.6371    0.7465 H   0  0  0  0  0  0  0  0  0  0  0  0
    1.3792    3.0239   -0.9521 H   0  0  0  0  0  0  0  0  0  0  0  0
    2.4841   -0.3227   -0.6601 H   0  0  0  0  0  0  0  0  0  0  0  0
    1.0365   -2.3303   -0.7325 H   0  0  0  0  0  0  0  0  0  0  0  0
   -2.3405   -0.1482   -0.0213 H   0  0  0  0  0  0  0  0  0  0  0  0
   -0.6327    3.1943    0.0397 H   0  0  0  0  0  0  0  0  0  0  0  0
   -1.4510    4.6602    1.1583 H   0  0  0  0  0  0  0  0  0  0  0  0
   -2.9509    5.5840    1.2245 H   0  0  0  0  0  0  0  0  0  0  0  0
   -1.9238    5.6553   -0.2410 H   0  0  0  0  0  0  0  0  0  0  0  0
   -5.3341    2.5871    0.5901 H   0  0  0  0  0  0  0  0  0  0  0  0
   -7.5548    2.9715   -0.4024 H   0  0  0  0  0  0  0  0  0  0  0  0
   -7.8714    4.7609   -2.0909 H   0  0  0  0  0  0  0  0  0  0  0  0
   -3.7341    5.8629   -1.7197 H   0  0  0  0  0  0  0  0  0  0  0  0
  1  2  1  0  0  0  0
  1 20  1  0  0  0  0
  1 21  1  0  0  0  0
  1 22  1  0  0  0  0
  2  3  1  0  0  0  0
  2  7  2  0  0  0  0
  3  4  2  0  0  0  0
  3 23  1  0  0  0  0
  4  5  1  0  0  0  0
  4 24  1  0  0  0  0
  5  6  2  0  0  0  0
  6  7  1  0  0  0  0
  6 25  1  0  0  0  0
  7  8  1  0  0  0  0
  8  9  1  0  0  0  0
  8 26  1  0  0  0  0
  9 10  2  0  0  0  0
  9 11  1  0  0  0  0
 11 12  1  0  0  0  0
 11 13  1  0  0  0  0
 12 27  1  0  0  0  0
 12 28  1  0  0  0  0
 12 29  1  0  0  0  0
 13 14  1  0  0  0  0
 13 18  2  0  0  0  0
 14 15  2  0  0  0  0
 14 30  1  0  0  0  0
 15 16  1  0  0  0  0
 15 31  1  0  0  0  0
 16 17  2  0  0  0  0
 16 32  1  0  0  0  0
 17 18  1  0  0  0  0
 17 19  1  0  0  0  0
 18 33  1  0  0  0  0
M  END
$$$$
