
 OpenBabel07202414203D

 33 35  0  0  0  0  0  0  0  0999 V2000
    2.3376    1.5630   -3.8707 C   0  0  0  0  0  0  0  0  0  0  0  0
    1.9028    1.9681   -2.6064 C   0  0  0  0  0  0  0  0  0  0  0  0
    2.8268    2.3187   -1.6101 C   0  0  0  0  0  0  0  0  0  0  0  0
    4.1965    2.2499   -1.9087 C   0  0  0  0  0  0  0  0  0  0  0  0
    4.6257    1.8409   -3.1713 C   0  0  0  0  0  0  0  0  0  0  0  0
    3.7033    1.4963   -4.1551 C   0  0  0  0  0  0  0  0  0  0  0  0
    6.3106    1.7405   -3.5067 Cl  0  0  0  0  0  0  0  0  0  0  0  0
    2.3813    2.6520   -0.2073 C   0  0  0  0  0  0  0  0  0  0  0  0
    1.3468    3.7521   -0.0961 C   0  0  0  0  0  0  0  0  0  0  0  0
    0.1549    3.4901    0.0578 O   0  0  0  0  0  0  0  0  0  0  0  0
    1.8624    5.0338   -0.1774 N   0  0  0  0  0  0  0  0  0  0  0  0
    1.0184    6.1697   -0.0642 C   0  0  0  0  0  0  0  0  0  0  0  0
    0.0189    6.2648    0.9010 C   0  0  0  0  0  0  0  0  0  0  0  0
   -0.8458    7.2980    0.9929 N   0  0  0  0  0  0  0  0  0  0  0  0
   -0.7311    8.2547    0.0512 C   0  0  0  0  0  0  0  0  0  0  0  0
    0.2409    8.2567   -0.9510 C   0  0  0  0  0  0  0  0  0  0  0  0
    1.1752    7.2085   -0.9860 C   0  0  0  0  0  0  0  0  0  0  0  0
    2.1513    7.1464   -1.9194 N   0  0  0  0  0  0  0  0  0  0  0  0
    2.1895    8.1188   -2.8580 C   0  0  0  0  0  0  0  0  0  0  0  0
    1.2917    9.1678   -2.9206 C   0  0  0  0  0  0  0  0  0  0  0  0
    0.3058    9.2426   -1.9459 C   0  0  0  0  0  0  0  0  0  0  0  0
    1.6139    1.2830   -4.6326 H   0  0  0  0  0  0  0  0  0  0  0  0
    0.8329    1.9861   -2.3977 H   0  0  0  0  0  0  0  0  0  0  0  0
    4.9365    2.4901   -1.1472 H   0  0  0  0  0  0  0  0  0  0  0  0
    4.0377    1.1673   -5.1345 H   0  0  0  0  0  0  0  0  0  0  0  0
    3.2378    2.9292    0.4196 H   0  0  0  0  0  0  0  0  0  0  0  0
    1.9544    1.7469    0.2456 H   0  0  0  0  0  0  0  0  0  0  0  0
    2.6525    5.1666   -0.8065 H   0  0  0  0  0  0  0  0  0  0  0  0
   -0.1114    5.4955    1.6583 H   0  0  0  0  0  0  0  0  0  0  0  0
   -1.4778    9.0416    0.1174 H   0  0  0  0  0  0  0  0  0  0  0  0
    2.9833    8.0200   -3.5929 H   0  0  0  0  0  0  0  0  0  0  0  0
    1.3539    9.9058   -3.7131 H   0  0  0  0  0  0  0  0  0  0  0  0
   -0.4207   10.0506   -1.9759 H   0  0  0  0  0  0  0  0  0  0  0  0
  1  2  1  0  0  0  0
  1  6  2  0  0  0  0
  1 22  1  0  0  0  0
  2  3  2  0  0  0  0
  2 23  1  0  0  0  0
  3  4  1  0  0  0  0
  3  8  1  0  0  0  0
  4  5  2  0  0  0  0
  4 24  1  0  0  0  0
  5  6  1  0  0  0  0
  5  7  1  0  0  0  0
  6 25  1  0  0  0  0
  8  9  1  0  0  0  0
  8 26  1  0  0  0  0
  8 27  1  0  0  0  0
  9 10  2  0  0  0  0
  9 11  1  0  0  0  0
 11 12  1  0  0  0  0
 11 28  1  0  0  0  0
 12 13  1  0  0  0  0
 12 17  2  0  0  0  0
 13 14  2  0  0  0  0
 13 29  1  0  0  0  0
 14 15  1  0  0  0  0
 15 16  2  0  0  0  0
 15 30  1  0  0  0  0
 16 17  1  0  0  0  0
 16 21  1  0  0  0  0
 17 18  1  0  0  0  0
 18 19  2  0  0  0  0
 19 20  1  0  0  0  0
 19 31  1  0  0  0  0
 20 21  2  0  0  0  0
 20 32  1  0  0  0  0
 21 33  1  0  0  0  0
M  END
$$$$
