
 OpenBabel07202414153D

 66 68  0  0  1  0  0  0  0  0999 V2000
   19.1450   -6.4802    1.4647 C   0  0  0  0  0  0  0  0  0  0  0  0
   18.1577   -7.0134    2.3400 O   0  0  0  0  0  0  0  0  0  0  0  0
   17.9035   -8.3549    2.1988 C   0  0  0  0  0  0  0  0  0  0  0  0
   18.8539   -9.2948    1.7770 C   0  0  0  0  0  0  0  0  0  0  0  0
   18.5322  -10.6495    1.6707 C   0  0  0  0  0  0  0  0  0  0  0  0
   17.2531  -11.1161    1.9874 C   0  0  0  0  0  0  0  0  0  0  0  0
   16.3123  -10.1744    2.4274 C   0  0  0  0  0  0  0  0  0  0  0  0
   15.0029  -10.3320    2.8160 N   0  0  0  0  0  0  0  0  0  0  0  0
   14.4530   -9.1348    3.2338 C   0  0  0  0  0  0  0  0  0  0  0  0
   13.1044   -9.0510    3.7542 C   0  0  0  0  0  0  0  0  0  0  0  0
   12.3231   -9.9956    3.6967 O   0  0  0  0  0  0  0  0  0  0  0  0
   12.7835   -7.8654    4.3748 N   0  0  0  0  0  0  0  0  0  0  0  0
   11.5678   -7.6634    5.1528 C   0  0  1  0  0  0  0  0  0  0  0  0
   11.4087   -8.6352    6.3457 C   0  0  0  0  0  0  0  0  0  0  0  0
   12.4376   -8.4942    7.4925 C   0  0  0  0  0  0  0  0  0  0  0  0
   12.0120   -9.3618    8.6830 C   0  0  0  0  0  0  0  0  0  0  0  0
   13.8582   -8.8829    7.0843 C   0  0  0  0  0  0  0  0  0  0  0  0
   11.5072   -6.1967    5.6625 C   0  0  0  0  0  0  0  0  0  0  0  0
   12.4360   -5.4072    5.5176 O   0  0  0  0  0  0  0  0  0  0  0  0
   10.3435   -5.8729    6.3369 N   0  0  0  0  0  0  0  0  0  0  0  0
   10.1627   -4.5922    7.0275 C   0  0  1  0  0  0  0  0  0  0  0  0
    9.5993   -3.5120    6.0912 C   0  0  0  0  0  0  0  0  0  0  0  0
    8.2294   -3.8101    5.4568 C   0  0  2  0  0  0  0  0  0  0  0  0
    7.8025   -2.6715    4.5135 C   0  0  0  0  0  0  0  0  0  0  0  0
    7.2019   -1.6354    5.4512 C   0  0  0  0  0  0  0  0  0  0  0  0
    6.6405   -2.4404    6.4954 N   0  0  0  0  0  0  0  0  0  0  0  0
    7.0968   -3.7420    6.4570 C   0  0  0  0  0  0  0  0  0  0  0  0
    6.6792   -4.6785    7.1143 O   0  0  0  0  0  0  0  0  0  0  0  0
    9.4181   -4.6996    8.3772 C   0  0  0  0  0  0  0  0  0  0  0  0
    8.9377   -3.7076    8.9377 O   0  0  0  0  0  0  0  0  0  0  0  0
    9.4786   -6.0348    9.1183 C   0  0  0  0  0  0  0  0  0  0  0  0
    8.6747   -6.0655   10.2873 O   0  0  0  0  0  0  0  0  0  0  0  0
   15.4403   -8.1798    3.0515 C   0  0  0  0  0  0  0  0  0  0  0  0
   16.6138   -8.8196    2.5501 C   0  0  0  0  0  0  0  0  0  0  0  0
   19.1126   -5.3892    1.5495 H   0  0  0  0  0  0  0  0  0  0  0  0
   18.9404   -6.7417    0.4207 H   0  0  0  0  0  0  0  0  0  0  0  0
   20.1485   -6.8013    1.7617 H   0  0  0  0  0  0  0  0  0  0  0  0
   19.8703   -8.9943    1.5386 H   0  0  0  0  0  0  0  0  0  0  0  0
   19.2953  -11.3552    1.3481 H   0  0  0  0  0  0  0  0  0  0  0  0
   17.0110  -12.1712    1.9031 H   0  0  0  0  0  0  0  0  0  0  0  0
   14.4997  -11.2099    2.8301 H   0  0  0  0  0  0  0  0  0  0  0  0
   13.4673   -7.1163    4.4032 H   0  0  0  0  0  0  0  0  0  0  0  0
   10.7285   -7.8026    4.4603 H   0  0  0  0  0  0  0  0  0  0  0  0
   11.4025   -9.6713    5.9903 H   0  0  0  0  0  0  0  0  0  0  0  0
   10.4101   -8.4751    6.7726 H   0  0  0  0  0  0  0  0  0  0  0  0
   12.4486   -7.4535    7.8376 H   0  0  0  0  0  0  0  0  0  0  0  0
   12.2412  -10.4187    8.5085 H   0  0  0  0  0  0  0  0  0  0  0  0
   10.9394   -9.2750    8.8842 H   0  0  0  0  0  0  0  0  0  0  0  0
   12.5440   -9.0479    9.5876 H   0  0  0  0  0  0  0  0  0  0  0  0
   13.8814   -9.8873    6.6469 H   0  0  0  0  0  0  0  0  0  0  0  0
   14.5281   -8.8778    7.9502 H   0  0  0  0  0  0  0  0  0  0  0  0
   14.2796   -8.1796    6.3634 H   0  0  0  0  0  0  0  0  0  0  0  0
    9.5390   -6.4822    6.2454 H   0  0  0  0  0  0  0  0  0  0  0  0
   11.1669   -4.2570    7.3251 H   0  0  0  0  0  0  0  0  0  0  0  0
   10.3181   -3.3660    5.2736 H   0  0  0  0  0  0  0  0  0  0  0  0
    9.5654   -2.5628    6.6401 H   0  0  0  0  0  0  0  0  0  0  0  0
    8.2166   -4.7683    4.9291 H   0  0  0  0  0  0  0  0  0  0  0  0
    7.0192   -3.0425    3.8384 H   0  0  0  0  0  0  0  0  0  0  0  0
    8.6150   -2.2763    3.8985 H   0  0  0  0  0  0  0  0  0  0  0  0
    6.4158   -1.0432    4.9772 H   0  0  0  0  0  0  0  0  0  0  0  0
    7.9579   -0.9687    5.8779 H   0  0  0  0  0  0  0  0  0  0  0  0
    5.9058   -2.1570    7.1328 H   0  0  0  0  0  0  0  0  0  0  0  0
   10.5154   -6.2095    9.4187 H   0  0  0  0  0  0  0  0  0  0  0  0
    9.1426   -6.8445    8.4676 H   0  0  0  0  0  0  0  0  0  0  0  0
    8.5083   -5.1335   10.5334 H   0  0  0  0  0  0  0  0  0  0  0  0
   15.3579   -7.1236    3.2637 H   0  0  0  0  0  0  0  0  0  0  0  0
  1  2  1  0  0  0  0
  1 35  1  0  0  0  0
  1 36  1  0  0  0  0
  1 37  1  0  0  0  0
  2  3  1  0  0  0  0
  3  4  1  0  0  0  0
  3 34  2  0  0  0  0
  4  5  2  0  0  0  0
  4 38  1  0  0  0  0
  5  6  1  0  0  0  0
  5 39  1  0  0  0  0
  6  7  2  0  0  0  0
  6 40  1  0  0  0  0
  7  8  1  0  0  0  0
  7 34  1  0  0  0  0
  8  9  1  0  0  0  0
  8 41  1  0  0  0  0
  9 10  1  0  0  0  0
  9 33  2  0  0  0  0
 10 11  2  0  0  0  0
 10 12  1  0  0  0  0
 12 13  1  0  0  0  0
 12 42  1  0  0  0  0
 13 14  1  0  0  0  0
 13 18  1  0  0  0  0
 13 43  1  6  0  0  0
 14 15  1  0  0  0  0
 14 44  1  0  0  0  0
 14 45  1  0  0  0  0
 15 16  1  0  0  0  0
 15 17  1  0  0  0  0
 15 46  1  0  0  0  0
 16 47  1  0  0  0  0
 16 48  1  0  0  0  0
 16 49  1  0  0  0  0
 17 50  1  0  0  0  0
 17 51  1  0  0  0  0
 17 52  1  0  0  0  0
 18 19  2  0  0  0  0
 18 20  1  0  0  0  0
 20 21  1  0  0  0  0
 20 53  1  0  0  0  0
 21 22  1  0  0  0  0
 21 29  1  0  0  0  0
 21 54  1  1  0  0  0
 22 55  1  0  0  0  0
 22 56  1  0  0  0  0
 23 24  1  0  0  0  0
 23 27  1  0  0  0  0
 23 22  1  0  0  0  0
 23 57  1  6  0  0  0
 24 25  1  0  0  0  0
 24 58  1  0  0  0  0
 24 59  1  0  0  0  0
 25 26  1  0  0  0  0
 25 60  1  0  0  0  0
 25 61  1  0  0  0  0
 26 27  1  0  0  0  0
 26 62  1  0  0  0  0
 27 28  2  0  0  0  0
 29 30  2  0  0  0  0
 29 31  1  0  0  0  0
 31 32  1  0  0  0  0
 31 63  1  0  0  0  0
 31 64  1  0  0  0  0
 32 65  1  0  0  0  0
 33 34  1  0  0  0  0
 33 66  1  0  0  0  0
M  END
$$$$
