
 OpenBabel07202414123D

 48 51  0  0  0  0  0  0  0  0999 V2000
    2.7806    0.2918    1.3990 C   0  0  0  0  0  0  0  0  0  0  0  0
    2.2608   -0.0728    0.0080 C   0  0  0  0  0  0  0  0  0  0  0  0
    0.7331   -0.0537   -0.0166 C   0  0  0  0  0  0  0  0  0  0  0  0
    2.8305    0.8650   -1.0824 C   0  0  0  0  0  0  0  0  0  0  0  0
    4.2977    0.8400   -1.1671 N   0  0  0  0  0  0  0  0  0  0  0  0
    4.9133   -0.3701   -1.4114 C   0  0  0  0  0  0  0  0  0  0  0  0
    6.2401   -0.5889   -1.3438 C   0  0  0  0  0  0  0  0  0  0  0  0
    7.1024    0.6139   -1.1965 C   0  0  0  0  0  0  0  0  0  0  0  0
    8.5027    0.5850   -1.3192 C   0  0  0  0  0  0  0  0  0  0  0  0
    9.2590    1.7689   -1.2910 C   0  0  0  0  0  0  0  0  0  0  0  0
    8.6383    3.0030   -1.1290 C   0  0  0  0  0  0  0  0  0  0  0  0
    7.2581    3.0590   -0.9768 C   0  0  0  0  0  0  0  0  0  0  0  0
    6.4995    1.8770   -1.0131 C   0  0  0  0  0  0  0  0  0  0  0  0
    5.0221    1.9957   -0.8970 C   0  0  0  0  0  0  0  0  0  0  0  0
    4.5168    3.0718   -0.5914 O   0  0  0  0  0  0  0  0  0  0  0  0
    6.7890   -1.8677   -1.4150 N   0  0  0  0  0  0  0  0  0  0  0  0
    6.1155   -3.0498   -1.6008 C   0  0  0  0  0  0  0  0  0  0  0  0
    4.8993   -3.1741   -1.7602 O   0  0  0  0  0  0  0  0  0  0  0  0
    6.8233   -4.1956   -1.6926 N   0  0  0  0  0  0  0  0  0  0  0  0
    8.1561   -4.3986   -1.5405 C   0  0  0  0  0  0  0  0  0  0  0  0
    9.0702   -3.5958   -1.0610 N   0  0  0  0  0  0  0  0  0  0  0  0
   10.3038   -4.2383   -1.1631 C   0  0  0  0  0  0  0  0  0  0  0  0
   11.5481   -3.7415   -0.7250 C   0  0  0  0  0  0  0  0  0  0  0  0
   12.7210   -4.4537   -1.0117 C   0  0  0  0  0  0  0  0  0  0  0  0
   12.6714   -5.6534   -1.7131 C   0  0  0  0  0  0  0  0  0  0  0  0
   11.4479   -6.2021   -2.1005 C   0  0  0  0  0  0  0  0  0  0  0  0
   10.2797   -5.4843   -1.8004 C   0  0  0  0  0  0  0  0  0  0  0  0
    8.6492   -5.9228   -2.1043 S   0  0  0  0  0  0  0  0  0  0  0  0
    2.3447   -0.3662    2.1582 H   0  0  0  0  0  0  0  0  0  0  0  0
    2.5333    1.3256    1.6580 H   0  0  0  0  0  0  0  0  0  0  0  0
    3.8678    0.1746    1.4578 H   0  0  0  0  0  0  0  0  0  0  0  0
    2.5660   -1.1066   -0.1937 H   0  0  0  0  0  0  0  0  0  0  0  0
    0.3436    0.9661    0.0597 H   0  0  0  0  0  0  0  0  0  0  0  0
    0.3228   -0.6392    0.8132 H   0  0  0  0  0  0  0  0  0  0  0  0
    0.3602   -0.4938   -0.9477 H   0  0  0  0  0  0  0  0  0  0  0  0
    2.4834    1.8890   -0.9015 H   0  0  0  0  0  0  0  0  0  0  0  0
    2.4458    0.5747   -2.0687 H   0  0  0  0  0  0  0  0  0  0  0  0
    4.2128   -1.1703   -1.6011 H   0  0  0  0  0  0  0  0  0  0  0  0
    9.0404   -0.3455   -1.4743 H   0  0  0  0  0  0  0  0  0  0  0  0
   10.3392    1.7255   -1.4149 H   0  0  0  0  0  0  0  0  0  0  0  0
    9.2214    3.9222   -1.1323 H   0  0  0  0  0  0  0  0  0  0  0  0
    6.7673    4.0223   -0.8554 H   0  0  0  0  0  0  0  0  0  0  0  0
    7.7867   -1.9702   -1.2550 H   0  0  0  0  0  0  0  0  0  0  0  0
    6.2710   -4.9923   -1.9756 H   0  0  0  0  0  0  0  0  0  0  0  0
   11.5946   -2.8027   -0.1821 H   0  0  0  0  0  0  0  0  0  0  0  0
   13.6825   -4.0575   -0.6922 H   0  0  0  0  0  0  0  0  0  0  0  0
   13.5922   -6.1793   -1.9583 H   0  0  0  0  0  0  0  0  0  0  0  0
   11.4023   -7.1473   -2.6332 H   0  0  0  0  0  0  0  0  0  0  0  0
  1  2  1  0  0  0  0
  1 29  1  0  0  0  0
  1 30  1  0  0  0  0
  1 31  1  0  0  0  0
  2  3  1  0  0  0  0
  2  4  1  0  0  0  0
  2 32  1  0  0  0  0
  3 33  1  0  0  0  0
  3 34  1  0  0  0  0
  3 35  1  0  0  0  0
  4  5  1  0  0  0  0
  4 36  1  0  0  0  0
  4 37  1  0  0  0  0
  5  6  1  0  0  0  0
  5 14  1  0  0  0  0
  6  7  2  0  0  0  0
  6 38  1  0  0  0  0
  7  8  1  0  0  0  0
  7 16  1  0  0  0  0
  8  9  1  0  0  0  0
  8 13  2  0  0  0  0
  9 10  2  0  0  0  0
  9 39  1  0  0  0  0
 10 11  1  0  0  0  0
 10 40  1  0  0  0  0
 11 12  2  0  0  0  0
 11 41  1  0  0  0  0
 12 13  1  0  0  0  0
 12 42  1  0  0  0  0
 13 14  1  0  0  0  0
 14 15  2  0  0  0  0
 16 17  1  0  0  0  0
 16 43  1  0  0  0  0
 17 18  2  0  0  0  0
 17 19  1  0  0  0  0
 19 20  1  0  0  0  0
 19 44  1  0  0  0  0
 20 21  2  0  0  0  0
 20 28  1  0  0  0  0
 21 22  1  0  0  0  0
 22 23  1  0  0  0  0
 22 27  2  0  0  0  0
 23 24  2  0  0  0  0
 23 45  1  0  0  0  0
 24 25  1  0  0  0  0
 24 46  1  0  0  0  0
 25 26  2  0  0  0  0
 25 47  1  0  0  0  0
 26 27  1  0  0  0  0
 26 48  1  0  0  0  0
 27 28  1  0  0  0  0
M  END
$$$$
