
 OpenBabel07202414153D

 39 42  0  0  1  0  0  0  0  0999 V2000
    0.9728    0.1598   -0.1281 C   0  0  0  0  0  0  0  0  0  0  0  0
    2.4904    0.1037    0.0319 C   0  0  2  0  0  0  0  0  0  0  0  0
    2.9204   -1.2554    0.6256 C   0  0  0  0  0  0  0  0  0  0  0  0
    4.3502   -1.3352    1.1769 C   0  0  0  0  0  0  0  0  0  0  0  0
    4.8952   -0.0618    1.5889 N   0  0  0  0  0  0  0  0  0  0  0  0
    4.4969    1.1635    0.9574 C   0  0  1  0  0  0  0  0  0  0  0  0
    2.9983    1.2853    0.8786 C   0  0  0  0  0  0  0  0  0  0  0  0
    5.2949    2.1614    1.7885 C   0  0  0  0  0  0  0  0  0  0  0  0
    5.1022    3.3686    1.8181 O   0  0  0  0  0  0  0  0  0  0  0  0
    6.3684    1.4543    2.2915 N   0  0  0  0  0  0  0  0  0  0  0  0
    7.5886    2.0467    2.6838 C   0  0  0  0  0  0  0  0  0  0  0  0
    8.8239    1.7146    2.0585 C   0  0  0  0  0  0  0  0  0  0  0  0
    8.9669    0.8181    0.9651 C   0  0  0  0  0  0  0  0  0  0  0  0
   10.2043    0.5825    0.3597 C   0  0  0  0  0  0  0  0  0  0  0  0
   11.3413    1.2327    0.8240 C   0  0  0  0  0  0  0  0  0  0  0  0
   11.2329    2.1250    1.8926 C   0  0  0  0  0  0  0  0  0  0  0  0
    9.9911    2.3778    2.4974 C   0  0  0  0  0  0  0  0  0  0  0  0
    9.8616    3.3169    3.5264 C   0  0  0  0  0  0  0  0  0  0  0  0
    8.6956    3.6723    4.1075 N   0  0  0  0  0  0  0  0  0  0  0  0
    7.5891    3.0443    3.6549 C   0  0  0  0  0  0  0  0  0  0  0  0
    6.1364    0.0991    2.2031 C   0  0  0  0  0  0  0  0  0  0  0  0
    6.8357   -0.8243    2.5943 O   0  0  0  0  0  0  0  0  0  0  0  0
    0.6191   -0.6680   -0.7516 H   0  0  0  0  0  0  0  0  0  0  0  0
    0.6653    1.0959   -0.6048 H   0  0  0  0  0  0  0  0  0  0  0  0
    0.4706    0.0923    0.8427 H   0  0  0  0  0  0  0  0  0  0  0  0
    2.9329    0.1889   -0.9709 H   0  0  0  0  0  0  0  0  0  0  0  0
    2.8008   -2.0346   -0.1395 H   0  0  0  0  0  0  0  0  0  0  0  0
    2.2268   -1.5270    1.4319 H   0  0  0  0  0  0  0  0  0  0  0  0
    5.0311   -1.7726    0.4390 H   0  0  0  0  0  0  0  0  0  0  0  0
    4.3680   -1.9980    2.0501 H   0  0  0  0  0  0  0  0  0  0  0  0
    4.9366    1.1835   -0.0497 H   0  0  0  0  0  0  0  0  0  0  0  0
    2.7170    2.2393    0.4197 H   0  0  0  0  0  0  0  0  0  0  0  0
    2.5491    1.2634    1.8802 H   0  0  0  0  0  0  0  0  0  0  0  0
    8.1132    0.2962    0.5491 H   0  0  0  0  0  0  0  0  0  0  0  0
   10.2732   -0.1066   -0.4795 H   0  0  0  0  0  0  0  0  0  0  0  0
   12.3005    1.0556    0.3482 H   0  0  0  0  0  0  0  0  0  0  0  0
   12.1336    2.6378    2.2368 H   0  0  0  0  0  0  0  0  0  0  0  0
   10.7303    3.8511    3.9092 H   0  0  0  0  0  0  0  0  0  0  0  0
    6.6658    3.3592    4.1380 H   0  0  0  0  0  0  0  0  0  0  0  0
  1  2  1  0  0  0  0
  1 23  1  0  0  0  0
  1 24  1  0  0  0  0
  1 25  1  0  0  0  0
  2  3  1  0  0  0  0
  2  7  1  0  0  0  0
  2 26  1  6  0  0  0
  3  4  1  0  0  0  0
  3 27  1  0  0  0  0
  3 28  1  0  0  0  0
  4  5  1  0  0  0  0
  4 29  1  0  0  0  0
  4 30  1  0  0  0  0
  5  6  1  0  0  0  0
  5 21  1  0  0  0  0
  6  7  1  0  0  0  0
  6  8  1  0  0  0  0
  6 31  1  6  0  0  0
  7 32  1  0  0  0  0
  7 33  1  0  0  0  0
  8  9  2  0  0  0  0
  8 10  1  0  0  0  0
 10 11  1  0  0  0  0
 10 21  1  0  0  0  0
 11 12  2  0  0  0  0
 11 20  1  0  0  0  0
 12 13  1  0  0  0  0
 12 17  1  0  0  0  0
 13 14  2  0  0  0  0
 13 34  1  0  0  0  0
 14 15  1  0  0  0  0
 14 35  1  0  0  0  0
 15 16  2  0  0  0  0
 15 36  1  0  0  0  0
 16 17  1  0  0  0  0
 16 37  1  0  0  0  0
 17 18  2  0  0  0  0
 18 19  1  0  0  0  0
 18 38  1  0  0  0  0
 19 20  2  0  0  0  0
 20 39  1  0  0  0  0
 21 22  2  0  0  0  0
M  END
$$$$
