
 OpenBabel07202414193D

 62 66  0  0  1  0  0  0  0  0999 V2000
    1.2334    3.5578    1.5378 N   0  0  0  0  0  0  0  0  0  0  0  0
    1.1068    2.2753    0.4669 S   0  0  0  0  0  0  0  0  0  0  0  0
    2.0866    1.3020    0.8723 O   0  0  0  0  0  0  0  0  0  0  0  0
   -0.3073    1.9765    0.3960 O   0  0  0  0  0  0  0  0  0  0  0  0
    1.6276    2.9903   -1.0687 C   0  0  0  0  0  0  0  0  0  0  0  0
    2.8929    3.5686   -1.1733 C   0  0  0  0  0  0  0  0  0  0  0  0
    3.2787    4.1629   -2.3794 C   0  0  0  0  0  0  0  0  0  0  0  0
    2.4105    4.1763   -3.4877 C   0  0  0  0  0  0  0  0  0  0  0  0
    2.8138    4.8589   -4.7846 C   0  0  0  0  0  0  0  0  0  0  0  0
    4.1145    4.3908   -5.2262 N   0  0  0  0  0  0  0  0  0  0  0  0
    4.4683    4.7681   -6.6020 C   0  0  0  0  0  0  0  0  0  0  0  0
    5.1731    6.1236   -7.0409 C   0  0  3  0  0  0  0  0  0  0  0  0
    6.4899    6.1434   -6.2315 C   0  0  0  0  0  0  0  0  0  0  0  0
    6.4625    6.1293   -5.0096 O   0  0  0  0  0  0  0  0  0  0  0  0
    7.6596    6.2619   -6.9360 N   0  0  0  0  0  0  0  0  0  0  0  0
    8.9744    6.1362   -6.3894 C   0  0  0  0  0  0  0  0  0  0  0  0
    9.2320    5.8898   -5.0389 C   0  0  0  0  0  0  0  0  0  0  0  0
   10.4516    5.5691   -4.5353 N   0  0  0  0  0  0  0  0  0  0  0  0
   11.4769    5.5720   -5.4100 C   0  0  0  0  0  0  0  0  0  0  0  0
   11.3618    5.9622   -6.7419 C   0  0  0  0  0  0  0  0  0  0  0  0
   12.5090    6.1219   -7.5427 C   0  0  0  0  0  0  0  0  0  0  0  0
   12.4078    6.5410   -8.8602 C   0  0  0  0  0  0  0  0  0  0  0  0
   11.1517    6.7445   -9.4166 C   0  0  0  0  0  0  0  0  0  0  0  0
   10.0038    6.5795   -8.6354 C   0  0  0  0  0  0  0  0  0  0  0  0
   10.0842    6.2264   -7.2673 C   0  0  0  0  0  0  0  0  0  0  0  0
    4.5040    7.4670   -6.6209 C   0  0  0  0  0  0  0  0  0  0  0  0
    4.8270    8.5880   -7.6094 C   0  0  0  0  0  0  0  0  0  0  0  0
    4.3091    8.2970   -8.8983 O   0  0  0  0  0  0  0  0  0  0  0  0
    4.8138    7.1356   -9.4063 C   0  0  0  0  0  0  0  0  0  0  0  0
    4.7629    7.0631  -10.8085 C   0  0  0  0  0  0  0  0  0  0  0  0
    5.0719    5.8779  -11.4608 C   0  0  0  0  0  0  0  0  0  0  0  0
    5.4343    4.7760  -10.7021 C   0  0  0  0  0  0  0  0  0  0  0  0
    5.6341    3.2504  -11.4764 Cl  0  0  0  0  0  0  0  0  0  0  0  0
    5.5671    4.8713   -9.3050 C   0  0  0  0  0  0  0  0  0  0  0  0
    5.2482    6.0612   -8.6104 C   0  0  0  0  0  0  0  0  0  0  0  0
    1.1517    3.5670   -3.3656 C   0  0  0  0  0  0  0  0  0  0  0  0
    0.7572    2.9757   -2.1605 C   0  0  0  0  0  0  0  0  0  0  0  0
    1.8322    3.2876    2.3176 H   0  0  0  0  0  0  0  0  0  0  0  0
    0.2991    3.8575    1.8220 H   0  0  0  0  0  0  0  0  0  0  0  0
    3.5771    3.5675   -0.3293 H   0  0  0  0  0  0  0  0  0  0  0  0
    4.2663    4.6178   -2.4616 H   0  0  0  0  0  0  0  0  0  0  0  0
    2.8380    5.9404   -4.6142 H   0  0  0  0  0  0  0  0  0  0  0  0
    2.0557    4.6488   -5.5480 H   0  0  0  0  0  0  0  0  0  0  0  0
    4.0974    3.3657   -5.1756 H   0  0  0  0  0  0  0  0  0  0  0  0
    3.6249    4.5457   -7.2703 H   0  0  0  0  0  0  0  0  0  0  0  0
    5.2181    3.9985   -6.8298 H   0  0  0  0  0  0  0  0  0  0  0  0
    7.5872    6.3519   -7.9343 H   0  0  0  0  0  0  0  0  0  0  0  0
    8.4742    5.9376   -4.2633 H   0  0  0  0  0  0  0  0  0  0  0  0
   12.4237    5.2478   -4.9821 H   0  0  0  0  0  0  0  0  0  0  0  0
   13.5084    5.9641   -7.1150 H   0  0  0  0  0  0  0  0  0  0  0  0
   13.2986    6.7160   -9.4540 H   0  0  0  0  0  0  0  0  0  0  0  0
   11.0542    7.0528  -10.4529 H   0  0  0  0  0  0  0  0  0  0  0  0
    9.0561    6.7718   -9.1231 H   0  0  0  0  0  0  0  0  0  0  0  0
    4.8662    7.8220   -5.6463 H   0  0  0  0  0  0  0  0  0  0  0  0
    3.4198    7.3531   -6.5372 H   0  0  0  0  0  0  0  0  0  0  0  0
    5.9020    8.7920   -7.7028 H   0  0  0  0  0  0  0  0  0  0  0  0
    4.3579    9.5251   -7.2890 H   0  0  0  0  0  0  0  0  0  0  0  0
    4.4370    7.9295  -11.3818 H   0  0  0  0  0  0  0  0  0  0  0  0
    4.9860    5.8155  -12.5423 H   0  0  0  0  0  0  0  0  0  0  0  0
    5.8460    3.9625   -8.7774 H   0  0  0  0  0  0  0  0  0  0  0  0
    0.4627    3.5454   -4.2061 H   0  0  0  0  0  0  0  0  0  0  0  0
   -0.2241    2.5145   -2.0816 H   0  0  0  0  0  0  0  0  0  0  0  0
  1  2  1  0  0  0  0
  1 38  1  0  0  0  0
  1 39  1  0  0  0  0
  2  3  2  0  0  0  0
  2  4  2  0  0  0  0
  2  5  1  0  0  0  0
  5  6  1  0  0  0  0
  5 37  2  0  0  0  0
  6  7  2  0  0  0  0
  6 40  1  0  0  0  0
  7  8  1  0  0  0  0
  7 41  1  0  0  0  0
  8  9  1  0  0  0  0
  8 36  2  0  0  0  0
  9 10  1  0  0  0  0
  9 42  1  0  0  0  0
  9 43  1  0  0  0  0
 10 11  1  0  0  0  0
 10 44  1  0  0  0  0
 11 12  1  0  0  0  0
 11 45  1  0  0  0  0
 11 46  1  0  0  0  0
 12 13  1  0  0  0  0
 12 26  1  0  0  0  0
 12 35  1  0  0  0  0
 13 14  2  0  0  0  0
 13 15  1  0  0  0  0
 15 16  1  0  0  0  0
 15 47  1  0  0  0  0
 16 17  1  0  0  0  0
 16 25  2  0  0  0  0
 17 18  2  0  0  0  0
 17 48  1  0  0  0  0
 18 19  1  0  0  0  0
 19 20  2  0  0  0  0
 19 49  1  0  0  0  0
 20 21  1  0  0  0  0
 20 25  1  0  0  0  0
 21 22  2  0  0  0  0
 21 50  1  0  0  0  0
 22 23  1  0  0  0  0
 22 51  1  0  0  0  0
 23 24  2  0  0  0  0
 23 52  1  0  0  0  0
 24 25  1  0  0  0  0
 24 53  1  0  0  0  0
 26 27  1  0  0  0  0
 26 54  1  0  0  0  0
 26 55  1  0  0  0  0
 27 28  1  0  0  0  0
 27 56  1  0  0  0  0
 27 57  1  0  0  0  0
 28 29  1  0  0  0  0
 29 30  1  0  0  0  0
 29 35  2  0  0  0  0
 30 31  2  0  0  0  0
 30 58  1  0  0  0  0
 31 32  1  0  0  0  0
 31 59  1  0  0  0  0
 32 33  1  0  0  0  0
 32 34  2  0  0  0  0
 34 35  1  0  0  0  0
 34 60  1  0  0  0  0
 36 37  1  0  0  0  0
 36 61  1  0  0  0  0
 37 62  1  0  0  0  0
M  END
$$$$
