
 OpenBabel07202414163D

 37 39  0  0  0  0  0  0  0  0999 V2000
    2.0945    0.3461    0.2831 C   0  0  0  0  0  0  0  0  0  0  0  0
    0.6892   -0.0011    0.0256 C   0  0  0  0  0  0  0  0  0  0  0  0
   -0.0662   -1.1244    0.2390 C   0  0  0  0  0  0  0  0  0  0  0  0
   -1.3753   -0.7469   -0.1305 C   0  0  0  0  0  0  0  0  0  0  0  0
   -1.3924    0.5019   -0.6103 N   0  0  0  0  0  0  0  0  0  0  0  0
   -0.0960    0.9698   -0.5072 O   0  0  0  0  0  0  0  0  0  0  0  0
   -2.6184   -1.5731   -0.0102 C   0  0  0  0  0  0  0  0  0  0  0  0
   -2.8782   -2.5174    0.9838 C   0  0  0  0  0  0  0  0  0  0  0  0
   -4.2065   -2.9429    0.7178 C   0  0  0  0  0  0  0  0  0  0  0  0
   -4.7539   -2.2739   -0.2995 N   0  0  0  0  0  0  0  0  0  0  0  0
   -3.7522   -1.4984   -0.8061 N   0  0  0  0  0  0  0  0  0  0  0  0
   -3.9635   -0.8537   -2.0638 C   0  0  0  0  0  0  0  0  0  0  0  0
   -5.2673   -0.5078   -2.4543 C   0  0  0  0  0  0  0  0  0  0  0  0
   -5.4883    0.1513   -3.6692 C   0  0  0  0  0  0  0  0  0  0  0  0
   -4.4177    0.4449   -4.5119 C   0  0  0  0  0  0  0  0  0  0  0  0
   -3.1283    0.0656   -4.1519 C   0  0  0  0  0  0  0  0  0  0  0  0
   -2.9031   -0.5915   -2.9393 C   0  0  0  0  0  0  0  0  0  0  0  0
   -5.0372   -3.9428    1.4436 C   0  0  0  0  0  0  0  0  0  0  0  0
   -2.0297   -2.8820    2.1075 C   0  0  0  0  0  0  0  0  0  0  0  0
   -1.2442   -2.1154    2.6488 O   0  0  0  0  0  0  0  0  0  0  0  0
   -2.1942   -4.1823    2.4923 O   0  0  0  0  0  0  0  0  0  0  0  0
   -1.3813   -4.5662    3.6033 C   0  0  0  0  0  0  0  0  0  0  0  0
    2.6505   -0.5245    0.6451 H   0  0  0  0  0  0  0  0  0  0  0  0
    2.1527    1.1258    1.0488 H   0  0  0  0  0  0  0  0  0  0  0  0
    2.5812    0.7111   -0.6257 H   0  0  0  0  0  0  0  0  0  0  0  0
    0.2829   -2.0618    0.6413 H   0  0  0  0  0  0  0  0  0  0  0  0
   -6.1184   -0.7145   -1.8076 H   0  0  0  0  0  0  0  0  0  0  0  0
   -6.4956    0.4433   -3.9534 H   0  0  0  0  0  0  0  0  0  0  0  0
   -4.5875    0.9644   -5.4515 H   0  0  0  0  0  0  0  0  0  0  0  0
   -2.2910    0.2805   -4.8111 H   0  0  0  0  0  0  0  0  0  0  0  0
   -1.8873   -0.9057   -2.7224 H   0  0  0  0  0  0  0  0  0  0  0  0
   -4.6184   -4.2094    2.4157 H   0  0  0  0  0  0  0  0  0  0  0  0
   -5.1256   -4.8581    0.8487 H   0  0  0  0  0  0  0  0  0  0  0  0
   -6.0445   -3.5520    1.6265 H   0  0  0  0  0  0  0  0  0  0  0  0
   -1.7426   -5.5311    3.9704 H   0  0  0  0  0  0  0  0  0  0  0  0
   -1.4534   -3.8427    4.4216 H   0  0  0  0  0  0  0  0  0  0  0  0
   -0.3424   -4.6807    3.2799 H   0  0  0  0  0  0  0  0  0  0  0  0
  1  2  1  0  0  0  0
  1 23  1  0  0  0  0
  1 24  1  0  0  0  0
  1 25  1  0  0  0  0
  2  3  2  0  0  0  0
  2  6  1  0  0  0  0
  3  4  1  0  0  0  0
  3 26  1  0  0  0  0
  4  5  2  0  0  0  0
  4  7  1  0  0  0  0
  5  6  1  0  0  0  0
  7  8  2  0  0  0  0
  7 11  1  0  0  0  0
  8  9  1  0  0  0  0
  8 19  1  0  0  0  0
  9 10  2  0  0  0  0
  9 18  1  0  0  0  0
 10 11  1  0  0  0  0
 11 12  1  0  0  0  0
 12 13  1  0  0  0  0
 12 17  2  0  0  0  0
 13 14  2  0  0  0  0
 13 27  1  0  0  0  0
 14 15  1  0  0  0  0
 14 28  1  0  0  0  0
 15 16  2  0  0  0  0
 15 29  1  0  0  0  0
 16 17  1  0  0  0  0
 16 30  1  0  0  0  0
 17 31  1  0  0  0  0
 18 32  1  0  0  0  0
 18 33  1  0  0  0  0
 18 34  1  0  0  0  0
 19 20  2  0  0  0  0
 19 21  1  0  0  0  0
 21 22  1  0  0  0  0
 22 35  1  0  0  0  0
 22 36  1  0  0  0  0
 22 37  1  0  0  0  0
M  END
$$$$
