
 OpenBabel07202414203D

 64 68  0  0  1  0  0  0  0  0999 V2000
   -5.2413   -0.1153    1.0456 C   0  0  0  0  0  0  0  0  0  0  0  0
   -4.8559    1.1066    1.5804 C   0  0  0  0  0  0  0  0  0  0  0  0
   -3.7284    1.7714    1.0798 C   0  0  0  0  0  0  0  0  0  0  0  0
   -2.9490    1.2390    0.0181 C   0  0  0  0  0  0  0  0  0  0  0  0
   -3.3587   -0.0185   -0.4926 C   0  0  0  0  0  0  0  0  0  0  0  0
   -4.4921   -0.6789    0.0180 C   0  0  0  0  0  0  0  0  0  0  0  0
   -2.6087   -0.5912   -1.5176 C   0  0  0  0  0  0  0  0  0  0  0  0
   -1.5214   -0.0271   -2.0788 N   0  0  0  0  0  0  0  0  0  0  0  0
   -1.1450    1.1773   -1.5884 C   0  0  0  0  0  0  0  0  0  0  0  0
   -1.7941    1.8564   -0.5557 C   0  0  0  0  0  0  0  0  0  0  0  0
   -1.3661    3.1395   -0.1195 N   0  0  0  0  0  0  0  0  0  0  0  0
   -0.1414    3.7511   -0.3693 C   0  0  0  0  0  0  0  0  0  0  0  0
    0.8273    3.1813   -0.8624 O   0  0  0  0  0  0  0  0  0  0  0  0
   -0.0954    5.0966    0.0648 N   0  0  0  0  0  0  0  0  0  0  0  0
    1.1793    5.8478   -0.0851 C   0  0  0  0  0  0  0  0  0  0  0  0
    1.7365    6.3107    1.2668 C   0  0  0  0  0  0  0  0  0  0  0  0
    3.0559    7.1202    1.2214 C   0  0  0  0  0  0  0  0  0  0  0  0
    3.4477    7.4825    2.6703 C   0  0  0  0  0  0  0  0  0  0  0  0
    4.6797    8.3776    2.7609 C   0  0  0  0  0  0  0  0  0  0  0  0
    4.5221    9.6292    1.9088 C   0  0  0  0  0  0  0  0  0  0  0  0
    4.2147    9.2627    0.4619 C   0  0  0  0  0  0  0  0  0  0  0  0
    2.9609    8.3902    0.3563 C   0  0  0  0  0  0  0  0  0  0  0  0
   -1.2679    5.9025   -0.0057 C   0  0  0  0  0  0  0  0  0  0  0  0
   -1.9324    6.0593   -1.2276 C   0  0  0  0  0  0  0  0  0  0  0  0
   -3.0849    6.8404   -1.3140 C   0  0  0  0  0  0  0  0  0  0  0  0
   -3.5722    7.4788   -0.1757 C   0  0  0  0  0  0  0  0  0  0  0  0
   -2.9098    7.3067    1.0456 C   0  0  0  0  0  0  0  0  0  0  0  0
   -1.7603    6.5227    1.1397 C   0  0  0  0  0  0  0  0  0  0  0  0
   -3.5280    8.0653    2.4630 Cl  0  0  0  0  0  0  0  0  0  0  0  0
   -3.6219    6.9331   -2.5742 O   0  0  0  0  0  0  0  0  0  0  0  0
   -5.0146    7.2612   -2.7231 C   0  0  3  0  0  0  0  0  0  0  0  0
   -6.0530    6.1956   -2.3181 C   0  0  0  0  0  0  0  0  0  0  0  0
   -6.2764    6.0375   -3.8203 C   0  0  0  0  0  0  0  0  0  0  0  0
   -6.8100    5.2478   -4.5640 O   0  0  0  0  0  0  0  0  0  0  0  0
   -5.5222    7.1322   -4.0970 N   0  0  0  0  0  0  0  0  0  0  0  0
   -6.1177   -0.6319    1.4293 H   0  0  0  0  0  0  0  0  0  0  0  0
   -5.4306    1.5446    2.3931 H   0  0  0  0  0  0  0  0  0  0  0  0
   -3.4659    2.7131    1.5516 H   0  0  0  0  0  0  0  0  0  0  0  0
   -4.7995   -1.6420   -0.3870 H   0  0  0  0  0  0  0  0  0  0  0  0
   -2.8721   -1.5606   -1.9350 H   0  0  0  0  0  0  0  0  0  0  0  0
   -0.2876    1.5966   -2.1047 H   0  0  0  0  0  0  0  0  0  0  0  0
   -1.9405    3.6112    0.5591 H   0  0  0  0  0  0  0  0  0  0  0  0
    0.9953    6.7046   -0.7443 H   0  0  0  0  0  0  0  0  0  0  0  0
    1.9278    5.2254   -0.5871 H   0  0  0  0  0  0  0  0  0  0  0  0
    1.8946    5.4226    1.8929 H   0  0  0  0  0  0  0  0  0  0  0  0
    0.9819    6.9154    1.7810 H   0  0  0  0  0  0  0  0  0  0  0  0
    3.8446    6.4815    0.8010 H   0  0  0  0  0  0  0  0  0  0  0  0
    3.6285    6.5661    3.2445 H   0  0  0  0  0  0  0  0  0  0  0  0
    2.6087    7.9976    3.1563 H   0  0  0  0  0  0  0  0  0  0  0  0
    5.5666    7.8196    2.4377 H   0  0  0  0  0  0  0  0  0  0  0  0
    4.8465    8.6647    3.8058 H   0  0  0  0  0  0  0  0  0  0  0  0
    5.4380   10.2293    1.9571 H   0  0  0  0  0  0  0  0  0  0  0  0
    3.7120   10.2507    2.3107 H   0  0  0  0  0  0  0  0  0  0  0  0
    5.0717    8.7298    0.0311 H   0  0  0  0  0  0  0  0  0  0  0  0
    4.0805   10.1774   -0.1270 H   0  0  0  0  0  0  0  0  0  0  0  0
    2.8156    8.1223   -0.6961 H   0  0  0  0  0  0  0  0  0  0  0  0
    2.0885    8.9820    0.6603 H   0  0  0  0  0  0  0  0  0  0  0  0
   -1.5435    5.5839   -2.1262 H   0  0  0  0  0  0  0  0  0  0  0  0
   -4.4452    8.1213   -0.2128 H   0  0  0  0  0  0  0  0  0  0  0  0
   -1.2699    6.3809    2.0992 H   0  0  0  0  0  0  0  0  0  0  0  0
   -5.2356    8.2701   -2.3555 H   0  0  0  0  0  0  0  0  0  0  0  0
   -6.9210    6.5669   -1.7672 H   0  0  0  0  0  0  0  0  0  0  0  0
   -5.6577    5.2931   -1.8430 H   0  0  0  0  0  0  0  0  0  0  0  0
   -4.9800    7.1029   -4.9501 H   0  0  0  0  0  0  0  0  0  0  0  0
  1  2  1  0  0  0  0
  1  6  2  0  0  0  0
  1 36  1  0  0  0  0
  2  3  2  0  0  0  0
  2 37  1  0  0  0  0
  3  4  1  0  0  0  0
  3 38  1  0  0  0  0
  4  5  1  0  0  0  0
  4 10  2  0  0  0  0
  5  6  1  0  0  0  0
  5  7  2  0  0  0  0
  6 39  1  0  0  0  0
  7  8  1  0  0  0  0
  7 40  1  0  0  0  0
  8  9  2  0  0  0  0
  9 10  1  0  0  0  0
  9 41  1  0  0  0  0
 10 11  1  0  0  0  0
 11 12  1  0  0  0  0
 11 42  1  0  0  0  0
 12 13  2  0  0  0  0
 12 14  1  0  0  0  0
 14 15  1  0  0  0  0
 14 23  1  0  0  0  0
 15 16  1  0  0  0  0
 15 43  1  0  0  0  0
 15 44  1  0  0  0  0
 16 17  1  0  0  0  0
 16 45  1  0  0  0  0
 16 46  1  0  0  0  0
 17 18  1  0  0  0  0
 17 22  1  0  0  0  0
 17 47  1  0  0  0  0
 18 19  1  0  0  0  0
 18 48  1  0  0  0  0
 18 49  1  0  0  0  0
 19 20  1  0  0  0  0
 19 50  1  0  0  0  0
 19 51  1  0  0  0  0
 20 21  1  0  0  0  0
 20 52  1  0  0  0  0
 20 53  1  0  0  0  0
 21 22  1  0  0  0  0
 21 54  1  0  0  0  0
 21 55  1  0  0  0  0
 22 56  1  0  0  0  0
 22 57  1  0  0  0  0
 23 24  1  0  0  0  0
 23 28  2  0  0  0  0
 24 25  2  0  0  0  0
 24 58  1  0  0  0  0
 25 26  1  0  0  0  0
 25 30  1  0  0  0  0
 26 27  2  0  0  0  0
 26 59  1  0  0  0  0
 27 28  1  0  0  0  0
 27 29  1  0  0  0  0
 28 60  1  0  0  0  0
 30 31  1  0  0  0  0
 31 32  1  0  0  0  0
 31 35  1  0  0  0  0
 31 61  1  0  0  0  0
 32 33  1  0  0  0  0
 32 62  1  0  0  0  0
 32 63  1  0  0  0  0
 33 34  2  0  0  0  0
 33 35  1  0  0  0  0
 35 64  1  0  0  0  0
M  END
$$$$
