
 OpenBabel07202414193D

 48 51  0  0  0  0  0  0  0  0999 V2000
   -2.9585    0.8252   -1.0428 N   0  0  0  0  0  0  0  0  0  0  0  0
   -1.8519    0.5211   -0.8974 C   0  0  0  0  0  0  0  0  0  0  0  0
   -0.4608    0.1783   -0.7238 C   0  0  0  0  0  0  0  0  0  0  0  0
    0.0326   -0.1799    0.5373 C   0  0  0  0  0  0  0  0  0  0  0  0
    1.3990   -0.4534    0.7162 C   0  0  0  0  0  0  0  0  0  0  0  0
    2.2791   -0.3721   -0.3695 C   0  0  0  0  0  0  0  0  0  0  0  0
    3.6891   -0.4866   -0.1765 N   0  0  0  0  0  0  0  0  0  0  0  0
    4.3693    0.7833    0.1532 C   0  0  0  0  0  0  0  0  0  0  0  0
    5.1496    1.4380   -0.9717 C   0  0  0  0  0  0  0  0  0  0  0  0
    5.2467    0.8960   -2.2605 C   0  0  0  0  0  0  0  0  0  0  0  0
    6.0415    1.5022   -3.2365 C   0  0  0  0  0  0  0  0  0  0  0  0
    6.7552    2.6594   -2.9399 C   0  0  0  0  0  0  0  0  0  0  0  0
    6.6478    3.2320   -1.6761 C   0  0  0  0  0  0  0  0  0  0  0  0
    5.8455    2.6310   -0.7019 C   0  0  0  0  0  0  0  0  0  0  0  0
    4.2614   -1.7625   -0.0263 C   0  0  0  0  0  0  0  0  0  0  0  0
    3.5823   -2.7898   -0.0962 O   0  0  0  0  0  0  0  0  0  0  0  0
    5.7654   -1.8286    0.2840 C   0  0  0  0  0  0  0  0  0  0  0  0
    6.6189   -2.9627   -0.2736 C   0  0  0  0  0  0  0  0  0  0  0  0
    6.1286   -3.9083   -1.1723 C   0  0  0  0  0  0  0  0  0  0  0  0
    6.8891   -4.8236   -1.8169 N   0  0  0  0  0  0  0  0  0  0  0  0
    8.2035   -4.8471   -1.5173 C   0  0  0  0  0  0  0  0  0  0  0  0
    8.8063   -4.0352   -0.5626 C   0  0  0  0  0  0  0  0  0  0  0  0
   10.1652   -4.1925   -0.2264 C   0  0  0  0  0  0  0  0  0  0  0  0
   10.7558   -3.3806    0.7372 C   0  0  0  0  0  0  0  0  0  0  0  0
   10.0053   -2.3789    1.3387 C   0  0  0  0  0  0  0  0  0  0  0  0
    8.6574   -2.2095    1.0002 C   0  0  0  0  0  0  0  0  0  0  0  0
    8.0076   -3.0496    0.0635 C   0  0  0  0  0  0  0  0  0  0  0  0
    1.7780   -0.0524   -1.6343 C   0  0  0  0  0  0  0  0  0  0  0  0
    0.4161    0.2161   -1.8127 C   0  0  0  0  0  0  0  0  0  0  0  0
   -0.6385   -0.2297    1.3941 H   0  0  0  0  0  0  0  0  0  0  0  0
    1.7646   -0.7124    1.7065 H   0  0  0  0  0  0  0  0  0  0  0  0
    5.0596    0.5911    0.9838 H   0  0  0  0  0  0  0  0  0  0  0  0
    3.6279    1.5011    0.5295 H   0  0  0  0  0  0  0  0  0  0  0  0
    4.7225   -0.0171   -2.5272 H   0  0  0  0  0  0  0  0  0  0  0  0
    6.1135    1.0588   -4.2267 H   0  0  0  0  0  0  0  0  0  0  0  0
    7.3958    3.1113   -3.6931 H   0  0  0  0  0  0  0  0  0  0  0  0
    7.1978    4.1417   -1.4470 H   0  0  0  0  0  0  0  0  0  0  0  0
    5.7814    3.0984    0.2793 H   0  0  0  0  0  0  0  0  0  0  0  0
    5.8347   -1.8420    1.3783 H   0  0  0  0  0  0  0  0  0  0  0  0
    6.2445   -0.9197   -0.0866 H   0  0  0  0  0  0  0  0  0  0  0  0
    5.0767   -3.9783   -1.4321 H   0  0  0  0  0  0  0  0  0  0  0  0
    8.7816   -5.5700   -2.0878 H   0  0  0  0  0  0  0  0  0  0  0  0
   10.7649   -4.9691   -0.6975 H   0  0  0  0  0  0  0  0  0  0  0  0
   11.7958   -3.5312    1.0175 H   0  0  0  0  0  0  0  0  0  0  0  0
   10.4649   -1.7308    2.0813 H   0  0  0  0  0  0  0  0  0  0  0  0
    8.1154   -1.4135    1.5032 H   0  0  0  0  0  0  0  0  0  0  0  0
    2.4354   -0.0091   -2.4956 H   0  0  0  0  0  0  0  0  0  0  0  0
    0.0506    0.4752   -2.8049 H   0  0  0  0  0  0  0  0  0  0  0  0
  1  2  3  0  0  0  0
  2  3  1  0  0  0  0
  3  4  1  0  0  0  0
  3 29  2  0  0  0  0
  4  5  2  0  0  0  0
  4 30  1  0  0  0  0
  5  6  1  0  0  0  0
  5 31  1  0  0  0  0
  6  7  1  0  0  0  0
  6 28  2  0  0  0  0
  7  8  1  0  0  0  0
  7 15  1  0  0  0  0
  8  9  1  0  0  0  0
  8 32  1  0  0  0  0
  8 33  1  0  0  0  0
  9 10  1  0  0  0  0
  9 14  2  0  0  0  0
 10 11  2  0  0  0  0
 10 34  1  0  0  0  0
 11 12  1  0  0  0  0
 11 35  1  0  0  0  0
 12 13  2  0  0  0  0
 12 36  1  0  0  0  0
 13 14  1  0  0  0  0
 13 37  1  0  0  0  0
 14 38  1  0  0  0  0
 15 16  2  0  0  0  0
 15 17  1  0  0  0  0
 17 18  1  0  0  0  0
 17 39  1  0  0  0  0
 17 40  1  0  0  0  0
 18 19  1  0  0  0  0
 18 27  2  0  0  0  0
 19 20  2  0  0  0  0
 19 41  1  0  0  0  0
 20 21  1  0  0  0  0
 21 22  2  0  0  0  0
 21 42  1  0  0  0  0
 22 23  1  0  0  0  0
 22 27  1  0  0  0  0
 23 24  2  0  0  0  0
 23 43  1  0  0  0  0
 24 25  1  0  0  0  0
 24 44  1  0  0  0  0
 25 26  2  0  0  0  0
 25 45  1  0  0  0  0
 26 27  1  0  0  0  0
 26 46  1  0  0  0  0
 28 29  1  0  0  0  0
 28 47  1  0  0  0  0
 29 48  1  0  0  0  0
M  END
$$$$
