
 OpenBabel07202414183D

 41 44  0  0  1  0  0  0  0  0999 V2000
    1.5128   -0.1520    0.6176 F   0  0  0  0  0  0  0  0  0  0  0  0
    2.8503   -0.1470    0.5666 C   0  0  0  0  0  0  0  0  0  0  0  0
    3.5362    1.0423    0.7511 C   0  0  0  0  0  0  0  0  0  0  0  0
    4.9313    1.0554    0.6657 C   0  0  0  0  0  0  0  0  0  0  0  0
    5.6643   -0.1243    0.3841 C   0  0  0  0  0  0  0  0  0  0  0  0
    7.0664   -0.1701    0.1856 C   0  0  0  0  0  0  0  0  0  0  0  0
    7.8644    0.9940    0.3247 N   0  0  0  0  0  0  0  0  0  0  0  0
    8.8115    1.3522   -0.6242 C   0  0  0  0  0  0  0  0  0  0  0  0
    9.0170    0.7342   -1.6659 O   0  0  0  0  0  0  0  0  0  0  0  0
    9.6232    2.6006   -0.2559 C   0  0  3  0  0  0  0  0  0  0  0  0
    9.7415    3.5290   -1.4854 C   0  0  0  0  0  0  0  0  0  0  0  0
   10.1121    4.9528   -1.0837 C   0  0  0  0  0  0  0  0  0  0  0  0
   11.3722    5.0252    0.1778 S   0  0  0  0  0  0  0  0  0  0  0  0
   10.7256    5.3065    1.4448 O   0  0  0  0  0  0  0  0  0  0  0  0
   12.4585    5.8491   -0.3215 O   0  0  0  0  0  0  0  0  0  0  0  0
   11.9700    3.3587    0.3057 C   0  0  0  0  0  0  0  0  0  0  0  0
   13.3392    3.1344    0.4624 C   0  0  0  0  0  0  0  0  0  0  0  0
   13.8124    1.8245    0.5159 C   0  0  0  0  0  0  0  0  0  0  0  0
   12.9146    0.7602    0.4580 C   0  0  0  0  0  0  0  0  0  0  0  0
   13.5006   -0.8563    0.5171 Cl  0  0  0  0  0  0  0  0  0  0  0  0
   11.5452    0.9884    0.3031 C   0  0  0  0  0  0  0  0  0  0  0  0
   11.0548    2.2963    0.1710 C   0  0  0  0  0  0  0  0  0  0  0  0
    7.6495   -1.3980   -0.1386 C   0  0  0  0  0  0  0  0  0  0  0  0
    6.9717   -2.5618   -0.2499 N   0  0  0  0  0  0  0  0  0  0  0  0
    5.6356   -2.4955   -0.0793 C   0  0  0  0  0  0  0  0  0  0  0  0
    4.9319   -1.3270    0.2164 C   0  0  0  0  0  0  0  0  0  0  0  0
    3.5300   -1.3295    0.3120 C   0  0  0  0  0  0  0  0  0  0  0  0
    2.9830    1.9570    0.9403 H   0  0  0  0  0  0  0  0  0  0  0  0
    5.4294    2.0125    0.7841 H   0  0  0  0  0  0  0  0  0  0  0  0
    7.5101    1.7244    0.9279 H   0  0  0  0  0  0  0  0  0  0  0  0
    9.1052    3.1246    0.5574 H   0  0  0  0  0  0  0  0  0  0  0  0
    8.8115    3.5508   -2.0649 H   0  0  0  0  0  0  0  0  0  0  0  0
   10.5123    3.1460   -2.1721 H   0  0  0  0  0  0  0  0  0  0  0  0
    9.2342    5.4705   -0.6833 H   0  0  0  0  0  0  0  0  0  0  0  0
   10.4701    5.5138   -1.9528 H   0  0  0  0  0  0  0  0  0  0  0  0
   14.0396    3.9657    0.5131 H   0  0  0  0  0  0  0  0  0  0  0  0
   14.8806    1.6382    0.5915 H   0  0  0  0  0  0  0  0  0  0  0  0
   10.8864    0.1262    0.2267 H   0  0  0  0  0  0  0  0  0  0  0  0
    8.7220   -1.4952   -0.2847 H   0  0  0  0  0  0  0  0  0  0  0  0
    5.1224   -3.4469   -0.2063 H   0  0  0  0  0  0  0  0  0  0  0  0
    2.9554   -2.2395    0.1638 H   0  0  0  0  0  0  0  0  0  0  0  0
  1  2  1  0  0  0  0
  2  3  1  0  0  0  0
  2 27  2  0  0  0  0
  3  4  2  0  0  0  0
  3 28  1  0  0  0  0
  4  5  1  0  0  0  0
  4 29  1  0  0  0  0
  5  6  1  0  0  0  0
  5 26  2  0  0  0  0
  6  7  1  0  0  0  0
  6 23  2  0  0  0  0
  7  8  1  0  0  0  0
  7 30  1  0  0  0  0
  8  9  2  0  0  0  0
  8 10  1  0  0  0  0
 10 11  1  0  0  0  0
 10 22  1  0  0  0  0
 10 31  1  0  0  0  0
 11 12  1  0  0  0  0
 11 32  1  0  0  0  0
 11 33  1  0  0  0  0
 12 13  1  0  0  0  0
 12 34  1  0  0  0  0
 12 35  1  0  0  0  0
 13 14  2  0  0  0  0
 13 15  2  0  0  0  0
 13 16  1  0  0  0  0
 16 17  1  0  0  0  0
 16 22  2  0  0  0  0
 17 18  2  0  0  0  0
 17 36  1  0  0  0  0
 18 19  1  0  0  0  0
 18 37  1  0  0  0  0
 19 20  1  0  0  0  0
 19 21  2  0  0  0  0
 21 22  1  0  0  0  0
 21 38  1  0  0  0  0
 23 24  1  0  0  0  0
 23 39  1  0  0  0  0
 24 25  2  0  0  0  0
 25 26  1  0  0  0  0
 25 40  1  0  0  0  0
 26 27  1  0  0  0  0
 27 41  1  0  0  0  0
M  END
$$$$
