
 OpenBabel07202414203D

 38 41  0  0  0  0  0  0  0  0999 V2000
    2.5527    0.1524   -1.8109 O   0  0  0  0  0  0  0  0  0  0  0  0
    2.3462    1.3568   -1.0832 C   0  0  0  0  0  0  0  0  0  0  0  0
    3.0178    1.2739    0.2848 C   0  0  0  0  0  0  0  0  0  0  0  0
    4.4686    1.3234    0.2192 N   0  0  0  0  0  0  0  0  0  0  0  0
    5.3447    0.2476    0.2266 C   0  0  0  0  0  0  0  0  0  0  0  0
    4.9152   -1.1948    0.2494 C   0  0  0  0  0  0  0  0  0  0  0  0
    6.3430   -2.3312    0.2835 S   0  0  0  0  0  0  0  0  0  0  0  0
    5.5385   -3.8678    0.3071 C   0  0  0  0  0  0  0  0  0  0  0  0
    4.2265   -4.0115    0.3197 N   0  0  0  0  0  0  0  0  0  0  0  0
    4.0463   -5.3701    0.3313 C   0  0  0  0  0  0  0  0  0  0  0  0
    2.8772   -6.1393    0.3462 C   0  0  0  0  0  0  0  0  0  0  0  0
    3.0055   -7.5362    0.3612 C   0  0  0  0  0  0  0  0  0  0  0  0
    4.2663   -8.1478    0.3632 C   0  0  0  0  0  0  0  0  0  0  0  0
    5.4453   -7.3906    0.3500 C   0  0  0  0  0  0  0  0  0  0  0  0
    5.2726   -6.0113    0.3344 C   0  0  0  0  0  0  0  0  0  0  0  0
    6.2386   -5.0504    0.3180 O   0  0  0  0  0  0  0  0  0  0  0  0
    6.5934    0.6820    0.2227 N   0  0  0  0  0  0  0  0  0  0  0  0
    6.5358    2.0432    0.2227 C   0  0  0  0  0  0  0  0  0  0  0  0
    7.5895    2.9685    0.2329 C   0  0  0  0  0  0  0  0  0  0  0  0
    7.2857    4.3329    0.2412 C   0  0  0  0  0  0  0  0  0  0  0  0
    5.9574    4.7588    0.2387 C   0  0  0  0  0  0  0  0  0  0  0  0
    5.6169    6.4487    0.2537 Cl  0  0  0  0  0  0  0  0  0  0  0  0
    4.8901    3.8499    0.2276 C   0  0  0  0  0  0  0  0  0  0  0  0
    5.2180    2.4857    0.2208 C   0  0  0  0  0  0  0  0  0  0  0  0
    2.1646    0.2766   -2.6958 H   0  0  0  0  0  0  0  0  0  0  0  0
    1.2653    1.4781   -0.9526 H   0  0  0  0  0  0  0  0  0  0  0  0
    2.7223    2.1991   -1.6727 H   0  0  0  0  0  0  0  0  0  0  0  0
    2.7341    0.3546    0.8061 H   0  0  0  0  0  0  0  0  0  0  0  0
    2.6938    2.1167    0.9061 H   0  0  0  0  0  0  0  0  0  0  0  0
    4.3136   -1.4140   -0.6371 H   0  0  0  0  0  0  0  0  0  0  0  0
    4.3098   -1.3745    1.1443 H   0  0  0  0  0  0  0  0  0  0  0  0
    1.9041   -5.6609    0.3432 H   0  0  0  0  0  0  0  0  0  0  0  0
    2.1085   -8.1524    0.3711 H   0  0  0  0  0  0  0  0  0  0  0  0
    4.3302   -9.2348    0.3763 H   0  0  0  0  0  0  0  0  0  0  0  0
    6.4279   -7.8466    0.3510 H   0  0  0  0  0  0  0  0  0  0  0  0
    8.6148    2.6169    0.2394 H   0  0  0  0  0  0  0  0  0  0  0  0
    8.0977    5.0564    0.2525 H   0  0  0  0  0  0  0  0  0  0  0  0
    3.8629    4.1944    0.2300 H   0  0  0  0  0  0  0  0  0  0  0  0
  1  2  1  0  0  0  0
  1 25  1  0  0  0  0
  2  3  1  0  0  0  0
  2 26  1  0  0  0  0
  2 27  1  0  0  0  0
  3  4  1  0  0  0  0
  3 28  1  0  0  0  0
  3 29  1  0  0  0  0
  4  5  1  0  0  0  0
  4 24  1  0  0  0  0
  5  6  1  0  0  0  0
  5 17  2  0  0  0  0
  6  7  1  0  0  0  0
  6 30  1  0  0  0  0
  6 31  1  0  0  0  0
  7  8  1  0  0  0  0
  8  9  2  0  0  0  0
  8 16  1  0  0  0  0
  9 10  1  0  0  0  0
 10 11  1  0  0  0  0
 10 15  2  0  0  0  0
 11 12  2  0  0  0  0
 11 32  1  0  0  0  0
 12 13  1  0  0  0  0
 12 33  1  0  0  0  0
 13 14  2  0  0  0  0
 13 34  1  0  0  0  0
 14 15  1  0  0  0  0
 14 35  1  0  0  0  0
 15 16  1  0  0  0  0
 17 18  1  0  0  0  0
 18 19  1  0  0  0  0
 18 24  2  0  0  0  0
 19 20  2  0  0  0  0
 19 36  1  0  0  0  0
 20 21  1  0  0  0  0
 20 37  1  0  0  0  0
 21 22  1  0  0  0  0
 21 23  2  0  0  0  0
 23 24  1  0  0  0  0
 23 38  1  0  0  0  0
M  END
$$$$
