
 OpenBabel07202414143D

 54 58  0  0  1  0  0  0  0  0999 V2000
    5.1996   -3.2530   -2.7452 C   0  0  0  0  0  0  0  0  0  0  0  0
    5.2621   -2.6334   -1.4465 N   0  0  0  0  0  0  0  0  0  0  0  0
    4.2355   -1.8381   -0.9958 C   0  0  0  0  0  0  0  0  0  0  0  0
    3.2523   -1.5762   -1.6945 O   0  0  0  0  0  0  0  0  0  0  0  0
    4.3994   -1.2488    0.4115 C   0  0  0  0  0  0  0  0  0  0  0  0
    5.1396   -2.1397    1.3283 N   0  0  0  0  0  0  0  0  0  0  0  0
    4.4313   -3.3946    1.6245 C   0  0  0  0  0  0  0  0  0  0  0  0
    3.4471   -3.3652    2.7735 C   0  0  0  0  0  0  0  0  0  0  0  0
    2.4952   -4.4011    2.8671 C   0  0  0  0  0  0  0  0  0  0  0  0
    1.5935   -4.4656    3.9245 C   0  0  0  0  0  0  0  0  0  0  0  0
    1.6366   -3.4999    4.9197 C   0  0  0  0  0  0  0  0  0  0  0  0
    0.5233   -3.5467    6.2297 Cl  0  0  0  0  0  0  0  0  0  0  0  0
    2.5816   -2.4805    4.8568 C   0  0  0  0  0  0  0  0  0  0  0  0
    3.5047   -2.3945    3.7900 C   0  0  0  0  0  0  0  0  0  0  0  0
    4.4855   -1.2168    3.6917 C   0  0  3  0  0  0  0  0  0  0  0  0
    5.2548   -0.9837    5.0187 C   0  0  0  0  0  0  0  0  0  0  0  0
    4.7151    0.3073    5.6079 C   0  0  0  0  0  0  0  0  0  0  0  0
    3.5040    0.5892    4.8906 N   0  0  0  0  0  0  0  0  0  0  0  0
    2.5890    1.6029    5.3173 C   0  0  0  0  0  0  0  0  0  0  0  0
    2.0648    2.5206    4.4034 C   0  0  0  0  0  0  0  0  0  0  0  0
    1.3157    3.6002    4.7335 N   0  0  0  0  0  0  0  0  0  0  0  0
    1.0033    3.7452    6.0343 C   0  0  0  0  0  0  0  0  0  0  0  0
    1.3377    2.8328    7.0296 C   0  0  0  0  0  0  0  0  0  0  0  0
    0.8441    3.0035    8.3389 C   0  0  0  0  0  0  0  0  0  0  0  0
    1.1252    2.0741    9.3356 C   0  0  0  0  0  0  0  0  0  0  0  0
    1.8939    0.9659    9.0221 C   0  0  0  0  0  0  0  0  0  0  0  0
    2.2626   -0.1923   10.2403 Cl  0  0  0  0  0  0  0  0  0  0  0  0
    2.3678    0.7770    7.7195 C   0  0  0  0  0  0  0  0  0  0  0  0
    2.1439    1.7206    6.6789 C   0  0  0  0  0  0  0  0  0  0  0  0
    3.6448    0.0814    3.5798 C   0  0  0  0  0  0  0  0  0  0  0  0
    3.0890    0.4826    2.5706 O   0  0  0  0  0  0  0  0  0  0  0  0
    5.5344   -1.4489    2.5684 C   0  0  0  0  0  0  0  0  0  0  0  0
    5.9896   -4.0030   -2.8252 H   0  0  0  0  0  0  0  0  0  0  0  0
    5.3289   -2.4861   -3.5141 H   0  0  0  0  0  0  0  0  0  0  0  0
    4.2233   -3.7293   -2.8775 H   0  0  0  0  0  0  0  0  0  0  0  0
    6.0873   -2.7152   -0.8623 H   0  0  0  0  0  0  0  0  0  0  0  0
    3.3978   -1.0281    0.7876 H   0  0  0  0  0  0  0  0  0  0  0  0
    4.9542   -0.3132    0.2778 H   0  0  0  0  0  0  0  0  0  0  0  0
    5.1889   -4.1483    1.8785 H   0  0  0  0  0  0  0  0  0  0  0  0
    3.9269   -3.7778    0.7290 H   0  0  0  0  0  0  0  0  0  0  0  0
    2.4533   -5.1727    2.0972 H   0  0  0  0  0  0  0  0  0  0  0  0
    0.8590   -5.2676    3.9719 H   0  0  0  0  0  0  0  0  0  0  0  0
    2.5731   -1.7359    5.6450 H   0  0  0  0  0  0  0  0  0  0  0  0
    6.3348   -0.8668    4.8700 H   0  0  0  0  0  0  0  0  0  0  0  0
    5.1350   -1.8157    5.7229 H   0  0  0  0  0  0  0  0  0  0  0  0
    5.4112    1.1307    5.3968 H   0  0  0  0  0  0  0  0  0  0  0  0
    4.6220    0.2345    6.6881 H   0  0  0  0  0  0  0  0  0  0  0  0
    2.2589    2.4586    3.3375 H   0  0  0  0  0  0  0  0  0  0  0  0
    0.4304    4.6417    6.2582 H   0  0  0  0  0  0  0  0  0  0  0  0
    0.2076    3.8527    8.5831 H   0  0  0  0  0  0  0  0  0  0  0  0
    0.7229    2.2072   10.3359 H   0  0  0  0  0  0  0  0  0  0  0  0
    2.8768   -0.1592    7.5190 H   0  0  0  0  0  0  0  0  0  0  0  0
    6.3302   -2.0850    2.9872 H   0  0  0  0  0  0  0  0  0  0  0  0
    6.0410   -0.5055    2.3227 H   0  0  0  0  0  0  0  0  0  0  0  0
  1  2  1  0  0  0  0
  1 33  1  0  0  0  0
  1 34  1  0  0  0  0
  1 35  1  0  0  0  0
  2  3  1  0  0  0  0
  2 36  1  0  0  0  0
  3  4  2  0  0  0  0
  3  5  1  0  0  0  0
  5  6  1  0  0  0  0
  5 37  1  0  0  0  0
  5 38  1  0  0  0  0
  6  7  1  0  0  0  0
  6 32  1  0  0  0  0
  7  8  1  0  0  0  0
  7 39  1  0  0  0  0
  7 40  1  0  0  0  0
  8  9  1  0  0  0  0
  8 14  2  0  0  0  0
  9 10  2  0  0  0  0
  9 41  1  0  0  0  0
 10 11  1  0  0  0  0
 10 42  1  0  0  0  0
 11 12  1  0  0  0  0
 11 13  2  0  0  0  0
 13 14  1  0  0  0  0
 13 43  1  0  0  0  0
 14 15  1  0  0  0  0
 15 16  1  0  0  0  0
 15 30  1  0  0  0  0
 15 32  1  0  0  0  0
 16 17  1  0  0  0  0
 16 44  1  0  0  0  0
 16 45  1  0  0  0  0
 17 18  1  0  0  0  0
 17 46  1  0  0  0  0
 17 47  1  0  0  0  0
 18 19  1  0  0  0  0
 18 30  1  0  0  0  0
 19 20  1  0  0  0  0
 19 29  2  0  0  0  0
 20 21  2  0  0  0  0
 20 48  1  0  0  0  0
 21 22  1  0  0  0  0
 22 23  2  0  0  0  0
 22 49  1  0  0  0  0
 23 24  1  0  0  0  0
 23 29  1  0  0  0  0
 24 25  2  0  0  0  0
 24 50  1  0  0  0  0
 25 26  1  0  0  0  0
 25 51  1  0  0  0  0
 26 27  1  0  0  0  0
 26 28  2  0  0  0  0
 28 29  1  0  0  0  0
 28 52  1  0  0  0  0
 30 31  2  0  0  0  0
 32 53  1  0  0  0  0
 32 54  1  0  0  0  0
M  END
$$$$
