
 OpenBabel07202414153D

 49 52  0  0  0  0  0  0  0  0999 V2000
    1.3779    8.2698    0.1500 C   0  0  0  0  0  0  0  0  0  0  0  0
    0.4765    7.1678   -0.9715 S   0  0  0  0  0  0  0  0  0  0  0  0
    1.0286    5.5999   -0.3587 C   0  0  0  0  0  0  0  0  0  0  0  0
    0.5523    4.5025   -0.9676 N   0  0  0  0  0  0  0  0  0  0  0  0
    0.9851    3.3204   -0.4877 C   0  0  0  0  0  0  0  0  0  0  0  0
    1.8827    3.1978    0.5512 C   0  0  0  0  0  0  0  0  0  0  0  0
    2.2596    1.9104    1.0217 C   0  0  0  0  0  0  0  0  0  0  0  0
    2.5446    0.8379    1.3788 N   0  0  0  0  0  0  0  0  0  0  0  0
    2.3307    4.3839    1.1116 C   0  0  0  0  0  0  0  0  0  0  0  0
    3.3093    4.3839    2.1323 N   0  0  0  0  0  0  0  0  0  0  0  0
    3.4493    5.3513    3.1585 C   0  0  0  0  0  0  0  0  0  0  0  0
    4.7245    5.6592    3.6671 C   0  0  0  0  0  0  0  0  0  0  0  0
    4.8843    6.4552    4.8172 C   0  0  0  0  0  0  0  0  0  0  0  0
    6.2533    6.7004    5.4148 C   0  0  0  0  0  0  0  0  0  0  0  0
    7.2025    7.5055    4.5387 C   0  0  0  0  0  0  0  0  0  0  0  0
    6.8422    8.4992    3.9153 O   0  0  0  0  0  0  0  0  0  0  0  0
    8.4965    7.0016    4.5267 N   0  0  0  0  0  0  0  0  0  0  0  0
    9.5459    7.6179    3.7994 C   0  0  0  0  0  0  0  0  0  0  0  0
    9.7516    8.9973    3.8652 C   0  0  0  0  0  0  0  0  0  0  0  0
   10.7590    9.6498    3.2422 N   0  0  0  0  0  0  0  0  0  0  0  0
   11.5824    8.8945    2.4842 C   0  0  0  0  0  0  0  0  0  0  0  0
   11.4684    7.5118    2.3215 C   0  0  0  0  0  0  0  0  0  0  0  0
   12.3394    6.7965    1.4798 C   0  0  0  0  0  0  0  0  0  0  0  0
   12.1828    5.4241    1.2956 C   0  0  0  0  0  0  0  0  0  0  0  0
   11.1584    4.7520    1.9499 C   0  0  0  0  0  0  0  0  0  0  0  0
   10.2943    5.4498    2.7965 C   0  0  0  0  0  0  0  0  0  0  0  0
   10.4285    6.8436    3.0078 C   0  0  0  0  0  0  0  0  0  0  0  0
    3.7394    6.9487    5.4573 C   0  0  0  0  0  0  0  0  0  0  0  0
    2.4745    6.6845    4.9335 C   0  0  0  0  0  0  0  0  0  0  0  0
    1.0759    7.2726    5.7488 Cl  0  0  0  0  0  0  0  0  0  0  0  0
    2.3268    5.9017    3.7898 C   0  0  0  0  0  0  0  0  0  0  0  0
    1.8953    5.5761    0.6625 N   0  0  0  0  0  0  0  0  0  0  0  0
    1.1030    9.3049   -0.0672 H   0  0  0  0  0  0  0  0  0  0  0  0
    2.4579    8.1644    0.0105 H   0  0  0  0  0  0  0  0  0  0  0  0
    1.1197    8.0599    1.1921 H   0  0  0  0  0  0  0  0  0  0  0  0
    0.5649    2.4500   -0.9880 H   0  0  0  0  0  0  0  0  0  0  0  0
    4.2021    4.0762    1.7603 H   0  0  0  0  0  0  0  0  0  0  0  0
    5.6073    5.2657    3.1687 H   0  0  0  0  0  0  0  0  0  0  0  0
    6.6886    5.7267    5.6692 H   0  0  0  0  0  0  0  0  0  0  0  0
    6.1653    7.2560    6.3567 H   0  0  0  0  0  0  0  0  0  0  0  0
    8.6182    6.0279    4.7679 H   0  0  0  0  0  0  0  0  0  0  0  0
    9.1169    9.6359    4.4744 H   0  0  0  0  0  0  0  0  0  0  0  0
   12.3619    9.4586    1.9766 H   0  0  0  0  0  0  0  0  0  0  0  0
   13.1357    7.3109    0.9453 H   0  0  0  0  0  0  0  0  0  0  0  0
   12.8514    4.8834    0.6305 H   0  0  0  0  0  0  0  0  0  0  0  0
   11.0188    3.6856    1.7915 H   0  0  0  0  0  0  0  0  0  0  0  0
    9.4881    4.8875    3.2575 H   0  0  0  0  0  0  0  0  0  0  0  0
    3.8262    7.5271    6.3747 H   0  0  0  0  0  0  0  0  0  0  0  0
    1.3279    5.6825    3.4223 H   0  0  0  0  0  0  0  0  0  0  0  0
  1  2  1  0  0  0  0
  1 33  1  0  0  0  0
  1 34  1  0  0  0  0
  1 35  1  0  0  0  0
  2  3  1  0  0  0  0
  3  4  2  0  0  0  0
  3 32  1  0  0  0  0
  4  5  1  0  0  0  0
  5  6  2  0  0  0  0
  5 36  1  0  0  0  0
  6  7  1  0  0  0  0
  6  9  1  0  0  0  0
  7  8  3  0  0  0  0
  9 10  1  0  0  0  0
  9 32  2  0  0  0  0
 10 11  1  0  0  0  0
 10 37  1  0  0  0  0
 11 12  2  0  0  0  0
 11 31  1  0  0  0  0
 12 13  1  0  0  0  0
 12 38  1  0  0  0  0
 13 14  1  0  0  0  0
 13 28  2  0  0  0  0
 14 15  1  0  0  0  0
 14 39  1  0  0  0  0
 14 40  1  0  0  0  0
 15 16  2  0  0  0  0
 15 17  1  0  0  0  0
 17 18  1  0  0  0  0
 17 41  1  0  0  0  0
 18 19  2  0  0  0  0
 18 27  1  0  0  0  0
 19 20  1  0  0  0  0
 19 42  1  0  0  0  0
 20 21  2  0  0  0  0
 21 22  1  0  0  0  0
 21 43  1  0  0  0  0
 22 23  2  0  0  0  0
 22 27  1  0  0  0  0
 23 24  1  0  0  0  0
 23 44  1  0  0  0  0
 24 25  2  0  0  0  0
 24 45  1  0  0  0  0
 25 26  1  0  0  0  0
 25 46  1  0  0  0  0
 26 27  2  0  0  0  0
 26 47  1  0  0  0  0
 28 29  1  0  0  0  0
 28 48  1  0  0  0  0
 29 30  1  0  0  0  0
 29 31  2  0  0  0  0
 31 49  1  0  0  0  0
M  END
$$$$
