
 OpenBabel07202414153D

 40 42  0  0  1  0  0  0  0  0999 V2000
    1.2034   -0.7243   -0.1304 C   0  0  0  0  0  0  0  0  0  0  0  0
    2.2954    0.1754    0.0140 O   0  0  0  0  0  0  0  0  0  0  0  0
    2.9201    0.1894    1.2316 C   0  0  0  0  0  0  0  0  0  0  0  0
    4.0315    1.0345    1.3095 C   0  0  0  0  0  0  0  0  0  0  0  0
    4.7817    1.1212    2.4825 C   0  0  0  0  0  0  0  0  0  0  0  0
    4.4268    0.3384    3.5808 C   0  0  0  0  0  0  0  0  0  0  0  0
    3.3042   -0.5009    3.5213 C   0  0  0  0  0  0  0  0  0  0  0  0
    2.5444   -0.5596    2.3491 C   0  0  0  0  0  0  0  0  0  0  0  0
    2.9488   -1.3187    4.7391 C   0  0  0  0  0  0  0  0  0  0  0  0
    4.1188   -1.8867    5.4235 N   0  0  0  0  0  0  0  0  0  0  0  0
    5.4316   -1.2112    5.2413 C   0  0  3  0  0  0  0  0  0  0  0  0
    5.2515    0.2773    4.8386 C   0  0  0  0  0  0  0  0  0  0  0  0
    6.3532   -1.9611    4.2641 C   0  0  0  0  0  0  0  0  0  0  0  0
    5.9401   -3.1056    3.5596 C   0  0  0  0  0  0  0  0  0  0  0  0
    6.8130   -3.7811    2.7052 C   0  0  0  0  0  0  0  0  0  0  0  0
    8.1073   -3.3073    2.5165 C   0  0  0  0  0  0  0  0  0  0  0  0
    8.5318   -2.1639    3.1873 C   0  0  0  0  0  0  0  0  0  0  0  0
    7.6677   -1.5043    4.0643 C   0  0  0  0  0  0  0  0  0  0  0  0
    3.8987   -2.9878    6.2419 C   0  0  0  0  0  0  0  0  0  0  0  0
    2.7636   -3.4528    6.4001 O   0  0  0  0  0  0  0  0  0  0  0  0
    5.0788   -3.6479    6.9365 C   0  0  0  0  0  0  0  0  0  0  0  0
    5.2733   -2.9388    8.5487 Cl  0  0  0  0  0  0  0  0  0  0  0  0
    0.8528   -0.6644   -1.1644 H   0  0  0  0  0  0  0  0  0  0  0  0
    0.3733   -0.4341    0.5226 H   0  0  0  0  0  0  0  0  0  0  0  0
    1.5098   -1.7594    0.0564 H   0  0  0  0  0  0  0  0  0  0  0  0
    4.3272    1.6163    0.4396 H   0  0  0  0  0  0  0  0  0  0  0  0
    5.6574    1.7612    2.5134 H   0  0  0  0  0  0  0  0  0  0  0  0
    1.6801   -1.2145    2.3242 H   0  0  0  0  0  0  0  0  0  0  0  0
    2.2645   -2.1281    4.4613 H   0  0  0  0  0  0  0  0  0  0  0  0
    2.4258   -0.6779    5.4610 H   0  0  0  0  0  0  0  0  0  0  0  0
    5.9373   -1.2304    6.2142 H   0  0  0  0  0  0  0  0  0  0  0  0
    6.2137    0.7819    4.7026 H   0  0  0  0  0  0  0  0  0  0  0  0
    4.7163    0.8186    5.6315 H   0  0  0  0  0  0  0  0  0  0  0  0
    4.9299   -3.4948    3.6582 H   0  0  0  0  0  0  0  0  0  0  0  0
    6.4785   -4.6738    2.1841 H   0  0  0  0  0  0  0  0  0  0  0  0
    8.7827   -3.8254    1.8405 H   0  0  0  0  0  0  0  0  0  0  0  0
    9.5372   -1.7838    3.0268 H   0  0  0  0  0  0  0  0  0  0  0  0
    8.0349   -0.6210    4.5823 H   0  0  0  0  0  0  0  0  0  0  0  0
    6.0153   -3.5520    6.3890 H   0  0  0  0  0  0  0  0  0  0  0  0
    4.8725   -4.7185    7.0419 H   0  0  0  0  0  0  0  0  0  0  0  0
  1  2  1  0  0  0  0
  1 23  1  0  0  0  0
  1 24  1  0  0  0  0
  1 25  1  0  0  0  0
  2  3  1  0  0  0  0
  3  4  1  0  0  0  0
  3  8  2  0  0  0  0
  4  5  2  0  0  0  0
  4 26  1  0  0  0  0
  5  6  1  0  0  0  0
  5 27  1  0  0  0  0
  6  7  2  0  0  0  0
  6 12  1  0  0  0  0
  7  8  1  0  0  0  0
  7  9  1  0  0  0  0
  8 28  1  0  0  0  0
  9 10  1  0  0  0  0
  9 29  1  0  0  0  0
  9 30  1  0  0  0  0
 10 11  1  0  0  0  0
 10 19  1  0  0  0  0
 11 12  1  0  0  0  0
 11 13  1  0  0  0  0
 11 31  1  0  0  0  0
 12 32  1  0  0  0  0
 12 33  1  0  0  0  0
 13 14  1  0  0  0  0
 13 18  2  0  0  0  0
 14 15  2  0  0  0  0
 14 34  1  0  0  0  0
 15 16  1  0  0  0  0
 15 35  1  0  0  0  0
 16 17  2  0  0  0  0
 16 36  1  0  0  0  0
 17 18  1  0  0  0  0
 17 37  1  0  0  0  0
 18 38  1  0  0  0  0
 19 20  2  0  0  0  0
 19 21  1  0  0  0  0
 21 22  1  0  0  0  0
 21 39  1  0  0  0  0
 21 40  1  0  0  0  0
M  END
$$$$
