
 OpenBabel07202414193D

 57 62  0  0  1  0  0  0  0  0999 V2000
    1.0498    0.2141    0.2038 O   0  0  0  0  0  0  0  0  0  0  0  0
    2.2838    0.2438    0.2477 C   0  0  0  0  0  0  0  0  0  0  0  0
    2.9818   -0.6232    1.2821 C   0  0  0  0  0  0  0  0  0  0  0  0
    3.2794   -2.0493    0.8641 C   0  0  0  0  0  0  0  0  0  0  0  0
    2.8803   -2.5377   -0.3827 C   0  0  0  0  0  0  0  0  0  0  0  0
    3.1171   -3.7849   -0.8371 N   0  0  0  0  0  0  0  0  0  0  0  0
    3.7333   -4.6264    0.0163 C   0  0  0  0  0  0  0  0  0  0  0  0
    4.1340   -4.2902    1.3073 C   0  0  0  0  0  0  0  0  0  0  0  0
    4.7130   -5.2463    2.1605 C   0  0  0  0  0  0  0  0  0  0  0  0
    5.0960   -4.9029    3.4538 C   0  0  0  0  0  0  0  0  0  0  0  0
    4.9287   -3.5964    3.8952 C   0  0  0  0  0  0  0  0  0  0  0  0
    4.3573   -2.6371    3.0517 C   0  0  0  0  0  0  0  0  0  0  0  0
    3.9244   -2.9616    1.7442 C   0  0  0  0  0  0  0  0  0  0  0  0
    3.0302    1.0086   -0.6567 N   0  0  0  0  0  0  0  0  0  0  0  0
    2.2582    1.6570   -1.7348 C   0  0  0  0  0  0  0  0  0  0  0  0
    1.7991    3.0790   -1.4747 C   0  0  0  0  0  0  0  0  0  0  0  0
    0.9380    3.3940   -0.4117 C   0  0  0  0  0  0  0  0  0  0  0  0
    0.3678    4.6673   -0.2946 C   0  0  0  0  0  0  0  0  0  0  0  0
    0.6468    5.6479   -1.2435 C   0  0  0  0  0  0  0  0  0  0  0  0
    1.5157    5.3572   -2.2916 C   0  0  0  0  0  0  0  0  0  0  0  0
    1.8412    6.5555   -3.4841 Cl  0  0  0  0  0  0  0  0  0  0  0  0
    2.0948    4.0903   -2.4068 C   0  0  0  0  0  0  0  0  0  0  0  0
    4.4986    0.9358   -0.8551 C   0  0  3  0  0  0  0  0  0  0  0  0
    5.2248    2.2074   -1.3964 C   0  0  0  0  0  0  0  0  0  0  0  0
    6.4699    1.3976   -0.9103 C   0  0  3  0  0  0  0  0  0  0  0  0
    5.5368    1.0301    0.2973 C   0  0  0  0  0  0  0  0  0  0  0  0
    6.4692    0.1483   -1.7097 N   0  0  3  0  0  0  0  0  0  0  0  0
    7.1195    0.2637   -3.0184 C   0  0  0  0  0  0  0  0  0  0  0  0
    7.2099   -0.9369   -3.9247 C   0  0  0  0  0  0  0  0  0  0  0  0
    8.4342   -0.4414   -3.2152 C   0  0  0  0  0  0  0  0  0  0  0  0
    5.0339   -0.1580   -1.7713 C   0  0  0  0  0  0  0  0  0  0  0  0
    2.2953   -0.6693    2.1395 H   0  0  0  0  0  0  0  0  0  0  0  0
    3.8697   -0.1208    1.6590 H   0  0  0  0  0  0  0  0  0  0  0  0
    2.3501   -1.9196   -1.1027 H   0  0  0  0  0  0  0  0  0  0  0  0
    3.8908   -5.6264   -0.3798 H   0  0  0  0  0  0  0  0  0  0  0  0
    4.8516   -6.2721    1.8252 H   0  0  0  0  0  0  0  0  0  0  0  0
    5.5210   -5.6543    4.1143 H   0  0  0  0  0  0  0  0  0  0  0  0
    5.2336   -3.3216    4.9020 H   0  0  0  0  0  0  0  0  0  0  0  0
    4.2428   -1.6293    3.4432 H   0  0  0  0  0  0  0  0  0  0  0  0
    1.3714    1.0557   -1.9716 H   0  0  0  0  0  0  0  0  0  0  0  0
    2.8649    1.6284   -2.6473 H   0  0  0  0  0  0  0  0  0  0  0  0
    0.6557    2.6358    0.3153 H   0  0  0  0  0  0  0  0  0  0  0  0
   -0.3223    4.8785    0.5181 H   0  0  0  0  0  0  0  0  0  0  0  0
    0.1712    6.6221   -1.1720 H   0  0  0  0  0  0  0  0  0  0  0  0
    2.7453    3.8825   -3.2523 H   0  0  0  0  0  0  0  0  0  0  0  0
    5.0319    3.1430   -0.8580 H   0  0  0  0  0  0  0  0  0  0  0  0
    5.1601    2.4107   -2.4697 H   0  0  0  0  0  0  0  0  0  0  0  0
    7.4187    1.8947   -0.7161 H   0  0  0  0  0  0  0  0  0  0  0  0
    5.3734    1.8209    1.0366 H   0  0  0  0  0  0  0  0  0  0  0  0
    5.8149    0.1082    0.8230 H   0  0  0  0  0  0  0  0  0  0  0  0
    7.0002    1.2192   -3.5238 H   0  0  0  0  0  0  0  0  0  0  0  0
    7.1406   -0.7727   -4.9921 H   0  0  0  0  0  0  0  0  0  0  0  0
    6.7809   -1.8764   -3.5912 H   0  0  0  0  0  0  0  0  0  0  0  0
    9.1952    0.0609   -3.7996 H   0  0  0  0  0  0  0  0  0  0  0  0
    8.8221   -1.0486   -2.4051 H   0  0  0  0  0  0  0  0  0  0  0  0
    4.8702   -1.1623   -1.3824 H   0  0  0  0  0  0  0  0  0  0  0  0
    4.6116   -0.0907   -2.7804 H   0  0  0  0  0  0  0  0  0  0  0  0
  1  2  2  0  0  0  0
  2  3  1  0  0  0  0
  2 14  1  0  0  0  0
  3  4  1  0  0  0  0
  3 32  1  0  0  0  0
  3 33  1  0  0  0  0
  4  5  1  0  0  0  0
  4 13  2  0  0  0  0
  5  6  2  0  0  0  0
  5 34  1  0  0  0  0
  6  7  1  0  0  0  0
  7  8  2  0  0  0  0
  7 35  1  0  0  0  0
  8  9  1  0  0  0  0
  8 13  1  0  0  0  0
  9 10  2  0  0  0  0
  9 36  1  0  0  0  0
 10 11  1  0  0  0  0
 10 37  1  0  0  0  0
 11 12  2  0  0  0  0
 11 38  1  0  0  0  0
 12 13  1  0  0  0  0
 12 39  1  0  0  0  0
 14 15  1  0  0  0  0
 14 23  1  0  0  0  0
 15 16  1  0  0  0  0
 15 40  1  0  0  0  0
 15 41  1  0  0  0  0
 16 17  1  0  0  0  0
 16 22  2  0  0  0  0
 17 18  2  0  0  0  0
 17 42  1  0  0  0  0
 18 19  1  0  0  0  0
 18 43  1  0  0  0  0
 19 20  2  0  0  0  0
 19 44  1  0  0  0  0
 20 21  1  0  0  0  0
 20 22  1  0  0  0  0
 22 45  1  0  0  0  0
 23 24  1  0  0  0  0
 23 26  1  0  0  0  0
 23 31  1  0  0  0  0
 24 25  1  0  0  0  0
 24 46  1  0  0  0  0
 24 47  1  0  0  0  0
 25 26  1  0  0  0  0
 25 27  1  0  0  0  0
 25 48  1  0  0  0  0
 26 49  1  0  0  0  0
 26 50  1  0  0  0  0
 27 28  1  0  0  0  0
 27 31  1  0  0  0  0
 28 29  1  0  0  0  0
 28 30  1  0  0  0  0
 28 51  1  0  0  0  0
 29 30  1  0  0  0  0
 29 52  1  0  0  0  0
 29 53  1  0  0  0  0
 30 54  1  0  0  0  0
 30 55  1  0  0  0  0
 31 56  1  0  0  0  0
 31 57  1  0  0  0  0
M  END
$$$$
