
 OpenBabel07202414133D

 44 44  0  0  1  0  0  0  0  0999 V2000
    4.4650   -4.1026   -0.0715 C   0  0  0  0  0  0  0  0  0  0  0  0
    3.9239   -2.9441   -0.7830 N   0  0  0  0  0  0  0  0  0  0  0  0
    2.4786   -2.8566   -0.5414 C   0  0  0  0  0  0  0  0  0  0  0  0
    4.5821   -1.6824   -0.3710 C   0  0  0  0  0  0  0  0  0  0  0  0
    6.0953   -1.6048   -0.6728 C   0  0  0  0  0  0  0  0  0  0  0  0
    6.4173   -1.7634   -2.0781 N   0  0  0  0  0  0  0  0  0  0  0  0
    6.5078   -0.6958   -2.9450 C   0  0  0  0  0  0  0  0  0  0  0  0
    6.4393    0.4749   -2.5713 O   0  0  0  0  0  0  0  0  0  0  0  0
    6.8669   -1.0879   -4.3951 C   0  0  1  0  0  0  0  0  0  0  0  0
    6.3077   -0.0731   -5.3993 C   0  0  0  0  0  0  0  0  0  0  0  0
    4.8013   -0.0025   -5.4839 C   0  0  0  0  0  0  0  0  0  0  0  0
    4.1425    1.2102   -5.2366 C   0  0  0  0  0  0  0  0  0  0  0  0
    2.7678    1.3251   -5.4449 C   0  0  0  0  0  0  0  0  0  0  0  0
    2.0352    0.2246   -5.8839 C   0  0  0  0  0  0  0  0  0  0  0  0
    2.6722   -0.9981   -6.0854 C   0  0  0  0  0  0  0  0  0  0  0  0
    4.0486   -1.1129   -5.8874 C   0  0  0  0  0  0  0  0  0  0  0  0
    8.3326   -1.1265   -4.5128 N   0  0  0  0  0  0  0  0  0  0  0  0
    9.0373   -2.2744   -4.2700 C   0  0  0  0  0  0  0  0  0  0  0  0
    8.5134   -3.3417   -3.9690 O   0  0  0  0  0  0  0  0  0  0  0  0
   10.5033   -2.1106   -4.4175 C   0  0  0  0  0  0  0  0  0  0  0  0
   11.3222   -3.1611   -4.2635 C   0  0  0  0  0  0  0  0  0  0  0  0
    3.9655   -5.0204   -0.4015 H   0  0  0  0  0  0  0  0  0  0  0  0
    4.3432   -4.0147    1.0141 H   0  0  0  0  0  0  0  0  0  0  0  0
    5.5263   -4.2464   -0.2934 H   0  0  0  0  0  0  0  0  0  0  0  0
    1.9798   -3.7840   -0.8468 H   0  0  0  0  0  0  0  0  0  0  0  0
    2.0310   -2.0521   -1.1350 H   0  0  0  0  0  0  0  0  0  0  0  0
    2.2447   -2.6785    0.5153 H   0  0  0  0  0  0  0  0  0  0  0  0
    4.4353   -1.5154    0.7050 H   0  0  0  0  0  0  0  0  0  0  0  0
    4.0958   -0.8467   -0.8914 H   0  0  0  0  0  0  0  0  0  0  0  0
    6.6461   -2.3752   -0.1259 H   0  0  0  0  0  0  0  0  0  0  0  0
    6.4760   -0.6365   -0.3278 H   0  0  0  0  0  0  0  0  0  0  0  0
    6.4711   -2.7071   -2.4515 H   0  0  0  0  0  0  0  0  0  0  0  0
    6.4716   -2.0866   -4.6049 H   0  0  0  0  0  0  0  0  0  0  0  0
    6.6729   -0.3246   -6.4043 H   0  0  0  0  0  0  0  0  0  0  0  0
    6.7160    0.9241   -5.1899 H   0  0  0  0  0  0  0  0  0  0  0  0
    4.6995    2.0798   -4.8929 H   0  0  0  0  0  0  0  0  0  0  0  0
    2.2723    2.2776   -5.2770 H   0  0  0  0  0  0  0  0  0  0  0  0
    0.9693    0.3207   -6.0703 H   0  0  0  0  0  0  0  0  0  0  0  0
    2.0989   -1.8607   -6.4154 H   0  0  0  0  0  0  0  0  0  0  0  0
    4.5287   -2.0706   -6.0753 H   0  0  0  0  0  0  0  0  0  0  0  0
    8.8201   -0.2443   -4.5869 H   0  0  0  0  0  0  0  0  0  0  0  0
   10.9034   -1.1347   -4.6712 H   0  0  0  0  0  0  0  0  0  0  0  0
   10.9349   -4.1484   -4.0191 H   0  0  0  0  0  0  0  0  0  0  0  0
   12.3944   -3.0605   -4.3838 H   0  0  0  0  0  0  0  0  0  0  0  0
  1  2  1  0  0  0  0
  1 22  1  0  0  0  0
  1 23  1  0  0  0  0
  1 24  1  0  0  0  0
  2  3  1  0  0  0  0
  2  4  1  0  0  0  0
  3 25  1  0  0  0  0
  3 26  1  0  0  0  0
  3 27  1  0  0  0  0
  4  5  1  0  0  0  0
  4 28  1  0  0  0  0
  4 29  1  0  0  0  0
  5  6  1  0  0  0  0
  5 30  1  0  0  0  0
  5 31  1  0  0  0  0
  6  7  1  0  0  0  0
  6 32  1  0  0  0  0
  7  8  2  0  0  0  0
  7  9  1  0  0  0  0
  9 10  1  0  0  0  0
  9 17  1  0  0  0  0
  9 33  1  6  0  0  0
 10 11  1  0  0  0  0
 10 34  1  0  0  0  0
 10 35  1  0  0  0  0
 11 12  1  0  0  0  0
 11 16  2  0  0  0  0
 12 13  2  0  0  0  0
 12 36  1  0  0  0  0
 13 14  1  0  0  0  0
 13 37  1  0  0  0  0
 14 15  2  0  0  0  0
 14 38  1  0  0  0  0
 15 16  1  0  0  0  0
 15 39  1  0  0  0  0
 16 40  1  0  0  0  0
 17 18  1  0  0  0  0
 17 41  1  0  0  0  0
 18 19  2  0  0  0  0
 18 20  1  0  0  0  0
 20 21  2  0  0  0  0
 20 42  1  0  0  0  0
 21 43  1  0  0  0  0
 21 44  1  0  0  0  0
M  END
$$$$
