
 OpenBabel07202414123D

 70 74  0  0  1  0  0  0  0  0999 V2000
    7.2119    0.9267   -0.2527 C   0  0  0  0  0  0  0  0  0  0  0  0
    6.8955   -0.5597    0.0233 C   0  0  0  0  0  0  0  0  0  0  0  0
    8.2348   -1.2641    0.3317 C   0  0  0  0  0  0  0  0  0  0  0  0
    5.9946   -0.6042    1.2795 C   0  0  0  0  0  0  0  0  0  0  0  0
    6.1812   -1.2840   -1.1284 C   0  0  0  0  0  0  0  0  0  0  0  0
    5.8632   -0.6931   -2.3521 C   0  0  0  0  0  0  0  0  0  0  0  0
    5.1791   -1.4133   -3.3552 C   0  0  0  0  0  0  0  0  0  0  0  0
    4.7513   -2.7449   -3.1897 C   0  0  0  0  0  0  0  0  0  0  0  0
    4.0224   -3.5123   -4.2121 N   0  0  0  0  0  0  0  0  0  0  0  0
    3.8414   -4.9826   -3.9921 C   0  0  3  0  0  0  0  0  0  0  0  0
    5.2019   -5.7389   -3.9064 C   0  0  0  0  0  0  0  0  0  0  0  0
    5.6634   -6.2333   -2.8787 O   0  0  0  0  0  0  0  0  0  0  0  0
    5.8548   -5.8654   -5.1208 N   0  0  0  0  0  0  0  0  0  0  0  0
    6.9997   -6.7431   -5.2418 C   0  0  0  0  0  0  0  0  0  0  0  0
    7.5995   -6.6580   -6.6401 C   0  0  0  0  0  0  0  0  0  0  0  0
    8.7918   -7.5603   -6.7984 C   0  0  0  0  0  0  0  0  0  0  0  0
   10.0809   -7.0830   -6.5211 C   0  0  0  0  0  0  0  0  0  0  0  0
   11.1930   -7.9253   -6.6347 C   0  0  0  0  0  0  0  0  0  0  0  0
   11.0156   -9.2529   -7.0226 C   0  0  0  0  0  0  0  0  0  0  0  0
    9.7379   -9.7244   -7.2992 C   0  0  0  0  0  0  0  0  0  0  0  0
    9.5712  -11.0022   -7.6640 F   0  0  0  0  0  0  0  0  0  0  0  0
    8.6266   -8.8953   -7.1880 C   0  0  0  0  0  0  0  0  0  0  0  0
    2.8065   -5.4683   -2.9846 C   0  0  0  0  0  0  0  0  0  0  0  0
    2.7623   -7.1799   -2.6591 S   0  0  0  0  0  0  0  0  0  0  0  0
    1.4612   -7.1845   -1.6701 N   0  0  0  0  0  0  0  0  0  0  0  0
    0.9147   -5.9708   -1.6258 C   0  0  0  0  0  0  0  0  0  0  0  0
   -0.2997   -5.6438   -0.9884 C   0  0  0  0  0  0  0  0  0  0  0  0
   -0.7320   -4.3220   -1.1781 C   0  0  0  0  0  0  0  0  0  0  0  0
    0.0218   -3.3531   -1.8961 C   0  0  0  0  0  0  0  0  0  0  0  0
    1.2744   -3.6075   -2.4957 C   0  0  0  0  0  0  0  0  0  0  0  0
    1.6851   -4.9400   -2.3656 C   0  0  0  0  0  0  0  0  0  0  0  0
    3.5497   -2.8712   -5.4026 C   0  0  0  0  0  0  0  0  0  0  0  0
    3.5489   -1.6477   -5.5416 O   0  0  0  0  0  0  0  0  0  0  0  0
    2.9514   -3.6413   -6.4925 C   0  0  0  0  0  0  0  0  0  0  0  0
    1.9692   -3.2497   -7.3891 C   0  0  0  0  0  0  0  0  0  0  0  0
    1.6857   -4.3664   -8.2074 C   0  0  0  0  0  0  0  0  0  0  0  0
    2.5647   -5.3486   -7.8222 C   0  0  0  0  0  0  0  0  0  0  0  0
    3.3865   -4.8945   -6.8406 O   0  0  0  0  0  0  0  0  0  0  0  0
    5.0847   -3.3160   -1.9591 C   0  0  0  0  0  0  0  0  0  0  0  0
    5.7945   -2.6199   -0.9707 C   0  0  0  0  0  0  0  0  0  0  0  0
    7.7296    1.3823    0.6015 H   0  0  0  0  0  0  0  0  0  0  0  0
    6.2994    1.5092   -0.4238 H   0  0  0  0  0  0  0  0  0  0  0  0
    7.8631    1.0488   -1.1254 H   0  0  0  0  0  0  0  0  0  0  0  0
    8.7535   -0.7791    1.1672 H   0  0  0  0  0  0  0  0  0  0  0  0
    8.9039   -1.2365   -0.5366 H   0  0  0  0  0  0  0  0  0  0  0  0
    8.0989   -2.3153    0.6077 H   0  0  0  0  0  0  0  0  0  0  0  0
    6.4869   -0.1374    2.1397 H   0  0  0  0  0  0  0  0  0  0  0  0
    5.7396   -1.6273    1.5761 H   0  0  0  0  0  0  0  0  0  0  0  0
    5.0512   -0.0735    1.1028 H   0  0  0  0  0  0  0  0  0  0  0  0
    6.1372    0.3378   -2.5668 H   0  0  0  0  0  0  0  0  0  0  0  0
    5.0222   -0.8541   -4.2726 H   0  0  0  0  0  0  0  0  0  0  0  0
    3.3894   -5.4073   -4.8795 H   0  0  0  0  0  0  0  0  0  0  0  0
    5.3528   -5.5967   -5.9609 H   0  0  0  0  0  0  0  0  0  0  0  0
    6.6602   -7.7630   -5.0194 H   0  0  0  0  0  0  0  0  0  0  0  0
    7.7321   -6.4724   -4.4713 H   0  0  0  0  0  0  0  0  0  0  0  0
    7.8827   -5.6215   -6.8615 H   0  0  0  0  0  0  0  0  0  0  0  0
    6.8386   -6.9201   -7.3873 H   0  0  0  0  0  0  0  0  0  0  0  0
   10.2319   -6.0505   -6.2140 H   0  0  0  0  0  0  0  0  0  0  0  0
   12.1907   -7.5518   -6.4015 H   0  0  0  0  0  0  0  0  0  0  0  0
   11.8641   -9.9231   -7.1079 H   0  0  0  0  0  0  0  0  0  0  0  0
    7.6427   -9.3040   -7.4041 H   0  0  0  0  0  0  0  0  0  0  0  0
   -0.8740   -6.3813   -0.4420 H   0  0  0  0  0  0  0  0  0  0  0  0
   -1.6993   -4.0323   -0.7678 H   0  0  0  0  0  0  0  0  0  0  0  0
   -0.4028   -2.3540   -1.9988 H   0  0  0  0  0  0  0  0  0  0  0  0
    1.8072   -2.8236   -3.0149 H   0  0  0  0  0  0  0  0  0  0  0  0
    1.4932   -2.2773   -7.4097 H   0  0  0  0  0  0  0  0  0  0  0  0
    0.9366   -4.4433   -8.9830 H   0  0  0  0  0  0  0  0  0  0  0  0
    2.7240   -6.3710   -8.1356 H   0  0  0  0  0  0  0  0  0  0  0  0
    4.8105   -4.3272   -1.6855 H   0  0  0  0  0  0  0  0  0  0  0  0
    6.0293   -3.1586   -0.0548 H   0  0  0  0  0  0  0  0  0  0  0  0
  1  2  1  0  0  0  0
  1 41  1  0  0  0  0
  1 42  1  0  0  0  0
  1 43  1  0  0  0  0
  2  3  1  0  0  0  0
  2  4  1  0  0  0  0
  2  5  1  0  0  0  0
  3 44  1  0  0  0  0
  3 45  1  0  0  0  0
  3 46  1  0  0  0  0
  4 47  1  0  0  0  0
  4 48  1  0  0  0  0
  4 49  1  0  0  0  0
  5  6  1  0  0  0  0
  5 40  2  0  0  0  0
  6  7  2  0  0  0  0
  6 50  1  0  0  0  0
  7  8  1  0  0  0  0
  7 51  1  0  0  0  0
  8  9  1  0  0  0  0
  8 39  2  0  0  0  0
  9 10  1  0  0  0  0
  9 32  1  0  0  0  0
 10 11  1  0  0  0  0
 10 23  1  0  0  0  0
 10 52  1  0  0  0  0
 11 12  2  0  0  0  0
 11 13  1  0  0  0  0
 13 14  1  0  0  0  0
 13 53  1  0  0  0  0
 14 15  1  0  0  0  0
 14 54  1  0  0  0  0
 14 55  1  0  0  0  0
 15 16  1  0  0  0  0
 15 56  1  0  0  0  0
 15 57  1  0  0  0  0
 16 17  1  0  0  0  0
 16 22  2  0  0  0  0
 17 18  2  0  0  0  0
 17 58  1  0  0  0  0
 18 19  1  0  0  0  0
 18 59  1  0  0  0  0
 19 20  2  0  0  0  0
 19 60  1  0  0  0  0
 20 21  1  0  0  0  0
 20 22  1  0  0  0  0
 22 61  1  0  0  0  0
 23 24  1  0  0  0  0
 23 31  2  0  0  0  0
 24 25  1  0  0  0  0
 25 26  2  0  0  0  0
 26 27  1  0  0  0  0
 26 31  1  0  0  0  0
 27 28  2  0  0  0  0
 27 62  1  0  0  0  0
 28 29  1  0  0  0  0
 28 63  1  0  0  0  0
 29 30  2  0  0  0  0
 29 64  1  0  0  0  0
 30 31  1  0  0  0  0
 30 65  1  0  0  0  0
 32 33  2  0  0  0  0
 32 34  1  0  0  0  0
 34 35  2  0  0  0  0
 34 38  1  0  0  0  0
 35 36  1  0  0  0  0
 35 66  1  0  0  0  0
 36 37  2  0  0  0  0
 36 67  1  0  0  0  0
 37 38  1  0  0  0  0
 37 68  1  0  0  0  0
 39 40  1  0  0  0  0
 39 69  1  0  0  0  0
 40 70  1  0  0  0  0
M  END
$$$$
