
 OpenBabel07202414183D

 52 56  0  0  0  0  0  0  0  0999 V2000
    8.5520    3.2258    0.2548 F   0  0  0  0  0  0  0  0  0  0  0  0
    7.7382    3.2991    1.3343 C   0  0  0  0  0  0  0  0  0  0  0  0
    8.1453    2.3359    2.2055 F   0  0  0  0  0  0  0  0  0  0  0  0
    7.9923    4.4873    1.9460 F   0  0  0  0  0  0  0  0  0  0  0  0
    6.2972    3.1591    1.0110 C   0  0  0  0  0  0  0  0  0  0  0  0
    5.7280    2.9550   -0.1645 N   0  0  0  0  0  0  0  0  0  0  0  0
    4.3606    2.9447    0.0070 N   0  0  0  0  0  0  0  0  0  0  0  0
    4.1142    3.1376    1.2836 C   0  0  0  0  0  0  0  0  0  0  0  0
    2.8011    3.2430    1.9971 C   0  0  0  0  0  0  0  0  0  0  0  0
    2.9461    3.5804    3.4341 N   0  0  0  0  0  0  0  0  0  0  0  0
    2.2048    4.6068    3.9947 C   0  0  0  0  0  0  0  0  0  0  0  0
    0.8542    4.7969    3.6495 C   0  0  0  0  0  0  0  0  0  0  0  0
    0.0603    5.8083    4.2254 C   0  0  0  0  0  0  0  0  0  0  0  0
   -1.3904    5.9631    3.8313 C   0  0  0  0  0  0  0  0  0  0  0  0
   -2.2503    4.7253    4.0391 C   0  0  0  0  0  0  0  0  0  0  0  0
   -3.0714    4.3832    3.1904 O   0  0  0  0  0  0  0  0  0  0  0  0
   -2.1112    4.1159    5.2726 N   0  0  0  0  0  0  0  0  0  0  0  0
   -2.8344    2.9562    5.6482 C   0  0  0  0  0  0  0  0  0  0  0  0
   -3.0212    1.9001    4.7543 C   0  0  0  0  0  0  0  0  0  0  0  0
   -3.6415    0.7367    5.0619 N   0  0  0  0  0  0  0  0  0  0  0  0
   -4.1262    0.6352    6.3168 C   0  0  0  0  0  0  0  0  0  0  0  0
   -4.0308    1.6265    7.2945 C   0  0  0  0  0  0  0  0  0  0  0  0
   -4.6003    1.4708    8.5698 C   0  0  0  0  0  0  0  0  0  0  0  0
   -4.5404    2.4972    9.5082 C   0  0  0  0  0  0  0  0  0  0  0  0
   -3.9098    3.6927    9.1845 C   0  0  0  0  0  0  0  0  0  0  0  0
   -3.3240    3.8545    7.9277 C   0  0  0  0  0  0  0  0  0  0  0  0
   -3.3585    2.8302    6.9574 C   0  0  0  0  0  0  0  0  0  0  0  0
    0.6432    6.6843    5.1437 C   0  0  0  0  0  0  0  0  0  0  0  0
    1.9766    6.5158    5.4999 C   0  0  0  0  0  0  0  0  0  0  0  0
    2.6950    7.5875    6.6408 Cl  0  0  0  0  0  0  0  0  0  0  0  0
    2.7415    5.4873    4.9446 C   0  0  0  0  0  0  0  0  0  0  0  0
    4.1275    3.0047    4.0910 C   0  0  0  0  0  0  0  0  0  0  0  0
    5.4117    3.4445    3.3816 C   0  0  0  0  0  0  0  0  0  0  0  0
    5.3049    3.2429    1.9506 N   0  0  0  0  0  0  0  0  0  0  0  0
    2.2792    2.2820    1.9189 H   0  0  0  0  0  0  0  0  0  0  0  0
    2.2009    3.9902    1.4648 H   0  0  0  0  0  0  0  0  0  0  0  0
    0.3878    4.1196    2.9342 H   0  0  0  0  0  0  0  0  0  0  0  0
   -1.4245    6.2237    2.7665 H   0  0  0  0  0  0  0  0  0  0  0  0
   -1.8590    6.7891    4.3801 H   0  0  0  0  0  0  0  0  0  0  0  0
   -1.6659    4.6479    6.0083 H   0  0  0  0  0  0  0  0  0  0  0  0
   -2.6294    1.9386    3.7415 H   0  0  0  0  0  0  0  0  0  0  0  0
   -4.6367   -0.3066    6.5207 H   0  0  0  0  0  0  0  0  0  0  0  0
   -5.1182    0.5484    8.8298 H   0  0  0  0  0  0  0  0  0  0  0  0
   -5.0002    2.3723   10.4843 H   0  0  0  0  0  0  0  0  0  0  0  0
   -3.8861    4.5086    9.9025 H   0  0  0  0  0  0  0  0  0  0  0  0
   -2.8779    4.8203    7.7062 H   0  0  0  0  0  0  0  0  0  0  0  0
    0.0692    7.4994    5.5781 H   0  0  0  0  0  0  0  0  0  0  0  0
    3.7809    5.4098    5.2467 H   0  0  0  0  0  0  0  0  0  0  0  0
    4.0392    1.9112    4.0354 H   0  0  0  0  0  0  0  0  0  0  0  0
    4.1771    3.2393    5.1594 H   0  0  0  0  0  0  0  0  0  0  0  0
    6.2620    2.8657    3.7520 H   0  0  0  0  0  0  0  0  0  0  0  0
    5.6064    4.5125    3.5343 H   0  0  0  0  0  0  0  0  0  0  0  0
  1  2  1  0  0  0  0
  2  3  1  0  0  0  0
  2  4  1  0  0  0  0
  2  5  1  0  0  0  0
  5  6  2  0  0  0  0
  5 34  1  0  0  0  0
  6  7  1  0  0  0  0
  7  8  2  0  0  0  0
  8  9  1  0  0  0  0
  8 34  1  0  0  0  0
  9 10  1  0  0  0  0
  9 35  1  0  0  0  0
  9 36  1  0  0  0  0
 10 11  1  0  0  0  0
 10 32  1  0  0  0  0
 11 12  2  0  0  0  0
 11 31  1  0  0  0  0
 12 13  1  0  0  0  0
 12 37  1  0  0  0  0
 13 14  1  0  0  0  0
 13 28  2  0  0  0  0
 14 15  1  0  0  0  0
 14 38  1  0  0  0  0
 14 39  1  0  0  0  0
 15 16  2  0  0  0  0
 15 17  1  0  0  0  0
 17 18  1  0  0  0  0
 17 40  1  0  0  0  0
 18 19  2  0  0  0  0
 18 27  1  0  0  0  0
 19 20  1  0  0  0  0
 19 41  1  0  0  0  0
 20 21  2  0  0  0  0
 21 22  1  0  0  0  0
 21 42  1  0  0  0  0
 22 23  2  0  0  0  0
 22 27  1  0  0  0  0
 23 24  1  0  0  0  0
 23 43  1  0  0  0  0
 24 25  2  0  0  0  0
 24 44  1  0  0  0  0
 25 26  1  0  0  0  0
 25 45  1  0  0  0  0
 26 27  2  0  0  0  0
 26 46  1  0  0  0  0
 28 29  1  0  0  0  0
 28 47  1  0  0  0  0
 29 30  1  0  0  0  0
 29 31  2  0  0  0  0
 31 48  1  0  0  0  0
 32 33  1  0  0  0  0
 32 49  1  0  0  0  0
 32 50  1  0  0  0  0
 33 34  1  0  0  0  0
 33 51  1  0  0  0  0
 33 52  1  0  0  0  0
M  END
$$$$
