
 OpenBabel07202414203D

 65 70  0  0  1  0  0  0  0  0999 V2000
    9.4381   -2.3598    7.0586 O   0  0  0  0  0  0  0  0  0  0  0  0
    8.5785   -1.7360    6.1158 C   0  0  0  0  0  0  0  0  0  0  0  0
    7.4355   -1.0042    6.8002 C   0  0  0  0  0  0  0  0  0  0  0  0
    6.5405   -0.3622    5.7712 C   0  0  0  0  0  0  0  0  0  0  0  0
    5.3958    0.3800    6.2291 N   0  0  0  0  0  0  0  0  0  0  0  0
    4.5669    0.8741    5.2450 C   0  0  0  0  0  0  0  0  0  0  0  0
    4.8302    0.7302    4.0447 O   0  0  0  0  0  0  0  0  0  0  0  0
    3.3305    1.6541    5.6688 C   0  0  0  0  0  0  0  0  0  0  0  0
    2.7138    1.1889    6.9206 N   0  0  0  0  0  0  0  0  0  0  0  0
    2.2181   -0.1996    6.9050 C   0  0  0  0  0  0  0  0  0  0  0  0
    0.8670   -0.4283    6.2522 C   0  0  0  0  0  0  0  0  0  0  0  0
    0.5214   -1.7202    5.8127 C   0  0  0  0  0  0  0  0  0  0  0  0
   -0.7371   -1.9845    5.2565 C   0  0  0  0  0  0  0  0  0  0  0  0
   -1.6747   -0.9680    5.1603 C   0  0  0  0  0  0  0  0  0  0  0  0
   -3.2213   -1.2653    4.4703 Cl  0  0  0  0  0  0  0  0  0  0  0  0
   -1.3619    0.3051    5.6159 C   0  0  0  0  0  0  0  0  0  0  0  0
   -0.0890    0.5942    6.1604 C   0  0  0  0  0  0  0  0  0  0  0  0
    0.2730    2.0209    6.5716 C   0  0  3  0  0  0  0  0  0  0  0  0
   -0.7655    2.5882    7.5553 C   0  0  0  0  0  0  0  0  0  0  0  0
   -1.5788    3.5824    6.7853 C   0  0  0  0  0  0  0  0  0  0  0  0
   -1.1870    3.5274    5.4245 N   0  0  0  0  0  0  0  0  0  0  0  0
   -1.9198    4.1771    4.3741 C   0  0  0  0  0  0  0  0  0  0  0  0
   -1.5815    3.9175    3.0375 C   0  0  0  0  0  0  0  0  0  0  0  0
   -2.0333    4.6239    1.9800 N   0  0  0  0  0  0  0  0  0  0  0  0
   -2.9692    5.5536    2.2451 C   0  0  0  0  0  0  0  0  0  0  0  0
   -3.6082    5.7079    3.4661 C   0  0  0  0  0  0  0  0  0  0  0  0
   -4.7870    6.4870    3.5611 C   0  0  0  0  0  0  0  0  0  0  0  0
   -5.4319    6.6857    4.7779 C   0  0  0  0  0  0  0  0  0  0  0  0
   -4.8646    6.1704    5.9200 C   0  0  0  0  0  0  0  0  0  0  0  0
   -3.7017    5.4044    5.8256 C   0  0  0  0  0  0  0  0  0  0  0  0
   -3.0530    5.0613    4.5953 C   0  0  0  0  0  0  0  0  0  0  0  0
    0.0928    2.9305    5.3143 C   0  0  0  0  0  0  0  0  0  0  0  0
    0.8563    3.0204    4.3846 O   0  0  0  0  0  0  0  0  0  0  0  0
    1.6299    2.0946    7.3216 C   0  0  0  0  0  0  0  0  0  0  0  0
    7.6974   -0.3313    8.1340 C   0  0  0  0  0  0  0  0  0  0  0  0
    6.8621   -1.5839    8.0797 C   0  0  0  0  0  0  0  0  0  0  0  0
   10.2748   -2.5375    6.5982 H   0  0  0  0  0  0  0  0  0  0  0  0
    8.1869   -2.5060    5.4404 H   0  0  0  0  0  0  0  0  0  0  0  0
    9.1680   -1.0237    5.5283 H   0  0  0  0  0  0  0  0  0  0  0  0
    6.1525   -1.1543    5.1161 H   0  0  0  0  0  0  0  0  0  0  0  0
    7.1383    0.3155    5.1492 H   0  0  0  0  0  0  0  0  0  0  0  0
    5.4073    0.8765    7.1153 H   0  0  0  0  0  0  0  0  0  0  0  0
    2.6341    1.5959    4.8328 H   0  0  0  0  0  0  0  0  0  0  0  0
    3.6596    2.6954    5.7879 H   0  0  0  0  0  0  0  0  0  0  0  0
    2.1054   -0.5083    7.9548 H   0  0  0  0  0  0  0  0  0  0  0  0
    2.9647   -0.8806    6.4830 H   0  0  0  0  0  0  0  0  0  0  0  0
    1.2339   -2.5373    5.8968 H   0  0  0  0  0  0  0  0  0  0  0  0
   -0.9767   -2.9829    4.8997 H   0  0  0  0  0  0  0  0  0  0  0  0
   -2.1199    1.0770    5.5162 H   0  0  0  0  0  0  0  0  0  0  0  0
   -0.3130    3.1093    8.4176 H   0  0  0  0  0  0  0  0  0  0  0  0
   -1.4063    1.8165    7.9868 H   0  0  0  0  0  0  0  0  0  0  0  0
   -1.3560    4.5930    7.1443 H   0  0  0  0  0  0  0  0  0  0  0  0
   -2.6228    3.2988    6.8908 H   0  0  0  0  0  0  0  0  0  0  0  0
   -0.9239    3.0949    2.7554 H   0  0  0  0  0  0  0  0  0  0  0  0
   -3.1876    6.2199    1.4124 H   0  0  0  0  0  0  0  0  0  0  0  0
   -5.2369    6.9048    2.6643 H   0  0  0  0  0  0  0  0  0  0  0  0
   -6.3620    7.2453    4.8331 H   0  0  0  0  0  0  0  0  0  0  0  0
   -5.3167    6.3418    6.8939 H   0  0  0  0  0  0  0  0  0  0  0  0
   -3.3457    5.0767    6.7885 H   0  0  0  0  0  0  0  0  0  0  0  0
    1.4417    1.8267    8.3730 H   0  0  0  0  0  0  0  0  0  0  0  0
    1.9906    3.1307    7.3662 H   0  0  0  0  0  0  0  0  0  0  0  0
    7.2026    0.5993    8.3798 H   0  0  0  0  0  0  0  0  0  0  0  0
    8.6985   -0.4035    8.5502 H   0  0  0  0  0  0  0  0  0  0  0  0
    5.7992   -1.5047    8.2682 H   0  0  0  0  0  0  0  0  0  0  0  0
    7.3011   -2.5002    8.4663 H   0  0  0  0  0  0  0  0  0  0  0  0
  1  2  1  0  0  0  0
  1 37  1  0  0  0  0
  2  3  1  0  0  0  0
  2 38  1  0  0  0  0
  2 39  1  0  0  0  0
  3  4  1  0  0  0  0
  3 35  1  0  0  0  0
  3 36  1  0  0  0  0
  4  5  1  0  0  0  0
  4 40  1  0  0  0  0
  4 41  1  0  0  0  0
  5  6  1  0  0  0  0
  5 42  1  0  0  0  0
  6  7  2  0  0  0  0
  6  8  1  0  0  0  0
  8  9  1  0  0  0  0
  8 43  1  0  0  0  0
  8 44  1  0  0  0  0
  9 10  1  0  0  0  0
  9 34  1  0  0  0  0
 10 11  1  0  0  0  0
 10 45  1  0  0  0  0
 10 46  1  0  0  0  0
 11 12  1  0  0  0  0
 11 17  2  0  0  0  0
 12 13  2  0  0  0  0
 12 47  1  0  0  0  0
 13 14  1  0  0  0  0
 13 48  1  0  0  0  0
 14 15  1  0  0  0  0
 14 16  2  0  0  0  0
 16 17  1  0  0  0  0
 16 49  1  0  0  0  0
 17 18  1  0  0  0  0
 18 19  1  0  0  0  0
 18 32  1  0  0  0  0
 18 34  1  0  0  0  0
 19 20  1  0  0  0  0
 19 50  1  0  0  0  0
 19 51  1  0  0  0  0
 20 21  1  0  0  0  0
 20 52  1  0  0  0  0
 20 53  1  0  0  0  0
 21 22  1  0  0  0  0
 21 32  1  0  0  0  0
 22 23  1  0  0  0  0
 22 31  2  0  0  0  0
 23 24  2  0  0  0  0
 23 54  1  0  0  0  0
 24 25  1  0  0  0  0
 25 26  2  0  0  0  0
 25 55  1  0  0  0  0
 26 27  1  0  0  0  0
 26 31  1  0  0  0  0
 27 28  2  0  0  0  0
 27 56  1  0  0  0  0
 28 29  1  0  0  0  0
 28 57  1  0  0  0  0
 29 30  2  0  0  0  0
 29 58  1  0  0  0  0
 30 31  1  0  0  0  0
 30 59  1  0  0  0  0
 32 33  2  0  0  0  0
 34 60  1  0  0  0  0
 34 61  1  0  0  0  0
 35 36  1  0  0  0  0
 35 62  1  0  0  0  0
 35 63  1  0  0  0  0
 36 64  1  0  0  0  0
 36 65  1  0  0  0  0
M  END
$$$$
