
 OpenBabel07202414153D

 51 54  0  0  1  0  0  0  0  0999 V2000
    5.9853   -3.1841   -0.7691 C   0  0  0  0  0  0  0  0  0  0  0  0
    5.2882   -1.6482   -0.2232 S   0  0  0  0  0  0  0  0  0  0  0  0
    3.8560   -1.8190   -0.1370 O   0  0  0  0  0  0  0  0  0  0  0  0
    6.0615   -1.1858    0.9143 O   0  0  0  0  0  0  0  0  0  0  0  0
    5.6314   -0.5779   -1.6018 C   0  0  0  0  0  0  0  0  0  0  0  0
    5.0420    0.7931   -1.3557 C   0  0  0  0  0  0  0  0  0  0  0  0
    5.1769    1.7114   -2.4929 N   0  0  0  0  0  0  0  0  0  0  0  0
    4.6470    1.3371   -3.8031 C   0  0  0  0  0  0  0  0  0  0  0  0
    3.6968    2.3866   -4.3633 C   0  0  3  0  0  0  0  0  0  0  0  0
    2.3139    2.2412   -3.7279 C   0  0  0  0  0  0  0  0  0  0  0  0
    1.3682    1.8597   -4.4068 O   0  0  0  0  0  0  0  0  0  0  0  0
    2.2610    2.5595   -2.3844 N   0  0  0  0  0  0  0  0  0  0  0  0
    1.1042    2.6650   -1.5733 C   0  0  0  0  0  0  0  0  0  0  0  0
   -0.1405    2.1727   -1.9668 C   0  0  0  0  0  0  0  0  0  0  0  0
   -1.2979    2.4050   -1.3068 N   0  0  0  0  0  0  0  0  0  0  0  0
   -1.2050    3.1246   -0.1698 C   0  0  0  0  0  0  0  0  0  0  0  0
   -0.0080    3.5647    0.3935 C   0  0  0  0  0  0  0  0  0  0  0  0
    0.0082    4.2160    1.6415 C   0  0  0  0  0  0  0  0  0  0  0  0
    1.2062    4.6523    2.2011 C   0  0  0  0  0  0  0  0  0  0  0  0
    2.3943    4.4689    1.5095 C   0  0  0  0  0  0  0  0  0  0  0  0
    2.3888    3.8263    0.2677 C   0  0  0  0  0  0  0  0  0  0  0  0
    1.1903    3.3396   -0.3216 C   0  0  0  0  0  0  0  0  0  0  0  0
    4.3026    3.7694   -4.2281 C   0  0  0  0  0  0  0  0  0  0  0  0
    3.8365    4.8177   -5.0374 C   0  0  0  0  0  0  0  0  0  0  0  0
    4.3588    6.1024   -4.8868 C   0  0  0  0  0  0  0  0  0  0  0  0
    3.7696    7.3823   -5.8716 Cl  0  0  0  0  0  0  0  0  0  0  0  0
    5.3460    6.3589   -3.9354 C   0  0  0  0  0  0  0  0  0  0  0  0
    5.8213    5.3240   -3.1318 C   0  0  0  0  0  0  0  0  0  0  0  0
    5.3061    4.0288   -3.2739 C   0  0  0  0  0  0  0  0  0  0  0  0
    5.7296    2.9732   -2.3035 C   0  0  0  0  0  0  0  0  0  0  0  0
    6.4180    3.2713   -1.3346 O   0  0  0  0  0  0  0  0  0  0  0  0
    5.8474   -3.9252    0.0176 H   0  0  0  0  0  0  0  0  0  0  0  0
    7.0478   -3.0338   -0.9689 H   0  0  0  0  0  0  0  0  0  0  0  0
    5.4629   -3.4967   -1.6780 H   0  0  0  0  0  0  0  0  0  0  0  0
    5.1869   -1.0591   -2.4766 H   0  0  0  0  0  0  0  0  0  0  0  0
    6.7149   -0.5262   -1.7386 H   0  0  0  0  0  0  0  0  0  0  0  0
    5.4885    1.2414   -0.4612 H   0  0  0  0  0  0  0  0  0  0  0  0
    3.9677    0.7154   -1.1492 H   0  0  0  0  0  0  0  0  0  0  0  0
    4.1577    0.3601   -3.7523 H   0  0  0  0  0  0  0  0  0  0  0  0
    5.5179    1.2403   -4.4634 H   0  0  0  0  0  0  0  0  0  0  0  0
    3.5738    2.1740   -5.4347 H   0  0  0  0  0  0  0  0  0  0  0  0
    3.1172    2.9039   -1.9765 H   0  0  0  0  0  0  0  0  0  0  0  0
   -0.2667    1.5455   -2.8437 H   0  0  0  0  0  0  0  0  0  0  0  0
   -2.1623    3.3457    0.2959 H   0  0  0  0  0  0  0  0  0  0  0  0
   -0.9152    4.3675    2.1956 H   0  0  0  0  0  0  0  0  0  0  0  0
    1.2118    5.1307    3.1772 H   0  0  0  0  0  0  0  0  0  0  0  0
    3.3333    4.8163    1.9338 H   0  0  0  0  0  0  0  0  0  0  0  0
    3.3551    3.7035   -0.2115 H   0  0  0  0  0  0  0  0  0  0  0  0
    3.0573    4.6375   -5.7758 H   0  0  0  0  0  0  0  0  0  0  0  0
    5.7368    7.3661   -3.8055 H   0  0  0  0  0  0  0  0  0  0  0  0
    6.5753    5.5369   -2.3732 H   0  0  0  0  0  0  0  0  0  0  0  0
  1  2  1  0  0  0  0
  1 32  1  0  0  0  0
  1 33  1  0  0  0  0
  1 34  1  0  0  0  0
  2  3  2  0  0  0  0
  2  4  2  0  0  0  0
  2  5  1  0  0  0  0
  5  6  1  0  0  0  0
  5 35  1  0  0  0  0
  5 36  1  0  0  0  0
  6  7  1  0  0  0  0
  6 37  1  0  0  0  0
  6 38  1  0  0  0  0
  7  8  1  0  0  0  0
  7 30  1  0  0  0  0
  8  9  1  0  0  0  0
  8 39  1  0  0  0  0
  8 40  1  0  0  0  0
  9 10  1  0  0  0  0
  9 23  1  0  0  0  0
  9 41  1  0  0  0  0
 10 11  2  0  0  0  0
 10 12  1  0  0  0  0
 12 13  1  0  0  0  0
 12 42  1  0  0  0  0
 13 14  1  0  0  0  0
 13 22  2  0  0  0  0
 14 15  2  0  0  0  0
 14 43  1  0  0  0  0
 15 16  1  0  0  0  0
 16 17  2  0  0  0  0
 16 44  1  0  0  0  0
 17 18  1  0  0  0  0
 17 22  1  0  0  0  0
 18 19  2  0  0  0  0
 18 45  1  0  0  0  0
 19 20  1  0  0  0  0
 19 46  1  0  0  0  0
 20 21  2  0  0  0  0
 20 47  1  0  0  0  0
 21 22  1  0  0  0  0
 21 48  1  0  0  0  0
 23 24  1  0  0  0  0
 23 29  2  0  0  0  0
 24 25  2  0  0  0  0
 24 49  1  0  0  0  0
 25 26  1  0  0  0  0
 25 27  1  0  0  0  0
 27 28  2  0  0  0  0
 27 50  1  0  0  0  0
 28 29  1  0  0  0  0
 28 51  1  0  0  0  0
 29 30  1  0  0  0  0
 30 31  2  0  0  0  0
M  END
$$$$
