
 OpenBabel07202414193D

 44 47  0  0  0  0  0  0  0  0999 V2000
    1.0873   -0.0489   -0.3197 O   0  0  0  0  0  0  0  0  0  0  0  0
    2.2418   -0.0346    0.1125 C   0  0  0  0  0  0  0  0  0  0  0  0
    2.9524    1.2800    0.3996 C   0  0  0  0  0  0  0  0  0  0  0  0
    2.5226    2.4115   -0.5108 C   0  0  0  0  0  0  0  0  0  0  0  0
    1.5199    3.2782   -0.0790 C   0  0  0  0  0  0  0  0  0  0  0  0
    1.0963    4.3605   -0.7602 N   0  0  0  0  0  0  0  0  0  0  0  0
    1.6837    4.5825   -1.9554 C   0  0  0  0  0  0  0  0  0  0  0  0
    2.6681    3.7728   -2.5215 C   0  0  0  0  0  0  0  0  0  0  0  0
    3.2290    4.0645   -3.7780 C   0  0  0  0  0  0  0  0  0  0  0  0
    4.2002    3.2339   -4.3338 C   0  0  0  0  0  0  0  0  0  0  0  0
    4.6144    2.1025   -3.6409 C   0  0  0  0  0  0  0  0  0  0  0  0
    4.0699    1.8086   -2.3871 C   0  0  0  0  0  0  0  0  0  0  0  0
    3.0942    2.6405   -1.7888 C   0  0  0  0  0  0  0  0  0  0  0  0
    2.9458   -1.2123    0.3526 N   0  0  0  0  0  0  0  0  0  0  0  0
    2.3517   -2.4686   -0.0956 C   0  0  0  0  0  0  0  0  0  0  0  0
    1.8438   -3.2477    1.1059 C   0  0  0  0  0  0  0  0  0  0  0  0
    3.0045   -3.5168    2.0571 C   0  0  0  0  0  0  0  0  0  0  0  0
    3.6990   -2.1972    2.4470 C   0  0  0  0  0  0  0  0  0  0  0  0
    3.0271   -1.4016    3.6149 C   0  0  0  0  0  0  0  0  0  0  0  0
    3.8952   -2.2158    4.5967 C   0  0  0  0  0  0  0  0  0  0  0  0
    4.8829   -2.4422    3.4368 C   0  0  0  0  0  0  0  0  0  0  0  0
    4.1127   -1.3504    1.2302 C   0  0  0  0  0  0  0  0  0  0  0  0
    4.0353    1.1721    0.3050 H   0  0  0  0  0  0  0  0  0  0  0  0
    2.7562    1.5420    1.4459 H   0  0  0  0  0  0  0  0  0  0  0  0
    1.0118    3.1226    0.8707 H   0  0  0  0  0  0  0  0  0  0  0  0
    1.3189    5.4669   -2.4736 H   0  0  0  0  0  0  0  0  0  0  0  0
    2.9064    4.9410   -4.3345 H   0  0  0  0  0  0  0  0  0  0  0  0
    4.6246    3.4649   -5.3067 H   0  0  0  0  0  0  0  0  0  0  0  0
    5.3590    1.4414   -4.0762 H   0  0  0  0  0  0  0  0  0  0  0  0
    4.4134    0.9064   -1.8897 H   0  0  0  0  0  0  0  0  0  0  0  0
    3.1294   -3.0335   -0.6249 H   0  0  0  0  0  0  0  0  0  0  0  0
    1.5401   -2.2961   -0.8091 H   0  0  0  0  0  0  0  0  0  0  0  0
    1.3991   -4.1942    0.7817 H   0  0  0  0  0  0  0  0  0  0  0  0
    1.0637   -2.6722    1.6190 H   0  0  0  0  0  0  0  0  0  0  0  0
    3.7272   -4.1824    1.5682 H   0  0  0  0  0  0  0  0  0  0  0  0
    2.6289   -4.0500    2.9383 H   0  0  0  0  0  0  0  0  0  0  0  0
    1.9473   -1.5204    3.7344 H   0  0  0  0  0  0  0  0  0  0  0  0
    3.2625   -0.3301    3.6313 H   0  0  0  0  0  0  0  0  0  0  0  0
    3.4166   -3.1339    4.9577 H   0  0  0  0  0  0  0  0  0  0  0  0
    4.2916   -1.6697    5.4561 H   0  0  0  0  0  0  0  0  0  0  0  0
    5.3488   -3.4319    3.4035 H   0  0  0  0  0  0  0  0  0  0  0  0
    5.6779   -1.6871    3.3948 H   0  0  0  0  0  0  0  0  0  0  0  0
    4.9014   -1.8507    0.6568 H   0  0  0  0  0  0  0  0  0  0  0  0
    4.4959   -0.3814    1.5558 H   0  0  0  0  0  0  0  0  0  0  0  0
  1  2  2  0  0  0  0
  2  3  1  0  0  0  0
  2 14  1  0  0  0  0
  3  4  1  0  0  0  0
  3 23  1  0  0  0  0
  3 24  1  0  0  0  0
  4  5  1  0  0  0  0
  4 13  2  0  0  0  0
  5  6  2  0  0  0  0
  5 25  1  0  0  0  0
  6  7  1  0  0  0  0
  7  8  2  0  0  0  0
  7 26  1  0  0  0  0
  8  9  1  0  0  0  0
  8 13  1  0  0  0  0
  9 10  2  0  0  0  0
  9 27  1  0  0  0  0
 10 11  1  0  0  0  0
 10 28  1  0  0  0  0
 11 12  2  0  0  0  0
 11 29  1  0  0  0  0
 12 13  1  0  0  0  0
 12 30  1  0  0  0  0
 14 15  1  0  0  0  0
 14 22  1  0  0  0  0
 15 16  1  0  0  0  0
 15 31  1  0  0  0  0
 15 32  1  0  0  0  0
 16 17  1  0  0  0  0
 16 33  1  0  0  0  0
 16 34  1  0  0  0  0
 17 18  1  0  0  0  0
 17 35  1  0  0  0  0
 17 36  1  0  0  0  0
 18 19  1  0  0  0  0
 18 21  1  0  0  0  0
 18 22  1  0  0  0  0
 19 20  1  0  0  0  0
 19 37  1  0  0  0  0
 19 38  1  0  0  0  0
 20 21  1  0  0  0  0
 20 39  1  0  0  0  0
 20 40  1  0  0  0  0
 21 41  1  0  0  0  0
 21 42  1  0  0  0  0
 22 43  1  0  0  0  0
 22 44  1  0  0  0  0
M  END
$$$$
