
 OpenBabel07202414133D

 52 55  0  0  1  0  0  0  0  0999 V2000
    5.5632    2.4558   -0.3460 C   0  0  0  0  0  0  0  0  0  0  0  0
    4.8285    1.2283   -0.1063 N   0  0  0  0  0  0  0  0  0  0  0  0
    3.4784    1.1142   -0.6278 C   0  0  0  0  0  0  0  0  0  0  0  0
    5.3692    0.3407    0.8317 C   0  0  0  0  0  0  0  0  0  0  0  0
    6.4827    0.5322    1.3144 O   0  0  0  0  0  0  0  0  0  0  0  0
    4.5245   -0.8823    1.1978 C   0  0  0  0  0  0  0  0  0  0  0  0
    5.2423   -1.9093    2.1276 C   0  0  3  0  0  0  0  0  0  0  0  0
    5.4719   -1.2567    3.5329 C   0  0  0  0  0  0  0  0  0  0  0  0
    5.0156   -0.1518    3.8196 O   0  0  0  0  0  0  0  0  0  0  0  0
    6.1097   -2.0922    4.4340 N   0  0  0  0  0  0  0  0  0  0  0  0
    6.5663   -1.7951    5.7437 C   0  0  0  0  0  0  0  0  0  0  0  0
    6.5181   -0.5177    6.3004 C   0  0  0  0  0  0  0  0  0  0  0  0
    7.1037   -0.1714    7.4724 N   0  0  0  0  0  0  0  0  0  0  0  0
    7.7489   -1.1509    8.1380 C   0  0  0  0  0  0  0  0  0  0  0  0
    7.7855   -2.4860    7.7394 C   0  0  0  0  0  0  0  0  0  0  0  0
    8.4068   -3.4686    8.5343 C   0  0  0  0  0  0  0  0  0  0  0  0
    8.4102   -4.8048    8.1444 C   0  0  0  0  0  0  0  0  0  0  0  0
    7.8029   -5.1744    6.9506 C   0  0  0  0  0  0  0  0  0  0  0  0
    7.1970   -4.2037    6.1492 C   0  0  0  0  0  0  0  0  0  0  0  0
    7.1714   -2.8324    6.5131 C   0  0  0  0  0  0  0  0  0  0  0  0
    6.5757   -2.4143    1.5139 C   0  0  0  0  0  0  0  0  0  0  0  0
    6.3014   -3.2660    0.2856 C   0  0  0  0  0  0  0  0  0  0  0  0
    5.5900   -4.4541    0.6199 O   0  0  0  0  0  0  0  0  0  0  0  0
    4.5556   -4.2995    1.4993 C   0  0  0  0  0  0  0  0  0  0  0  0
    3.7365   -5.4248    1.6333 C   0  0  0  0  0  0  0  0  0  0  0  0
    2.6743   -5.4215    2.5340 C   0  0  0  0  0  0  0  0  0  0  0  0
    2.4377   -4.2894    3.3052 C   0  0  0  0  0  0  0  0  0  0  0  0
    1.1515   -4.2926    4.4473 Cl  0  0  0  0  0  0  0  0  0  0  0  0
    3.2434   -3.1557    3.1691 C   0  0  0  0  0  0  0  0  0  0  0  0
    4.3251   -3.1449    2.2647 C   0  0  0  0  0  0  0  0  0  0  0  0
    5.0840    3.0527   -1.1269 H   0  0  0  0  0  0  0  0  0  0  0  0
    6.5788    2.2065   -0.6674 H   0  0  0  0  0  0  0  0  0  0  0  0
    5.6117    3.0305    0.5814 H   0  0  0  0  0  0  0  0  0  0  0  0
    3.2815    1.8941   -1.3696 H   0  0  0  0  0  0  0  0  0  0  0  0
    2.7613    1.1927    0.1897 H   0  0  0  0  0  0  0  0  0  0  0  0
    3.3632    0.1418   -1.1194 H   0  0  0  0  0  0  0  0  0  0  0  0
    4.2145   -1.3752    0.2703 H   0  0  0  0  0  0  0  0  0  0  0  0
    3.6102   -0.5169    1.6830 H   0  0  0  0  0  0  0  0  0  0  0  0
    6.2812   -3.0310    4.1111 H   0  0  0  0  0  0  0  0  0  0  0  0
    6.0136    0.3119    5.8159 H   0  0  0  0  0  0  0  0  0  0  0  0
    8.2494   -0.8200    9.0454 H   0  0  0  0  0  0  0  0  0  0  0  0
    8.8785   -3.1970    9.4761 H   0  0  0  0  0  0  0  0  0  0  0  0
    8.8725   -5.5592    8.7755 H   0  0  0  0  0  0  0  0  0  0  0  0
    7.7894   -6.2175    6.6449 H   0  0  0  0  0  0  0  0  0  0  0  0
    6.7138   -4.5609    5.2436 H   0  0  0  0  0  0  0  0  0  0  0  0
    7.1266   -3.0332    2.2324 H   0  0  0  0  0  0  0  0  0  0  0  0
    7.2568   -1.6034    1.2497 H   0  0  0  0  0  0  0  0  0  0  0  0
    7.2513   -3.5775   -0.1621 H   0  0  0  0  0  0  0  0  0  0  0  0
    5.7528   -2.7287   -0.4950 H   0  0  0  0  0  0  0  0  0  0  0  0
    3.9320   -6.3099    1.0317 H   0  0  0  0  0  0  0  0  0  0  0  0
    2.0443   -6.3017    2.6301 H   0  0  0  0  0  0  0  0  0  0  0  0
    3.0308   -2.2877    3.7922 H   0  0  0  0  0  0  0  0  0  0  0  0
  1  2  1  0  0  0  0
  1 31  1  0  0  0  0
  1 32  1  0  0  0  0
  1 33  1  0  0  0  0
  2  3  1  0  0  0  0
  2  4  1  0  0  0  0
  3 34  1  0  0  0  0
  3 35  1  0  0  0  0
  3 36  1  0  0  0  0
  4  5  2  0  0  0  0
  4  6  1  0  0  0  0
  6  7  1  0  0  0  0
  6 37  1  0  0  0  0
  6 38  1  0  0  0  0
  7  8  1  0  0  0  0
  7 21  1  0  0  0  0
  7 30  1  0  0  0  0
  8  9  2  0  0  0  0
  8 10  1  0  0  0  0
 10 11  1  0  0  0  0
 10 39  1  0  0  0  0
 11 12  1  0  0  0  0
 11 20  2  0  0  0  0
 12 13  2  0  0  0  0
 12 40  1  0  0  0  0
 13 14  1  0  0  0  0
 14 15  2  0  0  0  0
 14 41  1  0  0  0  0
 15 16  1  0  0  0  0
 15 20  1  0  0  0  0
 16 17  2  0  0  0  0
 16 42  1  0  0  0  0
 17 18  1  0  0  0  0
 17 43  1  0  0  0  0
 18 19  2  0  0  0  0
 18 44  1  0  0  0  0
 19 20  1  0  0  0  0
 19 45  1  0  0  0  0
 21 22  1  0  0  0  0
 21 46  1  0  0  0  0
 21 47  1  0  0  0  0
 22 23  1  0  0  0  0
 22 48  1  0  0  0  0
 22 49  1  0  0  0  0
 23 24  1  0  0  0  0
 24 25  1  0  0  0  0
 24 30  2  0  0  0  0
 25 26  2  0  0  0  0
 25 50  1  0  0  0  0
 26 27  1  0  0  0  0
 26 51  1  0  0  0  0
 27 28  1  0  0  0  0
 27 29  2  0  0  0  0
 29 30  1  0  0  0  0
 29 52  1  0  0  0  0
M  END
$$$$
