
 OpenBabel07202414173D

 39 42  0  0  1  0  0  0  0  0999 V2000
    5.2228    2.5135    0.6933 Cl  0  0  0  0  0  0  0  0  0  0  0  0
    6.1810    1.1230    0.3676 C   0  0  0  0  0  0  0  0  0  0  0  0
    7.5113    1.2749   -0.0185 C   0  0  0  0  0  0  0  0  0  0  0  0
    8.2823    0.1418   -0.2777 C   0  0  0  0  0  0  0  0  0  0  0  0
    9.9274    0.3534   -0.7566 Cl  0  0  0  0  0  0  0  0  0  0  0  0
    7.7220   -1.1415   -0.1692 C   0  0  0  0  0  0  0  0  0  0  0  0
    6.3763   -1.2860    0.2173 C   0  0  0  0  0  0  0  0  0  0  0  0
    5.6197   -0.1497    0.4889 C   0  0  0  0  0  0  0  0  0  0  0  0
    5.7912   -2.6790    0.3839 C   0  0  3  0  0  0  0  0  0  0  0  0
    5.6651   -3.0710    1.8736 C   0  0  0  0  0  0  0  0  0  0  0  0
    4.9223   -2.4111    2.5972 O   0  0  0  0  0  0  0  0  0  0  0  0
    6.4559   -4.1021    2.3172 N   0  0  0  0  0  0  0  0  0  0  0  0
    6.4977   -4.7012    3.6104 C   0  0  0  0  0  0  0  0  0  0  0  0
    7.7826   -5.0842    4.0189 C   0  0  0  0  0  0  0  0  0  0  0  0
    8.0692   -5.8148    5.1107 N   0  0  0  0  0  0  0  0  0  0  0  0
    7.0055   -6.2732    5.7907 C   0  0  0  0  0  0  0  0  0  0  0  0
    5.6795   -5.9690    5.4880 C   0  0  0  0  0  0  0  0  0  0  0  0
    4.6533   -6.5529    6.2426 C   0  0  0  0  0  0  0  0  0  0  0  0
    3.3916   -5.9819    6.2598 C   0  0  0  0  0  0  0  0  0  0  0  0
    3.0895   -5.0027    5.3280 C   0  0  0  0  0  0  0  0  0  0  0  0
    4.0366   -4.6460    4.3567 C   0  0  0  0  0  0  0  0  0  0  0  0
    5.3952   -5.0584    4.4428 C   0  0  0  0  0  0  0  0  0  0  0  0
    6.4935   -3.6802   -0.5268 C   0  0  0  0  0  0  0  0  0  0  0  0
    7.9935   -3.5575   -0.4363 C   0  0  0  0  0  0  0  0  0  0  0  0
    8.7406   -4.5436   -0.4278 O   0  0  0  0  0  0  0  0  0  0  0  0
    8.4990   -2.2829   -0.4018 N   0  0  0  0  0  0  0  0  0  0  0  0
    7.9407    2.2678   -0.1148 H   0  0  0  0  0  0  0  0  0  0  0  0
    4.5863   -0.2503    0.8181 H   0  0  0  0  0  0  0  0  0  0  0  0
    4.7509   -2.6431    0.0239 H   0  0  0  0  0  0  0  0  0  0  0  0
    7.2599   -4.3391    1.7486 H   0  0  0  0  0  0  0  0  0  0  0  0
    8.6625   -4.7707    3.4620 H   0  0  0  0  0  0  0  0  0  0  0  0
    7.2565   -6.8723    6.6636 H   0  0  0  0  0  0  0  0  0  0  0  0
    4.8391   -7.4541    6.8242 H   0  0  0  0  0  0  0  0  0  0  0  0
    2.6563   -6.3063    6.9903 H   0  0  0  0  0  0  0  0  0  0  0  0
    2.1046   -4.5408    5.3305 H   0  0  0  0  0  0  0  0  0  0  0  0
    3.6966   -3.9821    3.5708 H   0  0  0  0  0  0  0  0  0  0  0  0
    6.2268   -3.4828   -1.5732 H   0  0  0  0  0  0  0  0  0  0  0  0
    6.1961   -4.7126   -0.3092 H   0  0  0  0  0  0  0  0  0  0  0  0
    9.4980   -2.1854   -0.5054 H   0  0  0  0  0  0  0  0  0  0  0  0
  1  2  1  0  0  0  0
  2  3  1  0  0  0  0
  2  8  2  0  0  0  0
  3  4  2  0  0  0  0
  3 27  1  0  0  0  0
  4  5  1  0  0  0  0
  4  6  1  0  0  0  0
  6  7  2  0  0  0  0
  6 26  1  0  0  0  0
  7  8  1  0  0  0  0
  7  9  1  0  0  0  0
  8 28  1  0  0  0  0
  9 10  1  0  0  0  0
  9 23  1  0  0  0  0
  9 29  1  0  0  0  0
 10 11  2  0  0  0  0
 10 12  1  0  0  0  0
 12 13  1  0  0  0  0
 12 30  1  0  0  0  0
 13 14  1  0  0  0  0
 13 22  2  0  0  0  0
 14 15  2  0  0  0  0
 14 31  1  0  0  0  0
 15 16  1  0  0  0  0
 16 17  2  0  0  0  0
 16 32  1  0  0  0  0
 17 18  1  0  0  0  0
 17 22  1  0  0  0  0
 18 19  2  0  0  0  0
 18 33  1  0  0  0  0
 19 20  1  0  0  0  0
 19 34  1  0  0  0  0
 20 21  2  0  0  0  0
 20 35  1  0  0  0  0
 21 22  1  0  0  0  0
 21 36  1  0  0  0  0
 23 24  1  0  0  0  0
 23 37  1  0  0  0  0
 23 38  1  0  0  0  0
 24 25  2  0  0  0  0
 24 26  1  0  0  0  0
 26 39  1  0  0  0  0
M  END
$$$$
