
 OpenBabel07202414193D

 62 66  0  0  1  0  0  0  0  0999 V2000
    1.7717   -0.1441    1.7257 N   0  0  0  0  0  0  0  0  0  0  0  0
    2.9538    0.0269    0.5460 S   0  0  0  0  0  0  0  0  0  0  0  0
    2.2822    0.5951   -0.6026 O   0  0  0  0  0  0  0  0  0  0  0  0
    4.0681    0.6979    1.1721 O   0  0  0  0  0  0  0  0  0  0  0  0
    3.4100   -1.6275    0.1837 C   0  0  0  0  0  0  0  0  0  0  0  0
    3.2928   -2.1428   -1.1081 C   0  0  0  0  0  0  0  0  0  0  0  0
    3.7448   -3.4405   -1.3731 C   0  0  0  0  0  0  0  0  0  0  0  0
    4.3274   -4.2213   -0.3593 C   0  0  0  0  0  0  0  0  0  0  0  0
    4.7748   -5.6433   -0.6398 C   0  0  0  0  0  0  0  0  0  0  0  0
    3.6549   -6.5375   -0.3945 N   0  0  0  0  0  0  0  0  0  0  0  0
    3.9131   -7.9514   -0.7255 C   0  0  0  0  0  0  0  0  0  0  0  0
    2.6208   -8.8080   -0.4531 C   0  0  2  0  0  0  0  0  0  0  0  0
    1.4976   -8.2554   -1.3957 C   0  0  0  0  0  0  0  0  0  0  0  0
    1.7366   -7.3553   -2.2019 O   0  0  0  0  0  0  0  0  0  0  0  0
    0.2687   -8.8766   -1.2917 N   0  0  0  0  0  0  0  0  0  0  0  0
   -0.9237   -8.5288   -1.9874 C   0  0  0  0  0  0  0  0  0  0  0  0
   -1.0036   -7.4590   -2.8834 C   0  0  0  0  0  0  0  0  0  0  0  0
   -2.1547   -6.9702   -3.4018 N   0  0  0  0  0  0  0  0  0  0  0  0
   -3.2845   -7.6218   -3.0710 C   0  0  0  0  0  0  0  0  0  0  0  0
   -3.3220   -8.7956   -2.3223 C   0  0  0  0  0  0  0  0  0  0  0  0
   -4.5227   -9.5078   -2.1582 C   0  0  0  0  0  0  0  0  0  0  0  0
   -4.5495  -10.6958   -1.4335 C   0  0  0  0  0  0  0  0  0  0  0  0
   -3.3869  -11.1646   -0.8375 C   0  0  0  0  0  0  0  0  0  0  0  0
   -2.1894  -10.4599   -0.9879 C   0  0  0  0  0  0  0  0  0  0  0  0
   -2.1166   -9.2653   -1.7475 C   0  0  0  0  0  0  0  0  0  0  0  0
    2.2208   -8.6699    1.0408 C   0  0  0  0  0  0  0  0  0  0  0  0
    3.1628   -9.5068    1.8955 C   0  0  0  0  0  0  0  0  0  0  0  0
    2.9791  -10.8960    1.6282 O   0  0  0  0  0  0  0  0  0  0  0  0
    2.9892  -11.2257    0.3007 C   0  0  0  0  0  0  0  0  0  0  0  0
    3.0753  -12.5964    0.0383 C   0  0  0  0  0  0  0  0  0  0  0  0
    3.0422  -13.0647   -1.2731 C   0  0  0  0  0  0  0  0  0  0  0  0
    2.9382  -12.1557   -2.3202 C   0  0  0  0  0  0  0  0  0  0  0  0
    2.8620  -12.7274   -3.9404 Cl  0  0  0  0  0  0  0  0  0  0  0  0
    2.8624  -10.7839   -2.0660 C   0  0  0  0  0  0  0  0  0  0  0  0
    2.8585  -10.2967   -0.7445 C   0  0  0  0  0  0  0  0  0  0  0  0
    4.4067   -3.6939    0.9384 C   0  0  0  0  0  0  0  0  0  0  0  0
    3.9511   -2.4025    1.1918 C   0  0  0  0  0  0  0  0  0  0  0  0
    4.0460   -1.9343    2.4531 F   0  0  0  0  0  0  0  0  0  0  0  0
    1.1002    0.6197    1.6374 H   0  0  0  0  0  0  0  0  0  0  0  0
    2.1983   -0.2013    2.6521 H   0  0  0  0  0  0  0  0  0  0  0  0
    2.8577   -1.5482   -1.9081 H   0  0  0  0  0  0  0  0  0  0  0  0
    3.6332   -3.8444   -2.3787 H   0  0  0  0  0  0  0  0  0  0  0  0
    5.6200   -5.8963    0.0103 H   0  0  0  0  0  0  0  0  0  0  0  0
    5.1247   -5.7158   -1.6765 H   0  0  0  0  0  0  0  0  0  0  0  0
    2.8906   -6.2254   -1.0110 H   0  0  0  0  0  0  0  0  0  0  0  0
    4.7558   -8.3189   -0.1300 H   0  0  0  0  0  0  0  0  0  0  0  0
    4.2096   -8.0418   -1.7787 H   0  0  0  0  0  0  0  0  0  0  0  0
    0.1964   -9.6176   -0.6103 H   0  0  0  0  0  0  0  0  0  0  0  0
   -0.1326   -6.9208   -3.2390 H   0  0  0  0  0  0  0  0  0  0  0  0
   -4.1930   -7.1615   -3.4515 H   0  0  0  0  0  0  0  0  0  0  0  0
   -5.4399   -9.1572   -2.6277 H   0  0  0  0  0  0  0  0  0  0  0  0
   -5.4738  -11.2601   -1.3447 H   0  0  0  0  0  0  0  0  0  0  0  0
   -3.4015  -12.0902   -0.2677 H   0  0  0  0  0  0  0  0  0  0  0  0
   -1.3074  -10.8955   -0.5287 H   0  0  0  0  0  0  0  0  0  0  0  0
    1.1971   -9.0256    1.2082 H   0  0  0  0  0  0  0  0  0  0  0  0
    2.2395   -7.6285    1.3785 H   0  0  0  0  0  0  0  0  0  0  0  0
    2.9434   -9.3511    2.9571 H   0  0  0  0  0  0  0  0  0  0  0  0
    4.2201   -9.2527    1.7574 H   0  0  0  0  0  0  0  0  0  0  0  0
    3.1564  -13.3018    0.8627 H   0  0  0  0  0  0  0  0  0  0  0  0
    3.0918  -14.1328   -1.4676 H   0  0  0  0  0  0  0  0  0  0  0  0
    2.7613  -10.1009   -2.9085 H   0  0  0  0  0  0  0  0  0  0  0  0
    4.8110   -4.2862    1.7540 H   0  0  0  0  0  0  0  0  0  0  0  0
  1  2  1  0  0  0  0
  1 39  1  0  0  0  0
  1 40  1  0  0  0  0
  2  3  2  0  0  0  0
  2  4  2  0  0  0  0
  2  5  1  0  0  0  0
  5  6  1  0  0  0  0
  5 37  2  0  0  0  0
  6  7  2  0  0  0  0
  6 41  1  0  0  0  0
  7  8  1  0  0  0  0
  7 42  1  0  0  0  0
  8  9  1  0  0  0  0
  8 36  2  0  0  0  0
  9 10  1  0  0  0  0
  9 43  1  0  0  0  0
  9 44  1  0  0  0  0
 10 11  1  0  0  0  0
 10 45  1  0  0  0  0
 11 12  1  0  0  0  0
 11 46  1  0  0  0  0
 11 47  1  0  0  0  0
 12 13  1  6  0  0  0
 12 26  1  0  0  0  0
 12 35  1  0  0  0  0
 13 14  2  0  0  0  0
 13 15  1  0  0  0  0
 15 16  1  0  0  0  0
 15 48  1  0  0  0  0
 16 17  1  0  0  0  0
 16 25  2  0  0  0  0
 17 18  2  0  0  0  0
 17 49  1  0  0  0  0
 18 19  1  0  0  0  0
 19 20  2  0  0  0  0
 19 50  1  0  0  0  0
 20 21  1  0  0  0  0
 20 25  1  0  0  0  0
 21 22  2  0  0  0  0
 21 51  1  0  0  0  0
 22 23  1  0  0  0  0
 22 52  1  0  0  0  0
 23 24  2  0  0  0  0
 23 53  1  0  0  0  0
 24 25  1  0  0  0  0
 24 54  1  0  0  0  0
 26 27  1  0  0  0  0
 26 55  1  0  0  0  0
 26 56  1  0  0  0  0
 27 28  1  0  0  0  0
 27 57  1  0  0  0  0
 27 58  1  0  0  0  0
 28 29  1  0  0  0  0
 29 30  1  0  0  0  0
 29 35  2  0  0  0  0
 30 31  2  0  0  0  0
 30 59  1  0  0  0  0
 31 32  1  0  0  0  0
 31 60  1  0  0  0  0
 32 33  1  0  0  0  0
 32 34  2  0  0  0  0
 34 35  1  0  0  0  0
 34 61  1  0  0  0  0
 36 37  1  0  0  0  0
 36 62  1  0  0  0  0
 37 38  1  0  0  0  0
M  END
$$$$
