
 OpenBabel07202414133D

 37 39  0  0  0  0  0  0  0  0999 V2000
    1.0003   -0.0767    0.0498 C   0  0  0  0  0  0  0  0  0  0  0  0
    2.4537   -0.0962   -0.0316 N   0  0  0  0  0  0  0  0  0  0  0  0
    3.2035   -0.2205    1.2174 C   0  0  0  0  0  0  0  0  0  0  0  0
    3.4895    1.1166    1.8600 C   0  0  0  0  0  0  0  0  0  0  0  0
    4.7074    1.7717    1.6181 C   0  0  0  0  0  0  0  0  0  0  0  0
    4.9780    3.0145    2.1948 C   0  0  0  0  0  0  0  0  0  0  0  0
    4.0296    3.6224    3.0155 C   0  0  0  0  0  0  0  0  0  0  0  0
    2.8181    2.9803    3.2604 C   0  0  0  0  0  0  0  0  0  0  0  0
    2.5448    1.7351    2.6917 C   0  0  0  0  0  0  0  0  0  0  0  0
    1.6438    3.7308    4.2704 Cl  0  0  0  0  0  0  0  0  0  0  0  0
    3.1571    0.0525   -1.2218 C   0  0  0  0  0  0  0  0  0  0  0  0
    4.3914    0.0922   -1.2465 O   0  0  0  0  0  0  0  0  0  0  0  0
    2.3818    0.1606   -2.5187 C   0  0  0  0  0  0  0  0  0  0  0  0
    2.0880   -1.1404   -3.0727 N   0  0  0  0  0  0  0  0  0  0  0  0
    2.9602   -2.0720   -3.5697 C   0  0  0  0  0  0  0  0  0  0  0  0
    4.3534   -2.1415   -3.6730 C   0  0  0  0  0  0  0  0  0  0  0  0
    4.8867   -3.2971   -4.2544 C   0  0  0  0  0  0  0  0  0  0  0  0
    4.0605   -4.3253   -4.7157 C   0  0  0  0  0  0  0  0  0  0  0  0
    2.6669   -4.2312   -4.6060 C   0  0  0  0  0  0  0  0  0  0  0  0
    2.1180   -3.0810   -4.0209 C   0  0  0  0  0  0  0  0  0  0  0  0
    0.8137   -2.7300   -3.7899 N   0  0  0  0  0  0  0  0  0  0  0  0
    0.8050   -1.5313   -3.2200 N   0  0  0  0  0  0  0  0  0  0  0  0
    0.6613   -0.2172    1.0791 H   0  0  0  0  0  0  0  0  0  0  0  0
    0.5967   -0.8868   -0.5620 H   0  0  0  0  0  0  0  0  0  0  0  0
    0.6301    0.8819   -0.3224 H   0  0  0  0  0  0  0  0  0  0  0  0
    4.1495   -0.7419    1.0247 H   0  0  0  0  0  0  0  0  0  0  0  0
    2.6479   -0.8666    1.9081 H   0  0  0  0  0  0  0  0  0  0  0  0
    5.4549    1.3131    0.9710 H   0  0  0  0  0  0  0  0  0  0  0  0
    5.9269    3.5080    1.9992 H   0  0  0  0  0  0  0  0  0  0  0  0
    4.2398    4.5928    3.4565 H   0  0  0  0  0  0  0  0  0  0  0  0
    1.5960    1.2475    2.8996 H   0  0  0  0  0  0  0  0  0  0  0  0
    2.9855    0.7031   -3.2554 H   0  0  0  0  0  0  0  0  0  0  0  0
    1.4525    0.7238   -2.3971 H   0  0  0  0  0  0  0  0  0  0  0  0
    5.0023   -1.3498   -3.3111 H   0  0  0  0  0  0  0  0  0  0  0  0
    5.9671   -3.3955   -4.3457 H   0  0  0  0  0  0  0  0  0  0  0  0
    4.5039   -5.2110   -5.1658 H   0  0  0  0  0  0  0  0  0  0  0  0
    2.0219   -5.0260   -4.9643 H   0  0  0  0  0  0  0  0  0  0  0  0
  1  2  1  0  0  0  0
  1 23  1  0  0  0  0
  1 24  1  0  0  0  0
  1 25  1  0  0  0  0
  2  3  1  0  0  0  0
  2 11  1  0  0  0  0
  3  4  1  0  0  0  0
  3 26  1  0  0  0  0
  3 27  1  0  0  0  0
  4  5  1  0  0  0  0
  4  9  2  0  0  0  0
  5  6  2  0  0  0  0
  5 28  1  0  0  0  0
  6  7  1  0  0  0  0
  6 29  1  0  0  0  0
  7  8  2  0  0  0  0
  7 30  1  0  0  0  0
  8  9  1  0  0  0  0
  8 10  1  0  0  0  0
  9 31  1  0  0  0  0
 11 12  2  0  0  0  0
 11 13  1  0  0  0  0
 13 14  1  0  0  0  0
 13 32  1  0  0  0  0
 13 33  1  0  0  0  0
 14 15  1  0  0  0  0
 14 22  1  0  0  0  0
 15 16  1  0  0  0  0
 15 20  2  0  0  0  0
 16 17  2  0  0  0  0
 16 34  1  0  0  0  0
 17 18  1  0  0  0  0
 17 35  1  0  0  0  0
 18 19  2  0  0  0  0
 18 36  1  0  0  0  0
 19 20  1  0  0  0  0
 19 37  1  0  0  0  0
 20 21  1  0  0  0  0
 21 22  2  0  0  0  0
M  END
$$$$
