
 OpenBabel07202414203D

 18 19  0  0  0  0  0  0  0  0999 V2000
    0.8913    1.4415    0.0068 C   0  0  0  0  0  0  0  0  0  0  0  0
   -0.2605    0.6610    0.0070 C   0  0  0  0  0  0  0  0  0  0  0  0
   -0.2315   -0.7359    0.0077 C   0  0  0  0  0  0  0  0  0  0  0  0
   -1.6054   -1.1090    0.0111 C   0  0  0  0  0  0  0  0  0  0  0  0
   -2.4143   -0.0522    0.0102 N   0  0  0  0  0  0  0  0  0  0  0  0
   -1.5835    0.9978    0.0082 N   0  0  0  0  0  0  0  0  0  0  0  0
   -2.1132   -2.3470    0.0190 N   0  0  0  0  0  0  0  0  0  0  0  0
    1.0292   -1.3558    0.0059 C   0  0  0  0  0  0  0  0  0  0  0  0
    2.1668   -0.6275    0.0057 N   0  0  0  0  0  0  0  0  0  0  0  0
    2.0588    0.7076    0.0067 C   0  0  0  0  0  0  0  0  0  0  0  0
    3.2552    1.3490    0.0091 O   0  0  0  0  0  0  0  0  0  0  0  0
    1.2209   -2.7135    0.0053 O   0  0  0  0  0  0  0  0  0  0  0  0
    0.8860    2.5224    0.0077 H   0  0  0  0  0  0  0  0  0  0  0  0
   -1.9871    1.9288    0.0085 H   0  0  0  0  0  0  0  0  0  0  0  0
   -1.6250   -3.2253   -0.0179 H   0  0  0  0  0  0  0  0  0  0  0  0
   -3.1251   -2.4287    0.0016 H   0  0  0  0  0  0  0  0  0  0  0  0
    3.8520    0.5777    0.0107 H   0  0  0  0  0  0  0  0  0  0  0  0
    0.3410   -3.1080    0.0163 H   0  0  0  0  0  0  0  0  0  0  0  0
  1  2  1  0  0  0  0
  1 10  2  0  0  0  0
  1 13  1  0  0  0  0
  2  3  2  0  0  0  0
  2  6  1  0  0  0  0
  3  4  1  0  0  0  0
  3  8  1  0  0  0  0
  4  5  2  0  0  0  0
  4  7  1  0  0  0  0
  5  6  1  0  0  0  0
  6 14  1  0  0  0  0
  7 15  1  0  0  0  0
  7 16  1  0  0  0  0
  8  9  2  0  0  0  0
  8 12  1  0  0  0  0
  9 10  1  0  0  0  0
 10 11  1  0  0  0  0
 11 17  1  0  0  0  0
 12 18  1  0  0  0  0
M  END
$$$$
