
 OpenBabel07202414183D

 44 47  0  0  0  0  0  0  0  0999 V2000
    2.1682   -0.0493    0.0146 F   0  0  0  0  0  0  0  0  0  0  0  0
    0.8319   -0.0344    0.0285 C   0  0  0  0  0  0  0  0  0  0  0  0
    0.1549    1.0425   -0.5117 C   0  0  0  0  0  0  0  0  0  0  0  0
   -1.2409    1.0416   -0.4982 C   0  0  0  0  0  0  0  0  0  0  0  0
   -1.9874   -0.0278    0.0335 C   0  0  0  0  0  0  0  0  0  0  0  0
   -3.3606   -0.0066    0.0298 N   0  0  0  0  0  0  0  0  0  0  0  0
   -4.1073    0.5424   -1.1026 C   0  0  0  0  0  0  0  0  0  0  0  0
   -5.1255    1.5642   -0.5932 C   0  0  0  0  0  0  0  0  0  0  0  0
   -5.9957    1.0186    0.4681 N   0  0  0  0  0  0  0  0  0  0  0  0
   -7.3752    1.1498    0.5979 C   0  0  0  0  0  0  0  0  0  0  0  0
   -7.9655    0.6653    1.5658 O   0  0  0  0  0  0  0  0  0  0  0  0
   -8.1813    1.8394   -0.4739 C   0  0  0  0  0  0  0  0  0  0  0  0
   -7.7212    3.0010   -0.9696 C   0  0  0  0  0  0  0  0  0  0  0  0
   -8.3402    3.6605   -2.1327 C   0  0  0  0  0  0  0  0  0  0  0  0
   -7.7468    4.5525   -2.7291 O   0  0  0  0  0  0  0  0  0  0  0  0
   -9.5680    3.2150   -2.5063 N   0  0  0  0  0  0  0  0  0  0  0  0
  -10.2185    2.1500   -1.8779 C   0  0  0  0  0  0  0  0  0  0  0  0
  -11.5332    1.8618   -2.2559 C   0  0  0  0  0  0  0  0  0  0  0  0
  -12.2195    0.8288   -1.6269 C   0  0  0  0  0  0  0  0  0  0  0  0
  -11.5780    0.0701   -0.6520 C   0  0  0  0  0  0  0  0  0  0  0  0
  -10.2520    0.3495   -0.2925 C   0  0  0  0  0  0  0  0  0  0  0  0
   -9.5507    1.4118   -0.8816 C   0  0  0  0  0  0  0  0  0  0  0  0
   -5.2471    0.3729    1.5681 C   0  0  0  0  0  0  0  0  0  0  0  0
   -4.1977   -0.6413    1.0589 C   0  0  0  0  0  0  0  0  0  0  0  0
   -1.2595   -1.0923    0.5850 C   0  0  0  0  0  0  0  0  0  0  0  0
    0.1393   -1.1034    0.5779 C   0  0  0  0  0  0  0  0  0  0  0  0
    0.7043    1.8782   -0.9351 H   0  0  0  0  0  0  0  0  0  0  0  0
   -1.7457    1.9153   -0.9033 H   0  0  0  0  0  0  0  0  0  0  0  0
   -4.6406   -0.2728   -1.6070 H   0  0  0  0  0  0  0  0  0  0  0  0
   -3.4745    1.0108   -1.8641 H   0  0  0  0  0  0  0  0  0  0  0  0
   -5.6857    1.8948   -1.4621 H   0  0  0  0  0  0  0  0  0  0  0  0
   -4.6067    2.4288   -0.1568 H   0  0  0  0  0  0  0  0  0  0  0  0
   -6.8192    3.4861   -0.6211 H   0  0  0  0  0  0  0  0  0  0  0  0
  -10.0052    3.7033   -3.2761 H   0  0  0  0  0  0  0  0  0  0  0  0
  -12.0388    2.4541   -3.0134 H   0  0  0  0  0  0  0  0  0  0  0  0
  -13.2536    0.6206   -1.8900 H   0  0  0  0  0  0  0  0  0  0  0  0
  -12.1142   -0.7342   -0.1526 H   0  0  0  0  0  0  0  0  0  0  0  0
   -9.8038   -0.2659    0.4838 H   0  0  0  0  0  0  0  0  0  0  0  0
   -5.9189   -0.1272    2.2727 H   0  0  0  0  0  0  0  0  0  0  0  0
   -4.7401    1.1778    2.1162 H   0  0  0  0  0  0  0  0  0  0  0  0
   -4.7049   -1.5114    0.6240 H   0  0  0  0  0  0  0  0  0  0  0  0
   -3.6124   -0.9903    1.9162 H   0  0  0  0  0  0  0  0  0  0  0  0
   -1.7756   -1.9535    0.9999 H   0  0  0  0  0  0  0  0  0  0  0  0
    0.6881   -1.9406    0.9936 H   0  0  0  0  0  0  0  0  0  0  0  0
  1  2  1  0  0  0  0
  2  3  1  0  0  0  0
  2 26  2  0  0  0  0
  3  4  2  0  0  0  0
  3 27  1  0  0  0  0
  4  5  1  0  0  0  0
  4 28  1  0  0  0  0
  5  6  1  0  0  0  0
  5 25  2  0  0  0  0
  6  7  1  0  0  0  0
  6 24  1  0  0  0  0
  7  8  1  0  0  0  0
  7 29  1  0  0  0  0
  7 30  1  0  0  0  0
  8  9  1  0  0  0  0
  8 31  1  0  0  0  0
  8 32  1  0  0  0  0
  9 10  1  0  0  0  0
  9 23  1  0  0  0  0
 10 11  2  0  0  0  0
 10 12  1  0  0  0  0
 12 13  2  0  0  0  0
 12 22  1  0  0  0  0
 13 14  1  0  0  0  0
 13 33  1  0  0  0  0
 14 15  2  0  0  0  0
 14 16  1  0  0  0  0
 16 17  1  0  0  0  0
 16 34  1  0  0  0  0
 17 18  1  0  0  0  0
 17 22  2  0  0  0  0
 18 19  2  0  0  0  0
 18 35  1  0  0  0  0
 19 20  1  0  0  0  0
 19 36  1  0  0  0  0
 20 21  2  0  0  0  0
 20 37  1  0  0  0  0
 21 22  1  0  0  0  0
 21 38  1  0  0  0  0
 23 24  1  0  0  0  0
 23 39  1  0  0  0  0
 23 40  1  0  0  0  0
 24 41  1  0  0  0  0
 24 42  1  0  0  0  0
 25 26  1  0  0  0  0
 25 43  1  0  0  0  0
 26 44  1  0  0  0  0
M  END
$$$$
