
 OpenBabel07202414143D

 52 55  0  0  1  0  0  0  0  0999 V2000
    8.1124    0.2070   -0.6472 C   0  0  0  0  0  0  0  0  0  0  0  0
    7.0459    0.5356    0.2690 N   0  0  0  0  0  0  0  0  0  0  0  0
    5.9814   -0.3251    0.4382 C   0  0  0  0  0  0  0  0  0  0  0  0
    5.8955   -1.3889   -0.1788 O   0  0  0  0  0  0  0  0  0  0  0  0
    4.8842    0.1607    1.4057 C   0  0  1  0  0  0  0  0  0  0  0  0
    3.6752   -0.7597    1.4148 C   0  0  0  0  0  0  0  0  0  0  0  0
    5.4214    0.4264    2.7594 N   0  0  0  0  0  0  0  0  0  0  0  0
    6.0538   -0.6370    3.5842 C   0  0  0  0  0  0  0  0  0  0  0  0
    7.5253   -0.3131    3.9107 C   0  0  2  0  0  0  0  0  0  0  0  0
    8.2345   -1.3298    4.8901 C   0  0  0  0  0  0  0  0  0  0  0  0
    9.2241   -1.9504    4.5259 O   0  0  0  0  0  0  0  0  0  0  0  0
    7.7487   -1.3798    6.1858 N   0  0  0  0  0  0  0  0  0  0  0  0
    8.4876   -1.8960    7.2952 C   0  0  0  0  0  0  0  0  0  0  0  0
    8.7908   -3.2310    7.4835 C   0  0  0  0  0  0  0  0  0  0  0  0
    8.8909   -3.7827    8.7166 N   0  0  0  0  0  0  0  0  0  0  0  0
    8.8456   -2.9156    9.7422 C   0  0  0  0  0  0  0  0  0  0  0  0
    9.0790   -1.5534    9.6297 C   0  0  0  0  0  0  0  0  0  0  0  0
    9.5480   -0.7284   10.6914 C   0  0  0  0  0  0  0  0  0  0  0  0
    9.6646    0.6528   10.5118 C   0  0  0  0  0  0  0  0  0  0  0  0
    9.2247    1.2078    9.3222 C   0  0  0  0  0  0  0  0  0  0  0  0
    8.7804    0.3869    8.2724 C   0  0  0  0  0  0  0  0  0  0  0  0
    8.7431   -0.9915    8.3818 C   0  0  0  0  0  0  0  0  0  0  0  0
    7.6684    1.1558    4.3000 C   0  0  0  0  0  0  0  0  0  0  0  0
    8.8833    1.6521    4.8018 C   0  0  0  0  0  0  0  0  0  0  0  0
    9.0478    3.0171    5.0713 C   0  0  0  0  0  0  0  0  0  0  0  0
   10.5576    3.5868    5.6511 Cl  0  0  0  0  0  0  0  0  0  0  0  0
    8.0117    3.9195    4.8448 C   0  0  0  0  0  0  0  0  0  0  0  0
    6.8165    3.4595    4.3081 C   0  0  0  0  0  0  0  0  0  0  0  0
    6.6545    2.0988    4.0058 C   0  0  0  0  0  0  0  0  0  0  0  0
    5.4740    1.7419    3.1799 C   0  0  0  0  0  0  0  0  0  0  0  0
    4.7052    2.6094    2.7841 O   0  0  0  0  0  0  0  0  0  0  0  0
    8.8448    1.0178   -0.6569 H   0  0  0  0  0  0  0  0  0  0  0  0
    7.7059    0.0602   -1.6531 H   0  0  0  0  0  0  0  0  0  0  0  0
    8.5883   -0.7203   -0.3162 H   0  0  0  0  0  0  0  0  0  0  0  0
    6.9858    1.4759    0.6421 H   0  0  0  0  0  0  0  0  0  0  0  0
    4.5388    1.1147    0.9804 H   0  0  0  0  0  0  0  0  0  0  0  0
    3.9303   -1.7591    1.7814 H   0  0  0  0  0  0  0  0  0  0  0  0
    3.2835   -0.8709    0.3975 H   0  0  0  0  0  0  0  0  0  0  0  0
    2.8741   -0.3524    2.0406 H   0  0  0  0  0  0  0  0  0  0  0  0
    5.9553   -1.6059    3.0831 H   0  0  0  0  0  0  0  0  0  0  0  0
    5.4590   -0.6893    4.5053 H   0  0  0  0  0  0  0  0  0  0  0  0
    8.0738   -0.4189    2.9648 H   0  0  0  0  0  0  0  0  0  0  0  0
    7.1018   -0.6432    6.4484 H   0  0  0  0  0  0  0  0  0  0  0  0
    8.8464   -3.9493    6.6720 H   0  0  0  0  0  0  0  0  0  0  0  0
    8.3731   -3.2944   10.6518 H   0  0  0  0  0  0  0  0  0  0  0  0
    9.9154   -1.1757   11.6101 H   0  0  0  0  0  0  0  0  0  0  0  0
   10.0901    1.2723   11.2882 H   0  0  0  0  0  0  0  0  0  0  0  0
    9.2720    2.2890    9.1791 H   0  0  0  0  0  0  0  0  0  0  0  0
    8.4946    0.8740    7.3602 H   0  0  0  0  0  0  0  0  0  0  0  0
    9.7277    0.9849    4.9624 H   0  0  0  0  0  0  0  0  0  0  0  0
    8.1430    4.9830    5.0445 H   0  0  0  0  0  0  0  0  0  0  0  0
    6.0242    4.1759    4.0780 H   0  0  0  0  0  0  0  0  0  0  0  0
  1  2  1  0  0  0  0
  1 32  1  0  0  0  0
  1 33  1  0  0  0  0
  1 34  1  0  0  0  0
  2  3  1  0  0  0  0
  2 35  1  0  0  0  0
  3  4  2  0  0  0  0
  3  5  1  0  0  0  0
  5  6  1  0  0  0  0
  5  7  1  0  0  0  0
  5 36  1  6  0  0  0
  6 37  1  0  0  0  0
  6 38  1  0  0  0  0
  6 39  1  0  0  0  0
  7  8  1  0  0  0  0
  7 30  1  0  0  0  0
  8  9  1  0  0  0  0
  8 40  1  0  0  0  0
  8 41  1  0  0  0  0
  9 23  1  0  0  0  0
  9 10  1  0  0  0  0
  9 42  1  6  0  0  0
 10 11  2  0  0  0  0
 10 12  1  0  0  0  0
 12 13  1  0  0  0  0
 12 43  1  0  0  0  0
 13 14  1  0  0  0  0
 13 22  2  0  0  0  0
 14 15  2  0  0  0  0
 14 44  1  0  0  0  0
 15 16  1  0  0  0  0
 16 17  2  0  0  0  0
 16 45  1  0  0  0  0
 17 18  1  0  0  0  0
 17 22  1  0  0  0  0
 18 19  2  0  0  0  0
 18 46  1  0  0  0  0
 19 20  1  0  0  0  0
 19 47  1  0  0  0  0
 20 21  2  0  0  0  0
 20 48  1  0  0  0  0
 21 22  1  0  0  0  0
 21 49  1  0  0  0  0
 23 24  1  0  0  0  0
 23 29  2  0  0  0  0
 24 25  2  0  0  0  0
 24 50  1  0  0  0  0
 25 26  1  0  0  0  0
 25 27  1  0  0  0  0
 27 28  2  0  0  0  0
 27 51  1  0  0  0  0
 28 29  1  0  0  0  0
 28 52  1  0  0  0  0
 29 30  1  0  0  0  0
 30 31  2  0  0  0  0
M  END
$$$$
