
 OpenBabel07202414113D

 55 58  0  0  0  0  0  0  0  0999 V2000
    4.5375   -6.7102   -1.7584 C   0  0  0  0  0  0  0  0  0  0  0  0
    5.4082   -5.9809   -1.0451 C   0  0  0  0  0  0  0  0  0  0  0  0
    4.9594   -5.2034    0.1513 C   0  0  0  0  0  0  0  0  0  0  0  0
    3.8082   -5.2845    0.5482 O   0  0  0  0  0  0  0  0  0  0  0  0
    5.9798   -4.4333    0.6856 N   0  0  0  0  0  0  0  0  0  0  0  0
    5.9435   -3.6833    1.8874 C   0  0  0  0  0  0  0  0  0  0  0  0
    4.8612   -3.7303    2.7753 C   0  0  0  0  0  0  0  0  0  0  0  0
    4.9201   -3.0615    3.9995 C   0  0  0  0  0  0  0  0  0  0  0  0
    6.0627   -2.3506    4.3436 C   0  0  0  0  0  0  0  0  0  0  0  0
    6.1087   -1.7444    5.5397 F   0  0  0  0  0  0  0  0  0  0  0  0
    7.1555   -2.2645    3.4713 C   0  0  0  0  0  0  0  0  0  0  0  0
    8.3860   -1.6986    3.9433 N   0  0  0  0  0  0  0  0  0  0  0  0
    8.9139   -0.4510    3.3840 C   0  0  0  0  0  0  0  0  0  0  0  0
    8.0559    0.3716    2.4560 C   0  0  0  0  0  0  0  0  0  0  0  0
    7.1406    1.3035    2.9732 C   0  0  0  0  0  0  0  0  0  0  0  0
    6.3765    2.1016    2.1190 C   0  0  0  0  0  0  0  0  0  0  0  0
    6.5128    1.9726    0.7378 C   0  0  0  0  0  0  0  0  0  0  0  0
    7.4321    1.0642    0.2176 C   0  0  0  0  0  0  0  0  0  0  0  0
    7.6239    0.9237   -1.4866 Cl  0  0  0  0  0  0  0  0  0  0  0  0
    8.2074    0.2725    1.0659 C   0  0  0  0  0  0  0  0  0  0  0  0
    9.0321   -2.3860    4.9821 C   0  0  0  0  0  0  0  0  0  0  0  0
    8.6232   -3.4644    5.4257 O   0  0  0  0  0  0  0  0  0  0  0  0
   10.3434   -1.8276    5.5407 C   0  0  0  0  0  0  0  0  0  0  0  0
   11.5754   -2.2597    4.7736 C   0  0  0  0  0  0  0  0  0  0  0  0
   11.6526   -3.5610    4.2688 C   0  0  0  0  0  0  0  0  0  0  0  0
   12.6646   -4.0304    3.5111 N   0  0  0  0  0  0  0  0  0  0  0  0
   13.6653   -3.1680    3.2408 C   0  0  0  0  0  0  0  0  0  0  0  0
   13.7318   -1.8594    3.7155 C   0  0  0  0  0  0  0  0  0  0  0  0
   14.8034   -1.0131    3.3764 C   0  0  0  0  0  0  0  0  0  0  0  0
   14.8806    0.2767    3.8946 C   0  0  0  0  0  0  0  0  0  0  0  0
   13.9097    0.7172    4.7842 C   0  0  0  0  0  0  0  0  0  0  0  0
   12.8299   -0.1099    5.1098 C   0  0  0  0  0  0  0  0  0  0  0  0
   12.6868   -1.4022    4.5509 C   0  0  0  0  0  0  0  0  0  0  0  0
    7.0819   -2.9240    2.2321 C   0  0  0  0  0  0  0  0  0  0  0  0
    4.8654   -7.2876   -2.6162 H   0  0  0  0  0  0  0  0  0  0  0  0
    3.4820   -6.7496   -1.5004 H   0  0  0  0  0  0  0  0  0  0  0  0
    6.4558   -5.9704   -1.3135 H   0  0  0  0  0  0  0  0  0  0  0  0
    6.8615   -4.4282    0.1914 H   0  0  0  0  0  0  0  0  0  0  0  0
    3.9700   -4.3156    2.5680 H   0  0  0  0  0  0  0  0  0  0  0  0
    4.0950   -3.1296    4.7015 H   0  0  0  0  0  0  0  0  0  0  0  0
    9.8766   -0.6737    2.9093 H   0  0  0  0  0  0  0  0  0  0  0  0
    9.1496    0.2062    4.2295 H   0  0  0  0  0  0  0  0  0  0  0  0
    7.0284    1.4269    4.0496 H   0  0  0  0  0  0  0  0  0  0  0  0
    5.6762    2.8249    2.5307 H   0  0  0  0  0  0  0  0  0  0  0  0
    5.9058    2.5846    0.0759 H   0  0  0  0  0  0  0  0  0  0  0  0
    8.9398   -0.4106    0.6428 H   0  0  0  0  0  0  0  0  0  0  0  0
   10.4384   -2.1728    6.5773 H   0  0  0  0  0  0  0  0  0  0  0  0
   10.2607   -0.7428    5.6085 H   0  0  0  0  0  0  0  0  0  0  0  0
   10.8715   -4.2957    4.4577 H   0  0  0  0  0  0  0  0  0  0  0  0
   14.4531   -3.5814    2.6157 H   0  0  0  0  0  0  0  0  0  0  0  0
   15.5852   -1.3560    2.7013 H   0  0  0  0  0  0  0  0  0  0  0  0
   15.7059    0.9281    3.6184 H   0  0  0  0  0  0  0  0  0  0  0  0
   13.9891    1.7066    5.2282 H   0  0  0  0  0  0  0  0  0  0  0  0
   12.1134    0.2713    5.8324 H   0  0  0  0  0  0  0  0  0  0  0  0
    7.9395   -2.9027    1.5671 H   0  0  0  0  0  0  0  0  0  0  0  0
  1  2  2  0  0  0  0
  1 35  1  0  0  0  0
  1 36  1  0  0  0  0
  2  3  1  0  0  0  0
  2 37  1  0  0  0  0
  3  4  2  0  0  0  0
  3  5  1  0  0  0  0
  5  6  1  0  0  0  0
  5 38  1  0  0  0  0
  6  7  1  0  0  0  0
  6 34  2  0  0  0  0
  7  8  2  0  0  0  0
  7 39  1  0  0  0  0
  8  9  1  0  0  0  0
  8 40  1  0  0  0  0
  9 10  1  0  0  0  0
  9 11  2  0  0  0  0
 11 12  1  0  0  0  0
 11 34  1  0  0  0  0
 12 13  1  0  0  0  0
 12 21  1  0  0  0  0
 13 14  1  0  0  0  0
 13 41  1  0  0  0  0
 13 42  1  0  0  0  0
 14 15  1  0  0  0  0
 14 20  2  0  0  0  0
 15 16  2  0  0  0  0
 15 43  1  0  0  0  0
 16 17  1  0  0  0  0
 16 44  1  0  0  0  0
 17 18  2  0  0  0  0
 17 45  1  0  0  0  0
 18 19  1  0  0  0  0
 18 20  1  0  0  0  0
 20 46  1  0  0  0  0
 21 22  2  0  0  0  0
 21 23  1  0  0  0  0
 23 24  1  0  0  0  0
 23 47  1  0  0  0  0
 23 48  1  0  0  0  0
 24 25  1  0  0  0  0
 24 33  2  0  0  0  0
 25 26  2  0  0  0  0
 25 49  1  0  0  0  0
 26 27  1  0  0  0  0
 27 28  2  0  0  0  0
 27 50  1  0  0  0  0
 28 29  1  0  0  0  0
 28 33  1  0  0  0  0
 29 30  2  0  0  0  0
 29 51  1  0  0  0  0
 30 31  1  0  0  0  0
 30 52  1  0  0  0  0
 31 32  2  0  0  0  0
 31 53  1  0  0  0  0
 32 33  1  0  0  0  0
 32 54  1  0  0  0  0
 34 55  1  0  0  0  0
M  END
$$$$
