
 OpenBabel07202414123D

 68 71  0  0  1  0  0  0  0  0999 V2000
    1.2870    1.3817    0.5269 C   0  0  0  0  0  0  0  0  0  0  0  0
    2.4240    0.4109    0.1524 C   0  0  0  0  0  0  0  0  0  0  0  0
    3.6149    0.6700    1.1011 C   0  0  0  0  0  0  0  0  0  0  0  0
    1.9155   -1.0262    0.4013 C   0  0  0  0  0  0  0  0  0  0  0  0
    2.8566    0.5822   -1.3069 C   0  0  0  0  0  0  0  0  0  0  0  0
    2.3431    1.5629   -2.1608 C   0  0  0  0  0  0  0  0  0  0  0  0
    2.8035    1.7145   -3.4832 C   0  0  0  0  0  0  0  0  0  0  0  0
    3.7894    0.8920   -4.0342 C   0  0  0  0  0  0  0  0  0  0  0  0
    4.3523    1.0976   -5.3839 N   0  0  0  0  0  0  0  0  0  0  0  0
    5.1903   -0.0014   -5.9974 C   0  0  3  0  0  0  0  0  0  0  0  0
    6.5457   -0.4540   -5.3061 C   0  0  0  0  0  0  0  0  0  0  0  0
    6.6875   -0.7368   -4.1196 O   0  0  0  0  0  0  0  0  0  0  0  0
    7.6445   -0.6041   -6.1449 N   0  0  0  0  0  0  0  0  0  0  0  0
    8.8181   -1.2556   -5.5799 C   0  0  0  0  0  0  0  0  0  0  0  0
   10.0104   -1.2382   -6.5261 C   0  0  0  0  0  0  0  0  0  0  0  0
   11.1965   -1.9328   -5.9107 C   0  0  0  0  0  0  0  0  0  0  0  0
   12.1153   -1.2114   -5.1331 C   0  0  0  0  0  0  0  0  0  0  0  0
   13.1859   -1.8607   -4.5140 C   0  0  0  0  0  0  0  0  0  0  0  0
   13.3415   -3.2376   -4.6587 C   0  0  0  0  0  0  0  0  0  0  0  0
   12.4331   -3.9523   -5.4306 C   0  0  0  0  0  0  0  0  0  0  0  0
   12.5814   -5.2762   -5.5665 F   0  0  0  0  0  0  0  0  0  0  0  0
   11.3659   -3.3160   -6.0568 C   0  0  0  0  0  0  0  0  0  0  0  0
    4.4083   -1.2345   -6.4836 C   0  0  0  0  0  0  0  0  0  0  0  0
    3.2865   -1.7671   -5.8402 C   0  0  0  0  0  0  0  0  0  0  0  0
    2.7834   -3.0174   -6.1934 C   0  0  0  0  0  0  0  0  0  0  0  0
    3.3811   -3.6920   -7.2368 C   0  0  0  0  0  0  0  0  0  0  0  0
    4.4061   -3.1870   -7.9506 N   0  0  0  0  0  0  0  0  0  0  0  0
    4.8900   -1.9844   -7.5608 C   0  0  0  0  0  0  0  0  0  0  0  0
    4.2382    2.3994   -5.9483 C   0  0  0  0  0  0  0  0  0  0  0  0
    3.7450    3.3644   -5.3539 O   0  0  0  0  0  0  0  0  0  0  0  0
    4.8586    2.8118   -7.2744 C   0  0  0  0  0  0  0  0  0  0  0  0
    5.1938    2.1554   -8.3870 C   0  0  0  0  0  0  0  0  0  0  0  0
    5.9837    3.1285   -9.1820 C   0  0  0  0  0  0  0  0  0  0  0  0
    6.6241    2.8432  -10.1774 O   0  0  0  0  0  0  0  0  0  0  0  0
    5.9103    4.3347   -8.5304 N   0  0  0  0  0  0  0  0  0  0  0  0
    5.0993    4.1815   -7.4324 N   0  0  0  0  0  0  0  0  0  0  0  0
    4.1706   -0.1663   -3.2057 C   0  0  0  0  0  0  0  0  0  0  0  0
    3.7838   -0.2866   -1.8660 C   0  0  0  0  0  0  0  0  0  0  0  0
    0.9727    1.2539    1.5667 H   0  0  0  0  0  0  0  0  0  0  0  0
    0.4074    1.2158   -0.1067 H   0  0  0  0  0  0  0  0  0  0  0  0
    1.5987    2.4262    0.4053 H   0  0  0  0  0  0  0  0  0  0  0  0
    3.3221    0.5098    2.1461 H   0  0  0  0  0  0  0  0  0  0  0  0
    3.9845    1.6978    1.0136 H   0  0  0  0  0  0  0  0  0  0  0  0
    4.4579   -0.0015    0.8996 H   0  0  0  0  0  0  0  0  0  0  0  0
    1.6351   -1.1651    1.4521 H   0  0  0  0  0  0  0  0  0  0  0  0
    2.6746   -1.7846    0.1771 H   0  0  0  0  0  0  0  0  0  0  0  0
    1.0366   -1.2499   -0.2133 H   0  0  0  0  0  0  0  0  0  0  0  0
    1.5670    2.2522   -1.8361 H   0  0  0  0  0  0  0  0  0  0  0  0
    2.3101    2.4968   -4.0551 H   0  0  0  0  0  0  0  0  0  0  0  0
    5.5830    0.4296   -6.9084 H   0  0  0  0  0  0  0  0  0  0  0  0
    7.5120   -0.6602   -7.1444 H   0  0  0  0  0  0  0  0  0  0  0  0
    8.5300   -2.2854   -5.3311 H   0  0  0  0  0  0  0  0  0  0  0  0
    9.0721   -0.7574   -4.6356 H   0  0  0  0  0  0  0  0  0  0  0  0
   10.2712   -0.2036   -6.7800 H   0  0  0  0  0  0  0  0  0  0  0  0
    9.7437   -1.7241   -7.4726 H   0  0  0  0  0  0  0  0  0  0  0  0
   11.9972   -0.1380   -4.9975 H   0  0  0  0  0  0  0  0  0  0  0  0
   13.8920   -1.2928   -3.9136 H   0  0  0  0  0  0  0  0  0  0  0  0
   14.1604   -3.7583   -4.1728 H   0  0  0  0  0  0  0  0  0  0  0  0
   10.6726   -3.9109   -6.6437 H   0  0  0  0  0  0  0  0  0  0  0  0
    2.7895   -1.2572   -5.0239 H   0  0  0  0  0  0  0  0  0  0  0  0
    1.9592   -3.4567   -5.6415 H   0  0  0  0  0  0  0  0  0  0  0  0
    3.0435   -4.6824   -7.5288 H   0  0  0  0  0  0  0  0  0  0  0  0
    5.7286   -1.6517   -8.1667 H   0  0  0  0  0  0  0  0  0  0  0  0
    5.0907    1.1344   -8.6947 H   0  0  0  0  0  0  0  0  0  0  0  0
    6.3150    5.2165   -8.8224 H   0  0  0  0  0  0  0  0  0  0  0  0
    5.2634    4.6975   -6.5708 H   0  0  0  0  0  0  0  0  0  0  0  0
    4.7637   -0.9962   -3.5476 H   0  0  0  0  0  0  0  0  0  0  0  0
    4.2285   -1.0931   -1.2878 H   0  0  0  0  0  0  0  0  0  0  0  0
  1  2  1  0  0  0  0
  1 39  1  0  0  0  0
  1 40  1  0  0  0  0
  1 41  1  0  0  0  0
  2  3  1  0  0  0  0
  2  4  1  0  0  0  0
  2  5  1  0  0  0  0
  3 42  1  0  0  0  0
  3 43  1  0  0  0  0
  3 44  1  0  0  0  0
  4 45  1  0  0  0  0
  4 46  1  0  0  0  0
  4 47  1  0  0  0  0
  5  6  1  0  0  0  0
  5 38  2  0  0  0  0
  6  7  2  0  0  0  0
  6 48  1  0  0  0  0
  7  8  1  0  0  0  0
  7 49  1  0  0  0  0
  8  9  1  0  0  0  0
  8 37  2  0  0  0  0
  9 10  1  0  0  0  0
  9 29  1  0  0  0  0
 10 11  1  0  0  0  0
 10 23  1  0  0  0  0
 10 50  1  0  0  0  0
 11 12  2  0  0  0  0
 11 13  1  0  0  0  0
 13 14  1  0  0  0  0
 13 51  1  0  0  0  0
 14 15  1  0  0  0  0
 14 52  1  0  0  0  0
 14 53  1  0  0  0  0
 15 16  1  0  0  0  0
 15 54  1  0  0  0  0
 15 55  1  0  0  0  0
 16 17  1  0  0  0  0
 16 22  2  0  0  0  0
 17 18  2  0  0  0  0
 17 56  1  0  0  0  0
 18 19  1  0  0  0  0
 18 57  1  0  0  0  0
 19 20  2  0  0  0  0
 19 58  1  0  0  0  0
 20 21  1  0  0  0  0
 20 22  1  0  0  0  0
 22 59  1  0  0  0  0
 23 24  1  0  0  0  0
 23 28  2  0  0  0  0
 24 25  2  0  0  0  0
 24 60  1  0  0  0  0
 25 26  1  0  0  0  0
 25 61  1  0  0  0  0
 26 27  2  0  0  0  0
 26 62  1  0  0  0  0
 27 28  1  0  0  0  0
 28 63  1  0  0  0  0
 29 30  2  0  0  0  0
 29 31  1  0  0  0  0
 31 32  2  0  0  0  0
 31 36  1  0  0  0  0
 32 33  1  0  0  0  0
 32 64  1  0  0  0  0
 33 34  2  0  0  0  0
 33 35  1  0  0  0  0
 35 36  1  0  0  0  0
 35 65  1  0  0  0  0
 36 66  1  0  0  0  0
 37 38  1  0  0  0  0
 37 67  1  0  0  0  0
 38 68  1  0  0  0  0
M  END
$$$$
