
 OpenBabel07202414183D

 34 36  0  0  0  0  0  0  0  0999 V2000
   -2.2802    1.0015    4.3884 F   0  0  0  0  0  0  0  0  0  0  0  0
   -2.1633    2.1176    3.6584 C   0  0  0  0  0  0  0  0  0  0  0  0
   -2.7621    3.2878    4.1054 C   0  0  0  0  0  0  0  0  0  0  0  0
   -2.6604    4.4263    3.3216 C   0  0  0  0  0  0  0  0  0  0  0  0
   -3.2403    5.5635    3.7296 F   0  0  0  0  0  0  0  0  0  0  0  0
   -1.9740    4.3938    2.1081 C   0  0  0  0  0  0  0  0  0  0  0  0
   -1.9421    5.4964    1.3465 F   0  0  0  0  0  0  0  0  0  0  0  0
   -1.3433    3.2284    1.6601 C   0  0  0  0  0  0  0  0  0  0  0  0
   -0.6242    3.1945    0.3328 C   0  0  0  0  0  0  0  0  0  0  0  0
    0.6461    4.0292    0.2659 C   0  0  0  0  0  0  0  0  0  0  0  0
    1.7542    3.5165    0.4000 O   0  0  0  0  0  0  0  0  0  0  0  0
    0.4219    5.3793    0.0568 N   0  0  0  0  0  0  0  0  0  0  0  0
    1.4642    6.3271   -0.0836 C   0  0  0  0  0  0  0  0  0  0  0  0
    2.5694    6.0600   -0.8926 C   0  0  0  0  0  0  0  0  0  0  0  0
    3.5696    6.9372   -1.1331 N   0  0  0  0  0  0  0  0  0  0  0  0
    3.4808    8.1286   -0.5029 C   0  0  0  0  0  0  0  0  0  0  0  0
    2.4440    8.5048    0.3525 C   0  0  0  0  0  0  0  0  0  0  0  0
    2.4474    9.7484    1.0120 C   0  0  0  0  0  0  0  0  0  0  0  0
    1.4272   10.0892    1.8979 C   0  0  0  0  0  0  0  0  0  0  0  0
    0.3852    9.2028    2.1239 C   0  0  0  0  0  0  0  0  0  0  0  0
    0.3651    7.9702    1.4626 C   0  0  0  0  0  0  0  0  0  0  0  0
    1.3896    7.5872    0.5637 C   0  0  0  0  0  0  0  0  0  0  0  0
   -1.4528    2.0775    2.4552 C   0  0  0  0  0  0  0  0  0  0  0  0
   -3.3082    3.3078    5.0411 H   0  0  0  0  0  0  0  0  0  0  0  0
   -1.3081    3.5123   -0.4632 H   0  0  0  0  0  0  0  0  0  0  0  0
   -0.3398    2.1632    0.0868 H   0  0  0  0  0  0  0  0  0  0  0  0
   -0.4857    5.7332    0.3369 H   0  0  0  0  0  0  0  0  0  0  0  0
    2.6673    5.1178   -1.4251 H   0  0  0  0  0  0  0  0  0  0  0  0
    4.3129    8.7999   -0.7034 H   0  0  0  0  0  0  0  0  0  0  0  0
    3.2639   10.4511    0.8568 H   0  0  0  0  0  0  0  0  0  0  0  0
    1.4522   11.0419    2.4213 H   0  0  0  0  0  0  0  0  0  0  0  0
   -0.4049    9.4488    2.8269 H   0  0  0  0  0  0  0  0  0  0  0  0
   -0.4548    7.3000    1.6996 H   0  0  0  0  0  0  0  0  0  0  0  0
   -1.0053    1.1353    2.1477 H   0  0  0  0  0  0  0  0  0  0  0  0
  1  2  1  0  0  0  0
  2  3  1  0  0  0  0
  2 23  2  0  0  0  0
  3  4  2  0  0  0  0
  3 24  1  0  0  0  0
  4  5  1  0  0  0  0
  4  6  1  0  0  0  0
  6  7  1  0  0  0  0
  6  8  2  0  0  0  0
  8  9  1  0  0  0  0
  8 23  1  0  0  0  0
  9 10  1  0  0  0  0
  9 25  1  0  0  0  0
  9 26  1  0  0  0  0
 10 11  2  0  0  0  0
 10 12  1  0  0  0  0
 12 13  1  0  0  0  0
 12 27  1  0  0  0  0
 13 14  1  0  0  0  0
 13 22  2  0  0  0  0
 14 15  2  0  0  0  0
 14 28  1  0  0  0  0
 15 16  1  0  0  0  0
 16 17  2  0  0  0  0
 16 29  1  0  0  0  0
 17 18  1  0  0  0  0
 17 22  1  0  0  0  0
 18 19  2  0  0  0  0
 18 30  1  0  0  0  0
 19 20  1  0  0  0  0
 19 31  1  0  0  0  0
 20 21  2  0  0  0  0
 20 32  1  0  0  0  0
 21 22  1  0  0  0  0
 21 33  1  0  0  0  0
 23 34  1  0  0  0  0
M  END
$$$$
