
 OpenBabel07202414193D

 42 45  0  0  1  0  0  0  0  0999 V2000
    1.9207    0.4904   -0.3211 N   0  0  0  0  0  0  0  0  0  0  0  0
    3.2904    0.5782    0.1703 C   0  0  3  0  0  0  0  0  0  0  0  0
    3.4268    1.4335    1.4397 C   0  0  0  0  0  0  0  0  0  0  0  0
    4.1156    0.5943    2.5412 C   0  0  0  0  0  0  0  0  0  0  0  0
    4.3364   -0.7492    1.9135 C   0  0  0  0  0  0  0  0  0  0  0  0
    3.8305   -0.7434    0.6036 C   0  0  0  0  0  0  0  0  0  0  0  0
    3.9204   -1.8722   -0.1710 C   0  0  0  0  0  0  0  0  0  0  0  0
    4.4797   -3.0075    0.2769 N   0  0  0  0  0  0  0  0  0  0  0  0
    4.9778   -2.9871    1.5442 C   0  0  0  0  0  0  0  0  0  0  0  0
    4.9517   -1.8949    2.4274 C   0  0  0  0  0  0  0  0  0  0  0  0
    5.5079   -1.9402    3.7478 N   0  0  0  0  0  0  0  0  0  0  0  0
    6.3365   -2.9588    4.2210 C   0  0  0  0  0  0  0  0  0  0  0  0
    6.6984   -3.9271    3.5512 O   0  0  0  0  0  0  0  0  0  0  0  0
    6.8268   -2.8830    5.6778 C   0  0  3  0  0  0  0  0  0  0  0  0
    5.7290   -3.3319    6.6544 C   0  0  0  0  0  0  0  0  0  0  0  0
    5.6557   -2.5169    7.9402 C   0  0  0  0  0  0  0  0  0  0  0  0
    6.9166   -2.0205    8.3777 O   0  0  0  0  0  0  0  0  0  0  0  0
    7.4767   -1.2141    7.4257 C   0  0  0  0  0  0  0  0  0  0  0  0
    8.0843   -0.0390    7.8589 C   0  0  0  0  0  0  0  0  0  0  0  0
    8.7258    0.7831    6.9348 C   0  0  0  0  0  0  0  0  0  0  0  0
    8.8193    0.3789    5.6039 C   0  0  0  0  0  0  0  0  0  0  0  0
    9.6589    1.3621    4.4700 Cl  0  0  0  0  0  0  0  0  0  0  0  0
    8.2322   -0.8138    5.1787 C   0  0  0  0  0  0  0  0  0  0  0  0
    7.4916   -1.5913    6.0789 C   0  0  0  0  0  0  0  0  0  0  0  0
    1.5796    1.4182   -0.5665 H   0  0  0  0  0  0  0  0  0  0  0  0
    1.3073    0.1442    0.4153 H   0  0  0  0  0  0  0  0  0  0  0  0
    3.9271    0.9847   -0.6251 H   0  0  0  0  0  0  0  0  0  0  0  0
    2.4567    1.8061    1.7938 H   0  0  0  0  0  0  0  0  0  0  0  0
    4.0168    2.3325    1.2166 H   0  0  0  0  0  0  0  0  0  0  0  0
    3.4588    0.5141    3.4132 H   0  0  0  0  0  0  0  0  0  0  0  0
    5.0626    1.0563    2.8350 H   0  0  0  0  0  0  0  0  0  0  0  0
    3.5459   -1.9018   -1.1883 H   0  0  0  0  0  0  0  0  0  0  0  0
    5.4045   -3.9452    1.8186 H   0  0  0  0  0  0  0  0  0  0  0  0
    5.3882   -1.1148    4.3214 H   0  0  0  0  0  0  0  0  0  0  0  0
    7.6286   -3.6359    5.7466 H   0  0  0  0  0  0  0  0  0  0  0  0
    5.9323   -4.3786    6.9224 H   0  0  0  0  0  0  0  0  0  0  0  0
    4.7379   -3.3475    6.1865 H   0  0  0  0  0  0  0  0  0  0  0  0
    5.2547   -3.1412    8.7476 H   0  0  0  0  0  0  0  0  0  0  0  0
    4.9660   -1.6710    7.8309 H   0  0  0  0  0  0  0  0  0  0  0  0
    8.0451    0.2394    8.9088 H   0  0  0  0  0  0  0  0  0  0  0  0
    9.1630    1.7219    7.2597 H   0  0  0  0  0  0  0  0  0  0  0  0
    8.3663   -1.1349    4.1472 H   0  0  0  0  0  0  0  0  0  0  0  0
  1  2  1  0  0  0  0
  1 25  1  0  0  0  0
  1 26  1  0  0  0  0
  2  3  1  0  0  0  0
  2  6  1  0  0  0  0
  2 27  1  0  0  0  0
  3  4  1  0  0  0  0
  3 28  1  0  0  0  0
  3 29  1  0  0  0  0
  4  5  1  0  0  0  0
  4 30  1  0  0  0  0
  4 31  1  0  0  0  0
  5  6  1  0  0  0  0
  5 10  2  0  0  0  0
  6  7  2  0  0  0  0
  7  8  1  0  0  0  0
  7 32  1  0  0  0  0
  8  9  2  0  0  0  0
  9 10  1  0  0  0  0
  9 33  1  0  0  0  0
 10 11  1  0  0  0  0
 11 12  1  0  0  0  0
 11 34  1  0  0  0  0
 12 13  2  0  0  0  0
 12 14  1  0  0  0  0
 14 15  1  0  0  0  0
 14 24  1  0  0  0  0
 14 35  1  0  0  0  0
 15 16  1  0  0  0  0
 15 36  1  0  0  0  0
 15 37  1  0  0  0  0
 16 17  1  0  0  0  0
 16 38  1  0  0  0  0
 16 39  1  0  0  0  0
 17 18  1  0  0  0  0
 18 19  1  0  0  0  0
 18 24  2  0  0  0  0
 19 20  2  0  0  0  0
 19 40  1  0  0  0  0
 20 21  1  0  0  0  0
 20 41  1  0  0  0  0
 21 22  1  0  0  0  0
 21 23  2  0  0  0  0
 23 24  1  0  0  0  0
 23 42  1  0  0  0  0
M  END
$$$$
