
 OpenBabel07202414123D

 72 71  0  0  1  0  0  0  0  0999 V2000
    2.5556   -0.5274    1.3466 C   0  0  0  0  0  0  0  0  0  0  0  0
    2.2571    0.0462   -0.0381 C   0  0  0  0  0  0  0  0  0  0  0  0
    0.7450    0.3212   -0.1328 C   0  0  0  0  0  0  0  0  0  0  0  0
    3.0160    1.3487   -0.3513 C   0  0  0  0  0  0  0  0  0  0  0  0
    4.5657    1.3549   -0.3450 C   0  0  1  0  0  0  0  0  0  0  0  0
    5.1406    0.3324   -1.2412 N   0  0  0  0  0  0  0  0  0  0  0  0
    5.8892   -0.7432   -0.7675 C   0  0  0  0  0  0  0  0  0  0  0  0
    6.1768   -0.8565    0.4208 O   0  0  0  0  0  0  0  0  0  0  0  0
    6.5109   -1.6606   -1.8710 C   0  0  1  0  0  0  0  0  0  0  0  0
    7.7931   -1.0275   -2.2034 N   0  0  0  0  0  0  0  0  0  0  0  0
    7.8997   -0.0414   -3.1321 C   0  0  0  0  0  0  0  0  0  0  0  0
    6.9381    0.4044   -3.7570 O   0  0  0  0  0  0  0  0  0  0  0  0
    9.2849    0.5513   -3.2591 C   0  0  0  0  0  0  0  0  0  0  0  0
   10.3326   -0.5098   -3.5913 C   0  0  0  0  0  0  0  0  0  0  0  0
   11.7301    0.0853   -3.7019 C   0  0  0  0  0  0  0  0  0  0  0  0
   12.1354    0.7284   -2.3856 C   0  0  0  0  0  0  0  0  0  0  0  0
   12.4831    1.2801   -1.2565 C   0  0  0  0  0  0  0  0  0  0  0  0
    6.7188   -3.1742   -1.4983 C   0  0  0  0  0  0  0  0  0  0  0  0
    5.3577   -3.8204   -1.1816 C   0  0  0  0  0  0  0  0  0  0  0  0
    7.3208   -3.9456   -2.7061 C   0  0  0  0  0  0  0  0  0  0  0  0
    7.6749   -3.4015   -0.3087 C   0  0  0  0  0  0  0  0  0  0  0  0
    4.9856    2.8438   -0.6544 C   0  0  0  0  0  0  0  0  0  0  0  0
    4.4323    3.7848   -0.0782 O   0  0  0  0  0  0  0  0  0  0  0  0
    5.9910    3.0274   -1.6025 N   0  0  0  0  0  0  0  0  0  0  0  0
    6.5966    4.3310   -1.7527 N   0  0  0  0  0  0  0  0  0  0  0  0
    6.7350    4.8569   -3.1156 C   0  0  0  0  0  0  0  0  0  0  0  0
    6.7807    3.8812   -4.2780 C   0  0  0  0  0  0  0  0  0  0  0  0
    5.4142    3.4689   -4.7549 C   0  0  0  0  0  0  0  0  0  0  0  0
    5.3205    2.1612   -5.1194 N   0  0  0  0  0  0  0  0  0  0  0  0
    4.4784    4.2440   -4.8979 O   0  0  0  0  0  0  0  0  0  0  0  0
    7.0338    5.0165   -0.6067 C   0  0  0  0  0  0  0  0  0  0  0  0
    7.1435    4.4756    0.4974 O   0  0  0  0  0  0  0  0  0  0  0  0
    7.4421    6.4755   -0.7907 C   0  0  0  0  0  0  0  0  0  0  0  0
    9.2088    6.5479   -0.9941 Cl  0  0  0  0  0  0  0  0  0  0  0  0
    2.0066   -1.4655    1.4933 H   0  0  0  0  0  0  0  0  0  0  0  0
    2.2427    0.1615    2.1398 H   0  0  0  0  0  0  0  0  0  0  0  0
    3.6175   -0.7419    1.4810 H   0  0  0  0  0  0  0  0  0  0  0  0
    2.5158   -0.7032   -0.7957 H   0  0  0  0  0  0  0  0  0  0  0  0
    0.3801    0.8518    0.7554 H   0  0  0  0  0  0  0  0  0  0  0  0
    0.1842   -0.6154   -0.2138 H   0  0  0  0  0  0  0  0  0  0  0  0
    0.4995    0.9350   -1.0061 H   0  0  0  0  0  0  0  0  0  0  0  0
    2.6639    2.1111    0.3570 H   0  0  0  0  0  0  0  0  0  0  0  0
    2.6928    1.6939   -1.3435 H   0  0  0  0  0  0  0  0  0  0  0  0
    4.9156    1.1552    0.6750 H   0  0  0  0  0  0  0  0  0  0  0  0
    4.9698    0.4071   -2.2380 H   0  0  0  0  0  0  0  0  0  0  0  0
    5.8625   -1.6105   -2.7562 H   0  0  0  0  0  0  0  0  0  0  0  0
    8.5105   -1.0738   -1.4773 H   0  0  0  0  0  0  0  0  0  0  0  0
    9.5032    1.0608   -2.3119 H   0  0  0  0  0  0  0  0  0  0  0  0
    9.2623    1.3134   -4.0458 H   0  0  0  0  0  0  0  0  0  0  0  0
   10.0696   -0.9974   -4.5379 H   0  0  0  0  0  0  0  0  0  0  0  0
   10.3381   -1.3001   -2.8291 H   0  0  0  0  0  0  0  0  0  0  0  0
   11.7643    0.8405   -4.4950 H   0  0  0  0  0  0  0  0  0  0  0  0
   12.4532   -0.6977   -3.9545 H   0  0  0  0  0  0  0  0  0  0  0  0
   12.7689    1.7336   -0.3347 H   0  0  0  0  0  0  0  0  0  0  0  0
    4.6961   -3.7860   -2.0544 H   0  0  0  0  0  0  0  0  0  0  0  0
    4.8513   -3.3114   -0.3563 H   0  0  0  0  0  0  0  0  0  0  0  0
    5.4730   -4.8752   -0.9010 H   0  0  0  0  0  0  0  0  0  0  0  0
    6.6042   -4.0276   -3.5301 H   0  0  0  0  0  0  0  0  0  0  0  0
    7.6014   -4.9676   -2.4191 H   0  0  0  0  0  0  0  0  0  0  0  0
    8.2253   -3.4654   -3.0940 H   0  0  0  0  0  0  0  0  0  0  0  0
    7.3138   -2.9422    0.6134 H   0  0  0  0  0  0  0  0  0  0  0  0
    8.6794   -3.0171   -0.5147 H   0  0  0  0  0  0  0  0  0  0  0  0
    7.7845   -4.4723   -0.0976 H   0  0  0  0  0  0  0  0  0  0  0  0
    6.5693    2.2312   -1.8418 H   0  0  0  0  0  0  0  0  0  0  0  0
    7.7107    5.3566   -3.1344 H   0  0  0  0  0  0  0  0  0  0  0  0
    5.9856    5.6426   -3.2614 H   0  0  0  0  0  0  0  0  0  0  0  0
    7.4132    3.0217   -4.0481 H   0  0  0  0  0  0  0  0  0  0  0  0
    7.2419    4.3913   -5.1361 H   0  0  0  0  0  0  0  0  0  0  0  0
    6.0026    1.4650   -4.8193 H   0  0  0  0  0  0  0  0  0  0  0  0
    4.4205    1.8238   -5.4466 H   0  0  0  0  0  0  0  0  0  0  0  0
    7.1681    7.0545    0.0955 H   0  0  0  0  0  0  0  0  0  0  0  0
    6.9688    6.9541   -1.6518 H   0  0  0  0  0  0  0  0  0  0  0  0
  1  2  1  0  0  0  0
  1 35  1  0  0  0  0
  1 36  1  0  0  0  0
  1 37  1  0  0  0  0
  2  3  1  0  0  0  0
  2  4  1  0  0  0  0
  2 38  1  0  0  0  0
  3 39  1  0  0  0  0
  3 40  1  0  0  0  0
  3 41  1  0  0  0  0
  4  5  1  0  0  0  0
  4 42  1  0  0  0  0
  4 43  1  0  0  0  0
  5  6  1  0  0  0  0
  5 22  1  0  0  0  0
  5 44  1  1  0  0  0
  6  7  1  0  0  0  0
  6 45  1  0  0  0  0
  7  8  2  0  0  0  0
  7  9  1  0  0  0  0
  9 10  1  0  0  0  0
  9 18  1  0  0  0  0
  9 46  1  6  0  0  0
 10 11  1  0  0  0  0
 10 47  1  0  0  0  0
 11 12  2  0  0  0  0
 11 13  1  0  0  0  0
 13 14  1  0  0  0  0
 13 48  1  0  0  0  0
 13 49  1  0  0  0  0
 14 15  1  0  0  0  0
 14 50  1  0  0  0  0
 14 51  1  0  0  0  0
 15 16  1  0  0  0  0
 15 52  1  0  0  0  0
 15 53  1  0  0  0  0
 16 17  3  0  0  0  0
 17 54  1  0  0  0  0
 18 19  1  0  0  0  0
 18 20  1  0  0  0  0
 18 21  1  0  0  0  0
 19 55  1  0  0  0  0
 19 56  1  0  0  0  0
 19 57  1  0  0  0  0
 20 58  1  0  0  0  0
 20 59  1  0  0  0  0
 20 60  1  0  0  0  0
 21 61  1  0  0  0  0
 21 62  1  0  0  0  0
 21 63  1  0  0  0  0
 22 23  2  0  0  0  0
 22 24  1  0  0  0  0
 24 25  1  0  0  0  0
 24 64  1  0  0  0  0
 25 26  1  0  0  0  0
 25 31  1  0  0  0  0
 26 27  1  0  0  0  0
 26 65  1  0  0  0  0
 26 66  1  0  0  0  0
 27 28  1  0  0  0  0
 27 67  1  0  0  0  0
 27 68  1  0  0  0  0
 28 29  1  0  0  0  0
 28 30  2  0  0  0  0
 29 69  1  0  0  0  0
 29 70  1  0  0  0  0
 31 32  2  0  0  0  0
 31 33  1  0  0  0  0
 33 34  1  0  0  0  0
 33 71  1  0  0  0  0
 33 72  1  0  0  0  0
M  END
$$$$
