
 OpenBabel07202414133D

 53 55  0  0  1  0  0  0  0  0999 V2000
    2.9242   -3.0696    4.2875 C   0  0  0  0  0  0  0  0  0  0  0  0
    2.9238   -4.2193    3.2852 C   0  0  0  0  0  0  0  0  0  0  0  0
    1.7250   -4.1059    2.3681 C   0  0  0  0  0  0  0  0  0  0  0  0
    0.5351   -4.7593    2.7817 C   0  0  0  0  0  0  0  0  0  0  0  0
   -0.6583   -4.5931    2.0832 C   0  0  0  0  0  0  0  0  0  0  0  0
   -0.6997   -3.6818    1.0410 C   0  0  0  0  0  0  0  0  0  0  0  0
    0.4498   -2.9892    0.6556 C   0  0  0  0  0  0  0  0  0  0  0  0
    1.6959   -3.2998    1.2067 C   0  0  0  0  0  0  0  0  0  0  0  0
    2.9222   -2.7500    0.5247 C   0  0  0  0  0  0  0  0  0  0  0  0
    3.8030   -2.2618    1.2324 O   0  0  0  0  0  0  0  0  0  0  0  0
    3.0435   -2.8101   -0.8932 N   0  0  0  0  0  0  0  0  0  0  0  0
    1.9787   -3.2287   -1.8111 C   0  0  0  0  0  0  0  0  0  0  0  0
    2.4707   -3.8417   -3.1098 C   0  0  0  0  0  0  0  0  0  0  0  0
    3.4777   -2.9585   -3.8529 C   0  0  0  0  0  0  0  0  0  0  0  0
    4.6107   -2.6386   -2.8500 C   0  0  0  0  0  0  0  0  0  0  0  0
    4.1367   -2.0545   -1.5114 C   0  0  0  0  0  0  0  0  0  0  0  0
    2.8610   -1.6980   -4.5323 C   0  0  3  0  0  0  0  0  0  0  0  0
    1.7498   -1.9980   -5.5492 C   0  0  0  0  0  0  0  0  0  0  0  0
    2.4646   -2.0445   -6.8829 C   0  0  0  0  0  0  0  0  0  0  0  0
    3.4394   -0.9601   -6.7870 N   0  0  0  0  0  0  0  0  0  0  0  0
    3.8977   -0.9427   -5.3902 C   0  0  0  0  0  0  0  0  0  0  0  0
   -2.1666   -3.4417    0.0832 S   0  0  0  0  0  0  0  0  0  0  0  0
   -1.7488   -3.1841   -1.2830 O   0  0  0  0  0  0  0  0  0  0  0  0
   -3.0782   -4.5284    0.3925 O   0  0  0  0  0  0  0  0  0  0  0  0
   -2.8340   -1.9448    0.7580 C   0  0  0  0  0  0  0  0  0  0  0  0
    3.7926   -3.1334    4.9497 H   0  0  0  0  0  0  0  0  0  0  0  0
    2.0236   -3.0898    4.9139 H   0  0  0  0  0  0  0  0  0  0  0  0
    2.9482   -2.0963    3.7858 H   0  0  0  0  0  0  0  0  0  0  0  0
    2.8761   -5.1668    3.8396 H   0  0  0  0  0  0  0  0  0  0  0  0
    3.8585   -4.2580    2.7199 H   0  0  0  0  0  0  0  0  0  0  0  0
    0.5495   -5.4121    3.6545 H   0  0  0  0  0  0  0  0  0  0  0  0
   -1.5440   -5.1555    2.3823 H   0  0  0  0  0  0  0  0  0  0  0  0
    0.3750   -2.2415   -0.1277 H   0  0  0  0  0  0  0  0  0  0  0  0
    1.3781   -2.3377   -2.0274 H   0  0  0  0  0  0  0  0  0  0  0  0
    1.3485   -3.9808   -1.3375 H   0  0  0  0  0  0  0  0  0  0  0  0
    1.6060   -4.0900   -3.7316 H   0  0  0  0  0  0  0  0  0  0  0  0
    2.9527   -4.7993   -2.8757 H   0  0  0  0  0  0  0  0  0  0  0  0
    3.9092   -3.5735   -4.6545 H   0  0  0  0  0  0  0  0  0  0  0  0
    5.3556   -1.9693   -3.2913 H   0  0  0  0  0  0  0  0  0  0  0  0
    5.1395   -3.5780   -2.6391 H   0  0  0  0  0  0  0  0  0  0  0  0
    3.7803   -1.0278   -1.6517 H   0  0  0  0  0  0  0  0  0  0  0  0
    4.9929   -2.0050   -0.8283 H   0  0  0  0  0  0  0  0  0  0  0  0
    2.4566   -1.0311   -3.7617 H   0  0  0  0  0  0  0  0  0  0  0  0
    1.0294   -1.1685   -5.5535 H   0  0  0  0  0  0  0  0  0  0  0  0
    1.1829   -2.9119   -5.3684 H   0  0  0  0  0  0  0  0  0  0  0  0
    1.7810   -1.8948   -7.7247 H   0  0  0  0  0  0  0  0  0  0  0  0
    2.9764   -3.0027   -7.0268 H   0  0  0  0  0  0  0  0  0  0  0  0
    2.9692   -0.0776   -6.9896 H   0  0  0  0  0  0  0  0  0  0  0  0
    3.9980    0.0935   -5.0499 H   0  0  0  0  0  0  0  0  0  0  0  0
    4.8907   -1.3985   -5.3499 H   0  0  0  0  0  0  0  0  0  0  0  0
   -2.1189   -1.1379    0.5930 H   0  0  0  0  0  0  0  0  0  0  0  0
   -3.0170   -2.0906    1.8235 H   0  0  0  0  0  0  0  0  0  0  0  0
   -3.7694   -1.7272    0.2397 H   0  0  0  0  0  0  0  0  0  0  0  0
  1  2  1  0  0  0  0
  1 26  1  0  0  0  0
  1 27  1  0  0  0  0
  1 28  1  0  0  0  0
  2  3  1  0  0  0  0
  2 29  1  0  0  0  0
  2 30  1  0  0  0  0
  3  4  1  0  0  0  0
  3  8  2  0  0  0  0
  4  5  2  0  0  0  0
  4 31  1  0  0  0  0
  5  6  1  0  0  0  0
  5 32  1  0  0  0  0
  6  7  2  0  0  0  0
  6 22  1  0  0  0  0
  7  8  1  0  0  0  0
  7 33  1  0  0  0  0
  8  9  1  0  0  0  0
  9 10  2  0  0  0  0
  9 11  1  0  0  0  0
 11 12  1  0  0  0  0
 11 16  1  0  0  0  0
 12 13  1  0  0  0  0
 12 34  1  0  0  0  0
 12 35  1  0  0  0  0
 13 14  1  0  0  0  0
 13 36  1  0  0  0  0
 13 37  1  0  0  0  0
 14 15  1  0  0  0  0
 14 17  1  0  0  0  0
 14 38  1  0  0  0  0
 15 16  1  0  0  0  0
 15 39  1  0  0  0  0
 15 40  1  0  0  0  0
 16 41  1  0  0  0  0
 16 42  1  0  0  0  0
 17 18  1  0  0  0  0
 17 21  1  0  0  0  0
 17 43  1  0  0  0  0
 18 19  1  0  0  0  0
 18 44  1  0  0  0  0
 18 45  1  0  0  0  0
 19 20  1  0  0  0  0
 19 46  1  0  0  0  0
 19 47  1  0  0  0  0
 20 21  1  0  0  0  0
 20 48  1  0  0  0  0
 21 49  1  0  0  0  0
 21 50  1  0  0  0  0
 22 23  2  0  0  0  0
 22 24  2  0  0  0  0
 22 25  1  0  0  0  0
 25 51  1  0  0  0  0
 25 52  1  0  0  0  0
 25 53  1  0  0  0  0
M  END
$$$$
