
 OpenBabel07202414133D

 42 43  0  0  0  0  0  0  0  0999 V2000
    9.2614    1.2831    0.2504 C   0  0  0  0  0  0  0  0  0  0  0  0
    8.1783    0.8648   -0.7296 C   0  0  0  0  0  0  0  0  0  0  0  0
    7.3183   -0.1426   -0.1207 N   0  0  0  0  0  0  0  0  0  0  0  0
    6.2752   -0.5958   -0.9300 C   0  0  0  0  0  0  0  0  0  0  0  0
    5.1438   -1.2271   -0.3793 C   0  0  0  0  0  0  0  0  0  0  0  0
    4.1647   -1.6970   -1.2835 C   0  0  0  0  0  0  0  0  0  0  0  0
    4.3438   -1.5793   -2.6640 C   0  0  0  0  0  0  0  0  0  0  0  0
    5.4987   -0.9753   -3.1050 C   0  0  0  0  0  0  0  0  0  0  0  0
    6.4448   -0.4882   -2.2757 N   0  0  0  0  0  0  0  0  0  0  0  0
    3.3651   -2.0436   -3.5919 C   0  0  0  0  0  0  0  0  0  0  0  0
    2.5688   -2.4188   -4.3481 N   0  0  0  0  0  0  0  0  0  0  0  0
    4.8064   -1.2929    1.1092 C   0  0  0  0  0  0  0  0  0  0  0  0
    5.9311   -1.3677    2.0550 N   0  0  0  0  0  0  0  0  0  0  0  0
    6.6421   -2.6610    2.0240 C   0  0  0  0  0  0  0  0  0  0  0  0
    5.8833   -3.8524    2.6476 C   0  0  0  0  0  0  0  0  0  0  0  0
    5.2760   -3.5710    3.9509 N   0  0  0  0  0  0  0  0  0  0  0  0
    4.7443   -2.2209    4.1601 C   0  0  0  0  0  0  0  0  0  0  0  0
    5.5240   -1.1002    3.4497 C   0  0  0  0  0  0  0  0  0  0  0  0
    4.7387   -4.5733    4.7789 C   0  0  0  0  0  0  0  0  0  0  0  0
    4.1282   -4.2795    5.8084 O   0  0  0  0  0  0  0  0  0  0  0  0
    4.9194   -6.0113    4.3082 C   0  0  0  0  0  0  0  0  0  0  0  0
    4.1632   -7.1734    5.4187 Cl  0  0  0  0  0  0  0  0  0  0  0  0
    9.9195    2.0282   -0.2094 H   0  0  0  0  0  0  0  0  0  0  0  0
    9.8721    0.4253    0.5492 H   0  0  0  0  0  0  0  0  0  0  0  0
    8.8276    1.7219    1.1543 H   0  0  0  0  0  0  0  0  0  0  0  0
    8.6668    0.4719   -1.6296 H   0  0  0  0  0  0  0  0  0  0  0  0
    7.5919    1.7476   -1.0114 H   0  0  0  0  0  0  0  0  0  0  0  0
    6.9718    0.1022    0.8067 H   0  0  0  0  0  0  0  0  0  0  0  0
    3.2448   -2.1413   -0.9048 H   0  0  0  0  0  0  0  0  0  0  0  0
    5.7154   -0.8491   -4.1629 H   0  0  0  0  0  0  0  0  0  0  0  0
    4.1085   -2.1215    1.2851 H   0  0  0  0  0  0  0  0  0  0  0  0
    4.2455   -0.3693    1.3069 H   0  0  0  0  0  0  0  0  0  0  0  0
    7.5799   -2.5273    2.5789 H   0  0  0  0  0  0  0  0  0  0  0  0
    6.9463   -2.9186    1.0012 H   0  0  0  0  0  0  0  0  0  0  0  0
    6.5873   -4.6825    2.7674 H   0  0  0  0  0  0  0  0  0  0  0  0
    5.0842   -4.1904    1.9790 H   0  0  0  0  0  0  0  0  0  0  0  0
    4.7204   -2.0082    5.2368 H   0  0  0  0  0  0  0  0  0  0  0  0
    3.7037   -2.2314    3.8127 H   0  0  0  0  0  0  0  0  0  0  0  0
    6.4399   -0.9053    4.0247 H   0  0  0  0  0  0  0  0  0  0  0  0
    4.9495   -0.1672    3.5060 H   0  0  0  0  0  0  0  0  0  0  0  0
    5.9777   -6.2644    4.2371 H   0  0  0  0  0  0  0  0  0  0  0  0
    4.4297   -6.1358    3.3367 H   0  0  0  0  0  0  0  0  0  0  0  0
  1  2  1  0  0  0  0
  1 23  1  0  0  0  0
  1 24  1  0  0  0  0
  1 25  1  0  0  0  0
  2  3  1  0  0  0  0
  2 26  1  0  0  0  0
  2 27  1  0  0  0  0
  3  4  1  0  0  0  0
  3 28  1  0  0  0  0
  4  5  1  0  0  0  0
  4  9  2  0  0  0  0
  5  6  2  0  0  0  0
  5 12  1  0  0  0  0
  6  7  1  0  0  0  0
  6 29  1  0  0  0  0
  7  8  2  0  0  0  0
  7 10  1  0  0  0  0
  8  9  1  0  0  0  0
  8 30  1  0  0  0  0
 10 11  3  0  0  0  0
 12 13  1  0  0  0  0
 12 31  1  0  0  0  0
 12 32  1  0  0  0  0
 13 14  1  0  0  0  0
 13 18  1  0  0  0  0
 14 15  1  0  0  0  0
 14 33  1  0  0  0  0
 14 34  1  0  0  0  0
 15 16  1  0  0  0  0
 15 35  1  0  0  0  0
 15 36  1  0  0  0  0
 16 17  1  0  0  0  0
 16 19  1  0  0  0  0
 17 18  1  0  0  0  0
 17 37  1  0  0  0  0
 17 38  1  0  0  0  0
 18 39  1  0  0  0  0
 18 40  1  0  0  0  0
 19 20  2  0  0  0  0
 19 21  1  0  0  0  0
 21 22  1  0  0  0  0
 21 41  1  0  0  0  0
 21 42  1  0  0  0  0
M  END
$$$$
