
 OpenBabel07202414173D

 61 66  0  0  1  0  0  0  0  0999 V2000
    0.8136    0.4305    0.0072 Cl  0  0  0  0  0  0  0  0  0  0  0  0
    2.5286    0.2956    0.0035 C   0  0  0  0  0  0  0  0  0  0  0  0
    3.3151    1.4398   -0.0084 C   0  0  0  0  0  0  0  0  0  0  0  0
    4.7022    1.3190   -0.0256 C   0  0  0  0  0  0  0  0  0  0  0  0
    5.3141    0.0537   -0.0196 C   0  0  0  0  0  0  0  0  0  0  0  0
    4.5206   -1.1196    0.0077 C   0  0  0  0  0  0  0  0  0  0  0  0
    3.1200   -0.9693    0.0082 C   0  0  0  0  0  0  0  0  0  0  0  0
    5.1677   -2.5186    0.0566 C   0  0  3  0  0  0  0  0  0  0  0  0
    6.6867   -2.4340   -0.1806 C   0  0  0  0  0  0  0  0  0  0  0  0
    7.3900   -1.2708    0.4360 N   0  0  0  0  0  0  0  0  0  0  0  0
    7.6985   -1.2237    2.1165 S   0  0  0  0  0  0  0  0  0  0  0  0
    8.6783   -0.1735    2.3046 O   0  0  0  0  0  0  0  0  0  0  0  0
    6.4115   -1.1062    2.7613 O   0  0  0  0  0  0  0  0  0  0  0  0
    8.5287   -2.7937    2.3882 C   0  0  0  0  0  0  0  0  0  0  0  0
    8.6444   -3.2284    3.8469 C   0  0  0  0  0  0  0  0  0  0  0  0
    9.5758   -4.4287    4.0303 C   0  0  0  0  0  0  0  0  0  0  0  0
    8.9983   -5.5481    3.2782 C   0  0  0  0  0  0  0  0  0  0  0  0
    8.5770   -6.4290    2.6475 N   0  0  0  0  0  0  0  0  0  0  0  0
    7.4564   -3.1363    4.7914 C   0  0  0  0  0  0  0  0  0  0  0  0
    8.6336   -2.2232    4.9866 C   0  0  0  0  0  0  0  0  0  0  0  0
    6.8250    0.0024   -0.0696 C   0  0  0  0  0  0  0  0  0  0  0  0
    4.5678   -3.4526   -1.0373 C   0  0  0  0  0  0  0  0  0  0  0  0
    3.6217   -4.4055   -0.3209 C   0  0  0  0  0  0  0  0  0  0  0  0
    3.5549   -3.9451    1.0374 N   0  0  0  0  0  0  0  0  0  0  0  0
    2.6302   -4.4821    1.9778 C   0  0  0  0  0  0  0  0  0  0  0  0
    2.1022   -5.7553    1.7438 C   0  0  0  0  0  0  0  0  0  0  0  0
    1.0495   -6.3017    2.3845 N   0  0  0  0  0  0  0  0  0  0  0  0
    0.5207   -5.5628    3.3768 C   0  0  0  0  0  0  0  0  0  0  0  0
    1.0231   -4.3352    3.8076 C   0  0  0  0  0  0  0  0  0  0  0  0
    0.4556   -3.7071    4.9344 C   0  0  0  0  0  0  0  0  0  0  0  0
    0.9008   -2.4657    5.3567 C   0  0  0  0  0  0  0  0  0  0  0  0
    1.8787   -1.8123    4.6142 C   0  0  0  0  0  0  0  0  0  0  0  0
    2.4538   -2.4291    3.4926 C   0  0  0  0  0  0  0  0  0  0  0  0
    2.0842   -3.7391    3.0768 C   0  0  0  0  0  0  0  0  0  0  0  0
    4.7595   -3.3014    1.3286 C   0  0  0  0  0  0  0  0  0  0  0  0
    5.4173   -3.4751    2.3403 O   0  0  0  0  0  0  0  0  0  0  0  0
    2.8549    2.4245    0.0044 H   0  0  0  0  0  0  0  0  0  0  0  0
    5.3069    2.2223   -0.0264 H   0  0  0  0  0  0  0  0  0  0  0  0
    2.4610   -1.8311    0.0229 H   0  0  0  0  0  0  0  0  0  0  0  0
    6.8580   -2.3130   -1.2646 H   0  0  0  0  0  0  0  0  0  0  0  0
    7.1933   -3.3738    0.0476 H   0  0  0  0  0  0  0  0  0  0  0  0
    9.5284   -2.6690    1.9586 H   0  0  0  0  0  0  0  0  0  0  0  0
    8.0056   -3.5719    1.8366 H   0  0  0  0  0  0  0  0  0  0  0  0
    9.6818   -4.6945    5.0859 H   0  0  0  0  0  0  0  0  0  0  0  0
   10.5735   -4.1827    3.6510 H   0  0  0  0  0  0  0  0  0  0  0  0
    7.2896   -3.9390    5.5026 H   0  0  0  0  0  0  0  0  0  0  0  0
    6.5183   -2.7005    4.4682 H   0  0  0  0  0  0  0  0  0  0  0  0
    9.2580   -2.4007    5.8562 H   0  0  0  0  0  0  0  0  0  0  0  0
    8.5000   -1.1660    4.7858 H   0  0  0  0  0  0  0  0  0  0  0  0
    7.1470    0.1348   -1.1108 H   0  0  0  0  0  0  0  0  0  0  0  0
    7.2481    0.8503    0.4822 H   0  0  0  0  0  0  0  0  0  0  0  0
    5.3400   -4.0499   -1.5404 H   0  0  0  0  0  0  0  0  0  0  0  0
    4.0481   -2.9007   -1.8280 H   0  0  0  0  0  0  0  0  0  0  0  0
    4.0609   -5.4114   -0.3210 H   0  0  0  0  0  0  0  0  0  0  0  0
    2.6314   -4.4345   -0.7836 H   0  0  0  0  0  0  0  0  0  0  0  0
    2.5415   -6.4185    1.0056 H   0  0  0  0  0  0  0  0  0  0  0  0
   -0.3631   -6.0027    3.8336 H   0  0  0  0  0  0  0  0  0  0  0  0
   -0.3245   -4.2128    5.5087 H   0  0  0  0  0  0  0  0  0  0  0  0
    0.4906   -2.0140    6.2531 H   0  0  0  0  0  0  0  0  0  0  0  0
    2.2074   -0.8199    4.9153 H   0  0  0  0  0  0  0  0  0  0  0  0
    3.2147   -1.8691    2.9548 H   0  0  0  0  0  0  0  0  0  0  0  0
  1  2  1  0  0  0  0
  2  3  1  0  0  0  0
  2  7  2  0  0  0  0
  3  4  2  0  0  0  0
  3 37  1  0  0  0  0
  4  5  1  0  0  0  0
  4 38  1  0  0  0  0
  5  6  2  0  0  0  0
  5 21  1  0  0  0  0
  6  7  1  0  0  0  0
  6  8  1  0  0  0  0
  7 39  1  0  0  0  0
  8  9  1  0  0  0  0
  8 22  1  0  0  0  0
  8 35  1  0  0  0  0
  9 10  1  0  0  0  0
  9 40  1  0  0  0  0
  9 41  1  0  0  0  0
 10 11  1  0  0  0  0
 10 21  1  0  0  0  0
 11 12  2  0  0  0  0
 11 13  2  0  0  0  0
 11 14  1  0  0  0  0
 14 15  1  0  0  0  0
 14 42  1  0  0  0  0
 14 43  1  0  0  0  0
 15 16  1  0  0  0  0
 15 19  1  0  0  0  0
 15 20  1  0  0  0  0
 16 17  1  0  0  0  0
 16 44  1  0  0  0  0
 16 45  1  0  0  0  0
 17 18  3  0  0  0  0
 19 20  1  0  0  0  0
 19 46  1  0  0  0  0
 19 47  1  0  0  0  0
 20 48  1  0  0  0  0
 20 49  1  0  0  0  0
 21 50  1  0  0  0  0
 21 51  1  0  0  0  0
 22 23  1  0  0  0  0
 22 52  1  0  0  0  0
 22 53  1  0  0  0  0
 23 24  1  0  0  0  0
 23 54  1  0  0  0  0
 23 55  1  0  0  0  0
 24 25  1  0  0  0  0
 24 35  1  0  0  0  0
 25 26  1  0  0  0  0
 25 34  2  0  0  0  0
 26 27  2  0  0  0  0
 26 56  1  0  0  0  0
 27 28  1  0  0  0  0
 28 29  2  0  0  0  0
 28 57  1  0  0  0  0
 29 30  1  0  0  0  0
 29 34  1  0  0  0  0
 30 31  2  0  0  0  0
 30 58  1  0  0  0  0
 31 32  1  0  0  0  0
 31 59  1  0  0  0  0
 32 33  2  0  0  0  0
 32 60  1  0  0  0  0
 33 34  1  0  0  0  0
 33 61  1  0  0  0  0
 35 36  2  0  0  0  0
M  END
$$$$
