
 OpenBabel07202414193D

 37 39  0  0  1  0  0  0  0  0999 V2000
    2.4714   -1.2131   -0.1333 O   0  0  0  0  0  0  0  0  0  0  0  0
    2.1236   -0.0654   -0.4035 C   0  0  0  0  0  0  0  0  0  0  0  0
    0.6488    0.3005   -0.4068 C   0  0  0  0  0  0  0  0  0  0  0  0
    0.0525    0.6288    0.9358 C   0  0  0  0  0  0  0  0  0  0  0  0
   -1.0725    1.4607    1.0114 C   0  0  0  0  0  0  0  0  0  0  0  0
   -1.6771    1.7163    2.2389 C   0  0  0  0  0  0  0  0  0  0  0  0
   -1.1434    1.1213    3.3669 C   0  0  0  0  0  0  0  0  0  0  0  0
   -0.0732    0.3005    3.3391 N   0  0  0  0  0  0  0  0  0  0  0  0
    0.4918    0.0608    2.1306 C   0  0  0  0  0  0  0  0  0  0  0  0
    2.9734    0.9915   -0.7049 N   0  0  0  0  0  0  0  0  0  0  0  0
    4.3774    0.9004   -0.8716 C   0  0  0  0  0  0  0  0  0  0  0  0
    5.0348   -0.3151   -1.0756 C   0  0  0  0  0  0  0  0  0  0  0  0
    6.4271   -0.3688   -1.1638 C   0  0  0  0  0  0  0  0  0  0  0  0
    7.1816    0.7981   -1.0770 C   0  0  0  0  0  0  0  0  0  0  0  0
    6.5371    2.0270   -0.9507 C   0  0  0  0  0  0  0  0  0  0  0  0
    7.2056    3.2298   -0.8980 O   0  0  0  0  0  0  0  0  0  0  0  0
    8.4639    3.3222   -1.5985 C   0  0  3  0  0  0  0  0  0  0  0  0
    9.7592    3.0903   -0.7868 C   0  0  0  0  0  0  0  0  0  0  0  0
    9.9526    4.6009   -0.9329 C   0  0  0  0  0  0  0  0  0  0  0  0
   10.6399    5.4587   -0.4346 O   0  0  0  0  0  0  0  0  0  0  0  0
    8.9397    4.6924   -1.8312 N   0  0  0  0  0  0  0  0  0  0  0  0
    5.1393    2.0781   -0.8408 C   0  0  0  0  0  0  0  0  0  0  0  0
    0.1028   -0.5538   -0.8275 H   0  0  0  0  0  0  0  0  0  0  0  0
    0.4965    1.1376   -1.0991 H   0  0  0  0  0  0  0  0  0  0  0  0
   -1.4932    1.9035    0.1127 H   0  0  0  0  0  0  0  0  0  0  0  0
   -2.5517    2.3533    2.3108 H   0  0  0  0  0  0  0  0  0  0  0  0
   -1.5813    1.2822    4.3486 H   0  0  0  0  0  0  0  0  0  0  0  0
    1.3262   -0.6364    2.1646 H   0  0  0  0  0  0  0  0  0  0  0  0
    2.5834    1.9255   -0.6615 H   0  0  0  0  0  0  0  0  0  0  0  0
    4.4879   -1.2485   -1.1730 H   0  0  0  0  0  0  0  0  0  0  0  0
    6.9182   -1.3304   -1.2909 H   0  0  0  0  0  0  0  0  0  0  0  0
    8.2623    0.7148   -1.1066 H   0  0  0  0  0  0  0  0  0  0  0  0
    8.4417    2.7913   -2.5589 H   0  0  0  0  0  0  0  0  0  0  0  0
   10.5286    2.4921   -1.2833 H   0  0  0  0  0  0  0  0  0  0  0  0
    9.6312    2.7631    0.2479 H   0  0  0  0  0  0  0  0  0  0  0  0
    8.3918    5.5420   -1.8219 H   0  0  0  0  0  0  0  0  0  0  0  0
    4.6622    3.0457   -0.7116 H   0  0  0  0  0  0  0  0  0  0  0  0
  1  2  2  0  0  0  0
  2  3  1  0  0  0  0
  2 10  1  0  0  0  0
  3  4  1  0  0  0  0
  3 23  1  0  0  0  0
  3 24  1  0  0  0  0
  4  5  1  0  0  0  0
  4  9  2  0  0  0  0
  5  6  2  0  0  0  0
  5 25  1  0  0  0  0
  6  7  1  0  0  0  0
  6 26  1  0  0  0  0
  7  8  2  0  0  0  0
  7 27  1  0  0  0  0
  8  9  1  0  0  0  0
  9 28  1  0  0  0  0
 10 11  1  0  0  0  0
 10 29  1  0  0  0  0
 11 12  1  0  0  0  0
 11 22  2  0  0  0  0
 12 13  2  0  0  0  0
 12 30  1  0  0  0  0
 13 14  1  0  0  0  0
 13 31  1  0  0  0  0
 14 15  2  0  0  0  0
 14 32  1  0  0  0  0
 15 16  1  0  0  0  0
 15 22  1  0  0  0  0
 16 17  1  0  0  0  0
 17 18  1  0  0  0  0
 17 21  1  0  0  0  0
 17 33  1  0  0  0  0
 18 19  1  0  0  0  0
 18 34  1  0  0  0  0
 18 35  1  0  0  0  0
 19 20  2  0  0  0  0
 19 21  1  0  0  0  0
 21 36  1  0  0  0  0
 22 37  1  0  0  0  0
M  END
$$$$
