
 OpenBabel07202414173D

 39 42  0  0  0  0  0  0  0  0999 V2000
    3.4805    1.3334   -5.0094 Cl  0  0  0  0  0  0  0  0  0  0  0  0
    3.9639    1.6937   -3.3966 C   0  0  0  0  0  0  0  0  0  0  0  0
    3.0008    1.9996   -2.4346 C   0  0  0  0  0  0  0  0  0  0  0  0
    3.3896    2.3010   -1.1222 C   0  0  0  0  0  0  0  0  0  0  0  0
    2.3622    2.5791   -0.0481 C   0  0  0  0  0  0  0  0  0  0  0  0
    1.4244    3.7351   -0.3476 C   0  0  0  0  0  0  0  0  0  0  0  0
    0.2873    3.5431   -0.7702 O   0  0  0  0  0  0  0  0  0  0  0  0
    1.9845    4.9824   -0.1261 N   0  0  0  0  0  0  0  0  0  0  0  0
    1.2569    6.1866   -0.2991 C   0  0  0  0  0  0  0  0  0  0  0  0
   -0.0395    6.3202    0.2057 C   0  0  0  0  0  0  0  0  0  0  0  0
   -0.7781    7.4509    0.1280 N   0  0  0  0  0  0  0  0  0  0  0  0
   -0.2116    8.4916   -0.5199 C   0  0  0  0  0  0  0  0  0  0  0  0
    1.0636    8.4735   -1.0894 C   0  0  0  0  0  0  0  0  0  0  0  0
    1.5693    9.5807   -1.7958 C   0  0  0  0  0  0  0  0  0  0  0  0
    2.8238    9.5261   -2.3978 C   0  0  0  0  0  0  0  0  0  0  0  0
    3.5909    8.3733   -2.2958 C   0  0  0  0  0  0  0  0  0  0  0  0
    3.1060    7.2730   -1.5873 C   0  0  0  0  0  0  0  0  0  0  0  0
    1.8339    7.2921   -0.9650 C   0  0  0  0  0  0  0  0  0  0  0  0
    4.7582    2.2630   -0.8004 C   0  0  0  0  0  0  0  0  0  0  0  0
    5.7352    1.9348   -1.7651 C   0  0  0  0  0  0  0  0  0  0  0  0
    7.1379    1.8860   -1.3738 C   0  0  0  0  0  0  0  0  0  0  0  0
    7.7182    2.5206   -0.3720 N   0  0  0  0  0  0  0  0  0  0  0  0
    9.0445    2.1604   -0.3953 N   0  0  0  0  0  0  0  0  0  0  0  0
    9.2858    1.3038   -1.3759 N   0  0  0  0  0  0  0  0  0  0  0  0
    8.1038    1.1241   -1.9780 N   0  0  0  0  0  0  0  0  0  0  0  0
    5.3203    1.6632   -3.0707 C   0  0  0  0  0  0  0  0  0  0  0  0
    1.9457    1.9902   -2.7065 H   0  0  0  0  0  0  0  0  0  0  0  0
    2.8507    2.7805    0.9137 H   0  0  0  0  0  0  0  0  0  0  0  0
    1.7549    1.6781    0.1030 H   0  0  0  0  0  0  0  0  0  0  0  0
    2.9933    5.0370   -0.1731 H   0  0  0  0  0  0  0  0  0  0  0  0
   -0.5240    5.5091    0.7442 H   0  0  0  0  0  0  0  0  0  0  0  0
   -0.8440    9.3728   -0.5836 H   0  0  0  0  0  0  0  0  0  0  0  0
    0.9734   10.4847   -1.8992 H   0  0  0  0  0  0  0  0  0  0  0  0
    3.1959   10.3787   -2.9589 H   0  0  0  0  0  0  0  0  0  0  0  0
    4.5614    8.3179   -2.7809 H   0  0  0  0  0  0  0  0  0  0  0  0
    3.7250    6.3811   -1.5668 H   0  0  0  0  0  0  0  0  0  0  0  0
    5.0768    2.4629    0.2240 H   0  0  0  0  0  0  0  0  0  0  0  0
    8.0319    0.4745   -2.7494 H   0  0  0  0  0  0  0  0  0  0  0  0
    6.0405    1.4417   -3.8525 H   0  0  0  0  0  0  0  0  0  0  0  0
  1  2  1  0  0  0  0
  2  3  1  0  0  0  0
  2 26  2  0  0  0  0
  3  4  2  0  0  0  0
  3 27  1  0  0  0  0
  4  5  1  0  0  0  0
  4 19  1  0  0  0  0
  5  6  1  0  0  0  0
  5 28  1  0  0  0  0
  5 29  1  0  0  0  0
  6  7  2  0  0  0  0
  6  8  1  0  0  0  0
  8  9  1  0  0  0  0
  8 30  1  0  0  0  0
  9 10  1  0  0  0  0
  9 18  2  0  0  0  0
 10 11  2  0  0  0  0
 10 31  1  0  0  0  0
 11 12  1  0  0  0  0
 12 13  2  0  0  0  0
 12 32  1  0  0  0  0
 13 14  1  0  0  0  0
 13 18  1  0  0  0  0
 14 15  2  0  0  0  0
 14 33  1  0  0  0  0
 15 16  1  0  0  0  0
 15 34  1  0  0  0  0
 16 17  2  0  0  0  0
 16 35  1  0  0  0  0
 17 18  1  0  0  0  0
 17 36  1  0  0  0  0
 19 20  2  0  0  0  0
 19 37  1  0  0  0  0
 20 21  1  0  0  0  0
 20 26  1  0  0  0  0
 21 22  2  0  0  0  0
 21 25  1  0  0  0  0
 22 23  1  0  0  0  0
 23 24  2  0  0  0  0
 24 25  1  0  0  0  0
 25 38  1  0  0  0  0
 26 39  1  0  0  0  0
M  END
$$$$
