
 OpenBabel07202414153D

 49 51  0  0  0  0  0  0  0  0999 V2000
    1.6106   -0.9168    0.9361 C   0  0  0  0  0  0  0  0  0  0  0  0
    2.7259    0.0523   -0.0553 S   0  0  0  0  0  0  0  0  0  0  0  0
    3.9666   -0.7109   -0.2009 O   0  0  0  0  0  0  0  0  0  0  0  0
    2.0035    0.5040   -1.2058 O   0  0  0  0  0  0  0  0  0  0  0  0
    3.1027    1.3861    0.9054 N   0  0  0  0  0  0  0  0  0  0  0  0
    2.0682    2.3902    1.2639 C   0  0  0  0  0  0  0  0  0  0  0  0
    2.1794    3.6711    0.4168 C   0  0  0  0  0  0  0  0  0  0  0  0
    3.5069    4.3062    0.7347 C   0  0  0  0  0  0  0  0  0  0  0  0
    3.7062    5.6827    0.8558 C   0  0  0  0  0  0  0  0  0  0  0  0
    4.9741    6.1800    1.1889 C   0  0  0  0  0  0  0  0  0  0  0  0
    6.0422    5.3079    1.4555 C   0  0  0  0  0  0  0  0  0  0  0  0
    7.4315    5.8300    1.7516 C   0  0  0  0  0  0  0  0  0  0  0  0
    8.3411    5.9990    0.6232 N   0  0  0  0  0  0  0  0  0  0  0  0
    7.9980    6.9149   -0.4556 C   0  0  0  0  0  0  0  0  0  0  0  0
    7.6932    6.2691   -1.8274 C   0  0  0  0  0  0  0  0  0  0  0  0
    8.6099    5.1670   -2.1596 N   0  0  0  0  0  0  0  0  0  0  0  0
    9.0145    4.8418   -3.4570 C   0  0  0  0  0  0  0  0  0  0  0  0
    9.7733    3.8953   -3.6701 O   0  0  0  0  0  0  0  0  0  0  0  0
    8.4637    5.7218   -4.5713 C   0  0  0  0  0  0  0  0  0  0  0  0
    9.0409    5.2183   -6.1719 Cl  0  0  0  0  0  0  0  0  0  0  0  0
    8.8964    4.2110   -1.0796 C   0  0  0  0  0  0  0  0  0  0  0  0
    9.2375    4.9124    0.2462 C   0  0  0  0  0  0  0  0  0  0  0  0
    5.7916    3.9365    1.4285 C   0  0  0  0  0  0  0  0  0  0  0  0
    4.5730    3.4325    0.9768 C   0  0  0  0  0  0  0  0  0  0  0  0
    4.4391    1.9669    0.6246 C   0  0  0  0  0  0  0  0  0  0  0  0
    1.3837   -1.8329    0.3818 H   0  0  0  0  0  0  0  0  0  0  0  0
    0.6853   -0.3517    1.0707 H   0  0  0  0  0  0  0  0  0  0  0  0
    2.0750   -1.1695    1.8912 H   0  0  0  0  0  0  0  0  0  0  0  0
    2.2397    2.6326    2.3250 H   0  0  0  0  0  0  0  0  0  0  0  0
    1.0561    1.9853    1.2151 H   0  0  0  0  0  0  0  0  0  0  0  0
    1.3611    4.3519    0.6754 H   0  0  0  0  0  0  0  0  0  0  0  0
    2.1234    3.4410   -0.6533 H   0  0  0  0  0  0  0  0  0  0  0  0
    2.8888    6.3779    0.6874 H   0  0  0  0  0  0  0  0  0  0  0  0
    5.1258    7.2538    1.2497 H   0  0  0  0  0  0  0  0  0  0  0  0
    7.8941    5.1933    2.5182 H   0  0  0  0  0  0  0  0  0  0  0  0
    7.3249    6.8092    2.2327 H   0  0  0  0  0  0  0  0  0  0  0  0
    8.8681    7.5691   -0.6057 H   0  0  0  0  0  0  0  0  0  0  0  0
    7.1815    7.5905   -0.1774 H   0  0  0  0  0  0  0  0  0  0  0  0
    7.7494    7.0552   -2.5852 H   0  0  0  0  0  0  0  0  0  0  0  0
    6.6708    5.8788   -1.8797 H   0  0  0  0  0  0  0  0  0  0  0  0
    8.7922    6.7537   -4.4305 H   0  0  0  0  0  0  0  0  0  0  0  0
    7.3711    5.6641   -4.5740 H   0  0  0  0  0  0  0  0  0  0  0  0
    9.7322    3.5583   -1.3574 H   0  0  0  0  0  0  0  0  0  0  0  0
    8.0250    3.5550   -0.9627 H   0  0  0  0  0  0  0  0  0  0  0  0
   10.2383    5.3506    0.1229 H   0  0  0  0  0  0  0  0  0  0  0  0
    9.3432    4.1712    1.0461 H   0  0  0  0  0  0  0  0  0  0  0  0
    6.5471    3.2264    1.7490 H   0  0  0  0  0  0  0  0  0  0  0  0
    5.1852    1.3750    1.1648 H   0  0  0  0  0  0  0  0  0  0  0  0
    4.6790    1.8990   -0.4474 H   0  0  0  0  0  0  0  0  0  0  0  0
  1  2  1  0  0  0  0
  1 26  1  0  0  0  0
  1 27  1  0  0  0  0
  1 28  1  0  0  0  0
  2  3  2  0  0  0  0
  2  4  2  0  0  0  0
  2  5  1  0  0  0  0
  5  6  1  0  0  0  0
  5 25  1  0  0  0  0
  6  7  1  0  0  0  0
  6 29  1  0  0  0  0
  6 30  1  0  0  0  0
  7  8  1  0  0  0  0
  7 31  1  0  0  0  0
  7 32  1  0  0  0  0
  8  9  1  0  0  0  0
  8 24  2  0  0  0  0
  9 10  2  0  0  0  0
  9 33  1  0  0  0  0
 10 11  1  0  0  0  0
 10 34  1  0  0  0  0
 11 12  1  0  0  0  0
 11 23  2  0  0  0  0
 12 13  1  0  0  0  0
 12 35  1  0  0  0  0
 12 36  1  0  0  0  0
 13 14  1  0  0  0  0
 13 22  1  0  0  0  0
 14 15  1  0  0  0  0
 14 37  1  0  0  0  0
 14 38  1  0  0  0  0
 15 16  1  0  0  0  0
 15 39  1  0  0  0  0
 15 40  1  0  0  0  0
 16 17  1  0  0  0  0
 16 21  1  0  0  0  0
 17 18  2  0  0  0  0
 17 19  1  0  0  0  0
 19 20  1  0  0  0  0
 19 41  1  0  0  0  0
 19 42  1  0  0  0  0
 21 22  1  0  0  0  0
 21 43  1  0  0  0  0
 21 44  1  0  0  0  0
 22 45  1  0  0  0  0
 22 46  1  0  0  0  0
 23 24  1  0  0  0  0
 23 47  1  0  0  0  0
 24 25  1  0  0  0  0
 25 48  1  0  0  0  0
 25 49  1  0  0  0  0
M  END
$$$$
