
 OpenBabel07202414153D

 49 52  0  0  1  0  0  0  0  0999 V2000
    1.0794   -0.0886    0.1387 C   0  0  0  0  0  0  0  0  0  0  0  0
    2.6015   -0.1767    0.0662 C   0  0  2  0  0  0  0  0  0  0  0  0
    3.1548    0.4080    1.2453 O   0  0  0  0  0  0  0  0  0  0  0  0
    3.1073    0.5403   -1.1989 C   0  0  0  0  0  0  0  0  0  0  0  0
    4.5525    0.4933   -1.4441 N   0  0  0  0  0  0  0  0  0  0  0  0
    5.2340   -0.7945   -1.5167 C   0  0  0  0  0  0  0  0  0  0  0  0
    5.9066   -1.0116   -2.8698 C   0  0  1  0  0  0  0  0  0  0  0  0
    4.8572   -1.4243   -3.9055 C   0  0  0  0  0  0  0  0  0  0  0  0
    4.6084   -2.6198   -4.0709 O   0  0  0  0  0  0  0  0  0  0  0  0
    4.1836   -0.3805   -4.5198 N   0  0  0  0  0  0  0  0  0  0  0  0
    3.2138   -0.4627   -5.5557 C   0  0  0  0  0  0  0  0  0  0  0  0
    2.8280   -1.6708   -6.1359 C   0  0  0  0  0  0  0  0  0  0  0  0
    2.0062   -1.7840   -7.2090 N   0  0  0  0  0  0  0  0  0  0  0  0
    1.5183   -0.6338   -7.7127 C   0  0  0  0  0  0  0  0  0  0  0  0
    1.7496    0.6298   -7.1759 C   0  0  0  0  0  0  0  0  0  0  0  0
    1.1185    1.7645   -7.7136 C   0  0  0  0  0  0  0  0  0  0  0  0
    1.3222    3.0225   -7.1561 C   0  0  0  0  0  0  0  0  0  0  0  0
    2.1760    3.1597   -6.0709 C   0  0  0  0  0  0  0  0  0  0  0  0
    2.8236    2.0418   -5.5386 C   0  0  0  0  0  0  0  0  0  0  0  0
    2.6223    0.7351   -6.0628 C   0  0  0  0  0  0  0  0  0  0  0  0
    6.7328    0.2029   -3.2432 C   0  0  0  0  0  0  0  0  0  0  0  0
    7.7811    0.0872   -4.1703 C   0  0  0  0  0  0  0  0  0  0  0  0
    8.5060    1.2163   -4.5506 C   0  0  0  0  0  0  0  0  0  0  0  0
    9.7680    1.0693   -5.7095 Cl  0  0  0  0  0  0  0  0  0  0  0  0
    8.2017    2.4664   -4.0139 C   0  0  0  0  0  0  0  0  0  0  0  0
    7.1625    2.5920   -3.0876 C   0  0  0  0  0  0  0  0  0  0  0  0
    6.4263    1.4659   -2.6984 C   0  0  0  0  0  0  0  0  0  0  0  0
    5.2044    1.6523   -1.8510 C   0  0  0  0  0  0  0  0  0  0  0  0
    4.7621    2.7816   -1.6818 O   0  0  0  0  0  0  0  0  0  0  0  0
    0.6174   -0.6784   -0.6605 H   0  0  0  0  0  0  0  0  0  0  0  0
    0.7417    0.9486    0.0403 H   0  0  0  0  0  0  0  0  0  0  0  0
    0.7128   -0.4512    1.1034 H   0  0  0  0  0  0  0  0  0  0  0  0
    2.8911   -1.2305    0.0663 H   0  0  0  0  0  0  0  0  0  0  0  0
    2.9871    1.3666    1.2128 H   0  0  0  0  0  0  0  0  0  0  0  0
    2.7941    1.5906   -1.1571 H   0  0  0  0  0  0  0  0  0  0  0  0
    2.6298    0.1042   -2.0840 H   0  0  0  0  0  0  0  0  0  0  0  0
    4.5440   -1.6110   -1.2873 H   0  0  0  0  0  0  0  0  0  0  0  0
    6.0010   -0.7794   -0.7304 H   0  0  0  0  0  0  0  0  0  0  0  0
    6.5944   -1.8639   -2.7715 H   0  0  0  0  0  0  0  0  0  0  0  0
    4.4557    0.5514   -4.2542 H   0  0  0  0  0  0  0  0  0  0  0  0
    3.1703   -2.6316   -5.7711 H   0  0  0  0  0  0  0  0  0  0  0  0
    0.8930   -0.7670   -8.5961 H   0  0  0  0  0  0  0  0  0  0  0  0
    0.4455    1.6704   -8.5603 H   0  0  0  0  0  0  0  0  0  0  0  0
    0.8088    3.8904   -7.5615 H   0  0  0  0  0  0  0  0  0  0  0  0
    2.3372    4.1417   -5.6268 H   0  0  0  0  0  0  0  0  0  0  0  0
    3.4587    2.2145   -4.6724 H   0  0  0  0  0  0  0  0  0  0  0  0
    8.0232   -0.8795   -4.6094 H   0  0  0  0  0  0  0  0  0  0  0  0
    8.7563    3.3493   -4.3244 H   0  0  0  0  0  0  0  0  0  0  0  0
    6.9106    3.5761   -2.6960 H   0  0  0  0  0  0  0  0  0  0  0  0
  1 30  1  0  0  0  0
  1 31  1  0  0  0  0
  1 32  1  0  0  0  0
  2  4  1  0  0  0  0
  2  3  1  0  0  0  0
  2  1  1  0  0  0  0
  2 33  1  6  0  0  0
  3 34  1  0  0  0  0
  4  5  1  0  0  0  0
  4 35  1  0  0  0  0
  4 36  1  0  0  0  0
  5  6  1  0  0  0  0
  5 28  1  0  0  0  0
  6  7  1  0  0  0  0
  6 37  1  0  0  0  0
  6 38  1  0  0  0  0
  7  8  1  0  0  0  0
  7 21  1  0  0  0  0
  7 39  1  1  0  0  0
  8  9  2  0  0  0  0
  8 10  1  0  0  0  0
 10 11  1  0  0  0  0
 10 40  1  0  0  0  0
 11 12  1  0  0  0  0
 11 20  2  0  0  0  0
 12 13  2  0  0  0  0
 12 41  1  0  0  0  0
 13 14  1  0  0  0  0
 14 15  2  0  0  0  0
 14 42  1  0  0  0  0
 15 16  1  0  0  0  0
 15 20  1  0  0  0  0
 16 17  2  0  0  0  0
 16 43  1  0  0  0  0
 17 18  1  0  0  0  0
 17 44  1  0  0  0  0
 18 19  2  0  0  0  0
 18 45  1  0  0  0  0
 19 20  1  0  0  0  0
 19 46  1  0  0  0  0
 21 22  1  0  0  0  0
 21 27  2  0  0  0  0
 22 23  2  0  0  0  0
 22 47  1  0  0  0  0
 23 24  1  0  0  0  0
 23 25  1  0  0  0  0
 25 26  2  0  0  0  0
 25 48  1  0  0  0  0
 26 27  1  0  0  0  0
 26 49  1  0  0  0  0
 27 28  1  0  0  0  0
 28 29  2  0  0  0  0
M  END
$$$$
