
 OpenBabel07202414163D

 37 39  0  0  0  0  0  0  0  0999 V2000
    0.9993    0.2713   -0.0627 C   0  0  0  0  0  0  0  0  0  0  0  0
    2.4944    0.0819   -0.0627 C   0  0  0  0  0  0  0  0  0  0  0  0
    3.2602    1.2658   -0.0677 C   0  0  0  0  0  0  0  0  0  0  0  0
    4.6390    1.2280    0.0642 C   0  0  0  0  0  0  0  0  0  0  0  0
    5.2756    0.0039    0.2076 C   0  0  0  0  0  0  0  0  0  0  0  0
    4.5491   -1.1969    0.1647 C   0  0  0  0  0  0  0  0  0  0  0  0
    5.2268   -2.4085    0.3300 C   0  0  0  0  0  0  0  0  0  0  0  0
    4.6541   -3.6288    0.3185 N   0  0  0  0  0  0  0  0  0  0  0  0
    3.3266   -3.6443    0.1058 C   0  0  0  0  0  0  0  0  0  0  0  0
    2.5354   -2.5061   -0.0816 C   0  0  0  0  0  0  0  0  0  0  0  0
    1.1533   -2.7261   -0.2996 N   0  0  0  0  0  0  0  0  0  0  0  0
    0.5680   -2.4014   -1.5163 C   0  0  0  0  0  0  0  0  0  0  0  0
    1.1514   -1.9338   -2.4868 O   0  0  0  0  0  0  0  0  0  0  0  0
   -0.9286   -2.6684   -1.5345 C   0  0  0  0  0  0  0  0  0  0  0  0
   -1.3150   -3.9363   -2.2510 C   0  0  0  0  0  0  0  0  0  0  0  0
   -0.9972   -4.1098   -3.6062 C   0  0  0  0  0  0  0  0  0  0  0  0
   -1.4318   -5.2393   -4.3007 C   0  0  0  0  0  0  0  0  0  0  0  0
   -2.1918   -6.2093   -3.6495 C   0  0  0  0  0  0  0  0  0  0  0  0
   -2.4988   -6.0527   -2.3000 C   0  0  0  0  0  0  0  0  0  0  0  0
   -3.4403   -7.2469   -1.4940 Cl  0  0  0  0  0  0  0  0  0  0  0  0
   -2.0640   -4.9267   -1.5986 C   0  0  0  0  0  0  0  0  0  0  0  0
    3.1393   -1.2075   -0.0196 C   0  0  0  0  0  0  0  0  0  0  0  0
    0.7295    1.2975    0.2116 H   0  0  0  0  0  0  0  0  0  0  0  0
    0.5246   -0.3703    0.6858 H   0  0  0  0  0  0  0  0  0  0  0  0
    0.5775    0.0977   -1.0535 H   0  0  0  0  0  0  0  0  0  0  0  0
    2.7694    2.2335   -0.1536 H   0  0  0  0  0  0  0  0  0  0  0  0
    5.2128    2.1506    0.0797 H   0  0  0  0  0  0  0  0  0  0  0  0
    6.3544   -0.0057    0.3528 H   0  0  0  0  0  0  0  0  0  0  0  0
    6.3017   -2.4307    0.4962 H   0  0  0  0  0  0  0  0  0  0  0  0
    2.8999   -4.6415    0.0451 H   0  0  0  0  0  0  0  0  0  0  0  0
    0.7693   -3.5697    0.1131 H   0  0  0  0  0  0  0  0  0  0  0  0
   -1.4194   -1.8157   -2.0208 H   0  0  0  0  0  0  0  0  0  0  0  0
   -1.3064   -2.6775   -0.5039 H   0  0  0  0  0  0  0  0  0  0  0  0
   -0.4165   -3.3545   -4.1370 H   0  0  0  0  0  0  0  0  0  0  0  0
   -1.1870   -5.3540   -5.3538 H   0  0  0  0  0  0  0  0  0  0  0  0
   -2.5461   -7.0761   -4.1999 H   0  0  0  0  0  0  0  0  0  0  0  0
   -2.3321   -4.8161   -0.5505 H   0  0  0  0  0  0  0  0  0  0  0  0
  1  2  1  0  0  0  0
  1 23  1  0  0  0  0
  1 24  1  0  0  0  0
  1 25  1  0  0  0  0
  2  3  1  0  0  0  0
  2 22  2  0  0  0  0
  3  4  2  0  0  0  0
  3 26  1  0  0  0  0
  4  5  1  0  0  0  0
  4 27  1  0  0  0  0
  5  6  2  0  0  0  0
  5 28  1  0  0  0  0
  6  7  1  0  0  0  0
  6 22  1  0  0  0  0
  7  8  2  0  0  0  0
  7 29  1  0  0  0  0
  8  9  1  0  0  0  0
  9 10  2  0  0  0  0
  9 30  1  0  0  0  0
 10 11  1  0  0  0  0
 10 22  1  0  0  0  0
 11 12  1  0  0  0  0
 11 31  1  0  0  0  0
 12 13  2  0  0  0  0
 12 14  1  0  0  0  0
 14 15  1  0  0  0  0
 14 32  1  0  0  0  0
 14 33  1  0  0  0  0
 15 16  1  0  0  0  0
 15 21  2  0  0  0  0
 16 17  2  0  0  0  0
 16 34  1  0  0  0  0
 17 18  1  0  0  0  0
 17 35  1  0  0  0  0
 18 19  2  0  0  0  0
 18 36  1  0  0  0  0
 19 20  1  0  0  0  0
 19 21  1  0  0  0  0
 21 37  1  0  0  0  0
M  END
$$$$
