
 OpenBabel07202414153D

 43 46  0  0  1  0  0  0  0  0999 V2000
    9.3260   -5.0905    6.0831 C   0  0  0  0  0  0  0  0  0  0  0  0
    8.5541   -3.8933    5.9875 O   0  0  0  0  0  0  0  0  0  0  0  0
    7.5003   -3.9435    5.1134 C   0  0  0  0  0  0  0  0  0  0  0  0
    6.8405   -5.1096    4.7443 C   0  0  0  0  0  0  0  0  0  0  0  0
    5.7813   -5.0464    3.8442 C   0  0  0  0  0  0  0  0  0  0  0  0
    5.3735   -3.8198    3.2992 C   0  0  0  0  0  0  0  0  0  0  0  0
    4.3171   -3.7848    2.3945 C   0  0  0  0  0  0  0  0  0  0  0  0
    3.8543   -2.6688    1.8082 N   0  0  0  0  0  0  0  0  0  0  0  0
    4.4680   -1.5123    2.1490 C   0  0  0  0  0  0  0  0  0  0  0  0
    5.5262   -1.3981    3.0535 C   0  0  0  0  0  0  0  0  0  0  0  0
    6.0113   -2.6033    3.6585 C   0  0  0  0  0  0  0  0  0  0  0  0
    7.0729   -2.7080    4.5989 C   0  0  0  0  0  0  0  0  0  0  0  0
    6.1244   -0.1392    3.3531 N   0  0  0  0  0  0  0  0  0  0  0  0
    5.6142    1.1134    3.0141 C   0  0  0  0  0  0  0  0  0  0  0  0
    4.5370    1.3155    2.4636 O   0  0  0  0  0  0  0  0  0  0  0  0
    6.4986    2.2745    3.4871 C   0  0  3  0  0  0  0  0  0  0  0  0
    6.1527    2.5877    4.9475 C   0  0  0  0  0  0  0  0  0  0  0  0
    5.0203    3.6017    4.9978 C   0  0  0  0  0  0  0  0  0  0  0  0
    5.4347    4.8440    4.4268 O   0  0  0  0  0  0  0  0  0  0  0  0
    5.9058    4.7201    3.1470 C   0  0  0  0  0  0  0  0  0  0  0  0
    6.3957    3.5161    2.6208 C   0  0  0  0  0  0  0  0  0  0  0  0
    6.8277    3.4975    1.2839 C   0  0  0  0  0  0  0  0  0  0  0  0
    6.8014    4.6650    0.5169 C   0  0  0  0  0  0  0  0  0  0  0  0
    6.3562    5.8654    1.0654 C   0  0  0  0  0  0  0  0  0  0  0  0
    5.9077    5.8911    2.3851 C   0  0  0  0  0  0  0  0  0  0  0  0
    7.3413    4.6265   -1.1174 Cl  0  0  0  0  0  0  0  0  0  0  0  0
   10.2290   -4.8664    6.6563 H   0  0  0  0  0  0  0  0  0  0  0  0
    9.6371   -5.4398    5.0911 H   0  0  0  0  0  0  0  0  0  0  0  0
    8.7794   -5.8739    6.6187 H   0  0  0  0  0  0  0  0  0  0  0  0
    7.1134   -6.0785    5.1490 H   0  0  0  0  0  0  0  0  0  0  0  0
    5.2750   -5.9692    3.5679 H   0  0  0  0  0  0  0  0  0  0  0  0
    3.7925   -4.6911    2.1009 H   0  0  0  0  0  0  0  0  0  0  0  0
    4.0634   -0.6606    1.6115 H   0  0  0  0  0  0  0  0  0  0  0  0
    7.5974   -1.8243    4.9495 H   0  0  0  0  0  0  0  0  0  0  0  0
    6.9679   -0.1619    3.9096 H   0  0  0  0  0  0  0  0  0  0  0  0
    7.5439    1.9381    3.4493 H   0  0  0  0  0  0  0  0  0  0  0  0
    7.0356    3.0216    5.4341 H   0  0  0  0  0  0  0  0  0  0  0  0
    5.8771    1.6852    5.5041 H   0  0  0  0  0  0  0  0  0  0  0  0
    4.7511    3.8010    6.0404 H   0  0  0  0  0  0  0  0  0  0  0  0
    4.1127    3.2466    4.4933 H   0  0  0  0  0  0  0  0  0  0  0  0
    7.1856    2.5740    0.8354 H   0  0  0  0  0  0  0  0  0  0  0  0
    6.3506    6.7777    0.4756 H   0  0  0  0  0  0  0  0  0  0  0  0
    5.5509    6.8208    2.8201 H   0  0  0  0  0  0  0  0  0  0  0  0
  1  2  1  0  0  0  0
  1 27  1  0  0  0  0
  1 28  1  0  0  0  0
  1 29  1  0  0  0  0
  2  3  1  0  0  0  0
  3  4  1  0  0  0  0
  3 12  2  0  0  0  0
  4  5  2  0  0  0  0
  4 30  1  0  0  0  0
  5  6  1  0  0  0  0
  5 31  1  0  0  0  0
  6  7  1  0  0  0  0
  6 11  2  0  0  0  0
  7  8  2  0  0  0  0
  7 32  1  0  0  0  0
  8  9  1  0  0  0  0
  9 10  2  0  0  0  0
  9 33  1  0  0  0  0
 10 11  1  0  0  0  0
 10 13  1  0  0  0  0
 11 12  1  0  0  0  0
 12 34  1  0  0  0  0
 13 14  1  0  0  0  0
 13 35  1  0  0  0  0
 14 15  2  0  0  0  0
 14 16  1  0  0  0  0
 16 17  1  0  0  0  0
 16 21  1  0  0  0  0
 16 36  1  0  0  0  0
 17 18  1  0  0  0  0
 17 37  1  0  0  0  0
 17 38  1  0  0  0  0
 18 19  1  0  0  0  0
 18 39  1  0  0  0  0
 18 40  1  0  0  0  0
 19 20  1  0  0  0  0
 20 21  1  0  0  0  0
 20 25  2  0  0  0  0
 21 22  2  0  0  0  0
 22 23  1  0  0  0  0
 22 41  1  0  0  0  0
 23 24  2  0  0  0  0
 23 26  1  0  0  0  0
 24 25  1  0  0  0  0
 24 42  1  0  0  0  0
 25 43  1  0  0  0  0
M  END
$$$$
