
 OpenBabel07202414203D

 38 40  0  0  0  0  0  0  0  0999 V2000
    3.0093    1.9814   -4.0128 C   0  0  0  0  0  0  0  0  0  0  0  0
    2.3570    2.2356   -2.8024 C   0  0  0  0  0  0  0  0  0  0  0  0
    3.0919    2.4571   -1.6258 C   0  0  0  0  0  0  0  0  0  0  0  0
    4.4922    2.4167   -1.6915 C   0  0  0  0  0  0  0  0  0  0  0  0
    5.1393    2.1633   -2.9049 C   0  0  0  0  0  0  0  0  0  0  0  0
    4.3978    1.9420   -4.0641 C   0  0  0  0  0  0  0  0  0  0  0  0
    6.8555    2.0948   -2.9566 Cl  0  0  0  0  0  0  0  0  0  0  0  0
    2.4036    2.6300   -0.2920 C   0  0  0  0  0  0  0  0  0  0  0  0
    1.3564    3.7253   -0.2468 C   0  0  0  0  0  0  0  0  0  0  0  0
    0.1583    3.4625   -0.3252 O   0  0  0  0  0  0  0  0  0  0  0  0
    1.8813    5.0030   -0.1349 N   0  0  0  0  0  0  0  0  0  0  0  0
    1.0458    6.1428   -0.1008 C   0  0  0  0  0  0  0  0  0  0  0  0
   -0.0842    6.1909    0.7186 C   0  0  0  0  0  0  0  0  0  0  0  0
   -0.9301    7.2445    0.7968 N   0  0  0  0  0  0  0  0  0  0  0  0
   -0.6584    8.2867   -0.0126 C   0  0  0  0  0  0  0  0  0  0  0  0
    0.4402    8.3517   -0.8691 C   0  0  0  0  0  0  0  0  0  0  0  0
    1.3257    7.2557   -0.9088 C   0  0  0  0  0  0  0  0  0  0  0  0
    2.5197    7.2746   -1.8352 C   0  0  0  0  0  0  0  0  0  0  0  0
    2.3928    8.2843   -2.9727 C   0  0  0  0  0  0  0  0  0  0  0  0
    1.9524    9.6375   -2.4362 C   0  0  0  0  0  0  0  0  0  0  0  0
    0.5709    9.5275   -1.7999 C   0  0  0  0  0  0  0  0  0  0  0  0
    2.4272    1.7956   -4.9144 H   0  0  0  0  0  0  0  0  0  0  0  0
    1.2666    2.2369   -2.7808 H   0  0  0  0  0  0  0  0  0  0  0  0
    5.0896    2.5572   -0.7937 H   0  0  0  0  0  0  0  0  0  0  0  0
    4.9029    1.7247   -5.0049 H   0  0  0  0  0  0  0  0  0  0  0  0
    3.1379    2.8340    0.4996 H   0  0  0  0  0  0  0  0  0  0  0  0
    1.9171    1.6851   -0.0231 H   0  0  0  0  0  0  0  0  0  0  0  0
    2.8213    5.1233   -0.4897 H   0  0  0  0  0  0  0  0  0  0  0  0
   -0.3379    5.3666    1.3799 H   0  0  0  0  0  0  0  0  0  0  0  0
   -1.3857    9.0937    0.0317 H   0  0  0  0  0  0  0  0  0  0  0  0
    2.6646    6.2879   -2.2902 H   0  0  0  0  0  0  0  0  0  0  0  0
    3.4113    7.5025   -1.2379 H   0  0  0  0  0  0  0  0  0  0  0  0
    1.6610    7.9231   -3.7076 H   0  0  0  0  0  0  0  0  0  0  0  0
    3.3527    8.3736   -3.4928 H   0  0  0  0  0  0  0  0  0  0  0  0
    1.9283   10.3751   -3.2455 H   0  0  0  0  0  0  0  0  0  0  0  0
    2.6789    9.9937   -1.6941 H   0  0  0  0  0  0  0  0  0  0  0  0
   -0.1796    9.4122   -2.5926 H   0  0  0  0  0  0  0  0  0  0  0  0
    0.3468   10.4590   -1.2665 H   0  0  0  0  0  0  0  0  0  0  0  0
  1  2  1  0  0  0  0
  1  6  2  0  0  0  0
  1 22  1  0  0  0  0
  2  3  2  0  0  0  0
  2 23  1  0  0  0  0
  3  4  1  0  0  0  0
  3  8  1  0  0  0  0
  4  5  2  0  0  0  0
  4 24  1  0  0  0  0
  5  6  1  0  0  0  0
  5  7  1  0  0  0  0
  6 25  1  0  0  0  0
  8  9  1  0  0  0  0
  8 26  1  0  0  0  0
  8 27  1  0  0  0  0
  9 10  2  0  0  0  0
  9 11  1  0  0  0  0
 11 12  1  0  0  0  0
 11 28  1  0  0  0  0
 12 13  1  0  0  0  0
 12 17  2  0  0  0  0
 13 14  2  0  0  0  0
 13 29  1  0  0  0  0
 14 15  1  0  0  0  0
 15 16  2  0  0  0  0
 15 30  1  0  0  0  0
 16 17  1  0  0  0  0
 16 21  1  0  0  0  0
 17 18  1  0  0  0  0
 18 19  1  0  0  0  0
 18 31  1  0  0  0  0
 18 32  1  0  0  0  0
 19 20  1  0  0  0  0
 19 33  1  0  0  0  0
 19 34  1  0  0  0  0
 20 21  1  0  0  0  0
 20 35  1  0  0  0  0
 20 36  1  0  0  0  0
 21 37  1  0  0  0  0
 21 38  1  0  0  0  0
M  END
$$$$
