
 OpenBabel07202414133D

 52 55  0  0  0  0  0  0  0  0999 V2000
    2.8427    1.1449   -0.5410 C   0  0  0  0  0  0  0  0  0  0  0  0
    2.4970   -0.1828   -0.0338 N   0  0  0  0  0  0  0  0  0  0  0  0
    1.6571   -1.0130   -0.9160 C   0  0  0  0  0  0  0  0  0  0  0  0
    0.1656   -0.8844   -0.6540 C   0  0  0  0  0  0  0  0  0  0  0  0
   -0.7631   -1.6592   -1.3757 C   0  0  0  0  0  0  0  0  0  0  0  0
   -0.2258   -2.9001   -2.7147 Br  0  0  0  0  0  0  0  0  0  0  0  0
   -2.1394   -1.5420   -1.1416 C   0  0  0  0  0  0  0  0  0  0  0  0
   -2.6160   -0.6419   -0.1921 C   0  0  0  0  0  0  0  0  0  0  0  0
   -1.7187    0.1439    0.5219 C   0  0  0  0  0  0  0  0  0  0  0  0
   -0.3453    0.0225    0.2943 C   0  0  0  0  0  0  0  0  0  0  0  0
    3.1480   -0.7118    1.0779 C   0  0  0  0  0  0  0  0  0  0  0  0
    2.8015   -1.9541    1.6336 C   0  0  0  0  0  0  0  0  0  0  0  0
    3.5003   -2.4979    2.7175 C   0  0  0  0  0  0  0  0  0  0  0  0
    3.0595   -4.0470    3.3285 Cl  0  0  0  0  0  0  0  0  0  0  0  0
    4.5578   -1.8109    3.3022 C   0  0  0  0  0  0  0  0  0  0  0  0
    4.9096   -0.5546    2.8120 C   0  0  0  0  0  0  0  0  0  0  0  0
    6.0759    0.2042    3.3984 C   0  0  0  0  0  0  0  0  0  0  0  0
    5.7434    1.6106    3.8659 C   0  0  0  0  0  0  0  0  0  0  0  0
    6.4859    2.5540    3.6004 O   0  0  0  0  0  0  0  0  0  0  0  0
    4.6297    1.6958    4.6809 N   0  0  0  0  0  0  0  0  0  0  0  0
    4.1771    2.9078    5.2493 C   0  0  0  0  0  0  0  0  0  0  0  0
    4.2043    4.0985    4.5230 C   0  0  0  0  0  0  0  0  0  0  0  0
    3.7643    5.2902    4.9836 N   0  0  0  0  0  0  0  0  0  0  0  0
    3.3170    5.3050    6.2570 C   0  0  0  0  0  0  0  0  0  0  0  0
    3.2673    4.1877    7.0960 C   0  0  0  0  0  0  0  0  0  0  0  0
    2.8441    4.2935    8.4321 C   0  0  0  0  0  0  0  0  0  0  0  0
    2.8387    3.1790    9.2682 C   0  0  0  0  0  0  0  0  0  0  0  0
    3.2443    1.9455    8.7782 C   0  0  0  0  0  0  0  0  0  0  0  0
    3.6561    1.8239    7.4481 C   0  0  0  0  0  0  0  0  0  0  0  0
    3.6861    2.9436    6.5769 C   0  0  0  0  0  0  0  0  0  0  0  0
    4.1975   -0.0242    1.7174 C   0  0  0  0  0  0  0  0  0  0  0  0
    2.2756    1.3938   -1.4450 H   0  0  0  0  0  0  0  0  0  0  0  0
    3.9042    1.2066   -0.8045 H   0  0  0  0  0  0  0  0  0  0  0  0
    2.6042    1.9132    0.2028 H   0  0  0  0  0  0  0  0  0  0  0  0
    1.9580   -2.0651   -0.8567 H   0  0  0  0  0  0  0  0  0  0  0  0
    1.8443   -0.7168   -1.9568 H   0  0  0  0  0  0  0  0  0  0  0  0
   -2.8498   -2.1490   -1.6980 H   0  0  0  0  0  0  0  0  0  0  0  0
   -3.6840   -0.5530   -0.0111 H   0  0  0  0  0  0  0  0  0  0  0  0
   -2.0835    0.8537    1.2606 H   0  0  0  0  0  0  0  0  0  0  0  0
    0.3270    0.6499    0.8761 H   0  0  0  0  0  0  0  0  0  0  0  0
    1.9726   -2.5299    1.2330 H   0  0  0  0  0  0  0  0  0  0  0  0
    5.1052   -2.2611    4.1265 H   0  0  0  0  0  0  0  0  0  0  0  0
    6.8539    0.2776    2.6283 H   0  0  0  0  0  0  0  0  0  0  0  0
    6.5118   -0.3351    4.2469 H   0  0  0  0  0  0  0  0  0  0  0  0
    4.2723    0.8321    5.0694 H   0  0  0  0  0  0  0  0  0  0  0  0
    4.5519    4.1267    3.4911 H   0  0  0  0  0  0  0  0  0  0  0  0
    3.0045    6.2842    6.6064 H   0  0  0  0  0  0  0  0  0  0  0  0
    2.5371    5.2537    8.8369 H   0  0  0  0  0  0  0  0  0  0  0  0
    2.5333    3.2788   10.3064 H   0  0  0  0  0  0  0  0  0  0  0  0
    3.2543    1.0769    9.4310 H   0  0  0  0  0  0  0  0  0  0  0  0
    3.9916    0.8459    7.1195 H   0  0  0  0  0  0  0  0  0  0  0  0
    4.5067    0.9529    1.3512 H   0  0  0  0  0  0  0  0  0  0  0  0
  1  2  1  0  0  0  0
  1 32  1  0  0  0  0
  1 33  1  0  0  0  0
  1 34  1  0  0  0  0
  2  3  1  0  0  0  0
  2 11  1  0  0  0  0
  3  4  1  0  0  0  0
  3 35  1  0  0  0  0
  3 36  1  0  0  0  0
  4  5  2  0  0  0  0
  4 10  1  0  0  0  0
  5  6  1  0  0  0  0
  5  7  1  0  0  0  0
  7  8  2  0  0  0  0
  7 37  1  0  0  0  0
  8  9  1  0  0  0  0
  8 38  1  0  0  0  0
  9 10  2  0  0  0  0
  9 39  1  0  0  0  0
 10 40  1  0  0  0  0
 11 12  2  0  0  0  0
 11 31  1  0  0  0  0
 12 13  1  0  0  0  0
 12 41  1  0  0  0  0
 13 14  1  0  0  0  0
 13 15  2  0  0  0  0
 15 16  1  0  0  0  0
 15 42  1  0  0  0  0
 16 17  1  0  0  0  0
 16 31  2  0  0  0  0
 17 18  1  0  0  0  0
 17 43  1  0  0  0  0
 17 44  1  0  0  0  0
 18 19  2  0  0  0  0
 18 20  1  0  0  0  0
 20 21  1  0  0  0  0
 20 45  1  0  0  0  0
 21 22  2  0  0  0  0
 21 30  1  0  0  0  0
 22 23  1  0  0  0  0
 22 46  1  0  0  0  0
 23 24  2  0  0  0  0
 24 25  1  0  0  0  0
 24 47  1  0  0  0  0
 25 26  2  0  0  0  0
 25 30  1  0  0  0  0
 26 27  1  0  0  0  0
 26 48  1  0  0  0  0
 27 28  2  0  0  0  0
 27 49  1  0  0  0  0
 28 29  1  0  0  0  0
 28 50  1  0  0  0  0
 29 30  2  0  0  0  0
 29 51  1  0  0  0  0
 31 52  1  0  0  0  0
M  END
$$$$
