
 OpenBabel07202414183D

 34 36  0  0  0  0  0  0  0  0999 V2000
    1.3592   -1.0543   -0.5789 F   0  0  0  0  0  0  0  0  0  0  0  0
    2.2294   -0.1518   -0.0247 C   0  0  0  0  0  0  0  0  0  0  0  0
    1.4098    0.8476    0.4479 F   0  0  0  0  0  0  0  0  0  0  0  0
    2.9933   -0.8073    1.1571 C   0  0  0  0  0  0  0  0  0  0  0  0
    3.8961   -1.6295    1.0018 O   0  0  0  0  0  0  0  0  0  0  0  0
    2.5085   -0.4185    2.4008 N   0  0  0  0  0  0  0  0  0  0  0  0
    3.0677   -0.8332    3.6305 C   0  0  0  0  0  0  0  0  0  0  0  0
    4.4494   -0.9577    3.7919 C   0  0  0  0  0  0  0  0  0  0  0  0
    5.0551   -1.2635    4.9600 N   0  0  0  0  0  0  0  0  0  0  0  0
    4.2444   -1.4849    6.0159 C   0  0  0  0  0  0  0  0  0  0  0  0
    2.8503   -1.4213    5.9733 C   0  0  0  0  0  0  0  0  0  0  0  0
    2.0643   -1.7217    7.1021 C   0  0  0  0  0  0  0  0  0  0  0  0
    0.6724   -1.7122    7.0240 C   0  0  0  0  0  0  0  0  0  0  0  0
    0.0513   -1.4052    5.8196 C   0  0  0  0  0  0  0  0  0  0  0  0
    0.8207   -1.0882    4.6985 C   0  0  0  0  0  0  0  0  0  0  0  0
    2.2368   -1.0854    4.7475 C   0  0  0  0  0  0  0  0  0  0  0  0
    3.2170    0.3813   -1.0473 C   0  0  0  0  0  0  0  0  0  0  0  0
    3.6770   -0.4412   -2.0868 C   0  0  0  0  0  0  0  0  0  0  0  0
    4.6131    0.0365   -3.0062 C   0  0  0  0  0  0  0  0  0  0  0  0
    5.1038    1.3401   -2.8982 C   0  0  0  0  0  0  0  0  0  0  0  0
    6.2524    1.8671   -4.0748 Cl  0  0  0  0  0  0  0  0  0  0  0  0
    4.6606    2.1657   -1.8592 C   0  0  0  0  0  0  0  0  0  0  0  0
    5.2302    3.7833   -1.6518 Cl  0  0  0  0  0  0  0  0  0  0  0  0
    3.7235    1.6862   -0.9372 C   0  0  0  0  0  0  0  0  0  0  0  0
    1.5908    0.0151    2.4140 H   0  0  0  0  0  0  0  0  0  0  0  0
    5.1397   -0.7622    2.9753 H   0  0  0  0  0  0  0  0  0  0  0  0
    4.7687   -1.7414    6.9326 H   0  0  0  0  0  0  0  0  0  0  0  0
    2.5384   -1.9811    8.0499 H   0  0  0  0  0  0  0  0  0  0  0  0
    0.0759   -1.9634    7.8958 H   0  0  0  0  0  0  0  0  0  0  0  0
   -1.0340   -1.4275    5.7446 H   0  0  0  0  0  0  0  0  0  0  0  0
    0.2885   -0.8927    3.7708 H   0  0  0  0  0  0  0  0  0  0  0  0
    3.3169   -1.4665   -2.1761 H   0  0  0  0  0  0  0  0  0  0  0  0
    4.9601   -0.6177   -3.8033 H   0  0  0  0  0  0  0  0  0  0  0  0
    3.3879    2.3331   -0.1270 H   0  0  0  0  0  0  0  0  0  0  0  0
  1  2  1  0  0  0  0
  2  3  1  0  0  0  0
  2  4  1  0  0  0  0
  2 17  1  0  0  0  0
  4  5  2  0  0  0  0
  4  6  1  0  0  0  0
  6  7  1  0  0  0  0
  6 25  1  0  0  0  0
  7  8  1  0  0  0  0
  7 16  2  0  0  0  0
  8  9  2  0  0  0  0
  8 26  1  0  0  0  0
  9 10  1  0  0  0  0
 10 11  2  0  0  0  0
 10 27  1  0  0  0  0
 11 12  1  0  0  0  0
 11 16  1  0  0  0  0
 12 13  2  0  0  0  0
 12 28  1  0  0  0  0
 13 14  1  0  0  0  0
 13 29  1  0  0  0  0
 14 15  2  0  0  0  0
 14 30  1  0  0  0  0
 15 16  1  0  0  0  0
 15 31  1  0  0  0  0
 17 18  1  0  0  0  0
 17 24  2  0  0  0  0
 18 19  2  0  0  0  0
 18 32  1  0  0  0  0
 19 20  1  0  0  0  0
 19 33  1  0  0  0  0
 20 21  1  0  0  0  0
 20 22  2  0  0  0  0
 22 23  1  0  0  0  0
 22 24  1  0  0  0  0
 24 34  1  0  0  0  0
M  END
$$$$
