
 OpenBabel07202414193D

 47 50  0  0  1  0  0  0  0  0999 V2000
    1.3765    0.2598   -1.0819 O   0  0  0  0  0  0  0  0  0  0  0  0
    2.3104   -0.0580   -0.3364 C   0  0  0  0  0  0  0  0  0  0  0  0
    2.7405    0.9021    0.7605 C   0  0  0  0  0  0  0  0  0  0  0  0
    1.9907    0.7835    2.0813 C   0  0  0  0  0  0  0  0  0  0  0  0
    0.9454   -0.1287    2.2418 C   0  0  0  0  0  0  0  0  0  0  0  0
    0.2424   -0.2982    3.3817 N   0  0  0  0  0  0  0  0  0  0  0  0
    0.5732    0.4953    4.4205 C   0  0  0  0  0  0  0  0  0  0  0  0
    1.5888    1.4452    4.3956 C   0  0  0  0  0  0  0  0  0  0  0  0
    1.8858    2.2306    5.5268 C   0  0  0  0  0  0  0  0  0  0  0  0
    2.9136    3.1623    5.4987 C   0  0  0  0  0  0  0  0  0  0  0  0
    3.6622    3.3199    4.3368 C   0  0  0  0  0  0  0  0  0  0  0  0
    3.3726    2.5504    3.2040 C   0  0  0  0  0  0  0  0  0  0  0  0
    2.3316    1.5942    3.1992 C   0  0  0  0  0  0  0  0  0  0  0  0
    2.9323   -1.2851   -0.4525 N   0  0  0  0  0  0  0  0  0  0  0  0
    2.5543   -2.1382   -1.5692 C   0  0  0  0  0  0  0  0  0  0  0  0
    3.0060   -3.5118   -1.1368 C   0  0  0  0  0  0  0  0  0  0  0  0
    4.3280   -3.2232   -0.4368 C   0  0  0  0  0  0  0  0  0  0  0  0
    4.1459   -1.8254    0.2082 C   0  0  2  0  0  0  0  0  0  0  0  0
    4.0786   -1.9271    1.7454 C   0  0  0  0  0  0  0  0  0  0  0  0
    5.3144   -2.4943    2.4101 C   0  0  0  0  0  0  0  0  0  0  0  0
    5.2193   -3.6232    3.2386 C   0  0  0  0  0  0  0  0  0  0  0  0
    6.3469   -4.0964    3.9134 C   0  0  0  0  0  0  0  0  0  0  0  0
    7.5671   -3.4453    3.7610 C   0  0  0  0  0  0  0  0  0  0  0  0
    8.6399   -3.8939    4.4253 F   0  0  0  0  0  0  0  0  0  0  0  0
    7.6877   -2.3351    2.9396 C   0  0  0  0  0  0  0  0  0  0  0  0
    6.5599   -1.8664    2.2758 C   0  0  0  0  0  0  0  0  0  0  0  0
    6.6760   -0.7745    1.5069 F   0  0  0  0  0  0  0  0  0  0  0  0
    2.5654    1.9126    0.3674 H   0  0  0  0  0  0  0  0  0  0  0  0
    3.8213    0.8161    0.9126 H   0  0  0  0  0  0  0  0  0  0  0  0
    0.6225   -0.7870    1.4403 H   0  0  0  0  0  0  0  0  0  0  0  0
   -0.0297    0.3392    5.3114 H   0  0  0  0  0  0  0  0  0  0  0  0
    1.3007    2.1154    6.4436 H   0  0  0  0  0  0  0  0  0  0  0  0
    3.1341    3.7620    6.3768 H   0  0  0  0  0  0  0  0  0  0  0  0
    4.4730    4.0433    4.3090 H   0  0  0  0  0  0  0  0  0  0  0  0
    3.9831    2.7128    2.3202 H   0  0  0  0  0  0  0  0  0  0  0  0
    3.1186   -1.7976   -2.4490 H   0  0  0  0  0  0  0  0  0  0  0  0
    1.4871   -2.0865   -1.7948 H   0  0  0  0  0  0  0  0  0  0  0  0
    3.1078   -4.2103   -1.9717 H   0  0  0  0  0  0  0  0  0  0  0  0
    2.2878   -3.9297   -0.4216 H   0  0  0  0  0  0  0  0  0  0  0  0
    5.1383   -3.1863   -1.1739 H   0  0  0  0  0  0  0  0  0  0  0  0
    4.5693   -4.0201    0.2732 H   0  0  0  0  0  0  0  0  0  0  0  0
    4.9775   -1.1805   -0.0928 H   0  0  0  0  0  0  0  0  0  0  0  0
    3.9511   -0.9403    2.1915 H   0  0  0  0  0  0  0  0  0  0  0  0
    3.1921   -2.5014    2.0337 H   0  0  0  0  0  0  0  0  0  0  0  0
    4.2667   -4.1315    3.3754 H   0  0  0  0  0  0  0  0  0  0  0  0
    6.2789   -4.9606    4.5677 H   0  0  0  0  0  0  0  0  0  0  0  0
    8.6412   -1.8324    2.8299 H   0  0  0  0  0  0  0  0  0  0  0  0
  1  2  2  0  0  0  0
  2  3  1  0  0  0  0
  2 14  1  0  0  0  0
  3  4  1  0  0  0  0
  3 28  1  0  0  0  0
  3 29  1  0  0  0  0
  4  5  1  0  0  0  0
  4 13  2  0  0  0  0
  5  6  2  0  0  0  0
  5 30  1  0  0  0  0
  6  7  1  0  0  0  0
  7  8  2  0  0  0  0
  7 31  1  0  0  0  0
  8  9  1  0  0  0  0
  8 13  1  0  0  0  0
  9 10  2  0  0  0  0
  9 32  1  0  0  0  0
 10 11  1  0  0  0  0
 10 33  1  0  0  0  0
 11 12  2  0  0  0  0
 11 34  1  0  0  0  0
 12 13  1  0  0  0  0
 12 35  1  0  0  0  0
 14 15  1  0  0  0  0
 14 18  1  0  0  0  0
 15 16  1  0  0  0  0
 15 36  1  0  0  0  0
 15 37  1  0  0  0  0
 16 17  1  0  0  0  0
 16 38  1  0  0  0  0
 16 39  1  0  0  0  0
 17 18  1  0  0  0  0
 17 40  1  0  0  0  0
 17 41  1  0  0  0  0
 18 19  1  0  0  0  0
 18 42  1  6  0  0  0
 19 20  1  0  0  0  0
 19 43  1  0  0  0  0
 19 44  1  0  0  0  0
 20 21  1  0  0  0  0
 20 26  2  0  0  0  0
 21 22  2  0  0  0  0
 21 45  1  0  0  0  0
 22 23  1  0  0  0  0
 22 46  1  0  0  0  0
 23 24  1  0  0  0  0
 23 25  2  0  0  0  0
 25 26  1  0  0  0  0
 25 47  1  0  0  0  0
 26 27  1  0  0  0  0
M  END
$$$$
