
 OpenBabel07202414203D

 60 64  0  0  0  0  0  0  0  0999 V2000
   -1.1542    1.0318    1.9273 O   0  0  0  0  0  0  0  0  0  0  0  0
   -0.0342    1.8874    1.6340 C   0  0  0  0  0  0  0  0  0  0  0  0
   -0.3779    3.3073    2.1117 C   0  0  0  0  0  0  0  0  0  0  0  0
    0.6122    4.2099    2.5420 C   0  0  0  0  0  0  0  0  0  0  0  0
    0.2824    5.4940    2.9874 C   0  0  0  0  0  0  0  0  0  0  0  0
   -1.0445    5.9060    2.9933 C   0  0  0  0  0  0  0  0  0  0  0  0
   -1.4470    7.4855    3.5412 Cl  0  0  0  0  0  0  0  0  0  0  0  0
   -2.0438    5.0471    2.5483 C   0  0  0  0  0  0  0  0  0  0  0  0
   -1.7119    3.7623    2.1033 C   0  0  0  0  0  0  0  0  0  0  0  0
    1.1824    1.2835    2.3665 C   0  0  0  0  0  0  0  0  0  0  0  0
    1.5667   -0.0763    1.7960 C   0  0  0  0  0  0  0  0  0  0  0  0
    1.7848    0.0337    0.3536 N   0  0  0  0  0  0  0  0  0  0  0  0
    3.0565    0.1157   -0.1914 C   0  0  0  0  0  0  0  0  0  0  0  0
    4.1506    0.6490    0.5134 C   0  0  0  0  0  0  0  0  0  0  0  0
    5.4532    0.6710   -0.0186 C   0  0  0  0  0  0  0  0  0  0  0  0
    6.6171    1.1748    0.8048 C   0  0  0  0  0  0  0  0  0  0  0  0
    6.5102    2.6024    1.3102 C   0  0  0  0  0  0  0  0  0  0  0  0
    6.7167    2.8712    2.4917 O   0  0  0  0  0  0  0  0  0  0  0  0
    6.2058    3.5374    0.3379 N   0  0  0  0  0  0  0  0  0  0  0  0
    6.1290    4.9258    0.6120 C   0  0  0  0  0  0  0  0  0  0  0  0
    7.1041    5.5617    1.3839 C   0  0  0  0  0  0  0  0  0  0  0  0
    7.1313    6.8906    1.6379 N   0  0  0  0  0  0  0  0  0  0  0  0
    6.1166    7.6182    1.1248 C   0  0  0  0  0  0  0  0  0  0  0  0
    5.0688    7.0922    0.3651 C   0  0  0  0  0  0  0  0  0  0  0  0
    4.0158    7.9040   -0.0950 C   0  0  0  0  0  0  0  0  0  0  0  0
    2.9578    7.3541   -0.8144 C   0  0  0  0  0  0  0  0  0  0  0  0
    2.9396    5.9923   -1.0873 C   0  0  0  0  0  0  0  0  0  0  0  0
    3.9843    5.1787   -0.6466 C   0  0  0  0  0  0  0  0  0  0  0  0
    5.0731    5.7081    0.0854 C   0  0  0  0  0  0  0  0  0  0  0  0
    5.6693    0.1297   -1.2887 C   0  0  0  0  0  0  0  0  0  0  0  0
    4.6026   -0.4116   -2.0009 C   0  0  0  0  0  0  0  0  0  0  0  0
    4.8882   -1.1291   -3.5399 Cl  0  0  0  0  0  0  0  0  0  0  0  0
    3.3141   -0.4119   -1.4650 C   0  0  0  0  0  0  0  0  0  0  0  0
    0.6181    0.5010   -0.4044 C   0  0  0  0  0  0  0  0  0  0  0  0
    0.1817    1.8775    0.1081 C   0  0  0  0  0  0  0  0  0  0  0  0
   -1.4067    1.1977    2.8531 H   0  0  0  0  0  0  0  0  0  0  0  0
    1.6662    3.9452    2.5387 H   0  0  0  0  0  0  0  0  0  0  0  0
    1.0707    6.1626    3.3245 H   0  0  0  0  0  0  0  0  0  0  0  0
   -3.0819    5.3691    2.5425 H   0  0  0  0  0  0  0  0  0  0  0  0
   -2.5126    3.1147    1.7475 H   0  0  0  0  0  0  0  0  0  0  0  0
    0.9648    1.1685    3.4356 H   0  0  0  0  0  0  0  0  0  0  0  0
    2.0535    1.9386    2.2809 H   0  0  0  0  0  0  0  0  0  0  0  0
    0.7654   -0.8029    1.9796 H   0  0  0  0  0  0  0  0  0  0  0  0
    2.4470   -0.4744    2.3146 H   0  0  0  0  0  0  0  0  0  0  0  0
    4.0008    1.0561    1.5109 H   0  0  0  0  0  0  0  0  0  0  0  0
    7.5532    1.1059    0.2384 H   0  0  0  0  0  0  0  0  0  0  0  0
    6.7225    0.5141    1.6743 H   0  0  0  0  0  0  0  0  0  0  0  0
    5.7183    3.1966   -0.4802 H   0  0  0  0  0  0  0  0  0  0  0  0
    7.9444    5.0127    1.8017 H   0  0  0  0  0  0  0  0  0  0  0  0
    6.1644    8.6790    1.3638 H   0  0  0  0  0  0  0  0  0  0  0  0
    4.0102    8.9699    0.1189 H   0  0  0  0  0  0  0  0  0  0  0  0
    2.1421    7.9886   -1.1513 H   0  0  0  0  0  0  0  0  0  0  0  0
    2.1052    5.5579   -1.6314 H   0  0  0  0  0  0  0  0  0  0  0  0
    3.9087    4.1153   -0.8585 H   0  0  0  0  0  0  0  0  0  0  0  0
    6.6700    0.0958   -1.7136 H   0  0  0  0  0  0  0  0  0  0  0  0
    2.5125   -0.8906   -2.0217 H   0  0  0  0  0  0  0  0  0  0  0  0
   -0.1982   -0.2219   -0.2824 H   0  0  0  0  0  0  0  0  0  0  0  0
    0.8121    0.5656   -1.4811 H   0  0  0  0  0  0  0  0  0  0  0  0
   -0.7463    2.1548   -0.4093 H   0  0  0  0  0  0  0  0  0  0  0  0
    0.9407    2.6207   -0.1688 H   0  0  0  0  0  0  0  0  0  0  0  0
  1  2  1  0  0  0  0
  1 36  1  0  0  0  0
  2  3  1  0  0  0  0
  2 10  1  0  0  0  0
  2 35  1  0  0  0  0
  3  4  2  0  0  0  0
  3  9  1  0  0  0  0
  4  5  1  0  0  0  0
  4 37  1  0  0  0  0
  5  6  2  0  0  0  0
  5 38  1  0  0  0  0
  6  7  1  0  0  0  0
  6  8  1  0  0  0  0
  8  9  2  0  0  0  0
  8 39  1  0  0  0  0
  9 40  1  0  0  0  0
 10 11  1  0  0  0  0
 10 41  1  0  0  0  0
 10 42  1  0  0  0  0
 11 12  1  0  0  0  0
 11 43  1  0  0  0  0
 11 44  1  0  0  0  0
 12 13  1  0  0  0  0
 12 34  1  0  0  0  0
 13 14  2  0  0  0  0
 13 33  1  0  0  0  0
 14 15  1  0  0  0  0
 14 45  1  0  0  0  0
 15 16  1  0  0  0  0
 15 30  2  0  0  0  0
 16 17  1  0  0  0  0
 16 46  1  0  0  0  0
 16 47  1  0  0  0  0
 17 18  2  0  0  0  0
 17 19  1  0  0  0  0
 19 20  1  0  0  0  0
 19 48  1  0  0  0  0
 20 21  2  0  0  0  0
 20 29  1  0  0  0  0
 21 22  1  0  0  0  0
 21 49  1  0  0  0  0
 22 23  2  0  0  0  0
 23 24  1  0  0  0  0
 23 50  1  0  0  0  0
 24 25  2  0  0  0  0
 24 29  1  0  0  0  0
 25 26  1  0  0  0  0
 25 51  1  0  0  0  0
 26 27  2  0  0  0  0
 26 52  1  0  0  0  0
 27 28  1  0  0  0  0
 27 53  1  0  0  0  0
 28 29  2  0  0  0  0
 28 54  1  0  0  0  0
 30 31  1  0  0  0  0
 30 55  1  0  0  0  0
 31 32  1  0  0  0  0
 31 33  2  0  0  0  0
 33 56  1  0  0  0  0
 34 35  1  0  0  0  0
 34 57  1  0  0  0  0
 34 58  1  0  0  0  0
 35 59  1  0  0  0  0
 35 60  1  0  0  0  0
M  END
$$$$
