
 OpenBabel07202414193D

 47 50  0  0  0  0  0  0  0  0999 V2000
    2.7134   -0.8211   -1.2014 O   0  0  0  0  0  0  0  0  0  0  0  0
    2.3178    0.1434   -0.5409 C   0  0  0  0  0  0  0  0  0  0  0  0
    0.8665    0.2111   -0.1033 C   0  0  0  0  0  0  0  0  0  0  0  0
    0.5797   -0.2009    1.3179 C   0  0  0  0  0  0  0  0  0  0  0  0
    1.2367   -1.3123    1.8515 C   0  0  0  0  0  0  0  0  0  0  0  0
    0.9670   -1.8500    3.0584 N   0  0  0  0  0  0  0  0  0  0  0  0
   -0.0385   -1.2833    3.7564 C   0  0  0  0  0  0  0  0  0  0  0  0
   -0.7747   -0.1757    3.3394 C   0  0  0  0  0  0  0  0  0  0  0  0
   -1.8280    0.3348    4.1155 C   0  0  0  0  0  0  0  0  0  0  0  0
   -2.5458    1.4551    3.6987 C   0  0  0  0  0  0  0  0  0  0  0  0
   -2.2001    2.0835    2.5108 C   0  0  0  0  0  0  0  0  0  0  0  0
   -1.1675    1.5689    1.7216 C   0  0  0  0  0  0  0  0  0  0  0  0
   -0.4417    0.4107    2.0983 C   0  0  0  0  0  0  0  0  0  0  0  0
    3.1402    1.2187   -0.2340 N   0  0  0  0  0  0  0  0  0  0  0  0
    2.7337    2.3757    0.5581 C   0  0  0  0  0  0  0  0  0  0  0  0
    2.3317    3.5093   -0.3826 C   0  0  0  0  0  0  0  0  0  0  0  0
    3.4981    3.8803   -1.3255 C   0  0  0  0  0  0  0  0  0  0  0  0
    3.9947    2.5962   -2.0529 C   0  0  0  0  0  0  0  0  0  0  0  0
    4.3081    1.4493   -1.0793 C   0  0  0  0  0  0  0  0  0  0  0  0
    4.6481    4.5548   -0.5329 C   0  0  0  0  0  0  0  0  0  0  0  0
    5.1915    5.6181   -1.4734 C   0  0  0  0  0  0  0  0  0  0  0  0
    3.9246    6.1635   -2.0852 C   0  0  0  0  0  0  0  0  0  0  0  0
    3.2992    6.9746   -1.1986 F   0  0  0  0  0  0  0  0  0  0  0  0
    4.1652    6.8796   -3.1974 F   0  0  0  0  0  0  0  0  0  0  0  0
    3.0590    4.9467   -2.3654 C   0  0  0  0  0  0  0  0  0  0  0  0
    0.2911   -0.4481   -0.7660 H   0  0  0  0  0  0  0  0  0  0  0  0
    0.5088    1.2161   -0.3320 H   0  0  0  0  0  0  0  0  0  0  0  0
    2.0145   -1.8362    1.2985 H   0  0  0  0  0  0  0  0  0  0  0  0
   -0.2463   -1.7690    4.7068 H   0  0  0  0  0  0  0  0  0  0  0  0
   -2.1058   -0.1466    5.0524 H   0  0  0  0  0  0  0  0  0  0  0  0
   -3.3644    1.8327    4.3005 H   0  0  0  0  0  0  0  0  0  0  0  0
   -2.7382    2.9722    2.1902 H   0  0  0  0  0  0  0  0  0  0  0  0
   -0.9395    2.1057    0.8062 H   0  0  0  0  0  0  0  0  0  0  0  0
    3.5824    2.6670    1.1885 H   0  0  0  0  0  0  0  0  0  0  0  0
    1.9155    2.1316    1.2350 H   0  0  0  0  0  0  0  0  0  0  0  0
    2.0051    4.3786    0.1997 H   0  0  0  0  0  0  0  0  0  0  0  0
    1.4699    3.1943   -0.9861 H   0  0  0  0  0  0  0  0  0  0  0  0
    4.8765    2.8119   -2.6669 H   0  0  0  0  0  0  0  0  0  0  0  0
    3.2074    2.2566   -2.7405 H   0  0  0  0  0  0  0  0  0  0  0  0
    5.1592    1.6887   -0.4340 H   0  0  0  0  0  0  0  0  0  0  0  0
    4.5746    0.5516   -1.6464 H   0  0  0  0  0  0  0  0  0  0  0  0
    5.4339    3.8664   -0.2147 H   0  0  0  0  0  0  0  0  0  0  0  0
    4.2583    5.0418    0.3713 H   0  0  0  0  0  0  0  0  0  0  0  0
    5.8434    5.1756   -2.2355 H   0  0  0  0  0  0  0  0  0  0  0  0
    5.7550    6.3799   -0.9298 H   0  0  0  0  0  0  0  0  0  0  0  0
    3.2186    4.5992   -3.3921 H   0  0  0  0  0  0  0  0  0  0  0  0
    1.9987    5.2056   -2.2673 H   0  0  0  0  0  0  0  0  0  0  0  0
  1  2  2  0  0  0  0
  2  3  1  0  0  0  0
  2 14  1  0  0  0  0
  3  4  1  0  0  0  0
  3 26  1  0  0  0  0
  3 27  1  0  0  0  0
  4  5  1  0  0  0  0
  4 13  2  0  0  0  0
  5  6  2  0  0  0  0
  5 28  1  0  0  0  0
  6  7  1  0  0  0  0
  7  8  2  0  0  0  0
  7 29  1  0  0  0  0
  8  9  1  0  0  0  0
  8 13  1  0  0  0  0
  9 10  2  0  0  0  0
  9 30  1  0  0  0  0
 10 11  1  0  0  0  0
 10 31  1  0  0  0  0
 11 12  2  0  0  0  0
 11 32  1  0  0  0  0
 12 13  1  0  0  0  0
 12 33  1  0  0  0  0
 14 15  1  0  0  0  0
 14 19  1  0  0  0  0
 15 16  1  0  0  0  0
 15 34  1  0  0  0  0
 15 35  1  0  0  0  0
 16 17  1  0  0  0  0
 16 36  1  0  0  0  0
 16 37  1  0  0  0  0
 17 18  1  0  0  0  0
 17 20  1  0  0  0  0
 17 25  1  0  0  0  0
 18 19  1  0  0  0  0
 18 38  1  0  0  0  0
 18 39  1  0  0  0  0
 19 40  1  0  0  0  0
 19 41  1  0  0  0  0
 20 21  1  0  0  0  0
 20 42  1  0  0  0  0
 20 43  1  0  0  0  0
 21 22  1  0  0  0  0
 21 44  1  0  0  0  0
 21 45  1  0  0  0  0
 22 23  1  0  0  0  0
 22 24  1  0  0  0  0
 22 25  1  0  0  0  0
 25 46  1  0  0  0  0
 25 47  1  0  0  0  0
M  END
$$$$
