
 OpenBabel07202414203D

 34 36  0  0  0  0  0  0  0  0999 V2000
    4.3146   -1.0714   -0.9379 C   0  0  0  0  0  0  0  0  0  0  0  0
    4.4805    0.3050   -1.0104 C   0  0  0  0  0  0  0  0  0  0  0  0
    3.4144    1.1624   -0.7047 C   0  0  0  0  0  0  0  0  0  0  0  0
    2.1389    0.6682   -0.3207 C   0  0  0  0  0  0  0  0  0  0  0  0
    2.0047   -0.7430   -0.2598 C   0  0  0  0  0  0  0  0  0  0  0  0
    3.0823   -1.5935   -0.5621 C   0  0  0  0  0  0  0  0  0  0  0  0
    0.7754   -1.2806    0.1118 C   0  0  0  0  0  0  0  0  0  0  0  0
   -0.3179   -0.5543    0.4036 N   0  0  0  0  0  0  0  0  0  0  0  0
   -0.1775    0.7899    0.3501 C   0  0  0  0  0  0  0  0  0  0  0  0
    1.0028    1.4643    0.0203 C   0  0  0  0  0  0  0  0  0  0  0  0
    1.0711    2.8886    0.0018 N   0  0  0  0  0  0  0  0  0  0  0  0
    0.1356    3.7492    0.5588 C   0  0  0  0  0  0  0  0  0  0  0  0
   -0.8349    3.4129    1.2336 O   0  0  0  0  0  0  0  0  0  0  0  0
    0.4042    5.2216    0.2961 C   0  0  0  0  0  0  0  0  0  0  0  0
    1.2461    5.8918    1.3578 C   0  0  0  0  0  0  0  0  0  0  0  0
    0.8810    5.8346    2.7134 C   0  0  0  0  0  0  0  0  0  0  0  0
    1.6380    6.4987    3.6842 C   0  0  0  0  0  0  0  0  0  0  0  0
    2.7563    7.2317    3.3021 C   0  0  0  0  0  0  0  0  0  0  0  0
    3.1262    7.3090    1.9638 C   0  0  0  0  0  0  0  0  0  0  0  0
    2.3711    6.6457    0.9911 C   0  0  0  0  0  0  0  0  0  0  0  0
    4.4999    8.2263    1.4807 Cl  0  0  0  0  0  0  0  0  0  0  0  0
    3.4661    7.8635    4.2490 F   0  0  0  0  0  0  0  0  0  0  0  0
    5.1405   -1.7391   -1.1715 H   0  0  0  0  0  0  0  0  0  0  0  0
    5.4443    0.7157   -1.3029 H   0  0  0  0  0  0  0  0  0  0  0  0
    3.6087    2.2281   -0.7727 H   0  0  0  0  0  0  0  0  0  0  0  0
    2.9652   -2.6745   -0.5052 H   0  0  0  0  0  0  0  0  0  0  0  0
    0.6263   -2.3551    0.1860 H   0  0  0  0  0  0  0  0  0  0  0  0
   -1.1034    1.3113    0.5677 H   0  0  0  0  0  0  0  0  0  0  0  0
    1.9213    3.3046   -0.3509 H   0  0  0  0  0  0  0  0  0  0  0  0
   -0.5648    5.7348    0.2406 H   0  0  0  0  0  0  0  0  0  0  0  0
    0.8596    5.3311   -0.6953 H   0  0  0  0  0  0  0  0  0  0  0  0
   -0.0037    5.2786    3.0273 H   0  0  0  0  0  0  0  0  0  0  0  0
    1.3558    6.4531    4.7311 H   0  0  0  0  0  0  0  0  0  0  0  0
    2.6574    6.7325   -0.0547 H   0  0  0  0  0  0  0  0  0  0  0  0
  1  2  1  0  0  0  0
  1  6  2  0  0  0  0
  1 23  1  0  0  0  0
  2  3  2  0  0  0  0
  2 24  1  0  0  0  0
  3  4  1  0  0  0  0
  3 25  1  0  0  0  0
  4  5  1  0  0  0  0
  4 10  2  0  0  0  0
  5  6  1  0  0  0  0
  5  7  2  0  0  0  0
  6 26  1  0  0  0  0
  7  8  1  0  0  0  0
  7 27  1  0  0  0  0
  8  9  2  0  0  0  0
  9 10  1  0  0  0  0
  9 28  1  0  0  0  0
 10 11  1  0  0  0  0
 11 12  1  0  0  0  0
 11 29  1  0  0  0  0
 12 13  2  0  0  0  0
 12 14  1  0  0  0  0
 14 15  1  0  0  0  0
 14 30  1  0  0  0  0
 14 31  1  0  0  0  0
 15 16  1  0  0  0  0
 15 20  2  0  0  0  0
 16 17  2  0  0  0  0
 16 32  1  0  0  0  0
 17 18  1  0  0  0  0
 17 33  1  0  0  0  0
 18 19  2  0  0  0  0
 18 22  1  0  0  0  0
 19 20  1  0  0  0  0
 19 21  1  0  0  0  0
 20 34  1  0  0  0  0
M  END
$$$$
