
 OpenBabel07202414123D

 46 48  0  0  0  0  0  0  0  0999 V2000
    0.7033    0.8853    2.3391 C   0  0  0  0  0  0  0  0  0  0  0  0
    2.2179    0.8979    2.5448 C   0  0  0  0  0  0  0  0  0  0  0  0
    2.6468   -0.2893    3.4097 C   0  0  0  0  0  0  0  0  0  0  0  0
    2.9268    0.9085    1.1779 C   0  0  0  0  0  0  0  0  0  0  0  0
    4.3908    0.9098    1.2751 N   0  0  0  0  0  0  0  0  0  0  0  0
    5.0285   -0.3096    1.2899 C   0  0  0  0  0  0  0  0  0  0  0  0
    6.3583   -0.4918    1.2261 C   0  0  0  0  0  0  0  0  0  0  0  0
    6.9070   -1.7718    1.1778 N   0  0  0  0  0  0  0  0  0  0  0  0
    6.2849   -2.8906    0.6376 C   0  0  0  0  0  0  0  0  0  0  0  0
    5.1772   -2.9117    0.1062 O   0  0  0  0  0  0  0  0  0  0  0  0
    7.0593   -4.0257    0.6737 N   0  0  0  0  0  0  0  0  0  0  0  0
    6.4867   -5.2457    0.1238 C   0  0  0  0  0  0  0  0  0  0  0  0
    7.4242   -6.3829    0.2668 C   0  0  0  0  0  0  0  0  0  0  0  0
    8.0379   -7.2384   -0.6266 C   0  0  0  0  0  0  0  0  0  0  0  0
    8.8174   -8.1335    0.1460 C   0  0  0  0  0  0  0  0  0  0  0  0
    8.6209   -7.7756    1.4579 C   0  0  0  0  0  0  0  0  0  0  0  0
    7.7760   -6.7180    1.5435 O   0  0  0  0  0  0  0  0  0  0  0  0
    7.1956    0.7425    1.1648 C   0  0  0  0  0  0  0  0  0  0  0  0
    8.5894    0.7383    0.9836 C   0  0  0  0  0  0  0  0  0  0  0  0
    9.3047    1.9404    0.8340 C   0  0  0  0  0  0  0  0  0  0  0  0
    8.6602    3.1715    0.9221 C   0  0  0  0  0  0  0  0  0  0  0  0
    7.2892    3.2057    1.1354 C   0  0  0  0  0  0  0  0  0  0  0  0
    6.5630    2.0062    1.2153 C   0  0  0  0  0  0  0  0  0  0  0  0
    5.0777    2.1186    1.2767 C   0  0  0  0  0  0  0  0  0  0  0  0
    4.5423    3.2082    1.2930 O   0  0  0  0  0  0  0  0  0  0  0  0
    0.1815    0.9288    3.3013 H   0  0  0  0  0  0  0  0  0  0  0  0
    0.3770   -0.0197    1.8146 H   0  0  0  0  0  0  0  0  0  0  0  0
    0.3883    1.7532    1.7499 H   0  0  0  0  0  0  0  0  0  0  0  0
    2.4669    1.8138    3.0914 H   0  0  0  0  0  0  0  0  0  0  0  0
    2.4155   -1.2444    2.9247 H   0  0  0  0  0  0  0  0  0  0  0  0
    2.1420   -0.2672    4.3801 H   0  0  0  0  0  0  0  0  0  0  0  0
    3.7222   -0.2654    3.6150 H   0  0  0  0  0  0  0  0  0  0  0  0
    2.6336    1.7996    0.6068 H   0  0  0  0  0  0  0  0  0  0  0  0
    2.6061    0.0452    0.5780 H   0  0  0  0  0  0  0  0  0  0  0  0
    4.3514   -1.1530    1.3741 H   0  0  0  0  0  0  0  0  0  0  0  0
    7.8678   -1.8831    1.4565 H   0  0  0  0  0  0  0  0  0  0  0  0
    7.8276   -4.0967    1.3232 H   0  0  0  0  0  0  0  0  0  0  0  0
    6.2589   -5.0637   -0.9341 H   0  0  0  0  0  0  0  0  0  0  0  0
    5.5402   -5.4631    0.6361 H   0  0  0  0  0  0  0  0  0  0  0  0
    7.9453   -7.2213   -1.7051 H   0  0  0  0  0  0  0  0  0  0  0  0
    9.4434   -8.9411   -0.2082 H   0  0  0  0  0  0  0  0  0  0  0  0
    8.9910   -8.1529    2.4006 H   0  0  0  0  0  0  0  0  0  0  0  0
    9.1530   -0.1873    0.9297 H   0  0  0  0  0  0  0  0  0  0  0  0
   10.3748    1.9169    0.6372 H   0  0  0  0  0  0  0  0  0  0  0  0
    9.2123    4.1005    0.8072 H   0  0  0  0  0  0  0  0  0  0  0  0
    6.7769    4.1636    1.2054 H   0  0  0  0  0  0  0  0  0  0  0  0
  1  2  1  0  0  0  0
  1 26  1  0  0  0  0
  1 27  1  0  0  0  0
  1 28  1  0  0  0  0
  2  3  1  0  0  0  0
  2  4  1  0  0  0  0
  2 29  1  0  0  0  0
  3 30  1  0  0  0  0
  3 31  1  0  0  0  0
  3 32  1  0  0  0  0
  4  5  1  0  0  0  0
  4 33  1  0  0  0  0
  4 34  1  0  0  0  0
  5  6  1  0  0  0  0
  5 24  1  0  0  0  0
  6  7  2  0  0  0  0
  6 35  1  0  0  0  0
  7  8  1  0  0  0  0
  7 18  1  0  0  0  0
  8  9  1  0  0  0  0
  8 36  1  0  0  0  0
  9 10  2  0  0  0  0
  9 11  1  0  0  0  0
 11 12  1  0  0  0  0
 11 37  1  0  0  0  0
 12 13  1  0  0  0  0
 12 38  1  0  0  0  0
 12 39  1  0  0  0  0
 13 14  2  0  0  0  0
 13 17  1  0  0  0  0
 14 15  1  0  0  0  0
 14 40  1  0  0  0  0
 15 16  2  0  0  0  0
 15 41  1  0  0  0  0
 16 17  1  0  0  0  0
 16 42  1  0  0  0  0
 18 19  1  0  0  0  0
 18 23  2  0  0  0  0
 19 20  2  0  0  0  0
 19 43  1  0  0  0  0
 20 21  1  0  0  0  0
 20 44  1  0  0  0  0
 21 22  2  0  0  0  0
 21 45  1  0  0  0  0
 22 23  1  0  0  0  0
 22 46  1  0  0  0  0
 23 24  1  0  0  0  0
 24 25  2  0  0  0  0
M  END
$$$$
