
 OpenBabel07202414143D

 65 69  0  0  1  0  0  0  0  0999 V2000
    7.3603    0.7213   -3.9331 C   0  0  0  0  0  0  0  0  0  0  0  0
    5.9130    0.5467   -3.8095 N   0  0  0  0  0  0  0  0  0  0  0  0
    5.1070    1.5592   -2.7257 S   0  0  0  0  0  0  0  0  0  0  0  0
    5.6339    2.8965   -2.8944 O   0  0  0  0  0  0  0  0  0  0  0  0
    3.6924    1.2864   -2.8333 O   0  0  0  0  0  0  0  0  0  0  0  0
    5.6477    0.9557   -1.1613 C   0  0  0  0  0  0  0  0  0  0  0  0
    6.3979    1.7667   -0.3061 C   0  0  0  0  0  0  0  0  0  0  0  0
    6.7673    1.2921    0.9622 C   0  0  0  0  0  0  0  0  0  0  0  0
    7.5881    2.1592    1.8869 C   0  0  0  0  0  0  0  0  0  0  0  0
    9.0178    1.9151    1.6857 N   0  0  0  0  0  0  0  0  0  0  0  0
    9.8211    2.8277    2.5177 C   0  0  0  0  0  0  0  0  0  0  0  0
   11.3661    2.6319    2.3625 C   0  0  3  0  0  0  0  0  0  0  0  0
   11.7717    2.9631    0.8812 C   0  0  0  0  0  0  0  0  0  0  0  0
   10.9388    3.3593    0.0754 O   0  0  0  0  0  0  0  0  0  0  0  0
   13.1158    2.7938    0.5791 N   0  0  0  0  0  0  0  0  0  0  0  0
   13.7431    2.9067   -0.6955 C   0  0  0  0  0  0  0  0  0  0  0  0
   13.0537    3.2177   -1.8684 C   0  0  0  0  0  0  0  0  0  0  0  0
   13.5703    3.1074   -3.1178 N   0  0  0  0  0  0  0  0  0  0  0  0
   14.8719    2.7655   -3.2044 C   0  0  0  0  0  0  0  0  0  0  0  0
   15.7168    2.6257   -2.1106 C   0  0  0  0  0  0  0  0  0  0  0  0
   17.1078    2.4802   -2.2814 C   0  0  0  0  0  0  0  0  0  0  0  0
   17.9486    2.3501   -1.1793 C   0  0  0  0  0  0  0  0  0  0  0  0
   17.4099    2.3140    0.0956 C   0  0  0  0  0  0  0  0  0  0  0  0
   16.0264    2.4612    0.2768 C   0  0  0  0  0  0  0  0  0  0  0  0
   15.1438    2.6563   -0.8149 C   0  0  0  0  0  0  0  0  0  0  0  0
   11.7749    1.1802    2.7276 C   0  0  0  0  0  0  0  0  0  0  0  0
   11.5742    0.9438    4.2144 C   0  0  0  0  0  0  0  0  0  0  0  0
   12.4296    1.7820    4.9938 O   0  0  0  0  0  0  0  0  0  0  0  0
   12.4592    3.0994    4.6221 C   0  0  0  0  0  0  0  0  0  0  0  0
   12.9699    3.9713    5.5827 C   0  0  0  0  0  0  0  0  0  0  0  0
   13.0319    5.3400    5.3311 C   0  0  0  0  0  0  0  0  0  0  0  0
   12.6046    5.8299    4.0966 C   0  0  0  0  0  0  0  0  0  0  0  0
   12.6533    7.5187    3.7871 Cl  0  0  0  0  0  0  0  0  0  0  0  0
   12.1107    4.9597    3.1203 C   0  0  0  0  0  0  0  0  0  0  0  0
   12.0286    3.5758    3.3728 C   0  0  0  0  0  0  0  0  0  0  0  0
    6.3871   -0.0059    1.3423 C   0  0  0  0  0  0  0  0  0  0  0  0
    5.6531   -0.8146    0.4723 C   0  0  0  0  0  0  0  0  0  0  0  0
    5.2889   -0.3308   -0.7799 C   0  0  0  0  0  0  0  0  0  0  0  0
    4.6268   -1.1411   -1.6158 F   0  0  0  0  0  0  0  0  0  0  0  0
    7.7400    0.0157   -4.6776 H   0  0  0  0  0  0  0  0  0  0  0  0
    7.8647    0.5147   -2.9861 H   0  0  0  0  0  0  0  0  0  0  0  0
    7.6001    1.7318   -4.2734 H   0  0  0  0  0  0  0  0  0  0  0  0
    5.5775   -0.4145   -3.7347 H   0  0  0  0  0  0  0  0  0  0  0  0
    6.6925    2.7680   -0.6188 H   0  0  0  0  0  0  0  0  0  0  0  0
    7.3059    1.9436    2.9249 H   0  0  0  0  0  0  0  0  0  0  0  0
    7.3403    3.2123    1.7017 H   0  0  0  0  0  0  0  0  0  0  0  0
    9.2337    2.1404    0.7060 H   0  0  0  0  0  0  0  0  0  0  0  0
    9.5294    2.6907    3.5658 H   0  0  0  0  0  0  0  0  0  0  0  0
    9.5586    3.8652    2.2699 H   0  0  0  0  0  0  0  0  0  0  0  0
   13.7037    2.4596    1.3313 H   0  0  0  0  0  0  0  0  0  0  0  0
   12.0299    3.5784   -1.8707 H   0  0  0  0  0  0  0  0  0  0  0  0
   15.2304    2.6134   -4.2192 H   0  0  0  0  0  0  0  0  0  0  0  0
   17.5467    2.5118   -3.2760 H   0  0  0  0  0  0  0  0  0  0  0  0
   19.0248    2.2873   -1.3173 H   0  0  0  0  0  0  0  0  0  0  0  0
   18.0536    2.1952    0.9609 H   0  0  0  0  0  0  0  0  0  0  0  0
   15.6697    2.4611    1.3012 H   0  0  0  0  0  0  0  0  0  0  0  0
   12.8367    1.0046    2.5073 H   0  0  0  0  0  0  0  0  0  0  0  0
   11.2121    0.4492    2.1395 H   0  0  0  0  0  0  0  0  0  0  0  0
   11.8330   -0.0911    4.4610 H   0  0  0  0  0  0  0  0  0  0  0  0
   10.5378    1.0832    4.5410 H   0  0  0  0  0  0  0  0  0  0  0  0
   13.2975    3.5858    6.5492 H   0  0  0  0  0  0  0  0  0  0  0  0
   13.3964    6.0176    6.0946 H   0  0  0  0  0  0  0  0  0  0  0  0
   11.7664    5.3752    2.1758 H   0  0  0  0  0  0  0  0  0  0  0  0
    6.6690   -0.3920    2.3201 H   0  0  0  0  0  0  0  0  0  0  0  0
    5.3638   -1.8208    0.7629 H   0  0  0  0  0  0  0  0  0  0  0  0
  1  2  1  0  0  0  0
  1 40  1  0  0  0  0
  1 41  1  0  0  0  0
  1 42  1  0  0  0  0
  2  3  1  0  0  0  0
  2 43  1  0  0  0  0
  3  4  2  0  0  0  0
  3  5  2  0  0  0  0
  3  6  1  0  0  0  0
  6  7  1  0  0  0  0
  6 38  2  0  0  0  0
  7  8  2  0  0  0  0
  7 44  1  0  0  0  0
  8  9  1  0  0  0  0
  8 36  1  0  0  0  0
  9 10  1  0  0  0  0
  9 45  1  0  0  0  0
  9 46  1  0  0  0  0
 10 11  1  0  0  0  0
 10 47  1  0  0  0  0
 11 12  1  0  0  0  0
 11 48  1  0  0  0  0
 11 49  1  0  0  0  0
 12 13  1  0  0  0  0
 12 26  1  0  0  0  0
 12 35  1  0  0  0  0
 13 14  2  0  0  0  0
 13 15  1  0  0  0  0
 15 16  1  0  0  0  0
 15 50  1  0  0  0  0
 16 17  1  0  0  0  0
 16 25  2  0  0  0  0
 17 18  2  0  0  0  0
 17 51  1  0  0  0  0
 18 19  1  0  0  0  0
 19 20  2  0  0  0  0
 19 52  1  0  0  0  0
 20 21  1  0  0  0  0
 20 25  1  0  0  0  0
 21 22  2  0  0  0  0
 21 53  1  0  0  0  0
 22 23  1  0  0  0  0
 22 54  1  0  0  0  0
 23 24  2  0  0  0  0
 23 55  1  0  0  0  0
 24 25  1  0  0  0  0
 24 56  1  0  0  0  0
 26 27  1  0  0  0  0
 26 57  1  0  0  0  0
 26 58  1  0  0  0  0
 27 28  1  0  0  0  0
 27 59  1  0  0  0  0
 27 60  1  0  0  0  0
 28 29  1  0  0  0  0
 29 30  1  0  0  0  0
 29 35  2  0  0  0  0
 30 31  2  0  0  0  0
 30 61  1  0  0  0  0
 31 32  1  0  0  0  0
 31 62  1  0  0  0  0
 32 33  1  0  0  0  0
 32 34  2  0  0  0  0
 34 35  1  0  0  0  0
 34 63  1  0  0  0  0
 36 37  2  0  0  0  0
 36 64  1  0  0  0  0
 37 38  1  0  0  0  0
 37 65  1  0  0  0  0
 38 39  1  0  0  0  0
M  END
$$$$
