
 OpenBabel07202414113D

 62 66  0  0  0  0  0  0  0  0999 V2000
    3.7564   -8.7627    2.8637 C   0  0  0  0  0  0  0  0  0  0  0  0
    4.5527   -7.7858    2.4090 C   0  0  0  0  0  0  0  0  0  0  0  0
    4.5061   -6.4373    3.0462 C   0  0  0  0  0  0  0  0  0  0  0  0
    3.7116   -6.2004    3.9459 O   0  0  0  0  0  0  0  0  0  0  0  0
    5.4576   -5.5763    2.5381 N   0  0  0  0  0  0  0  0  0  0  0  0
    5.6726   -4.2454    2.9751 C   0  0  0  0  0  0  0  0  0  0  0  0
    4.7258   -3.5021    3.6650 C   0  0  0  0  0  0  0  0  0  0  0  0
    5.0404   -2.2203    4.1458 C   0  0  0  0  0  0  0  0  0  0  0  0
    6.3255   -1.7023    3.9757 C   0  0  0  0  0  0  0  0  0  0  0  0
    7.2911   -2.4477    3.2941 C   0  0  0  0  0  0  0  0  0  0  0  0
    8.6809   -2.0615    3.2911 N   0  0  0  0  0  0  0  0  0  0  0  0
    9.0916   -0.6645    3.0481 C   0  0  0  0  0  0  0  0  0  0  0  0
    8.1419    0.2923    2.3491 C   0  0  0  0  0  0  0  0  0  0  0  0
    7.4734   -0.0572    1.1682 C   0  0  0  0  0  0  0  0  0  0  0  0
    6.5307    0.8059    0.6052 C   0  0  0  0  0  0  0  0  0  0  0  0
    6.2710    2.0451    1.1916 C   0  0  0  0  0  0  0  0  0  0  0  0
    6.9850    2.4541    2.3224 C   0  0  0  0  0  0  0  0  0  0  0  0
    6.7261    3.7476    2.9279 C   0  0  0  0  0  0  0  0  0  0  0  0
    7.6148    4.7860    3.3205 C   0  0  0  0  0  0  0  0  0  0  0  0
    6.8339    5.7897    3.8445 C   0  0  0  0  0  0  0  0  0  0  0  0
    5.5233    5.4357    3.8125 O   0  0  0  0  0  0  0  0  0  0  0  0
    5.4633    4.1983    3.2555 C   0  0  0  0  0  0  0  0  0  0  0  0
    7.9341    1.5834    2.8802 C   0  0  0  0  0  0  0  0  0  0  0  0
    9.5826   -3.0280    3.7968 C   0  0  0  0  0  0  0  0  0  0  0  0
    9.2987   -4.2196    3.9656 O   0  0  0  0  0  0  0  0  0  0  0  0
   10.9781   -2.5903    4.2067 C   0  0  0  0  0  0  0  0  0  0  0  0
   12.0681   -2.7889    3.1809 C   0  0  0  0  0  0  0  0  0  0  0  0
   11.7631   -3.0427    1.8428 C   0  0  0  0  0  0  0  0  0  0  0  0
   12.6673   -3.0605    0.8452 N   0  0  0  0  0  0  0  0  0  0  0  0
   13.9579   -2.9017    1.1978 C   0  0  0  0  0  0  0  0  0  0  0  0
   14.4093   -2.7779    2.5097 C   0  0  0  0  0  0  0  0  0  0  0  0
   15.7817   -2.7612    2.8154 C   0  0  0  0  0  0  0  0  0  0  0  0
   16.2160   -2.6670    4.1343 C   0  0  0  0  0  0  0  0  0  0  0  0
   15.2835   -2.5303    5.1547 C   0  0  0  0  0  0  0  0  0  0  0  0
   13.9168   -2.5244    4.8589 C   0  0  0  0  0  0  0  0  0  0  0  0
   13.4413   -2.6877    3.5349 C   0  0  0  0  0  0  0  0  0  0  0  0
    6.9242   -3.6825    2.7385 C   0  0  0  0  0  0  0  0  0  0  0  0
    3.7519   -9.7476    2.4095 H   0  0  0  0  0  0  0  0  0  0  0  0
    3.0861   -8.5989    3.7042 H   0  0  0  0  0  0  0  0  0  0  0  0
    5.2167   -7.9571    1.5701 H   0  0  0  0  0  0  0  0  0  0  0  0
    6.1842   -5.9749    1.9559 H   0  0  0  0  0  0  0  0  0  0  0  0
    3.7280   -3.8832    3.8552 H   0  0  0  0  0  0  0  0  0  0  0  0
    4.2873   -1.6660    4.6956 H   0  0  0  0  0  0  0  0  0  0  0  0
    6.5572   -0.7512    4.4458 H   0  0  0  0  0  0  0  0  0  0  0  0
    9.9986   -0.7034    2.4335 H   0  0  0  0  0  0  0  0  0  0  0  0
    9.3851   -0.2403    4.0152 H   0  0  0  0  0  0  0  0  0  0  0  0
    7.6503   -1.0223    0.6977 H   0  0  0  0  0  0  0  0  0  0  0  0
    5.9822    0.5047   -0.2841 H   0  0  0  0  0  0  0  0  0  0  0  0
    5.5164    2.6918    0.7492 H   0  0  0  0  0  0  0  0  0  0  0  0
    8.6905    4.8110    3.2180 H   0  0  0  0  0  0  0  0  0  0  0  0
    7.0414    6.7660    4.2612 H   0  0  0  0  0  0  0  0  0  0  0  0
    4.4714    3.7775    3.1681 H   0  0  0  0  0  0  0  0  0  0  0  0
    8.4902    1.9009    3.7607 H   0  0  0  0  0  0  0  0  0  0  0  0
   11.2089   -3.2026    5.0892 H   0  0  0  0  0  0  0  0  0  0  0  0
   10.9835   -1.5543    4.5552 H   0  0  0  0  0  0  0  0  0  0  0  0
   10.7485   -3.2432    1.5075 H   0  0  0  0  0  0  0  0  0  0  0  0
   14.6524   -2.8876    0.3619 H   0  0  0  0  0  0  0  0  0  0  0  0
   16.5228   -2.8632    2.0236 H   0  0  0  0  0  0  0  0  0  0  0  0
   17.2768   -2.7092    4.3655 H   0  0  0  0  0  0  0  0  0  0  0  0
   15.6159   -2.4452    6.1869 H   0  0  0  0  0  0  0  0  0  0  0  0
   13.2266   -2.4258    5.6934 H   0  0  0  0  0  0  0  0  0  0  0  0
    7.6659   -4.2503    2.1802 H   0  0  0  0  0  0  0  0  0  0  0  0
  1  2  2  0  0  0  0
  1 38  1  0  0  0  0
  1 39  1  0  0  0  0
  2  3  1  0  0  0  0
  2 40  1  0  0  0  0
  3  4  2  0  0  0  0
  3  5  1  0  0  0  0
  5  6  1  0  0  0  0
  5 41  1  0  0  0  0
  6  7  1  0  0  0  0
  6 37  2  0  0  0  0
  7  8  2  0  0  0  0
  7 42  1  0  0  0  0
  8  9  1  0  0  0  0
  8 43  1  0  0  0  0
  9 10  2  0  0  0  0
  9 44  1  0  0  0  0
 10 11  1  0  0  0  0
 10 37  1  0  0  0  0
 11 12  1  0  0  0  0
 11 24  1  0  0  0  0
 12 13  1  0  0  0  0
 12 45  1  0  0  0  0
 12 46  1  0  0  0  0
 13 14  1  0  0  0  0
 13 23  2  0  0  0  0
 14 15  2  0  0  0  0
 14 47  1  0  0  0  0
 15 16  1  0  0  0  0
 15 48  1  0  0  0  0
 16 17  2  0  0  0  0
 16 49  1  0  0  0  0
 17 18  1  0  0  0  0
 17 23  1  0  0  0  0
 18 19  1  0  0  0  0
 18 22  2  0  0  0  0
 19 20  2  0  0  0  0
 19 50  1  0  0  0  0
 20 21  1  0  0  0  0
 20 51  1  0  0  0  0
 21 22  1  0  0  0  0
 22 52  1  0  0  0  0
 23 53  1  0  0  0  0
 24 25  2  0  0  0  0
 24 26  1  0  0  0  0
 26 27  1  0  0  0  0
 26 54  1  0  0  0  0
 26 55  1  0  0  0  0
 27 28  1  0  0  0  0
 27 36  2  0  0  0  0
 28 29  2  0  0  0  0
 28 56  1  0  0  0  0
 29 30  1  0  0  0  0
 30 31  2  0  0  0  0
 30 57  1  0  0  0  0
 31 32  1  0  0  0  0
 31 36  1  0  0  0  0
 32 33  2  0  0  0  0
 32 58  1  0  0  0  0
 33 34  1  0  0  0  0
 33 59  1  0  0  0  0
 34 35  2  0  0  0  0
 34 60  1  0  0  0  0
 35 36  1  0  0  0  0
 35 61  1  0  0  0  0
 37 62  1  0  0  0  0
M  END
$$$$
