
 OpenBabel07202414133D

 57 60  0  0  0  0  0  0  0  0999 V2000
    1.4293   -2.6072    0.3424 C   0  0  0  0  0  0  0  0  0  0  0  0
    2.0777   -1.5027   -0.4675 C   0  0  0  0  0  0  0  0  0  0  0  0
    3.7330   -1.9823   -0.9521 S   0  0  0  0  0  0  0  0  0  0  0  0
    4.5139   -2.1679    0.2573 O   0  0  0  0  0  0  0  0  0  0  0  0
    3.6314   -3.0312   -1.9382 O   0  0  0  0  0  0  0  0  0  0  0  0
    4.3116   -0.5774   -1.7109 N   0  0  0  0  0  0  0  0  0  0  0  0
    3.6629   -0.1791   -3.0091 C   0  0  0  0  0  0  0  0  0  0  0  0
    4.1379   -1.0286   -4.2088 C   0  0  0  0  0  0  0  0  0  0  0  0
    5.6071   -0.9978   -4.2665 N   0  0  0  0  0  0  0  0  0  0  0  0
    6.2797   -1.1856   -5.4608 C   0  0  0  0  0  0  0  0  0  0  0  0
    7.5627   -0.6285   -5.6105 C   0  0  0  0  0  0  0  0  0  0  0  0
    8.2929   -0.7385   -6.8007 C   0  0  0  0  0  0  0  0  0  0  0  0
    9.7026   -0.2036   -6.8802 C   0  0  0  0  0  0  0  0  0  0  0  0
    9.8720    1.2765   -6.5867 C   0  0  0  0  0  0  0  0  0  0  0  0
   10.6794    1.6675   -5.7464 O   0  0  0  0  0  0  0  0  0  0  0  0
    9.0813    2.1103   -7.3573 N   0  0  0  0  0  0  0  0  0  0  0  0
    9.1478    3.5214   -7.2322 C   0  0  0  0  0  0  0  0  0  0  0  0
   10.3759    4.1841   -7.2725 C   0  0  0  0  0  0  0  0  0  0  0  0
   10.5212    5.5282   -7.2144 N   0  0  0  0  0  0  0  0  0  0  0  0
    9.3863    6.2444   -7.0725 C   0  0  0  0  0  0  0  0  0  0  0  0
    8.1023    5.6968   -6.9954 C   0  0  0  0  0  0  0  0  0  0  0  0
    6.9671    6.5016   -6.8051 C   0  0  0  0  0  0  0  0  0  0  0  0
    5.7004    5.9316   -6.6886 C   0  0  0  0  0  0  0  0  0  0  0  0
    5.5556    4.5502   -6.7595 C   0  0  0  0  0  0  0  0  0  0  0  0
    6.6740    3.7400   -6.9572 C   0  0  0  0  0  0  0  0  0  0  0  0
    7.9716    4.2894   -7.0884 C   0  0  0  0  0  0  0  0  0  0  0  0
    7.7161   -1.4218   -7.8752 C   0  0  0  0  0  0  0  0  0  0  0  0
    6.4452   -1.9813   -7.7450 C   0  0  0  0  0  0  0  0  0  0  0  0
    5.7546   -2.8388   -9.0695 Cl  0  0  0  0  0  0  0  0  0  0  0  0
    5.7309   -1.8646   -6.5520 C   0  0  0  0  0  0  0  0  0  0  0  0
    6.2675   -1.4627   -3.0253 C   0  0  0  0  0  0  0  0  0  0  0  0
    5.8136   -0.5542   -1.8679 C   0  0  0  0  0  0  0  0  0  0  0  0
    0.4181   -2.3198    0.6419 H   0  0  0  0  0  0  0  0  0  0  0  0
    2.0099   -2.8233    1.2448 H   0  0  0  0  0  0  0  0  0  0  0  0
    1.3674   -3.5320   -0.2409 H   0  0  0  0  0  0  0  0  0  0  0  0
    2.1534   -0.5824    0.1179 H   0  0  0  0  0  0  0  0  0  0  0  0
    1.4962   -1.3197   -1.3744 H   0  0  0  0  0  0  0  0  0  0  0  0
    3.9321    0.8713   -3.1920 H   0  0  0  0  0  0  0  0  0  0  0  0
    2.5743   -0.1980   -2.9241 H   0  0  0  0  0  0  0  0  0  0  0  0
    3.7053   -0.5877   -5.1151 H   0  0  0  0  0  0  0  0  0  0  0  0
    3.7749   -2.0587   -4.1438 H   0  0  0  0  0  0  0  0  0  0  0  0
    7.9960   -0.0795   -4.7744 H   0  0  0  0  0  0  0  0  0  0  0  0
   10.1365   -0.3919   -7.8683 H   0  0  0  0  0  0  0  0  0  0  0  0
   10.3101   -0.7599   -6.1544 H   0  0  0  0  0  0  0  0  0  0  0  0
    8.2111    1.7152   -7.6880 H   0  0  0  0  0  0  0  0  0  0  0  0
   11.3089    3.6401   -7.3971 H   0  0  0  0  0  0  0  0  0  0  0  0
    9.5434    7.3183   -7.0038 H   0  0  0  0  0  0  0  0  0  0  0  0
    7.0654    7.5834   -6.7269 H   0  0  0  0  0  0  0  0  0  0  0  0
    4.8311    6.5616   -6.5276 H   0  0  0  0  0  0  0  0  0  0  0  0
    4.5738    4.0981   -6.6468 H   0  0  0  0  0  0  0  0  0  0  0  0
    6.5168    2.6645   -6.9663 H   0  0  0  0  0  0  0  0  0  0  0  0
    8.2595   -1.5399   -8.8094 H   0  0  0  0  0  0  0  0  0  0  0  0
    4.7556   -2.3358   -6.4745 H   0  0  0  0  0  0  0  0  0  0  0  0
    7.3603   -1.4269   -3.0891 H   0  0  0  0  0  0  0  0  0  0  0  0
    6.0024   -2.5094   -2.8342 H   0  0  0  0  0  0  0  0  0  0  0  0
    6.1129    0.4809   -2.0789 H   0  0  0  0  0  0  0  0  0  0  0  0
    6.3079   -0.8304   -0.9315 H   0  0  0  0  0  0  0  0  0  0  0  0
  1  2  1  0  0  0  0
  1 33  1  0  0  0  0
  1 34  1  0  0  0  0
  1 35  1  0  0  0  0
  2  3  1  0  0  0  0
  2 36  1  0  0  0  0
  2 37  1  0  0  0  0
  3  4  2  0  0  0  0
  3  5  2  0  0  0  0
  3  6  1  0  0  0  0
  6  7  1  0  0  0  0
  6 32  1  0  0  0  0
  7  8  1  0  0  0  0
  7 38  1  0  0  0  0
  7 39  1  0  0  0  0
  8  9  1  0  0  0  0
  8 40  1  0  0  0  0
  8 41  1  0  0  0  0
  9 10  1  0  0  0  0
  9 31  1  0  0  0  0
 10 11  2  0  0  0  0
 10 30  1  0  0  0  0
 11 12  1  0  0  0  0
 11 42  1  0  0  0  0
 12 13  1  0  0  0  0
 12 27  2  0  0  0  0
 13 14  1  0  0  0  0
 13 43  1  0  0  0  0
 13 44  1  0  0  0  0
 14 15  2  0  0  0  0
 14 16  1  0  0  0  0
 16 17  1  0  0  0  0
 16 45  1  0  0  0  0
 17 18  2  0  0  0  0
 17 26  1  0  0  0  0
 18 19  1  0  0  0  0
 18 46  1  0  0  0  0
 19 20  2  0  0  0  0
 20 21  1  0  0  0  0
 20 47  1  0  0  0  0
 21 22  2  0  0  0  0
 21 26  1  0  0  0  0
 22 23  1  0  0  0  0
 22 48  1  0  0  0  0
 23 24  2  0  0  0  0
 23 49  1  0  0  0  0
 24 25  1  0  0  0  0
 24 50  1  0  0  0  0
 25 26  2  0  0  0  0
 25 51  1  0  0  0  0
 27 28  1  0  0  0  0
 27 52  1  0  0  0  0
 28 29  1  0  0  0  0
 28 30  2  0  0  0  0
 30 53  1  0  0  0  0
 31 32  1  0  0  0  0
 31 54  1  0  0  0  0
 31 55  1  0  0  0  0
 32 56  1  0  0  0  0
 32 57  1  0  0  0  0
M  END
$$$$
