
 OpenBabel07202414123D

 43 46  0  0  1  0  0  0  0  0999 V2000
    1.1275    0.2729   -0.0964 C   0  0  0  0  0  0  0  0  0  0  0  0
    2.6738    0.3120   -0.1844 C   0  0  3  0  0  0  0  0  0  0  0  0
    3.0769    1.0466   -1.4980 C   0  0  0  0  0  0  0  0  0  0  0  0
    2.2246    1.4191   -2.3002 O   0  0  0  0  0  0  0  0  0  0  0  0
    4.4420    1.2100   -1.6817 N   0  0  0  0  0  0  0  0  0  0  0  0
    5.1022    1.7227   -2.8378 C   0  0  0  0  0  0  0  0  0  0  0  0
    4.4193    2.1966   -3.9606 C   0  0  0  0  0  0  0  0  0  0  0  0
    5.0064    2.5501   -5.1297 N   0  0  0  0  0  0  0  0  0  0  0  0
    6.3494    2.4758   -5.1804 C   0  0  0  0  0  0  0  0  0  0  0  0
    7.1569    2.1275   -4.1010 C   0  0  0  0  0  0  0  0  0  0  0  0
    8.5603    2.1802   -4.2079 C   0  0  0  0  0  0  0  0  0  0  0  0
    9.3647    1.8552   -3.1212 C   0  0  0  0  0  0  0  0  0  0  0  0
    8.7701    1.4527   -1.9390 C   0  0  0  0  0  0  0  0  0  0  0  0
    9.5327    1.1335   -0.8890 F   0  0  0  0  0  0  0  0  0  0  0  0
    7.3828    1.3835   -1.8145 C   0  0  0  0  0  0  0  0  0  0  0  0
    6.5291    1.7321   -2.8910 C   0  0  0  0  0  0  0  0  0  0  0  0
    3.1920   -1.1420   -0.2989 C   0  0  0  0  0  0  0  0  0  0  0  0
    2.8434   -1.9019    0.9211 N   0  0  0  0  0  0  0  0  0  0  0  0
    3.7260   -1.4357    2.2805 S   0  0  0  0  0  0  0  0  0  0  0  0
    3.0158   -1.9098    3.4408 O   0  0  0  0  0  0  0  0  0  0  0  0
    5.1039   -1.7835    2.0147 O   0  0  0  0  0  0  0  0  0  0  0  0
    3.6282    0.3363    2.2264 C   0  0  0  0  0  0  0  0  0  0  0  0
    4.0120    1.0187    3.3915 C   0  0  0  0  0  0  0  0  0  0  0  0
    3.9566    2.4102    3.4332 C   0  0  0  0  0  0  0  0  0  0  0  0
    3.5140    3.1135    2.3175 C   0  0  0  0  0  0  0  0  0  0  0  0
    3.4267    4.8300    2.3722 Cl  0  0  0  0  0  0  0  0  0  0  0  0
    3.1242    2.4369    1.1571 C   0  0  0  0  0  0  0  0  0  0  0  0
    3.1822    1.0292    1.0794 C   0  0  0  0  0  0  0  0  0  0  0  0
    0.6984   -0.2861   -0.9369 H   0  0  0  0  0  0  0  0  0  0  0  0
    0.6965    1.2805   -0.1234 H   0  0  0  0  0  0  0  0  0  0  0  0
    0.7811   -0.2013    0.8291 H   0  0  0  0  0  0  0  0  0  0  0  0
    5.0417    0.8888   -0.9347 H   0  0  0  0  0  0  0  0  0  0  0  0
    3.3424    2.3250   -3.9839 H   0  0  0  0  0  0  0  0  0  0  0  0
    6.7743    2.7248   -6.1507 H   0  0  0  0  0  0  0  0  0  0  0  0
    9.0343    2.5001   -5.1347 H   0  0  0  0  0  0  0  0  0  0  0  0
   10.4463    1.9217   -3.1840 H   0  0  0  0  0  0  0  0  0  0  0  0
    7.0049    1.0735   -0.8483 H   0  0  0  0  0  0  0  0  0  0  0  0
    4.2761   -1.1942   -0.4607 H   0  0  0  0  0  0  0  0  0  0  0  0
    2.7394   -1.6485   -1.1598 H   0  0  0  0  0  0  0  0  0  0  0  0
    2.9277   -2.9135    0.8065 H   0  0  0  0  0  0  0  0  0  0  0  0
    4.3457    0.4674    4.2699 H   0  0  0  0  0  0  0  0  0  0  0  0
    4.2509    2.9363    4.3383 H   0  0  0  0  0  0  0  0  0  0  0  0
    2.7521    3.0232    0.3165 H   0  0  0  0  0  0  0  0  0  0  0  0
  1  2  1  0  0  0  0
  1 29  1  0  0  0  0
  1 30  1  0  0  0  0
  1 31  1  0  0  0  0
  2  3  1  0  0  0  0
  2 17  1  0  0  0  0
  2 28  1  0  0  0  0
  3  4  2  0  0  0  0
  3  5  1  0  0  0  0
  5  6  1  0  0  0  0
  5 32  1  0  0  0  0
  6  7  1  0  0  0  0
  6 16  2  0  0  0  0
  7  8  2  0  0  0  0
  7 33  1  0  0  0  0
  8  9  1  0  0  0  0
  9 10  2  0  0  0  0
  9 34  1  0  0  0  0
 10 11  1  0  0  0  0
 10 16  1  0  0  0  0
 11 12  2  0  0  0  0
 11 35  1  0  0  0  0
 12 13  1  0  0  0  0
 12 36  1  0  0  0  0
 13 14  1  0  0  0  0
 13 15  2  0  0  0  0
 15 16  1  0  0  0  0
 15 37  1  0  0  0  0
 17 18  1  0  0  0  0
 17 38  1  0  0  0  0
 17 39  1  0  0  0  0
 18 19  1  0  0  0  0
 18 40  1  0  0  0  0
 19 20  2  0  0  0  0
 19 21  2  0  0  0  0
 19 22  1  0  0  0  0
 22 23  1  0  0  0  0
 22 28  2  0  0  0  0
 23 24  2  0  0  0  0
 23 41  1  0  0  0  0
 24 25  1  0  0  0  0
 24 42  1  0  0  0  0
 25 26  1  0  0  0  0
 25 27  2  0  0  0  0
 27 28  1  0  0  0  0
 27 43  1  0  0  0  0
M  END
$$$$
