
 OpenBabel07202414123D

 40 43  0  0  1  0  0  0  0  0999 V2000
    1.0572    0.2411   -0.5195 C   0  0  0  0  0  0  0  0  0  0  0  0
    2.5881    0.1426   -0.5632 C   0  0  3  0  0  0  0  0  0  0  0  0
    3.1167    0.3372   -1.9949 C   0  0  0  0  0  0  0  0  0  0  0  0
    2.3447    0.5498   -2.9304 O   0  0  0  0  0  0  0  0  0  0  0  0
    4.4956    0.2679   -2.1083 N   0  0  0  0  0  0  0  0  0  0  0  0
    5.2716    0.3022   -3.2969 C   0  0  0  0  0  0  0  0  0  0  0  0
    4.7072    0.3986   -4.5717 C   0  0  0  0  0  0  0  0  0  0  0  0
    5.3940    0.2693   -5.7319 N   0  0  0  0  0  0  0  0  0  0  0  0
    6.7213    0.0669   -5.6251 C   0  0  0  0  0  0  0  0  0  0  0  0
    7.4238    0.0561   -4.4210 C   0  0  0  0  0  0  0  0  0  0  0  0
    8.8262   -0.0647   -4.4030 C   0  0  0  0  0  0  0  0  0  0  0  0
    9.5288   -0.0281   -3.2025 C   0  0  0  0  0  0  0  0  0  0  0  0
    8.8350    0.1023   -2.0063 C   0  0  0  0  0  0  0  0  0  0  0  0
    7.4393    0.1974   -2.0107 C   0  0  0  0  0  0  0  0  0  0  0  0
    6.6901    0.1820   -3.2169 C   0  0  0  0  0  0  0  0  0  0  0  0
    3.2214    1.1836    0.4007 C   0  0  0  0  0  0  0  0  0  0  0  0
    4.1640    0.4809    1.3045 N   0  0  0  0  0  0  0  0  0  0  0  0
    3.8261   -0.8807    1.1802 C   0  0  0  0  0  0  0  0  0  0  0  0
    4.2875   -1.9018    1.9962 C   0  0  0  0  0  0  0  0  0  0  0  0
    3.9208   -3.2150    1.6926 C   0  0  0  0  0  0  0  0  0  0  0  0
    3.1349   -3.4869    0.5627 C   0  0  0  0  0  0  0  0  0  0  0  0
    2.7051   -5.1150    0.2033 Cl  0  0  0  0  0  0  0  0  0  0  0  0
    2.6857   -2.4558   -0.2628 C   0  0  0  0  0  0  0  0  0  0  0  0
    3.0255   -1.1536    0.0738 C   0  0  0  0  0  0  0  0  0  0  0  0
    0.7115    1.2118   -0.8908 H   0  0  0  0  0  0  0  0  0  0  0  0
    0.6777    0.1172    0.5025 H   0  0  0  0  0  0  0  0  0  0  0  0
    0.5870   -0.5352   -1.1350 H   0  0  0  0  0  0  0  0  0  0  0  0
    4.9946    0.0675   -1.2490 H   0  0  0  0  0  0  0  0  0  0  0  0
    3.6499    0.5795   -4.7305 H   0  0  0  0  0  0  0  0  0  0  0  0
    7.2281   -0.0804   -6.5759 H   0  0  0  0  0  0  0  0  0  0  0  0
    9.3812   -0.1587   -5.3358 H   0  0  0  0  0  0  0  0  0  0  0  0
   10.6131   -0.0877   -3.2020 H   0  0  0  0  0  0  0  0  0  0  0  0
    9.3778    0.1406   -1.0648 H   0  0  0  0  0  0  0  0  0  0  0  0
    6.9560    0.3180   -1.0451 H   0  0  0  0  0  0  0  0  0  0  0  0
    2.4588    1.6804    1.0138 H   0  0  0  0  0  0  0  0  0  0  0  0
    3.7634    1.9768   -0.1287 H   0  0  0  0  0  0  0  0  0  0  0  0
    4.1174    0.7891    2.2755 H   0  0  0  0  0  0  0  0  0  0  0  0
    4.9109   -1.6901    2.8591 H   0  0  0  0  0  0  0  0  0  0  0  0
    4.2507   -4.0264    2.3362 H   0  0  0  0  0  0  0  0  0  0  0  0
    2.0724   -2.6699   -1.1337 H   0  0  0  0  0  0  0  0  0  0  0  0
  1  2  1  0  0  0  0
  1 25  1  0  0  0  0
  1 26  1  0  0  0  0
  1 27  1  0  0  0  0
  2  3  1  0  0  0  0
  2 16  1  0  0  0  0
  2 24  1  0  0  0  0
  3  4  2  0  0  0  0
  3  5  1  0  0  0  0
  5  6  1  0  0  0  0
  5 28  1  0  0  0  0
  6  7  1  0  0  0  0
  6 15  2  0  0  0  0
  7  8  2  0  0  0  0
  7 29  1  0  0  0  0
  8  9  1  0  0  0  0
  9 10  2  0  0  0  0
  9 30  1  0  0  0  0
 10 11  1  0  0  0  0
 10 15  1  0  0  0  0
 11 12  2  0  0  0  0
 11 31  1  0  0  0  0
 12 13  1  0  0  0  0
 12 32  1  0  0  0  0
 13 14  2  0  0  0  0
 13 33  1  0  0  0  0
 14 15  1  0  0  0  0
 14 34  1  0  0  0  0
 16 17  1  0  0  0  0
 16 35  1  0  0  0  0
 16 36  1  0  0  0  0
 17 18  1  0  0  0  0
 17 37  1  0  0  0  0
 18 19  1  0  0  0  0
 18 24  2  0  0  0  0
 19 20  2  0  0  0  0
 19 38  1  0  0  0  0
 20 21  1  0  0  0  0
 20 39  1  0  0  0  0
 21 22  1  0  0  0  0
 21 23  2  0  0  0  0
 23 24  1  0  0  0  0
 23 40  1  0  0  0  0
M  END
$$$$
