
 OpenBabel07202414183D

 46 49  0  0  0  0  0  0  0  0999 V2000
    4.9021   -2.7282   -0.6946 F   0  0  0  0  0  0  0  0  0  0  0  0
    4.3831   -1.4915   -0.7409 C   0  0  0  0  0  0  0  0  0  0  0  0
    5.1974   -0.4477   -1.1987 C   0  0  0  0  0  0  0  0  0  0  0  0
    4.6703    0.8356   -1.2507 C   0  0  0  0  0  0  0  0  0  0  0  0
    5.4568    1.8336   -1.6823 F   0  0  0  0  0  0  0  0  0  0  0  0
    3.3577    1.0871   -0.8635 C   0  0  0  0  0  0  0  0  0  0  0  0
    2.7020    2.6748   -0.9397 Cl  0  0  0  0  0  0  0  0  0  0  0  0
    2.5532    0.0339   -0.4230 C   0  0  0  0  0  0  0  0  0  0  0  0
    3.0549   -1.2801   -0.3641 C   0  0  0  0  0  0  0  0  0  0  0  0
    2.2416   -2.3708    0.0230 N   0  0  0  0  0  0  0  0  0  0  0  0
    0.8487   -2.5360   -0.1470 C   0  0  0  0  0  0  0  0  0  0  0  0
    0.1789   -1.9511   -1.2253 C   0  0  0  0  0  0  0  0  0  0  0  0
   -1.2035   -2.0349   -1.3267 C   0  0  0  0  0  0  0  0  0  0  0  0
   -2.0065   -1.2677   -2.6402 Cl  0  0  0  0  0  0  0  0  0  0  0  0
   -1.9462   -2.6951   -0.3527 C   0  0  0  0  0  0  0  0  0  0  0  0
   -1.3062   -3.3015    0.7408 C   0  0  0  0  0  0  0  0  0  0  0  0
   -2.1572   -3.9054    1.8470 C   0  0  0  0  0  0  0  0  0  0  0  0
   -1.9419   -5.3644    2.1562 C   0  0  0  0  0  0  0  0  0  0  0  0
   -1.8380   -5.7587    3.3151 O   0  0  0  0  0  0  0  0  0  0  0  0
   -1.9374   -6.2067    1.0579 N   0  0  0  0  0  0  0  0  0  0  0  0
   -1.1746   -7.4032    0.9804 C   0  0  0  0  0  0  0  0  0  0  0  0
   -0.1287   -7.6363    1.8681 C   0  0  0  0  0  0  0  0  0  0  0  0
    1.0109   -8.2630    1.5126 N   0  0  0  0  0  0  0  0  0  0  0  0
    1.0433   -8.7582    0.2499 C   0  0  0  0  0  0  0  0  0  0  0  0
   -0.0621   -8.8390   -0.5985 C   0  0  0  0  0  0  0  0  0  0  0  0
   -0.0412   -9.5597   -1.8085 C   0  0  0  0  0  0  0  0  0  0  0  0
   -1.1990   -9.7049   -2.5668 C   0  0  0  0  0  0  0  0  0  0  0  0
   -2.3830   -9.1033   -2.1534 C   0  0  0  0  0  0  0  0  0  0  0  0
   -2.3949   -8.3142   -0.9985 C   0  0  0  0  0  0  0  0  0  0  0  0
   -1.2312   -8.1655   -0.2070 C   0  0  0  0  0  0  0  0  0  0  0  0
    0.0983   -3.2262    0.8239 C   0  0  0  0  0  0  0  0  0  0  0  0
    6.2227   -0.6357   -1.4844 H   0  0  0  0  0  0  0  0  0  0  0  0
    1.5305    0.2412   -0.1129 H   0  0  0  0  0  0  0  0  0  0  0  0
    2.7479   -3.2124    0.2661 H   0  0  0  0  0  0  0  0  0  0  0  0
    0.7372   -1.4290   -1.9959 H   0  0  0  0  0  0  0  0  0  0  0  0
   -3.0305   -2.7045   -0.4319 H   0  0  0  0  0  0  0  0  0  0  0  0
   -3.2219   -3.7706    1.6299 H   0  0  0  0  0  0  0  0  0  0  0  0
   -1.9534   -3.3246    2.7649 H   0  0  0  0  0  0  0  0  0  0  0  0
   -2.1355   -5.7984    0.1486 H   0  0  0  0  0  0  0  0  0  0  0  0
   -0.1160   -7.2392    2.8784 H   0  0  0  0  0  0  0  0  0  0  0  0
    2.0162   -9.1243   -0.0602 H   0  0  0  0  0  0  0  0  0  0  0  0
    0.8738  -10.0471   -2.1327 H   0  0  0  0  0  0  0  0  0  0  0  0
   -1.1822  -10.3171   -3.4640 H   0  0  0  0  0  0  0  0  0  0  0  0
   -3.2984   -9.2578   -2.7215 H   0  0  0  0  0  0  0  0  0  0  0  0
   -3.3426   -7.8823   -0.6759 H   0  0  0  0  0  0  0  0  0  0  0  0
    0.6086   -3.6557    1.6871 H   0  0  0  0  0  0  0  0  0  0  0  0
  1  2  1  0  0  0  0
  2  3  2  0  0  0  0
  2  9  1  0  0  0  0
  3  4  1  0  0  0  0
  3 32  1  0  0  0  0
  4  5  1  0  0  0  0
  4  6  2  0  0  0  0
  6  7  1  0  0  0  0
  6  8  1  0  0  0  0
  8  9  2  0  0  0  0
  8 33  1  0  0  0  0
  9 10  1  0  0  0  0
 10 11  1  0  0  0  0
 10 34  1  0  0  0  0
 11 12  2  0  0  0  0
 11 31  1  0  0  0  0
 12 13  1  0  0  0  0
 12 35  1  0  0  0  0
 13 14  1  0  0  0  0
 13 15  2  0  0  0  0
 15 16  1  0  0  0  0
 15 36  1  0  0  0  0
 16 17  1  0  0  0  0
 16 31  2  0  0  0  0
 17 18  1  0  0  0  0
 17 37  1  0  0  0  0
 17 38  1  0  0  0  0
 18 19  2  0  0  0  0
 18 20  1  0  0  0  0
 20 21  1  0  0  0  0
 20 39  1  0  0  0  0
 21 22  2  0  0  0  0
 21 30  1  0  0  0  0
 22 23  1  0  0  0  0
 22 40  1  0  0  0  0
 23 24  2  0  0  0  0
 24 25  1  0  0  0  0
 24 41  1  0  0  0  0
 25 26  2  0  0  0  0
 25 30  1  0  0  0  0
 26 27  1  0  0  0  0
 26 42  1  0  0  0  0
 27 28  2  0  0  0  0
 27 43  1  0  0  0  0
 28 29  1  0  0  0  0
 28 44  1  0  0  0  0
 29 30  2  0  0  0  0
 29 45  1  0  0  0  0
 31 46  1  0  0  0  0
M  END
$$$$
