
 OpenBabel07202414193D

 60 64  0  0  1  0  0  0  0  0999 V2000
    3.1405    2.3562   -2.1006 O   0  0  0  0  0  0  0  0  0  0  0  0
    3.1871    1.5415   -1.1825 C   0  0  0  0  0  0  0  0  0  0  0  0
    2.6495    0.1012   -1.2636 C   0  0  0  0  0  0  0  0  0  0  0  0
    1.6907   -0.1242   -2.3687 N   0  0  0  0  0  0  0  0  0  0  0  0
    1.3098   -1.5509   -2.3787 C   0  0  0  0  0  0  0  0  0  0  0  0
    0.2382   -1.8924   -3.3911 C   0  0  0  0  0  0  0  0  0  0  0  0
    0.0459   -3.2371   -3.7522 C   0  0  0  0  0  0  0  0  0  0  0  0
   -0.9371   -3.5908   -4.6761 C   0  0  0  0  0  0  0  0  0  0  0  0
   -1.7280   -2.6014   -5.2507 C   0  0  0  0  0  0  0  0  0  0  0  0
   -2.9203   -3.0329   -6.4145 Cl  0  0  0  0  0  0  0  0  0  0  0  0
   -1.5629   -1.2644   -4.8898 C   0  0  0  0  0  0  0  0  0  0  0  0
   -0.6048   -0.9001   -3.9275 C   0  0  0  0  0  0  0  0  0  0  0  0
   -0.4112    0.5549   -3.5209 C   0  0  1  0  0  0  0  0  0  0  0  0
   -1.7275    1.3131   -3.2709 C   0  0  0  0  0  0  0  0  0  0  0  0
   -2.7272    0.7636   -2.8192 O   0  0  0  0  0  0  0  0  0  0  0  0
   -1.6379    2.6664   -3.5687 N   0  0  0  0  0  0  0  0  0  0  0  0
   -2.6932    3.6246   -3.5945 C   0  0  0  0  0  0  0  0  0  0  0  0
   -4.0410    3.2676   -3.4941 C   0  0  0  0  0  0  0  0  0  0  0  0
   -5.0744    4.1238   -3.6751 N   0  0  0  0  0  0  0  0  0  0  0  0
   -4.7580    5.4143   -3.9028 C   0  0  0  0  0  0  0  0  0  0  0  0
   -3.4600    5.9177   -3.9015 C   0  0  0  0  0  0  0  0  0  0  0  0
   -3.2220    7.3012   -4.0018 C   0  0  0  0  0  0  0  0  0  0  0  0
   -1.9235    7.8008   -3.9700 C   0  0  0  0  0  0  0  0  0  0  0  0
   -0.8522    6.9248   -3.8862 C   0  0  0  0  0  0  0  0  0  0  0  0
   -1.0775    5.5451   -3.7941 C   0  0  0  0  0  0  0  0  0  0  0  0
   -2.3886    5.0029   -3.7731 C   0  0  0  0  0  0  0  0  0  0  0  0
    0.4714    0.6992   -2.2579 C   0  0  0  0  0  0  0  0  0  0  0  0
    3.7448    1.8350    0.0495 N   0  0  0  0  0  0  0  0  0  0  0  0
    4.2383    3.1546    0.3857 C   0  0  0  0  0  0  0  0  0  0  0  0
    3.3993    3.7760    1.4758 C   0  0  0  0  0  0  0  0  0  0  0  0
    3.9506    4.0774    2.7298 C   0  0  0  0  0  0  0  0  0  0  0  0
    3.1576    4.6298    3.7402 C   0  0  0  0  0  0  0  0  0  0  0  0
    1.8084    4.8825    3.5007 C   0  0  0  0  0  0  0  0  0  0  0  0
    0.7275    5.5945    4.8787 Br  0  0  0  0  0  0  0  0  0  0  0  0
    1.2490    4.6085    2.2554 C   0  0  0  0  0  0  0  0  0  0  0  0
    2.0434    4.0621    1.2450 C   0  0  0  0  0  0  0  0  0  0  0  0
    2.2002   -0.1658   -0.2995 H   0  0  0  0  0  0  0  0  0  0  0  0
    3.5314   -0.5360   -1.4173 H   0  0  0  0  0  0  0  0  0  0  0  0
    0.9451   -1.8633   -1.3908 H   0  0  0  0  0  0  0  0  0  0  0  0
    2.2030   -2.1445   -2.6130 H   0  0  0  0  0  0  0  0  0  0  0  0
    0.6636   -4.0175   -3.3128 H   0  0  0  0  0  0  0  0  0  0  0  0
   -1.0775   -4.6340   -4.9445 H   0  0  0  0  0  0  0  0  0  0  0  0
   -2.1965   -0.5095   -5.3498 H   0  0  0  0  0  0  0  0  0  0  0  0
    0.1079    1.0319   -4.3653 H   0  0  0  0  0  0  0  0  0  0  0  0
   -0.7271    3.0025   -3.8504 H   0  0  0  0  0  0  0  0  0  0  0  0
   -4.3641    2.2543   -3.2817 H   0  0  0  0  0  0  0  0  0  0  0  0
   -5.6149    6.0606   -4.0798 H   0  0  0  0  0  0  0  0  0  0  0  0
   -4.0532    8.0015   -4.0645 H   0  0  0  0  0  0  0  0  0  0  0  0
   -1.7499    8.8742   -3.9982 H   0  0  0  0  0  0  0  0  0  0  0  0
    0.1644    7.3073   -3.8621 H   0  0  0  0  0  0  0  0  0  0  0  0
   -0.2003    4.9169   -3.6990 H   0  0  0  0  0  0  0  0  0  0  0  0
   -0.0934    0.4327   -1.3536 H   0  0  0  0  0  0  0  0  0  0  0  0
    0.7269    1.7599   -2.1568 H   0  0  0  0  0  0  0  0  0  0  0  0
    3.7251    1.1467    0.7868 H   0  0  0  0  0  0  0  0  0  0  0  0
    4.2570    3.8110   -0.4892 H   0  0  0  0  0  0  0  0  0  0  0  0
    5.2728    3.0224    0.7248 H   0  0  0  0  0  0  0  0  0  0  0  0
    5.0029    3.8872    2.9329 H   0  0  0  0  0  0  0  0  0  0  0  0
    3.5986    4.8544    4.7080 H   0  0  0  0  0  0  0  0  0  0  0  0
    0.1992    4.8122    2.0608 H   0  0  0  0  0  0  0  0  0  0  0  0
    1.6011    3.8549    0.2725 H   0  0  0  0  0  0  0  0  0  0  0  0
  1  2  2  0  0  0  0
  2  3  1  0  0  0  0
  2 28  1  0  0  0  0
  3  4  1  0  0  0  0
  3 37  1  0  0  0  0
  3 38  1  0  0  0  0
  4  5  1  0  0  0  0
  4 27  1  0  0  0  0
  5  6  1  0  0  0  0
  5 39  1  0  0  0  0
  5 40  1  0  0  0  0
  6  7  1  0  0  0  0
  6 12  2  0  0  0  0
  7  8  2  0  0  0  0
  7 41  1  0  0  0  0
  8  9  1  0  0  0  0
  8 42  1  0  0  0  0
  9 10  1  0  0  0  0
  9 11  2  0  0  0  0
 11 12  1  0  0  0  0
 11 43  1  0  0  0  0
 12 13  1  0  0  0  0
 13 27  1  0  0  0  0
 13 14  1  0  0  0  0
 13 44  1  6  0  0  0
 14 15  2  0  0  0  0
 14 16  1  0  0  0  0
 16 17  1  0  0  0  0
 16 45  1  0  0  0  0
 17 18  1  0  0  0  0
 17 26  2  0  0  0  0
 18 19  2  0  0  0  0
 18 46  1  0  0  0  0
 19 20  1  0  0  0  0
 20 21  2  0  0  0  0
 20 47  1  0  0  0  0
 21 22  1  0  0  0  0
 21 26  1  0  0  0  0
 22 23  2  0  0  0  0
 22 48  1  0  0  0  0
 23 24  1  0  0  0  0
 23 49  1  0  0  0  0
 24 25  2  0  0  0  0
 24 50  1  0  0  0  0
 25 26  1  0  0  0  0
 25 51  1  0  0  0  0
 27 52  1  0  0  0  0
 27 53  1  0  0  0  0
 28 29  1  0  0  0  0
 28 54  1  0  0  0  0
 29 30  1  0  0  0  0
 29 55  1  0  0  0  0
 29 56  1  0  0  0  0
 30 31  1  0  0  0  0
 30 36  2  0  0  0  0
 31 32  2  0  0  0  0
 31 57  1  0  0  0  0
 32 33  1  0  0  0  0
 32 58  1  0  0  0  0
 33 34  1  0  0  0  0
 33 35  2  0  0  0  0
 35 36  1  0  0  0  0
 35 59  1  0  0  0  0
 36 60  1  0  0  0  0
M  END
$$$$
