FMB(F-240)
  -OEChem-07202415053D

 31 33  0     1  0  0  0  0  0999 V2000
  -18.9998   72.4818   65.2212 N   0  0  0  0  0  0  0  0  0  0  0  0
  -18.0434   72.7400   66.1789 C   0  0  0  0  0  0  0  0  0  0  0  0
  -17.7925   71.9332   67.2108 N   0  0  0  0  0  0  0  0  0  0  0  0
  -18.5855   70.8343   67.2007 C   0  0  0  0  0  0  0  0  0  0  0  0
  -19.5633   70.4907   66.2911 C   0  0  0  0  0  0  0  0  0  0  0  0
  -19.8240   71.3596   65.1995 C   0  0  0  0  0  0  0  0  0  0  0  0
  -20.6474   71.2363   64.2833 O   0  0  0  0  0  0  0  0  0  0  0  0
  -20.1520   69.2789   66.6368 N   0  0  0  0  0  0  0  0  0  0  0  0
  -19.5296   68.9171   67.7247 N   0  0  0  0  0  0  0  0  0  0  0  0
  -18.5660   69.8142   68.1278 C   0  0  0  0  0  0  0  0  0  0  0  0
  -17.9127   69.5314   69.4310 C   0  0  1  0  0  0  0  0  0  0  0  0
  -16.6817   70.4011   69.7021 C   0  0  2  0  0  0  0  0  0  0  0  0
  -15.5396   69.5933   69.7771 O   0  0  0  0  0  0  0  0  0  0  0  0
  -16.9861   71.1021   71.0391 C   0  0  2  0  0  0  0  0  0  0  0  0
  -16.3239   70.5320   72.1637 O   0  0  0  0  0  0  0  0  0  0  0  0
  -18.4812   70.9306   71.2254 C   0  0  2  0  0  0  0  0  0  0  0  0
  -18.8544   69.7554   70.4640 O   0  0  0  0  0  0  0  0  0  0  0  0
  -19.3285   72.1029   70.7950 C   0  0  0  0  0  0  0  0  0  0  0  0
  -20.6553   71.9540   71.2981 O   0  0  0  0  0  0  0  0  0  0  0  0
  -19.1101   73.1506   64.4866 H   0  0  0  0  0  0  0  0  0  0  0  0
  -17.4648   73.6473   66.0889 H   0  0  0  0  0  0  0  0  0  0  0  0
  -20.8860   68.7947   66.1595 H   0  0  0  0  0  0  0  0  0  0  0  0
  -18.8918   73.0323   71.1881 H   0  0  0  0  0  0  0  0  0  0  0  0
  -19.3581   72.1475   69.6960 H   0  0  0  0  0  0  0  0  0  0  0  0
  -17.5950   68.4786   69.4438 H   0  0  0  0  0  0  0  0  0  0  0  0
  -16.5855   71.1566   68.9086 H   0  0  0  0  0  0  0  0  0  0  0  0
  -14.9088   69.9895   70.3671 H   0  0  0  0  0  0  0  0  0  0  0  0
  -16.7492   72.1724   70.9478 H   0  0  0  0  0  0  0  0  0  0  0  0
  -15.4382   70.8712   72.2154 H   0  0  0  0  0  0  0  0  0  0  0  0
  -18.6732   70.7411   72.2922 H   0  0  0  0  0  0  0  0  0  0  0  0
  -21.2657   71.8997   70.5716 H   0  0  0  0  0  0  0  0  0  0  0  0
  1  2  1  0  0  0  0
  1  6  1  0  0  0  0
  1 20  1  0  0  0  0
  2  3  2  0  0  0  0
  2 21  1  0  0  0  0
  3  4  1  0  0  0  0
  4  5  2  0  0  0  0
  4 10  1  0  0  0  0
  5  6  1  0  0  0  0
  5  8  1  0  0  0  0
  6  7  2  0  0  0  0
  8  9  1  0  0  0  0
  8 22  1  0  0  0  0
  9 10  2  0  0  0  0
 10 11  1  0  0  0  0
 11 12  1  0  0  0  0
 11 17  1  0  0  0  0
 11 25  1  0  0  0  0
 12 13  1  0  0  0  0
 12 14  1  0  0  0  0
 12 26  1  0  0  0  0
 13 27  1  0  0  0  0
 14 15  1  0  0  0  0
 14 16  1  0  0  0  0
 14 28  1  0  0  0  0
 15 29  1  0  0  0  0
 16 17  1  0  0  0  0
 16 18  1  0  0  0  0
 16 30  1  0  0  0  0
 18 19  1  0  0  0  0
 18 23  1  0  0  0  0
 18 24  1  0  0  0  0
 19 31  1  0  0  0  0
M  END
> <Chemgauss4>
-10.710388

$$$$
