FMB(F-240)
  -OEChem-07202415053D

 31 33  0     1  0  0  0  0  0999 V2000
  -18.7918   72.5195   65.2037 N   0  0  0  0  0  0  0  0  0  0  0  0
  -17.8713   72.8049   66.1885 C   0  0  0  0  0  0  0  0  0  0  0  0
  -17.6116   71.9953   67.2161 N   0  0  0  0  0  0  0  0  0  0  0  0
  -18.3563   70.8640   67.1719 C   0  0  0  0  0  0  0  0  0  0  0  0
  -19.2956   70.4917   66.2336 C   0  0  0  0  0  0  0  0  0  0  0  0
  -19.5663   71.3637   65.1470 C   0  0  0  0  0  0  0  0  0  0  0  0
  -20.3608   71.2182   64.2088 O   0  0  0  0  0  0  0  0  0  0  0  0
  -19.8402   69.2513   66.5490 N   0  0  0  0  0  0  0  0  0  0  0  0
  -19.2299   68.9013   67.6475 N   0  0  0  0  0  0  0  0  0  0  0  0
  -18.3158   69.8329   68.0861 C   0  0  0  0  0  0  0  0  0  0  0  0
  -17.6834   69.5602   69.4018 C   0  0  1  0  0  0  0  0  0  0  0  0
  -16.4979   70.4776   69.7148 C   0  0  2  0  0  0  0  0  0  0  0  0
  -15.3244   69.7182   69.8083 O   0  0  0  0  0  0  0  0  0  0  0  0
  -16.8649   71.1466   71.0526 C   0  0  2  0  0  0  0  0  0  0  0  0
  -16.2068   70.5897   72.1862 O   0  0  0  0  0  0  0  0  0  0  0  0
  -18.3555   70.9090   71.1989 C   0  0  2  0  0  0  0  0  0  0  0  0
  -18.6590   69.7297   70.4134 O   0  0  0  0  0  0  0  0  0  0  0  0
  -19.2414   72.0500   70.7622 C   0  0  0  0  0  0  0  0  0  0  0  0
  -20.5725   71.8379   71.2297 O   0  0  0  0  0  0  0  0  0  0  0  0
  -18.9126   73.1931   64.4752 H   0  0  0  0  0  0  0  0  0  0  0  0
  -17.3300   73.7372   66.1246 H   0  0  0  0  0  0  0  0  0  0  0  0
  -20.5408   68.7430   66.0471 H   0  0  0  0  0  0  0  0  0  0  0  0
  -18.8548   72.9917   71.1780 H   0  0  0  0  0  0  0  0  0  0  0  0
  -19.2458   72.1085   69.6634 H   0  0  0  0  0  0  0  0  0  0  0  0
  -17.3212   68.5218   69.4092 H   0  0  0  0  0  0  0  0  0  0  0  0
  -16.4146   71.2475   68.9338 H   0  0  0  0  0  0  0  0  0  0  0  0
  -14.7258   70.1327   70.4191 H   0  0  0  0  0  0  0  0  0  0  0  0
  -16.6720   72.2271   70.9809 H   0  0  0  0  0  0  0  0  0  0  0  0
  -15.3381   70.9655   72.2645 H   0  0  0  0  0  0  0  0  0  0  0  0
  -18.5654   70.6969   72.2580 H   0  0  0  0  0  0  0  0  0  0  0  0
  -21.1619   71.7678   70.4874 H   0  0  0  0  0  0  0  0  0  0  0  0
  1  2  1  0  0  0  0
  1  6  1  0  0  0  0
  1 20  1  0  0  0  0
  2  3  2  0  0  0  0
  2 21  1  0  0  0  0
  3  4  1  0  0  0  0
  4  5  2  0  0  0  0
  4 10  1  0  0  0  0
  5  6  1  0  0  0  0
  5  8  1  0  0  0  0
  6  7  2  0  0  0  0
  8  9  1  0  0  0  0
  8 22  1  0  0  0  0
  9 10  2  0  0  0  0
 10 11  1  0  0  0  0
 11 12  1  0  0  0  0
 11 17  1  0  0  0  0
 11 25  1  0  0  0  0
 12 13  1  0  0  0  0
 12 14  1  0  0  0  0
 12 26  1  0  0  0  0
 13 27  1  0  0  0  0
 14 15  1  0  0  0  0
 14 16  1  0  0  0  0
 14 28  1  0  0  0  0
 15 29  1  0  0  0  0
 16 17  1  0  0  0  0
 16 18  1  0  0  0  0
 16 30  1  0  0  0  0
 18 19  1  0  0  0  0
 18 23  1  0  0  0  0
 18 24  1  0  0  0  0
 19 31  1  0  0  0  0
M  END
> <Chemgauss4>
-11.664814

$$$$
