REMARK  7 active torsions:
REMARK  status: ('A' for Active; 'I' for Inactive)
REMARK    1  A    between atoms: C_2  and  N_3 
REMARK    2  A    between atoms: N_3  and  C_5 
REMARK    3  A    between atoms: C_6  and  C_17 
REMARK    4  A    between atoms: C_7  and  C_17 
REMARK    5  A    between atoms: C_17  and  C_18 
REMARK    6  A    between atoms: C_18  and  O_19 
REMARK    7  A    between atoms: O_19  and  N_20 
ROOT
HETATM    1  C   UNL     1       9.755  -0.893  22.868  1.00  0.00     0.138 C 
ENDROOT
BRANCH   1   2
HETATM    2  C   UNL     1       9.026  -1.804  23.585  1.00  0.00    -0.029 C 
HETATM    3  C   UNL     1       8.637  -2.703  24.236  1.00  0.00     0.014 C 
BRANCH   3   4
HETATM    4  N   UNL     1       8.078  -3.598  24.801  1.00  0.00    -0.324 N 
ATOM      5  HN  UNL     1       7.337  -4.012  24.235  1.00  0.00     0.172 HD
BRANCH   4   6
HETATM    6  C   UNL     1       8.202  -4.227  26.084  1.00  0.00     0.353 C 
HETATM    7  F   UNL     1       6.952  -4.803  26.392  1.00  0.00    -0.234 F 
ENDBRANCH   4   6
ENDBRANCH   3   4
ENDBRANCH   1   2
BRANCH   1   8
HETATM    8  C   UNL     1      11.004  -0.894  23.306  1.00  0.00     0.164 C 
HETATM    9  N   UNL     1      11.960  -1.504  22.616  1.00  0.00    -0.282 N 
HETATM   10  N   UNL     1      13.128  -1.055  22.751  1.00  0.00    -0.293 N 
ATOM     11  HN  UNL     1      11.758  -2.297  22.007  1.00  0.00     0.188 HD
HETATM   12  C   UNL     1      13.042  -0.322  23.702  1.00  0.00     0.214 C 
ATOM     13  HN  UNL     1      13.953  -1.263  22.188  1.00  0.00     0.187 HD
HETATM   14  N   UNL     1      12.414   0.164  24.604  1.00  0.00    -0.293 N 
HETATM   15  N   UNL     1      11.301  -0.328  24.521  1.00  0.00    -0.282 N 
ATOM     16  HN  UNL     1      12.742   0.842  25.292  1.00  0.00     0.187 HD
ATOM     17  HN  UNL     1      10.639  -0.320  25.297  1.00  0.00     0.188 HD
ENDBRANCH   1   8
BRANCH   1  18
HETATM   18  C   UNL     1       9.428  -0.068  21.878  1.00  0.00     0.058 C 
BRANCH  18  19
HETATM   19  O   UNL     1       8.918   0.624  21.111  1.00  0.00    -0.192 OA
BRANCH  19  20
HETATM   20  N   UNL     1       7.739  -0.296  20.987  1.00  0.00    -0.252 N 
HETATM   21  C   UNL     1       7.068   0.064  20.026  1.00  0.00     0.055 A 
HETATM   22  C   UNL     1       7.024   0.200  18.670  1.00  0.00     0.031 A 
HETATM   23  C   UNL     1       5.558   0.475  20.199  1.00  0.00     0.031 A 
HETATM   24  C   UNL     1       5.492   0.661  18.980  1.00  0.00     0.005 A 
ATOM     25  HN  UNL     1       7.531  -1.086  21.598  1.00  0.00     0.195 HD
ENDBRANCH  19  20
ENDBRANCH  18  19
ENDBRANCH   1  18
TORSDOF 7
