stable:False satoms:13 tatoms:24 sratio:0.5416666666666666
  -OEChem-07092417393D

 24 25  0     0  0  0  0  0  0999 V2000
    6.9521   -4.8034   26.3918 F   0  0  0  0  0  0  0  0  0  0  0  0
    8.2018   -4.2273   26.0845 C   0  0  0  0  0  0  0  0  0  0  0  0
    8.9770   -5.0539   26.0313 H   0  0  0  0  0  0  0  0  0  0  0  0
    8.4481   -3.5364   26.9263 H   0  0  0  0  0  0  0  0  0  0  0  0
    8.0777   -3.5975   24.8011 N   0  3  0  0  0  0  0  0  0  0  0  0
    8.6370   -2.7031   24.2361 C   0  0  0  0  0  0  0  0  0  0  0  0
    9.0263   -1.8036   23.5846 C   0  0  0  0  0  0  0  0  0  0  0  0
   11.0037   -0.8940   23.3056 C   0  0  0  0  0  0  0  0  0  0  0  0
   11.3012   -0.3276   24.5206 N   0  0  0  0  0  0  0  0  0  0  0  0
   12.4141    0.1635   24.6044 N   0  0  0  0  0  0  0  0  0  0  0  0
   13.0419   -0.3220   23.7023 C   0  0  0  0  0  0  0  0  0  0  0  0
   13.1277   -1.0549   22.7512 N   0  0  0  0  0  0  0  0  0  0  0  0
   11.9603   -1.5039   22.6164 N   0  0  0  0  0  0  0  0  0  0  0  0
    9.7546   -0.8931   22.8684 C   0  0  0  0  0  0  0  0  0  0  0  0
    9.4279   -0.0675   21.8776 C   0  0  0  0  0  0  0  0  0  0  0  0
    8.9181    0.6241   21.1114 O   0  0  0  0  0  0  0  0  0  0  0  0
    7.7394   -0.2961   20.9873 N   0  0  0  0  0  0  0  0  0  0  0  0
    7.0678    0.0639   20.0259 C   0  0  0  0  0  0  0  0  0  0  0  0
    7.0240    0.1999   18.6700 C   0  0  0  0  0  0  0  0  0  0  0  0
    7.4602    0.1677   17.7226 H   0  0  0  0  0  0  0  0  0  0  0  0
    4.8988    0.9527   18.1621 H   0  0  0  0  0  0  0  0  0  0  0  0
    5.4919    0.6615   18.9796 C   0  0  0  0  0  0  0  0  0  0  0  0
    5.5579    0.4751   20.1990 C   0  0  0  0  0  0  0  0  0  0  0  0
    5.0745    0.4860   21.1366 H   0  0  0  0  0  0  0  0  0  0  0  0
 19 20  1  0  0  0  0
 21 22  1  0  0  0  0
 19 22  2  0  0  0  0
 18 19  1  0  0  0  0
 22 23  1  0  0  0  0
 18 23  2  0  0  0  0
 17 18  1  0  0  0  0
 23 24  1  0  0  0  0
 16 17  1  0  0  0  0
 15 16  1  0  0  0  0
 14 15  1  0  0  0  0
 12 13  1  0  0  0  0
  8 13  1  0  0  0  0
 11 12  1  0  0  0  0
  8 14  2  0  0  0  0
  7 14  1  0  0  0  0
  8  9  1  0  0  0  0
  6  7  3  0  0  0  0
 10 11  1  0  0  0  0
  5  6  1  0  0  0  0
  9 10  1  0  0  0  0
  2  5  1  0  0  0  0
  2  3  1  0  0  0  0
  1  2  1  0  0  0  0
  2  4  1  0  0  0  0
M  CHG  1   5   1
M  END
> <Shapegauss>
-221.333939

$$$$
