MODEL 1
REMARK VINA RESULT:    -6.152      0.000      0.000
REMARK INTER + INTRA:          -9.581
REMARK INTER:                  -8.669
REMARK INTRA:                  -0.913
REMARK UNBOUND:                -0.913
REMARK  7 active torsions:
REMARK  status: ('A' for Active; 'I' for Inactive)
REMARK    1  A    between atoms: C_2  and  N_3 
REMARK    2  A    between atoms: N_3  and  C_5 
REMARK    3  A    between atoms: C_6  and  C_17 
REMARK    4  A    between atoms: C_7  and  C_17 
REMARK    5  A    between atoms: C_17  and  C_18 
REMARK    6  A    between atoms: C_18  and  O_19 
REMARK    7  A    between atoms: O_19  and  N_20 
ROOT
HETATM    1  C   UNL     1       8.002  -0.199  21.088  1.00  0.00     0.138 C 
ENDROOT
BRANCH   1   2
HETATM    2  C   UNL     1       7.963  -1.407  21.732  1.00  0.00    -0.029 C 
HETATM    3  C   UNL     1       8.194  -2.435  22.253  1.00  0.00     0.014 C 
BRANCH   3   4
HETATM    4  N   UNL     1       8.255  -3.534  22.723  1.00  0.00    -0.324 N 
ATOM      5  HN  UNL     1       9.211  -3.804  22.957  1.00  0.00     0.172 HD
BRANCH   4   6
HETATM    6  C   UNL     1       7.305  -4.563  23.036  1.00  0.00     0.353 C 
HETATM    7  F   UNL     1       7.594  -5.667  22.208  1.00  0.00    -0.234 F 
ENDBRANCH   4   6
ENDBRANCH   3   4
ENDBRANCH   1   2
BRANCH   1   8
HETATM    8  C   UNL     1       7.139  -0.213  20.084  1.00  0.00     0.164 C 
HETATM    9  N   UNL     1       5.863  -0.514  20.296  1.00  0.00    -0.282 N 
HETATM   10  N   UNL     1       5.026  -0.020  19.497  1.00  0.00    -0.293 N 
ATOM     11  HN  UNL     1       5.577  -1.117  21.068  1.00  0.00     0.188 HD
HETATM   12  C   UNL     1       5.706   0.403  18.599  1.00  0.00     0.214 C 
ATOM     13  HN  UNL     1       4.010   0.014  19.589  1.00  0.00     0.187 HD
HETATM   14  N   UNL     1       6.773   0.555  18.067  1.00  0.00    -0.293 N 
HETATM   15  N   UNL     1       7.579   0.010  18.803  1.00  0.00    -0.282 N 
ATOM     16  HN  UNL     1       6.964   1.037  17.189  1.00  0.00     0.187 HD
ATOM     17  HN  UNL     1       8.511  -0.261  18.490  1.00  0.00     0.188 HD
ENDBRANCH   1   8
BRANCH   1  18
HETATM   18  C   UNL     1       8.720   0.901  21.295  1.00  0.00     0.058 C 
BRANCH  18  19
HETATM   19  O   UNL     1       9.531   1.698  21.480  1.00  0.00    -0.192 OA
BRANCH  19  20
HETATM   20  N   UNL     1       9.180   1.793  22.936  1.00  0.00    -0.252 N 
HETATM   21  C   UNL     1      10.146   1.416  23.591  1.00  0.00     0.055 A 
HETATM   22  C   UNL     1      11.435   1.678  23.949  1.00  0.00     0.031 A 
HETATM   23  C   UNL     1      10.026   0.205  24.589  1.00  0.00     0.031 A 
HETATM   24  C   UNL     1      11.208   0.375  24.902  1.00  0.00     0.005 A 
ATOM     25  HN  UNL     1       8.290   2.115  23.316  1.00  0.00     0.195 HD
ENDBRANCH  19  20
ENDBRANCH  18  19
ENDBRANCH   1  18
TORSDOF 7
ENDMDL
MODEL 2
REMARK VINA RESULT:    -6.133      2.782      3.917
REMARK INTER + INTRA:          -9.556
REMARK INTER:                  -8.491
REMARK INTRA:                  -1.065
REMARK UNBOUND:                -0.913
REMARK  7 active torsions:
REMARK  status: ('A' for Active; 'I' for Inactive)
REMARK    1  A    between atoms: C_2  and  N_3 
REMARK    2  A    between atoms: N_3  and  C_5 
REMARK    3  A    between atoms: C_6  and  C_17 
REMARK    4  A    between atoms: C_7  and  C_17 
REMARK    5  A    between atoms: C_17  and  C_18 
REMARK    6  A    between atoms: C_18  and  O_19 
REMARK    7  A    between atoms: O_19  and  N_20 
ROOT
HETATM    1  C   UNL     1       7.937   0.194  21.048  1.00  0.00     0.138 C 
ENDROOT
BRANCH   1   2
HETATM    2  C   UNL     1       7.887   1.482  21.511  1.00  0.00    -0.029 C 
HETATM    3  C   UNL     1       8.108   2.558  21.930  1.00  0.00     0.014 C 
BRANCH   3   4
HETATM    4  N   UNL     1       8.157   3.644  22.432  1.00  0.00    -0.324 N 
ATOM      5  HN  UNL     1       7.590   4.329  21.932  1.00  0.00     0.172 HD
BRANCH   4   6
HETATM    6  C   UNL     1       8.823   4.211  23.568  1.00  0.00     0.353 C 
HETATM    7  F   UNL     1       9.112   3.154  24.457  1.00  0.00    -0.234 F 
ENDBRANCH   4   6
ENDBRANCH   3   4
ENDBRANCH   1   2
BRANCH   1   8
HETATM    8  C   UNL     1       7.056   0.048  20.071  1.00  0.00     0.164 C 
HETATM    9  N   UNL     1       5.787  -0.231  20.344  1.00  0.00    -0.282 N 
HETATM   10  N   UNL     1       4.931   0.154  19.505  1.00  0.00    -0.293 N 
ATOM     11  HN  UNL     1       5.519  -0.732  21.191  1.00  0.00     0.188 HD
HETATM   12  C   UNL     1       5.592   0.463  18.547  1.00  0.00     0.214 C 
ATOM     13  HN  UNL     1       3.917   0.194  19.611  1.00  0.00     0.187 HD
HETATM   14  N   UNL     1       6.647   0.552  17.980  1.00  0.00    -0.293 N 
HETATM   15  N   UNL     1       7.470   0.109  18.764  1.00  0.00    -0.282 N 
ATOM     16  HN  UNL     1       6.818   0.919  17.044  1.00  0.00     0.187 HD
ATOM     17  HN  UNL     1       8.399  -0.195  18.470  1.00  0.00     0.188 HD
ENDBRANCH   1   8
BRANCH   1  18
HETATM   18  C   UNL     1       8.675  -0.854  21.402  1.00  0.00     0.058 C 
BRANCH  18  19
HETATM   19  O   UNL     1       9.439  -1.597  21.839  1.00  0.00    -0.192 OA
BRANCH  19  20
HETATM   20  N   UNL     1      10.573  -0.639  21.619  1.00  0.00    -0.252 N 
HETATM   21  C   UNL     1      11.138  -0.457  22.692  1.00  0.00     0.055 A 
HETATM   22  C   UNL     1      11.889  -1.022  23.680  1.00  0.00     0.031 A 
HETATM   23  C   UNL     1      11.258   0.985  23.312  1.00  0.00     0.031 A 
HETATM   24  C   UNL     1      11.897   0.504  24.253  1.00  0.00     0.005 A 
ATOM     25  HN  UNL     1      10.831  -0.212  20.729  1.00  0.00     0.195 HD
ENDBRANCH  19  20
ENDBRANCH  18  19
ENDBRANCH   1  18
TORSDOF 7
ENDMDL
MODEL 3
REMARK VINA RESULT:    -5.869     24.051     26.314
REMARK INTER + INTRA:          -9.184
REMARK INTER:                  -8.483
REMARK INTRA:                  -0.701
REMARK UNBOUND:                -0.913
REMARK  7 active torsions:
REMARK  status: ('A' for Active; 'I' for Inactive)
REMARK    1  A    between atoms: C_2  and  N_3 
REMARK    2  A    between atoms: N_3  and  C_5 
REMARK    3  A    between atoms: C_6  and  C_17 
REMARK    4  A    between atoms: C_7  and  C_17 
REMARK    5  A    between atoms: C_17  and  C_18 
REMARK    6  A    between atoms: C_18  and  O_19 
REMARK    7  A    between atoms: O_19  and  N_20 
ROOT
HETATM    1  C   UNL     1       9.119  15.459   1.730  1.00  0.00     0.138 C 
ENDROOT
BRANCH   1   2
HETATM    2  C   UNL     1       8.232  14.423   1.606  1.00  0.00    -0.029 C 
HETATM    3  C   UNL     1       7.446  13.623   1.250  1.00  0.00     0.014 C 
BRANCH   3   4
HETATM    4  N   UNL     1       6.589  12.807   1.070  1.00  0.00    -0.324 N 
ATOM      5  HN  UNL     1       5.712  13.226   0.759  1.00  0.00     0.172 HD
BRANCH   4   6
HETATM    6  C   UNL     1       6.501  11.380   1.188  1.00  0.00     0.353 C 
HETATM    7  F   UNL     1       7.104  10.826   0.040  1.00  0.00    -0.234 F 
ENDBRANCH   4   6
ENDBRANCH   3   4
ENDBRANCH   1   2
BRANCH   1   8
HETATM    8  C   UNL     1       9.722  15.376   2.905  1.00  0.00     0.164 C 
HETATM    9  N   UNL     1      10.799  14.615   3.058  1.00  0.00    -0.282 N 
HETATM   10  N   UNL     1      11.610  14.958   3.957  1.00  0.00    -0.293 N 
ATOM     11  HN  UNL     1      10.961  13.793   2.476  1.00  0.00     0.188 HD
HETATM   12  C   UNL     1      11.000  15.780   4.591  1.00  0.00     0.214 C 
ATOM     13  HN  UNL     1      12.560  14.620   4.113  1.00  0.00     0.187 HD
HETATM   14  N   UNL     1      10.000  16.406   4.817  1.00  0.00    -0.293 N 
HETATM   15  N   UNL     1       9.187  16.020   3.994  1.00  0.00    -0.282 N 
ATOM     16  HN  UNL     1       9.860  17.109   5.543  1.00  0.00     0.187 HD
ATOM     17  HN  UNL     1       8.183  16.163   4.105  1.00  0.00     0.188 HD
ENDBRANCH   1   8
BRANCH   1  18
HETATM   18  C   UNL     1       9.441  16.460   0.918  1.00  0.00     0.058 C 
BRANCH  18  19
HETATM   19  O   UNL     1       9.674  17.165   0.036  1.00  0.00    -0.192 OA
BRANCH  19  20
HETATM   20  N   UNL     1       9.675  18.369   0.932  1.00  0.00    -0.252 N 
HETATM   21  C   UNL     1       8.965  19.229   0.423  1.00  0.00     0.055 A 
HETATM   22  C   UNL     1       7.695  19.575   0.066  1.00  0.00     0.031 A 
HETATM   23  C   UNL     1       9.543  20.647   0.057  1.00  0.00     0.031 A 
HETATM   24  C   UNL     1       8.418  20.982  -0.327  1.00  0.00     0.005 A 
ATOM     25  HN  UNL     1      10.181  18.457   1.813  1.00  0.00     0.195 HD
ENDBRANCH  19  20
ENDBRANCH  18  19
ENDBRANCH   1  18
TORSDOF 7
ENDMDL
MODEL 4
REMARK VINA RESULT:    -5.821      2.544      5.226
REMARK INTER + INTRA:          -9.116
REMARK INTER:                  -8.388
REMARK INTRA:                  -0.728
REMARK UNBOUND:                -0.913
REMARK  7 active torsions:
REMARK  status: ('A' for Active; 'I' for Inactive)
REMARK    1  A    between atoms: C_2  and  N_3 
REMARK    2  A    between atoms: N_3  and  C_5 
REMARK    3  A    between atoms: C_6  and  C_17 
REMARK    4  A    between atoms: C_7  and  C_17 
REMARK    5  A    between atoms: C_17  and  C_18 
REMARK    6  A    between atoms: C_18  and  O_19 
REMARK    7  A    between atoms: O_19  and  N_20 
ROOT
HETATM    1  C   UNL     1       8.198  -0.289  21.484  1.00  0.00     0.138 C 
ENDROOT
BRANCH   1   2
HETATM    2  C   UNL     1       8.834   0.872  21.836  1.00  0.00    -0.029 C 
HETATM    3  C   UNL     1       9.595   1.745  22.040  1.00  0.00     0.014 C 
BRANCH   3   4
HETATM    4  N   UNL     1      10.256   2.678  22.394  1.00  0.00    -0.324 N 
ATOM      5  HN  UNL     1      10.187   3.468  21.753  1.00  0.00     0.172 HD
BRANCH   4   6
HETATM    6  C   UNL     1      11.121   2.949  23.505  1.00  0.00     0.353 C 
HETATM    7  F   UNL     1      11.218   1.763  24.262  1.00  0.00    -0.234 F 
ENDBRANCH   4   6
ENDBRANCH   3   4
ENDBRANCH   1   2
BRANCH   1   8
HETATM    8  C   UNL     1       7.351  -0.038  20.498  1.00  0.00     0.164 C 
HETATM    9  N   UNL     1       7.795   0.199  19.270  1.00  0.00    -0.282 N 
HETATM   10  N   UNL     1       7.020  -0.093  18.323  1.00  0.00    -0.293 N 
ATOM     11  HN  UNL     1       8.719   0.598  19.103  1.00  0.00     0.188 HD
HETATM   12  C   UNL     1       5.964  -0.285  18.869  1.00  0.00     0.214 C 
ATOM     13  HN  UNL     1       7.235  -0.152  17.327  1.00  0.00     0.187 HD
HETATM   14  N   UNL     1       5.275  -0.301  19.853  1.00  0.00    -0.293 N 
HETATM   15  N   UNL     1       6.006   0.055  20.762  1.00  0.00    -0.282 N 
ATOM     16  HN  UNL     1       4.290  -0.557  19.915  1.00  0.00     0.187 HD
ATOM     17  HN  UNL     1       5.647   0.397  21.653  1.00  0.00     0.188 HD
ENDBRANCH   1   8
BRANCH   1  18
HETATM   18  C   UNL     1       8.290  -1.533  21.944  1.00  0.00     0.058 C 
BRANCH  18  19
HETATM   19  O   UNL     1       8.609  -2.562  22.351  1.00  0.00    -0.192 OA
BRANCH  19  20
HETATM   20  N   UNL     1       7.191  -3.051  22.374  1.00  0.00    -0.252 N 
HETATM   21  C   UNL     1       7.206  -4.273  22.479  1.00  0.00     0.055 A 
HETATM   22  C   UNL     1       7.517  -5.331  23.280  1.00  0.00     0.031 A 
HETATM   23  C   UNL     1       6.531  -5.189  21.391  1.00  0.00     0.031 A 
HETATM   24  C   UNL     1       6.842  -6.178  22.062  1.00  0.00     0.005 A 
ATOM     25  HN  UNL     1       6.356  -2.467  22.313  1.00  0.00     0.195 HD
ENDBRANCH  19  20
ENDBRANCH  18  19
ENDBRANCH   1  18
TORSDOF 7
ENDMDL
MODEL 5
REMARK VINA RESULT:    -5.818     22.412     25.105
REMARK INTER + INTRA:          -9.112
REMARK INTER:                  -8.350
REMARK INTRA:                  -0.762
REMARK UNBOUND:                -0.913
REMARK  7 active torsions:
REMARK  status: ('A' for Active; 'I' for Inactive)
REMARK    1  A    between atoms: C_2  and  N_3 
REMARK    2  A    between atoms: N_3  and  C_5 
REMARK    3  A    between atoms: C_6  and  C_17 
REMARK    4  A    between atoms: C_7  and  C_17 
REMARK    5  A    between atoms: C_17  and  C_18 
REMARK    6  A    between atoms: C_18  and  O_19 
REMARK    7  A    between atoms: O_19  and  N_20 
ROOT
HETATM    1  C   UNL     1       8.597  15.082   2.157  1.00  0.00     0.138 C 
ENDROOT
BRANCH   1   2
HETATM    2  C   UNL     1       8.884  16.226   1.461  1.00  0.00    -0.029 C 
HETATM    3  C   UNL     1       9.377  17.168   0.958  1.00  0.00     0.014 C 
BRANCH   3   4
HETATM    4  N   UNL     1       9.705  18.206   0.461  1.00  0.00    -0.324 N 
ATOM      5  HN  UNL     1      10.047  18.089  -0.493  1.00  0.00     0.172 HD
BRANCH   4   6
HETATM    6  C   UNL     1       9.731  19.576   0.886  1.00  0.00     0.353 C 
HETATM    7  F   UNL     1      10.848  19.732   1.732  1.00  0.00    -0.234 F 
ENDBRANCH   4   6
ENDBRANCH   3   4
ENDBRANCH   1   2
BRANCH   1   8
HETATM    8  C   UNL     1       9.467  14.944   3.145  1.00  0.00     0.164 C 
HETATM    9  N   UNL     1      10.696  14.504   2.903  1.00  0.00    -0.282 N 
HETATM   10  N   UNL     1      11.597  14.878   3.699  1.00  0.00    -0.293 N 
ATOM     11  HN  UNL     1      10.900  13.892   2.112  1.00  0.00     0.188 HD
HETATM   12  C   UNL     1      10.983  15.353   4.619  1.00  0.00     0.214 C 
ATOM     13  HN  UNL     1      12.608  14.799   3.590  1.00  0.00     0.187 HD
HETATM   14  N   UNL     1       9.948  15.612   5.173  1.00  0.00    -0.293 N 
HETATM   15  N   UNL     1       9.075  15.182   4.438  1.00  0.00    -0.282 N 
ATOM     16  HN  UNL     1       9.827  16.090   6.066  1.00  0.00     0.187 HD
ATOM     17  HN  UNL     1       8.122  15.011   4.761  1.00  0.00     0.188 HD
ENDBRANCH   1   8
BRANCH   1  18
HETATM   18  C   UNL     1       7.653  14.158   2.006  1.00  0.00     0.058 C 
BRANCH  18  19
HETATM   19  O   UNL     1       6.787  13.478   1.667  1.00  0.00    -0.192 OA
BRANCH  19  20
HETATM   20  N   UNL     1       7.576  12.237   1.967  1.00  0.00    -0.252 N 
HETATM   21  C   UNL     1       6.972  11.591   2.816  1.00  0.00     0.055 A 
HETATM   22  C   UNL     1       5.849  10.869   3.095  1.00  0.00     0.031 A 
HETATM   23  C   UNL     1       7.642  11.238   4.196  1.00  0.00     0.031 A 
HETATM   24  C   UNL     1       6.621  10.618   4.508  1.00  0.00     0.005 A 
ATOM     25  HN  UNL     1       8.463  11.975   1.537  1.00  0.00     0.195 HD
ENDBRANCH  19  20
ENDBRANCH  18  19
ENDBRANCH   1  18
TORSDOF 7
ENDMDL
MODEL 6
REMARK VINA RESULT:    -5.556      4.000      6.032
REMARK INTER + INTRA:          -8.743
REMARK INTER:                  -8.068
REMARK INTRA:                  -0.675
REMARK UNBOUND:                -0.913
REMARK  7 active torsions:
REMARK  status: ('A' for Active; 'I' for Inactive)
REMARK    1  A    between atoms: C_2  and  N_3 
REMARK    2  A    between atoms: N_3  and  C_5 
REMARK    3  A    between atoms: C_6  and  C_17 
REMARK    4  A    between atoms: C_7  and  C_17 
REMARK    5  A    between atoms: C_17  and  C_18 
REMARK    6  A    between atoms: C_18  and  O_19 
REMARK    7  A    between atoms: O_19  and  N_20 
ROOT
HETATM    1  C   UNL     1       8.148  -3.295  25.531  1.00  0.00     0.138 C 
ENDROOT
BRANCH   1   2
HETATM    2  C   UNL     1       7.823  -3.918  24.356  1.00  0.00    -0.029 C 
HETATM    3  C   UNL     1       7.791  -4.384  23.277  1.00  0.00     0.014 C 
BRANCH   3   4
HETATM    4  N   UNL     1       7.571  -4.822  22.185  1.00  0.00    -0.324 N 
ATOM      5  HN  UNL     1       7.951  -4.231  21.445  1.00  0.00     0.172 HD
BRANCH   4   6
HETATM    6  C   UNL     1       6.899  -5.980  21.668  1.00  0.00     0.353 C 
HETATM    7  F   UNL     1       6.075  -5.549  20.608  1.00  0.00    -0.234 F 
ENDBRANCH   4   6
ENDBRANCH   3   4
ENDBRANCH   1   2
BRANCH   1   8
HETATM    8  C   UNL     1       7.768  -4.055  26.546  1.00  0.00     0.164 C 
HETATM    9  N   UNL     1       6.658  -3.776  27.219  1.00  0.00    -0.282 N 
HETATM   10  N   UNL     1       6.072  -4.744  27.770  1.00  0.00    -0.293 N 
ATOM     11  HN  UNL     1       6.297  -2.824  27.286  1.00  0.00     0.188 HD
HETATM   12  C   UNL     1       6.880  -5.635  27.709  1.00  0.00     0.214 C 
ATOM     13  HN  UNL     1       5.135  -4.769  28.172  1.00  0.00     0.187 HD
HETATM   14  N   UNL     1       7.970  -6.051  27.423  1.00  0.00    -0.293 N 
HETATM   15  N   UNL     1       8.566  -5.094  26.957  1.00  0.00    -0.282 N 
ATOM     16  HN  UNL     1       8.322  -7.001  27.544  1.00  0.00     0.187 HD
ATOM     17  HN  UNL     1       9.583  -5.066  26.879  1.00  0.00     0.188 HD
ENDBRANCH   1   8
BRANCH   1  18
HETATM   18  C   UNL     1       8.739  -2.133  25.792  1.00  0.00     0.058 C 
BRANCH  18  19
HETATM   19  O   UNL     1       9.021  -1.039  26.019  1.00  0.00    -0.192 OA
BRANCH  19  20
HETATM   20  N   UNL     1       9.320  -0.762  24.575  1.00  0.00    -0.252 N 
HETATM   21  C   UNL     1      10.310  -0.042  24.517  1.00  0.00     0.055 A 
HETATM   22  C   UNL     1      11.651   0.052  24.747  1.00  0.00     0.031 A 
HETATM   23  C   UNL     1      10.248   1.368  23.819  1.00  0.00     0.031 A 
HETATM   24  C   UNL     1      11.451   1.514  24.056  1.00  0.00     0.005 A 
ATOM     25  HN  UNL     1       8.790  -1.114  23.777  1.00  0.00     0.195 HD
ENDBRANCH  19  20
ENDBRANCH  18  19
ENDBRANCH   1  18
TORSDOF 7
ENDMDL
MODEL 7
REMARK VINA RESULT:    -5.537      2.059      5.287
REMARK INTER + INTRA:          -8.715
REMARK INTER:                  -7.918
REMARK INTRA:                  -0.797
REMARK UNBOUND:                -0.913
REMARK  7 active torsions:
REMARK  status: ('A' for Active; 'I' for Inactive)
REMARK    1  A    between atoms: C_2  and  N_3 
REMARK    2  A    between atoms: N_3  and  C_5 
REMARK    3  A    between atoms: C_6  and  C_17 
REMARK    4  A    between atoms: C_7  and  C_17 
REMARK    5  A    between atoms: C_17  and  C_18 
REMARK    6  A    between atoms: C_18  and  O_19 
REMARK    7  A    between atoms: O_19  and  N_20 
ROOT
HETATM    1  C   UNL     1       9.468  -0.942  22.502  1.00  0.00     0.138 C 
ENDROOT
BRANCH   1   2
HETATM    2  C   UNL     1       8.713  -2.047  22.791  1.00  0.00    -0.029 C 
HETATM    3  C   UNL     1       8.267  -3.055  23.201  1.00  0.00     0.014 C 
BRANCH   3   4
HETATM    4  N   UNL     1       7.727  -4.094  23.449  1.00  0.00    -0.324 N 
ATOM      5  HN  UNL     1       7.898  -4.403  24.406  1.00  0.00     0.172 HD
BRANCH   4   6
HETATM    6  C   UNL     1       6.895  -5.008  22.720  1.00  0.00     0.353 C 
HETATM    7  F   UNL     1       7.529  -5.259  21.485  1.00  0.00    -0.234 F 
ENDBRANCH   4   6
ENDBRANCH   3   4
ENDBRANCH   1   2
BRANCH   1   8
HETATM    8  C   UNL     1      10.570  -0.964  23.236  1.00  0.00     0.164 C 
HETATM    9  N   UNL     1      11.608  -1.706  22.871  1.00  0.00    -0.282 N 
HETATM   10  N   UNL     1      12.743  -1.313  23.248  1.00  0.00    -0.293 N 
ATOM     11  HN  UNL     1      11.492  -2.552  22.313  1.00  0.00     0.188 HD
HETATM   12  C   UNL     1      12.493  -0.469  24.069  1.00  0.00     0.214 C 
ATOM     13  HN  UNL     1      13.658  -1.634  22.932  1.00  0.00     0.187 HD
HETATM   14  N   UNL     1      11.709   0.156  24.732  1.00  0.00    -0.293 N 
HETATM   15  N   UNL     1      10.612  -0.277  24.424  1.00  0.00    -0.282 N 
ATOM     16  HN  UNL     1      11.918   0.890  25.409  1.00  0.00     0.187 HD
ATOM     17  HN  UNL     1       9.785  -0.139  25.005  1.00  0.00     0.188 HD
ENDBRANCH   1   8
BRANCH   1  18
HETATM   18  C   UNL     1       9.281   0.075  21.666  1.00  0.00     0.058 C 
BRANCH  18  19
HETATM   19  O   UNL     1       9.054   0.780  20.783  1.00  0.00    -0.192 OA
BRANCH  19  20
HETATM   20  N   UNL     1       8.459  -0.338  19.977  1.00  0.00    -0.252 N 
HETATM   21  C   UNL     1       7.346   0.009  19.599  1.00  0.00     0.055 A 
HETATM   22  C   UNL     1       6.640   0.869  18.811  1.00  0.00     0.031 A 
HETATM   23  C   UNL     1       6.064  -0.822  19.982  1.00  0.00     0.031 A 
HETATM   24  C   UNL     1       5.382  -0.033  19.320  1.00  0.00     0.005 A 
ATOM     25  HN  UNL     1       8.906  -1.233  19.776  1.00  0.00     0.195 HD
ENDBRANCH  19  20
ENDBRANCH  18  19
ENDBRANCH   1  18
TORSDOF 7
ENDMDL
MODEL 8
REMARK VINA RESULT:    -5.481      2.881      6.479
REMARK INTER + INTRA:          -8.637
REMARK INTER:                  -7.891
REMARK INTRA:                  -0.746
REMARK UNBOUND:                -0.913
REMARK  7 active torsions:
REMARK  status: ('A' for Active; 'I' for Inactive)
REMARK    1  A    between atoms: C_2  and  N_3 
REMARK    2  A    between atoms: N_3  and  C_5 
REMARK    3  A    between atoms: C_6  and  C_17 
REMARK    4  A    between atoms: C_7  and  C_17 
REMARK    5  A    between atoms: C_17  and  C_18 
REMARK    6  A    between atoms: C_18  and  O_19 
REMARK    7  A    between atoms: O_19  and  N_20 
ROOT
HETATM    1  C   UNL     1       9.282  -1.576  23.329  1.00  0.00     0.138 C 
ENDROOT
BRANCH   1   2
HETATM    2  C   UNL     1       8.800  -0.699  22.394  1.00  0.00    -0.029 C 
HETATM    3  C   UNL     1       8.149  -0.018  21.689  1.00  0.00     0.014 C 
BRANCH   3   4
HETATM    4  N   UNL     1       7.628   0.652  20.846  1.00  0.00    -0.324 N 
ATOM      5  HN  UNL     1       7.477   1.614  21.153  1.00  0.00     0.172 HD
BRANCH   4   6
HETATM    6  C   UNL     1       7.165   0.427  19.507  1.00  0.00     0.353 C 
HETATM    7  F   UNL     1       8.232  -0.150  18.786  1.00  0.00    -0.234 F 
ENDBRANCH   4   6
ENDBRANCH   3   4
ENDBRANCH   1   2
BRANCH   1   8
HETATM    8  C   UNL     1      10.242  -0.985  24.024  1.00  0.00     0.164 C 
HETATM    9  N   UNL     1      11.511  -1.102  23.655  1.00  0.00    -0.282 N 
HETATM   10  N   UNL     1      12.281  -0.159  23.975  1.00  0.00    -0.293 N 
ATOM     11  HN  UNL     1      11.846  -1.915  23.138  1.00  0.00     0.188 HD
HETATM   12  C   UNL     1      11.637   0.477  24.768  1.00  0.00     0.214 C 
ATOM     13  HN  UNL     1      13.228   0.023  23.642  1.00  0.00     0.187 HD
HETATM   14  N   UNL     1      10.648   0.642  25.431  1.00  0.00    -0.293 N 
HETATM   15  N   UNL     1       9.931  -0.312  25.179  1.00  0.00    -0.282 N 
ATOM     16  HN  UNL     1      10.452   1.414  26.068  1.00  0.00     0.187 HD
ATOM     17  HN  UNL     1       9.157  -0.590  25.783  1.00  0.00     0.188 HD
ENDBRANCH   1   8
BRANCH   1  18
HETATM   18  C   UNL     1       8.964  -2.832  23.623  1.00  0.00     0.058 C 
BRANCH  18  19
HETATM   19  O   UNL     1       8.458  -3.841  23.853  1.00  0.00    -0.192 OA
BRANCH  19  20
HETATM   20  N   UNL     1       8.096  -4.048  22.412  1.00  0.00    -0.252 N 
HETATM   21  C   UNL     1       6.987  -4.569  22.363  1.00  0.00     0.055 A 
HETATM   22  C   UNL     1       5.655  -4.408  22.608  1.00  0.00     0.031 A 
HETATM   23  C   UNL     1       6.774  -5.960  21.658  1.00  0.00     0.031 A 
HETATM   24  C   UNL     1       5.568  -5.877  21.909  1.00  0.00     0.005 A 
ATOM     25  HN  UNL     1       8.675  -3.799  21.609  1.00  0.00     0.195 HD
ENDBRANCH  19  20
ENDBRANCH  18  19
ENDBRANCH   1  18
TORSDOF 7
ENDMDL
MODEL 9
REMARK VINA RESULT:    -5.476      1.790      2.123
REMARK INTER + INTRA:          -8.629
REMARK INTER:                  -7.791
REMARK INTRA:                  -0.838
REMARK UNBOUND:                -0.913
REMARK  7 active torsions:
REMARK  status: ('A' for Active; 'I' for Inactive)
REMARK    1  A    between atoms: C_2  and  N_3 
REMARK    2  A    between atoms: N_3  and  C_5 
REMARK    3  A    between atoms: C_6  and  C_17 
REMARK    4  A    between atoms: C_7  and  C_17 
REMARK    5  A    between atoms: C_17  and  C_18 
REMARK    6  A    between atoms: C_18  and  O_19 
REMARK    7  A    between atoms: O_19  and  N_20 
ROOT
HETATM    1  C   UNL     1       8.228  -0.119  21.118  1.00  0.00     0.138 C 
ENDROOT
BRANCH   1   2
HETATM    2  C   UNL     1       8.254  -1.362  21.692  1.00  0.00    -0.029 C 
HETATM    3  C   UNL     1       8.416  -2.307  22.374  1.00  0.00     0.014 C 
BRANCH   3   4
HETATM    4  N   UNL     1       8.574  -3.367  22.906  1.00  0.00    -0.324 N 
ATOM      5  HN  UNL     1       9.163  -3.994  22.357  1.00  0.00     0.172 HD
BRANCH   4   6
HETATM    6  C   UNL     1       8.131  -3.967  24.131  1.00  0.00     0.353 C 
HETATM    7  F   UNL     1       8.202  -2.977  25.133  1.00  0.00    -0.234 F 
ENDBRANCH   4   6
ENDBRANCH   3   4
ENDBRANCH   1   2
BRANCH   1   8
HETATM    8  C   UNL     1       7.237  -0.064  20.243  1.00  0.00     0.164 C 
HETATM    9  N   UNL     1       7.457   0.343  18.999  1.00  0.00    -0.282 N 
HETATM   10  N   UNL     1       6.684  -0.105  18.113  1.00  0.00    -0.293 N 
ATOM     11  HN  UNL     1       8.215   0.987  18.773  1.00  0.00     0.188 HD
HETATM   12  C   UNL     1       5.788  -0.605  18.744  1.00  0.00     0.214 C 
ATOM     13  HN  UNL     1       6.790  -0.056  17.100  1.00  0.00     0.187 HD
HETATM   14  N   UNL     1       5.247  -0.855  19.787  1.00  0.00    -0.293 N 
HETATM   15  N   UNL     1       5.956  -0.356  20.644  1.00  0.00    -0.282 N 
ATOM     16  HN  UNL     1       4.380  -1.374  19.926  1.00  0.00     0.187 HD
ATOM     17  HN  UNL     1       5.623  -0.168  21.590  1.00  0.00     0.188 HD
ENDBRANCH   1   8
BRANCH   1  18
HETATM   18  C   UNL     1       8.988   0.959  21.289  1.00  0.00     0.058 C 
BRANCH  18  19
HETATM   19  O   UNL     1       9.773   1.747  21.587  1.00  0.00    -0.192 OA
BRANCH  19  20
HETATM   20  N   UNL     1       8.711   2.742  21.954  1.00  0.00    -0.252 N 
HETATM   21  C   UNL     1       8.860   3.048  23.132  1.00  0.00     0.055 A 
HETATM   22  C   UNL     1       9.665   3.666  24.043  1.00  0.00     0.031 A 
HETATM   23  C   UNL     1       7.708   2.820  24.181  1.00  0.00     0.031 A 
HETATM   24  C   UNL     1       8.428   3.326  25.048  1.00  0.00     0.005 A 
ATOM     25  HN  UNL     1       7.989   3.102  21.330  1.00  0.00     0.195 HD
ENDBRANCH  19  20
ENDBRANCH  18  19
ENDBRANCH   1  18
TORSDOF 7
ENDMDL
