stable:False satoms:21 tatoms:24 sratio:0.875
  -OEChem-07092417363D

 24 25  0     1  0  0  0  0  0999 V2000
    9.2555   -2.6524   24.4873 C   0  0  0  0  0  0  0  0  0  0  0  0
    7.7412   -3.3789   25.7577 H   0  0  0  0  0  0  0  0  0  0  0  0
    8.7481   -4.6605   25.1439 H   0  0  0  0  0  0  0  0  0  0  0  0
    9.3629   -3.6191   26.4138 H   0  0  0  0  0  0  0  0  0  0  0  0
    8.7618   -3.6296   25.4953 C   0  0  0  0  0  0  0  0  0  0  0  0
   10.6101   -2.2097   24.1737 C   0  0  0  0  0  0  0  0  0  0  0  0
    9.1313   -1.1728   22.8458 N   0  0  2  0  0  0  0  0  0  0  0  0
   10.9908   -1.0099   22.1922 H   0  0  0  0  0  0  0  0  0  0  0  0
   10.8126   -1.0807   23.2668 C   0  0  1  0  0  0  0  0  0  0  0  0
   11.9886   -0.3019   23.6917 O   0  0  0  0  0  0  0  0  0  0  0  0
   12.7880   -0.8189   23.5383 H   0  0  0  0  0  0  0  0  0  0  0  0
   11.5465   -2.6171   24.5335 H   0  0  0  0  0  0  0  0  0  0  0  0
    8.5822   -1.9241   23.6587 N   0  0  0  0  0  0  0  0  0  0  0  0
    8.5305   -0.9166   21.5781 C   0  0  0  0  0  0  0  0  0  0  0  0
    7.6334    0.2158   21.5265 N   0  0  0  0  0  0  0  0  0  0  0  0
    8.3460    1.0554   19.9163 H   0  0  0  0  0  0  0  0  0  0  0  0
    7.9392   -1.8041   21.3086 H   0  0  0  0  0  0  0  0  0  0  0  0
    9.2732   -0.7596   20.7867 H   0  0  0  0  0  0  0  0  0  0  0  0
    7.3732    0.5692   20.1071 C   0  0  1  0  0  0  0  0  0  0  0  0
    6.7110    0.4013   18.8640 O   0  0  0  0  0  0  0  0  0  0  0  0
    5.5308    1.8235   19.8628 H   0  0  0  0  0  0  0  0  0  0  0  0
    5.1347    0.1573   20.1706 H   0  0  0  0  0  0  0  0  0  0  0  0
    5.9522    0.8122   19.8378 C   0  0  0  0  0  0  0  0  0  0  0  0
    6.8404    0.2310   22.1395 H   0  0  0  0  0  0  0  0  0  0  0  0
 20 23  1  0  0  0  0
 19 20  1  0  0  0  0
 21 23  1  0  0  0  0
 19 23  1  0  0  0  0
 22 23  1  0  0  0  0
 16 19  1  0  0  0  0
 15 19  1  0  0  0  0
 14 18  1  0  0  0  0
 14 17  1  0  0  0  0
 14 15  1  0  0  0  0
 15 24  1  0  0  0  0
  7 14  1  0  0  0  0
  8  9  1  0  0  0  0
  7  9  1  0  0  0  0
  7 13  1  0  0  0  0
  9 10  1  0  0  0  0
  6  9  1  0  0  0  0
 10 11  1  0  0  0  0
  1 13  1  0  0  0  0
  1  6  2  0  0  0  0
  6 12  1  0  0  0  0
  1  5  1  0  0  0  0
  3  5  1  0  0  0  0
  2  5  1  0  0  0  0
  4  5  1  0  0  0  0
M  END
> <Shapegauss>
-131.336411

$$$$
