MODEL 1
REMARK VINA RESULT:    -5.297      0.000      0.000
REMARK INTER + INTRA:          -6.310
REMARK INTER:                  -6.381
REMARK INTRA:                   0.071
REMARK UNBOUND:                 0.071
REMARK  4 active torsions:
REMARK  status: ('A' for Active; 'I' for Inactive)
REMARK    1  A    between atoms: N_4  and  C_10 
REMARK    2  A    between atoms: C_5  and  O_6 
REMARK    3  A    between atoms: C_10  and  N_11 
REMARK    4  A    between atoms: N_11  and  C_12 
ROOT
HETATM    1  C   UNL     1       5.961   9.942   3.468  1.00  0.00     0.022 C 
HETATM    2  C   UNL     1       5.188   8.942   4.253  1.00  0.00     0.069 C 
HETATM    3  C   UNL     1       5.843  10.353   2.073  1.00  0.00     0.053 C 
HETATM    4  N   UNL     1       7.491  11.493   3.079  1.00  0.00    -0.267 N 
HETATM    5  C   UNL     1       6.863  11.220   1.483  1.00  0.00     0.263 C 
HETATM    6  N   UNL     1       6.962  10.671   3.835  1.00  0.00    -0.303 N 
ATOM      7  HN  UNL     1       7.329  10.564   4.781  1.00  0.00     0.186 HD
ENDROOT
BRANCH   4   8
HETATM    8  C   UNL     1       8.068  12.688   3.601  1.00  0.00     0.418 C 
BRANCH   8   9
HETATM    9  N   UNL     1       9.364  13.044   3.067  1.00  0.00     0.133 NA
HETATM   10  H   UNL     1      10.167  12.521   3.364  1.00  0.00     0.321 HD
BRANCH   9  11
HETATM   11  C   UNL     1       9.505  14.522   3.070  1.00  0.00     0.382 A 
HETATM   12  O   UNL     1      10.101  15.735   2.640  1.00  0.00    -0.351 OA
HETATM   13  C   UNL     1       9.435  15.097   1.722  1.00  0.00     0.234 A 
ENDBRANCH   9  11
ENDBRANCH   8   9
ENDBRANCH   4   8
BRANCH   5  14
HETATM   14  O   UNL     1       7.065  10.865   0.068  1.00  0.00    -0.372 OA
HETATM   15  H   UNL     1       6.526  10.096  -0.149  1.00  0.00     0.212 HD
ENDBRANCH   5  14
TORSDOF 4
ENDMDL
MODEL 2
REMARK VINA RESULT:    -4.808     21.205     23.051
REMARK INTER + INTRA:          -5.721
REMARK INTER:                  -5.602
REMARK INTRA:                  -0.120
REMARK UNBOUND:                 0.071
REMARK  4 active torsions:
REMARK  status: ('A' for Active; 'I' for Inactive)
REMARK    1  A    between atoms: N_4  and  C_10 
REMARK    2  A    between atoms: C_5  and  O_6 
REMARK    3  A    between atoms: C_10  and  N_11 
REMARK    4  A    between atoms: N_11  and  C_12 
ROOT
HETATM    1  C   UNL     1      11.072  -1.425  22.760  1.00  0.00     0.022 C 
HETATM    2  C   UNL     1      12.473  -1.367  23.258  1.00  0.00     0.069 C 
HETATM    3  C   UNL     1       9.933  -2.217  23.214  1.00  0.00     0.053 C 
HETATM    4  N   UNL     1       9.335  -0.922  21.485  1.00  0.00    -0.267 N 
HETATM    5  C   UNL     1       8.704  -2.240  22.422  1.00  0.00     0.263 C 
HETATM    6  N   UNL     1      10.532  -0.802  21.765  1.00  0.00    -0.303 N 
ATOM      7  HN  UNL     1      11.114  -0.190  21.193  1.00  0.00     0.186 HD
ENDROOT
BRANCH   4   8
HETATM    8  C   UNL     1       8.616   0.166  20.907  1.00  0.00     0.418 C 
BRANCH   8   9
HETATM    9  N   UNL     1       8.287   0.027  19.506  1.00  0.00     0.133 NA
HETATM   10  H   UNL     1       8.744   0.625  18.842  1.00  0.00     0.321 HD
BRANCH   9  11
HETATM   11  C   UNL     1       6.815  -0.113  19.361  1.00  0.00     0.382 A 
HETATM   12  O   UNL     1       5.498   0.407  19.283  1.00  0.00    -0.351 OA
HETATM   13  C   UNL     1       6.273   0.725  18.286  1.00  0.00     0.234 A 
ENDBRANCH   9  11
ENDBRANCH   8   9
ENDBRANCH   4   8
BRANCH   5  14
HETATM   14  O   UNL     1       8.078  -3.570  22.507  1.00  0.00    -0.372 OA
HETATM   15  H   UNL     1       7.155  -3.474  22.768  1.00  0.00     0.212 HD
ENDBRANCH   5  14
TORSDOF 4
ENDMDL
MODEL 3
REMARK VINA RESULT:    -4.792     22.051     22.860
REMARK INTER + INTRA:          -5.702
REMARK INTER:                  -5.615
REMARK INTRA:                  -0.086
REMARK UNBOUND:                 0.071
REMARK  4 active torsions:
REMARK  status: ('A' for Active; 'I' for Inactive)
REMARK    1  A    between atoms: N_4  and  C_10 
REMARK    2  A    between atoms: C_5  and  O_6 
REMARK    3  A    between atoms: C_10  and  N_11 
REMARK    4  A    between atoms: N_11  and  C_12 
ROOT
HETATM    1  C   UNL     1      10.417   5.882  24.072  1.00  0.00     0.022 C 
HETATM    2  C   UNL     1       9.513   7.005  24.445  1.00  0.00     0.069 C 
HETATM    3  C   UNL     1      11.837   5.677  24.334  1.00  0.00     0.053 C 
HETATM    4  N   UNL     1      11.005   3.946  23.178  1.00  0.00    -0.267 N 
HETATM    5  C   UNL     1      12.543   4.575  23.682  1.00  0.00     0.263 C 
HETATM    6  N   UNL     1      10.157   4.821  23.383  1.00  0.00    -0.303 N 
ATOM      7  HN  UNL     1       9.221   4.701  22.997  1.00  0.00     0.186 HD
ENDROOT
BRANCH   4   8
HETATM    8  C   UNL     1      10.617   2.579  23.048  1.00  0.00     0.418 C 
BRANCH   8   9
HETATM    9  N   UNL     1      10.313   2.138  21.705  1.00  0.00     0.133 NA
HETATM   10  H   UNL     1       9.564   2.586  21.209  1.00  0.00     0.321 HD
BRANCH   9  11
HETATM   11  C   UNL     1      10.335   0.654  21.661  1.00  0.00     0.382 A 
HETATM   12  O   UNL     1       9.788  -0.627  21.929  1.00  0.00    -0.351 OA
HETATM   13  C   UNL     1       9.116   0.089  21.074  1.00  0.00     0.234 A 
ENDBRANCH   9  11
ENDBRANCH   8   9
ENDBRANCH   4   8
BRANCH   5  14
HETATM   14  O   UNL     1      13.928   4.976  23.378  1.00  0.00    -0.372 OA
HETATM   15  H   UNL     1      14.180   4.628  22.515  1.00  0.00     0.212 HD
ENDBRANCH   5  14
TORSDOF 4
ENDMDL
MODEL 4
REMARK VINA RESULT:    -4.777     31.190     32.439
REMARK INTER + INTRA:          -5.683
REMARK INTER:                  -5.556
REMARK INTRA:                  -0.127
REMARK UNBOUND:                 0.071
REMARK  4 active torsions:
REMARK  status: ('A' for Active; 'I' for Inactive)
REMARK    1  A    between atoms: N_4  and  C_10 
REMARK    2  A    between atoms: C_5  and  O_6 
REMARK    3  A    between atoms: C_10  and  N_11 
REMARK    4  A    between atoms: N_11  and  C_12 
ROOT
HETATM    1  C   UNL     1       1.745 -20.884   8.801  1.00  0.00     0.022 C 
HETATM    2  C   UNL     1       1.418 -22.306   8.510  1.00  0.00     0.069 C 
HETATM    3  C   UNL     1       2.881 -20.066   8.391  1.00  0.00     0.053 C 
HETATM    4  N   UNL     1       1.477 -18.861   9.657  1.00  0.00    -0.267 N 
HETATM    5  C   UNL     1       3.072 -18.741   8.981  1.00  0.00     0.263 C 
HETATM    6  N   UNL     1       1.104 -20.032   9.530  1.00  0.00    -0.303 N 
ATOM      7  HN  UNL     1       0.261 -20.336  10.018  1.00  0.00     0.186 HD
ENDROOT
BRANCH   4   8
HETATM    8  C   UNL     1       0.526 -17.816   9.849  1.00  0.00     0.418 C 
BRANCH   8   9
HETATM    9  N   UNL     1       0.693 -17.029  11.051  1.00  0.00     0.133 NA
HETATM   10  H   UNL     1       1.311 -17.365  11.765  1.00  0.00     0.321 HD
BRANCH   9  11
HETATM   11  C   UNL     1      -0.635 -16.543  11.505  1.00  0.00     0.382 A 
HETATM   12  O   UNL     1      -1.832 -16.656  12.258  1.00  0.00    -0.351 OA
HETATM   13  C   UNL     1      -0.751 -16.504  12.967  1.00  0.00     0.234 A 
ENDBRANCH   9  11
ENDBRANCH   8   9
ENDBRANCH   4   8
BRANCH   5  14
HETATM   14  O   UNL     1       4.510 -18.460   9.127  1.00  0.00    -0.372 OA
HETATM   15  H   UNL     1       4.644 -17.851   9.863  1.00  0.00     0.212 HD
ENDBRANCH   5  14
TORSDOF 4
ENDMDL
MODEL 5
REMARK VINA RESULT:    -4.667     20.106     21.116
REMARK INTER + INTRA:          -5.552
REMARK INTER:                  -5.332
REMARK INTRA:                  -0.219
REMARK UNBOUND:                 0.071
REMARK  4 active torsions:
REMARK  status: ('A' for Active; 'I' for Inactive)
REMARK    1  A    between atoms: N_4  and  C_10 
REMARK    2  A    between atoms: C_5  and  O_6 
REMARK    3  A    between atoms: C_10  and  N_11 
REMARK    4  A    between atoms: N_11  and  C_12 
ROOT
HETATM    1  C   UNL     1       5.013   1.749  20.242  1.00  0.00     0.022 C 
HETATM    2  C   UNL     1       4.021   2.679  20.849  1.00  0.00     0.069 C 
HETATM    3  C   UNL     1       5.195   1.323  18.859  1.00  0.00     0.053 C 
HETATM    4  N   UNL     1       6.724   0.348  20.177  1.00  0.00    -0.267 N 
HETATM    5  C   UNL     1       6.125   0.238  18.551  1.00  0.00     0.263 C 
HETATM    6  N   UNL     1       5.943   1.061  20.816  1.00  0.00    -0.303 N 
ATOM      7  HN  UNL     1       6.035   1.106  21.831  1.00  0.00     0.186 HD
ENDROOT
BRANCH   4   8
HETATM    8  C   UNL     1       8.061   0.151  20.634  1.00  0.00     0.418 C 
BRANCH   8   9
HETATM    9  N   UNL     1       8.782   1.350  21.000  1.00  0.00     0.133 NA
HETATM   10  H   UNL     1       9.185   1.911  20.272  1.00  0.00     0.321 HD
BRANCH   9  11
HETATM   11  C   UNL     1       9.655   1.059  22.166  1.00  0.00     0.382 A 
HETATM   12  O   UNL     1      10.919   0.895  22.788  1.00  0.00    -0.351 OA
HETATM   13  C   UNL     1      10.653   2.108  22.398  1.00  0.00     0.234 A 
ENDBRANCH   9  11
ENDBRANCH   8   9
ENDBRANCH   4   8
BRANCH   5  14
HETATM   14  O   UNL     1       5.610  -0.560  17.425  1.00  0.00    -0.372 OA
HETATM   15  H   UNL     1       4.655  -0.660  17.514  1.00  0.00     0.212 HD
ENDBRANCH   5  14
TORSDOF 4
ENDMDL
MODEL 6
REMARK VINA RESULT:    -4.575     24.015     25.020
REMARK INTER + INTRA:          -5.441
REMARK INTER:                  -5.248
REMARK INTRA:                  -0.192
REMARK UNBOUND:                 0.071
REMARK  4 active torsions:
REMARK  status: ('A' for Active; 'I' for Inactive)
REMARK    1  A    between atoms: N_4  and  C_10 
REMARK    2  A    between atoms: C_5  and  O_6 
REMARK    3  A    between atoms: C_10  and  N_11 
REMARK    4  A    between atoms: N_11  and  C_12 
ROOT
HETATM    1  C   UNL     1       8.000  -3.602  23.846  1.00  0.00     0.022 C 
HETATM    2  C   UNL     1       7.934  -4.747  24.795  1.00  0.00     0.069 C 
HETATM    3  C   UNL     1       6.949  -2.726  23.337  1.00  0.00     0.053 C 
HETATM    4  N   UNL     1       8.933  -2.139  22.473  1.00  0.00    -0.267 N 
HETATM    5  C   UNL     1       7.246  -1.794  22.250  1.00  0.00     0.263 C 
HETATM    6  N   UNL     1       9.019  -3.127  23.210  1.00  0.00    -0.303 N 
ATOM      7  HN  UNL     1       9.925  -3.582  23.321  1.00  0.00     0.186 HD
ENDROOT
BRANCH   4   8
HETATM    8  C   UNL     1      10.036  -1.247  22.328  1.00  0.00     0.418 C 
BRANCH   8   9
HETATM    9  N   UNL     1      11.281  -1.688  22.916  1.00  0.00     0.133 NA
HETATM   10  H   UNL     1      11.304  -2.572  23.389  1.00  0.00     0.321 HD
BRANCH   9  11
HETATM   11  C   UNL     1      11.919  -0.547  23.623  1.00  0.00     0.382 A 
HETATM   12  O   UNL     1      12.647   0.026  24.696  1.00  0.00    -0.351 OA
HETATM   13  C   UNL     1      13.323  -0.807  23.960  1.00  0.00     0.234 A 
ENDBRANCH   9  11
ENDBRANCH   8   9
ENDBRANCH   4   8
BRANCH   5  14
HETATM   14  O   UNL     1       6.069  -1.653  21.375  1.00  0.00    -0.372 OA
HETATM   15  H   UNL     1       6.348  -1.322  20.514  1.00  0.00     0.212 HD
ENDBRANCH   5  14
TORSDOF 4
ENDMDL
MODEL 7
REMARK VINA RESULT:    -4.572     36.240     38.110
REMARK INTER + INTRA:          -5.437
REMARK INTER:                  -5.290
REMARK INTRA:                  -0.147
REMARK UNBOUND:                 0.071
REMARK  4 active torsions:
REMARK  status: ('A' for Active; 'I' for Inactive)
REMARK    1  A    between atoms: N_4  and  C_10 
REMARK    2  A    between atoms: C_5  and  O_6 
REMARK    3  A    between atoms: C_10  and  N_11 
REMARK    4  A    between atoms: N_11  and  C_12 
ROOT
HETATM    1  C   UNL     1      14.059 -10.160  34.151  1.00  0.00     0.022 C 
HETATM    2  C   UNL     1      14.318  -9.199  35.258  1.00  0.00     0.069 C 
HETATM    3  C   UNL     1      14.885 -11.236  33.613  1.00  0.00     0.053 C 
HETATM    4  N   UNL     1      12.939 -11.124  32.504  1.00  0.00    -0.267 N 
HETATM    5  C   UNL     1      14.481 -11.913  32.381  1.00  0.00     0.263 C 
HETATM    6  N   UNL     1      13.036 -10.245  33.367  1.00  0.00    -0.303 N 
ATOM      7  HN  UNL     1      12.283  -9.564  33.463  1.00  0.00     0.186 HD
ENDROOT
BRANCH   4   8
HETATM    8  C   UNL     1      11.661 -11.638  32.136  1.00  0.00     0.418 C 
BRANCH   8   9
HETATM    9  N   UNL     1      11.211 -11.305  30.802  1.00  0.00     0.133 NA
HETATM   10  H   UNL     1      11.532 -10.451  30.385  1.00  0.00     0.321 HD
BRANCH   9  11
HETATM   11  C   UNL     1       9.756 -11.583  30.693  1.00  0.00     0.382 A 
HETATM   12  O   UNL     1       8.391 -11.199  30.709  1.00  0.00    -0.351 OA
HETATM   13  C   UNL     1       9.087 -10.711  29.723  1.00  0.00     0.234 A 
ENDBRANCH   9  11
ENDBRANCH   8   9
ENDBRANCH   4   8
BRANCH   5  14
HETATM   14  O   UNL     1      15.674 -12.285  31.600  1.00  0.00    -0.372 OA
HETATM   15  H   UNL     1      16.439 -11.802  31.935  1.00  0.00     0.212 HD
ENDBRANCH   5  14
TORSDOF 4
ENDMDL
MODEL 8
REMARK VINA RESULT:    -4.536     22.241     23.690
REMARK INTER + INTRA:          -5.393
REMARK INTER:                  -5.527
REMARK INTRA:                   0.134
REMARK UNBOUND:                 0.071
REMARK  4 active torsions:
REMARK  status: ('A' for Active; 'I' for Inactive)
REMARK    1  A    between atoms: N_4  and  C_10 
REMARK    2  A    between atoms: C_5  and  O_6 
REMARK    3  A    between atoms: C_10  and  N_11 
REMARK    4  A    between atoms: N_11  and  C_12 
ROOT
HETATM    1  C   UNL     1      10.311   5.583  23.742  1.00  0.00     0.022 C 
HETATM    2  C   UNL     1       9.286   6.657  23.851  1.00  0.00     0.069 C 
HETATM    3  C   UNL     1      11.729   5.582  24.087  1.00  0.00     0.053 C 
HETATM    4  N   UNL     1      11.128   3.580  23.277  1.00  0.00    -0.267 N 
HETATM    5  C   UNL     1      12.570   4.452  23.695  1.00  0.00     0.263 C 
HETATM    6  N   UNL     1      10.191   4.385  23.274  1.00  0.00    -0.303 N 
ATOM      7  HN  UNL     1       9.292   4.094  22.889  1.00  0.00     0.186 HD
ENDROOT
BRANCH   4   8
HETATM    8  C   UNL     1      10.880   2.182  23.413  1.00  0.00     0.418 C 
BRANCH   8   9
HETATM    9  N   UNL     1      11.758   1.473  24.317  1.00  0.00     0.133 NA
HETATM   10  H   UNL     1      12.655   1.870  24.527  1.00  0.00     0.321 HD
BRANCH   9  11
HETATM   11  C   UNL     1      11.742   0.026  23.981  1.00  0.00     0.382 A 
HETATM   12  O   UNL     1      12.207  -1.112  23.275  1.00  0.00    -0.351 OA
HETATM   13  C   UNL     1      13.063  -0.597  24.109  1.00  0.00     0.234 A 
ENDBRANCH   9  11
ENDBRANCH   8   9
ENDBRANCH   4   8
BRANCH   5  14
HETATM   14  O   UNL     1      13.924   4.928  23.362  1.00  0.00    -0.372 OA
HETATM   15  H   UNL     1      14.398   5.138  24.175  1.00  0.00     0.212 HD
ENDBRANCH   5  14
TORSDOF 4
ENDMDL
MODEL 9
REMARK VINA RESULT:    -4.521      4.658      5.999
REMARK INTER + INTRA:          -5.375
REMARK INTER:                  -5.208
REMARK INTRA:                  -0.166
REMARK UNBOUND:                 0.071
REMARK  4 active torsions:
REMARK  status: ('A' for Active; 'I' for Inactive)
REMARK    1  A    between atoms: N_4  and  C_10 
REMARK    2  A    between atoms: C_5  and  O_6 
REMARK    3  A    between atoms: C_10  and  N_11 
REMARK    4  A    between atoms: N_11  and  C_12 
ROOT
HETATM    1  C   UNL     1       8.772  16.581   2.114  1.00  0.00     0.022 C 
HETATM    2  C   UNL     1       7.971  17.409   1.171  1.00  0.00     0.069 C 
HETATM    3  C   UNL     1       9.326  15.238   1.966  1.00  0.00     0.053 C 
HETATM    4  N   UNL     1       9.843  16.072   3.982  1.00  0.00    -0.267 N 
HETATM    5  C   UNL     1       9.910  14.564   3.124  1.00  0.00     0.263 C 
HETATM    6  N   UNL     1       9.144  16.847   3.322  1.00  0.00    -0.303 N 
ATOM      7  HN  UNL     1       8.850  17.728   3.744  1.00  0.00     0.186 HD
ENDROOT
BRANCH   4   8
HETATM    8  C   UNL     1      10.768  16.574   4.944  1.00  0.00     0.418 C 
BRANCH   8   9
HETATM    9  N   UNL     1      11.940  17.229   4.407  1.00  0.00     0.133 NA
HETATM   10  H   UNL     1      12.804  16.722   4.377  1.00  0.00     0.321 HD
BRANCH   9  11
HETATM   11  C   UNL     1      12.009  18.616   4.934  1.00  0.00     0.382 A 
HETATM   12  O   UNL     1      12.628  19.884   5.076  1.00  0.00    -0.351 OA
HETATM   13  C   UNL     1      12.205  19.612   3.876  1.00  0.00     0.234 A 
ENDBRANCH   9  11
ENDBRANCH   8   9
ENDBRANCH   4   8
BRANCH   5  14
HETATM   14  O   UNL     1       9.643  13.117   3.049  1.00  0.00    -0.372 OA
HETATM   15  H   UNL     1       8.979  12.880   3.706  1.00  0.00     0.212 HD
ENDBRANCH   5  14
TORSDOF 4
ENDMDL
