stable:False satoms:8 tatoms:24 sratio:0.3333333333333333
  -OEChem-07092417513D

 24 25  0     1  0  0  0  0  0999 V2000
    6.6326   -4.8409   26.4518 C   0  0  0  0  0  0  0  0  0  0  0  0
    8.1621   -4.3275   26.1306 S   0  0  0  0  0  0  0  0  0  0  0  0
    9.0593   -5.4568   26.0781 O   0  0  0  0  0  0  0  0  0  0  0  0
    8.5469   -3.4273   27.1651 O   0  0  0  0  0  0  0  0  0  0  0  0
    8.1294   -3.5535   24.6757 N   0  0  0  0  0  0  0  0  0  0  0  0
    8.9524   -2.9394   24.1590 C   0  0  0  0  0  0  0  0  0  0  0  0
    9.4201   -1.9846   23.4989 C   0  0  0  0  0  0  0  0  0  0  0  0
   10.3382   -1.1124   23.2524 C   0  0  1  0  0  0  0  0  0  0  0  0
   11.0331   -0.0409   24.2641 C   0  0  0  0  0  0  0  0  0  0  0  0
   12.0482    0.2982   24.2687 C   0  0  0  0  0  0  0  0  0  0  0  0
   13.1817   -0.1335   23.5011 C   0  0  0  0  0  0  0  0  0  0  0  0
   12.7581   -1.2967   22.5960 C   0  0  0  0  0  0  0  0  0  0  0  0
   11.8241   -1.7212   22.4787 C   0  0  0  0  0  0  0  0  0  0  0  0
    9.7118   -0.5948   22.3595 C   0  0  0  0  0  0  0  0  0  0  0  0
    9.0484    0.0483   21.4108 C   0  0  0  0  0  0  0  0  0  0  0  0
    9.5284    1.0130   21.0254 O   0  0  0  0  0  0  0  0  0  0  0  0
    7.9334   -0.5697   21.0746 N   0  0  0  0  0  0  0  0  0  0  0  0
    7.2008   -0.1091   20.1647 C   0  0  0  0  0  0  0  0  0  0  0  0
    7.2481   -0.0134   18.8640 C   0  0  0  0  0  0  0  0  0  0  0  0
    6.7865    0.3449   17.7669 N   0  0  0  0  0  0  0  0  0  0  0  0
    5.6255    0.9274   18.2276 C   0  0  0  0  0  0  0  0  0  0  0  0
    5.2645    0.9740   19.3598 C   0  0  0  0  0  0  0  0  0  0  0  0
    5.8375    0.5372   20.5286 C   0  0  0  0  0  0  0  0  0  0  0  0
    5.3128    0.6886   21.9947 C   0  0  0  0  0  0  0  0  0  0  0  0
 20 21  2  0  0  0  0
 19 20  1  0  0  0  0
 21 22  1  0  0  0  0
 18 19  2  0  0  0  0
 22 23  2  0  0  0  0
 18 23  1  0  0  0  0
 17 18  1  0  0  0  0
 23 24  1  0  0  0  0
 15 16  2  0  0  0  0
 15 17  1  0  0  0  0
 14 15  1  0  0  0  0
  8 14  1  0  0  0  0
 12 13  1  0  0  0  0
  8 13  1  0  0  0  0
 11 12  2  0  0  0  0
  7  8  1  0  0  0  0
  8  9  1  0  0  0  0
  6  7  2  3  0  0  0
 10 11  1  0  0  0  0
  5  6  1  0  0  0  0
  9 10  2  0  0  0  0
  2  5  1  0  0  0  0
  2  3  2  0  0  0  0
  1  2  1  0  0  0  0
  2  4  2  0  0  0  0
M  END
> <Shapegauss>
-285.866608

$$$$
