stable:False satoms:8 tatoms:24 sratio:0.3333333333333333
  -OEChem-08062417013D

 45 46  0     1  0  0  0  0  0999 V2000
    6.6169   -5.5097   26.1947 C   0  0  0  0  0  0  0  0  0  0  0  0
    8.1445   -4.9568   25.9363 S   0  0  0  0  0  0  0  0  0  0  0  0
    9.0534   -6.0693   25.7969 O   0  0  0  0  0  0  0  0  0  0  0  0
    8.5094   -4.1458   27.0488 O   0  0  0  0  0  0  0  0  0  0  0  0
    8.1195   -4.0606   24.5532 N   0  0  0  0  0  0  0  0  0  0  0  0
    8.9418   -3.3968   24.1007 C   0  0  0  0  0  0  0  0  0  0  0  0
    9.4069   -2.3845   23.5306 C   0  0  0  0  0  0  0  0  0  0  0  0
   10.3189   -1.4861   23.3706 C   0  0  1  0  0  0  0  0  0  0  0  0
   10.9924   -0.4996   24.4787 C   0  0  0  0  0  0  0  0  0  0  0  0
   12.0040   -0.1531   24.5240 C   0  0  0  0  0  0  0  0  0  0  0  0
   13.1497   -0.5068   23.7351 C   0  0  0  0  0  0  0  0  0  0  0  0
   12.7473   -1.5914   22.7284 C   0  0  0  0  0  0  0  0  0  0  0  0
   11.8188   -2.0125   22.5643 C   0  0  0  0  0  0  0  0  0  0  0  0
    9.6968   -0.8991   22.5186 C   0  0  0  0  0  0  0  0  0  0  0  0
    9.0371   -0.1825   21.6213 C   0  0  0  0  0  0  0  0  0  0  0  0
    9.5116    0.8161   21.3259 O   0  0  0  0  0  0  0  0  0  0  0  0
    7.9319   -0.7792   21.2205 N   0  0  0  0  0  0  0  0  0  0  0  0
    7.2044   -0.2485   20.3454 C   0  0  0  0  0  0  0  0  0  0  0  0
    7.2645   -0.0406   19.0583 C   0  0  0  0  0  0  0  0  0  0  0  0
    6.8110    0.4069   17.9910 N   0  0  0  0  0  0  0  0  0  0  0  0
    5.6395    0.9370   18.4869 C   0  0  0  0  0  0  0  0  0  0  0  0
    5.2661    0.8826   19.6148 C   0  0  0  0  0  0  0  0  0  0  0  0
    5.8310    0.3518   20.7480 C   0  0  0  0  0  0  0  0  0  0  0  0
    5.2894    0.3715   22.2157 C   0  0  0  0  0  0  0  0  0  0  0  0
    6.5958   -6.1145   27.1133 H   0  0  0  0  0  0  0  0  0  0  0  0
    5.9314   -4.6561   26.3019 H   0  0  0  0  0  0  0  0  0  0  0  0
    6.3017   -6.1282   25.3413 H   0  0  0  0  0  0  0  0  0  0  0  0
    7.3416   -3.4436   24.6725 H   0  0  0  0  0  0  0  0  0  0  0  0
    9.8276   -3.9937   24.2602 H   0  0  0  0  0  0  0  0  0  0  0  0
    8.6600   -2.1337   22.7920 H   0  0  0  0  0  0  0  0  0  0  0  0
   10.3374   -0.1527   25.2642 H   0  0  0  0  0  0  0  0  0  0  0  0
   12.1940    0.5844   25.2898 H   0  0  0  0  0  0  0  0  0  0  0  0
   14.1361   -0.0782   23.8344 H   0  0  0  0  0  0  0  0  0  0  0  0
   13.5452   -1.9666   22.1047 H   0  0  0  0  0  0  0  0  0  0  0  0
   11.6300   -1.9030   21.4862 H   0  0  0  0  0  0  0  0  0  0  0  0
   11.9293   -3.0789   22.8108 H   0  0  0  0  0  0  0  0  0  0  0  0
    8.7912   -1.4781   22.7520 H   0  0  0  0  0  0  0  0  0  0  0  0
   10.2634   -1.4085   21.7252 H   0  0  0  0  0  0  0  0  0  0  0  0
    7.6714   -1.6600   21.6158 H   0  0  0  0  0  0  0  0  0  0  0  0
    8.1994   -0.4970   18.7683 H   0  0  0  0  0  0  0  0  0  0  0  0
    4.9997    1.4507   17.7846 H   0  0  0  0  0  0  0  0  0  0  0  0
    4.2999    1.3365   19.7785 H   0  0  0  0  0  0  0  0  0  0  0  0
    4.6921   -0.5339   22.3988 H   0  0  0  0  0  0  0  0  0  0  0  0
    6.1353    0.4008   22.9182 H   0  0  0  0  0  0  0  0  0  0  0  0
    4.6600    1.2616   22.3622 H   0  0  0  0  0  0  0  0  0  0  0  0
 20 21  2  0  0  0  0
 19 20  1  0  0  0  0
 21 22  1  0  0  0  0
 18 19  2  0  0  0  0
 22 23  2  0  0  0  0
 18 23  1  0  0  0  0
 17 18  1  0  0  0  0
 23 24  1  0  0  0  0
 15 16  2  0  0  0  0
 15 17  1  0  0  0  0
 14 15  1  0  0  0  0
  8 14  1  0  0  0  0
 12 13  1  0  0  0  0
  8 13  1  0  0  0  0
 11 12  2  0  0  0  0
  7  8  1  0  0  0  0
  8  9  1  0  0  0  0
  6  7  2  3  0  0  0
 10 11  1  0  0  0  0
  5  6  1  0  0  0  0
  9 10  2  0  0  0  0
  2  5  1  0  0  0  0
  2  3  2  0  0  0  0
  1  2  1  0  0  0  0
  2  4  2  0  0  0  0
  1 25  1  0  0  0  0
  1 26  1  0  0  0  0
  1 27  1  0  0  0  0
  5 28  1  0  0  0  0
  6 29  1  0  0  0  0
  7 30  1  0  0  0  0
  9 31  1  0  0  0  0
 10 32  1  0  0  0  0
 11 33  1  0  0  0  0
 12 34  1  0  0  0  0
 13 35  1  0  0  0  0
 13 36  1  0  0  0  0
 14 37  1  0  0  0  0
 14 38  1  0  0  0  0
 17 39  1  0  0  0  0
 19 40  1  0  0  0  0
 21 41  1  0  0  0  0
 22 42  1  0  0  0  0
 24 43  1  0  0  0  0
 24 44  1  0  0  0  0
 24 45  1  0  0  0  0
M  END
> <Chemgauss4>
-12.516881

$$$$
