stable:False satoms:8 tatoms:24 sratio:0.3333333333333333
  -OEChem-08062417013D

 45 46  0     1  0  0  0  0  0999 V2000
   -6.7125   -5.4325  -26.0950 C   0  0  0  0  0  0  0  0  0  0  0  0
   -8.2401   -4.8796  -25.8366 S   0  0  0  0  0  0  0  0  0  0  0  0
   -9.1490   -5.9920  -25.6973 O   0  0  0  0  0  0  0  0  0  0  0  0
   -8.6050   -4.0685  -26.9491 O   0  0  0  0  0  0  0  0  0  0  0  0
   -8.2151   -3.9833  -24.4535 N   0  0  0  0  0  0  0  0  0  0  0  0
   -9.0374   -3.3196  -24.0010 C   0  0  0  0  0  0  0  0  0  0  0  0
   -9.5025   -2.3072  -23.4310 C   0  0  0  0  0  0  0  0  0  0  0  0
  -10.4144   -1.4088  -23.2710 C   0  0  1  0  0  0  0  0  0  0  0  0
  -11.0880   -0.4224  -24.3790 C   0  0  0  0  0  0  0  0  0  0  0  0
  -12.0995   -0.0758  -24.4244 C   0  0  0  0  0  0  0  0  0  0  0  0
  -13.2453   -0.4295  -23.6354 C   0  0  0  0  0  0  0  0  0  0  0  0
  -12.8429   -1.5141  -22.6287 C   0  0  0  0  0  0  0  0  0  0  0  0
  -11.9144   -1.9353  -22.4647 C   0  0  0  0  0  0  0  0  0  0  0  0
   -9.7924   -0.8218  -22.4189 C   0  0  0  0  0  0  0  0  0  0  0  0
   -9.1327   -0.1053  -21.5216 C   0  0  0  0  0  0  0  0  0  0  0  0
   -9.6071    0.8933  -21.2262 O   0  0  0  0  0  0  0  0  0  0  0  0
   -8.0275   -0.7020  -21.1208 N   0  0  0  0  0  0  0  0  0  0  0  0
   -7.3000   -0.1712  -20.2457 C   0  0  0  0  0  0  0  0  0  0  0  0
   -7.3601    0.0367  -18.9587 C   0  0  0  0  0  0  0  0  0  0  0  0
   -6.9066    0.4841  -17.8913 N   0  0  0  0  0  0  0  0  0  0  0  0
   -5.7350    1.0143  -18.3873 C   0  0  0  0  0  0  0  0  0  0  0  0
   -5.3617    0.9598  -19.5151 C   0  0  0  0  0  0  0  0  0  0  0  0
   -5.9266    0.4290  -20.6484 C   0  0  0  0  0  0  0  0  0  0  0  0
   -5.3850    0.4487  -22.1160 C   0  0  0  0  0  0  0  0  0  0  0  0
   -6.6913   -6.0372  -27.0136 H   0  0  0  0  0  0  0  0  0  0  0  0
   -6.0270   -4.5789  -26.2022 H   0  0  0  0  0  0  0  0  0  0  0  0
   -6.3973   -6.0509  -25.2417 H   0  0  0  0  0  0  0  0  0  0  0  0
   -7.4372   -3.3664  -24.5728 H   0  0  0  0  0  0  0  0  0  0  0  0
   -9.9232   -3.9164  -24.1605 H   0  0  0  0  0  0  0  0  0  0  0  0
   -8.7556   -2.0565  -22.6923 H   0  0  0  0  0  0  0  0  0  0  0  0
  -10.4329   -0.0754  -25.1645 H   0  0  0  0  0  0  0  0  0  0  0  0
  -12.2896    0.6617  -25.1901 H   0  0  0  0  0  0  0  0  0  0  0  0
  -14.2317   -0.0010  -23.7347 H   0  0  0  0  0  0  0  0  0  0  0  0
  -13.6408   -1.8893  -22.0051 H   0  0  0  0  0  0  0  0  0  0  0  0
  -11.7255   -1.8258  -21.3865 H   0  0  0  0  0  0  0  0  0  0  0  0
  -12.0249   -3.0016  -22.7111 H   0  0  0  0  0  0  0  0  0  0  0  0
   -8.8868   -1.4009  -22.6523 H   0  0  0  0  0  0  0  0  0  0  0  0
  -10.3590   -1.3312  -21.6255 H   0  0  0  0  0  0  0  0  0  0  0  0
   -7.7669   -1.5828  -21.5162 H   0  0  0  0  0  0  0  0  0  0  0  0
   -8.2949   -0.4197  -18.6686 H   0  0  0  0  0  0  0  0  0  0  0  0
   -5.0953    1.5280  -17.6849 H   0  0  0  0  0  0  0  0  0  0  0  0
   -4.3955    1.4137  -19.6788 H   0  0  0  0  0  0  0  0  0  0  0  0
   -4.7877   -0.4567  -22.2991 H   0  0  0  0  0  0  0  0  0  0  0  0
   -6.2309    0.4781  -22.8185 H   0  0  0  0  0  0  0  0  0  0  0  0
   -4.7556    1.3389  -22.2625 H   0  0  0  0  0  0  0  0  0  0  0  0
 20 21  2  0  0  0  0
 19 20  1  0  0  0  0
 21 22  1  0  0  0  0
 18 19  2  0  0  0  0
 22 23  2  0  0  0  0
 18 23  1  0  0  0  0
 17 18  1  0  0  0  0
 23 24  1  0  0  0  0
 15 16  2  0  0  0  0
 15 17  1  0  0  0  0
 14 15  1  0  0  0  0
  8 14  1  0  0  0  0
 12 13  1  0  0  0  0
  8 13  1  0  0  0  0
 11 12  2  0  0  0  0
  7  8  1  0  0  0  0
  8  9  1  0  0  0  0
  6  7  2  3  0  0  0
 10 11  1  0  0  0  0
  5  6  1  0  0  0  0
  9 10  2  0  0  0  0
  2  5  1  0  0  0  0
  2  3  2  0  0  0  0
  1  2  1  0  0  0  0
  2  4  2  0  0  0  0
  1 25  1  0  0  0  0
  1 26  1  0  0  0  0
  1 27  1  0  0  0  0
  5 28  1  0  0  0  0
  6 29  1  0  0  0  0
  7 30  1  0  0  0  0
  9 31  1  0  0  0  0
 10 32  1  0  0  0  0
 11 33  1  0  0  0  0
 12 34  1  0  0  0  0
 13 35  1  0  0  0  0
 13 36  1  0  0  0  0
 14 37  1  0  0  0  0
 14 38  1  0  0  0  0
 17 39  1  0  0  0  0
 19 40  1  0  0  0  0
 21 41  1  0  0  0  0
 22 42  1  0  0  0  0
 24 43  1  0  0  0  0
 24 44  1  0  0  0  0
 24 45  1  0  0  0  0
M  END
> <Chemgauss4>
-12.672740

$$$$
