MODEL 1
REMARK VINA RESULT:    -6.278      0.000      0.000
REMARK INTER + INTRA:          -9.911
REMARK INTER:                  -8.847
REMARK INTRA:                  -1.064
REMARK UNBOUND:                -1.064
REMARK  7 active torsions:
REMARK  status: ('A' for Active; 'I' for Inactive)
REMARK    1  A    between atoms: S_2  and  N_5 
REMARK    2  A    between atoms: N_5  and  C_7 
REMARK    3  A    between atoms: C_8  and  C_9 
REMARK    4  A    between atoms: C_9  and  C_10 
REMARK    5  A    between atoms: C_10  and  C_11 
REMARK    6  A    between atoms: C_13  and  C_14 
REMARK       I    between atoms: C_14  and  N_16 
REMARK    7  A    between atoms: N_16  and  C_18 
ROOT
HETATM    1  C   UNL     1       9.507  -1.632  23.288  1.00  0.00     0.024 C 
HETATM    2  C   UNL     1       9.315  -0.915  22.203  1.00  0.00     0.095 C 
ENDROOT
BRANCH   1   3
HETATM    3  C   UNL     1       8.812  -2.650  23.477  1.00  0.00    -0.043 C 
HETATM    4  C   UNL     1       8.048  -3.501  23.599  1.00  0.00     0.027 C 
BRANCH   4   5
HETATM    5  N   UNL     1       7.465  -4.499  23.543  1.00  0.00    -0.229 N 
ATOM      6  HN  UNL     1       7.511  -5.176  24.304  1.00  0.00     0.190 HD
BRANCH   5   7
HETATM    7  S   UNL     1       6.579  -4.790  22.230  1.00  0.00     0.327 S 
HETATM    8 CL   UNL     1       5.082  -5.616  22.989  1.00  0.00     0.042 Cl
HETATM    9  O   UNL     1       6.120  -3.621  21.601  1.00  0.00    -0.188 OA
HETATM   10  O   UNL     1       7.130  -5.754  21.405  1.00  0.00    -0.188 OA
ENDBRANCH   5   7
ENDBRANCH   4   5
ENDBRANCH   1   3
BRANCH   1  11
HETATM   11  C   UNL     1      10.401  -1.062  24.178  1.00  0.00     0.020 C 
BRANCH  11  12
HETATM   12  C   UNL     1      11.213  -0.381  23.872  1.00  0.00    -0.009 C 
HETATM   13  C   UNL     1      12.425  -0.090  24.396  1.00  0.00     0.011 C 
ENDBRANCH  11  12
ENDBRANCH   1  11
BRANCH   2  14
HETATM   14  C   UNL     1       8.645  -0.268  21.264  1.00  0.00     0.247 C 
HETATM   15  O   UNL     1       9.156   0.606  20.677  1.00  0.00    -0.268 OA
HETATM   16  N   UNL     1       7.304  -0.675  21.157  1.00  0.00    -0.317 N 
ATOM     17  HN  UNL     1       6.922  -1.432  21.725  1.00  0.00     0.169 HD
BRANCH  16  18
HETATM   18  C   UNL     1       6.600  -0.050  20.319  1.00  0.00     0.087 A 
HETATM   19  S   UNL     1       6.366  -0.640  18.742  1.00  0.00    -0.022 SA
HETATM   20  N   UNL     1       5.421  -0.020  17.505  1.00  0.00    -0.323 N 
HETATM   21  C   UNL     1       5.512   0.475  18.412  1.00  0.00     0.091 A 
ATOM     22  HN  UNL     1       5.040  -0.083  16.561  1.00  0.00     0.174 HD
HETATM   23  C   UNL     1       5.388   1.354  19.522  1.00  0.00     0.041 A 
HETATM   24  C   UNL     1       5.882   1.159  20.575  1.00  0.00     0.041 A 
ENDBRANCH  16  18
ENDBRANCH   2  14
TORSDOF 7
ENDMDL
MODEL 2
REMARK VINA RESULT:    -6.014      3.467      6.160
REMARK INTER + INTRA:          -9.538
REMARK INTER:                  -8.678
REMARK INTRA:                  -0.860
REMARK UNBOUND:                -1.064
REMARK  7 active torsions:
REMARK  status: ('A' for Active; 'I' for Inactive)
REMARK    1  A    between atoms: S_2  and  N_5 
REMARK    2  A    between atoms: N_5  and  C_7 
REMARK    3  A    between atoms: C_8  and  C_9 
REMARK    4  A    between atoms: C_9  and  C_10 
REMARK    5  A    between atoms: C_10  and  C_11 
REMARK    6  A    between atoms: C_13  and  C_14 
REMARK       I    between atoms: C_14  and  N_16 
REMARK    7  A    between atoms: N_16  and  C_18 
ROOT
HETATM    1  C   UNL     1       9.941   0.282  24.405  1.00  0.00     0.024 C 
HETATM    2  C   UNL     1       9.216  -0.447  25.223  1.00  0.00     0.095 C 
ENDROOT
BRANCH   1   3
HETATM    3  C   UNL     1       9.515   0.515  23.256  1.00  0.00    -0.043 C 
HETATM    4  C   UNL     1       8.977   0.719  22.261  1.00  0.00     0.027 C 
BRANCH   4   5
HETATM    5  N   UNL     1       8.597   1.172  21.266  1.00  0.00    -0.229 N 
ATOM      6  HN  UNL     1       8.907   2.093  20.957  1.00  0.00     0.190 HD
BRANCH   5   7
HETATM    7  S   UNL     1       7.565   0.307  20.381  1.00  0.00     0.327 S 
HETATM    8 CL   UNL     1       6.045   1.396  20.446  1.00  0.00     0.042 Cl
HETATM    9  O   UNL     1       7.937   0.214  19.030  1.00  0.00    -0.188 OA
HETATM   10  O   UNL     1       7.179  -0.871  20.994  1.00  0.00    -0.188 OA
ENDBRANCH   5   7
ENDBRANCH   4   5
ENDBRANCH   1   3
BRANCH   1  11
HETATM   11  C   UNL     1      11.195   0.592  24.902  1.00  0.00     0.020 C 
BRANCH  11  12
HETATM   12  C   UNL     1      12.121   0.516  24.307  1.00  0.00    -0.009 C 
HETATM   13  C   UNL     1      13.065  -0.444  24.181  1.00  0.00     0.011 C 
ENDBRANCH  11  12
ENDBRANCH   1  11
BRANCH   2  14
HETATM   14  C   UNL     1       8.457  -1.454  25.623  1.00  0.00     0.247 C 
HETATM   15  O   UNL     1       7.715  -1.310  26.516  1.00  0.00    -0.268 OA
HETATM   16  N   UNL     1       8.728  -2.657  24.948  1.00  0.00    -0.317 N 
ATOM     17  HN  UNL     1       9.412  -2.710  24.193  1.00  0.00     0.169 HD
BRANCH  16  18
HETATM   18  C   UNL     1       8.076  -3.666  25.329  1.00  0.00     0.087 A 
HETATM   19  S   UNL     1       8.599  -4.616  26.638  1.00  0.00    -0.022 SA
HETATM   20  N   UNL     1       7.860  -5.939  27.353  1.00  0.00    -0.323 N 
HETATM   21  C   UNL     1       7.449  -5.479  26.519  1.00  0.00     0.091 A 
ATOM     22  HN  UNL     1       7.833  -6.660  28.073  1.00  0.00     0.174 HD
HETATM   23  C   UNL     1       6.620  -5.059  25.444  1.00  0.00     0.041 A 
HETATM   24  C   UNL     1       6.832  -4.107  24.781  1.00  0.00     0.041 A 
ENDBRANCH  16  18
ENDBRANCH   2  14
TORSDOF 7
ENDMDL
MODEL 3
REMARK VINA RESULT:    -5.983      2.454      2.574
REMARK INTER + INTRA:          -9.495
REMARK INTER:                  -8.640
REMARK INTRA:                  -0.855
REMARK UNBOUND:                -1.064
REMARK  7 active torsions:
REMARK  status: ('A' for Active; 'I' for Inactive)
REMARK    1  A    between atoms: S_2  and  N_5 
REMARK    2  A    between atoms: N_5  and  C_7 
REMARK    3  A    between atoms: C_8  and  C_9 
REMARK    4  A    between atoms: C_9  and  C_10 
REMARK    5  A    between atoms: C_10  and  C_11 
REMARK    6  A    between atoms: C_13  and  C_14 
REMARK       I    between atoms: C_14  and  N_16 
REMARK    7  A    between atoms: N_16  and  C_18 
ROOT
HETATM    1  C   UNL     1       9.471  -2.135  23.171  1.00  0.00     0.024 C 
HETATM    2  C   UNL     1       8.735  -1.536  22.263  1.00  0.00     0.095 C 
ENDROOT
BRANCH   1   3
HETATM    3  C   UNL     1       8.983  -3.076  23.828  1.00  0.00    -0.043 C 
HETATM    4  C   UNL     1       8.449  -3.976  24.303  1.00  0.00     0.027 C 
BRANCH   4   5
HETATM    5  N   UNL     1       8.187  -4.977  24.823  1.00  0.00    -0.229 N 
ATOM      6  HN  UNL     1       8.142  -5.846  24.291  1.00  0.00     0.190 HD
BRANCH   5   7
HETATM    7  S   UNL     1       7.896  -4.959  26.407  1.00  0.00     0.327 S 
HETATM    8 CL   UNL     1       6.734  -3.499  26.538  1.00  0.00     0.042 Cl
HETATM    9  O   UNL     1       7.182  -6.084  26.851  1.00  0.00    -0.188 OA
HETATM   10  O   UNL     1       8.999  -4.597  27.158  1.00  0.00    -0.188 OA
ENDBRANCH   5   7
ENDBRANCH   4   5
ENDBRANCH   1   3
BRANCH   1  11
HETATM   11  C   UNL     1      10.697  -1.528  23.380  1.00  0.00     0.020 C 
BRANCH  11  12
HETATM   12  C   UNL     1      10.808  -0.476  23.693  1.00  0.00    -0.009 C 
HETATM   13  C   UNL     1      11.452   0.121  24.722  1.00  0.00     0.011 C 
ENDBRANCH  11  12
ENDBRANCH   1  11
BRANCH   2  14
HETATM   14  C   UNL     1       7.668  -0.957  21.735  1.00  0.00     0.247 C 
HETATM   15  O   UNL     1       6.621  -1.472  21.817  1.00  0.00    -0.268 OA
HETATM   16  N   UNL     1       7.968   0.217  21.022  1.00  0.00    -0.317 N 
ATOM     17  HN  UNL     1       8.916   0.592  20.974  1.00  0.00     0.169 HD
BRANCH  16  18
HETATM   18  C   UNL     1       6.998   0.779  20.446  1.00  0.00     0.087 A 
HETATM   19  S   UNL     1       6.624   0.455  18.819  1.00  0.00    -0.022 SA
HETATM   20  N   UNL     1       5.353   1.024  17.889  1.00  0.00    -0.323 N 
HETATM   21  C   UNL     1       5.490   1.346  18.865  1.00  0.00     0.091 A 
ATOM     22  HN  UNL     1       4.831   1.041  17.012  1.00  0.00     0.174 HD
HETATM   23  C   UNL     1       5.370   1.936  20.152  1.00  0.00     0.041 A 
HETATM   24  C   UNL     1       6.079   1.685  21.061  1.00  0.00     0.041 A 
ENDBRANCH  16  18
ENDBRANCH   2  14
TORSDOF 7
ENDMDL
MODEL 4
REMARK VINA RESULT:    -5.753      4.974      7.997
REMARK INTER + INTRA:          -9.171
REMARK INTER:                  -8.392
REMARK INTRA:                  -0.779
REMARK UNBOUND:                -1.064
REMARK  7 active torsions:
REMARK  status: ('A' for Active; 'I' for Inactive)
REMARK    1  A    between atoms: S_2  and  N_5 
REMARK    2  A    between atoms: N_5  and  C_7 
REMARK    3  A    between atoms: C_8  and  C_9 
REMARK    4  A    between atoms: C_9  and  C_10 
REMARK    5  A    between atoms: C_10  and  C_11 
REMARK    6  A    between atoms: C_13  and  C_14 
REMARK       I    between atoms: C_14  and  N_16 
REMARK    7  A    between atoms: N_16  and  C_18 
ROOT
HETATM    1  C   UNL     1       8.109  -3.995  23.605  1.00  0.00     0.024 C 
HETATM    2  C   UNL     1       7.828  -4.805  24.601  1.00  0.00     0.095 C 
ENDROOT
BRANCH   1   3
HETATM    3  C   UNL     1       8.792  -2.974  23.824  1.00  0.00    -0.043 C 
HETATM    4  C   UNL     1       9.365  -2.041  24.174  1.00  0.00     0.027 C 
BRANCH   4   5
HETATM    5  N   UNL     1      10.175  -1.256  24.434  1.00  0.00    -0.229 N 
ATOM      6  HN  UNL     1      10.226  -0.845  25.366  1.00  0.00     0.190 HD
BRANCH   5   7
HETATM    7  S   UNL     1      11.221  -0.832  23.285  1.00  0.00     0.327 S 
HETATM    8 CL   UNL     1      12.417   0.221  24.266  1.00  0.00     0.042 Cl
HETATM    9  O   UNL     1      11.958  -1.916  22.780  1.00  0.00    -0.188 OA
HETATM   10  O   UNL     1      10.680   0.031  22.350  1.00  0.00    -0.188 OA
ENDBRANCH   5   7
ENDBRANCH   4   5
ENDBRANCH   1   3
BRANCH   1  11
HETATM   11  C   UNL     1       7.469  -4.325  22.424  1.00  0.00     0.020 C 
BRANCH  11  12
HETATM   12  C   UNL     1       7.117  -5.344  22.188  1.00  0.00    -0.009 C 
HETATM   13  C   UNL     1       6.198  -5.829  21.322  1.00  0.00     0.011 C 
ENDBRANCH  11  12
ENDBRANCH   1  11
BRANCH   2  14
HETATM   14  C   UNL     1       7.444  -5.172  25.813  1.00  0.00     0.247 C 
HETATM   15  O   UNL     1       8.170  -5.784  26.496  1.00  0.00    -0.268 OA
HETATM   16  N   UNL     1       6.107  -4.842  26.097  1.00  0.00    -0.317 N 
ATOM     17  HN  UNL     1       5.526  -4.327  25.435  1.00  0.00     0.169 HD
BRANCH  16  18
HETATM   18  C   UNL     1       5.668  -5.222  27.216  1.00  0.00     0.087 A 
HETATM   19  S   UNL     1       5.042  -6.786  27.439  1.00  0.00    -0.022 SA
HETATM   20  N   UNL     1       4.482  -7.516  28.838  1.00  0.00    -0.323 N 
HETATM   21  C   UNL     1       4.794  -6.527  28.836  1.00  0.00     0.091 A 
ATOM     22  HN  UNL     1       4.111  -8.330  29.329  1.00  0.00     0.174 HD
HETATM   23  C   UNL     1       5.183  -5.203  29.175  1.00  0.00     0.041 A 
HETATM   24  C   UNL     1       5.683  -4.449  28.418  1.00  0.00     0.041 A 
ENDBRANCH  16  18
ENDBRANCH   2  14
TORSDOF 7
ENDMDL
MODEL 5
REMARK VINA RESULT:    -5.601      3.790      6.649
REMARK INTER + INTRA:          -8.957
REMARK INTER:                  -8.082
REMARK INTRA:                  -0.875
REMARK UNBOUND:                -1.064
REMARK  7 active torsions:
REMARK  status: ('A' for Active; 'I' for Inactive)
REMARK    1  A    between atoms: S_2  and  N_5 
REMARK    2  A    between atoms: N_5  and  C_7 
REMARK    3  A    between atoms: C_8  and  C_9 
REMARK    4  A    between atoms: C_9  and  C_10 
REMARK    5  A    between atoms: C_10  and  C_11 
REMARK    6  A    between atoms: C_13  and  C_14 
REMARK       I    between atoms: C_14  and  N_16 
REMARK    7  A    between atoms: N_16  and  C_18 
ROOT
HETATM    1  C   UNL     1       7.095   0.579  20.518  1.00  0.00     0.024 C 
HETATM    2  C   UNL     1       7.100  -0.685  20.877  1.00  0.00     0.095 C 
ENDROOT
BRANCH   1   3
HETATM    3  C   UNL     1       7.635   1.425  21.257  1.00  0.00    -0.043 C 
HETATM    4  C   UNL     1       8.264   2.116  21.928  1.00  0.00     0.027 C 
BRANCH   4   5
HETATM    5  N   UNL     1       8.821   3.014  22.401  1.00  0.00    -0.229 N 
ATOM      6  HN  UNL     1       8.977   3.871  21.872  1.00  0.00     0.190 HD
BRANCH   5   7
HETATM    7  S   UNL     1       9.342   2.872  23.918  1.00  0.00     0.327 S 
HETATM    8 CL   UNL     1      11.160   2.526  23.637  1.00  0.00     0.042 Cl
HETATM    9  O   UNL     1       9.268   4.072  24.644  1.00  0.00    -0.188 OA
HETATM   10  O   UNL     1       8.865   1.740  24.553  1.00  0.00    -0.188 OA
ENDBRANCH   5   7
ENDBRANCH   4   5
ENDBRANCH   1   3
BRANCH   1  11
HETATM   11  C   UNL     1       6.341   0.831  19.385  1.00  0.00     0.020 C 
BRANCH  11  12
HETATM   12  C   UNL     1       5.238   0.842  19.380  1.00  0.00    -0.009 C 
HETATM   13  C   UNL     1       4.320   1.820  19.558  1.00  0.00     0.011 C 
ENDBRANCH  11  12
ENDBRANCH   1  11
BRANCH   2  14
HETATM   14  C   UNL     1       6.970  -1.734  21.671  1.00  0.00     0.247 C 
HETATM   15  O   UNL     1       7.862  -2.071  22.348  1.00  0.00    -0.268 OA
HETATM   16  N   UNL     1       5.741  -2.400  21.516  1.00  0.00    -0.317 N 
ATOM     17  HN  UNL     1       5.018  -2.058  20.883  1.00  0.00     0.169 HD
BRANCH  16  18
HETATM   18  C   UNL     1       5.585  -3.444  22.205  1.00  0.00     0.087 A 
HETATM   19  S   UNL     1       6.080  -4.966  21.633  1.00  0.00    -0.022 SA
HETATM   20  N   UNL     1       6.039  -6.454  22.401  1.00  0.00    -0.323 N 
HETATM   21  C   UNL     1       5.653  -5.605  22.854  1.00  0.00     0.091 A 
ATOM     22  HN  UNL     1       6.242  -7.454  22.414  1.00  0.00     0.174 HD
HETATM   23  C   UNL     1       5.099  -4.650  23.749  1.00  0.00     0.041 A 
HETATM   24  C   UNL     1       5.047  -3.493  23.528  1.00  0.00     0.041 A 
ENDBRANCH  16  18
ENDBRANCH   2  14
TORSDOF 7
ENDMDL
MODEL 6
REMARK VINA RESULT:    -5.599     15.121     16.228
REMARK INTER + INTRA:          -8.954
REMARK INTER:                  -8.126
REMARK INTRA:                  -0.828
REMARK UNBOUND:                -1.064
REMARK  7 active torsions:
REMARK  status: ('A' for Active; 'I' for Inactive)
REMARK    1  A    between atoms: S_2  and  N_5 
REMARK    2  A    between atoms: N_5  and  C_7 
REMARK    3  A    between atoms: C_8  and  C_9 
REMARK    4  A    between atoms: C_9  and  C_10 
REMARK    5  A    between atoms: C_10  and  C_11 
REMARK    6  A    between atoms: C_13  and  C_14 
REMARK       I    between atoms: C_14  and  N_16 
REMARK    7  A    between atoms: N_16  and  C_18 
ROOT
HETATM    1  C   UNL     1      23.568  -2.077  23.547  1.00  0.00     0.024 C 
HETATM    2  C   UNL     1      23.436  -1.636  22.316  1.00  0.00     0.095 C 
ENDROOT
BRANCH   1   3
HETATM    3  C   UNL     1      23.921  -3.258  23.737  1.00  0.00    -0.043 C 
HETATM    4  C   UNL     1      24.179  -4.333  24.055  1.00  0.00     0.027 C 
BRANCH   4   5
HETATM    5  N   UNL     1      24.288  -5.482  24.130  1.00  0.00    -0.229 N 
ATOM      6  HN  UNL     1      24.455  -6.048  23.298  1.00  0.00     0.190 HD
BRANCH   5   7
HETATM    7  S   UNL     1      24.171  -6.165  25.584  1.00  0.00     0.327 S 
HETATM    8 CL   UNL     1      25.927  -5.983  26.203  1.00  0.00     0.042 Cl
HETATM    9  O   UNL     1      23.354  -5.444  26.470  1.00  0.00    -0.188 OA
HETATM   10  O   UNL     1      23.959  -7.530  25.528  1.00  0.00    -0.188 OA
ENDBRANCH   5   7
ENDBRANCH   4   5
ENDBRANCH   1   3
BRANCH   1  11
HETATM   11  C   UNL     1      23.148  -1.174  24.507  1.00  0.00     0.020 C 
BRANCH  11  12
HETATM   12  C   UNL     1      22.127  -0.758  24.545  1.00  0.00    -0.009 C 
HETATM   13  C   UNL     1      21.029  -1.062  25.274  1.00  0.00     0.011 C 
ENDBRANCH  11  12
ENDBRANCH   1  11
BRANCH   2  14
HETATM   14  C   UNL     1      23.066  -1.638  21.046  1.00  0.00     0.247 C 
HETATM   15  O   UNL     1      21.963  -1.903  20.757  1.00  0.00    -0.268 OA
HETATM   16  N   UNL     1      24.129  -1.403  20.156  1.00  0.00    -0.317 N 
ATOM     17  HN  UNL     1      25.074  -1.203  20.486  1.00  0.00     0.169 HD
BRANCH  16  18
HETATM   18  C   UNL     1      23.847  -1.453  18.929  1.00  0.00     0.087 A 
HETATM   19  S   UNL     1      24.091  -2.868  18.020  1.00  0.00    -0.022 SA
HETATM   20  N   UNL     1      23.722  -3.177  16.415  1.00  0.00    -0.323 N 
HETATM   21  C   UNL     1      23.562  -2.241  16.833  1.00  0.00     0.091 A 
ATOM     22  HN  UNL     1      23.683  -3.813  15.619  1.00  0.00     0.174 HD
HETATM   23  C   UNL     1      23.183  -0.898  17.105  1.00  0.00     0.041 A 
HETATM   24  C   UNL     1      23.254  -0.396  18.170  1.00  0.00     0.041 A 
ENDBRANCH  16  18
ENDBRANCH   2  14
TORSDOF 7
ENDMDL
MODEL 7
REMARK VINA RESULT:    -5.530      3.541      6.492
REMARK INTER + INTRA:          -8.856
REMARK INTER:                  -7.978
REMARK INTRA:                  -0.878
REMARK UNBOUND:                -1.064
REMARK  7 active torsions:
REMARK  status: ('A' for Active; 'I' for Inactive)
REMARK    1  A    between atoms: S_2  and  N_5 
REMARK    2  A    between atoms: N_5  and  C_7 
REMARK    3  A    between atoms: C_8  and  C_9 
REMARK    4  A    between atoms: C_9  and  C_10 
REMARK    5  A    between atoms: C_10  and  C_11 
REMARK    6  A    between atoms: C_13  and  C_14 
REMARK       I    between atoms: C_14  and  N_16 
REMARK    7  A    between atoms: N_16  and  C_18 
ROOT
HETATM    1  C   UNL     1       8.380  -0.233  21.133  1.00  0.00     0.024 C 
HETATM    2  C   UNL     1       7.761  -1.292  21.604  1.00  0.00     0.095 C 
ENDROOT
BRANCH   1   3
HETATM    3  C   UNL     1       9.433   0.153  21.679  1.00  0.00    -0.043 C 
HETATM    4  C   UNL     1      10.332   0.650  22.194  1.00  0.00     0.027 C 
BRANCH   4   5
HETATM    5  N   UNL     1      11.197   0.934  22.909  1.00  0.00    -0.229 N 
ATOM      6  HN  UNL     1      11.585   1.877  22.911  1.00  0.00     0.190 HD
BRANCH   5   7
HETATM    7  S   UNL     1      11.769  -0.198  23.901  1.00  0.00     0.327 S 
HETATM    8 CL   UNL     1      10.329  -0.397  25.080  1.00  0.00     0.042 Cl
HETATM    9  O   UNL     1      11.952  -1.442  23.274  1.00  0.00    -0.188 OA
HETATM   10  O   UNL     1      12.811   0.249  24.693  1.00  0.00    -0.188 OA
ENDBRANCH   5   7
ENDBRANCH   4   5
ENDBRANCH   1   3
BRANCH   1  11
HETATM   11  C   UNL     1       7.679   0.420  20.134  1.00  0.00     0.020 C 
BRANCH  11  12
HETATM   12  C   UNL     1       6.820  -0.026  19.604  1.00  0.00    -0.009 C 
HETATM   13  C   UNL     1       6.219   0.242  18.422  1.00  0.00     0.011 C 
ENDBRANCH  11  12
ENDBRANCH   1  11
BRANCH   2  14
HETATM   14  C   UNL     1       7.239  -2.106  22.507  1.00  0.00     0.247 C 
HETATM   15  O   UNL     1       6.464  -1.700  23.284  1.00  0.00    -0.268 OA
HETATM   16  N   UNL     1       7.787  -3.400  22.472  1.00  0.00    -0.317 N 
ATOM     17  HN  UNL     1       8.482  -3.673  21.776  1.00  0.00     0.169 HD
BRANCH  16  18
HETATM   18  C   UNL     1       7.371  -4.203  23.350  1.00  0.00     0.087 A 
HETATM   19  S   UNL     1       8.191  -4.409  24.824  1.00  0.00    -0.022 SA
HETATM   20  N   UNL     1       7.780  -5.353  26.145  1.00  0.00    -0.323 N 
HETATM   21  C   UNL     1       7.207  -5.360  25.281  1.00  0.00     0.091 A 
ATOM     22  HN  UNL     1       7.959  -5.679  27.095  1.00  0.00     0.174 HD
HETATM   23  C   UNL     1       6.207  -5.557  24.291  1.00  0.00     0.041 A 
HETATM   24  C   UNL     1       6.174  -4.980  23.263  1.00  0.00     0.041 A 
ENDBRANCH  16  18
ENDBRANCH   2  14
TORSDOF 7
ENDMDL
MODEL 8
REMARK VINA RESULT:    -5.343      3.778      5.387
REMARK INTER + INTRA:          -8.593
REMARK INTER:                  -7.698
REMARK INTRA:                  -0.895
REMARK UNBOUND:                -1.064
REMARK  7 active torsions:
REMARK  status: ('A' for Active; 'I' for Inactive)
REMARK    1  A    between atoms: S_2  and  N_5 
REMARK    2  A    between atoms: N_5  and  C_7 
REMARK    3  A    between atoms: C_8  and  C_9 
REMARK    4  A    between atoms: C_9  and  C_10 
REMARK    5  A    between atoms: C_10  and  C_11 
REMARK    6  A    between atoms: C_13  and  C_14 
REMARK       I    between atoms: C_14  and  N_16 
REMARK    7  A    between atoms: N_16  and  C_18 
ROOT
HETATM    1  C   UNL     1       6.563  -3.502  23.712  1.00  0.00     0.024 C 
HETATM    2  C   UNL     1       7.288  -2.539  23.187  1.00  0.00     0.095 C 
ENDROOT
BRANCH   1   3
HETATM    3  C   UNL     1       6.564  -3.660  24.949  1.00  0.00    -0.043 C 
HETATM    4  C   UNL     1       6.451  -3.697  26.092  1.00  0.00     0.027 C 
BRANCH   4   5
HETATM    5  N   UNL     1       6.284  -4.018  27.191  1.00  0.00    -0.229 N 
ATOM      6  HN  UNL     1       5.849  -3.384  27.862  1.00  0.00     0.190 HD
BRANCH   5   7
HETATM    7  S   UNL     1       6.755  -5.493  27.633  1.00  0.00     0.327 S 
HETATM    8 CL   UNL     1       5.360  -6.532  26.943  1.00  0.00     0.042 Cl
HETATM    9  O   UNL     1       7.929  -5.916  26.989  1.00  0.00    -0.188 OA
HETATM   10  O   UNL     1       6.699  -5.695  29.000  1.00  0.00    -0.188 OA
ENDBRANCH   5   7
ENDBRANCH   4   5
ENDBRANCH   1   3
BRANCH   1  11
HETATM   11  C   UNL     1       5.977  -4.330  22.771  1.00  0.00     0.020 C 
BRANCH  11  12
HETATM   12  C   UNL     1       6.244  -5.394  22.648  1.00  0.00    -0.009 C 
HETATM   13  C   UNL     1       7.081  -6.048  21.811  1.00  0.00     0.011 C 
ENDBRANCH  11  12
ENDBRANCH   1  11
BRANCH   2  14
HETATM   14  C   UNL     1       8.347  -1.773  22.985  1.00  0.00     0.247 C 
HETATM   15  O   UNL     1       9.227  -2.154  22.315  1.00  0.00    -0.268 OA
HETATM   16  N   UNL     1       8.315  -0.575  23.721  1.00  0.00    -0.317 N 
ATOM     17  HN  UNL     1       7.519  -0.323  24.307  1.00  0.00     0.169 HD
BRANCH  16  18
HETATM   18  C   UNL     1       9.327   0.168  23.615  1.00  0.00     0.087 A 
HETATM   19  S   UNL     1       9.466   1.304  22.357  1.00  0.00    -0.022 SA
HETATM   20  N   UNL     1      10.672   2.430  22.071  1.00  0.00    -0.323 N 
HETATM   21  C   UNL     1      10.740   1.758  22.858  1.00  0.00     0.091 A 
ATOM     22  HN  UNL     1      11.055   3.203  21.528  1.00  0.00     0.174 HD
HETATM   23  C   UNL     1      11.106   1.030  24.023  1.00  0.00     0.041 A 
HETATM   24  C   UNL     1      10.429   0.205  24.524  1.00  0.00     0.041 A 
ENDBRANCH  16  18
ENDBRANCH   2  14
TORSDOF 7
ENDMDL
MODEL 9
REMARK VINA RESULT:    -5.300      4.599      6.841
REMARK INTER + INTRA:          -8.533
REMARK INTER:                  -7.609
REMARK INTRA:                  -0.924
REMARK UNBOUND:                -1.064
REMARK  7 active torsions:
REMARK  status: ('A' for Active; 'I' for Inactive)
REMARK    1  A    between atoms: S_2  and  N_5 
REMARK    2  A    between atoms: N_5  and  C_7 
REMARK    3  A    between atoms: C_8  and  C_9 
REMARK    4  A    between atoms: C_9  and  C_10 
REMARK    5  A    between atoms: C_10  and  C_11 
REMARK    6  A    between atoms: C_13  and  C_14 
REMARK       I    between atoms: C_14  and  N_16 
REMARK    7  A    between atoms: N_16  and  C_18 
ROOT
HETATM    1  C   UNL     1       5.071  -5.602  24.679  1.00  0.00     0.024 C 
HETATM    2  C   UNL     1       6.003  -4.703  24.454  1.00  0.00     0.095 C 
ENDROOT
BRANCH   1   3
HETATM    3  C   UNL     1       5.062  -6.213  25.766  1.00  0.00    -0.043 C 
HETATM    4  C   UNL     1       5.209  -6.802  26.743  1.00  0.00     0.027 C 
BRANCH   4   5
HETATM    5  N   UNL     1       5.252  -7.147  27.847  1.00  0.00    -0.229 N 
ATOM      6  HN  UNL     1       4.627  -7.874  28.192  1.00  0.00     0.190 HD
BRANCH   5   7
HETATM    7  S   UNL     1       6.327  -6.448  28.822  1.00  0.00     0.327 S 
HETATM    8 CL   UNL     1       5.431  -4.865  29.260  1.00  0.00     0.042 Cl
HETATM    9  O   UNL     1       6.522  -7.148  30.024  1.00  0.00    -0.188 OA
HETATM   10  O   UNL     1       7.469  -6.032  28.162  1.00  0.00    -0.188 OA
ENDBRANCH   5   7
ENDBRANCH   4   5
ENDBRANCH   1   3
BRANCH   1  11
HETATM   11  C   UNL     1       4.270  -5.857  23.580  1.00  0.00     0.020 C 
BRANCH  11  12
HETATM   12  C   UNL     1       3.382  -5.255  23.322  1.00  0.00    -0.009 C 
HETATM   13  C   UNL     1       2.117  -5.220  23.800  1.00  0.00     0.011 C 
ENDBRANCH  11  12
ENDBRANCH   1  11
BRANCH   2  14
HETATM   14  C   UNL     1       7.217  -4.178  24.418  1.00  0.00     0.247 C 
HETATM   15  O   UNL     1       8.131  -4.788  24.819  1.00  0.00    -0.268 OA
HETATM   16  N   UNL     1       7.234  -2.847  23.967  1.00  0.00    -0.317 N 
ATOM     17  HN  UNL     1       6.386  -2.372  23.656  1.00  0.00     0.169 HD
BRANCH  16  18
HETATM   18  C   UNL     1       8.357  -2.274  23.969  1.00  0.00     0.087 A 
HETATM   19  S   UNL     1       9.291  -2.150  22.554  1.00  0.00    -0.022 SA
HETATM   20  N   UNL     1      10.758  -1.378  22.314  1.00  0.00    -0.323 N 
HETATM   21  C   UNL     1      10.318  -1.417  23.253  1.00  0.00     0.091 A 
ATOM     22  HN  UNL     1      11.518  -1.085  21.700  1.00  0.00     0.174 HD
HETATM   23  C   UNL     1       9.970  -1.252  24.621  1.00  0.00     0.041 A 
HETATM   24  C   UNL     1       8.956  -1.627  25.093  1.00  0.00     0.041 A 
ENDBRANCH  16  18
ENDBRANCH   2  14
TORSDOF 7
ENDMDL
