stable:False satoms:20 tatoms:24 sratio:0.8333333333333334
  -OEChem-07092417363D

 24 24  0     1  0  0  0  0  0999 V2000
    6.9298   -3.3761   25.8252 H   0  0  0  0  0  0  0  0  0  0  0  0
    8.0285   -3.3424   25.8164 C   0  0  0  0  0  0  0  0  0  0  0  0
    8.3939   -4.3535   25.5784 H   0  0  0  0  0  0  0  0  0  0  0  0
    8.3641   -3.0824   26.8276 H   0  0  0  0  0  0  0  0  0  0  0  0
   10.6708   -1.9563   23.0500 C   0  0  0  0  0  0  0  0  0  0  0  0
    8.5395   -2.3651   24.8791 C   0  0  0  0  0  0  0  0  0  0  0  0
   10.1475   -2.4998   22.2499 H   0  0  0  0  0  0  0  0  0  0  0  0
    9.8510   -0.7794   23.4403 C   0  0  2  0  0  0  0  0  0  0  0  0
   11.8307   -1.2750   22.6554 O   0  0  0  0  0  0  0  0  0  0  0  0
   10.4173   -0.0636   24.0670 H   0  0  0  0  0  0  0  0  0  0  0  0
   12.2970   -0.5586   23.0796 H   0  0  0  0  0  0  0  0  0  0  0  0
   10.9797   -2.6582   23.8215 H   0  0  0  0  0  0  0  0  0  0  0  0
    8.8398   -1.4343   24.1846 C   0  0  0  0  0  0  0  0  0  0  0  0
    9.5377   -0.0253   22.0849 C   0  0  0  0  0  0  0  0  0  0  0  0
    8.3489   -0.2736   21.5270 N   0  0  0  0  0  0  0  0  0  0  0  0
   10.2559    0.7544   21.5125 O   0  0  0  0  0  0  0  0  0  0  0  0
    8.5076   -1.3058   20.1805 S   0  0  0  0  0  0  0  0  0  0  0  0
    7.1128    0.2657   21.4887 C   0  3  0  0  0  0  0  0  0  0  0  0
    7.3974   -0.2275   19.2130 C   0  0  0  0  0  0  0  0  0  0  0  0
    6.9463   -0.8018   18.4101 H   0  0  0  0  0  0  0  0  0  0  0  0
    7.8841    0.6433   18.7739 H   0  0  0  0  0  0  0  0  0  0  0  0
    5.2601    0.5404   20.0094 O   0  0  0  0  0  0  0  0  0  0  0  0
    6.4192    0.2473   20.2562 C   0  0  0  0  0  0  0  0  0  0  0  0
    6.6242    0.6374   22.3656 H   0  0  0  0  0  0  0  0  0  0  0  0
 19 20  1  0  0  0  0
 19 21  1  0  0  0  0
 17 19  1  0  0  0  0
 19 23  1  0  0  0  0
 22 23  2  0  0  0  0
 15 17  1  0  0  0  0
 18 23  1  0  0  0  0
 15 18  1  0  0  0  0
 18 24  1  0  0  0  0
 14 16  2  0  0  0  0
 14 15  1  0  0  0  0
  8 14  1  0  0  0  0
  5  7  1  0  0  0  0
  5  9  1  0  0  0  0
  9 11  1  0  0  0  0
  5  8  1  0  0  0  0
  5 12  1  0  0  0  0
  8 10  1  0  0  0  0
  8 13  1  0  0  0  0
  6 13  2  3  0  0  0
  2  6  1  0  0  0  0
  2  3  1  0  0  0  0
  1  2  1  0  0  0  0
  2  4  1  0  0  0  0
M  CHG  1  18   1
M  END
> <Shapegauss>
-148.593796

$$$$
