stable:False satoms:20 tatoms:24 sratio:0.8333333333333334
  -OEChem-08062402293D

 25 25  0     1  0  0  0  0  0999 V2000
   -8.2186   -5.1359  -25.3110 H   0  0  0  0  0  0  0  0  0  0  0  0
   -7.4196   -4.7042  -24.6916 C   0  0  0  0  0  0  0  0  0  0  0  0
   -6.6036   -4.3949  -25.3632 H   0  0  0  0  0  0  0  0  0  0  0  0
   -7.0432   -5.4948  -24.0312 H   0  0  0  0  0  0  0  0  0  0  0  0
   -7.0497   -1.0700  -22.8996 C   0  0  0  0  0  0  0  0  0  0  0  0
   -7.8875   -3.5951  -23.8881 C   0  0  0  0  0  0  0  0  0  0  0  0
   -7.3369   -0.5603  -23.8308 H   0  0  0  0  0  0  0  0  0  0  0  0
   -8.2630   -1.6859  -22.3011 C   0  0  2  0  0  0  0  0  0  0  0  0
   -6.7027   -0.2268  -21.8348 O   0  0  0  0  0  0  0  0  0  0  0  0
   -8.0958   -2.0106  -21.2559 H   0  0  0  0  0  0  0  0  0  0  0  0
   -6.6671   -0.4032  -20.8976 H   0  0  0  0  0  0  0  0  0  0  0  0
   -6.1808   -1.6977  -23.0843 H   0  0  0  0  0  0  0  0  0  0  0  0
   -8.4172   -2.7931  -23.1705 C   0  0  0  0  0  0  0  0  0  0  0  0
   -9.3295   -0.5189  -22.2340 C   0  0  0  0  0  0  0  0  0  0  0  0
  -10.2247   -0.4733  -23.2254 N   0  0  0  0  0  0  0  0  0  0  0  0
   -9.4216    0.3235  -21.3777 O   0  0  0  0  0  0  0  0  0  0  0  0
   -9.8597    0.7776  -24.3234 S   0  0  0  0  0  0  0  0  0  0  0  0
  -11.4847   -0.8857  -23.4753 C   0  0  0  0  0  2  0  0  0  0  0  0
  -11.6094    1.2972  -24.3253 C   0  0  0  0  0  0  0  0  0  0  0  0
  -11.8247    1.8356  -25.2427 H   0  0  0  0  0  0  0  0  0  0  0  0
  -11.8924    1.9323  -23.4860 H   0  0  0  0  0  0  0  0  0  0  0  0
  -13.4484   -0.2194  -24.6570 O   0  0  0  0  0  0  0  0  0  0  0  0
  -12.3361   -0.0166  -24.1966 C   0  0  0  0  0  0  0  0  0  0  0  0
   -7.0855   -2.9332  -24.1798 H   0  0  0  0  0  0  0  0  0  0  0  0
   -9.4747   -3.0105  -23.2006 H   0  0  0  0  0  0  0  0  0  0  0  0
 19 20  1  0  0  0  0
 19 21  1  0  0  0  0
 17 19  1  0  0  0  0
 19 23  1  0  0  0  0
 22 23  2  0  0  0  0
 15 17  1  0  0  0  0
 18 23  1  0  0  0  0
 15 18  1  0  0  0  0
 14 16  2  0  0  0  0
 14 15  1  0  0  0  0
  8 14  1  0  0  0  0
  5  7  1  0  0  0  0
  5  9  1  0  0  0  0
  9 11  1  0  0  0  0
  5  8  1  0  0  0  0
  5 12  1  0  0  0  0
  8 10  1  0  0  0  0
  8 13  1  0  0  0  0
  6 13  2  3  0  0  0
  2  6  1  0  0  0  0
  2  3  1  0  0  0  0
  1  2  1  0  0  0  0
  2  4  1  0  0  0  0
  6 24  1  0  0  0  0
 13 25  1  0  0  0  0
M  END
> <Chemgauss4>
-6.830869

$$$$
