stable:False satoms:20 tatoms:24 sratio:0.8333333333333334
  -OEChem-08062402293D

 25 25  0     1  0  0  0  0  0999 V2000
    8.5349   -5.3904   25.3944 H   0  0  0  0  0  0  0  0  0  0  0  0
    7.7359   -4.9588   24.7750 C   0  0  0  0  0  0  0  0  0  0  0  0
    6.9200   -4.6495   25.4465 H   0  0  0  0  0  0  0  0  0  0  0  0
    7.3595   -5.7493   24.1145 H   0  0  0  0  0  0  0  0  0  0  0  0
    7.3661   -1.3245   22.9829 C   0  0  0  0  0  0  0  0  0  0  0  0
    8.2038   -3.8496   23.9714 C   0  0  0  0  0  0  0  0  0  0  0  0
    7.6532   -0.8148   23.9142 H   0  0  0  0  0  0  0  0  0  0  0  0
    8.5793   -1.9404   22.3844 C   0  0  2  0  0  0  0  0  0  0  0  0
    7.0190   -0.4814   21.9181 O   0  0  0  0  0  0  0  0  0  0  0  0
    8.4122   -2.2651   21.3392 H   0  0  0  0  0  0  0  0  0  0  0  0
    6.9835   -0.6577   20.9810 H   0  0  0  0  0  0  0  0  0  0  0  0
    6.4971   -1.9522   23.1677 H   0  0  0  0  0  0  0  0  0  0  0  0
    8.7336   -3.0476   23.2538 C   0  0  0  0  0  0  0  0  0  0  0  0
    9.6459   -0.7734   22.3173 C   0  0  0  0  0  0  0  0  0  0  0  0
   10.5410   -0.7279   23.3087 N   0  0  0  0  0  0  0  0  0  0  0  0
    9.7380    0.0690   21.4610 O   0  0  0  0  0  0  0  0  0  0  0  0
   10.1761    0.5231   24.4067 S   0  0  0  0  0  0  0  0  0  0  0  0
   11.8011   -1.1402   23.5586 C   0  0  0  0  0  2  0  0  0  0  0  0
   11.9257    1.0426   24.4087 C   0  0  0  0  0  0  0  0  0  0  0  0
   12.1411    1.5811   25.3261 H   0  0  0  0  0  0  0  0  0  0  0  0
   12.2087    1.6778   23.5693 H   0  0  0  0  0  0  0  0  0  0  0  0
   13.7647   -0.4740   24.7403 O   0  0  0  0  0  0  0  0  0  0  0  0
   12.6524   -0.2711   24.2799 C   0  0  0  0  0  0  0  0  0  0  0  0
    7.4019   -3.1877   24.2631 H   0  0  0  0  0  0  0  0  0  0  0  0
    9.7910   -3.2650   23.2839 H   0  0  0  0  0  0  0  0  0  0  0  0
 19 20  1  0  0  0  0
 19 21  1  0  0  0  0
 17 19  1  0  0  0  0
 19 23  1  0  0  0  0
 22 23  2  0  0  0  0
 15 17  1  0  0  0  0
 18 23  1  0  0  0  0
 15 18  1  0  0  0  0
 14 16  2  0  0  0  0
 14 15  1  0  0  0  0
  8 14  1  0  0  0  0
  5  7  1  0  0  0  0
  5  9  1  0  0  0  0
  9 11  1  0  0  0  0
  5  8  1  0  0  0  0
  5 12  1  0  0  0  0
  8 10  1  0  0  0  0
  8 13  1  0  0  0  0
  6 13  2  3  0  0  0
  2  6  1  0  0  0  0
  2  3  1  0  0  0  0
  1  2  1  0  0  0  0
  2  4  1  0  0  0  0
  6 24  1  0  0  0  0
 13 25  1  0  0  0  0
M  END
> <Chemgauss4>
-6.902442

$$$$
