stable:False satoms:10 tatoms:24 sratio:0.4166666666666667
  -OEChem-08062417303D

 45 46  0     1  0  0  0  0  0999 V2000
    6.3588   -5.1970   26.2313 C   0  0  0  0  0  0  0  0  0  0  0  0
    7.9529   -4.6029   26.0272 S   0  0  0  0  0  0  0  0  0  0  0  0
    8.8368   -5.7187   25.9620 O   0  0  0  0  0  0  0  0  0  0  0  0
    8.2055   -3.7623   27.1430 O   0  0  0  0  0  0  0  0  0  0  0  0
    7.9292   -3.7554   24.6428 N   0  0  0  0  0  0  0  0  0  0  0  0
    8.7899   -3.1140   24.1927 C   0  0  0  0  0  0  0  0  0  0  0  0
    9.2683   -2.0930   23.6090 C   0  0  0  0  0  0  0  0  0  0  0  0
   10.1571   -1.1718   23.5549 C   0  0  2  0  0  0  0  0  0  0  0  0
   10.7468   -0.1755   24.5772 C   0  0  0  0  0  0  0  0  0  0  0  0
   11.8155    0.1915   24.6620 C   0  0  0  0  0  0  0  0  0  0  0  0
   12.9610   -0.2675   23.8700 C   0  0  0  0  0  0  0  0  0  0  0  0
   12.5701   -1.3129   23.0085 C   0  0  0  0  0  0  0  0  0  0  0  0
   11.7006   -1.7942   22.7770 C   0  0  0  0  0  0  0  0  0  0  0  0
    9.6081   -0.6950   22.5539 C   0  0  2  0  0  0  0  0  0  0  0  0
    8.9932   -0.0306   21.5635 C   0  0  0  0  0  0  0  0  0  0  0  0
    9.4946    0.9497   21.2029 O   0  0  0  0  0  0  0  0  0  0  0  0
    7.8989   -0.6212   21.1647 N   0  0  0  0  0  0  0  0  0  0  0  0
    7.2287   -0.1177   20.2437 C   0  0  0  0  0  0  0  0  0  0  0  0
    7.3789    0.0339   18.9211 C   0  0  0  0  0  0  0  0  0  0  0  0
    6.9690    0.4347   17.8533 N   0  0  0  0  0  0  0  0  0  0  0  0
    5.7809    0.8766   18.2290 C   0  0  0  0  0  0  0  0  0  0  0  0
    5.2875    0.9356   19.3909 C   0  0  0  0  0  0  0  0  0  0  0  0
    5.8094    0.5054   20.5343 C   0  0  0  0  0  0  0  0  0  0  0  0
    5.2113    0.5747   21.9498 C   0  0  0  0  0  0  0  0  0  0  0  0
    6.3023   -5.7860   27.1586 H   0  0  0  0  0  0  0  0  0  0  0  0
    5.6574   -4.3517   26.2906 H   0  0  0  0  0  0  0  0  0  0  0  0
    6.0929   -5.8347   25.3753 H   0  0  0  0  0  0  0  0  0  0  0  0
    7.1630   -3.1208   24.7441 H   0  0  0  0  0  0  0  0  0  0  0  0
    9.6637   -3.7239   24.3686 H   0  0  0  0  0  0  0  0  0  0  0  0
   11.0587   -1.6761   23.1770 H   0  0  0  0  0  0  0  0  0  0  0  0
   10.0527    0.2216   25.3031 H   0  0  0  0  0  0  0  0  0  0  0  0
   12.0097    0.9558   25.3999 H   0  0  0  0  0  0  0  0  0  0  0  0
   13.7488   -0.6299   24.5469 H   0  0  0  0  0  0  0  0  0  0  0  0
   13.3484    0.5705   23.2719 H   0  0  0  0  0  0  0  0  0  0  0  0
   13.4066   -1.7056   22.4495 H   0  0  0  0  0  0  0  0  0  0  0  0
   11.7021   -2.5914   22.0484 H   0  0  0  0  0  0  0  0  0  0  0  0
   10.7788   -1.5064   23.2607 H   0  0  0  0  0  0  0  0  0  0  0  0
   10.2000   -1.3070   21.8573 H   0  0  0  0  0  0  0  0  0  0  0  0
    7.6009   -1.4726   21.5962 H   0  0  0  0  0  0  0  0  0  0  0  0
    8.3301   -0.4257   18.6968 H   0  0  0  0  0  0  0  0  0  0  0  0
    5.1448    1.2366   17.4339 H   0  0  0  0  0  0  0  0  0  0  0  0
    4.3134    1.3963   19.4640 H   0  0  0  0  0  0  0  0  0  0  0  0
    4.6271   -0.3364   22.1466 H   0  0  0  0  0  0  0  0  0  0  0  0
    6.0234    0.6558   22.6873 H   0  0  0  0  0  0  0  0  0  0  0  0
    4.5557    1.4545   22.0281 H   0  0  0  0  0  0  0  0  0  0  0  0
 20 21  2  0  0  0  0
 19 20  1  0  0  0  0
 21 22  1  0  0  0  0
 18 19  2  0  0  0  0
 22 23  2  0  0  0  0
 18 23  1  0  0  0  0
 17 18  1  0  0  0  0
 23 24  1  0  0  0  0
 15 16  2  0  0  0  0
 15 17  1  0  0  0  0
 14 15  1  0  0  0  0
  8 14  1  0  0  0  0
  7 14  1  0  0  0  0
 12 13  2  0  0  0  0
 11 12  1  0  0  0  0
  7  8  1  0  0  0  0
  8  9  1  0  0  0  0
 10 11  1  0  0  0  0
  6  7  2  3  0  0  0
  5  6  1  0  0  0  0
  9 10  2  0  0  0  0
  2  5  1  0  0  0  0
  2  3  2  0  0  0  0
  1  2  1  0  0  0  0
  2  4  2  0  0  0  0
  1 25  1  0  0  0  0
  1 26  1  0  0  0  0
  1 27  1  0  0  0  0
  5 28  1  0  0  0  0
  6 29  1  0  0  0  0
  8 30  1  0  0  0  0
  9 31  1  0  0  0  0
 10 32  1  0  0  0  0
 11 33  1  0  0  0  0
 11 34  1  0  0  0  0
 12 35  1  0  0  0  0
 13 36  1  0  0  0  0
 13 37  1  0  0  0  0
 14 38  1  0  0  0  0
 17 39  1  0  0  0  0
 19 40  1  0  0  0  0
 21 41  1  0  0  0  0
 22 42  1  0  0  0  0
 24 43  1  0  0  0  0
 24 44  1  0  0  0  0
 24 45  1  0  0  0  0
M  END
> <Chemgauss4>
-13.202307

$$$$
