stable:False satoms:21 tatoms:24 sratio:0.875
  -OEChem-08052416393D

 26 25  0     1  0  0  0  0  0999 V2000
   10.7385    0.2826   24.4840 C   0  0  1  0  0  0  0  0  0  0  0  0
   12.0179   -1.4064   24.2098 H   0  0  0  0  0  0  0  0  0  0  0  0
   12.0297   -0.3065   22.8113 H   0  0  0  0  0  0  0  0  0  0  0  0
   11.3954   -0.8063   23.5377 C   0  0  0  0  0  0  0  0  0  0  0  0
    8.9827    2.6630   21.4506 H   0  0  0  0  0  0  0  0  0  0  0  0
   12.1589    1.7971   23.8329 H   0  0  0  0  0  0  0  0  0  0  0  0
    8.5203    1.4975   22.6936 H   0  0  0  0  0  0  0  0  0  0  0  0
   11.1117   -2.6720   22.5022 H   0  0  0  0  0  0  0  0  0  0  0  0
    9.1357   -0.2866   25.5194 H   0  0  0  0  0  0  0  0  0  0  0  0
    9.3811    1.9306   22.1614 C   0  0  0  0  0  0  0  0  0  0  0  0
    9.2353   -0.8372   23.9765 H   0  0  0  0  0  0  0  0  0  0  0  0
   10.0932   -0.1374   21.6232 H   0  0  0  0  0  0  0  0  0  0  0  0
    9.9016   -1.3752   21.5991 O   0  0  0  0  0  0  0  0  0  0  0  0
   10.0983    0.9899   21.4627 O   0  0  0  0  0  0  0  0  0  0  0  0
    9.6810   -2.1735   23.4165 H   0  0  0  0  0  0  0  0  0  0  0  0
   11.0308    3.2121   22.5528 H   0  0  0  0  0  0  0  0  0  0  0  0
   10.4854   -1.8020   22.7597 C   0  0  0  0  0  0  0  0  0  0  0  0
    9.3716   -0.0494   24.5770 N   0  3  0  0  0  0  0  0  0  0  0  0
   10.3166    2.6676   23.1592 C   0  0  0  0  0  0  0  0  0  0  0  0
   11.1937    0.0583   25.7850 O   0  0  0  0  0  0  0  0  0  0  0  0
   12.0360    0.5184   25.9061 H   0  0  0  0  0  0  0  0  0  0  0  0
   11.0666    2.3028   25.1152 H   0  0  0  0  0  0  0  0  0  0  0  0
    9.7061    3.3632   23.7224 H   0  0  0  0  0  0  0  0  0  0  0  0
   11.1216    1.7918   24.1538 C   0  0  0  0  0  0  0  0  0  0  0  0
    9.3778   -2.0769   21.2309 H   0  0  0  0  0  0  0  0  0  0  0  0
    8.8068    0.7187   24.2752 H   0  0  0  0  0  0  0  0  0  0  0  0
  8 17  1  0  0  0  0
  3  4  1  0  0  0  0
 13 17  1  0  0  0  0
 12 14  1  0  0  0  0
 10 14  1  0  0  0  0
  4 17  1  0  0  0  0
 15 17  1  0  0  0  0
  2  4  1  0  0  0  0
  1  4  1  0  0  0  0
  6 24  1  0  0  0  0
 16 19  1  0  0  0  0
  5 10  1  0  0  0  0
 10 19  1  0  0  0  0
  7 10  1  0  0  0  0
 19 24  1  0  0  0  0
 19 23  1  0  0  0  0
  1 24  1  0  0  0  0
 22 24  1  0  0  0  0
  1 20  1  0  0  0  0
  1 18  1  0  0  0  0
 20 21  1  0  0  0  0
 11 18  1  0  0  0  0
  9 18  1  0  0  0  0
 13 25  1  0  0  0  0
 18 26  1  0  0  0  0
M  CHG  1  18   1
M  END
> <Chemgauss4>
-4.728065

$$$$
