stable:False satoms:21 tatoms:24 sratio:0.875
  -OEChem-08052416383D

 26 25  0     1  0  0  0  0  0999 V2000
  -10.4325    0.4367  -24.3243 C   0  0  1  0  0  0  0  0  0  0  0  0
  -11.7119   -1.2524  -24.0501 H   0  0  0  0  0  0  0  0  0  0  0  0
  -11.7236   -0.1525  -22.6517 H   0  0  0  0  0  0  0  0  0  0  0  0
  -11.0893   -0.6522  -23.3780 C   0  0  0  0  0  0  0  0  0  0  0  0
   -8.6767    2.8170  -21.2909 H   0  0  0  0  0  0  0  0  0  0  0  0
  -11.8529    1.9511  -23.6732 H   0  0  0  0  0  0  0  0  0  0  0  0
   -8.2143    1.6516  -22.5339 H   0  0  0  0  0  0  0  0  0  0  0  0
  -10.8057   -2.5180  -22.3425 H   0  0  0  0  0  0  0  0  0  0  0  0
   -8.8296   -0.1325  -25.3597 H   0  0  0  0  0  0  0  0  0  0  0  0
   -9.0751    2.0846  -22.0018 C   0  0  0  0  0  0  0  0  0  0  0  0
   -8.9292   -0.6832  -23.8168 H   0  0  0  0  0  0  0  0  0  0  0  0
   -9.7872    0.0166  -21.4636 H   0  0  0  0  0  0  0  0  0  0  0  0
   -9.5956   -1.2211  -21.4394 O   0  0  0  0  0  0  0  0  0  0  0  0
   -9.7923    1.1439  -21.3030 O   0  0  0  0  0  0  0  0  0  0  0  0
   -9.3750   -2.0195  -23.2568 H   0  0  0  0  0  0  0  0  0  0  0  0
  -10.7247    3.3661  -22.3931 H   0  0  0  0  0  0  0  0  0  0  0  0
  -10.1794   -1.6480  -22.6000 C   0  0  0  0  0  0  0  0  0  0  0  0
   -9.0656    0.1047  -24.4173 N   0  3  0  0  0  0  0  0  0  0  0  0
  -10.0106    2.8216  -22.9995 C   0  0  0  0  0  0  0  0  0  0  0  0
  -10.8877    0.2123  -25.6253 O   0  0  0  0  0  0  0  0  0  0  0  0
  -11.7300    0.6725  -25.7464 H   0  0  0  0  0  0  0  0  0  0  0  0
  -10.7606    2.4569  -24.9555 H   0  0  0  0  0  0  0  0  0  0  0  0
   -9.4001    3.5173  -23.5627 H   0  0  0  0  0  0  0  0  0  0  0  0
  -10.8156    1.9458  -23.9941 C   0  0  0  0  0  0  0  0  0  0  0  0
   -9.0718   -1.9229  -21.0712 H   0  0  0  0  0  0  0  0  0  0  0  0
   -8.5008    0.8728  -24.1155 H   0  0  0  0  0  0  0  0  0  0  0  0
  8 17  1  0  0  0  0
  3  4  1  0  0  0  0
 13 17  1  0  0  0  0
 12 14  1  0  0  0  0
 10 14  1  0  0  0  0
  4 17  1  0  0  0  0
 15 17  1  0  0  0  0
  2  4  1  0  0  0  0
  1  4  1  0  0  0  0
  6 24  1  0  0  0  0
 16 19  1  0  0  0  0
  5 10  1  0  0  0  0
 10 19  1  0  0  0  0
  7 10  1  0  0  0  0
 19 24  1  0  0  0  0
 19 23  1  0  0  0  0
  1 24  1  0  0  0  0
 22 24  1  0  0  0  0
  1 20  1  0  0  0  0
  1 18  1  0  0  0  0
 20 21  1  0  0  0  0
 11 18  1  0  0  0  0
  9 18  1  0  0  0  0
 13 25  1  0  0  0  0
 18 26  1  0  0  0  0
M  CHG  1  18   1
M  END
> <Chemgauss4>
-4.519872

$$$$
