stable:False satoms:12 tatoms:24 sratio:0.5
  -OEChem-08062412213D

 38 38  0     0  0  0  0  0  0999 V2000
   -6.6573   -5.1412  -26.3732 O   0  0  0  0  0  0  0  0  0  0  0  0
   -8.0619   -4.7127  -26.0619 S   0  0  0  0  0  0  0  0  0  0  0  0
   -8.9212   -5.8880  -25.8922 O   0  0  0  0  0  0  0  0  0  0  0  0
   -8.5967   -3.8347  -27.0688 O   0  5  0  0  0  0  0  0  0  0  0  0
   -7.9534   -3.9624  -24.6259 N   0  0  0  0  0  0  0  0  0  0  0  0
   -8.8098   -3.2550  -24.1293 C   0  0  0  0  0  0  0  0  0  0  0  0
   -9.3993   -2.4522  -23.6734 C   0  0  0  0  0  0  0  0  0  0  0  0
  -10.1408   -1.4166  -23.2873 C   0  0  0  0  0  0  0  0  0  0  0  0
  -11.0494   -0.7188  -24.0766 C   0  0  0  0  0  0  0  0  0  0  0  0
  -12.2232   -0.2438  -24.1097 C   0  0  0  0  0  0  0  0  0  0  0  0
  -12.9019   -0.8906  -23.2992 C   0  0  0  0  0  0  0  0  0  0  0  0
  -12.8859   -1.7440  -22.5366 N   0  3  0  0  0  0  0  0  0  0  0  0
  -13.7957   -1.8495  -22.1352 H   0  0  0  0  0  0  0  0  0  0  0  0
   -9.8947   -0.8845  -22.1630 C   0  0  0  0  0  0  0  0  0  0  0  0
   -9.1223   -0.1707  -21.3103 C   0  0  0  0  0  0  0  0  0  0  0  0
   -9.5092    0.8502  -20.8111 O   0  0  0  0  0  0  0  0  0  0  0  0
   -7.8572   -0.6811  -21.1909 N   0  0  0  0  0  0  0  0  0  0  0  0
   -7.0788   -0.1469  -20.3352 C   0  0  0  0  0  0  0  0  0  0  0  0
   -7.5469   -0.0126  -18.7108 S   0  0  0  0  0  0  0  0  0  0  0  0
   -6.0155    0.7413  -17.3014 N   0  0  0  0  0  0  0  0  0  0  0  0
   -6.0224    0.6940  -18.2873 C   0  0  0  0  0  0  0  0  0  0  0  0
   -5.4343    0.7893  -19.4937 C   0  0  0  0  0  0  0  0  0  0  0  0
   -5.8009    0.3804  -20.6241 C   0  0  0  0  0  0  0  0  0  0  0  0
   -5.3369    0.4026  -21.6006 H   0  0  0  0  0  0  0  0  0  0  0  0
   -7.1394   -3.3852  -24.6907 H   0  0  0  0  0  0  0  0  0  0  0  0
  -10.4645    0.1867  -24.2960 H   0  0  0  0  0  0  0  0  0  0  0  0
  -11.0732   -1.3645  -24.9668 H   0  0  0  0  0  0  0  0  0  0  0  0
  -12.6435   -0.3474  -25.1210 H   0  0  0  0  0  0  0  0  0  0  0  0
  -12.2082    0.8188  -23.8259 H   0  0  0  0  0  0  0  0  0  0  0  0
  -13.7099   -1.2384  -23.9597 H   0  0  0  0  0  0  0  0  0  0  0  0
  -13.2738   -0.0728  -22.6644 H   0  0  0  0  0  0  0  0  0  0  0  0
  -12.2257   -1.5342  -21.8154 H   0  0  0  0  0  0  0  0  0  0  0  0
  -10.7628   -1.1326  -21.5704 H   0  0  0  0  0  0  0  0  0  0  0  0
   -7.5543   -1.4479  -21.7568 H   0  0  0  0  0  0  0  0  0  0  0  0
   -6.8726    0.3708  -16.9434 H   0  0  0  0  0  0  0  0  0  0  0  0
   -5.2479    0.2070  -16.9475 H   0  0  0  0  0  0  0  0  0  0  0  0
   -4.4854    1.3051  -19.4900 H   0  0  0  0  0  0  0  0  0  0  0  0
  -12.6222   -2.5938  -22.9929 H   0  0  0  0  0  0  0  0  0  0  0  0
 20 21  1  0  0  0  0
 19 21  1  0  0  0  0
 21 22  2  0  0  0  0
 18 19  1  0  0  0  0
 22 23  1  0  0  0  0
 18 23  2  0  0  0  0
 17 18  1  0  0  0  0
 23 24  1  0  0  0  0
 15 16  2  0  0  0  0
 15 17  1  0  0  0  0
 14 15  1  0  0  0  0
  8 14  2  3  0  0  0
 12 13  1  0  0  0  0
 11 12  1  0  0  0  0
  7  8  1  0  0  0  0
  8  9  1  0  0  0  0
 10 11  1  0  0  0  0
  6  7  3  0  0  0  0
  9 10  1  0  0  0  0
  5  6  1  0  0  0  0
  2  5  1  0  0  0  0
  2  3  2  0  0  0  0
  1  2  2  0  0  0  0
  2  4  1  0  0  0  0
  5 25  1  0  0  0  0
  9 26  1  0  0  0  0
  9 27  1  0  0  0  0
 10 28  1  0  0  0  0
 10 29  1  0  0  0  0
 11 30  1  0  0  0  0
 11 31  1  0  0  0  0
 12 32  1  0  0  0  0
 14 33  1  0  0  0  0
 17 34  1  0  0  0  0
 20 35  1  0  0  0  0
 20 36  1  0  0  0  0
 22 37  1  0  0  0  0
 12 38  1  0  0  0  0
M  CHG  2   4  -1  12   1
M  END
> <Chemgauss4>
-7.772149

$$$$
