stable:False satoms:12 tatoms:24 sratio:0.5
  -OEChem-08062412213D

 38 38  0     0  0  0  0  0  0999 V2000
    6.6075   -5.1050   26.4110 O   0  0  0  0  0  0  0  0  0  0  0  0
    8.0121   -4.6764   26.0997 S   0  0  0  0  0  0  0  0  0  0  0  0
    8.8714   -5.8518   25.9299 O   0  0  0  0  0  0  0  0  0  0  0  0
    8.5469   -3.7984   27.1066 O   0  5  0  0  0  0  0  0  0  0  0  0
    7.9036   -3.9262   24.6637 N   0  0  0  0  0  0  0  0  0  0  0  0
    8.7599   -3.2187   24.1671 C   0  0  0  0  0  0  0  0  0  0  0  0
    9.3494   -2.4159   23.7111 C   0  0  0  0  0  0  0  0  0  0  0  0
   10.0909   -1.3804   23.3250 C   0  0  0  0  0  0  0  0  0  0  0  0
   10.9995   -0.6825   24.1143 C   0  0  0  0  0  0  0  0  0  0  0  0
   12.1733   -0.2076   24.1475 C   0  0  0  0  0  0  0  0  0  0  0  0
   12.8521   -0.8543   23.3369 C   0  0  0  0  0  0  0  0  0  0  0  0
   12.8360   -1.7078   22.5743 N   0  3  0  0  0  0  0  0  0  0  0  0
   13.7458   -1.8133   22.1729 H   0  0  0  0  0  0  0  0  0  0  0  0
    9.8448   -0.8483   22.2007 C   0  0  0  0  0  0  0  0  0  0  0  0
    9.0724   -0.1344   21.3481 C   0  0  0  0  0  0  0  0  0  0  0  0
    9.4593    0.8864   20.8488 O   0  0  0  0  0  0  0  0  0  0  0  0
    7.8074   -0.6449   21.2287 N   0  0  0  0  0  0  0  0  0  0  0  0
    7.0290   -0.1107   20.3729 C   0  0  0  0  0  0  0  0  0  0  0  0
    7.4971    0.0236   18.7485 S   0  0  0  0  0  0  0  0  0  0  0  0
    5.9657    0.7776   17.3391 N   0  0  0  0  0  0  0  0  0  0  0  0
    5.9725    0.7302   18.3250 C   0  0  0  0  0  0  0  0  0  0  0  0
    5.3844    0.8255   19.5315 C   0  0  0  0  0  0  0  0  0  0  0  0
    5.7510    0.4166   20.6619 C   0  0  0  0  0  0  0  0  0  0  0  0
    5.2870    0.4388   21.6384 H   0  0  0  0  0  0  0  0  0  0  0  0
    7.0895   -3.3490   24.7284 H   0  0  0  0  0  0  0  0  0  0  0  0
   10.4147    0.2229   24.3337 H   0  0  0  0  0  0  0  0  0  0  0  0
   11.0234   -1.3283   25.0045 H   0  0  0  0  0  0  0  0  0  0  0  0
   12.5936   -0.3111   25.1587 H   0  0  0  0  0  0  0  0  0  0  0  0
   12.1583    0.8550   23.8636 H   0  0  0  0  0  0  0  0  0  0  0  0
   13.6600   -1.2022   23.9975 H   0  0  0  0  0  0  0  0  0  0  0  0
   13.2239   -0.0365   22.7022 H   0  0  0  0  0  0  0  0  0  0  0  0
   12.1758   -1.4980   21.8532 H   0  0  0  0  0  0  0  0  0  0  0  0
   10.7129   -1.0964   21.6081 H   0  0  0  0  0  0  0  0  0  0  0  0
    7.5044   -1.4117   21.7945 H   0  0  0  0  0  0  0  0  0  0  0  0
    6.8228    0.4070   16.9812 H   0  0  0  0  0  0  0  0  0  0  0  0
    5.1981    0.2432   16.9852 H   0  0  0  0  0  0  0  0  0  0  0  0
    4.4356    1.3413   19.5278 H   0  0  0  0  0  0  0  0  0  0  0  0
   12.5724   -2.5576   23.0307 H   0  0  0  0  0  0  0  0  0  0  0  0
 20 21  1  0  0  0  0
 19 21  1  0  0  0  0
 21 22  2  0  0  0  0
 18 19  1  0  0  0  0
 22 23  1  0  0  0  0
 18 23  2  0  0  0  0
 17 18  1  0  0  0  0
 23 24  1  0  0  0  0
 15 16  2  0  0  0  0
 15 17  1  0  0  0  0
 14 15  1  0  0  0  0
  8 14  2  3  0  0  0
 12 13  1  0  0  0  0
 11 12  1  0  0  0  0
  7  8  1  0  0  0  0
  8  9  1  0  0  0  0
 10 11  1  0  0  0  0
  6  7  3  0  0  0  0
  9 10  1  0  0  0  0
  5  6  1  0  0  0  0
  2  5  1  0  0  0  0
  2  3  2  0  0  0  0
  1  2  2  0  0  0  0
  2  4  1  0  0  0  0
  5 25  1  0  0  0  0
  9 26  1  0  0  0  0
  9 27  1  0  0  0  0
 10 28  1  0  0  0  0
 10 29  1  0  0  0  0
 11 30  1  0  0  0  0
 11 31  1  0  0  0  0
 12 32  1  0  0  0  0
 14 33  1  0  0  0  0
 17 34  1  0  0  0  0
 20 35  1  0  0  0  0
 20 36  1  0  0  0  0
 22 37  1  0  0  0  0
 12 38  1  0  0  0  0
M  CHG  2   4  -1  12   1
M  END
> <Chemgauss4>
-7.750813

$$$$
