stable:False satoms:21 tatoms:24 sratio:0.875
  -OEChem-07092417363D

 24 22  0     0  0  0  0  0  0999 V2000
    6.7202   -4.2500   26.2983 H   0  0  0  0  0  0  0  0  0  0  0  0
    6.9803   -2.9664   24.8018 N   0  0  0  0  0  0  0  0  0  0  0  0
    8.9314   -4.4868   25.3064 S   0  0  0  0  0  0  0  0  0  0  0  0
    7.2337   -1.8035   25.0187 O   0  0  0  0  0  0  0  0  0  0  0  0
    7.3703   -3.8664   25.5214 C   0  3  0  0  0  0  0  0  0  0  0  0
    9.4544   -3.1429   24.4727 N   0  0  0  0  0  0  0  0  0  0  0  0
    8.7116   -1.5855   23.5210 H   0  0  0  0  0  0  0  0  0  0  0  0
    9.4986   -2.1974   23.7466 N   0  0  0  0  0  0  0  0  0  0  0  0
   10.7887   -0.3504   23.1500 C   0  0  0  0  0  0  0  0  0  0  0  0
   10.6628   -0.2907   24.3434 O   0  0  0  0  0  0  0  0  0  0  0  0
   12.5859    0.4313   22.3352 H   0  0  0  0  0  0  0  0  0  0  0  0
   12.3104   -1.2929   21.9803 H   0  0  0  0  0  0  0  0  0  0  0  0
   12.1922   -0.5009   22.6932 C   0  0  0  0  0  0  0  0  0  0  0  0
   12.7466   -0.7493   23.5885 H   0  0  0  0  0  0  0  0  0  0  0  0
    9.7600   -0.2119   22.1487 N   0  0  0  0  0  0  0  0  0  0  0  0
    7.3391   -0.1070   21.4119 C   0  0  0  0  0  0  0  0  0  0  0  0
    8.9531   -0.8297   20.3816 H   0  0  0  0  0  0  0  0  0  0  0  0
    8.6663   -0.3772   21.2997 C   0  0  0  0  0  0  0  0  0  0  0  0
    6.7112    0.2048   19.0814 C   0  0  0  0  0  0  0  0  0  0  0  0
    7.5954   -0.0962   18.5383 H   0  0  0  0  0  0  0  0  0  0  0  0
    5.6910    0.6456   18.2307 F   0  0  0  0  0  0  0  0  0  0  0  0
    5.4049    0.5481   20.6595 H   0  0  0  0  0  0  0  0  0  0  0  0
    6.8625   -0.2629   22.3489 H   0  0  0  0  0  0  0  0  0  0  0  0
    6.4137    0.2481   20.4184 C   0  0  0  0  0  0  0  0  0  0  0  0
 19 21  1  0  0  0  0
 19 20  1  0  0  0  0
 19 24  2  0  0  0  0
 17 18  1  0  0  0  0
 22 24  1  0  0  0  0
 16 24  1  0  0  0  0
 16 18  2  3  0  0  0
 15 18  1  0  0  0  0
 16 23  1  0  0  0  0
 12 13  1  0  0  0  0
  9 15  1  0  0  0  0
 11 13  1  0  0  0  0
  9 13  1  0  0  0  0
 13 14  1  0  0  0  0
  9 10  2  0  0  0  0
  7  8  1  0  0  0  0
  6  8  2  3  0  0  0
  3  6  1  0  0  0  0
  2  4  1  0  0  0  0
  2  5  1  0  0  0  0
  3  5  1  0  0  0  0
  1  5  1  0  0  0  0
M  CHG  1   5   1
M  END
> <Shapegauss>
-159.068054

$$$$
