stable:False satoms:8 tatoms:24 sratio:0.3333333333333333
  -OEChem-07092417463D

 24 25  0     1  0  0  0  0  0999 V2000
    6.7219   -4.8196   26.3945 C   0  0  0  0  0  0  0  0  0  0  0  0
    8.1364   -4.3233   26.1140 S   0  0  0  0  0  0  0  0  0  0  0  0
    9.0961   -5.4132   26.0731 O   0  0  0  0  0  0  0  0  0  0  0  0
    8.5648   -3.4004   27.1543 O   0  0  0  0  0  0  0  0  0  0  0  0
    8.1067   -3.5890   24.6649 N   0  0  0  0  0  0  0  0  0  0  0  0
    8.9070   -2.8621   24.1168 C   0  0  0  0  0  0  0  0  0  0  0  0
    9.4033   -1.9769   23.5253 C   0  0  0  0  0  0  0  0  0  0  0  0
   10.3662   -1.1268   23.2449 C   0  0  1  0  0  0  0  0  0  0  0  0
   11.0646   -0.0873   24.2720 C   0  0  0  0  0  0  0  0  0  0  0  0
   12.1019    0.2902   24.2914 C   0  0  0  0  0  0  0  0  0  0  0  0
   13.1622   -0.1491   23.4709 C   0  0  0  0  0  0  0  0  0  0  0  0
   12.7998   -1.2031   22.6831 C   0  0  0  0  0  0  0  0  0  0  0  0
   11.7923   -1.7085   22.5688 C   0  0  0  0  0  0  0  0  0  0  0  0
    9.7122   -0.5429   22.3363 C   0  0  0  0  0  0  0  0  0  0  0  0
    9.0246    0.0466   21.4043 C   0  0  0  0  0  0  0  0  0  0  0  0
    9.5379    0.9933   20.9707 O   0  0  0  0  0  0  0  0  0  0  0  0
    7.8632   -0.5698   21.1541 N   0  0  0  0  0  0  0  0  0  0  0  0
    7.1863   -0.1121   20.2302 C   0  0  0  0  0  0  0  0  0  0  0  0
    7.2030   -0.0065   18.9251 C   0  0  0  0  0  0  0  0  0  0  0  0
    6.7658    0.2849   17.8260 N   0  0  0  0  0  0  0  0  0  0  0  0
    5.6308    0.8046   18.2600 C   0  0  0  0  0  0  0  0  0  0  0  0
    5.2324    0.9251   19.4216 C   0  0  0  0  0  0  0  0  0  0  0  0
    5.7648    0.5793   20.6070 C   0  0  0  0  0  0  0  0  0  0  0  0
    5.4398    0.6765   21.5875 C   0  0  0  0  0  0  0  0  0  0  0  0
 20 21  2  0  0  0  0
 19 20  1  0  0  0  0
 21 22  1  0  0  0  0
 18 19  2  0  0  0  0
 22 23  2  0  0  0  0
 18 23  1  0  0  0  0
 17 18  1  0  0  0  0
 23 24  1  0  0  0  0
 15 16  2  0  0  0  0
 15 17  1  0  0  0  0
 14 15  1  0  0  0  0
  8 14  1  0  0  0  0
 12 13  1  0  0  0  0
  8 13  1  0  0  0  0
 11 12  2  0  0  0  0
  7  8  1  0  0  0  0
  8  9  1  0  0  0  0
 10 11  1  0  0  0  0
  6  7  2  3  0  0  0
  5  6  1  0  0  0  0
  9 10  2  0  0  0  0
  2  5  1  0  0  0  0
  2  3  2  0  0  0  0
  1  2  1  0  0  0  0
  2  4  2  0  0  0  0
M  END
> <Shapegauss>
-287.702881

$$$$
