REMARK  7 active torsions:
REMARK  status: ('A' for Active; 'I' for Inactive)
REMARK    1  A    between atoms: S_2  and  N_5 
REMARK    2  A    between atoms: N_5  and  C_7 
REMARK    3  A    between atoms: C_7  and  C_8 
REMARK    4  A    between atoms: C_8  and  C_9 
REMARK    5  A    between atoms: C_9  and  C_15 
REMARK    6  A    between atoms: C_15  and  C_16 
REMARK       I    between atoms: C_16  and  N_18 
REMARK    7  A    between atoms: N_18  and  C_20 
ROOT
HETATM    1  C   UNL     1      10.366  -1.127  23.245  1.00  0.00     0.068 C 
HETATM    2  C   UNL     1      11.065  -0.087  24.272  1.00  0.00     0.000 C 
HETATM    3  C   UNL     1      12.102   0.290  24.291  1.00  0.00    -0.002 C 
HETATM    4  C   UNL     1      13.162  -0.149  23.471  1.00  0.00    -0.001 C 
HETATM    5  C   UNL     1      12.800  -1.203  22.683  1.00  0.00    -0.002 C 
HETATM    6  C   UNL     1      11.792  -1.708  22.569  1.00  0.00     0.000 C 
ENDROOT
BRANCH   1   7
HETATM    7  C   UNL     1       9.403  -1.977  23.525  1.00  0.00     0.135 C 
BRANCH   7   8
HETATM    8  C   UNL     1       8.907  -2.862  24.117  1.00  0.00    -0.058 C 
BRANCH   8   9
HETATM    9  N   UNL     1       8.107  -3.589  24.665  1.00  0.00    -0.254 N 
ATOM     10  HN  UNL     1       7.265  -3.773  24.119  1.00  0.00     0.188 HD
BRANCH   9  11
HETATM   11  S   UNL     1       8.136  -4.323  26.114  1.00  0.00     0.233 S 
HETATM   12  C   UNL     1       6.722  -4.820  26.395  1.00  0.00     0.186 C 
HETATM   13  O   UNL     1       9.096  -5.413  26.073  1.00  0.00    -0.206 OA
HETATM   14  O   UNL     1       8.565  -3.400  27.154  1.00  0.00    -0.206 OA
ENDBRANCH   9  11
ENDBRANCH   8   9
ENDBRANCH   7   8
ENDBRANCH   1   7
BRANCH   1  15
HETATM   15  C   UNL     1       9.712  -0.543  22.336  1.00  0.00    -0.064 C 
BRANCH  15  16
HETATM   16  C   UNL     1       9.025   0.047  21.404  1.00  0.00     0.290 C 
HETATM   17  O   UNL     1       9.538   0.993  20.971  1.00  0.00    -0.259 OA
HETATM   18  N   UNL     1       7.863  -0.570  21.154  1.00  0.00    -0.315 N 
ATOM     19  HN  UNL     1       7.554  -1.375  21.698  1.00  0.00     0.170 HD
BRANCH  18  20
HETATM   20  C   UNL     1       7.186  -0.112  20.230  1.00  0.00     0.060 A 
HETATM   21  C   UNL     1       7.203  -0.006  18.925  1.00  0.00     0.117 A 
HETATM   22  N   UNL     1       6.766   0.285  17.826  1.00  0.00    -0.373 N 
HETATM   23  C   UNL     1       5.631   0.805  18.260  1.00  0.00     0.088 A 
ATOM     24  HN  UNL     1       7.147   0.167  16.887  1.00  0.00     0.164 HD
HETATM   25  C   UNL     1       5.232   0.925  19.422  1.00  0.00     0.030 A 
HETATM   26  C   UNL     1       5.765   0.579  20.607  1.00  0.00    -0.016 A 
HETATM   27  C   UNL     1       5.440   0.676  21.587  1.00  0.00     0.026 C 
ENDBRANCH  18  20
ENDBRANCH  15  16
ENDBRANCH   1  15
TORSDOF 7
