MODEL 1
REMARK VINA RESULT:    -7.971      0.000      0.000
REMARK INTER + INTRA:         -10.574
REMARK INTER:                  -9.835
REMARK INTRA:                  -0.739
REMARK UNBOUND:                -0.739
REMARK  4 active torsions:
REMARK  status: ('A' for Active; 'I' for Inactive)
REMARK    1  A    between atoms: S_2  and  N_5 
REMARK    2  A    between atoms: N_5  and  C_7 
REMARK    3  A    between atoms: C_15  and  C_16 
REMARK       I    between atoms: C_16  and  N_18 
REMARK    4  A    between atoms: N_18  and  C_20 
ROOT
HETATM    1  C   UNL     1       8.585  -3.539  23.791  1.00  0.00     0.109 C 
HETATM    2  C   UNL     1       8.936  -2.419  23.347  1.00  0.00    -0.008 A 
HETATM    3  C   UNL     1       9.609  -1.388  23.390  1.00  0.00     0.057 A 
HETATM    4  C   UNL     1       9.696  -0.166  24.707  1.00  0.00    -0.007 C 
HETATM    5  C   UNL     1      10.507   0.312  24.935  1.00  0.00    -0.025 C 
HETATM    6  C   UNL     1      11.970   0.222  24.420  1.00  0.00     0.053 C 
HETATM    7  C   UNL     1      12.021  -0.833  23.516  1.00  0.00    -0.025 C 
HETATM    8  C   UNL     1      11.349  -1.489  23.108  1.00  0.00    -0.007 C 
HETATM    9  C   UNL     1       9.115  -0.893  22.442  1.00  0.00     0.040 A 
ENDROOT
BRANCH   9  10
HETATM   10  C   UNL     1       8.577  -0.321  21.340  1.00  0.00     0.254 C 
HETATM   11  O   UNL     1       9.264   0.330  20.697  1.00  0.00    -0.268 OA
HETATM   12  N   UNL     1       7.294  -0.611  21.193  1.00  0.00    -0.321 N 
ATOM     13  HN  UNL     1       6.833  -1.211  21.877  1.00  0.00     0.169 HD
BRANCH  12  14
HETATM   14  C   UNL     1       6.632  -0.154  20.217  1.00  0.00     0.056 A 
HETATM   15  C   UNL     1       6.369  -0.563  18.972  1.00  0.00     0.117 A 
HETATM   16  N   UNL     1       5.880  -0.428  17.902  1.00  0.00    -0.373 N 
HETATM   17  C   UNL     1       5.270   0.757  18.097  1.00  0.00     0.088 A 
ATOM     18  HN  UNL     1       5.912  -1.029  17.078  1.00  0.00     0.164 HD
HETATM   19  C   UNL     1       5.322   1.428  19.133  1.00  0.00     0.026 A 
HETATM   20  C   UNL     1       5.933   1.203  20.314  1.00  0.00    -0.033 A 
HETATM   21  C   UNL     1       5.991   2.162  21.578  1.00  0.00     0.050 C 
ENDBRANCH  12  14
ENDBRANCH   9  10
BRANCH   1  22
HETATM   22  N   UNL     1       7.846  -4.428  24.060  1.00  0.00    -0.295 N 
ATOM     23  HN  UNL     1       7.992  -4.860  24.973  1.00  0.00     0.177 HD
BRANCH  22  24
HETATM   24  S   UNL     1       6.649  -5.047  23.188  1.00  0.00     0.226 S 
HETATM   25  C   UNL     1       5.661  -3.633  22.694  1.00  0.00     0.186 C 
HETATM   26  O   UNL     1       7.116  -5.675  21.981  1.00  0.00    -0.206 OA
HETATM   27  O   UNL     1       5.796  -5.892  23.929  1.00  0.00    -0.206 OA
ENDBRANCH  22  24
ENDBRANCH   1  22
TORSDOF 4
ENDMDL
MODEL 2
REMARK VINA RESULT:    -7.930      2.557      5.876
REMARK INTER + INTRA:         -10.523
REMARK INTER:                  -9.622
REMARK INTRA:                  -0.902
REMARK UNBOUND:                -0.739
REMARK  4 active torsions:
REMARK  status: ('A' for Active; 'I' for Inactive)
REMARK    1  A    between atoms: S_2  and  N_5 
REMARK    2  A    between atoms: N_5  and  C_7 
REMARK    3  A    between atoms: C_15  and  C_16 
REMARK       I    between atoms: C_16  and  N_18 
REMARK    4  A    between atoms: N_18  and  C_20 
ROOT
HETATM    1  C   UNL     1       9.006  -0.110  21.305  1.00  0.00     0.109 C 
HETATM    2  C   UNL     1       9.466  -0.584  22.373  1.00  0.00    -0.008 A 
HETATM    3  C   UNL     1      10.383  -0.806  23.164  1.00  0.00     0.057 A 
HETATM    4  C   UNL     1      11.919  -1.697  22.869  1.00  0.00    -0.007 C 
HETATM    5  C   UNL     1      12.759  -1.457  23.287  1.00  0.00    -0.025 C 
HETATM    6  C   UNL     1      13.184  -0.292  24.222  1.00  0.00     0.053 C 
HETATM    7  C   UNL     1      12.083   0.547  24.355  1.00  0.00    -0.025 C 
HETATM    8  C   UNL     1      11.111   0.546  24.034  1.00  0.00    -0.007 C 
HETATM    9  C   UNL     1       9.727  -1.419  23.926  1.00  0.00     0.040 A 
ENDROOT
BRANCH   9  10
HETATM   10  C   UNL     1       8.982  -2.103  24.826  1.00  0.00     0.254 C 
HETATM   11  O   UNL     1       8.703  -1.563  25.796  1.00  0.00    -0.268 OA
HETATM   12  N   UNL     1       8.702  -3.332  24.423  1.00  0.00    -0.321 N 
ATOM     13  HN  UNL     1       9.044  -3.654  23.518  1.00  0.00     0.169 HD
BRANCH  12  14
HETATM   14  C   UNL     1       8.018  -4.112  25.145  1.00  0.00     0.056 A 
HETATM   15  C   UNL     1       8.284  -4.972  26.133  1.00  0.00     0.117 A 
HETATM   16  N   UNL     1       7.966  -5.786  26.932  1.00  0.00    -0.373 N 
HETATM   17  C   UNL     1       6.640  -5.806  26.699  1.00  0.00     0.088 A 
ATOM     18  HN  UNL     1       8.530  -6.315  27.599  1.00  0.00     0.164 HD
HETATM   19  C   UNL     1       6.055  -5.145  25.835  1.00  0.00     0.026 A 
HETATM   20  C   UNL     1       6.507  -4.245  24.938  1.00  0.00    -0.033 A 
HETATM   21  C   UNL     1       5.677  -3.484  23.819  1.00  0.00     0.050 C 
ENDBRANCH  12  14
ENDBRANCH   9  10
BRANCH   1  22
HETATM   22  N   UNL     1       8.330  -0.060  20.331  1.00  0.00    -0.295 N 
ATOM     23  HN  UNL     1       8.836  -0.005  19.447  1.00  0.00     0.177 HD
BRANCH  22  24
HETATM   24  S   UNL     1       6.729  -0.066  20.210  1.00  0.00     0.226 S 
HETATM   25  C   UNL     1       6.399   0.055  18.451  1.00  0.00     0.186 C 
HETATM   26  O   UNL     1       6.148  -1.302  20.662  1.00  0.00    -0.206 OA
HETATM   27  O   UNL     1       6.119   1.055  20.810  1.00  0.00    -0.206 OA
ENDBRANCH  22  24
ENDBRANCH   1  22
TORSDOF 4
ENDMDL
MODEL 3
REMARK VINA RESULT:    -7.497      3.429      6.057
REMARK INTER + INTRA:          -9.990
REMARK INTER:                  -9.224
REMARK INTRA:                  -0.766
REMARK UNBOUND:                -0.739
REMARK  4 active torsions:
REMARK  status: ('A' for Active; 'I' for Inactive)
REMARK    1  A    between atoms: S_2  and  N_5 
REMARK    2  A    between atoms: N_5  and  C_7 
REMARK    3  A    between atoms: C_15  and  C_16 
REMARK       I    between atoms: C_16  and  N_18 
REMARK    4  A    between atoms: N_18  and  C_20 
ROOT
HETATM    1  C   UNL     1       7.043  -5.583  26.640  1.00  0.00     0.109 C 
HETATM    2  C   UNL     1       7.157  -4.890  25.600  1.00  0.00    -0.008 A 
HETATM    3  C   UNL     1       7.016  -4.703  24.391  1.00  0.00     0.057 A 
HETATM    4  C   UNL     1       7.664  -5.682  23.027  1.00  0.00    -0.007 C 
HETATM    5  C   UNL     1       7.185  -5.816  22.196  1.00  0.00    -0.025 C 
HETATM    6  C   UNL     1       5.772  -5.392  21.706  1.00  0.00     0.053 C 
HETATM    7  C   UNL     1       5.136  -4.777  22.778  1.00  0.00    -0.025 C 
HETATM    8  C   UNL     1       5.386  -4.518  23.737  1.00  0.00    -0.007 C 
HETATM    9  C   UNL     1       7.534  -3.645  24.381  1.00  0.00     0.040 A 
ENDROOT
BRANCH   9  10
HETATM   10  C   UNL     1       8.103  -2.418  24.355  1.00  0.00     0.254 C 
HETATM   11  O   UNL     1       7.501  -1.550  24.798  1.00  0.00    -0.268 OA
HETATM   12  N   UNL     1       9.299  -2.424  23.790  1.00  0.00    -0.321 N 
ATOM     13  HN  UNL     1       9.684  -3.301  23.439  1.00  0.00     0.169 HD
BRANCH  12  14
HETATM   14  C   UNL     1       9.971  -1.359  23.678  1.00  0.00     0.056 A 
HETATM   15  C   UNL     1      10.894  -0.736  24.417  1.00  0.00     0.117 A 
HETATM   16  N   UNL     1      11.638   0.160  24.634  1.00  0.00    -0.373 N 
HETATM   17  C   UNL     1      11.416   0.893  23.527  1.00  0.00     0.088 A 
ATOM     18  HN  UNL     1      12.261   0.326  25.425  1.00  0.00     0.164 HD
HETATM   19  C   UNL     1      10.604   0.618  22.636  1.00  0.00     0.026 A 
HETATM   20  C   UNL     1       9.768  -0.429  22.480  1.00  0.00    -0.033 A 
HETATM   21  C   UNL     1       8.712  -0.667  21.319  1.00  0.00     0.050 C 
ENDBRANCH  12  14
ENDBRANCH   9  10
BRANCH   1  22
HETATM   22  N   UNL     1       7.349  -6.035  27.695  1.00  0.00    -0.295 N 
ATOM     23  HN  UNL     1       8.341  -6.241  27.812  1.00  0.00     0.177 HD
BRANCH  22  24
HETATM   24  S   UNL     1       6.420  -6.366  28.961  1.00  0.00     0.226 S 
HETATM   25  C   UNL     1       4.756  -6.460  28.299  1.00  0.00     0.186 C 
HETATM   26  O   UNL     1       6.716  -7.650  29.539  1.00  0.00    -0.206 OA
HETATM   27  O   UNL     1       6.408  -5.340  29.929  1.00  0.00    -0.206 OA
ENDBRANCH  22  24
ENDBRANCH   1  22
TORSDOF 4
ENDMDL
MODEL 4
REMARK VINA RESULT:    -7.365      1.922      2.093
REMARK INTER + INTRA:          -9.827
REMARK INTER:                  -9.101
REMARK INTRA:                  -0.726
REMARK UNBOUND:                -0.739
REMARK  4 active torsions:
REMARK  status: ('A' for Active; 'I' for Inactive)
REMARK    1  A    between atoms: S_2  and  N_5 
REMARK    2  A    between atoms: N_5  and  C_7 
REMARK    3  A    between atoms: C_15  and  C_16 
REMARK       I    between atoms: C_16  and  N_18 
REMARK    4  A    between atoms: N_18  and  C_20 
ROOT
HETATM    1  C   UNL     1       8.608  -4.085  24.708  1.00  0.00     0.109 C 
HETATM    2  C   UNL     1       8.664  -3.019  24.048  1.00  0.00    -0.008 A 
HETATM    3  C   UNL     1       9.174  -1.934  23.766  1.00  0.00     0.057 A 
HETATM    4  C   UNL     1       9.453  -0.519  24.843  1.00  0.00    -0.007 C 
HETATM    5  C   UNL     1      10.222   0.065  24.763  1.00  0.00    -0.025 C 
HETATM    6  C   UNL     1      11.484   0.039  23.855  1.00  0.00     0.053 C 
HETATM    7  C   UNL     1      11.426  -1.134  23.110  1.00  0.00    -0.025 C 
HETATM    8  C   UNL     1      10.764  -1.908  23.000  1.00  0.00    -0.007 C 
HETATM    9  C   UNL     1       8.374  -1.642  22.953  1.00  0.00     0.040 A 
ENDROOT
BRANCH   9  10
HETATM   10  C   UNL     1       7.477  -1.303  21.998  1.00  0.00     0.254 C 
HETATM   11  O   UNL     1       6.528  -1.938  21.918  1.00  0.00    -0.268 OA
HETATM   12  N   UNL     1       7.870  -0.263  21.280  1.00  0.00    -0.321 N 
ATOM     13  HN  UNL     1       8.763   0.183  21.488  1.00  0.00     0.169 HD
BRANCH  12  14
HETATM   14  C   UNL     1       7.153   0.185  20.339  1.00  0.00     0.056 A 
HETATM   15  C   UNL     1       7.032  -0.069  19.033  1.00  0.00     0.117 A 
HETATM   16  N   UNL     1       6.560   0.123  17.963  1.00  0.00    -0.373 N 
HETATM   17  C   UNL     1       5.689   1.097  18.288  1.00  0.00     0.088 A 
ATOM     18  HN  UNL     1       6.757  -0.317  17.064  1.00  0.00     0.164 HD
HETATM   19  C   UNL     1       5.552   1.590  19.413  1.00  0.00     0.026 A 
HETATM   20  C   UNL     1       6.158   1.321  20.587  1.00  0.00    -0.033 A 
HETATM   21  C   UNL     1       5.954   2.055  21.979  1.00  0.00     0.050 C 
ENDBRANCH  12  14
ENDBRANCH   9  10
BRANCH   1  22
HETATM   22  N   UNL     1       8.102  -4.989  25.287  1.00  0.00    -0.295 N 
ATOM     23  HN  UNL     1       8.295  -5.917  24.908  1.00  0.00     0.177 HD
BRANCH  22  24
HETATM   24  S   UNL     1       7.157  -4.956  26.584  1.00  0.00     0.226 S 
HETATM   25  C   UNL     1       5.761  -6.002  26.164  1.00  0.00     0.186 C 
HETATM   26  O   UNL     1       7.787  -5.540  27.738  1.00  0.00    -0.206 OA
HETATM   27  O   UNL     1       6.630  -3.677  26.859  1.00  0.00    -0.206 OA
ENDBRANCH  22  24
ENDBRANCH   1  22
TORSDOF 4
ENDMDL
MODEL 5
REMARK VINA RESULT:    -7.165      2.977      6.450
REMARK INTER + INTRA:          -9.580
REMARK INTER:                  -8.832
REMARK INTRA:                  -0.748
REMARK UNBOUND:                -0.739
REMARK  4 active torsions:
REMARK  status: ('A' for Active; 'I' for Inactive)
REMARK    1  A    between atoms: S_2  and  N_5 
REMARK    2  A    between atoms: N_5  and  C_7 
REMARK    3  A    between atoms: C_15  and  C_16 
REMARK       I    between atoms: C_16  and  N_18 
REMARK    4  A    between atoms: N_18  and  C_20 
ROOT
HETATM    1  C   UNL     1       6.566  -0.855  21.232  1.00  0.00     0.109 C 
HETATM    2  C   UNL     1       7.193  -1.532  22.084  1.00  0.00    -0.008 A 
HETATM    3  C   UNL     1       8.160  -1.740  22.817  1.00  0.00     0.057 A 
HETATM    4  C   UNL     1       9.890  -1.920  22.357  1.00  0.00    -0.007 C 
HETATM    5  C   UNL     1      10.621  -1.607  22.911  1.00  0.00    -0.025 C 
HETATM    6  C   UNL     1      10.676  -0.820  24.249  1.00  0.00     0.053 C 
HETATM    7  C   UNL     1       9.368  -0.487  24.581  1.00  0.00    -0.025 C 
HETATM    8  C   UNL     1       8.438  -0.670  24.193  1.00  0.00    -0.007 C 
HETATM    9  C   UNL     1       7.766  -2.770  23.231  1.00  0.00     0.040 A 
ENDROOT
BRANCH   9  10
HETATM   10  C   UNL     1       7.317  -3.942  23.736  1.00  0.00     0.254 C 
HETATM   11  O   UNL     1       7.779  -4.904  23.322  1.00  0.00    -0.268 OA
HETATM   12  N   UNL     1       6.373  -3.774  24.648  1.00  0.00    -0.321 N 
ATOM     13  HN  UNL     1       6.074  -2.830  24.893  1.00  0.00     0.169 HD
BRANCH  12  14
HETATM   14  C   UNL     1       5.838  -4.766  25.221  1.00  0.00     0.056 A 
HETATM   15  C   UNL     1       4.703  -5.455  25.065  1.00  0.00     0.117 A 
HETATM   16  N   UNL     1       3.941  -6.309  25.370  1.00  0.00    -0.373 N 
HETATM   17  C   UNL     1       4.627  -6.848  26.395  1.00  0.00     0.088 A 
ATOM     18  HN  UNL     1       3.035  -6.561  24.973  1.00  0.00     0.164 HD
HETATM   19  C   UNL     1       5.713  -6.442  26.824  1.00  0.00     0.026 A 
HETATM   20  C   UNL     1       6.510  -5.431  26.423  1.00  0.00    -0.033 A 
HETATM   21  C   UNL     1       7.871  -4.946  27.081  1.00  0.00     0.050 C 
ENDBRANCH  12  14
ENDBRANCH   9  10
BRANCH   1  22
HETATM   22  N   UNL     1       5.876  -0.651  20.288  1.00  0.00    -0.295 N 
ATOM     23  HN  UNL     1       4.901  -0.936  20.386  1.00  0.00     0.177 HD
BRANCH  22  24
HETATM   24  S   UNL     1       6.263   0.013  18.878  1.00  0.00     0.226 S 
HETATM   25  C   UNL     1       5.299   1.523  18.800  1.00  0.00     0.186 C 
HETATM   26  O   UNL     1       7.648   0.394  18.811  1.00  0.00    -0.206 OA
HETATM   27  O   UNL     1       5.875  -0.767  17.768  1.00  0.00    -0.206 OA
ENDBRANCH  22  24
ENDBRANCH   1  22
TORSDOF 4
ENDMDL
MODEL 6
REMARK VINA RESULT:    -7.065     14.493     16.040
REMARK INTER + INTRA:          -9.457
REMARK INTER:                  -8.626
REMARK INTRA:                  -0.831
REMARK UNBOUND:                -0.739
REMARK  4 active torsions:
REMARK  status: ('A' for Active; 'I' for Inactive)
REMARK    1  A    between atoms: S_2  and  N_5 
REMARK    2  A    between atoms: N_5  and  C_7 
REMARK    3  A    between atoms: C_15  and  C_16 
REMARK       I    between atoms: C_16  and  N_18 
REMARK    4  A    between atoms: N_18  and  C_20 
ROOT
HETATM    1  C   UNL     1      24.287  -4.061  24.229  1.00  0.00     0.109 C 
HETATM    2  C   UNL     1      23.913  -3.004  23.666  1.00  0.00    -0.008 A 
HETATM    3  C   UNL     1      23.290  -1.941  23.639  1.00  0.00     0.057 A 
HETATM    4  C   UNL     1      21.524  -1.678  23.862  1.00  0.00    -0.007 C 
HETATM    5  C   UNL     1      21.155  -0.896  24.299  1.00  0.00    -0.025 C 
HETATM    6  C   UNL     1      21.802   0.322  25.015  1.00  0.00     0.053 C 
HETATM    7  C   UNL     1      23.175   0.100  25.039  1.00  0.00    -0.025 C 
HETATM    8  C   UNL     1      23.814  -0.614  24.677  1.00  0.00    -0.007 C 
HETATM    9  C   UNL     1      23.578  -1.672  22.529  1.00  0.00     0.040 A 
ENDROOT
BRANCH   9  10
HETATM   10  C   UNL     1      23.921  -1.333  21.264  1.00  0.00     0.254 C 
HETATM   11  O   UNL     1      24.825  -0.643  21.132  1.00  0.00    -0.268 OA
HETATM   12  N   UNL     1      23.116  -1.867  20.360  1.00  0.00    -0.321 N 
ATOM     13  HN  UNL     1      22.345  -2.462  20.662  1.00  0.00     0.169 HD
BRANCH  12  14
HETATM   14  C   UNL     1      23.290  -1.650  19.126  1.00  0.00     0.056 A 
HETATM   15  C   UNL     1      22.915  -0.698  18.267  1.00  0.00     0.117 A 
HETATM   16  N   UNL     1      22.865  -0.218  17.185  1.00  0.00    -0.373 N 
HETATM   17  C   UNL     1      23.593  -1.132  16.515  1.00  0.00     0.088 A 
ATOM     18  HN  UNL     1      22.407   0.633  16.858  1.00  0.00     0.164 HD
HETATM   19  C   UNL     1      24.080  -2.158  17.002  1.00  0.00     0.026 A 
HETATM   20  C   UNL     1      24.066  -2.644  18.260  1.00  0.00    -0.033 A 
HETATM   21  C   UNL     1      24.677  -4.013  18.780  1.00  0.00     0.050 C 
ENDBRANCH  12  14
ENDBRANCH   9  10
BRANCH   1  22
HETATM   22  N   UNL     1      24.579  -5.208  24.323  1.00  0.00    -0.295 N 
ATOM     23  HN  UNL     1      25.132  -5.585  23.553  1.00  0.00     0.177 HD
BRANCH  22  24
HETATM   24  S   UNL     1      24.225  -6.248  25.494  1.00  0.00     0.226 S 
HETATM   25  C   UNL     1      25.812  -6.741  26.167  1.00  0.00     0.186 C 
HETATM   26  O   UNL     1      23.484  -5.638  26.565  1.00  0.00    -0.206 OA
HETATM   27  O   UNL     1      23.605  -7.426  25.026  1.00  0.00    -0.206 OA
ENDBRANCH  22  24
ENDBRANCH   1  22
TORSDOF 4
ENDMDL
MODEL 7
REMARK VINA RESULT:    -6.818      4.046      6.953
REMARK INTER + INTRA:          -9.151
REMARK INTER:                  -8.372
REMARK INTRA:                  -0.780
REMARK UNBOUND:                -0.739
REMARK  4 active torsions:
REMARK  status: ('A' for Active; 'I' for Inactive)
REMARK    1  A    between atoms: S_2  and  N_5 
REMARK    2  A    between atoms: N_5  and  C_7 
REMARK    3  A    between atoms: C_15  and  C_16 
REMARK       I    between atoms: C_16  and  N_18 
REMARK    4  A    between atoms: N_18  and  C_20 
ROOT
HETATM    1  C   UNL     1       5.742  -6.338  27.598  1.00  0.00     0.109 C 
HETATM    2  C   UNL     1       5.863  -5.791  26.475  1.00  0.00    -0.008 A 
HETATM    3  C   UNL     1       5.432  -5.451  25.372  1.00  0.00     0.057 A 
HETATM    4  C   UNL     1       4.760  -6.493  24.067  1.00  0.00    -0.007 C 
HETATM    5  C   UNL     1       4.038  -6.214  23.485  1.00  0.00    -0.025 C 
HETATM    6  C   UNL     1       3.146  -4.942  23.437  1.00  0.00     0.053 C 
HETATM    7  C   UNL     1       3.490  -4.160  24.534  1.00  0.00    -0.025 C 
HETATM    8  C   UNL     1       4.181  -4.209  25.288  1.00  0.00    -0.007 C 
HETATM    9  C   UNL     1       6.443  -4.976  24.999  1.00  0.00     0.040 A 
ENDROOT
BRANCH   9  10
HETATM   10  C   UNL     1       7.589  -4.402  24.564  1.00  0.00     0.254 C 
HETATM   11  O   UNL     1       8.543  -5.033  24.611  1.00  0.00    -0.268 OA
HETATM   12  N   UNL     1       7.409  -3.157  24.154  1.00  0.00    -0.321 N 
ATOM     13  HN  UNL     1       6.477  -2.745  24.189  1.00  0.00     0.169 HD
BRANCH  12  14
HETATM   14  C   UNL     1       8.378  -2.470  23.719  1.00  0.00     0.056 A 
HETATM   15  C   UNL     1       8.996  -2.337  22.542  1.00  0.00     0.117 A 
HETATM   16  N   UNL     1       9.833  -1.880  21.839  1.00  0.00    -0.373 N 
HETATM   17  C   UNL     1      10.434  -1.066  22.728  1.00  0.00     0.088 A 
ATOM     18  HN  UNL     1      10.037  -2.052  20.854  1.00  0.00     0.164 HD
HETATM   19  C   UNL     1      10.127  -0.956  23.920  1.00  0.00     0.026 A 
HETATM   20  C   UNL     1       9.159  -1.543  24.652  1.00  0.00    -0.033 A 
HETATM   21  C   UNL     1       8.879  -1.378  26.206  1.00  0.00     0.050 C 
ENDBRANCH  12  14
ENDBRANCH   9  10
BRANCH   1  22
HETATM   22  N   UNL     1       6.065  -6.973  28.548  1.00  0.00    -0.295 N 
ATOM     23  HN  UNL     1       6.449  -7.897  28.349  1.00  0.00     0.177 HD
BRANCH  22  24
HETATM   24  S   UNL     1       5.980  -6.579  30.102  1.00  0.00     0.226 S 
HETATM   25  C   UNL     1       4.237  -6.686  30.510  1.00  0.00     0.186 C 
HETATM   26  O   UNL     1       6.668  -7.520  30.945  1.00  0.00    -0.206 OA
HETATM   27  O   UNL     1       6.372  -5.250  30.364  1.00  0.00    -0.206 OA
ENDBRANCH  22  24
ENDBRANCH   1  22
TORSDOF 4
ENDMDL
MODEL 8
REMARK VINA RESULT:    -6.793      4.327      8.145
REMARK INTER + INTRA:          -9.120
REMARK INTER:                  -8.481
REMARK INTRA:                  -0.640
REMARK UNBOUND:                -0.739
REMARK  4 active torsions:
REMARK  status: ('A' for Active; 'I' for Inactive)
REMARK    1  A    between atoms: S_2  and  N_5 
REMARK    2  A    between atoms: N_5  and  C_7 
REMARK    3  A    between atoms: C_15  and  C_16 
REMARK       I    between atoms: C_16  and  N_18 
REMARK    4  A    between atoms: N_18  and  C_20 
ROOT
HETATM    1  C   UNL     1       9.112  -2.667  24.024  1.00  0.00     0.109 C 
HETATM    2  C   UNL     1       8.230  -3.535  24.234  1.00  0.00    -0.008 A 
HETATM    3  C   UNL     1       7.304  -4.262  23.873  1.00  0.00     0.057 A 
HETATM    4  C   UNL     1       5.734  -3.783  23.135  1.00  0.00    -0.007 C 
HETATM    5  C   UNL     1       5.281  -4.313  22.463  1.00  0.00    -0.025 C 
HETATM    6  C   UNL     1       5.658  -5.619  21.710  1.00  0.00     0.053 C 
HETATM    7  C   UNL     1       6.949  -5.958  22.102  1.00  0.00    -0.025 C 
HETATM    8  C   UNL     1       7.641  -5.591  22.762  1.00  0.00    -0.007 C 
HETATM    9  C   UNL     1       7.101  -4.721  24.938  1.00  0.00     0.040 A 
ENDROOT
BRANCH   9  10
HETATM   10  C   UNL     1       6.870  -5.278  26.150  1.00  0.00     0.254 C 
HETATM   11  O   UNL     1       7.750  -5.799  26.664  1.00  0.00    -0.268 OA
HETATM   12  N   UNL     1       5.616  -5.132  26.546  1.00  0.00    -0.321 N 
ATOM     13  HN  UNL     1       4.954  -4.638  25.947  1.00  0.00     0.169 HD
BRANCH  12  14
HETATM   14  C   UNL     1       5.226  -5.598  27.655  1.00  0.00     0.056 A 
HETATM   15  C   UNL     1       5.088  -6.820  28.177  1.00  0.00     0.117 A 
HETATM   16  N   UNL     1       4.779  -7.564  29.045  1.00  0.00    -0.373 N 
HETATM   17  C   UNL     1       4.392  -6.663  29.968  1.00  0.00     0.088 A 
ATOM     18  HN  UNL     1       4.799  -8.584  29.082  1.00  0.00     0.164 HD
HETATM   19  C   UNL     1       4.373  -5.438  29.810  1.00  0.00     0.026 A 
HETATM   20  C   UNL     1       4.726  -4.666  28.761  1.00  0.00    -0.033 A 
HETATM   21  C   UNL     1       4.609  -3.089  28.631  1.00  0.00     0.050 C 
ENDBRANCH  12  14
ENDBRANCH   9  10
BRANCH   1  22
HETATM   22  N   UNL     1       9.800  -1.726  24.251  1.00  0.00    -0.295 N 
ATOM     23  HN  UNL     1       9.654  -1.285  25.160  1.00  0.00     0.177 HD
BRANCH  22  24
HETATM   24  S   UNL     1      10.926  -1.051  23.328  1.00  0.00     0.226 S 
HETATM   25  C   UNL     1      10.016  -0.213  22.030  1.00  0.00     0.186 C 
HETATM   26  O   UNL     1      11.681  -0.046  24.029  1.00  0.00    -0.206 OA
HETATM   27  O   UNL     1      11.762  -1.990  22.689  1.00  0.00    -0.206 OA
ENDBRANCH  22  24
ENDBRANCH   1  22
TORSDOF 4
ENDMDL
MODEL 9
REMARK VINA RESULT:    -6.631     14.567     16.138
REMARK INTER + INTRA:          -8.921
REMARK INTER:                  -8.058
REMARK INTRA:                  -0.863
REMARK UNBOUND:                -0.739
REMARK  4 active torsions:
REMARK  status: ('A' for Active; 'I' for Inactive)
REMARK    1  A    between atoms: S_2  and  N_5 
REMARK    2  A    between atoms: N_5  and  C_7 
REMARK    3  A    between atoms: C_15  and  C_16 
REMARK       I    between atoms: C_16  and  N_18 
REMARK    4  A    between atoms: N_18  and  C_20 
ROOT
HETATM    1  C   UNL     1      25.017  -3.188  24.031  1.00  0.00     0.109 C 
HETATM    2  C   UNL     1      24.167  -2.433  23.497  1.00  0.00    -0.008 A 
HETATM    3  C   UNL     1      23.304  -1.556  23.541  1.00  0.00     0.057 A 
HETATM    4  C   UNL     1      21.764  -1.552  24.473  1.00  0.00    -0.007 C 
HETATM    5  C   UNL     1      21.383  -0.752  24.864  1.00  0.00    -0.025 C 
HETATM    6  C   UNL     1      21.874   0.719  24.959  1.00  0.00     0.053 C 
HETATM    7  C   UNL     1      23.151   0.759  24.410  1.00  0.00    -0.025 C 
HETATM    8  C   UNL     1      23.779   0.094  23.950  1.00  0.00    -0.007 C 
HETATM    9  C   UNL     1      23.053  -1.588  22.391  1.00  0.00     0.040 A 
ENDROOT
BRANCH   9  10
HETATM   10  C   UNL     1      22.772  -1.594  21.067  1.00  0.00     0.254 C 
HETATM   11  O   UNL     1      21.690  -1.812  20.761  1.00  0.00    -0.268 OA
HETATM   12  N   UNL     1      23.836  -1.349  20.321  1.00  0.00    -0.321 N 
ATOM     13  HN  UNL     1      24.737  -1.181  20.769  1.00  0.00     0.169 HD
BRANCH  12  14
HETATM   14  C   UNL     1      23.753  -1.322  19.059  1.00  0.00     0.056 A 
HETATM   15  C   UNL     1      23.397  -0.410  18.150  1.00  0.00     0.117 A 
HETATM   16  N   UNL     1      23.194  -0.058  17.037  1.00  0.00    -0.373 N 
HETATM   17  C   UNL     1      23.529  -1.191  16.392  1.00  0.00     0.088 A 
ATOM     18  HN  UNL     1      22.864   0.838  16.675  1.00  0.00     0.164 HD
HETATM   19  C   UNL     1      23.888  -2.244  16.931  1.00  0.00     0.026 A 
HETATM   20  C   UNL     1      24.070  -2.567  18.228  1.00  0.00    -0.033 A 
HETATM   21  C   UNL     1      24.480  -3.977  18.831  1.00  0.00     0.050 C 
ENDBRANCH  12  14
ENDBRANCH   9  10
BRANCH   1  22
HETATM   22  N   UNL     1      25.640  -4.183  24.210  1.00  0.00    -0.295 N 
ATOM     23  HN  UNL     1      26.567  -4.053  24.615  1.00  0.00     0.177 HD
BRANCH  22  24
HETATM   24  S   UNL     1      25.227  -5.703  23.902  1.00  0.00     0.226 S 
HETATM   25  C   UNL     1      25.386  -5.873  22.124  1.00  0.00     0.186 C 
HETATM   26  O   UNL     1      26.132  -6.649  24.498  1.00  0.00    -0.206 OA
HETATM   27  O   UNL     1      23.881  -5.991  24.213  1.00  0.00    -0.206 OA
ENDBRANCH  22  24
ENDBRANCH   1  22
TORSDOF 4
ENDMDL
