REMARK  4 active torsions:
REMARK  status: ('A' for Active; 'I' for Inactive)
REMARK    1  A    between atoms: S_2  and  N_5 
REMARK    2  A    between atoms: N_5  and  C_7 
REMARK    3  A    between atoms: C_15  and  C_16 
REMARK       I    between atoms: C_16  and  N_18 
REMARK    4  A    between atoms: N_18  and  C_20 
ROOT
HETATM    1  C   UNL     1       8.971  -2.937  24.136  1.00  0.00     0.109 C 
HETATM    2  C   UNL     1       9.443  -1.976  23.481  1.00  0.00    -0.008 A 
HETATM    3  C   UNL     1      10.329  -1.161  23.221  1.00  0.00     0.057 A 
HETATM    4  C   UNL     1      11.073   0.063  24.310  1.00  0.00    -0.007 C 
HETATM    5  C   UNL     1      12.006   0.319  24.261  1.00  0.00    -0.025 C 
HETATM    6  C   UNL     1      13.200  -0.184  23.403  1.00  0.00     0.053 C 
HETATM    7  C   UNL     1      12.739  -1.261  22.654  1.00  0.00    -0.025 C 
HETATM    8  C   UNL     1      11.842  -1.736  22.517  1.00  0.00    -0.007 C 
HETATM    9  C   UNL     1       9.724  -0.604  22.378  1.00  0.00     0.040 A 
ENDROOT
BRANCH   9  10
HETATM   10  C   UNL     1       9.053   0.031  21.389  1.00  0.00     0.254 C 
HETATM   11  O   UNL     1       9.523   0.984  20.963  1.00  0.00    -0.268 OA
HETATM   12  N   UNL     1       7.917  -0.572  21.078  1.00  0.00    -0.321 N 
ATOM     13  HN  UNL     1       7.647  -1.422  21.573  1.00  0.00     0.169 HD
BRANCH  12  14
HETATM   14  C   UNL     1       7.161  -0.109  20.176  1.00  0.00     0.056 A 
HETATM   15  C   UNL     1       7.216  -0.018  18.844  1.00  0.00     0.117 A 
HETATM   16  N   UNL     1       6.782   0.317  17.794  1.00  0.00    -0.373 N 
HETATM   17  C   UNL     1       5.626   0.869  18.209  1.00  0.00     0.088 A 
ATOM     18  HN  UNL     1       7.169   0.217  16.855  1.00  0.00     0.164 HD
HETATM   19  C   UNL     1       5.263   0.972  19.386  1.00  0.00     0.026 A 
HETATM   20  C   UNL     1       5.842   0.577  20.538  1.00  0.00    -0.033 A 
HETATM   21  C   UNL     1       5.320   0.809  22.019  1.00  0.00     0.050 C 
ENDBRANCH  12  14
ENDBRANCH   9  10
BRANCH   1  22
HETATM   22  N   UNL     1       8.145  -3.582  24.694  1.00  0.00    -0.295 N 
ATOM     23  HN  UNL     1       7.261  -3.689  24.196  1.00  0.00     0.177 HD
BRANCH  22  24
HETATM   24  S   UNL     1       8.225  -4.309  26.123  1.00  0.00     0.226 S 
HETATM   25  C   UNL     1       6.554  -4.875  26.446  1.00  0.00     0.186 C 
HETATM   26  O   UNL     1       9.067  -5.475  26.100  1.00  0.00    -0.206 OA
HETATM   27  O   UNL     1       8.562  -3.434  27.177  1.00  0.00    -0.206 OA
ENDBRANCH  22  24
ENDBRANCH   1  22
TORSDOF 4
