stable:False satoms:8 tatoms:24 sratio:0.3333333333333333
  -OEChem-07092417503D

 24 26  0     1  0  0  0  0  0999 V2000
    6.5909   -4.8666   26.4865 C   0  0  0  0  0  0  0  0  0  0  0  0
    8.2112   -4.3347   26.1415 S   0  0  0  0  0  0  0  0  0  0  0  0
    9.0269   -5.5134   26.0609 O   0  0  0  0  0  0  0  0  0  0  0  0
    8.5975   -3.4498   27.1973 O   0  0  0  0  0  0  0  0  0  0  0  0
    8.1328   -3.5827   24.6906 N   0  0  0  0  0  0  0  0  0  0  0  0
    8.9605   -2.9315   24.1428 C   0  0  0  0  0  0  0  0  0  0  0  0
    9.4075   -1.9525   23.4784 C   0  0  0  0  0  0  0  0  0  0  0  0
   10.3381   -1.0984   23.2545 C   0  0  1  0  0  0  0  0  0  0  0  0
   11.0530   -0.0062   24.2979 C   0  0  0  0  0  0  0  0  0  0  0  0
   12.0500    0.2946   24.2742 C   0  0  0  0  0  0  0  0  0  0  0  0
   13.2079   -0.1556   23.4592 C   0  0  0  0  0  0  0  0  0  0  0  0
   12.7208   -1.2619   22.6247 C   0  0  0  0  0  0  0  0  0  0  0  0
   11.8148   -1.6977   22.4959 C   0  0  0  0  0  0  0  0  0  0  0  0
    9.7237   -0.5874   22.3546 C   0  0  2  0  0  0  0  0  0  0  0  0
    9.0635    0.0571   21.3780 C   0  0  0  0  0  0  0  0  0  0  0  0
    9.5667    1.0175   20.9948 O   0  0  0  0  0  0  0  0  0  0  0  0
    7.9380   -0.5436   21.0727 N   0  0  0  0  0  0  0  0  0  0  0  0
    7.2372   -0.0909   20.1456 C   0  0  0  0  0  0  0  0  0  0  0  0
    7.2473   -0.0068   18.8679 C   0  0  0  0  0  0  0  0  0  0  0  0
    6.7223    0.3420   17.7576 N   0  0  0  0  0  0  0  0  0  0  0  0
    5.6609    0.8680   18.2252 C   0  0  0  0  0  0  0  0  0  0  0  0
    5.2397    0.9717   19.4533 C   0  0  0  0  0  0  0  0  0  0  0  0
    5.7756    0.5739   20.5454 C   0  0  0  0  0  0  0  0  0  0  0  0
    5.2975    0.6649   21.8972 C   0  0  0  0  0  0  0  0  0  0  0  0
 20 21  2  0  0  0  0
 19 20  1  0  0  0  0
 21 22  1  0  0  0  0
 18 19  2  0  0  0  0
 22 23  2  0  0  0  0
 18 23  1  0  0  0  0
 17 18  1  0  0  0  0
 23 24  1  0  0  0  0
 15 16  2  0  0  0  0
 15 17  1  0  0  0  0
 14 15  1  0  0  0  0
  8 14  1  0  0  0  0
  7 14  1  0  0  0  0
 12 13  1  0  0  0  0
  8 13  1  0  0  0  0
 11 12  2  0  0  0  0
  7  8  1  0  0  0  0
  8  9  1  0  0  0  0
 10 11  1  0  0  0  0
  6  7  2  3  0  0  0
  5  6  1  0  0  0  0
  9 10  2  0  0  0  0
  2  5  1  0  0  0  0
  2  3  2  0  0  0  0
  1  2  1  0  0  0  0
  2  4  2  0  0  0  0
M  END
> <Shapegauss>
-285.896637

$$$$
