stable:False satoms:8 tatoms:24 sratio:0.3333333333333333
  -OEChem-08062416163D

 43 45  0     1  0  0  0  0  0999 V2000
    6.3721   -5.0904   26.2759 C   0  0  0  0  0  0  0  0  0  0  0  0
    7.9993   -4.5110   26.0660 S   0  0  0  0  0  0  0  0  0  0  0  0
    8.8454   -5.6683   25.9885 O   0  0  0  0  0  0  0  0  0  0  0  0
    8.2935   -3.6683   27.1842 O   0  0  0  0  0  0  0  0  0  0  0  0
    8.0011   -3.6946   24.6482 N   0  0  0  0  0  0  0  0  0  0  0  0
    8.8485   -3.0025   24.1877 C   0  0  0  0  0  0  0  0  0  0  0  0
    9.3164   -1.9851   23.5997 C   0  0  0  0  0  0  0  0  0  0  0  0
   10.2401   -1.1033   23.4780 C   0  0  1  0  0  0  0  0  0  0  0  0
   10.8581   -0.0464   24.6154 C   0  0  0  0  0  0  0  0  0  0  0  0
   11.8473    0.2750   24.6731 C   0  0  0  0  0  0  0  0  0  0  0  0
   13.0672   -0.1140   23.9194 C   0  0  0  0  0  0  0  0  0  0  0  0
   12.6628   -1.1901   23.0051 C   0  0  0  0  0  0  0  0  0  0  0  0
   11.7777   -1.6374   22.7956 C   0  0  0  0  0  0  0  0  0  0  0  0
    9.6758   -0.5636   22.5621 C   0  0  2  0  0  0  0  0  0  0  0  0
    9.0679    0.1120   21.5727 C   0  0  0  0  0  0  0  0  0  0  0  0
    9.5735    1.0989   21.2679 O   0  0  0  0  0  0  0  0  0  0  0  0
    7.9795   -0.4962   21.1650 N   0  0  0  0  0  0  0  0  0  0  0  0
    7.3323   -0.0152   20.2135 C   0  0  0  0  0  0  0  0  0  0  0  0
    7.4261    0.1279   18.9445 C   0  0  0  0  0  0  0  0  0  0  0  0
    6.9689    0.5171   17.8178 N   0  0  0  0  0  0  0  0  0  0  0  0
    5.8667    0.9997   18.2351 C   0  0  0  0  0  0  0  0  0  0  0  0
    5.3618    1.0382   19.4351 C   0  0  0  0  0  0  0  0  0  0  0  0
    5.8323    0.6012   20.5423 C   0  0  0  0  0  0  0  0  0  0  0  0
    5.2626    0.6202   21.8611 C   0  0  0  0  0  0  0  0  0  0  0  0
    6.3013   -5.6529   27.2185 H   0  0  0  0  0  0  0  0  0  0  0  0
    5.6799   -4.2361   26.3059 H   0  0  0  0  0  0  0  0  0  0  0  0
    6.1062   -5.7485   25.4355 H   0  0  0  0  0  0  0  0  0  0  0  0
    7.1971   -3.1023   24.7009 H   0  0  0  0  0  0  0  0  0  0  0  0
    9.7410   -3.5769   24.3874 H   0  0  0  0  0  0  0  0  0  0  0  0
   10.1716    0.3372   25.3557 H   0  0  0  0  0  0  0  0  0  0  0  0
   12.0184    1.0341   25.4219 H   0  0  0  0  0  0  0  0  0  0  0  0
   14.0550    0.3102   24.0232 H   0  0  0  0  0  0  0  0  0  0  0  0
   13.4860   -1.5911   22.4325 H   0  0  0  0  0  0  0  0  0  0  0  0
   11.6603   -1.5784   21.7035 H   0  0  0  0  0  0  0  0  0  0  0  0
   11.8923   -2.6894   23.0958 H   0  0  0  0  0  0  0  0  0  0  0  0
   10.1931   -1.2059   21.8342 H   0  0  0  0  0  0  0  0  0  0  0  0
    7.6722   -1.3362   21.6121 H   0  0  0  0  0  0  0  0  0  0  0  0
    8.3869   -0.3019   18.7028 H   0  0  0  0  0  0  0  0  0  0  0  0
    5.2511    1.4499   17.4704 H   0  0  0  0  0  0  0  0  0  0  0  0
    4.3946    1.5134   19.5072 H   0  0  0  0  0  0  0  0  0  0  0  0
    4.6881   -0.3032   22.0262 H   0  0  0  0  0  0  0  0  0  0  0  0
    6.0679    0.6891   22.6073 H   0  0  0  0  0  0  0  0  0  0  0  0
    4.5958    1.4894   21.9599 H   0  0  0  0  0  0  0  0  0  0  0  0
 20 21  2  0  0  0  0
 19 20  1  0  0  0  0
 21 22  1  0  0  0  0
 18 19  2  0  0  0  0
 22 23  2  0  0  0  0
 18 23  1  0  0  0  0
 17 18  1  0  0  0  0
 23 24  1  0  0  0  0
 15 16  2  0  0  0  0
 15 17  1  0  0  0  0
 14 15  1  0  0  0  0
  8 14  1  0  0  0  0
  7 14  1  0  0  0  0
 12 13  1  0  0  0  0
  8 13  1  0  0  0  0
 11 12  2  0  0  0  0
  7  8  1  0  0  0  0
  8  9  1  0  0  0  0
 10 11  1  0  0  0  0
  6  7  2  3  0  0  0
  5  6  1  0  0  0  0
  9 10  2  0  0  0  0
  2  5  1  0  0  0  0
  2  3  2  0  0  0  0
  1  2  1  0  0  0  0
  2  4  2  0  0  0  0
  1 25  1  0  0  0  0
  1 26  1  0  0  0  0
  1 27  1  0  0  0  0
  5 28  1  0  0  0  0
  6 29  1  0  0  0  0
  9 30  1  0  0  0  0
 10 31  1  0  0  0  0
 11 32  1  0  0  0  0
 12 33  1  0  0  0  0
 13 34  1  0  0  0  0
 13 35  1  0  0  0  0
 14 36  1  0  0  0  0
 17 37  1  0  0  0  0
 19 38  1  0  0  0  0
 21 39  1  0  0  0  0
 22 40  1  0  0  0  0
 24 41  1  0  0  0  0
 24 42  1  0  0  0  0
 24 43  1  0  0  0  0
M  END
> <Chemgauss4>
-13.084130

$$$$
