stable:False satoms:8 tatoms:24 sratio:0.3333333333333333
  -OEChem-08062416163D

 43 45  0     1  0  0  0  0  0999 V2000
   -6.7134   -5.2643  -26.2639 C   0  0  0  0  0  0  0  0  0  0  0  0
   -8.3405   -4.6849  -26.0541 S   0  0  0  0  0  0  0  0  0  0  0  0
   -9.1867   -5.8422  -25.9766 O   0  0  0  0  0  0  0  0  0  0  0  0
   -8.6347   -3.8422  -27.1722 O   0  0  0  0  0  0  0  0  0  0  0  0
   -8.3424   -3.8685  -24.6363 N   0  0  0  0  0  0  0  0  0  0  0  0
   -9.1897   -3.1763  -24.1757 C   0  0  0  0  0  0  0  0  0  0  0  0
   -9.6577   -2.1590  -23.5877 C   0  0  0  0  0  0  0  0  0  0  0  0
  -10.5813   -1.2771  -23.4661 C   0  0  1  0  0  0  0  0  0  0  0  0
  -11.1994   -0.2203  -24.6035 C   0  0  0  0  0  0  0  0  0  0  0  0
  -12.1885    0.1011  -24.6611 C   0  0  0  0  0  0  0  0  0  0  0  0
  -13.4085   -0.2879  -23.9075 C   0  0  0  0  0  0  0  0  0  0  0  0
  -13.0040   -1.3639  -22.9931 C   0  0  0  0  0  0  0  0  0  0  0  0
  -12.1190   -1.8113  -22.7837 C   0  0  0  0  0  0  0  0  0  0  0  0
  -10.0171   -0.7375  -22.5502 C   0  0  2  0  0  0  0  0  0  0  0  0
   -9.4092   -0.0618  -21.5607 C   0  0  0  0  0  0  0  0  0  0  0  0
   -9.9148    0.9250  -21.2560 O   0  0  0  0  0  0  0  0  0  0  0  0
   -8.3208   -0.6701  -21.1530 N   0  0  0  0  0  0  0  0  0  0  0  0
   -7.6736   -0.1891  -20.2016 C   0  0  0  0  0  0  0  0  0  0  0  0
   -7.7674   -0.0460  -18.9326 C   0  0  0  0  0  0  0  0  0  0  0  0
   -7.3101    0.3432  -17.8058 N   0  0  0  0  0  0  0  0  0  0  0  0
   -6.2080    0.8258  -18.2232 C   0  0  0  0  0  0  0  0  0  0  0  0
   -5.7031    0.8643  -19.4232 C   0  0  0  0  0  0  0  0  0  0  0  0
   -6.1735    0.4273  -20.5303 C   0  0  0  0  0  0  0  0  0  0  0  0
   -5.6039    0.4463  -21.8492 C   0  0  0  0  0  0  0  0  0  0  0  0
   -6.6426   -5.8268  -27.2066 H   0  0  0  0  0  0  0  0  0  0  0  0
   -6.0211   -4.4100  -26.2940 H   0  0  0  0  0  0  0  0  0  0  0  0
   -6.4474   -5.9224  -25.4236 H   0  0  0  0  0  0  0  0  0  0  0  0
   -7.5384   -3.2762  -24.6890 H   0  0  0  0  0  0  0  0  0  0  0  0
  -10.0822   -3.7508  -24.3755 H   0  0  0  0  0  0  0  0  0  0  0  0
  -10.5129    0.1633  -25.3438 H   0  0  0  0  0  0  0  0  0  0  0  0
  -12.3596    0.8602  -25.4100 H   0  0  0  0  0  0  0  0  0  0  0  0
  -14.3963    0.1363  -24.0113 H   0  0  0  0  0  0  0  0  0  0  0  0
  -13.8273   -1.7650  -22.4206 H   0  0  0  0  0  0  0  0  0  0  0  0
  -12.0016   -1.7523  -21.6915 H   0  0  0  0  0  0  0  0  0  0  0  0
  -12.2336   -2.8633  -23.0838 H   0  0  0  0  0  0  0  0  0  0  0  0
  -10.5344   -1.3797  -21.8223 H   0  0  0  0  0  0  0  0  0  0  0  0
   -8.0135   -1.5101  -21.6001 H   0  0  0  0  0  0  0  0  0  0  0  0
   -8.7282   -0.4758  -18.6909 H   0  0  0  0  0  0  0  0  0  0  0  0
   -5.5924    1.2760  -17.4584 H   0  0  0  0  0  0  0  0  0  0  0  0
   -4.7359    1.3395  -19.4953 H   0  0  0  0  0  0  0  0  0  0  0  0
   -5.0293   -0.4771  -22.0143 H   0  0  0  0  0  0  0  0  0  0  0  0
   -6.4092    0.5152  -22.5953 H   0  0  0  0  0  0  0  0  0  0  0  0
   -4.9371    1.3155  -21.9480 H   0  0  0  0  0  0  0  0  0  0  0  0
 20 21  2  0  0  0  0
 19 20  1  0  0  0  0
 21 22  1  0  0  0  0
 18 19  2  0  0  0  0
 22 23  2  0  0  0  0
 18 23  1  0  0  0  0
 17 18  1  0  0  0  0
 23 24  1  0  0  0  0
 15 16  2  0  0  0  0
 15 17  1  0  0  0  0
 14 15  1  0  0  0  0
  8 14  1  0  0  0  0
  7 14  1  0  0  0  0
 12 13  1  0  0  0  0
  8 13  1  0  0  0  0
 11 12  2  0  0  0  0
  7  8  1  0  0  0  0
  8  9  1  0  0  0  0
 10 11  1  0  0  0  0
  6  7  2  3  0  0  0
  5  6  1  0  0  0  0
  9 10  2  0  0  0  0
  2  5  1  0  0  0  0
  2  3  2  0  0  0  0
  1  2  1  0  0  0  0
  2  4  2  0  0  0  0
  1 25  1  0  0  0  0
  1 26  1  0  0  0  0
  1 27  1  0  0  0  0
  5 28  1  0  0  0  0
  6 29  1  0  0  0  0
  9 30  1  0  0  0  0
 10 31  1  0  0  0  0
 11 32  1  0  0  0  0
 12 33  1  0  0  0  0
 13 34  1  0  0  0  0
 13 35  1  0  0  0  0
 14 36  1  0  0  0  0
 17 37  1  0  0  0  0
 19 38  1  0  0  0  0
 21 39  1  0  0  0  0
 22 40  1  0  0  0  0
 24 41  1  0  0  0  0
 24 42  1  0  0  0  0
 24 43  1  0  0  0  0
M  END
> <Chemgauss4>
-13.039919

$$$$
