
 OpenBabel07202414163D

 34 36  0  0  1  0  0  0  0  0999 V2000
   -1.2300   -1.4219    0.9731 C   0  0  0  0  0  0  0  0  0  0  0  0
   -0.2198   -0.7413    0.1423 C   0  0  0  0  0  0  0  0  0  0  0  0
    0.2273   -1.0359   -1.0583 N   0  0  0  0  0  0  0  0  0  0  0  0
    1.2325   -0.1270   -1.3409 N   0  0  0  0  0  0  0  0  0  0  0  0
    1.3437    0.6468   -0.2791 C   0  0  0  0  0  0  0  0  0  0  0  0
    2.3880    1.6666    0.1088 C   0  0  3  0  0  0  0  0  0  0  0  0
    2.9525    1.2449    1.4884 C   0  0  0  0  0  0  0  0  0  0  0  0
    3.8454    0.0437    1.3135 C   0  0  0  0  0  0  0  0  0  0  0  0
    3.7381   -1.1050    2.0997 C   0  0  0  0  0  0  0  0  0  0  0  0
    4.5652   -2.1988    1.8380 C   0  0  0  0  0  0  0  0  0  0  0  0
    5.5076   -2.1395    0.8104 C   0  0  0  0  0  0  0  0  0  0  0  0
    5.6157   -0.9926    0.0240 C   0  0  0  0  0  0  0  0  0  0  0  0
    4.7686    0.0944    0.2560 C   0  0  0  0  0  0  0  0  0  0  0  0
    4.8027    1.3354   -0.6018 C   0  0  0  0  0  0  0  0  0  0  0  0
    3.4554    1.8224   -0.9285 N   0  0  0  0  0  0  0  0  0  0  0  0
    3.3620    2.6424   -2.0527 C   0  0  0  0  0  0  0  0  0  0  0  0
    4.3507    2.9525   -2.7176 O   0  0  0  0  0  0  0  0  0  0  0  0
    1.9965    3.1673   -2.4506 C   0  0  0  0  0  0  0  0  0  0  0  0
    1.7015    4.7227   -1.6501 Cl  0  0  0  0  0  0  0  0  0  0  0  0
    0.3938    0.3558    0.6771 O   0  0  0  0  0  0  0  0  0  0  0  0
   -1.5294   -2.3700    0.5161 H   0  0  0  0  0  0  0  0  0  0  0  0
   -2.1199   -0.7959    1.0828 H   0  0  0  0  0  0  0  0  0  0  0  0
   -0.8353   -1.6403    1.9716 H   0  0  0  0  0  0  0  0  0  0  0  0
    1.8935    2.6335    0.2203 H   0  0  0  0  0  0  0  0  0  0  0  0
    2.1446    1.0280    2.1975 H   0  0  0  0  0  0  0  0  0  0  0  0
    3.5390    2.0645    1.9174 H   0  0  0  0  0  0  0  0  0  0  0  0
    2.9961   -1.1721    2.8910 H   0  0  0  0  0  0  0  0  0  0  0  0
    4.4657   -3.1072    2.4266 H   0  0  0  0  0  0  0  0  0  0  0  0
    6.1460   -2.9961    0.6088 H   0  0  0  0  0  0  0  0  0  0  0  0
    6.3425   -0.9648   -0.7848 H   0  0  0  0  0  0  0  0  0  0  0  0
    5.3675    1.1390   -1.5215 H   0  0  0  0  0  0  0  0  0  0  0  0
    5.3157    2.1333   -0.0573 H   0  0  0  0  0  0  0  0  0  0  0  0
    1.2024    2.4741   -2.1879 H   0  0  0  0  0  0  0  0  0  0  0  0
    1.9687    3.3183   -3.5325 H   0  0  0  0  0  0  0  0  0  0  0  0
  1  2  1  0  0  0  0
  1 21  1  0  0  0  0
  1 22  1  0  0  0  0
  1 23  1  0  0  0  0
  2  3  2  0  0  0  0
  2 20  1  0  0  0  0
  3  4  1  0  0  0  0
  4  5  2  0  0  0  0
  5  6  1  0  0  0  0
  5 20  1  0  0  0  0
  6  7  1  0  0  0  0
  6 15  1  0  0  0  0
  6 24  1  0  0  0  0
  7  8  1  0  0  0  0
  7 25  1  0  0  0  0
  7 26  1  0  0  0  0
  8  9  1  0  0  0  0
  8 13  2  0  0  0  0
  9 10  2  0  0  0  0
  9 27  1  0  0  0  0
 10 11  1  0  0  0  0
 10 28  1  0  0  0  0
 11 12  2  0  0  0  0
 11 29  1  0  0  0  0
 12 13  1  0  0  0  0
 12 30  1  0  0  0  0
 13 14  1  0  0  0  0
 14 15  1  0  0  0  0
 14 31  1  0  0  0  0
 14 32  1  0  0  0  0
 15 16  1  0  0  0  0
 16 17  2  0  0  0  0
 16 18  1  0  0  0  0
 18 19  1  0  0  0  0
 18 33  1  0  0  0  0
 18 34  1  0  0  0  0
M  END
$$$$
