stable:False satoms:10 tatoms:24 sratio:0.4166666666666667
  -OEChem-07092417463D

 24 25  0     1  0  0  0  0  0999 V2000
    6.6671   -4.7498   26.3955 C   0  0  0  0  0  0  0  0  0  0  0  0
    8.1292   -4.2958   26.1311 S   0  0  0  0  0  0  0  0  0  0  0  0
    9.0303   -5.4605   26.0723 O   0  0  0  0  0  0  0  0  0  0  0  0
    8.5853   -3.3914   27.1725 O   0  0  0  0  0  0  0  0  0  0  0  0
    8.0657   -3.5539   24.7000 N   0  0  0  0  0  0  0  0  0  0  0  0
    8.8785   -2.8495   24.1535 C   0  0  0  0  0  0  0  0  0  0  0  0
    9.3876   -1.9874   23.5452 C   0  0  0  0  0  0  0  0  0  0  0  0
   10.3526   -1.1213   23.2528 C   0  0  1  0  0  0  0  0  0  0  0  0
   11.0835   -0.1035   24.2787 C   0  0  0  0  0  0  0  0  0  0  0  0
   12.1957    0.1946   24.2449 C   0  0  0  0  0  0  0  0  0  0  0  0
   13.1245   -0.2203   23.5684 C   0  0  0  0  0  0  0  0  0  0  0  0
   12.7693   -1.2901   22.6716 C   0  0  0  0  0  0  0  0  0  0  0  0
   11.7396   -1.6419   22.5540 C   0  0  0  0  0  0  0  0  0  0  0  0
    9.6706   -0.5523   22.3775 C   0  0  0  0  0  0  0  0  0  0  0  0
    9.0307    0.0491   21.4204 C   0  0  0  0  0  0  0  0  0  0  0  0
    9.5486    1.0023   21.0084 O   0  0  0  0  0  0  0  0  0  0  0  0
    7.8783   -0.5596   21.0884 N   0  0  0  0  0  0  0  0  0  0  0  0
    7.1821   -0.1269   20.1757 C   0  0  0  0  0  0  0  0  0  0  0  0
    7.2192   -0.0146   18.8383 C   0  0  0  0  0  0  0  0  0  0  0  0
    6.7826    0.3243   17.7855 N   0  0  0  0  0  0  0  0  0  0  0  0
    5.6916    0.8998   18.2583 C   0  0  0  0  0  0  0  0  0  0  0  0
    5.2797    0.9705   19.4158 C   0  0  0  0  0  0  0  0  0  0  0  0
    5.8213    0.5581   20.5575 C   0  0  0  0  0  0  0  0  0  0  0  0
    5.4705    0.6297   21.6304 C   0  0  0  0  0  0  0  0  0  0  0  0
 20 21  2  0  0  0  0
 19 20  1  0  0  0  0
 21 22  1  0  0  0  0
 18 19  2  0  0  0  0
 22 23  2  0  0  0  0
 18 23  1  0  0  0  0
 17 18  1  0  0  0  0
 23 24  1  0  0  0  0
 15 16  2  0  0  0  0
 15 17  1  0  0  0  0
 14 15  1  0  0  0  0
  8 14  1  0  0  0  0
 12 13  1  0  0  0  0
  8 13  1  0  0  0  0
 11 12  2  0  0  0  0
  7  8  1  0  0  0  0
  8  9  1  0  0  0  0
  6  7  3  0  0  0  0
 10 11  1  0  0  0  0
  5  6  1  0  0  0  0
  9 10  2  0  0  0  0
  2  5  1  0  0  0  0
  2  3  2  0  0  0  0
  1  2  1  0  0  0  0
  2  4  2  0  0  0  0
M  END
> <Shapegauss>
-288.912903

$$$$
