stable:False satoms:10 tatoms:24 sratio:0.4166666666666667
  -OEChem-08062412433D

 43 44  0     1  0  0  0  0  0999 V2000
    6.7731   -5.2272   25.9610 C   0  0  0  0  0  0  0  0  0  0  0  0
    8.2127   -4.6575   25.8311 S   0  0  0  0  0  0  0  0  0  0  0  0
    9.1981   -5.7513   25.7629 O   0  0  0  0  0  0  0  0  0  0  0  0
    8.5312   -3.7975   26.9578 O   0  0  0  0  0  0  0  0  0  0  0  0
    8.1910   -3.8254   24.4492 N   0  0  0  0  0  0  0  0  0  0  0  0
    8.9851   -3.0315   24.0080 C   0  0  0  0  0  0  0  0  0  0  0  0
    9.4696   -2.0971   23.4936 C   0  0  0  0  0  0  0  0  0  0  0  0
   10.3863   -1.1492   23.3265 C   0  0  1  0  0  0  0  0  0  0  0  0
   10.9711   -0.1565   24.4646 C   0  0  0  0  0  0  0  0  0  0  0  0
   12.0585    0.2183   24.5294 C   0  0  0  0  0  0  0  0  0  0  0  0
   13.0581   -0.0850   23.8959 C   0  0  0  0  0  0  0  0  0  0  0  0
   12.8423   -1.1126   22.9099 C   0  0  0  0  0  0  0  0  0  0  0  0
   11.8511   -1.5250   22.6969 C   0  0  0  0  0  0  0  0  0  0  0  0
    9.7247   -0.5695   22.4427 C   0  0  0  0  0  0  0  0  0  0  0  0
    9.1080    0.0510   21.4825 C   0  0  0  0  0  0  0  0  0  0  0  0
    9.5815    1.0632   21.1700 O   0  0  0  0  0  0  0  0  0  0  0  0
    8.0277   -0.6107   21.0310 N   0  0  0  0  0  0  0  0  0  0  0  0
    7.3644   -0.1651   20.1003 C   0  0  0  0  0  0  0  0  0  0  0  0
    7.4824    0.0408   18.7788 C   0  0  0  0  0  0  0  0  0  0  0  0
    7.0935    0.4204   17.7212 N   0  0  0  0  0  0  0  0  0  0  0  0
    5.9344    0.8864   18.1505 C   0  0  0  0  0  0  0  0  0  0  0  0
    5.4421    0.8495   19.2778 C   0  0  0  0  0  0  0  0  0  0  0  0
    5.9349    0.3978   20.4267 C   0  0  0  0  0  0  0  0  0  0  0  0
    5.5090    0.3717   21.4742 C   0  0  0  0  0  0  0  0  0  0  0  0
    6.6936   -5.8164   26.8865 H   0  0  0  0  0  0  0  0  0  0  0  0
    6.0519   -4.3972   25.9918 H   0  0  0  0  0  0  0  0  0  0  0  0
    6.5544   -5.8711   25.0965 H   0  0  0  0  0  0  0  0  0  0  0  0
    7.3313   -3.3159   24.4850 H   0  0  0  0  0  0  0  0  0  0  0  0
   10.2845    0.1822   25.2264 H   0  0  0  0  0  0  0  0  0  0  0  0
   12.2236    0.9724   25.2847 H   0  0  0  0  0  0  0  0  0  0  0  0
   14.0201    0.3773   24.0609 H   0  0  0  0  0  0  0  0  0  0  0  0
   13.6912   -1.4907   22.3596 H   0  0  0  0  0  0  0  0  0  0  0  0
   11.7242   -1.3680   21.6156 H   0  0  0  0  0  0  0  0  0  0  0  0
   11.9606   -2.6003   22.9010 H   0  0  0  0  0  0  0  0  0  0  0  0
    9.2489    0.0776   23.1943 H   0  0  0  0  0  0  0  0  0  0  0  0
    9.1073   -1.4665   22.2875 H   0  0  0  0  0  0  0  0  0  0  0  0
    7.7625   -1.4750   21.4585 H   0  0  0  0  0  0  0  0  0  0  0  0
    8.4633   -0.3515   18.5547 H   0  0  0  0  0  0  0  0  0  0  0  0
    5.3284    1.3724   17.4002 H   0  0  0  0  0  0  0  0  0  0  0  0
    4.4420    1.2515   19.3448 H   0  0  0  0  0  0  0  0  0  0  0  0
    4.9598   -0.5696   21.6240 H   0  0  0  0  0  0  0  0  0  0  0  0
    6.3285    0.4381   22.2049 H   0  0  0  0  0  0  0  0  0  0  0  0
    4.8244    1.2215   21.6128 H   0  0  0  0  0  0  0  0  0  0  0  0
 20 21  2  0  0  0  0
 19 20  1  0  0  0  0
 21 22  1  0  0  0  0
 18 19  2  0  0  0  0
 22 23  2  0  0  0  0
 18 23  1  0  0  0  0
 17 18  1  0  0  0  0
 23 24  1  0  0  0  0
 15 16  2  0  0  0  0
 15 17  1  0  0  0  0
 14 15  1  0  0  0  0
  8 14  1  0  0  0  0
 12 13  1  0  0  0  0
  8 13  1  0  0  0  0
 11 12  2  0  0  0  0
  7  8  1  0  0  0  0
  8  9  1  0  0  0  0
  6  7  3  0  0  0  0
 10 11  1  0  0  0  0
  5  6  1  0  0  0  0
  9 10  2  0  0  0  0
  2  5  1  0  0  0  0
  2  3  2  0  0  0  0
  1  2  1  0  0  0  0
  2  4  2  0  0  0  0
  1 25  1  0  0  0  0
  1 26  1  0  0  0  0
  1 27  1  0  0  0  0
  5 28  1  0  0  0  0
  9 29  1  0  0  0  0
 10 30  1  0  0  0  0
 11 31  1  0  0  0  0
 12 32  1  0  0  0  0
 13 33  1  0  0  0  0
 13 34  1  0  0  0  0
 14 35  1  0  0  0  0
 14 36  1  0  0  0  0
 17 37  1  0  0  0  0
 19 38  1  0  0  0  0
 21 39  1  0  0  0  0
 22 40  1  0  0  0  0
 24 41  1  0  0  0  0
 24 42  1  0  0  0  0
 24 43  1  0  0  0  0
M  END
> <Chemgauss4>
-13.261533

$$$$
