stable:False satoms:10 tatoms:24 sratio:0.4166666666666667
  -OEChem-08062412433D

 43 44  0     1  0  0  0  0  0999 V2000
   -6.8636   -5.3249  -25.9371 C   0  0  0  0  0  0  0  0  0  0  0  0
   -8.3032   -4.7552  -25.8072 S   0  0  0  0  0  0  0  0  0  0  0  0
   -9.2885   -5.8490  -25.7390 O   0  0  0  0  0  0  0  0  0  0  0  0
   -8.6217   -3.8952  -26.9339 O   0  0  0  0  0  0  0  0  0  0  0  0
   -8.2815   -3.9232  -24.4253 N   0  0  0  0  0  0  0  0  0  0  0  0
   -9.0755   -3.1292  -23.9841 C   0  0  0  0  0  0  0  0  0  0  0  0
   -9.5600   -2.1948  -23.4698 C   0  0  0  0  0  0  0  0  0  0  0  0
  -10.4768   -1.2469  -23.3027 C   0  0  1  0  0  0  0  0  0  0  0  0
  -11.0616   -0.2543  -24.4407 C   0  0  0  0  0  0  0  0  0  0  0  0
  -12.1489    0.1206  -24.5055 C   0  0  0  0  0  0  0  0  0  0  0  0
  -13.1485   -0.1827  -23.8720 C   0  0  0  0  0  0  0  0  0  0  0  0
  -12.9328   -1.2104  -22.8860 C   0  0  0  0  0  0  0  0  0  0  0  0
  -11.9415   -1.6227  -22.6730 C   0  0  0  0  0  0  0  0  0  0  0  0
   -9.8151   -0.6672  -22.4188 C   0  0  0  0  0  0  0  0  0  0  0  0
   -9.1985   -0.0467  -21.4586 C   0  0  0  0  0  0  0  0  0  0  0  0
   -9.6720    0.9655  -21.1461 O   0  0  0  0  0  0  0  0  0  0  0  0
   -8.1182   -0.7085  -21.0072 N   0  0  0  0  0  0  0  0  0  0  0  0
   -7.4548   -0.2628  -20.0764 C   0  0  0  0  0  0  0  0  0  0  0  0
   -7.5728   -0.0569  -18.7549 C   0  0  0  0  0  0  0  0  0  0  0  0
   -7.1840    0.3227  -17.6973 N   0  0  0  0  0  0  0  0  0  0  0  0
   -6.0249    0.7887  -18.1266 C   0  0  0  0  0  0  0  0  0  0  0  0
   -5.5326    0.7518  -19.2539 C   0  0  0  0  0  0  0  0  0  0  0  0
   -6.0253    0.3001  -20.4028 C   0  0  0  0  0  0  0  0  0  0  0  0
   -5.5994    0.2740  -21.4503 C   0  0  0  0  0  0  0  0  0  0  0  0
   -6.7840   -5.9142  -26.8626 H   0  0  0  0  0  0  0  0  0  0  0  0
   -6.1423   -4.4949  -25.9679 H   0  0  0  0  0  0  0  0  0  0  0  0
   -6.6448   -5.9689  -25.0726 H   0  0  0  0  0  0  0  0  0  0  0  0
   -7.4218   -3.4136  -24.4611 H   0  0  0  0  0  0  0  0  0  0  0  0
  -10.3750    0.0845  -25.2025 H   0  0  0  0  0  0  0  0  0  0  0  0
  -12.3141    0.8746  -25.2608 H   0  0  0  0  0  0  0  0  0  0  0  0
  -14.1105    0.2795  -24.0370 H   0  0  0  0  0  0  0  0  0  0  0  0
  -13.7817   -1.5885  -22.3357 H   0  0  0  0  0  0  0  0  0  0  0  0
  -11.8147   -1.4658  -21.5917 H   0  0  0  0  0  0  0  0  0  0  0  0
  -12.0511   -2.6980  -22.8771 H   0  0  0  0  0  0  0  0  0  0  0  0
   -9.3393   -0.0201  -23.1704 H   0  0  0  0  0  0  0  0  0  0  0  0
   -9.1977   -1.5642  -22.2636 H   0  0  0  0  0  0  0  0  0  0  0  0
   -7.8529   -1.5727  -21.4346 H   0  0  0  0  0  0  0  0  0  0  0  0
   -8.5538   -0.4492  -18.5308 H   0  0  0  0  0  0  0  0  0  0  0  0
   -5.4188    1.2747  -17.3763 H   0  0  0  0  0  0  0  0  0  0  0  0
   -4.5324    1.1537  -19.3209 H   0  0  0  0  0  0  0  0  0  0  0  0
   -5.0503   -0.6673  -21.6001 H   0  0  0  0  0  0  0  0  0  0  0  0
   -6.4190    0.3404  -22.1810 H   0  0  0  0  0  0  0  0  0  0  0  0
   -4.9148    1.1238  -21.5889 H   0  0  0  0  0  0  0  0  0  0  0  0
 20 21  2  0  0  0  0
 19 20  1  0  0  0  0
 21 22  1  0  0  0  0
 18 19  2  0  0  0  0
 22 23  2  0  0  0  0
 18 23  1  0  0  0  0
 17 18  1  0  0  0  0
 23 24  1  0  0  0  0
 15 16  2  0  0  0  0
 15 17  1  0  0  0  0
 14 15  1  0  0  0  0
  8 14  1  0  0  0  0
 12 13  1  0  0  0  0
  8 13  1  0  0  0  0
 11 12  2  0  0  0  0
  7  8  1  0  0  0  0
  8  9  1  0  0  0  0
  6  7  3  0  0  0  0
 10 11  1  0  0  0  0
  5  6  1  0  0  0  0
  9 10  2  0  0  0  0
  2  5  1  0  0  0  0
  2  3  2  0  0  0  0
  1  2  1  0  0  0  0
  2  4  2  0  0  0  0
  1 25  1  0  0  0  0
  1 26  1  0  0  0  0
  1 27  1  0  0  0  0
  5 28  1  0  0  0  0
  9 29  1  0  0  0  0
 10 30  1  0  0  0  0
 11 31  1  0  0  0  0
 12 32  1  0  0  0  0
 13 33  1  0  0  0  0
 13 34  1  0  0  0  0
 14 35  1  0  0  0  0
 14 36  1  0  0  0  0
 17 37  1  0  0  0  0
 19 38  1  0  0  0  0
 21 39  1  0  0  0  0
 22 40  1  0  0  0  0
 24 41  1  0  0  0  0
 24 42  1  0  0  0  0
 24 43  1  0  0  0  0
M  END
> <Chemgauss4>
-13.181572

$$$$
