MODEL 1
REMARK VINA RESULT:    -5.650      0.000      0.000
REMARK INTER + INTRA:          -8.622
REMARK INTER:                  -8.127
REMARK INTRA:                  -0.495
REMARK UNBOUND:                -0.495
REMARK  8 active torsions:
REMARK  status: ('A' for Active; 'I' for Inactive)
REMARK    1  A    between atoms: C_2  and  N_3 
REMARK    2  A    between atoms: N_3  and  C_5 
REMARK    3  A    between atoms: C_5  and  N_6 
REMARK    4  A    between atoms: N_6  and  C_8 
REMARK    5  A    between atoms: C_12  and  C_13 
REMARK       I    between atoms: C_13  and  N_15 
REMARK    6  A    between atoms: N_15  and  C_17 
REMARK    7  A    between atoms: C_18  and  N_19 
REMARK    8  A    between atoms: C_18  and  C_22 
ROOT
HETATM    1  C   UNL     1       9.313   0.388  21.243  1.00  0.00     0.192 C 
HETATM    2  O   UNL     1      10.921   0.419  22.409  1.00  0.00    -0.316 OA
HETATM    3  C   UNL     1      10.560   1.814  22.280  1.00  0.00     0.354 C 
HETATM    4  O   UNL     1       9.437   1.689  21.394  1.00  0.00    -0.307 OA
HETATM    5  C   UNL     1       9.891  -0.307  22.303  1.00  0.00     0.191 C 
ENDROOT
BRANCH   5   6
HETATM    6  C   UNL     1       9.505  -1.377  23.262  1.00  0.00     0.283 C 
HETATM    7  O   UNL     1       9.584  -1.142  24.415  1.00  0.00    -0.265 OA
HETATM    8  N   UNL     1       9.080  -2.616  22.804  1.00  0.00    -0.329 N 
ATOM      9  HN  UNL     1       9.360  -2.907  21.867  1.00  0.00     0.168 HD
BRANCH   8  10
HETATM   10  C   UNL     1       8.426  -3.337  23.426  1.00  0.00     0.121 C 
HETATM   11  C   UNL     1       7.638  -4.324  23.697  1.00  0.00     0.051 C 
BRANCH  11  12
HETATM   12  N   UNL     1       7.455  -5.061  24.857  1.00  0.00    -0.397 N 
HETATM   13  H   UNL     1       6.462  -5.183  24.915  1.00  0.00     0.156 HD
ATOM     14  HN  UNL     1       8.167  -5.400  25.503  1.00  0.00     0.156 HD
ENDBRANCH  11  12
BRANCH  11  15
HETATM   15  C   UNL     1       7.005  -4.465  22.408  1.00  0.00     0.111 C 
HETATM   16  S   UNL     1       6.626  -5.898  21.724  1.00  0.00    -0.090 SA
ENDBRANCH  11  15
ENDBRANCH   8  10
ENDBRANCH   5   6
BRANCH   1  17
HETATM   17  N   UNL     1       8.617  -0.153  20.263  1.00  0.00    -0.285 N 
ATOM     18  HN  UNL     1       8.905  -1.128  20.189  1.00  0.00     0.179 HD
BRANCH  17  19
HETATM   19  C   UNL     1       7.822   0.028  19.462  1.00  0.00     0.051 C 
BRANCH  19  20
HETATM   20  N   UNL     1       7.176   0.086  18.465  1.00  0.00    -0.316 N 
ATOM     21  HN  UNL     1       7.670  -0.322  17.671  1.00  0.00     0.173 HD
BRANCH  20  22
HETATM   22  C   UNL     1       5.898   0.573  18.093  1.00  0.00     0.354 C 
HETATM   23  F   UNL     1       6.082   1.631  17.316  1.00  0.00    -0.234 F 
ENDBRANCH  20  22
ENDBRANCH  19  20
ENDBRANCH  17  19
ENDBRANCH   1  17
TORSDOF 8
ENDMDL
MODEL 2
REMARK VINA RESULT:    -5.647      3.702      4.601
REMARK INTER + INTRA:          -8.617
REMARK INTER:                  -8.043
REMARK INTRA:                  -0.574
REMARK UNBOUND:                -0.495
REMARK  8 active torsions:
REMARK  status: ('A' for Active; 'I' for Inactive)
REMARK    1  A    between atoms: C_2  and  N_3 
REMARK    2  A    between atoms: N_3  and  C_5 
REMARK    3  A    between atoms: C_5  and  N_6 
REMARK    4  A    between atoms: N_6  and  C_8 
REMARK    5  A    between atoms: C_12  and  C_13 
REMARK       I    between atoms: C_13  and  N_15 
REMARK    6  A    between atoms: N_15  and  C_17 
REMARK    7  A    between atoms: C_18  and  N_19 
REMARK    8  A    between atoms: C_18  and  C_22 
ROOT
HETATM    1  C   UNL     1      12.270  -0.260  23.843  1.00  0.00     0.192 C 
HETATM    2  O   UNL     1      12.259  -1.738  22.515  1.00  0.00    -0.316 OA
HETATM    3  C   UNL     1      13.531  -1.887  23.190  1.00  0.00     0.354 C 
HETATM    4  O   UNL     1      13.463  -0.761  24.078  1.00  0.00    -0.307 OA
HETATM    5  C   UNL     1      11.414  -1.212  23.295  1.00  0.00     0.191 C 
ENDROOT
BRANCH   5   6
HETATM    6  C   UNL     1      10.051  -1.750  23.554  1.00  0.00     0.283 C 
HETATM    7  O   UNL     1       9.575  -1.563  24.618  1.00  0.00    -0.265 OA
HETATM    8  N   UNL     1       9.373  -2.461  22.574  1.00  0.00    -0.329 N 
ATOM      9  HN  UNL     1       9.920  -2.908  21.838  1.00  0.00     0.168 HD
BRANCH   8  10
HETATM   10  C   UNL     1       8.225  -2.575  22.547  1.00  0.00     0.121 C 
HETATM   11  C   UNL     1       7.053  -3.058  22.794  1.00  0.00     0.051 C 
BRANCH  11  12
HETATM   12  N   UNL     1       5.799  -2.466  22.804  1.00  0.00    -0.397 N 
HETATM   13  H   UNL     1       5.441  -2.669  23.718  1.00  0.00     0.156 HD
ATOM     14  HN  UNL     1       5.346  -1.944  22.055  1.00  0.00     0.156 HD
ENDBRANCH  11  12
BRANCH  11  15
HETATM   15  C   UNL     1       7.430  -4.418  23.093  1.00  0.00     0.111 C 
HETATM   16  S   UNL     1       7.125  -5.691  22.117  1.00  0.00    -0.090 SA
ENDBRANCH  11  15
ENDBRANCH   8  10
ENDBRANCH   5   6
BRANCH   1  17
HETATM   17  N   UNL     1      11.925   0.961  24.203  1.00  0.00    -0.285 N 
ATOM     18  HN  UNL     1      11.962   0.997  25.222  1.00  0.00     0.179 HD
BRANCH  17  19
HETATM   19  C   UNL     1      11.602   1.994  23.838  1.00  0.00     0.051 C 
BRANCH  19  20
HETATM   20  N   UNL     1      11.015   2.983  23.533  1.00  0.00    -0.316 N 
ATOM     21  HN  UNL     1      10.193   2.773  22.968  1.00  0.00     0.173 HD
BRANCH  20  22
HETATM   22  C   UNL     1      11.161   4.375  23.752  1.00  0.00     0.354 C 
HETATM   23  F   UNL     1      12.441   4.612  24.000  1.00  0.00    -0.234 F 
ENDBRANCH  20  22
ENDBRANCH  19  20
ENDBRANCH  17  19
ENDBRANCH   1  17
TORSDOF 8
ENDMDL
MODEL 3
REMARK VINA RESULT:    -5.563      3.329      5.476
REMARK INTER + INTRA:          -8.497
REMARK INTER:                  -7.827
REMARK INTRA:                  -0.670
REMARK UNBOUND:                -0.495
REMARK  8 active torsions:
REMARK  status: ('A' for Active; 'I' for Inactive)
REMARK    1  A    between atoms: C_2  and  N_3 
REMARK    2  A    between atoms: N_3  and  C_5 
REMARK    3  A    between atoms: C_5  and  N_6 
REMARK    4  A    between atoms: N_6  and  C_8 
REMARK    5  A    between atoms: C_12  and  C_13 
REMARK       I    between atoms: C_13  and  N_15 
REMARK    6  A    between atoms: N_15  and  C_17 
REMARK    7  A    between atoms: C_18  and  N_19 
REMARK    8  A    between atoms: C_18  and  C_22 
ROOT
HETATM    1  C   UNL     1       9.415  -1.878  22.937  1.00  0.00     0.192 C 
HETATM    2  O   UNL     1       9.354   0.074  23.302  1.00  0.00    -0.316 OA
HETATM    3  C   UNL     1      10.718  -0.293  23.613  1.00  0.00     0.354 C 
HETATM    4  O   UNL     1      10.646  -1.706  23.369  1.00  0.00    -0.307 OA
HETATM    5  C   UNL     1       8.888  -0.699  22.416  1.00  0.00     0.191 C 
ENDROOT
BRANCH   5   6
HETATM    6  C   UNL     1       8.210  -0.250  21.170  1.00  0.00     0.283 C 
HETATM    7  O   UNL     1       8.876   0.217  20.315  1.00  0.00    -0.265 OA
HETATM    8  N   UNL     1       6.834  -0.366  21.033  1.00  0.00    -0.329 N 
ATOM      9  HN  UNL     1       6.268  -0.421  21.880  1.00  0.00     0.168 HD
BRANCH   8  10
HETATM   10  C   UNL     1       6.294  -0.404  20.013  1.00  0.00     0.121 C 
HETATM   11  C   UNL     1       5.763   0.012  18.911  1.00  0.00     0.051 C 
BRANCH  11  12
HETATM   12  N   UNL     1       5.575  -0.614  17.689  1.00  0.00    -0.397 N 
HETATM   13  H   UNL     1       5.898   0.058  17.018  1.00  0.00     0.156 HD
ATOM     14  HN  UNL     1       5.196  -1.544  17.513  1.00  0.00     0.156 HD
ENDBRANCH  11  12
BRANCH  11  15
HETATM   15  C   UNL     1       5.438   1.359  19.315  1.00  0.00     0.111 C 
HETATM   16  S   UNL     1       3.922   1.888  19.610  1.00  0.00    -0.090 SA
ENDBRANCH  11  15
ENDBRANCH   8  10
ENDBRANCH   5   6
BRANCH   1  17
HETATM   17  N   UNL     1       8.829  -3.058  22.905  1.00  0.00    -0.285 N 
ATOM     18  HN  UNL     1       9.503  -3.741  23.251  1.00  0.00     0.179 HD
BRANCH  17  19
HETATM   19  C   UNL     1       7.872  -3.627  22.647  1.00  0.00     0.051 C 
BRANCH  19  20
HETATM   20  N   UNL     1       6.878  -4.056  22.155  1.00  0.00    -0.316 N 
ATOM     21  HN  UNL     1       6.164  -3.334  22.056  1.00  0.00     0.173 HD
BRANCH  20  22
HETATM   22  C   UNL     1       6.426  -5.308  21.671  1.00  0.00     0.354 C 
HETATM   23  F   UNL     1       7.394  -6.192  21.875  1.00  0.00    -0.234 F 
ENDBRANCH  20  22
ENDBRANCH  19  20
ENDBRANCH  17  19
ENDBRANCH   1  17
TORSDOF 8
ENDMDL
MODEL 4
REMARK VINA RESULT:    -5.512     20.156     23.018
REMARK INTER + INTRA:          -8.423
REMARK INTER:                  -7.815
REMARK INTRA:                  -0.608
REMARK UNBOUND:                -0.495
REMARK  8 active torsions:
REMARK  status: ('A' for Active; 'I' for Inactive)
REMARK    1  A    between atoms: C_2  and  N_3 
REMARK    2  A    between atoms: N_3  and  C_5 
REMARK    3  A    between atoms: C_5  and  N_6 
REMARK    4  A    between atoms: N_6  and  C_8 
REMARK    5  A    between atoms: C_12  and  C_13 
REMARK       I    between atoms: C_13  and  N_15 
REMARK    6  A    between atoms: N_15  and  C_17 
REMARK    7  A    between atoms: C_18  and  N_19 
REMARK    8  A    between atoms: C_18  and  C_22 
ROOT
HETATM    1  C   UNL     1       5.894  10.091   3.623  1.00  0.00     0.192 C 
HETATM    2  O   UNL     1       6.358  11.048   1.944  1.00  0.00    -0.316 OA
HETATM    3  C   UNL     1       4.916  11.151   2.015  1.00  0.00     0.354 C 
HETATM    4  O   UNL     1       4.681  10.399   3.215  1.00  0.00    -0.307 OA
HETATM    5  C   UNL     1       6.844  10.970   3.109  1.00  0.00     0.191 C 
ENDROOT
BRANCH   5   6
HETATM    6  C   UNL     1       7.955  11.816   3.622  1.00  0.00     0.283 C 
HETATM    7  O   UNL     1       8.634  11.377   4.482  1.00  0.00    -0.265 OA
HETATM    8  N   UNL     1       8.169  13.088   3.110  1.00  0.00    -0.329 N 
ATOM      9  HN  UNL     1       7.388  13.564   2.660  1.00  0.00     0.168 HD
BRANCH   8  10
HETATM   10  C   UNL     1       9.184  13.636   3.165  1.00  0.00     0.121 C 
HETATM   11  C   UNL     1      10.065  14.566   2.999  1.00  0.00     0.051 C 
BRANCH  11  12
HETATM   12  N   UNL     1      11.200  14.895   3.725  1.00  0.00    -0.397 N 
HETATM   13  H   UNL     1      11.682  14.022   3.834  1.00  0.00     0.156 HD
ATOM     14  HN  UNL     1      11.481  15.813   4.068  1.00  0.00     0.156 HD
ENDBRANCH  11  12
BRANCH  11  15
HETATM   15  C   UNL     1       9.504  15.200   1.831  1.00  0.00     0.111 C 
HETATM   16  S   UNL     1       8.730  16.637   1.850  1.00  0.00    -0.090 SA
ENDBRANCH  11  15
ENDBRANCH   8  10
ENDBRANCH   5   6
BRANCH   1  17
HETATM   17  N   UNL     1       6.130   9.138   4.503  1.00  0.00    -0.285 N 
ATOM     18  HN  UNL     1       7.012   9.362   4.963  1.00  0.00     0.179 HD
BRANCH  17  19
HETATM   19  C   UNL     1       5.747   8.163   4.959  1.00  0.00     0.051 C 
BRANCH  19  20
HETATM   20  N   UNL     1       5.468   7.034   5.211  1.00  0.00    -0.316 N 
ATOM     21  HN  UNL     1       5.956   6.702   6.043  1.00  0.00     0.173 HD
BRANCH  20  22
HETATM   22  C   UNL     1       4.633   6.032   4.658  1.00  0.00     0.354 C 
HETATM   23  F   UNL     1       4.432   6.334   3.383  1.00  0.00    -0.234 F 
ENDBRANCH  20  22
ENDBRANCH  19  20
ENDBRANCH  17  19
ENDBRANCH   1  17
TORSDOF 8
ENDMDL
MODEL 5
REMARK VINA RESULT:    -5.486      3.284      4.355
REMARK INTER + INTRA:          -8.387
REMARK INTER:                  -7.605
REMARK INTRA:                  -0.782
REMARK UNBOUND:                -0.495
REMARK  8 active torsions:
REMARK  status: ('A' for Active; 'I' for Inactive)
REMARK    1  A    between atoms: C_2  and  N_3 
REMARK    2  A    between atoms: N_3  and  C_5 
REMARK    3  A    between atoms: C_5  and  N_6 
REMARK    4  A    between atoms: N_6  and  C_8 
REMARK    5  A    between atoms: C_12  and  C_13 
REMARK       I    between atoms: C_13  and  N_15 
REMARK    6  A    between atoms: N_15  and  C_17 
REMARK    7  A    between atoms: C_18  and  N_19 
REMARK    8  A    between atoms: C_18  and  C_22 
ROOT
HETATM    1  C   UNL     1      12.363  -0.277  23.811  1.00  0.00     0.192 C 
HETATM    2  O   UNL     1      12.363  -1.763  22.492  1.00  0.00    -0.316 OA
HETATM    3  C   UNL     1      13.597  -1.950  23.224  1.00  0.00     0.354 C 
HETATM    4  O   UNL     1      13.527  -0.817  24.103  1.00  0.00    -0.307 OA
HETATM    5  C   UNL     1      11.502  -1.205  23.231  1.00  0.00     0.191 C 
ENDROOT
BRANCH   5   6
HETATM    6  C   UNL     1      10.111  -1.695  23.431  1.00  0.00     0.283 C 
HETATM    7  O   UNL     1       9.682  -1.708  24.530  1.00  0.00    -0.265 OA
HETATM    8  N   UNL     1       9.355  -2.134  22.354  1.00  0.00    -0.329 N 
ATOM      9  HN  UNL     1       9.845  -2.449  21.517  1.00  0.00     0.168 HD
BRANCH   8  10
HETATM   10  C   UNL     1       8.200  -2.164  22.354  1.00  0.00     0.121 C 
HETATM   11  C   UNL     1       6.985  -1.890  22.013  1.00  0.00     0.051 C 
BRANCH  11  12
HETATM   12  N   UNL     1       5.816  -2.628  22.112  1.00  0.00    -0.397 N 
HETATM   13  H   UNL     1       5.853  -3.251  21.327  1.00  0.00     0.156 HD
ATOM     14  HN  UNL     1       5.086  -2.555  22.820  1.00  0.00     0.156 HD
ENDBRANCH  11  12
BRANCH  11  15
HETATM   15  C   UNL     1       7.199  -0.575  21.459  1.00  0.00     0.111 C 
HETATM   16  S   UNL     1       6.508  -0.035  20.082  1.00  0.00    -0.090 SA
ENDBRANCH  11  15
ENDBRANCH   8  10
ENDBRANCH   5   6
BRANCH   1  17
HETATM   17  N   UNL     1      12.044   0.956  24.150  1.00  0.00    -0.285 N 
ATOM     18  HN  UNL     1      12.693   1.246  24.882  1.00  0.00     0.179 HD
BRANCH  17  19
HETATM   19  C   UNL     1      11.337   1.831  23.957  1.00  0.00     0.051 C 
BRANCH  19  20
HETATM   20  N   UNL     1      10.466   2.559  23.599  1.00  0.00    -0.316 N 
ATOM     21  HN  UNL     1      10.497   3.453  24.088  1.00  0.00     0.173 HD
BRANCH  20  22
HETATM   22  C   UNL     1       9.396   2.506  22.671  1.00  0.00     0.354 C 
HETATM   23  F   UNL     1       9.696   1.588  21.763  1.00  0.00    -0.234 F 
ENDBRANCH  20  22
ENDBRANCH  19  20
ENDBRANCH  17  19
ENDBRANCH   1  17
TORSDOF 8
ENDMDL
MODEL 6
REMARK VINA RESULT:    -5.478     20.066     21.493
REMARK INTER + INTRA:          -8.375
REMARK INTER:                  -7.643
REMARK INTRA:                  -0.732
REMARK UNBOUND:                -0.495
REMARK  8 active torsions:
REMARK  status: ('A' for Active; 'I' for Inactive)
REMARK    1  A    between atoms: C_2  and  N_3 
REMARK    2  A    between atoms: N_3  and  C_5 
REMARK    3  A    between atoms: C_5  and  N_6 
REMARK    4  A    between atoms: N_6  and  C_8 
REMARK    5  A    between atoms: C_12  and  C_13 
REMARK       I    between atoms: C_13  and  N_15 
REMARK    6  A    between atoms: N_15  and  C_17 
REMARK    7  A    between atoms: C_18  and  N_19 
REMARK    8  A    between atoms: C_18  and  C_22 
ROOT
HETATM    1  C   UNL     1       0.005 -16.812   8.242  1.00  0.00     0.192 C 
HETATM    2  O   UNL     1      -0.689 -15.210   9.192  1.00  0.00    -0.316 OA
HETATM    3  C   UNL     1      -1.651 -15.429   8.133  1.00  0.00     0.354 C 
HETATM    4  O   UNL     1      -1.042 -16.558   7.488  1.00  0.00    -0.307 OA
HETATM    5  C   UNL     1      -0.159 -16.308   9.530  1.00  0.00     0.191 C 
ENDROOT
BRANCH   5   6
HETATM    6  C   UNL     1      -0.050 -16.800  10.930  1.00  0.00     0.283 C 
HETATM    7  O   UNL     1       0.776 -17.608  11.169  1.00  0.00    -0.265 OA
HETATM    8  N   UNL     1      -0.908 -16.329  11.914  1.00  0.00    -0.329 N 
ATOM      9  HN  UNL     1      -1.804 -15.937  11.624  1.00  0.00     0.168 HD
BRANCH   8  10
HETATM   10  C   UNL     1      -0.663 -16.358  13.042  1.00  0.00     0.121 C 
HETATM   11  C   UNL     1      -0.782 -16.641  14.296  1.00  0.00     0.051 C 
BRANCH  11  12
HETATM   12  N   UNL     1       0.163 -16.754  15.305  1.00  0.00    -0.397 N 
HETATM   13  H   UNL     1       0.113 -15.875  15.786  1.00  0.00     0.156 HD
ATOM     14  HN  UNL     1       0.770 -17.547  15.510  1.00  0.00     0.156 HD
ENDBRANCH  11  12
BRANCH  11  15
HETATM   15  C   UNL     1      -2.210 -16.840  14.347  1.00  0.00     0.111 C 
HETATM   16  S   UNL     1      -3.191 -16.170  15.467  1.00  0.00    -0.090 SA
ENDBRANCH  11  15
ENDBRANCH   8  10
ENDBRANCH   5   6
BRANCH   1  17
HETATM   17  N   UNL     1       1.014 -17.556   7.835  1.00  0.00    -0.285 N 
ATOM     18  HN  UNL     1       0.806 -17.853   6.882  1.00  0.00     0.179 HD
BRANCH  17  19
HETATM   19  C   UNL     1       2.026 -18.004   8.117  1.00  0.00     0.051 C 
BRANCH  19  20
HETATM   20  N   UNL     1       3.020 -18.369   8.660  1.00  0.00    -0.316 N 
ATOM     21  HN  UNL     1       3.781 -17.699   8.543  1.00  0.00     0.173 HD
BRANCH  20  22
HETATM   22  C   UNL     1       3.423 -19.489   9.427  1.00  0.00     0.354 C 
HETATM   23  F   UNL     1       4.154 -20.271   8.646  1.00  0.00    -0.234 F 
ENDBRANCH  20  22
ENDBRANCH  19  20
ENDBRANCH  17  19
ENDBRANCH   1  17
TORSDOF 8
ENDMDL
MODEL 7
REMARK VINA RESULT:    -5.418      3.329      5.019
REMARK INTER + INTRA:          -8.288
REMARK INTER:                  -7.538
REMARK INTRA:                  -0.750
REMARK UNBOUND:                -0.495
REMARK  8 active torsions:
REMARK  status: ('A' for Active; 'I' for Inactive)
REMARK    1  A    between atoms: C_2  and  N_3 
REMARK    2  A    between atoms: N_3  and  C_5 
REMARK    3  A    between atoms: C_5  and  N_6 
REMARK    4  A    between atoms: N_6  and  C_8 
REMARK    5  A    between atoms: C_12  and  C_13 
REMARK       I    between atoms: C_13  and  N_15 
REMARK    6  A    between atoms: N_15  and  C_17 
REMARK    7  A    between atoms: C_18  and  N_19 
REMARK    8  A    between atoms: C_18  and  C_22 
ROOT
HETATM    1  C   UNL     1       6.727  -0.567  20.572  1.00  0.00     0.192 C 
HETATM    2  O   UNL     1       7.850   0.146  19.095  1.00  0.00    -0.316 OA
HETATM    3  C   UNL     1       6.558   0.760  18.875  1.00  0.00     0.354 C 
HETATM    4  O   UNL     1       5.820   0.151  19.946  1.00  0.00    -0.307 OA
HETATM    5  C   UNL     1       8.013  -0.091  20.327  1.00  0.00     0.191 C 
ENDROOT
BRANCH   5   6
HETATM    6  C   UNL     1       9.211   0.305  21.115  1.00  0.00     0.283 C 
HETATM    7  O   UNL     1       9.355   1.449  21.367  1.00  0.00    -0.265 OA
HETATM    8  N   UNL     1      10.135  -0.647  21.524  1.00  0.00    -0.329 N 
ATOM      9  HN  UNL     1      10.185  -1.524  21.005  1.00  0.00     0.168 HD
BRANCH   8  10
HETATM   10  C   UNL     1      10.850  -0.500  22.419  1.00  0.00     0.121 C 
HETATM   11  C   UNL     1      11.370  -0.667  23.589  1.00  0.00     0.051 C 
BRANCH  11  12
HETATM   12  N   UNL     1      12.657  -0.456  24.060  1.00  0.00    -0.397 N 
HETATM   13  H   UNL     1      12.936  -1.350  24.418  1.00  0.00     0.156 HD
ATOM     14  HN  UNL     1      13.196   0.409  24.044  1.00  0.00     0.156 HD
ENDBRANCH  11  12
BRANCH  11  15
HETATM   15  C   UNL     1      10.210  -1.178  24.279  1.00  0.00     0.111 C 
HETATM   16  S   UNL     1       9.173  -0.254  25.137  1.00  0.00    -0.090 SA
ENDBRANCH  11  15
ENDBRANCH   8  10
ENDBRANCH   5   6
BRANCH   1  17
HETATM   17  N   UNL     1       6.417  -1.534  21.412  1.00  0.00    -0.285 N 
ATOM     18  HN  UNL     1       5.414  -1.473  21.587  1.00  0.00     0.179 HD
BRANCH  17  19
HETATM   19  C   UNL     1       6.815  -2.413  22.024  1.00  0.00     0.051 C 
BRANCH  19  20
HETATM   20  N   UNL     1       7.367  -3.129  22.797  1.00  0.00    -0.316 N 
ATOM     21  HN  UNL     1       8.055  -2.623  23.355  1.00  0.00     0.173 HD
BRANCH  20  22
HETATM   22  C   UNL     1       7.317  -4.502  23.145  1.00  0.00     0.354 C 
HETATM   23  F   UNL     1       7.535  -5.205  22.043  1.00  0.00    -0.234 F 
ENDBRANCH  20  22
ENDBRANCH  19  20
ENDBRANCH  17  19
ENDBRANCH   1  17
TORSDOF 8
ENDMDL
MODEL 8
REMARK VINA RESULT:    -5.368      3.211      4.645
REMARK INTER + INTRA:          -8.216
REMARK INTER:                  -7.510
REMARK INTRA:                  -0.705
REMARK UNBOUND:                -0.495
REMARK  8 active torsions:
REMARK  status: ('A' for Active; 'I' for Inactive)
REMARK    1  A    between atoms: C_2  and  N_3 
REMARK    2  A    between atoms: N_3  and  C_5 
REMARK    3  A    between atoms: C_5  and  N_6 
REMARK    4  A    between atoms: N_6  and  C_8 
REMARK    5  A    between atoms: C_12  and  C_13 
REMARK       I    between atoms: C_13  and  N_15 
REMARK    6  A    between atoms: N_15  and  C_17 
REMARK    7  A    between atoms: C_18  and  N_19 
REMARK    8  A    between atoms: C_18  and  C_22 
ROOT
HETATM    1  C   UNL     1       6.505  -2.571  21.662  1.00  0.00     0.192 C 
HETATM    2  O   UNL     1       7.306  -3.201  23.368  1.00  0.00    -0.316 OA
HETATM    3  C   UNL     1       6.690  -4.388  22.816  1.00  0.00     0.354 C 
HETATM    4  O   UNL     1       6.107  -3.824  21.630  1.00  0.00    -0.307 OA
HETATM    5  C   UNL     1       7.653  -2.419  22.436  1.00  0.00     0.191 C 
ENDROOT
BRANCH   5   6
HETATM    6  C   UNL     1       9.004  -1.811  22.299  1.00  0.00     0.283 C 
HETATM    7  O   UNL     1       9.155  -0.979  21.475  1.00  0.00    -0.265 OA
HETATM    8  N   UNL     1      10.051  -2.226  23.108  1.00  0.00    -0.329 N 
ATOM      9  HN  UNL     1       9.996  -3.153  23.530  1.00  0.00     0.168 HD
BRANCH   8  10
HETATM   10  C   UNL     1      10.982  -1.579  23.330  1.00  0.00     0.121 C 
HETATM   11  C   UNL     1      11.777  -0.785  23.968  1.00  0.00     0.051 C 
BRANCH  11  12
HETATM   12  N   UNL     1      13.152  -0.623  23.909  1.00  0.00    -0.397 N 
HETATM   13  H   UNL     1      13.368  -0.715  22.934  1.00  0.00     0.156 HD
ATOM     14  HN  UNL     1      13.796  -0.449  24.680  1.00  0.00     0.156 HD
ENDBRANCH  11  12
BRANCH  11  15
HETATM   15  C   UNL     1      10.806  -0.117  24.800  1.00  0.00     0.111 C 
HETATM   16  S   UNL     1      10.187   1.360  24.484  1.00  0.00    -0.090 SA
ENDBRANCH  11  15
ENDBRANCH   8  10
ENDBRANCH   5   6
BRANCH   1  17
HETATM   17  N   UNL     1       5.937  -1.624  20.942  1.00  0.00    -0.285 N 
ATOM     18  HN  UNL     1       5.591  -0.916  21.590  1.00  0.00     0.179 HD
BRANCH  17  19
HETATM   19  C   UNL     1       5.674  -1.274  19.887  1.00  0.00     0.051 C 
BRANCH  19  20
HETATM   20  N   UNL     1       5.330  -0.676  18.917  1.00  0.00    -0.316 N 
ATOM     21  HN  UNL     1       4.417  -0.987  18.587  1.00  0.00     0.173 HD
BRANCH  20  22
HETATM   22  C   UNL     1       5.859   0.355  18.102  1.00  0.00     0.354 C 
HETATM   23  F   UNL     1       6.928   0.844  18.715  1.00  0.00    -0.234 F 
ENDBRANCH  20  22
ENDBRANCH  19  20
ENDBRANCH  17  19
ENDBRANCH   1  17
TORSDOF 8
ENDMDL
MODEL 9
REMARK VINA RESULT:    -5.301      1.955      2.299
REMARK INTER + INTRA:          -8.120
REMARK INTER:                  -7.455
REMARK INTRA:                  -0.664
REMARK UNBOUND:                -0.495
REMARK  8 active torsions:
REMARK  status: ('A' for Active; 'I' for Inactive)
REMARK    1  A    between atoms: C_2  and  N_3 
REMARK    2  A    between atoms: N_3  and  C_5 
REMARK    3  A    between atoms: C_5  and  N_6 
REMARK    4  A    between atoms: N_6  and  C_8 
REMARK    5  A    between atoms: C_12  and  C_13 
REMARK       I    between atoms: C_13  and  N_15 
REMARK    6  A    between atoms: N_15  and  C_17 
REMARK    7  A    between atoms: C_18  and  N_19 
REMARK    8  A    between atoms: C_18  and  C_22 
ROOT
HETATM    1  C   UNL     1       9.522  -0.633  21.818  1.00  0.00     0.192 C 
HETATM    2  O   UNL     1      10.363  -2.108  22.851  1.00  0.00    -0.316 OA
HETATM    3  C   UNL     1      10.848  -0.910  23.501  1.00  0.00     0.354 C 
HETATM    4  O   UNL     1      10.233   0.081  22.664  1.00  0.00    -0.307 OA
HETATM    5  C   UNL     1       9.229  -1.893  22.335  1.00  0.00     0.191 C 
ENDROOT
BRANCH   5   6
HETATM    6  C   UNL     1       8.030  -2.751  22.536  1.00  0.00     0.283 C 
HETATM    7  O   UNL     1       6.984  -2.331  22.185  1.00  0.00    -0.265 OA
HETATM    8  N   UNL     1       8.145  -3.998  23.133  1.00  0.00    -0.329 N 
ATOM      9  HN  UNL     1       8.951  -4.172  23.733  1.00  0.00     0.168 HD
BRANCH   8  10
HETATM   10  C   UNL     1       7.378  -4.849  22.987  1.00  0.00     0.121 C 
HETATM   11  C   UNL     1       6.331  -5.579  23.186  1.00  0.00     0.051 C 
BRANCH  11  12
HETATM   12  N   UNL     1       5.594  -6.380  22.328  1.00  0.00    -0.397 N 
HETATM   13  H   UNL     1       6.161  -6.439  21.502  1.00  0.00     0.156 HD
ATOM     14  HN  UNL     1       4.686  -6.810  22.497  1.00  0.00     0.156 HD
ENDBRANCH  11  12
BRANCH  11  15
HETATM   15  C   UNL     1       6.123  -5.294  24.585  1.00  0.00     0.111 C 
HETATM   16  S   UNL     1       5.139  -6.157  25.561  1.00  0.00    -0.090 SA
ENDBRANCH  11  15
ENDBRANCH   8  10
ENDBRANCH   5   6
BRANCH   1  17
HETATM   17  N   UNL     1       9.061  -0.145  20.684  1.00  0.00    -0.285 N 
ATOM     18  HN  UNL     1       9.861   0.202  20.156  1.00  0.00     0.179 HD
BRANCH  17  19
HETATM   19  C   UNL     1       8.128   0.046  20.053  1.00  0.00     0.051 C 
BRANCH  19  20
HETATM   20  N   UNL     1       7.279   0.071  19.220  1.00  0.00    -0.316 N 
ATOM     21  HN  UNL     1       7.608   0.508  18.359  1.00  0.00     0.173 HD
BRANCH  20  22
HETATM   22  C   UNL     1       5.930  -0.348  19.112  1.00  0.00     0.354 C 
HETATM   23  F   UNL     1       5.595  -0.301  17.830  1.00  0.00    -0.234 F 
ENDBRANCH  20  22
ENDBRANCH  19  20
ENDBRANCH  17  19
ENDBRANCH   1  17
TORSDOF 8
ENDMDL
