REMARK  8 active torsions:
REMARK  status: ('A' for Active; 'I' for Inactive)
REMARK    1  A    between atoms: C_2  and  N_3 
REMARK    2  A    between atoms: N_3  and  C_5 
REMARK    3  A    between atoms: C_5  and  N_6 
REMARK    4  A    between atoms: N_6  and  C_8 
REMARK    5  A    between atoms: C_12  and  C_13 
REMARK       I    between atoms: C_13  and  N_15 
REMARK    6  A    between atoms: N_15  and  C_17 
REMARK    7  A    between atoms: C_18  and  N_19 
REMARK    8  A    between atoms: C_18  and  C_22 
ROOT
HETATM    1  C   UNL     1      10.351  -1.635  23.120  1.00  0.00     0.192 C 
HETATM    2  O   UNL     1      10.961   0.248  23.296  1.00  0.00    -0.316 OA
HETATM    3  C   UNL     1      12.191  -0.514  23.277  1.00  0.00     0.354 C 
HETATM    4  O   UNL     1      11.648  -1.841  23.199  1.00  0.00    -0.307 OA
HETATM    5  C   UNL     1      10.065  -0.359  22.641  1.00  0.00     0.191 C 
ENDROOT
BRANCH   5   6
HETATM    6  C   UNL     1       9.229   0.258  21.576  1.00  0.00     0.283 C 
HETATM    7  O   UNL     1       9.648   1.216  21.029  1.00  0.00    -0.265 OA
HETATM    8  N   UNL     1       7.989  -0.275  21.253  1.00  0.00    -0.329 N 
ATOM      9  HN  UNL     1       7.511  -0.842  21.953  1.00  0.00     0.168 HD
BRANCH   8  10
HETATM   10  C   UNL     1       7.469  -0.111  20.235  1.00  0.00     0.121 C 
HETATM   11  C   UNL     1       6.642   0.364  19.364  1.00  0.00     0.051 C 
BRANCH  11  12
HETATM   12  N   UNL     1       6.741   0.510  17.989  1.00  0.00    -0.397 N 
HETATM   13  H   UNL     1       5.909   1.009  17.736  1.00  0.00     0.156 HD
ATOM     14  HN  UNL     1       7.488   0.185  17.376  1.00  0.00     0.156 HD
ENDBRANCH  11  12
BRANCH  11  15
HETATM   15  C   UNL     1       5.569   0.736  20.254  1.00  0.00     0.111 C 
HETATM   16  S   UNL     1       5.595   0.505  21.870  1.00  0.00    -0.090 SA
ENDBRANCH  11  15
ENDBRANCH   8  10
ENDBRANCH   5   6
BRANCH   1  17
HETATM   17  N   UNL     1       9.463  -2.580  23.357  1.00  0.00    -0.285 N 
ATOM     18  HN  UNL     1       9.064  -2.853  22.459  1.00  0.00     0.179 HD
BRANCH  17  19
HETATM   19  C   UNL     1       8.959  -3.217  24.160  1.00  0.00     0.051 C 
BRANCH  19  20
HETATM   20  N   UNL     1       8.209  -3.841  24.841  1.00  0.00    -0.316 N 
ATOM     21  HN  UNL     1       7.320  -4.006  24.369  1.00  0.00     0.173 HD
BRANCH  20  22
HETATM   22  C   UNL     1       8.229  -4.415  26.136  1.00  0.00     0.354 C 
HETATM   23  F   UNL     1       7.007  -4.856  26.400  1.00  0.00    -0.234 F 
ENDBRANCH  20  22
ENDBRANCH  19  20
ENDBRANCH  17  19
ENDBRANCH   1  17
TORSDOF 8
