stable:False satoms:17 tatoms:24 sratio:0.7083333333333334
  -OEChem-07092417383D

 24 24  0     0  0  0  0  0  0999 V2000
    7.0072   -4.8564   26.3999 F   0  0  0  0  0  0  0  0  0  0  0  0
    8.2293   -4.4154   26.1360 C   0  0  0  0  0  0  0  0  0  0  0  0
    8.8991   -5.2966   26.1768 H   0  0  0  0  0  0  0  0  0  0  0  0
    8.5041   -3.7095   26.9361 H   0  0  0  0  0  0  0  0  0  0  0  0
    8.2085   -3.8413   24.8413 N   0  0  0  0  0  0  0  0  0  0  0  0
    8.9590   -3.2173   24.1600 C   0  0  0  0  0  0  0  0  0  0  0  0
    9.4634   -2.5798   23.3574 N   0  0  0  0  0  0  0  0  0  0  0  0
   10.3505   -1.6348   23.1203 C   0  0  0  0  0  0  0  0  0  0  0  0
   10.9612    0.2478   23.2959 O   0  0  0  0  0  0  0  0  0  0  0  0
   12.6534   -0.0770   24.1734 H   0  0  0  0  0  0  0  0  0  0  0  0
   12.1913   -0.5145   23.2772 C   0  0  0  0  0  0  0  0  0  0  0  0
   12.9636   -0.5675   22.4797 H   0  0  0  0  0  0  0  0  0  0  0  0
   11.6478   -1.8407   23.1986 O   0  0  0  0  0  0  0  0  0  0  0  0
   10.0654   -0.3588   22.6407 C   0  0  0  0  0  0  0  0  0  0  0  0
    9.2288    0.2577   21.5758 C   0  0  0  0  0  0  0  0  0  0  0  0
    9.6480    1.2156   21.0287 O   0  0  0  0  0  0  0  0  0  0  0  0
    7.9885   -0.2749   21.2526 N   0  0  0  0  0  0  0  0  0  0  0  0
    7.4691   -0.1114   20.2352 C   0  0  0  0  0  0  0  0  0  0  0  0
    6.6419    0.3642   19.3645 C   0  0  0  0  0  0  0  0  0  0  0  0
    6.7409    0.5098   17.9891 N   0  5  0  0  0  0  0  0  0  0  0  0
    5.9092    1.0094   17.7362 H   0  0  0  0  0  0  0  0  0  0  0  0
    4.6903    1.1596   19.7974 H   0  0  0  0  0  0  0  0  0  0  0  0
    5.5690    0.7364   20.2536 C   0  0  0  0  0  0  0  0  0  0  0  0
    5.5947    0.5052   21.8705 S   0  0  0  0  0  0  0  0  0  0  0  0
 20 21  1  0  0  0  0
 19 20  1  0  0  0  0
 18 19  2  0  0  0  0
 19 23  1  0  0  0  0
 22 23  1  0  0  0  0
 17 18  1  0  0  0  0
 23 24  2  0  0  0  0
 15 16  2  0  0  0  0
 15 17  1  0  0  0  0
 14 15  1  0  0  0  0
 11 12  1  0  0  0  0
  8 14  2  0  0  0  0
  9 14  1  0  0  0  0
  8 13  1  0  0  0  0
  7  8  1  0  0  0  0
 11 13  1  0  0  0  0
  9 11  1  0  0  0  0
 10 11  1  0  0  0  0
  6  7  2  3  0  0  0
  5  6  1  0  0  0  0
  2  5  1  0  0  0  0
  2  3  1  0  0  0  0
  1  2  1  0  0  0  0
  2  4  1  0  0  0  0
M  CHG  1  20  -1
M  END
> <Shapegauss>
-197.464386

$$$$
