MODEL 1
REMARK VINA RESULT:    -7.254      0.000      0.000
REMARK INTER + INTRA:          -9.050
REMARK INTER:                  -9.162
REMARK INTRA:                   0.113
REMARK UNBOUND:                 0.113
REMARK  5 active torsions:
REMARK  status: ('A' for Active; 'I' for Inactive)
REMARK       I    between atoms: C_3  and  N_5 
REMARK       I    between atoms: C_3  and  N_8 
REMARK       I    between atoms: C_3  and  N_4 
REMARK    1  A    between atoms: N_8  and  C_11 
REMARK    2  A    between atoms: C_11  and  N_18 
REMARK    3  A    between atoms: C_14  and  N_15 
REMARK    4  A    between atoms: C_14  and  N_18 
REMARK       I    between atoms: N_19  and  C_26 
REMARK    5  A    between atoms: O_22  and  N_24 
REMARK       I    between atoms: N_24  and  C_26 
ROOT
HETATM    1  C   UNL     1       9.168  16.697   1.413  1.00  0.00     0.345 A 
HETATM    2  O   UNL     1       8.335  17.019   2.265  1.00  0.00    -0.254 OA
HETATM    3  C   UNL     1       9.189  15.566   2.078  1.00  0.00     0.338 A 
HETATM    4  O   UNL     1       9.647  17.324   0.435  1.00  0.00    -0.257 OA
ENDROOT
BRANCH   3   5
HETATM    5  N   UNL     1      10.346  14.883   2.271  1.00  0.00    -0.270 N 
HETATM    6  N   UNL     1      11.156  14.877   3.227  1.00  0.00    -0.250 N 
HETATM    7  C   UNL     1      11.007  15.038   4.510  1.00  0.00     0.358 C 
ATOM      8  HN  UNL     1      12.122  14.714   2.944  1.00  0.00     0.191 HD
HETATM    9  O   UNL     1      10.720  14.070   5.161  1.00  0.00    -0.243 OA
HETATM   10  N   UNL     1      11.121  16.174   5.295  1.00  0.00    -0.218 N 
HETATM   11  H   UNL     1      11.321  17.099   5.097  1.00  0.00     0.199 HD
ATOM     12  HN  UNL     1      10.601  14.266   1.501  1.00  0.00     0.186 HD
BRANCH  10  13
HETATM   13  O   UNL     1      10.932  15.850   6.635  1.00  0.00    -0.286 OA
HETATM   14  H   UNL     1      10.263  16.476   6.833  1.00  0.00     0.244 HD
ENDBRANCH  10  13
ENDBRANCH   3   5
BRANCH   3  15
HETATM   15  N   UNL     1       8.068  14.806   2.335  1.00  0.00    -0.277 N 
HETATM   16  C   UNL     1       7.222  14.934   3.572  1.00  0.00     0.166 C 
BRANCH  15  17
HETATM   17  C   UNL     1       7.664  13.936   1.572  1.00  0.00     0.056 C 
BRANCH  17  18
HETATM   18  N   UNL     1       7.428  13.202   0.689  1.00  0.00    -0.284 N 
HETATM   19  C   UNL     1       6.646  12.026   0.767  1.00  0.00     0.156 C 
HETATM   20  N   UNL     1       5.825  12.009   1.576  1.00  0.00    -0.376 N 
HETATM   21  N   UNL     1       6.891  10.855  -0.016  1.00  0.00    -0.274 NA
ATOM     22  HN2 UNL     1       5.650  12.844   2.135  1.00  0.00     0.158 HD
ATOM     23  HN1 UNL     1       5.261  11.161   1.632  1.00  0.00     0.158 HD
HETATM   24  H   UNL     1       6.184  10.148   0.188  1.00  0.00     0.127 HD
HETATM   25  H   UNL     1       7.807  10.552   0.102  1.00  0.00     0.127 HD
ATOM     26  HN  UNL     1       7.825  13.434  -0.222  1.00  0.00     0.179 HD
ENDBRANCH  17  18
ENDBRANCH  15  17
ENDBRANCH   3  15
TORSDOF 5
ENDMDL
MODEL 2
REMARK VINA RESULT:    -6.646      2.907      5.322
REMARK INTER + INTRA:          -8.282
REMARK INTER:                  -8.128
REMARK INTRA:                  -0.154
REMARK UNBOUND:                 0.113
REMARK  5 active torsions:
REMARK  status: ('A' for Active; 'I' for Inactive)
REMARK       I    between atoms: C_3  and  N_5 
REMARK       I    between atoms: C_3  and  N_8 
REMARK       I    between atoms: C_3  and  N_4 
REMARK    1  A    between atoms: N_8  and  C_11 
REMARK    2  A    between atoms: C_11  and  N_18 
REMARK    3  A    between atoms: C_14  and  N_15 
REMARK    4  A    between atoms: C_14  and  N_18 
REMARK       I    between atoms: N_19  and  C_26 
REMARK    5  A    between atoms: O_22  and  N_24 
REMARK       I    between atoms: N_24  and  C_26 
ROOT
HETATM    1  C   UNL     1       7.739  16.771   2.899  1.00  0.00     0.345 A 
HETATM    2  O   UNL     1       7.351  17.798   2.332  1.00  0.00    -0.254 OA
HETATM    3  C   UNL     1       8.799  16.936   2.143  1.00  0.00     0.338 A 
HETATM    4  O   UNL     1       7.202  16.047   3.773  1.00  0.00    -0.257 OA
ENDROOT
BRANCH   3   5
HETATM    5  N   UNL     1       9.439  15.877   1.586  1.00  0.00    -0.270 N 
HETATM    6  N   UNL     1      10.313  15.103   2.040  1.00  0.00    -0.250 N 
HETATM    7  C   UNL     1      10.556  14.654   3.238  1.00  0.00     0.358 C 
ATOM      8  HN  UNL     1      10.962  14.757   1.333  1.00  0.00     0.191 HD
HETATM    9  O   UNL     1       9.958  13.675   3.596  1.00  0.00    -0.243 OA
HETATM   10  N   UNL     1      11.416  15.121   4.218  1.00  0.00    -0.218 N 
HETATM   11  H   UNL     1      12.021  15.875   4.265  1.00  0.00     0.199 HD
ATOM     12  HN  UNL     1       9.157  15.674   0.627  1.00  0.00     0.186 HD
BRANCH  10  13
HETATM   13  O   UNL     1      11.386  14.276   5.323  1.00  0.00    -0.286 OA
HETATM   14  H   UNL     1      10.835  14.795   5.876  1.00  0.00     0.244 HD
ENDBRANCH  10  13
ENDBRANCH   3   5
BRANCH   3  15
HETATM   15  N   UNL     1       9.552  18.092   2.117  1.00  0.00    -0.277 N 
HETATM   16  C   UNL     1       9.614  19.036   0.947  1.00  0.00     0.166 C 
BRANCH  15  17
HETATM   17  C   UNL     1      10.257  18.449   3.053  1.00  0.00     0.056 C 
BRANCH  17  18
HETATM   18  N   UNL     1      10.950  18.558   3.991  1.00  0.00    -0.284 N 
HETATM   19  C   UNL     1      12.339  18.827   3.977  1.00  0.00     0.156 C 
HETATM   20  N   UNL     1      12.736  19.422   3.071  1.00  0.00    -0.376 N 
HETATM   21  N   UNL     1      13.258  18.320   4.947  1.00  0.00    -0.274 NA
ATOM     22  HN2 UNL     1      12.081  19.783   2.378  1.00  0.00     0.158 HD
ATOM     23  HN1 UNL     1      13.738  19.616   3.061  1.00  0.00     0.158 HD
HETATM   24  H   UNL     1      14.197  18.669   4.751  1.00  0.00     0.127 HD
HETATM   25  H   UNL     1      13.194  17.352   5.004  1.00  0.00     0.127 HD
ATOM     26  HN  UNL     1      10.511  18.449   4.905  1.00  0.00     0.179 HD
ENDBRANCH  17  18
ENDBRANCH  15  17
ENDBRANCH   3  15
TORSDOF 5
ENDMDL
MODEL 3
REMARK VINA RESULT:    -6.553      1.851      3.266
REMARK INTER + INTRA:          -8.165
REMARK INTER:                  -8.079
REMARK INTRA:                  -0.085
REMARK UNBOUND:                 0.113
REMARK  5 active torsions:
REMARK  status: ('A' for Active; 'I' for Inactive)
REMARK       I    between atoms: C_3  and  N_5 
REMARK       I    between atoms: C_3  and  N_8 
REMARK       I    between atoms: C_3  and  N_4 
REMARK    1  A    between atoms: N_8  and  C_11 
REMARK    2  A    between atoms: C_11  and  N_18 
REMARK    3  A    between atoms: C_14  and  N_15 
REMARK    4  A    between atoms: C_14  and  N_18 
REMARK       I    between atoms: N_19  and  C_26 
REMARK    5  A    between atoms: O_22  and  N_24 
REMARK       I    between atoms: N_24  and  C_26 
ROOT
HETATM    1  C   UNL     1      10.274  14.724   3.186  1.00  0.00     0.345 A 
HETATM    2  O   UNL     1       9.806  13.601   3.393  1.00  0.00    -0.254 OA
HETATM    3  C   UNL     1       9.325  14.788   2.282  1.00  0.00     0.338 A 
HETATM    4  O   UNL     1      11.236  15.338   3.712  1.00  0.00    -0.257 OA
ENDROOT
BRANCH   3   5
HETATM    5  N   UNL     1       9.534  15.387   1.083  1.00  0.00    -0.270 N 
HETATM    6  N   UNL     1       9.233  16.529   0.662  1.00  0.00    -0.250 N 
HETATM    7  C   UNL     1       9.124  17.685   1.250  1.00  0.00     0.358 C 
ATOM      8  HN  UNL     1       9.033  16.557  -0.338  1.00  0.00     0.191 HD
HETATM    9  O   UNL     1      10.123  18.341   1.372  1.00  0.00    -0.243 OA
HETATM   10  N   UNL     1       8.018  18.323   1.786  1.00  0.00    -0.218 N 
HETATM   11  H   UNL     1       7.086  18.078   1.867  1.00  0.00     0.199 HD
ATOM     12  HN  UNL     1      10.022  14.806   0.402  1.00  0.00     0.186 HD
BRANCH  10  13
HETATM   13  O   UNL     1       8.375  19.582   2.259  1.00  0.00    -0.286 OA
HETATM   14  H   UNL     1       7.866  20.099   1.666  1.00  0.00     0.244 HD
ENDBRANCH  10  13
ENDBRANCH   3   5
BRANCH   3  15
HETATM   15  N   UNL     1       7.989  14.587   2.557  1.00  0.00    -0.277 N 
HETATM   16  C   UNL     1       7.260  15.208   3.717  1.00  0.00     0.166 C 
BRANCH  15  17
HETATM   17  C   UNL     1       7.270  13.863   1.878  1.00  0.00     0.056 C 
BRANCH  17  18
HETATM   18  N   UNL     1       6.788  13.077   1.155  1.00  0.00    -0.284 N 
HETATM   19  C   UNL     1       6.967  11.675   1.207  1.00  0.00     0.156 C 
HETATM   20  N   UNL     1       7.200  11.226   2.245  1.00  0.00    -0.376 N 
HETATM   21  N   UNL     1       6.978  10.830   0.054  1.00  0.00    -0.274 NA
ATOM     22  HN2 UNL     1       7.193  11.828   3.068  1.00  0.00     0.158 HD
ATOM     23  HN1 UNL     1       7.329  10.215   2.282  1.00  0.00     0.158 HD
HETATM   24  H   UNL     1       7.092   9.857   0.339  1.00  0.00     0.127 HD
HETATM   25  H   UNL     1       7.638  11.140  -0.589  1.00  0.00     0.127 HD
ATOM     26  HN  UNL     1       6.182  13.438   0.418  1.00  0.00     0.179 HD
ENDBRANCH  17  18
ENDBRANCH  15  17
ENDBRANCH   3  15
TORSDOF 5
ENDMDL
MODEL 4
REMARK VINA RESULT:    -6.519      2.158      3.079
REMARK INTER + INTRA:          -8.122
REMARK INTER:                  -8.214
REMARK INTRA:                   0.092
REMARK UNBOUND:                 0.113
REMARK  5 active torsions:
REMARK  status: ('A' for Active; 'I' for Inactive)
REMARK       I    between atoms: C_3  and  N_5 
REMARK       I    between atoms: C_3  and  N_8 
REMARK       I    between atoms: C_3  and  N_4 
REMARK    1  A    between atoms: N_8  and  C_11 
REMARK    2  A    between atoms: C_11  and  N_18 
REMARK    3  A    between atoms: C_14  and  N_15 
REMARK    4  A    between atoms: C_14  and  N_18 
REMARK       I    between atoms: N_19  and  C_26 
REMARK    5  A    between atoms: O_22  and  N_24 
REMARK       I    between atoms: N_24  and  C_26 
ROOT
HETATM    1  C   UNL     1      10.121  14.571   3.718  1.00  0.00     0.345 A 
HETATM    2  O   UNL     1      10.735  14.615   2.648  1.00  0.00    -0.254 OA
HETATM    3  C   UNL     1       9.578  15.682   3.278  1.00  0.00     0.338 A 
HETATM    4  O   UNL     1      10.154  13.748   4.666  1.00  0.00    -0.257 OA
ENDROOT
BRANCH   3   5
HETATM    5  N   UNL     1       9.307  16.714   4.117  1.00  0.00    -0.270 N 
HETATM    6  N   UNL     1      10.046  17.594   4.616  1.00  0.00    -0.250 N 
HETATM    7  C   UNL     1      11.119  18.192   4.186  1.00  0.00     0.358 C 
ATOM      8  HN  UNL     1       9.749  17.901   5.542  1.00  0.00     0.191 HD
HETATM    9  O   UNL     1      10.973  19.160   3.490  1.00  0.00    -0.243 OA
HETATM   10  N   UNL     1      12.457  17.901   4.392  1.00  0.00    -0.218 N 
HETATM   11  H   UNL     1      12.916  17.201   4.877  1.00  0.00     0.199 HD
ATOM     12  HN  UNL     1       8.327  16.786   4.389  1.00  0.00     0.186 HD
BRANCH  10  13
HETATM   13  O   UNL     1      13.255  18.862   3.779  1.00  0.00    -0.286 OA
HETATM   14  H   UNL     1      14.012  18.779   4.326  1.00  0.00     0.244 HD
ENDBRANCH  10  13
ENDBRANCH   3   5
BRANCH   3  15
HETATM   15  N   UNL     1       8.934  15.793   2.064  1.00  0.00    -0.277 N 
HETATM   16  C   UNL     1       8.806  17.075   1.287  1.00  0.00     0.166 C 
BRANCH  15  17
HETATM   17  C   UNL     1       8.388  14.846   1.510  1.00  0.00     0.056 C 
BRANCH  17  18
HETATM   18  N   UNL     1       7.933  14.050   0.781  1.00  0.00    -0.284 N 
HETATM   19  C   UNL     1       7.027  13.021   1.129  1.00  0.00     0.156 C 
HETATM   20  N   UNL     1       6.338  13.227   2.030  1.00  0.00    -0.376 N 
HETATM   21  N   UNL     1       7.002  11.737   0.500  1.00  0.00    -0.274 NA
ATOM     22  HN2 UNL     1       6.356  14.143   2.479  1.00  0.00     0.158 HD
ATOM     23  HN1 UNL     1       5.685  12.485   2.281  1.00  0.00     0.158 HD
HETATM   24  H   UNL     1       6.248  11.173   0.894  1.00  0.00     0.127 HD
HETATM   25  H   UNL     1       7.879  11.320   0.543  1.00  0.00     0.127 HD
ATOM     26  HN  UNL     1       8.218  14.104  -0.197  1.00  0.00     0.179 HD
ENDBRANCH  17  18
ENDBRANCH  15  17
ENDBRANCH   3  15
TORSDOF 5
ENDMDL
MODEL 5
REMARK VINA RESULT:    -6.263     23.543     25.032
REMARK INTER + INTRA:          -7.798
REMARK INTER:                  -7.971
REMARK INTRA:                   0.173
REMARK UNBOUND:                 0.113
REMARK  5 active torsions:
REMARK  status: ('A' for Active; 'I' for Inactive)
REMARK       I    between atoms: C_3  and  N_5 
REMARK       I    between atoms: C_3  and  N_8 
REMARK       I    between atoms: C_3  and  N_4 
REMARK    1  A    between atoms: N_8  and  C_11 
REMARK    2  A    between atoms: C_11  and  N_18 
REMARK    3  A    between atoms: C_14  and  N_15 
REMARK    4  A    between atoms: C_14  and  N_18 
REMARK       I    between atoms: N_19  and  C_26 
REMARK    5  A    between atoms: O_22  and  N_24 
REMARK       I    between atoms: N_24  and  C_26 
ROOT
HETATM    1  C   UNL     1      10.395   1.022  22.157  1.00  0.00     0.345 A 
HETATM    2  O   UNL     1      10.816   2.020  21.565  1.00  0.00    -0.254 OA
HETATM    3  C   UNL     1      10.500   1.793  23.215  1.00  0.00     0.338 A 
HETATM    4  O   UNL     1      10.074  -0.120  21.746  1.00  0.00    -0.257 OA
ENDROOT
BRANCH   3   5
HETATM    5  N   UNL     1      10.923   1.299  24.406  1.00  0.00    -0.270 N 
HETATM    6  N   UNL     1      11.532   0.243  24.698  1.00  0.00    -0.250 N 
HETATM    7  C   UNL     1      12.412  -0.472  24.059  1.00  0.00     0.358 C 
ATOM      8  HN  UNL     1      11.289  -0.129  25.616  1.00  0.00     0.191 HD
HETATM    9  O   UNL     1      13.566  -0.155  24.162  1.00  0.00    -0.243 OA
HETATM   10  N   UNL     1      12.252  -1.581  23.244  1.00  0.00    -0.218 N 
HETATM   11  H   UNL     1      11.477  -2.078  22.945  1.00  0.00     0.199 HD
ATOM     12  HN  UNL     1      10.709   1.894  25.206  1.00  0.00     0.186 HD
BRANCH  10  13
HETATM   13  O   UNL     1      13.493  -2.051  22.827  1.00  0.00    -0.286 OA
HETATM   14  H   UNL     1      13.245  -2.353  21.975  1.00  0.00     0.244 HD
ENDBRANCH  10  13
ENDBRANCH   3   5
BRANCH   3  15
HETATM   15  N   UNL     1       9.896   3.027  23.329  1.00  0.00    -0.277 N 
HETATM   16  C   UNL     1       8.438   3.285  23.059  1.00  0.00     0.166 C 
BRANCH  15  17
HETATM   17  C   UNL     1      10.505   4.040  23.651  1.00  0.00     0.056 C 
BRANCH  17  18
HETATM   18  N   UNL     1      10.892   5.121  23.885  1.00  0.00    -0.284 N 
HETATM   19  C   UNL     1      12.232   5.489  24.150  1.00  0.00     0.156 C 
HETATM   20  N   UNL     1      13.049   4.829  23.671  1.00  0.00    -0.376 N 
HETATM   21  N   UNL     1      12.607   6.542  25.040  1.00  0.00    -0.274 NA
ATOM     22  HN2 UNL     1      12.781   4.077  23.036  1.00  0.00     0.158 HD
ATOM     23  HN1 UNL     1      14.015   5.095  23.861  1.00  0.00     0.158 HD
HETATM   24  H   UNL     1      13.623   6.643  25.049  1.00  0.00     0.127 HD
HETATM   25  H   UNL     1      12.211   6.404  25.917  1.00  0.00     0.127 HD
ATOM     26  HN  UNL     1      10.197   5.867  23.900  1.00  0.00     0.179 HD
ENDBRANCH  17  18
ENDBRANCH  15  17
ENDBRANCH   3  15
TORSDOF 5
ENDMDL
MODEL 6
REMARK VINA RESULT:    -6.134      3.279      4.288
REMARK INTER + INTRA:          -7.634
REMARK INTER:                  -7.751
REMARK INTRA:                   0.117
REMARK UNBOUND:                 0.113
REMARK  5 active torsions:
REMARK  status: ('A' for Active; 'I' for Inactive)
REMARK       I    between atoms: C_3  and  N_5 
REMARK       I    between atoms: C_3  and  N_8 
REMARK       I    between atoms: C_3  and  N_4 
REMARK    1  A    between atoms: N_8  and  C_11 
REMARK    2  A    between atoms: C_11  and  N_18 
REMARK    3  A    between atoms: C_14  and  N_15 
REMARK    4  A    between atoms: C_14  and  N_18 
REMARK       I    between atoms: N_19  and  C_26 
REMARK    5  A    between atoms: O_22  and  N_24 
REMARK       I    between atoms: N_24  and  C_26 
ROOT
HETATM    1  C   UNL     1       6.947  13.011   1.925  1.00  0.00     0.345 A 
HETATM    2  O   UNL     1       6.033  13.572   2.536  1.00  0.00    -0.254 OA
HETATM    3  C   UNL     1       7.482  12.913   3.120  1.00  0.00     0.338 A 
HETATM    4  O   UNL     1       7.103  12.755   0.705  1.00  0.00    -0.257 OA
ENDROOT
BRANCH   3   5
HETATM    5  N   UNL     1       8.817  13.066   3.309  1.00  0.00    -0.270 N 
HETATM    6  N   UNL     1       9.661  13.781   2.722  1.00  0.00    -0.250 N 
HETATM    7  C   UNL     1       9.583  14.948   2.149  1.00  0.00     0.358 C 
ATOM      8  HN  UNL     1      10.593  13.369   2.686  1.00  0.00     0.191 HD
HETATM    9  O   UNL     1       9.714  15.918   2.845  1.00  0.00    -0.243 OA
HETATM   10  N   UNL     1       9.363  15.287   0.824  1.00  0.00    -0.218 N 
HETATM   11  H   UNL     1       9.208  14.768   0.024  1.00  0.00     0.199 HD
ATOM     12  HN  UNL     1       9.201  12.497   4.063  1.00  0.00     0.186 HD
BRANCH  10  13
HETATM   13  O   UNL     1       9.423  16.669   0.669  1.00  0.00    -0.286 OA
HETATM   14  H   UNL     1       9.723  16.693  -0.218  1.00  0.00     0.244 HD
ENDBRANCH  10  13
ENDBRANCH   3   5
BRANCH   3  15
HETATM   15  N   UNL     1       6.850  12.329   4.198  1.00  0.00    -0.277 N 
HETATM   16  C   UNL     1       6.310  13.091   5.378  1.00  0.00     0.166 C 
BRANCH  15  17
HETATM   17  C   UNL     1       6.684  11.119   4.298  1.00  0.00     0.056 C 
BRANCH  17  18
HETATM   18  N   UNL     1       6.594   9.958   4.167  1.00  0.00    -0.284 N 
HETATM   19  C   UNL     1       5.959   9.064   5.061  1.00  0.00     0.156 C 
HETATM   20  N   UNL     1       5.099   9.498   5.695  1.00  0.00    -0.376 N 
HETATM   21  N   UNL     1       6.392   7.720   5.282  1.00  0.00    -0.274 NA
ATOM     22  HN2 UNL     1       4.790  10.457   5.537  1.00  0.00     0.158 HD
ATOM     23  HN1 UNL     1       4.641   8.853   6.339  1.00  0.00     0.158 HD
HETATM   24  H   UNL     1       5.766   7.259   5.944  1.00  0.00     0.127 HD
HETATM   25  H   UNL     1       7.330   7.702   5.539  1.00  0.00     0.127 HD
ATOM     26  HN  UNL     1       7.013   9.554   3.329  1.00  0.00     0.179 HD
ENDBRANCH  17  18
ENDBRANCH  15  17
ENDBRANCH   3  15
TORSDOF 5
ENDMDL
MODEL 7
REMARK VINA RESULT:    -6.117     23.497     24.864
REMARK INTER + INTRA:          -7.614
REMARK INTER:                  -7.331
REMARK INTRA:                  -0.283
REMARK UNBOUND:                 0.113
REMARK  5 active torsions:
REMARK  status: ('A' for Active; 'I' for Inactive)
REMARK       I    between atoms: C_3  and  N_5 
REMARK       I    between atoms: C_3  and  N_8 
REMARK       I    between atoms: C_3  and  N_4 
REMARK    1  A    between atoms: N_8  and  C_11 
REMARK    2  A    between atoms: C_11  and  N_18 
REMARK    3  A    between atoms: C_14  and  N_15 
REMARK    4  A    between atoms: C_14  and  N_18 
REMARK       I    between atoms: N_19  and  C_26 
REMARK    5  A    between atoms: O_22  and  N_24 
REMARK       I    between atoms: N_24  and  C_26 
ROOT
HETATM    1  C   UNL     1       8.199  -2.351  22.770  1.00  0.00     0.345 A 
HETATM    2  O   UNL     1       7.058  -2.272  22.305  1.00  0.00    -0.254 OA
HETATM    3  C   UNL     1       8.434  -1.344  21.962  1.00  0.00     0.338 A 
HETATM    4  O   UNL     1       8.701  -3.124  23.623  1.00  0.00    -0.257 OA
ENDROOT
BRANCH   3   5
HETATM    5  N   UNL     1       9.609  -1.241  21.290  1.00  0.00    -0.270 N 
HETATM    6  N   UNL     1      10.712  -0.744  21.618  1.00  0.00    -0.250 N 
HETATM    7  C   UNL     1      11.326  -0.640  22.762  1.00  0.00     0.358 C 
ATOM      8  HN  UNL     1      11.229  -0.343  20.837  1.00  0.00     0.191 HD
HETATM    9  O   UNL     1      11.999  -1.569  23.117  1.00  0.00    -0.243 OA
HETATM   10  N   UNL     1      11.344   0.394  23.684  1.00  0.00    -0.218 N 
HETATM   11  H   UNL     1      10.914   1.259  23.718  1.00  0.00     0.199 HD
ATOM     12  HN  UNL     1       9.592  -1.638  20.351  1.00  0.00     0.186 HD
BRANCH  10  13
HETATM   13  O   UNL     1      12.197   0.079  24.738  1.00  0.00    -0.286 OA
HETATM   14  H   UNL     1      11.552  -0.006  25.413  1.00  0.00     0.244 HD
ENDBRANCH  10  13
ENDBRANCH   3   5
BRANCH   3  15
HETATM   15  N   UNL     1       7.715  -0.168  21.971  1.00  0.00    -0.277 N 
HETATM   16  C   UNL     1       7.668   0.787  23.132  1.00  0.00     0.166 C 
BRANCH  15  17
HETATM   17  C   UNL     1       7.030   0.202  21.024  1.00  0.00     0.056 C 
BRANCH  17  18
HETATM   18  N   UNL     1       6.505   0.401  19.996  1.00  0.00    -0.284 N 
HETATM   19  C   UNL     1       5.798  -0.550  19.222  1.00  0.00     0.156 C 
HETATM   20  N   UNL     1       5.306  -1.418  19.801  1.00  0.00    -0.376 N 
HETATM   21  N   UNL     1       5.758  -0.540  17.793  1.00  0.00    -0.274 NA
ATOM     22  HN2 UNL     1       5.335  -1.425  20.820  1.00  0.00     0.158 HD
ATOM     23  HN1 UNL     1       4.797  -2.103  19.243  1.00  0.00     0.158 HD
HETATM   24  H   UNL     1       5.165  -1.301  17.459  1.00  0.00     0.127 HD
HETATM   25  H   UNL     1       6.659  -0.544  17.427  1.00  0.00     0.127 HD
ATOM     26  HN  UNL     1       6.563   1.349  19.624  1.00  0.00     0.179 HD
ENDBRANCH  17  18
ENDBRANCH  15  17
ENDBRANCH   3  15
TORSDOF 5
ENDMDL
MODEL 8
REMARK VINA RESULT:    -5.902     24.724     25.889
REMARK INTER + INTRA:          -7.342
REMARK INTER:                  -6.389
REMARK INTRA:                  -0.953
REMARK UNBOUND:                 0.113
REMARK  5 active torsions:
REMARK  status: ('A' for Active; 'I' for Inactive)
REMARK       I    between atoms: C_3  and  N_5 
REMARK       I    between atoms: C_3  and  N_8 
REMARK       I    between atoms: C_3  and  N_4 
REMARK    1  A    between atoms: N_8  and  C_11 
REMARK    2  A    between atoms: C_11  and  N_18 
REMARK    3  A    between atoms: C_14  and  N_15 
REMARK    4  A    between atoms: C_14  and  N_18 
REMARK       I    between atoms: N_19  and  C_26 
REMARK    5  A    between atoms: O_22  and  N_24 
REMARK       I    between atoms: N_24  and  C_26 
ROOT
HETATM    1  C   UNL     1      11.988   0.241  24.418  1.00  0.00     0.345 A 
HETATM    2  O   UNL     1      11.019   0.312  25.180  1.00  0.00    -0.254 OA
HETATM    3  C   UNL     1      11.101   0.561  23.505  1.00  0.00     0.338 A 
HETATM    4  O   UNL     1      13.195  -0.034  24.627  1.00  0.00    -0.257 OA
ENDROOT
BRANCH   3   5
HETATM    5  N   UNL     1      11.138   0.012  22.265  1.00  0.00    -0.270 N 
HETATM    6  N   UNL     1      10.609  -1.024  21.800  1.00  0.00    -0.250 N 
HETATM    7  C   UNL     1       9.494  -1.641  22.068  1.00  0.00     0.358 C 
ATOM      8  HN  UNL     1      11.159  -1.472  21.068  1.00  0.00     0.191 HD
HETATM    9  O   UNL     1       8.502  -1.264  21.505  1.00  0.00    -0.243 OA
HETATM   10  N   UNL     1       9.232  -2.698  22.924  1.00  0.00    -0.218 N 
HETATM   11  H   UNL     1       9.785  -3.217  23.524  1.00  0.00     0.199 HD
ATOM     12  HN  UNL     1      11.696   0.536  21.591  1.00  0.00     0.186 HD
BRANCH  10  13
HETATM   13  O   UNL     1       7.893  -3.064  22.836  1.00  0.00    -0.286 OA
HETATM   14  H   UNL     1       7.512  -2.261  23.134  1.00  0.00     0.244 HD
ENDBRANCH  10  13
ENDBRANCH   3   5
BRANCH   3  15
HETATM   15  N   UNL     1      10.298   1.680  23.573  1.00  0.00    -0.277 N 
HETATM   16  C   UNL     1      10.815   3.090  23.659  1.00  0.00     0.166 C 
BRANCH  15  17
HETATM   17  C   UNL     1       9.074   1.623  23.585  1.00  0.00     0.056 C 
BRANCH  17  18
HETATM   18  N   UNL     1       7.938   1.339  23.545  1.00  0.00    -0.284 N 
HETATM   19  C   UNL     1       7.329   0.239  24.193  1.00  0.00     0.156 C 
HETATM   20  N   UNL     1       7.835  -0.129  25.163  1.00  0.00    -0.376 N 
HETATM   21  N   UNL     1       6.214  -0.480  23.662  1.00  0.00    -0.274 NA
ATOM     22  HN2 UNL     1       8.630   0.384  25.542  1.00  0.00     0.158 HD
ATOM     23  HN1 UNL     1       7.395  -0.921  25.630  1.00  0.00     0.158 HD
HETATM   24  H   UNL     1       5.929  -1.211  24.316  1.00  0.00     0.127 HD
HETATM   25  H   UNL     1       6.411  -0.800  22.765  1.00  0.00     0.127 HD
ATOM     26  HN  UNL     1       7.331   1.942  22.989  1.00  0.00     0.179 HD
ENDBRANCH  17  18
ENDBRANCH  15  17
ENDBRANCH   3  15
TORSDOF 5
ENDMDL
MODEL 9
REMARK VINA RESULT:    -5.900     23.300     24.790
REMARK INTER + INTRA:          -7.339
REMARK INTER:                  -6.620
REMARK INTRA:                  -0.719
REMARK UNBOUND:                 0.113
REMARK  5 active torsions:
REMARK  status: ('A' for Active; 'I' for Inactive)
REMARK       I    between atoms: C_3  and  N_5 
REMARK       I    between atoms: C_3  and  N_8 
REMARK       I    between atoms: C_3  and  N_4 
REMARK    1  A    between atoms: N_8  and  C_11 
REMARK    2  A    between atoms: C_11  and  N_18 
REMARK    3  A    between atoms: C_14  and  N_15 
REMARK    4  A    between atoms: C_14  and  N_18 
REMARK       I    between atoms: N_19  and  C_26 
REMARK    5  A    between atoms: O_22  and  N_24 
REMARK       I    between atoms: N_24  and  C_26 
ROOT
HETATM    1  C   UNL     1       7.062   0.099  19.281  1.00  0.00     0.345 A 
HETATM    2  O   UNL     1       8.245   0.264  19.591  1.00  0.00    -0.254 OA
HETATM    3  C   UNL     1       6.888   0.030  20.580  1.00  0.00     0.338 A 
HETATM    4  O   UNL     1       6.492   0.047  18.163  1.00  0.00    -0.257 OA
ENDROOT
BRANCH   3   5
HETATM    5  N   UNL     1       6.005  -0.843  21.127  1.00  0.00    -0.270 N 
HETATM    6  N   UNL     1       6.177  -1.928  21.730  1.00  0.00    -0.250 N 
HETATM    7  C   UNL     1       7.129  -2.366  22.502  1.00  0.00     0.358 C 
ATOM      8  HN  UNL     1       5.423  -2.600  21.587  1.00  0.00     0.191 HD
HETATM    9  O   UNL     1       7.066  -2.093  23.670  1.00  0.00    -0.243 OA
HETATM   10  N   UNL     1       8.251  -3.123  22.209  1.00  0.00    -0.218 N 
HETATM   11  H   UNL     1       8.605  -3.492  21.388  1.00  0.00     0.199 HD
ATOM     12  HN  UNL     1       5.028  -0.568  21.030  1.00  0.00     0.186 HD
BRANCH  10  13
HETATM   13  O   UNL     1       8.957  -3.404  23.375  1.00  0.00    -0.286 OA
HETATM   14  H   UNL     1       9.714  -3.795  22.984  1.00  0.00     0.244 HD
ENDBRANCH  10  13
ENDBRANCH   3   5
BRANCH   3  15
HETATM   15  N   UNL     1       7.287   1.012  21.461  1.00  0.00    -0.277 N 
HETATM   16  C   UNL     1       6.611   2.349  21.603  1.00  0.00     0.166 C 
BRANCH  15  17
HETATM   17  C   UNL     1       8.251   0.887  22.207  1.00  0.00     0.056 C 
BRANCH  17  18
HETATM   18  N   UNL     1       9.138   0.535  22.888  1.00  0.00    -0.284 N 
HETATM   19  C   UNL     1      10.210  -0.300  22.496  1.00  0.00     0.156 C 
HETATM   20  N   UNL     1      10.505  -0.267  21.382  1.00  0.00    -0.376 N 
HETATM   21  N   UNL     1      10.853  -1.231  23.370  1.00  0.00    -0.274 NA
ATOM     22  HN2 UNL     1      10.047   0.397  20.758  1.00  0.00     0.158 HD
ATOM     23  HN1 UNL     1      11.279  -0.869  21.100  1.00  0.00     0.158 HD
HETATM   24  H   UNL     1      11.615  -1.699  22.877  1.00  0.00     0.127 HD
HETATM   25  H   UNL     1      10.201  -1.834  23.765  1.00  0.00     0.127 HD
ATOM     26  HN  UNL     1       9.135   0.862  23.854  1.00  0.00     0.179 HD
ENDBRANCH  17  18
ENDBRANCH  15  17
ENDBRANCH   3  15
TORSDOF 5
ENDMDL
