stable:False satoms:20 tatoms:24 sratio:0.8333333333333334
  -OEChem-07092417333D

 24 24  0     1  0  0  0  0  0999 V2000
    6.8551    0.5771   22.6957 O   0  0  0  0  0  0  0  0  0  0  0  0
    9.9187   -1.1791   23.1268 C   0  0  0  0  0  0  0  0  0  0  0  0
    9.1491   -4.4196   22.6912 H   0  0  0  0  0  0  0  0  0  0  0  0
   10.1486    1.0241   23.7682 O   0  0  0  0  0  0  0  0  0  0  0  0
    8.1734    0.3450   22.8537 N   0  0  0  0  0  0  0  0  0  0  0  0
    7.4538   -1.6389   22.2984 C   0  0  2  0  0  0  0  0  0  0  0  0
    6.7854   -3.6194   22.9834 C   0  3  0  0  0  0  0  0  0  0  0  0
    9.6923   -3.1290   21.5951 H   0  0  0  0  0  0  0  0  0  0  0  0
   10.1465    2.9587   23.1123 H   0  0  0  0  0  0  0  0  0  0  0  0
   11.7610   -0.2237   23.7081 H   0  0  0  0  0  0  0  0  0  0  0  0
    8.8509   -3.7221   21.8949 C   0  0  0  0  0  0  0  0  0  0  0  0
   11.6988    2.0687   22.8515 H   0  0  0  0  0  0  0  0  0  0  0  0
   10.3763   -2.1437   23.0374 H   0  0  0  0  0  0  0  0  0  0  0  0
   10.7015   -0.1340   23.5091 C   0  0  0  0  0  0  0  0  0  0  0  0
    6.9410   -3.7763   24.0313 H   0  0  0  0  0  0  0  0  0  0  0  0
   10.6031    2.0340   22.8159 C   0  0  0  0  0  0  0  0  0  0  0  0
    6.5508   -1.4150   22.8952 H   0  0  0  0  0  0  0  0  0  0  0  0
    7.7189   -2.9816   22.3353 N   0  3  3  0  0  0  0  0  0  0  0  0
   10.0848    1.6712   21.1402 Cl  0  0  0  0  0  0  0  0  0  0  0  0
    6.9910   -1.1768   20.5116 S   0  0  0  0  0  0  0  0  0  0  0  0
    6.0565    0.4914   21.2314 S   0  0  0  0  0  0  0  0  0  0  0  0
    8.4698   -4.2523   21.0082 H   0  0  0  0  0  0  0  0  0  0  0  0
    5.8944   -3.8427   22.4430 H   0  0  0  0  0  0  0  0  0  0  0  0
    8.5627   -0.8062   22.7590 C   0  0  0  0  0  0  0  0  0  0  0  0
 20 21  1  0  0  0  0
  6 20  1  0  0  0  0
 11 22  1  0  0  0  0
 16 19  1  0  0  0  0
  1 21  1  0  0  0  0
  8 11  1  0  0  0  0
 11 18  1  0  0  0  0
  3 11  1  0  0  0  0
  6 18  1  0  0  0  0
  6 24  1  0  0  0  0
  6 17  1  0  0  0  0
  7 18  1  0  0  0  0
  7 23  1  0  0  0  0
  1  5  1  0  0  0  0
  5 24  2  0  0  0  0
  2 24  1  0  0  0  0
 12 16  1  0  0  0  0
  9 16  1  0  0  0  0
  4 16  1  0  0  0  0
  7 15  1  0  0  0  0
  2 13  1  0  0  0  0
  2 14  2  0  0  0  0
 10 14  1  0  0  0  0
  4 14  1  0  0  0  0
M  CHG  2   7   1  18   1
M  END
> <Shapegauss>
-125.924713

$$$$
