stable:False satoms:20 tatoms:24 sratio:0.8333333333333334
  -OEChem-08052421013D

 24 24  0     1  0  0  0  0  0999 V2000
   -9.1962   -1.9390  -25.8137 O   0  0  0  0  0  0  0  0  0  0  0  0
   -9.9859   -1.4225  -22.3836 C   0  0  0  0  0  0  0  0  0  0  0  0
   -7.1988   -2.2485  -20.7006 H   0  0  0  0  0  0  0  0  0  0  0  0
  -11.8858   -1.2863  -23.6836 O   0  0  0  0  0  0  0  0  0  0  0  0
   -9.8675   -1.5543  -24.7101 N   0  0  0  0  0  0  0  0  0  0  0  0
   -7.8776   -1.9222  -23.8933 C   0  0  2  0  0  0  0  0  0  0  0  0
   -6.5333   -3.3298  -22.8687 C   0  0  0  0  0  2  0  0  0  0  0  0
   -7.8138   -0.7268  -21.3848 H   0  0  0  0  0  0  0  0  0  0  0  0
  -12.8348   -0.2117  -25.1388 H   0  0  0  0  0  0  0  0  0  0  0  0
  -11.9460   -0.8543  -21.6911 H   0  0  0  0  0  0  0  0  0  0  0  0
   -7.0953   -1.5125  -21.5112 C   0  0  0  0  0  0  0  0  0  0  0  0
  -12.9975    0.4608  -23.4681 H   0  0  0  0  0  0  0  0  0  0  0  0
   -9.5647   -1.3998  -21.3988 H   0  0  0  0  0  0  0  0  0  0  0  0
  -11.3070   -1.1275  -22.5201 C   0  0  0  0  0  0  0  0  0  0  0  0
   -6.5333   -3.3298  -22.8687 H   0  0  0  0  0  0  0  0  0  0  0  0
  -12.3369   -0.0014  -24.2118 C   0  0  0  0  0  0  0  0  0  0  0  0
   -7.8098   -2.7729  -24.5957 H   0  0  0  0  0  0  0  0  0  0  0  0
   -7.1609   -2.1931  -22.7586 N   0  3  3  0  0  0  0  0  0  0  0  0
  -10.9745    1.1100  -24.5533 Cl  0  0  0  0  0  0  0  0  0  0  0  0
   -7.0352   -0.4721  -24.7922 S   0  0  0  0  0  0  0  0  0  0  0  0
   -7.9625   -1.0590  -26.5157 S   0  0  0  0  0  0  0  0  0  0  0  0
   -6.0910   -1.0612  -21.5283 H   0  0  0  0  0  0  0  0  0  0  0  0
   -9.2821   -1.6067  -23.6422 C   0  0  0  0  0  0  0  0  0  0  0  0
   -6.3695   -1.6895  -23.1052 H   0  0  0  0  0  0  0  0  0  0  0  0
 20 21  1  0  0  0  0
  6 20  1  0  0  0  0
 11 22  1  0  0  0  0
 16 19  1  0  0  0  0
  1 21  1  0  0  0  0
  8 11  1  0  0  0  0
 11 18  1  0  0  0  0
  3 11  1  0  0  0  0
  6 18  1  0  0  0  0
  6 23  1  0  0  0  0
  6 17  1  0  0  0  0
  7 18  1  0  0  0  0
  1  5  1  0  0  0  0
  5 23  2  0  0  0  0
  2 23  1  0  0  0  0
 12 16  1  0  0  0  0
  9 16  1  0  0  0  0
  4 16  1  0  0  0  0
  7 15  1  0  0  0  0
  2 13  1  0  0  0  0
  2 14  2  0  0  0  0
 10 14  1  0  0  0  0
  4 14  1  0  0  0  0
 18 24  1  0  0  0  0
M  CHG  1  18   1
M  END
> <Chemgauss4>
-5.284762

$$$$
