stable:False satoms:20 tatoms:24 sratio:0.8333333333333334
  -OEChem-08052421013D

 24 24  0     1  0  0  0  0  0999 V2000
    6.3036   -4.5982   23.3911 O   0  0  0  0  0  0  0  0  0  0  0  0
    8.5544   -4.1477   26.1090 C   0  0  0  0  0  0  0  0  0  0  0  0
   10.7188   -1.7925   25.0835 H   0  0  0  0  0  0  0  0  0  0  0  0
    7.2234   -5.9988   26.4554 O   0  0  0  0  0  0  0  0  0  0  0  0
    6.8413   -4.6964   24.6232 N   0  0  0  0  0  0  0  0  0  0  0  0
    7.9505   -3.0038   23.8068 C   0  0  2  0  0  0  0  0  0  0  0  0
    9.7819   -2.3045   22.8091 C   0  0  0  0  0  2  0  0  0  0  0  0
    9.1724   -1.7403   25.9600 H   0  0  0  0  0  0  0  0  0  0  0  0
    5.3115   -6.6369   26.7879 H   0  0  0  0  0  0  0  0  0  0  0  0
    8.4990   -5.3393   27.9039 H   0  0  0  0  0  0  0  0  0  0  0  0
    9.6477   -1.5519   25.0175 C   0  0  0  0  0  0  0  0  0  0  0  0
    6.1760   -6.0272   28.2545 H   0  0  0  0  0  0  0  0  0  0  0  0
    9.3587   -3.5369   26.4666 H   0  0  0  0  0  0  0  0  0  0  0  0
    8.1022   -5.1450   26.9165 C   0  0  0  0  0  0  0  0  0  0  0  0
    9.7819   -2.3045   22.8091 H   0  0  0  0  0  0  0  0  0  0  0  0
    5.9647   -5.8852   27.1876 C   0  0  0  0  0  0  0  0  0  0  0  0
    7.9370   -3.5364   22.8383 H   0  0  0  0  0  0  0  0  0  0  0  0
    9.0889   -2.2504   23.9114 N   0  3  3  0  0  0  0  0  0  0  0  0
    5.1835   -4.2903   26.9546 Cl  0  0  0  0  0  0  0  0  0  0  0  0
    6.4625   -1.8199   23.7391 S   0  0  0  0  0  0  0  0  0  0  0  0
    5.3688   -3.3139   22.8754 S   0  0  0  0  0  0  0  0  0  0  0  0
    9.4811   -0.4960   24.7528 H   0  0  0  0  0  0  0  0  0  0  0  0
    7.7768   -3.9637   24.8947 C   0  0  0  0  0  0  0  0  0  0  0  0
    8.6075   -1.4302   23.6026 H   0  0  0  0  0  0  0  0  0  0  0  0
 20 21  1  0  0  0  0
  6 20  1  0  0  0  0
 11 22  1  0  0  0  0
 16 19  1  0  0  0  0
  1 21  1  0  0  0  0
  8 11  1  0  0  0  0
 11 18  1  0  0  0  0
  3 11  1  0  0  0  0
  6 18  1  0  0  0  0
  6 23  1  0  0  0  0
  6 17  1  0  0  0  0
  7 18  1  0  0  0  0
  1  5  1  0  0  0  0
  5 23  2  0  0  0  0
  2 23  1  0  0  0  0
 12 16  1  0  0  0  0
  9 16  1  0  0  0  0
  4 16  1  0  0  0  0
  7 15  1  0  0  0  0
  2 13  1  0  0  0  0
  2 14  2  0  0  0  0
 10 14  1  0  0  0  0
  4 14  1  0  0  0  0
 18 24  1  0  0  0  0
M  CHG  1  18   1
M  END
> <Chemgauss4>
-5.424935

$$$$
