stable:False satoms:9 tatoms:24 sratio:0.375
  -OEChem-08062410443D

 33 35  0     1  0  0  0  0  0999 V2000
   -5.7965   -4.3314  -26.5099 Cl  0  0  0  0  0  0  0  0  0  0  0  0
   -7.6083   -3.8352  -26.3501 S   0  0  0  0  0  0  0  0  0  0  0  0
   -8.3301   -5.0643  -26.3670 O   0  0  0  0  0  0  0  0  0  0  0  0
   -7.9173   -2.9416  -27.4059 O   0  0  0  0  0  0  0  0  0  0  0  0
   -7.8097   -3.0892  -24.8873 N   0  0  0  0  0  0  0  0  0  0  0  0
   -8.6343   -2.4142  -24.4274 C   0  0  0  0  0  0  0  0  0  0  0  0
   -9.2946   -1.5390  -23.7206 C   0  0  0  0  0  0  0  0  0  0  0  0
  -10.6532   -0.8771  -23.5633 C   0  0  1  0  0  0  0  0  0  0  0  0
  -11.0036    0.0867  -24.5373 C   0  0  0  0  0  0  0  0  0  0  0  0
  -12.1392    0.1355  -24.4635 C   0  0  0  0  0  0  0  0  0  0  0  0
  -13.1206   -0.3304  -24.0223 N   0  0  0  0  0  0  0  0  0  0  0  0
  -12.8226   -1.2534  -23.2524 N   0  0  0  0  0  0  0  0  0  0  0  0
  -11.7096   -1.6783  -23.0589 N   0  0  0  0  0  0  0  0  0  0  0  0
   -9.6092   -0.6463  -22.8152 C   0  0  3  0  0  0  0  0  0  0  0  0
   -9.1859    0.2025  -21.5487 C   0  0  0  0  0  0  0  0  0  0  0  0
   -9.8738    1.0985  -21.2054 O   0  0  0  0  0  0  0  0  0  0  0  0
   -8.0838   -0.2846  -21.0461 N   0  0  0  0  0  0  0  0  0  0  0  0
   -7.3981    0.1957  -20.0381 C   0  0  0  0  0  0  0  0  0  0  0  0
   -7.7513    0.0355  -18.7306 N   0  0  0  0  0  0  0  0  0  0  0  0
   -7.2642    0.5029  -17.6963 N   0  0  0  0  0  0  0  0  0  0  0  0
   -6.3023    1.1242  -18.0212 C   0  0  0  0  0  0  0  0  0  0  0  0
   -5.8108    1.2977  -19.1038 C   0  0  0  0  0  0  0  0  0  0  0  0
   -6.1653    0.9119  -20.2619 C   0  0  0  0  0  0  0  0  0  0  0  0
   -5.4272    1.1714  -21.7096 Cl  0  0  0  0  0  0  0  0  0  0  0  0
   -6.9883   -2.5242  -24.8091 H   0  0  0  0  0  0  0  0  0  0  0  0
   -9.4627   -2.7765  -25.0180 H   0  0  0  0  0  0  0  0  0  0  0  0
  -10.3508    0.6429  -25.1938 H   0  0  0  0  0  0  0  0  0  0  0  0
  -12.4463    0.9809  -25.0614 H   0  0  0  0  0  0  0  0  0  0  0  0
  -11.5433   -2.5377  -22.5753 H   0  0  0  0  0  0  0  0  0  0  0  0
   -9.2903    0.1672  -23.4834 H   0  0  0  0  0  0  0  0  0  0  0  0
   -7.7246   -1.1127  -21.4764 H   0  0  0  0  0  0  0  0  0  0  0  0
   -5.7859    1.6131  -17.2084 H   0  0  0  0  0  0  0  0  0  0  0  0
   -4.9058    1.8869  -19.0905 H   0  0  0  0  0  0  0  0  0  0  0  0
 20 21  2  0  0  0  0
 19 20  1  0  0  0  0
 21 22  1  0  0  0  0
 18 19  2  0  0  0  0
 22 23  2  0  0  0  0
 18 23  1  0  0  0  0
 17 18  1  0  0  0  0
 23 24  1  0  0  0  0
 15 17  1  0  0  0  0
 15 16  2  0  0  0  0
 14 15  1  0  0  0  0
 12 13  1  0  0  0  0
  8 13  1  0  0  0  0
  8 14  1  0  0  0  0
  7 14  1  0  0  0  0
 11 12  2  0  0  0  0
  7  8  1  0  0  0  0
  8  9  1  0  0  0  0
  6  7  2  0  0  0  0
 10 11  1  0  0  0  0
  9 10  2  0  0  0  0
  5  6  1  0  0  0  0
  2  5  1  0  0  0  0
  2  3  2  0  0  0  0
  1  2  1  0  0  0  0
  2  4  2  0  0  0  0
  5 25  1  0  0  0  0
  6 26  1  0  0  0  0
  9 27  1  0  0  0  0
 10 28  1  0  0  0  0
 13 29  1  0  0  0  0
 14 30  1  0  0  0  0
 17 31  1  0  0  0  0
 21 32  1  0  0  0  0
 22 33  1  0  0  0  0
M  END
> <Chemgauss4>
-11.551025

$$$$
