MODEL 1
REMARK VINA RESULT:    -6.135      0.000      0.000
REMARK INTER + INTRA:          -7.017
REMARK INTER:                  -6.852
REMARK INTRA:                  -0.165
REMARK UNBOUND:                -0.165
REMARK  2 active torsions:
REMARK  status: ('A' for Active; 'I' for Inactive)
REMARK    1  A    between atoms: C_8  and  C_9 
REMARK       I    between atoms: C_9  and  N_11 
REMARK    2  A    between atoms: N_11  and  C_12 
ROOT
HETATM    1  C   UNL     1       0.708  -5.107  -6.820  1.00  0.00     0.231 C 
HETATM    2  O   UNL     1       1.845  -4.826  -6.418  1.00  0.00    -0.272 OA
HETATM    3  N   UNL     1      -0.411  -4.985  -6.024  1.00  0.00    -0.325 N 
HETATM    4  H   UNL     1      -1.180  -5.617  -6.217  1.00  0.00     0.169 HD
ENDROOT
BRANCH   1   5
HETATM    5  C   UNL     1       0.484  -5.579  -8.266  1.00  0.00     0.116 C 
HETATM    6  C   UNL     1       1.208  -6.853  -8.626  1.00  0.00    -0.010 A 
HETATM    7  C   UNL     1       2.461  -6.796  -9.244  1.00  0.00     0.075 A 
HETATM    8  C   UNL     1       0.648  -8.107  -8.321  1.00  0.00     0.029 A 
HETATM    9  C   UNL     1       3.164  -7.970  -9.516  1.00  0.00     0.039 A 
HETATM   10  O   UNL     1       3.057  -5.641  -9.664  1.00  0.00    -0.351 OA
HETATM   11  C   UNL     1       2.622  -9.209  -9.179  1.00  0.00     0.022 A 
HETATM   12  C   UNL     1       1.362  -9.274  -8.592  1.00  0.00     0.011 A 
HETATM   13 BR   UNL     1       0.617 -10.952  -8.148  1.00  0.00    -0.051 Br
HETATM   14  C   UNL     1       2.444  -4.416  -9.255  1.00  0.00     0.176 C 
HETATM   15  C   UNL     1       0.921  -4.484  -9.244  1.00  0.00     0.045 C 
ENDBRANCH   1   5
BRANCH   3  16
HETATM   16  C   UNL     1      -0.324  -4.494  -4.701  1.00  0.00     0.061 A 
HETATM   17  C   UNL     1       0.159  -5.322  -3.685  1.00  0.00     0.118 A 
HETATM   18  N   UNL     1       0.410  -4.909  -2.425  1.00  0.00    -0.372 N 
HETATM   19  C   UNL     1       0.147  -3.611  -2.162  1.00  0.00     0.100 A 
ATOM     20  HN  UNL     1       0.777  -5.540  -1.713  1.00  0.00     0.164 HD
HETATM   21  C   UNL     1      -0.372  -2.695  -3.081  1.00  0.00    -0.008 A 
HETATM   22  C   UNL     1      -0.634  -1.358  -2.727  1.00  0.00     0.014 A 
HETATM   23  C   UNL     1      -0.635  -3.148  -4.391  1.00  0.00     0.004 A 
HETATM   24  C   UNL     1      -1.188  -0.471  -3.648  1.00  0.00     0.001 A 
HETATM   25  C   UNL     1      -1.507  -0.917  -4.926  1.00  0.00     0.001 A 
HETATM   26  C   UNL     1      -1.240  -2.238  -5.294  1.00  0.00     0.014 A 
ENDBRANCH   3  16
TORSDOF 2
ENDMDL
MODEL 2
REMARK VINA RESULT:    -6.084      4.618      8.022
REMARK INTER + INTRA:          -6.960
REMARK INTER:                  -6.463
REMARK INTRA:                  -0.497
REMARK UNBOUND:                -0.165
REMARK  2 active torsions:
REMARK  status: ('A' for Active; 'I' for Inactive)
REMARK    1  A    between atoms: C_8  and  C_9 
REMARK       I    between atoms: C_9  and  N_11 
REMARK    2  A    between atoms: N_11  and  C_12 
ROOT
HETATM    1  C   UNL     1       1.562  -6.492  -9.125  1.00  0.00     0.231 C 
HETATM    2  O   UNL     1       0.713  -7.225  -8.601  1.00  0.00    -0.272 OA
HETATM    3  N   UNL     1       2.440  -6.943 -10.088  1.00  0.00    -0.325 N 
HETATM    4  H   UNL     1       3.341  -6.482 -10.136  1.00  0.00     0.169 HD
ENDROOT
BRANCH   1   5
HETATM    5  C   UNL     1       1.653  -5.004  -8.744  1.00  0.00     0.116 C 
HETATM    6  C   UNL     1       2.263  -4.124  -9.807  1.00  0.00    -0.010 A 
HETATM    7  C   UNL     1       3.628  -3.823  -9.769  1.00  0.00     0.075 A 
HETATM    8  C   UNL     1       1.477  -3.621 -10.860  1.00  0.00     0.029 A 
HETATM    9  C   UNL     1       4.209  -3.068 -10.787  1.00  0.00     0.039 A 
HETATM   10  O   UNL     1       4.464  -4.183  -8.751  1.00  0.00    -0.351 OA
HETATM   11  C   UNL     1       3.434  -2.602 -11.848  1.00  0.00     0.022 A 
HETATM   12  C   UNL     1       2.069  -2.872 -11.876  1.00  0.00     0.011 A 
HETATM   13 BR   UNL     1       1.013  -2.229 -13.303  1.00  0.00    -0.051 Br
HETATM   14  C   UNL     1       3.941  -5.094  -7.780  1.00  0.00     0.176 C 
HETATM   15  C   UNL     1       2.472  -4.846  -7.460  1.00  0.00     0.045 C 
ENDBRANCH   1   5
BRANCH   3  16
HETATM   16  C   UNL     1       2.395  -8.276 -10.559  1.00  0.00     0.061 A 
HETATM   17  C   UNL     1       2.901  -9.308  -9.767  1.00  0.00     0.118 A 
HETATM   18  N   UNL     1       2.781 -10.619 -10.062  1.00  0.00    -0.372 N 
HETATM   19  C   UNL     1       2.142 -10.913 -11.215  1.00  0.00     0.100 A 
ATOM     20  HN  UNL     1       3.152 -11.347  -9.451  1.00  0.00     0.164 HD
HETATM   21  C   UNL     1       1.625  -9.970 -12.108  1.00  0.00    -0.008 A 
HETATM   22  C   UNL     1       0.981 -10.354 -13.299  1.00  0.00     0.014 A 
HETATM   23  C   UNL     1       1.767  -8.604 -11.785  1.00  0.00     0.004 A 
HETATM   24  C   UNL     1       0.507  -9.397 -14.195  1.00  0.00     0.001 A 
HETATM   25  C   UNL     1       0.692  -8.046 -13.919  1.00  0.00     0.001 A 
HETATM   26  C   UNL     1       1.317  -7.652 -12.734  1.00  0.00     0.014 A 
ENDBRANCH   3  16
TORSDOF 2
ENDMDL
MODEL 3
REMARK VINA RESULT:    -6.082      4.095      7.265
REMARK INTER + INTRA:          -6.959
REMARK INTER:                  -6.385
REMARK INTRA:                  -0.574
REMARK UNBOUND:                -0.165
REMARK  2 active torsions:
REMARK  status: ('A' for Active; 'I' for Inactive)
REMARK    1  A    between atoms: C_8  and  C_9 
REMARK       I    between atoms: C_9  and  N_11 
REMARK    2  A    between atoms: N_11  and  C_12 
ROOT
HETATM    1  C   UNL     1       3.015  -4.197 -10.525  1.00  0.00     0.231 C 
HETATM    2  O   UNL     1       3.761  -3.341 -11.019  1.00  0.00    -0.272 OA
HETATM    3  N   UNL     1       1.680  -4.296 -10.853  1.00  0.00    -0.325 N 
HETATM    4  H   UNL     1       1.060  -4.663 -10.140  1.00  0.00     0.169 HD
ENDROOT
BRANCH   1   5
HETATM    5  C   UNL     1       3.565  -5.233  -9.531  1.00  0.00     0.116 C 
HETATM    6  C   UNL     1       2.716  -6.472  -9.387  1.00  0.00    -0.010 A 
HETATM    7  C   UNL     1       1.769  -6.557  -8.362  1.00  0.00     0.075 A 
HETATM    8  C   UNL     1       2.845  -7.540 -10.294  1.00  0.00     0.029 A 
HETATM    9  C   UNL     1       0.934  -7.671  -8.268  1.00  0.00     0.039 A 
HETATM   10  O   UNL     1       1.619  -5.623  -7.377  1.00  0.00    -0.351 OA
HETATM   11  C   UNL     1       1.040  -8.710  -9.190  1.00  0.00     0.022 A 
HETATM   12  C   UNL     1       2.001  -8.646 -10.195  1.00  0.00     0.011 A 
HETATM   13 BR   UNL     1       2.160 -10.059 -11.437  1.00  0.00    -0.051 Br
HETATM   14  C   UNL     1       2.339  -4.398  -7.537  1.00  0.00     0.176 C 
HETATM   15  C   UNL     1       3.722  -4.595  -8.148  1.00  0.00     0.045 C 
ENDBRANCH   1   5
BRANCH   3  16
HETATM   16  C   UNL     1       1.090  -3.436 -11.808  1.00  0.00     0.061 A 
HETATM   17  C   UNL     1       0.702  -2.147 -11.435  1.00  0.00     0.118 A 
HETATM   18  N   UNL     1       0.262  -1.208 -12.298  1.00  0.00    -0.372 N 
HETATM   19  C   UNL     1       0.186  -1.580 -13.594  1.00  0.00     0.100 A 
ATOM     20  HN  UNL     1       0.001  -0.272 -11.989  1.00  0.00     0.164 HD
HETATM   21  C   UNL     1       0.509  -2.848 -14.085  1.00  0.00    -0.008 A 
HETATM   22  C   UNL     1       0.391  -3.165 -15.451  1.00  0.00     0.014 A 
HETATM   23  C   UNL     1       0.961  -3.819 -13.166  1.00  0.00     0.004 A 
HETATM   24  C   UNL     1       0.682  -4.448 -15.913  1.00  0.00     0.001 A 
HETATM   25  C   UNL     1       1.072  -5.432 -15.011  1.00  0.00     0.001 A 
HETATM   26  C   UNL     1       1.205  -5.126 -13.655  1.00  0.00     0.014 A 
ENDBRANCH   3  16
TORSDOF 2
ENDMDL
MODEL 4
REMARK VINA RESULT:    -5.870     29.273     31.614
REMARK INTER + INTRA:          -6.721
REMARK INTER:                  -6.431
REMARK INTRA:                  -0.291
REMARK UNBOUND:                -0.165
REMARK  2 active torsions:
REMARK  status: ('A' for Active; 'I' for Inactive)
REMARK    1  A    between atoms: C_8  and  C_9 
REMARK       I    between atoms: C_9  and  N_11 
REMARK    2  A    between atoms: N_11  and  C_12 
ROOT
HETATM    1  C   UNL     1       8.729  19.880 -22.277  1.00  0.00     0.231 C 
HETATM    2  O   UNL     1       7.713  20.212 -22.901  1.00  0.00    -0.272 OA
HETATM    3  N   UNL     1       9.441  18.737 -22.572  1.00  0.00    -0.325 N 
HETATM    4  H   UNL     1       9.937  18.297 -21.806  1.00  0.00     0.169 HD
ENDROOT
BRANCH   1   5
HETATM    5  C   UNL     1       9.276  20.766 -21.144  1.00  0.00     0.116 C 
HETATM    6  C   UNL     1       9.119  22.248 -21.380  1.00  0.00    -0.010 A 
HETATM    7  C   UNL     1      10.167  22.983 -21.943  1.00  0.00     0.075 A 
HETATM    8  C   UNL     1       7.913  22.901 -21.064  1.00  0.00     0.029 A 
HETATM    9  C   UNL     1      10.000  24.339 -22.226  1.00  0.00     0.039 A 
HETATM   10  O   UNL     1      11.406  22.473 -22.206  1.00  0.00    -0.351 OA
HETATM   11  C   UNL     1       8.792  24.974 -21.945  1.00  0.00     0.022 A 
HETATM   12  C   UNL     1       7.756  24.255 -21.357  1.00  0.00     0.011 A 
HETATM   13 BR   UNL     1       6.122  25.115 -20.960  1.00  0.00    -0.051 Br
HETATM   14  C   UNL     1      11.558  21.057 -22.084  1.00  0.00     0.176 C 
HETATM   15  C   UNL     1      10.762  20.469 -20.924  1.00  0.00     0.045 C 
ENDBRANCH   1   5
BRANCH   3  16
HETATM   16  C   UNL     1       9.063  17.889 -23.639  1.00  0.00     0.061 A 
HETATM   17  C   UNL     1       9.558  18.127 -24.923  1.00  0.00     0.118 A 
HETATM   18  N   UNL     1       9.371  17.301 -25.973  1.00  0.00    -0.372 N 
HETATM   19  C   UNL     1       8.636  16.193 -25.735  1.00  0.00     0.100 A 
ATOM     20  HN  UNL     1       9.761  17.502 -26.894  1.00  0.00     0.164 HD
HETATM   21  C   UNL     1       8.058  15.864 -24.506  1.00  0.00    -0.008 A 
HETATM   22  C   UNL     1       7.292  14.694 -24.338  1.00  0.00     0.014 A 
HETATM   23  C   UNL     1       8.259  16.744 -23.421  1.00  0.00     0.004 A 
HETATM   24  C   UNL     1       6.691  14.405 -23.114  1.00  0.00     0.001 A 
HETATM   25  C   UNL     1       6.831  15.292 -22.052  1.00  0.00     0.001 A 
HETATM   26  C   UNL     1       7.600  16.448 -22.202  1.00  0.00     0.014 A 
ENDBRANCH   3  16
TORSDOF 2
ENDMDL
MODEL 5
REMARK VINA RESULT:    -5.843     32.053     34.088
REMARK INTER + INTRA:          -6.691
REMARK INTER:                  -6.169
REMARK INTRA:                  -0.522
REMARK UNBOUND:                -0.165
REMARK  2 active torsions:
REMARK  status: ('A' for Active; 'I' for Inactive)
REMARK    1  A    between atoms: C_8  and  C_9 
REMARK       I    between atoms: C_9  and  N_11 
REMARK    2  A    between atoms: N_11  and  C_12 
ROOT
HETATM    1  C   UNL     1      13.610  22.672 -23.527  1.00  0.00     0.231 C 
HETATM    2  O   UNL     1      12.666  23.474 -23.499  1.00  0.00    -0.272 OA
HETATM    3  N   UNL     1      13.645  21.541 -22.739  1.00  0.00    -0.325 N 
HETATM    4  H   UNL     1      14.561  21.202 -22.468  1.00  0.00     0.169 HD
ENDROOT
BRANCH   1   5
HETATM    5  C   UNL     1      14.791  22.887 -24.488  1.00  0.00     0.116 C 
HETATM    6  C   UNL     1      15.973  21.985 -24.235  1.00  0.00    -0.010 A 
HETATM    7  C   UNL     1      17.035  22.429 -23.441  1.00  0.00     0.075 A 
HETATM    8  C   UNL     1      16.011  20.683 -24.767  1.00  0.00     0.029 A 
HETATM    9  C   UNL     1      18.098  21.574 -23.147  1.00  0.00     0.039 A 
HETATM   10  O   UNL     1      17.146  23.698 -22.947  1.00  0.00    -0.351 OA
HETATM   11  C   UNL     1      18.113  20.273 -23.646  1.00  0.00     0.022 A 
HETATM   12  C   UNL     1      17.074  19.835 -24.462  1.00  0.00     0.011 A 
HETATM   13 BR   UNL     1      17.099  18.078 -25.154  1.00  0.00    -0.051 Br
HETATM   14  C   UNL     1      16.002  24.545 -23.089  1.00  0.00     0.176 C 
HETATM   15  C   UNL     1      15.267  24.340 -24.409  1.00  0.00     0.045 C 
ENDBRANCH   1   5
BRANCH   3  16
HETATM   16  C   UNL     1      12.578  21.214 -21.870  1.00  0.00     0.061 A 
HETATM   17  C   UNL     1      12.464  21.861 -20.638  1.00  0.00     0.118 A 
HETATM   18  N   UNL     1      11.413  21.722 -19.803  1.00  0.00    -0.372 N 
HETATM   19  C   UNL     1      10.437  20.882 -20.210  1.00  0.00     0.100 A 
ATOM     20  HN  UNL     1      11.359  22.223 -18.916  1.00  0.00     0.164 HD
HETATM   21  C   UNL     1      10.453  20.152 -21.402  1.00  0.00    -0.008 A 
HETATM   22  C   UNL     1       9.401  19.284 -21.752  1.00  0.00     0.014 A 
HETATM   23  C   UNL     1      11.564  20.304 -22.258  1.00  0.00     0.004 A 
HETATM   24  C   UNL     1       9.456  18.535 -22.926  1.00  0.00     0.001 A 
HETATM   25  C   UNL     1      10.571  18.630 -23.752  1.00  0.00     0.001 A 
HETATM   26  C   UNL     1      11.615  19.498 -23.422  1.00  0.00     0.014 A 
ENDBRANCH   3  16
TORSDOF 2
ENDMDL
MODEL 6
REMARK VINA RESULT:    -5.729      2.990      7.575
REMARK INTER + INTRA:          -6.564
REMARK INTER:                  -5.985
REMARK INTRA:                  -0.579
REMARK UNBOUND:                -0.165
REMARK  2 active torsions:
REMARK  status: ('A' for Active; 'I' for Inactive)
REMARK    1  A    between atoms: C_8  and  C_9 
REMARK       I    between atoms: C_9  and  N_11 
REMARK    2  A    between atoms: N_11  and  C_12 
ROOT
HETATM    1  C   UNL     1       0.124  -5.214  -6.314  1.00  0.00     0.231 C 
HETATM    2  O   UNL     1       1.228  -5.167  -5.756  1.00  0.00    -0.272 OA
HETATM    3  N   UNL     1      -0.014  -5.439  -7.667  1.00  0.00    -0.325 N 
HETATM    4  H   UNL     1      -0.826  -5.032  -8.117  1.00  0.00     0.169 HD
ENDROOT
BRANCH   1   5
HETATM    5  C   UNL     1      -1.172  -5.058  -5.500  1.00  0.00     0.116 C 
HETATM    6  C   UNL     1      -0.998  -4.347  -4.181  1.00  0.00    -0.010 A 
HETATM    7  C   UNL     1      -0.803  -5.083  -3.008  1.00  0.00     0.075 A 
HETATM    8  C   UNL     1      -1.001  -2.941  -4.117  1.00  0.00     0.029 A 
HETATM    9  C   UNL     1      -0.573  -4.429  -1.798  1.00  0.00     0.039 A 
HETATM   10  O   UNL     1      -0.869  -6.446  -2.939  1.00  0.00    -0.351 OA
HETATM   11  C   UNL     1      -0.541  -3.037  -1.745  1.00  0.00     0.022 A 
HETATM   12  C   UNL     1      -0.764  -2.297  -2.903  1.00  0.00     0.011 A 
HETATM   13 BR   UNL     1      -0.738  -0.410  -2.833  1.00  0.00    -0.051 Br
HETATM   14  C   UNL     1      -0.937  -7.151  -4.181  1.00  0.00     0.176 C 
HETATM   15  C   UNL     1      -1.784  -6.435  -5.228  1.00  0.00     0.045 C 
ENDBRANCH   1   5
BRANCH   3  16
HETATM   16  C   UNL     1       1.110  -5.664  -8.495  1.00  0.00     0.061 A 
HETATM   17  C   UNL     1       1.845  -4.579  -8.976  1.00  0.00     0.118 A 
HETATM   18  N   UNL     1       3.007  -4.690  -9.654  1.00  0.00    -0.372 N 
HETATM   19  C   UNL     1       3.446  -5.947  -9.879  1.00  0.00     0.100 A 
ATOM     20  HN  UNL     1       3.523  -3.872  -9.977  1.00  0.00     0.164 HD
HETATM   21  C   UNL     1       2.783  -7.112  -9.481  1.00  0.00    -0.008 A 
HETATM   22  C   UNL     1       3.298  -8.390  -9.764  1.00  0.00     0.014 A 
HETATM   23  C   UNL     1       1.566  -6.975  -8.780  1.00  0.00     0.004 A 
HETATM   24  C   UNL     1       2.601  -9.539  -9.393  1.00  0.00     0.001 A 
HETATM   25  C   UNL     1       1.371  -9.421  -8.753  1.00  0.00     0.001 A 
HETATM   26  C   UNL     1       0.856  -8.157  -8.454  1.00  0.00     0.014 A 
ENDBRANCH   3  16
TORSDOF 2
ENDMDL
MODEL 7
REMARK VINA RESULT:    -5.630      1.293      2.646
REMARK INTER + INTRA:          -6.453
REMARK INTER:                  -6.125
REMARK INTRA:                  -0.328
REMARK UNBOUND:                -0.165
REMARK  2 active torsions:
REMARK  status: ('A' for Active; 'I' for Inactive)
REMARK    1  A    between atoms: C_8  and  C_9 
REMARK       I    between atoms: C_9  and  N_11 
REMARK    2  A    between atoms: N_11  and  C_12 
ROOT
HETATM    1  C   UNL     1       0.696  -5.376  -6.994  1.00  0.00     0.231 C 
HETATM    2  O   UNL     1       1.837  -5.235  -6.532  1.00  0.00    -0.272 OA
HETATM    3  N   UNL     1      -0.440  -5.119  -6.255  1.00  0.00    -0.325 N 
HETATM    4  H   UNL     1      -1.268  -5.653  -6.491  1.00  0.00     0.169 HD
ENDROOT
BRANCH   1   5
HETATM    5  C   UNL     1       0.491  -5.815  -8.453  1.00  0.00     0.116 C 
HETATM    6  C   UNL     1       1.369  -6.963  -8.889  1.00  0.00    -0.010 A 
HETATM    7  C   UNL     1       2.582  -6.710  -9.537  1.00  0.00     0.075 A 
HETATM    8  C   UNL     1       0.995  -8.293  -8.624  1.00  0.00     0.029 A 
HETATM    9  C   UNL     1       3.428  -7.765  -9.879  1.00  0.00     0.039 A 
HETATM   10  O   UNL     1       3.002  -5.468  -9.921  1.00  0.00    -0.351 OA
HETATM   11  C   UNL     1       3.071  -9.079  -9.582  1.00  0.00     0.022 A 
HETATM   12  C   UNL     1       1.851  -9.339  -8.965  1.00  0.00     0.011 A 
HETATM   13 BR   UNL     1       1.354 -11.120  -8.576  1.00  0.00    -0.051 Br
HETATM   14  C   UNL     1       2.242  -4.356  -9.442  1.00  0.00     0.176 C 
HETATM   15  C   UNL     1       0.744  -4.632  -9.393  1.00  0.00     0.045 C 
ENDBRANCH   1   5
BRANCH   3  16
HETATM   16  C   UNL     1      -0.362  -4.645  -4.925  1.00  0.00     0.061 A 
HETATM   17  C   UNL     1      -0.083  -3.298  -4.685  1.00  0.00     0.118 A 
HETATM   18  N   UNL     1      -0.124  -2.720  -3.467  1.00  0.00    -0.372 N 
HETATM   19  C   UNL     1      -0.441  -3.531  -2.435  1.00  0.00     0.100 A 
ATOM     20  HN  UNL     1       0.073  -1.728  -3.332  1.00  0.00     0.164 HD
HETATM   21  C   UNL     1      -0.705  -4.900  -2.542  1.00  0.00    -0.008 A 
HETATM   22  C   UNL     1      -1.016  -5.684  -1.415  1.00  0.00     0.014 A 
HETATM   23  C   UNL     1      -0.650  -5.487  -3.824  1.00  0.00     0.004 A 
HETATM   24  C   UNL     1      -1.237  -7.055  -1.539  1.00  0.00     0.001 A 
HETATM   25  C   UNL     1      -1.129  -7.659  -2.787  1.00  0.00     0.001 A 
HETATM   26  C   UNL     1      -0.834  -6.889  -3.915  1.00  0.00     0.014 A 
ENDBRANCH   3  16
TORSDOF 2
ENDMDL
MODEL 8
REMARK VINA RESULT:    -5.617      3.339      7.131
REMARK INTER + INTRA:          -6.439
REMARK INTER:                  -5.889
REMARK INTRA:                  -0.550
REMARK UNBOUND:                -0.165
REMARK  2 active torsions:
REMARK  status: ('A' for Active; 'I' for Inactive)
REMARK    1  A    between atoms: C_8  and  C_9 
REMARK       I    between atoms: C_9  and  N_11 
REMARK    2  A    between atoms: N_11  and  C_12 
ROOT
HETATM    1  C   UNL     1      -0.135  -5.161  -5.940  1.00  0.00     0.231 C 
HETATM    2  O   UNL     1       0.024  -6.347  -6.259  1.00  0.00    -0.272 OA
HETATM    3  N   UNL     1       0.618  -4.140  -6.480  1.00  0.00    -0.325 N 
HETATM    4  H   UNL     1       0.767  -3.325  -5.896  1.00  0.00     0.169 HD
ENDROOT
BRANCH   1   5
HETATM    5  C   UNL     1      -1.229  -4.762  -4.934  1.00  0.00     0.116 C 
HETATM    6  C   UNL     1      -1.201  -3.309  -4.527  1.00  0.00    -0.010 A 
HETATM    7  C   UNL     1      -0.527  -2.921  -3.365  1.00  0.00     0.075 A 
HETATM    8  C   UNL     1      -1.825  -2.329  -5.320  1.00  0.00     0.029 A 
HETATM    9  C   UNL     1      -0.440  -1.572  -3.022  1.00  0.00     0.039 A 
HETATM   10  O   UNL     1       0.036  -3.793  -2.477  1.00  0.00    -0.351 OA
HETATM   11  C   UNL     1      -1.028  -0.600  -3.829  1.00  0.00     0.022 A 
HETATM   12  C   UNL     1      -1.727  -0.983  -4.971  1.00  0.00     0.011 A 
HETATM   13 BR   UNL     1      -2.540   0.329  -6.060  1.00  0.00    -0.051 Br
HETATM   14  C   UNL     1       0.110  -5.163  -2.880  1.00  0.00     0.176 C 
HETATM   15  C   UNL     1      -1.111  -5.619  -3.671  1.00  0.00     0.045 C 
ENDBRANCH   1   5
BRANCH   3  16
HETATM   16  C   UNL     1       1.602  -4.391  -7.463  1.00  0.00     0.061 A 
HETATM   17  C   UNL     1       2.919  -4.649  -7.076  1.00  0.00     0.118 A 
HETATM   18  N   UNL     1       3.896  -5.035  -7.922  1.00  0.00    -0.372 N 
HETATM   19  C   UNL     1       3.547  -5.149  -9.222  1.00  0.00     0.100 A 
ATOM     20  HN  UNL     1       4.844  -5.229  -7.600  1.00  0.00     0.164 HD
HETATM   21  C   UNL     1       2.275  -4.883  -9.737  1.00  0.00    -0.008 A 
HETATM   22  C   UNL     1       1.990  -5.013 -11.109  1.00  0.00     0.014 A 
HETATM   23  C   UNL     1       1.268  -4.474  -8.837  1.00  0.00     0.004 A 
HETATM   24  C   UNL     1       0.725  -4.705 -11.607  1.00  0.00     0.001 A 
HETATM   25  C   UNL     1      -0.262  -4.244 -10.742  1.00  0.00     0.001 A 
HETATM   26  C   UNL     1       0.005  -4.125  -9.376  1.00  0.00     0.014 A 
ENDBRANCH   3  16
TORSDOF 2
ENDMDL
MODEL 9
REMARK VINA RESULT:    -5.564      5.403      8.271
REMARK INTER + INTRA:          -6.380
REMARK INTER:                  -5.827
REMARK INTRA:                  -0.553
REMARK UNBOUND:                -0.165
REMARK  2 active torsions:
REMARK  status: ('A' for Active; 'I' for Inactive)
REMARK    1  A    between atoms: C_8  and  C_9 
REMARK       I    between atoms: C_9  and  N_11 
REMARK    2  A    between atoms: N_11  and  C_12 
ROOT
HETATM    1  C   UNL     1       0.851  -4.408 -12.600  1.00  0.00     0.231 C 
HETATM    2  O   UNL     1       2.032  -4.266 -12.944  1.00  0.00    -0.272 OA
HETATM    3  N   UNL     1       0.491  -4.988 -11.402  1.00  0.00    -0.325 N 
HETATM    4  H   UNL     1      -0.399  -5.472 -11.377  1.00  0.00     0.169 HD
ENDROOT
BRANCH   1   5
HETATM    5  C   UNL     1      -0.292  -3.899 -13.496  1.00  0.00     0.116 C 
HETATM    6  C   UNL     1       0.165  -3.170 -14.735  1.00  0.00    -0.010 A 
HETATM    7  C   UNL     1       0.268  -1.776 -14.729  1.00  0.00     0.075 A 
HETATM    8  C   UNL     1       0.517  -3.881 -15.897  1.00  0.00     0.029 A 
HETATM    9  C   UNL     1       0.755  -1.103 -15.850  1.00  0.00     0.039 A 
HETATM   10  O   UNL     1      -0.129  -0.982 -13.691  1.00  0.00    -0.351 OA
HETATM   11  C   UNL     1       1.138  -1.814 -16.987  1.00  0.00     0.022 A 
HETATM   12  C   UNL     1       1.009  -3.199 -17.010  1.00  0.00     0.011 A 
HETATM   13 BR   UNL     1       1.510  -4.165 -18.553  1.00  0.00    -0.051 Br
HETATM   14  C   UNL     1      -0.475  -1.643 -12.472  1.00  0.00     0.176 C 
HETATM   15  C   UNL     1      -1.202  -2.964 -12.695  1.00  0.00     0.045 C 
ENDBRANCH   1   5
BRANCH   3  16
HETATM   16  C   UNL     1       1.465  -5.428 -10.475  1.00  0.00     0.061 A 
HETATM   17  C   UNL     1       1.906  -4.564  -9.471  1.00  0.00     0.118 A 
HETATM   18  N   UNL     1       2.723  -4.929  -8.461  1.00  0.00    -0.372 N 
HETATM   19  C   UNL     1       3.135  -6.215  -8.465  1.00  0.00     0.100 A 
ATOM     20  HN  UNL     1       3.012  -4.272  -7.736  1.00  0.00     0.164 HD
HETATM   21  C   UNL     1       2.793  -7.164  -9.433  1.00  0.00    -0.008 A 
HETATM   22  C   UNL     1       3.274  -8.486  -9.376  1.00  0.00     0.014 A 
HETATM   23  C   UNL     1       1.944  -6.761 -10.485  1.00  0.00     0.004 A 
HETATM   24  C   UNL     1       2.952  -9.405 -10.373  1.00  0.00     0.001 A 
HETATM   25  C   UNL     1       2.164  -9.007 -11.448  1.00  0.00     0.001 A 
HETATM   26  C   UNL     1       1.670  -7.702 -11.508  1.00  0.00     0.014 A 
ENDBRANCH   3  16
TORSDOF 2
ENDMDL
