REMARK  2 active torsions:
REMARK  status: ('A' for Active; 'I' for Inactive)
REMARK    1  A    between atoms: C_8  and  C_9 
REMARK       I    between atoms: C_9  and  N_11 
REMARK    2  A    between atoms: N_11  and  C_12 
ROOT
HETATM    1  C   UNL     1      -2.689  -2.121   1.668  1.00  0.00     0.231 C 
HETATM    2  O   UNL     1      -3.829  -2.064   2.148  1.00  0.00    -0.272 OA
HETATM    3  N   UNL     1      -1.609  -2.603   2.377  1.00  0.00    -0.325 N 
HETATM    4  H   UNL     1      -0.700  -2.223   2.139  1.00  0.00     0.169 HD
ENDROOT
BRANCH   1   5
HETATM    5  C   UNL     1      -2.428  -1.683   0.217  1.00  0.00     0.116 C 
HETATM    6  C   UNL     1      -1.021  -1.208  -0.048  1.00  0.00    -0.010 A 
HETATM    7  C   UNL     1      -0.719   0.156   0.014  1.00  0.00     0.075 A 
HETATM    8  C   UNL     1       0.006  -2.127  -0.331  1.00  0.00     0.029 A 
HETATM    9  C   UNL     1       0.594   0.593  -0.162  1.00  0.00     0.039 A 
HETATM   10  O   UNL     1      -1.649   1.140   0.193  1.00  0.00    -0.351 OA
HETATM   11  C   UNL     1       1.615  -0.324  -0.406  1.00  0.00     0.022 A 
HETATM   12  C   UNL     1       1.316  -1.680  -0.499  1.00  0.00     0.011 A 
HETATM   13 BR   UNL     1       2.693  -2.925  -0.846  1.00  0.00    -0.051 Br
HETATM   14  C   UNL     1      -2.971   0.720   0.540  1.00  0.00     0.176 C 
HETATM   15  C   UNL     1      -3.396  -0.561  -0.169  1.00  0.00     0.045 C 
ENDBRANCH   1   5
BRANCH   3  16
HETATM   16  C   UNL     1      -1.753  -3.095   3.695  1.00  0.00     0.061 A 
HETATM   17  C   UNL     1      -2.658  -4.126   3.955  1.00  0.00     0.118 A 
HETATM   18  N   UNL     1      -2.769  -4.756   5.143  1.00  0.00    -0.372 N 
HETATM   19  C   UNL     1      -1.950  -4.322   6.125  1.00  0.00     0.100 A 
ATOM     20  HN  UNL     1      -3.433  -5.516   5.291  1.00  0.00     0.164 HD
HETATM   21  C   UNL     1      -1.030  -3.277   5.999  1.00  0.00    -0.008 A 
HETATM   22  C   UNL     1      -0.218  -2.872   7.075  1.00  0.00     0.014 A 
HETATM   23  C   UNL     1      -0.934  -2.626   4.751  1.00  0.00     0.004 A 
HETATM   24  C   UNL     1       0.665  -1.802   6.939  1.00  0.00     0.001 A 
HETATM   25  C   UNL     1       0.729  -1.112   5.733  1.00  0.00     0.001 A 
HETATM   26  C   UNL     1      -0.062  -1.513   4.654  1.00  0.00     0.014 A 
ENDBRANCH   3  16
TORSDOF 2
