stable:False satoms:20 tatoms:24 sratio:0.8333333333333334
  -OEChem-08062401463D

 24 24  0     0  0  0  0  0  0999 V2000
  -13.7142    4.7013  -22.6208 H   0  0  0  0  0  0  0  0  0  0  0  0
  -13.7836    5.0305  -24.3189 H   0  0  0  0  0  0  0  0  0  0  0  0
  -13.3793    6.2920  -23.1602 H   0  0  0  0  0  0  0  0  0  0  0  0
  -11.1934    6.1157  -23.7982 O   0  0  0  0  0  0  0  0  0  0  0  0
  -11.7896    5.0659  -23.7125 C   0  0  0  0  0  0  0  0  0  0  0  0
  -13.2360    5.2333  -23.4179 C   0  0  0  0  0  0  0  0  0  0  0  0
  -11.9102    2.6161  -23.8936 N   0  0  0  0  0  0  0  0  0  0  0  0
  -11.1549    3.7206  -23.9498 C   0  0  0  0  0  0  0  0  0  0  0  0
   -9.8871    3.1963  -24.2750 C   0  0  0  0  0  0  0  0  0  0  0  0
   -8.6707    3.8597  -24.5507 N   0  0  0  0  0  0  0  0  0  0  0  0
   -8.6582    5.0272  -24.6560 O   0  0  0  0  0  0  0  0  0  0  0  0
   -7.6480    3.2320  -24.3751 O   0  0  0  0  0  0  0  0  0  0  0  0
  -10.0017    1.7875  -24.2312 C   0  0  0  0  0  0  0  0  0  0  0  0
  -12.8966    2.7004  -24.0273 H   0  0  0  0  0  0  0  0  0  0  0  0
  -11.3162    1.4175  -23.8689 C   0  0  0  0  0  0  0  0  0  0  0  0
   -8.9850    0.5464  -24.8008 Cl  0  0  0  0  0  0  0  0  0  0  0  0
  -13.6363    0.4341  -24.4284 H   0  0  0  0  0  0  0  0  0  0  0  0
  -11.8554    0.2444  -23.5006 O   0  0  0  0  0  0  0  0  0  0  0  0
  -13.3934   -1.6200  -23.6623 C   0  0  0  0  0  0  0  0  0  0  0  0
  -12.5998   -2.1741  -23.1812 H   0  0  0  0  0  0  0  0  0  0  0  0
  -14.1776   -1.4640  -22.9454 H   0  0  0  0  0  0  0  0  0  0  0  0
  -12.5294   -0.6735  -25.2608 H   0  0  0  0  0  0  0  0  0  0  0  0
  -13.7937   -2.1832  -24.4743 H   0  0  0  0  0  0  0  0  0  0  0  0
  -12.8918   -0.3441  -24.2972 C   0  0  0  0  0  0  0  0  0  0  0  0
 19 20  1  0  0  0  0
 19 21  1  0  0  0  0
 19 23  1  0  0  0  0
 19 24  1  0  0  0  0
 18 24  1  0  0  0  0
 15 18  1  0  0  0  0
 22 24  1  0  0  0  0
 17 24  1  0  0  0  0
 13 16  1  0  0  0  0
 13 15  2  0  0  0  0
  7 15  1  0  0  0  0
  9 13  1  0  0  0  0
 10 12  2  0  0  0  0
  7 14  1  0  0  0  0
  7  8  1  0  0  0  0
  9 10  1  0  0  0  0
  8  9  2  0  0  0  0
 10 11  2  0  0  0  0
  5  8  1  0  0  0  0
  1  6  1  0  0  0  0
  5  6  1  0  0  0  0
  4  5  2  0  0  0  0
  2  6  1  0  0  0  0
  3  6  1  0  0  0  0
M  END
> <Chemgauss4>
-5.259147

$$$$
