stable:False satoms:20 tatoms:24 sratio:0.8333333333333334
  -OEChem-08062401463D

 24 24  0     0  0  0  0  0  0999 V2000
   13.2484    4.3988   22.3525 H   0  0  0  0  0  0  0  0  0  0  0  0
   13.4751    4.7235   24.0377 H   0  0  0  0  0  0  0  0  0  0  0  0
   12.7932    5.9348   22.9582 H   0  0  0  0  0  0  0  0  0  0  0  0
   10.7322    5.4950   23.8387 O   0  0  0  0  0  0  0  0  0  0  0  0
   11.4340    4.5244   23.6643 C   0  0  0  0  0  0  0  0  0  0  0  0
   12.8065    4.8650   23.2095 C   0  0  0  0  0  0  0  0  0  0  0  0
   11.8626    2.1054   23.7815 N   0  0  0  0  0  0  0  0  0  0  0  0
   10.9941    3.1115   23.9459 C   0  0  0  0  0  0  0  0  0  0  0  0
    9.8433    2.4377   24.4036 C   0  0  0  0  0  0  0  0  0  0  0  0
    8.5974    2.9495   24.8299 N   0  0  0  0  0  0  0  0  0  0  0  0
    8.4598    4.1064   24.9592 O   0  0  0  0  0  0  0  0  0  0  0  0
    7.6424    2.2053   24.7601 O   0  0  0  0  0  0  0  0  0  0  0  0
   10.1172    1.0529   24.3189 C   0  0  0  0  0  0  0  0  0  0  0  0
   12.8410    2.3060   23.8031 H   0  0  0  0  0  0  0  0  0  0  0  0
   11.4152    0.8446   23.8012 C   0  0  0  0  0  0  0  0  0  0  0  0
    9.3268   -0.3042   24.9763 Cl  0  0  0  0  0  0  0  0  0  0  0  0
   13.8841    0.1418   24.0716 H   0  0  0  0  0  0  0  0  0  0  0  0
   12.0424   -0.2534   23.3502 O   0  0  0  0  0  0  0  0  0  0  0  0
   13.7976   -1.9219   23.2976 C   0  0  0  0  0  0  0  0  0  0  0  0
   13.0244   -2.5638   22.8995 H   0  0  0  0  0  0  0  0  0  0  0  0
   14.4695   -1.6690   22.4988 H   0  0  0  0  0  0  0  0  0  0  0  0
   13.0195   -1.0952   25.0030 H   0  0  0  0  0  0  0  0  0  0  0  0
   14.3531   -2.4383   24.0470 H   0  0  0  0  0  0  0  0  0  0  0  0
   13.2263   -0.7189   24.0110 C   0  0  0  0  0  0  0  0  0  0  0  0
 19 20  1  0  0  0  0
 19 21  1  0  0  0  0
 19 23  1  0  0  0  0
 19 24  1  0  0  0  0
 18 24  1  0  0  0  0
 15 18  1  0  0  0  0
 22 24  1  0  0  0  0
 17 24  1  0  0  0  0
 13 16  1  0  0  0  0
 13 15  2  0  0  0  0
  7 15  1  0  0  0  0
  9 13  1  0  0  0  0
 10 12  2  0  0  0  0
  7 14  1  0  0  0  0
  7  8  1  0  0  0  0
  9 10  1  0  0  0  0
  8  9  2  0  0  0  0
 10 11  2  0  0  0  0
  5  8  1  0  0  0  0
  1  6  1  0  0  0  0
  5  6  1  0  0  0  0
  4  5  2  0  0  0  0
  2  6  1  0  0  0  0
  3  6  1  0  0  0  0
M  END
> <Chemgauss4>
-5.334749

$$$$
