REMARK  1 active torsions:
REMARK  status: ('A' for Active; 'I' for Inactive)
REMARK    1  A    between atoms: C_11  and  O_15 
ROOT
HETATM    1  C   UNL     1       9.719  -2.123  25.101  1.00  0.00     0.110 C 
HETATM    2  C   UNL     1       7.873  -1.421  23.497  1.00  0.00     0.024 C 
HETATM    3  C   UNL     1       8.876   0.696  24.331  1.00  0.00     0.017 C 
HETATM    4  C   UNL     1       9.675   0.193  25.360  1.00  0.00     0.087 C 
HETATM    5  N   UNL     1       9.611  -4.329  22.640  1.00  0.00    -0.191 NA
HETATM    6  C   UNL     1       8.012  -0.045  23.521  1.00  0.00     0.003 C 
HETATM    7  C   UNL     1       9.260  -3.455  23.251  1.00  0.00     0.101 C 
HETATM    8  C   UNL     1       8.900  -2.296  23.943  1.00  0.00     0.059 C 
HETATM    9  N   UNL     1       9.907  -1.044  25.767  1.00  0.00    -0.374 N 
ATOM     10  HN  UNL     1      10.275  -1.151  26.712  1.00  0.00     0.164 HD
ENDROOT
TORSDOF 1
