stable:False satoms:10 tatoms:24 sratio:0.4166666666666667
  -OEChem-07092417443D

 24 26  0     1  0  0  0  0  0999 V2000
    6.4129   -4.9453   26.4352 Cl  0  0  0  0  0  0  0  0  0  0  0  0
    8.2358   -4.3387   26.0419 S   0  0  0  0  0  0  0  0  0  0  0  0
    8.9965   -5.5040   25.7941 O   0  0  0  0  0  0  0  0  0  0  0  0
    8.6610   -3.5390   27.1346 O   0  0  0  0  0  0  0  0  0  0  0  0
    8.0788   -3.4802   24.6677 N   0  0  0  0  0  0  0  0  0  0  0  0
    8.8267   -2.7928   24.1475 C   0  0  0  0  0  0  0  0  0  0  0  0
    9.3033   -1.8913   23.4990 C   0  0  0  0  0  0  0  0  0  0  0  0
   10.5939   -0.8736   23.3122 C   0  0  1  0  0  0  0  0  0  0  0  0
   11.1996   -0.0266   24.2374 C   0  0  0  0  0  0  0  0  0  0  0  0
   12.2506    0.3827   24.3470 N   0  0  0  0  0  0  0  0  0  0  0  0
   13.0435   -0.1598   23.5170 C   0  0  0  0  0  0  0  0  0  0  0  0
   12.8253   -0.9987   22.6899 C   0  0  0  0  0  0  0  0  0  0  0  0
   11.8332   -1.3205   22.5828 C   0  0  0  0  0  0  0  0  0  0  0  0
    9.5261   -0.8700   22.6616 C   0  0  3  0  0  0  0  0  0  0  0  0
    8.9536   -0.0175   21.4749 C   0  0  0  0  0  0  0  0  0  0  0  0
    9.5147    0.9235   21.0341 O   0  0  0  0  0  0  0  0  0  0  0  0
    7.7958   -0.5208   21.1327 N   0  0  0  0  0  0  0  0  0  0  0  0
    7.0576   -0.1038   20.1666 C   0  0  0  0  0  0  0  0  0  0  0  0
    7.3470   -0.2638   18.8613 N   0  0  0  0  0  0  0  0  0  0  0  0
    6.7093    0.1856   17.9207 N   0  0  0  0  0  0  0  0  0  0  0  0
    5.8042    0.7321   18.2700 C   0  0  0  0  0  0  0  0  0  0  0  0
    5.3850    0.9121   19.3927 C   0  0  0  0  0  0  0  0  0  0  0  0
    5.8167    0.5537   20.4965 C   0  0  0  0  0  0  0  0  0  0  0  0
    5.4129    0.6664   21.4792 H   0  0  0  0  0  0  0  0  0  0  0  0
 20 21  2  0  0  0  0
 19 20  1  0  0  0  0
 21 22  1  0  0  0  0
 18 19  2  0  0  0  0
 22 23  2  0  0  0  0
 18 23  1  0  0  0  0
 17 18  1  0  0  0  0
 23 24  1  0  0  0  0
 15 16  2  0  0  0  0
 15 17  1  0  0  0  0
 14 15  1  0  0  0  0
 12 13  1  0  0  0  0
  8 13  1  0  0  0  0
  8 14  1  0  0  0  0
  7 14  1  0  0  0  0
 11 12  2  0  0  0  0
  7  8  1  0  0  0  0
  8  9  1  0  0  0  0
  6  7  2  0  0  0  0
 10 11  1  0  0  0  0
  5  6  1  0  0  0  0
  9 10  2  0  0  0  0
  2  5  1  0  0  0  0
  2  3  2  0  0  0  0
  1  2  1  0  0  0  0
  2  4  2  0  0  0  0
M  END
> <Shapegauss>
-284.065125

$$$$
