stable:False satoms:10 tatoms:24 sratio:0.4166666666666667
  -OEChem-08062412193D

 35 37  0     1  0  0  0  0  0999 V2000
   -6.3454   -5.2931  -26.2705 Cl  0  0  0  0  0  0  0  0  0  0  0  0
   -8.1775   -4.6354  -26.0327 S   0  0  0  0  0  0  0  0  0  0  0  0
   -8.9785   -5.7738  -25.7868 O   0  0  0  0  0  0  0  0  0  0  0  0
   -8.5091   -3.8791  -27.1870 O   0  0  0  0  0  0  0  0  0  0  0  0
   -8.0968   -3.7176  -24.6907 N   0  0  0  0  0  0  0  0  0  0  0  0
   -8.8637   -2.9932  -24.2551 C   0  0  0  0  0  0  0  0  0  0  0  0
   -9.3641   -2.0541  -23.6823 C   0  0  0  0  0  0  0  0  0  0  0  0
  -10.6422   -1.0052  -23.6315 C   0  0  1  0  0  0  0  0  0  0  0  0
  -11.1643   -0.1906  -24.6336 C   0  0  0  0  0  0  0  0  0  0  0  0
  -12.1962    0.2326  -24.8344 N   0  0  0  0  0  0  0  0  0  0  0  0
  -13.0558   -0.2563  -24.0382 C   0  0  0  0  0  0  0  0  0  0  0  0
  -12.9133   -1.0602  -23.1613 C   0  0  0  0  0  0  0  0  0  0  0  0
  -11.9381   -1.3950  -22.9711 C   0  0  0  0  0  0  0  0  0  0  0  0
   -9.6218   -0.9914  -22.9089 C   0  0  3  0  0  0  0  0  0  0  0  0
   -9.1140   -0.0959  -21.7245 C   0  0  0  0  0  0  0  0  0  0  0  0
   -9.6835    0.8747  -21.3663 O   0  0  0  0  0  0  0  0  0  0  0  0
   -7.9936   -0.6042  -21.2803 N   0  0  0  0  0  0  0  0  0  0  0  0
   -7.3148   -0.1569  -20.2846 C   0  0  0  0  0  0  0  0  0  0  0  0
   -7.6967   -0.2512  -18.9968 N   0  0  0  0  0  0  0  0  0  0  0  0
   -7.1156    0.2291  -18.0351 N   0  0  0  0  0  0  0  0  0  0  0  0
   -6.1770    0.7421  -18.3445 C   0  0  0  0  0  0  0  0  0  0  0  0
   -5.6778    0.8624  -19.4422 C   0  0  0  0  0  0  0  0  0  0  0  0
   -6.0402    0.4616  -20.5563 C   0  0  0  0  0  0  0  0  0  0  0  0
   -5.5674    0.5215  -21.5125 H   0  0  0  0  0  0  0  0  0  0  0  0
   -7.2794   -3.1575  -24.8253 H   0  0  0  0  0  0  0  0  0  0  0  0
   -9.7658   -3.4914  -24.5781 H   0  0  0  0  0  0  0  0  0  0  0  0
  -10.4328    0.0979  -25.3740 H   0  0  0  0  0  0  0  0  0  0  0  0
  -14.0646    0.1058  -24.1711 H   0  0  0  0  0  0  0  0  0  0  0  0
  -13.7544   -1.4247  -22.5904 H   0  0  0  0  0  0  0  0  0  0  0  0
  -11.7776   -1.1686  -21.9066 H   0  0  0  0  0  0  0  0  0  0  0  0
  -11.9948   -2.4847  -23.1096 H   0  0  0  0  0  0  0  0  0  0  0  0
   -9.1121   -0.3355  -23.6300 H   0  0  0  0  0  0  0  0  0  0  0  0
   -7.6353   -1.4081  -21.7549 H   0  0  0  0  0  0  0  0  0  0  0  0
   -5.6248    1.2052  -17.5401 H   0  0  0  0  0  0  0  0  0  0  0  0
   -4.7518    1.4183  -19.4501 H   0  0  0  0  0  0  0  0  0  0  0  0
 20 21  2  0  0  0  0
 19 20  1  0  0  0  0
 21 22  1  0  0  0  0
 18 19  2  0  0  0  0
 22 23  2  0  0  0  0
 18 23  1  0  0  0  0
 17 18  1  0  0  0  0
 23 24  1  0  0  0  0
 15 16  2  0  0  0  0
 15 17  1  0  0  0  0
 14 15  1  0  0  0  0
 12 13  1  0  0  0  0
  8 13  1  0  0  0  0
  8 14  1  0  0  0  0
  7 14  1  0  0  0  0
 11 12  2  0  0  0  0
  7  8  1  0  0  0  0
  8  9  1  0  0  0  0
  6  7  2  0  0  0  0
 10 11  1  0  0  0  0
  5  6  1  0  0  0  0
  9 10  2  0  0  0  0
  2  5  1  0  0  0  0
  2  3  2  0  0  0  0
  1  2  1  0  0  0  0
  2  4  2  0  0  0  0
  5 25  1  0  0  0  0
  6 26  1  0  0  0  0
  9 27  1  0  0  0  0
 11 28  1  0  0  0  0
 12 29  1  0  0  0  0
 13 30  1  0  0  0  0
 13 31  1  0  0  0  0
 14 32  1  0  0  0  0
 17 33  1  0  0  0  0
 21 34  1  0  0  0  0
 22 35  1  0  0  0  0
M  END
> <Chemgauss4>
-12.010493

$$$$
