stable:False satoms:10 tatoms:24 sratio:0.4166666666666667
  -OEChem-08062412193D

 35 37  0     1  0  0  0  0  0999 V2000
    6.1574   -5.4188   26.3322 Cl  0  0  0  0  0  0  0  0  0  0  0  0
    7.9895   -4.7611   26.0944 S   0  0  0  0  0  0  0  0  0  0  0  0
    8.7905   -5.8995   25.8484 O   0  0  0  0  0  0  0  0  0  0  0  0
    8.3211   -4.0048   27.2487 O   0  0  0  0  0  0  0  0  0  0  0  0
    7.9089   -3.8433   24.7523 N   0  0  0  0  0  0  0  0  0  0  0  0
    8.6757   -3.1189   24.3167 C   0  0  0  0  0  0  0  0  0  0  0  0
    9.1761   -2.1798   23.7439 C   0  0  0  0  0  0  0  0  0  0  0  0
   10.4542   -1.1309   23.6932 C   0  0  1  0  0  0  0  0  0  0  0  0
   10.9763   -0.3163   24.6952 C   0  0  0  0  0  0  0  0  0  0  0  0
   12.0082    0.1069   24.8960 N   0  0  0  0  0  0  0  0  0  0  0  0
   12.8679   -0.3820   24.0999 C   0  0  0  0  0  0  0  0  0  0  0  0
   12.7253   -1.1859   23.2229 C   0  0  0  0  0  0  0  0  0  0  0  0
   11.7501   -1.5207   23.0327 C   0  0  0  0  0  0  0  0  0  0  0  0
    9.4338   -1.1171   22.9705 C   0  0  3  0  0  0  0  0  0  0  0  0
    8.9260   -0.2216   21.7861 C   0  0  0  0  0  0  0  0  0  0  0  0
    9.4956    0.7490   21.4279 O   0  0  0  0  0  0  0  0  0  0  0  0
    7.8057   -0.7299   21.3419 N   0  0  0  0  0  0  0  0  0  0  0  0
    7.1268   -0.2826   20.3463 C   0  0  0  0  0  0  0  0  0  0  0  0
    7.5087   -0.3769   19.0585 N   0  0  0  0  0  0  0  0  0  0  0  0
    6.9276    0.1034   18.0967 N   0  0  0  0  0  0  0  0  0  0  0  0
    5.9890    0.6164   18.4062 C   0  0  0  0  0  0  0  0  0  0  0  0
    5.4898    0.7367   19.5038 C   0  0  0  0  0  0  0  0  0  0  0  0
    5.8522    0.3359   20.6179 C   0  0  0  0  0  0  0  0  0  0  0  0
    5.3794    0.3957   21.5741 H   0  0  0  0  0  0  0  0  0  0  0  0
    7.0914   -3.2832   24.8870 H   0  0  0  0  0  0  0  0  0  0  0  0
    9.5778   -3.6171   24.6397 H   0  0  0  0  0  0  0  0  0  0  0  0
   10.2449   -0.0278   25.4356 H   0  0  0  0  0  0  0  0  0  0  0  0
   13.8766   -0.0199   24.2328 H   0  0  0  0  0  0  0  0  0  0  0  0
   13.5665   -1.5504   22.6520 H   0  0  0  0  0  0  0  0  0  0  0  0
   11.5896   -1.2943   21.9683 H   0  0  0  0  0  0  0  0  0  0  0  0
   11.8068   -2.6105   23.1713 H   0  0  0  0  0  0  0  0  0  0  0  0
    8.9242   -0.4612   23.6917 H   0  0  0  0  0  0  0  0  0  0  0  0
    7.4473   -1.5338   21.8166 H   0  0  0  0  0  0  0  0  0  0  0  0
    5.4369    1.0795   17.6017 H   0  0  0  0  0  0  0  0  0  0  0  0
    4.5638    1.2925   19.5118 H   0  0  0  0  0  0  0  0  0  0  0  0
 20 21  2  0  0  0  0
 19 20  1  0  0  0  0
 21 22  1  0  0  0  0
 18 19  2  0  0  0  0
 22 23  2  0  0  0  0
 18 23  1  0  0  0  0
 17 18  1  0  0  0  0
 23 24  1  0  0  0  0
 15 16  2  0  0  0  0
 15 17  1  0  0  0  0
 14 15  1  0  0  0  0
 12 13  1  0  0  0  0
  8 13  1  0  0  0  0
  8 14  1  0  0  0  0
  7 14  1  0  0  0  0
 11 12  2  0  0  0  0
  7  8  1  0  0  0  0
  8  9  1  0  0  0  0
  6  7  2  0  0  0  0
 10 11  1  0  0  0  0
  5  6  1  0  0  0  0
  9 10  2  0  0  0  0
  2  5  1  0  0  0  0
  2  3  2  0  0  0  0
  1  2  1  0  0  0  0
  2  4  2  0  0  0  0
  5 25  1  0  0  0  0
  6 26  1  0  0  0  0
  9 27  1  0  0  0  0
 11 28  1  0  0  0  0
 12 29  1  0  0  0  0
 13 30  1  0  0  0  0
 13 31  1  0  0  0  0
 14 32  1  0  0  0  0
 17 33  1  0  0  0  0
 21 34  1  0  0  0  0
 22 35  1  0  0  0  0
M  END
> <Chemgauss4>
-11.582557

$$$$
