stable:False satoms:17 tatoms:24 sratio:0.7083333333333334
  -OEChem-07092417363D

 24 24  0     1  0  0  0  0  0999 V2000
    7.4672   -4.9068   25.2372 H   0  0  0  0  0  0  0  0  0  0  0  0
    8.9844   -4.2964   24.7823 H   0  0  0  0  0  0  0  0  0  0  0  0
    8.8869   -5.5754   25.8044 H   0  0  0  0  0  0  0  0  0  0  0  0
    8.1574   -2.6009   24.9666 H   0  0  0  0  0  0  0  0  0  0  0  0
    8.4328   -4.8454   25.3052 N   0  0  0  0  0  0  0  0  0  0  0  0
    9.2611   -1.5844   23.6167 C   0  0  0  0  0  0  0  0  0  0  0  0
    8.9446   -0.5090   22.5291 C   0  0  0  0  0  0  0  0  0  0  0  0
    9.0525   -2.1815   24.3385 C   0  0  0  0  0  0  0  0  0  0  0  0
   10.2845   -1.9820   24.2609 N   0  0  0  0  0  0  0  0  0  0  0  0
   11.8741   -0.5327   23.8265 O   0  0  0  0  0  0  0  0  0  0  0  0
   13.1349    0.7183   22.7922 H   0  0  0  0  0  0  0  0  0  0  0  0
   12.4095    0.0307   22.8049 C   0  3  0  0  0  0  0  0  0  0  0  0
   11.0421   -2.4978   23.9356 H   0  0  0  0  0  0  0  0  0  0  0  0
   11.2661   -0.0896   22.8742 C   0  0  3  0  0  0  0  0  0  0  0  0
    9.9495    0.1305   22.4188 C   0  0  0  0  0  0  0  0  0  0  0  0
    8.0070    0.2789   20.7761 O   0  0  0  0  0  0  0  0  0  0  0  0
    7.7946   -0.3584   21.8451 C   0  0  0  0  0  0  0  0  0  0  0  0
    6.8811    1.0595   20.6182 O   0  0  0  0  0  0  0  0  0  0  0  0
    7.7399    0.4819   18.8168 H   0  0  0  0  0  0  0  0  0  0  0  0
    6.9067    0.7974   18.5309 O   0  0  0  0  0  0  0  0  0  0  0  0
    5.2427    1.4146   19.4453 H   0  0  0  0  0  0  0  0  0  0  0  0
    5.6212   -0.2372   19.7680 H   0  0  0  0  0  0  0  0  0  0  0  0
    6.0683    0.7287   19.6095 C   0  0  0  0  0  0  0  0  0  0  0  0
    6.1750   -0.7332   22.3936 Cl  0  0  0  0  0  0  0  0  0  0  0  0
 19 20  1  0  0  0  0
 20 23  1  0  0  0  0
 21 23  1  0  0  0  0
 22 23  1  0  0  0  0
 18 23  1  0  0  0  0
 16 18  1  0  0  0  0
 16 17  1  0  0  0  0
 17 24  1  0  0  0  0
  7 17  2  0  0  0  0
  7 15  1  0  0  0  0
 14 15  1  0  0  0  0
  6  7  1  0  0  0  0
 11 12  1  0  0  0  0
 12 14  1  0  0  0  0
 10 12  1  0  0  0  0
 10 14  1  0  0  0  0
  6  9  1  0  0  0  0
  6  8  2  0  0  0  0
  9 13  1  0  0  0  0
  8  9  1  0  0  0  0
  4  8  1  0  0  0  0
  2  5  1  0  0  0  0
  1  5  1  0  0  0  0
  3  5  1  0  0  0  0
M  CHG  1  12   1
M  END
> <Shapegauss>
-158.970261

$$$$
