REMARK  2 active torsions:
REMARK  status: ('A' for Active; 'I' for Inactive)
REMARK    1  A    between atoms: C_7  and  N_12 
REMARK    2  A    between atoms: C_8  and  C_11 
REMARK       I    between atoms: C_8  and  N_12 
ROOT
HETATM    1  O   UNL     1       7.343   0.277  19.994  1.00  0.00    -0.401 OA
HETATM    2  C   UNL     1       6.716  -0.729  19.423  1.00  0.00     0.200 C 
HETATM    3  C   UNL     1       6.490   0.993  20.731  1.00  0.00     0.200 C 
ENDROOT
TORSDOF 2
