stable:False satoms:17 tatoms:24 sratio:0.7083333333333334
  -OEChem-07092417353D

 24 23  0     0  0  0  0  0  0999 V2000
    7.5603   -4.0357   26.8010 O   0  0  0  0  0  0  0  0  0  0  0  0
    9.2776   -5.4583   25.3209 H   0  0  0  0  0  0  0  0  0  0  0  0
    9.1013   -4.4485   25.0823 C   0  3  0  0  0  0  0  0  0  0  0  0
    8.2866   -3.6387   25.8851 C   0  0  0  0  0  0  0  0  0  0  0  0
    8.3215   -2.3796   25.3691 N   0  0  0  0  0  0  0  0  0  0  0  0
    9.6054   -3.5923   23.6631 S   0  0  0  0  0  0  0  0  0  0  0  0
    9.0782   -2.1007   24.3233 C   0  0  0  0  0  0  0  0  0  0  0  0
   10.3768   -0.1479   23.7497 C   0  0  0  0  0  0  0  0  0  0  0  0
    9.7021   -0.1578   21.4785 C   0  0  0  0  0  0  0  0  0  0  0  0
   10.8060    0.7489   24.4633 O   0  0  0  0  0  0  0  0  0  0  0  0
   11.8296    0.2452   22.2612 H   0  0  0  0  0  0  0  0  0  0  0  0
   10.9604   -0.4067   22.3612 C   0  0  0  0  0  0  0  0  0  0  0  0
   11.2735   -1.4412   22.2663 H   0  0  0  0  0  0  0  0  0  0  0  0
    9.3423   -0.8899   23.9476 N   0  0  0  0  0  0  0  0  0  0  0  0
    9.0342   -1.0122   21.5665 H   0  0  0  0  0  0  0  0  0  0  0  0
   10.0054   -0.0362   20.4758 H   0  0  0  0  0  0  0  0  0  0  0  0
    7.3431    0.2767   19.9940 O   0  0  0  0  0  0  0  0  0  0  0  0
    9.0548    0.7113   21.6860 H   0  0  0  0  0  0  0  0  0  0  0  0
    6.2897   -1.4456   20.0831 H   0  0  0  0  0  0  0  0  0  0  0  0
    6.7585   -0.8765   18.3902 H   0  0  0  0  0  0  0  0  0  0  0  0
    6.7159   -0.7285   19.4232 C   0  3  0  0  0  0  0  0  0  0  0  0
    6.1794    1.9153   20.3198 H   0  0  0  0  0  0  0  0  0  0  0  0
    6.1913    0.6159   21.6544 H   0  0  0  0  0  0  0  0  0  0  0  0
    6.4902    0.9928   20.7311 C   0  3  0  0  0  0  0  0  0  0  0  0
 20 21  1  0  0  0  0
 17 21  1  0  0  0  0
 19 21  1  0  0  0  0
 17 24  1  0  0  0  0
 22 24  1  0  0  0  0
  9 16  1  0  0  0  0
 23 24  1  0  0  0  0
  9 15  1  0  0  0  0
  9 18  1  0  0  0  0
  9 12  1  0  0  0  0
 11 12  1  0  0  0  0
 12 13  1  0  0  0  0
  8 12  1  0  0  0  0
  6  7  1  0  0  0  0
  3  6  1  0  0  0  0
  8 14  1  0  0  0  0
  8 10  2  0  0  0  0
  7 14  1  0  0  0  0
  5  7  2  0  0  0  0
  2  3  1  0  0  0  0
  3  4  1  0  0  0  0
  4  5  1  0  0  0  0
  1  4  2  0  0  0  0
M  CHG  3   3   1  21   1  24   1
M  END
> <Shapegauss>
-148.675461

$$$$
