stable:False satoms:20 tatoms:24 sratio:0.8333333333333334
  -OEChem-08052419473D

 24 24  0     1  0  0  0  0  0999 V2000
   10.1339   -3.1906   23.6854 H   0  0  0  0  0  0  0  0  0  0  0  0
    9.9532   -2.3605   22.9729 C   0  0  0  0  0  0  0  0  0  0  0  0
    8.9053    0.6192   25.1587 O   0  0  0  0  0  0  0  0  0  0  0  0
    7.8758   -2.6252   22.8209 H   0  0  0  0  0  0  0  0  0  0  0  0
    8.3973   -1.8463   24.3337 H   0  0  0  0  0  0  0  0  0  0  0  0
    9.0153    1.2385   22.8591 C   0  0  0  0  0  0  0  0  0  0  0  0
   11.7249    1.4664   24.6422 H   0  0  0  0  0  0  0  0  0  0  0  0
   13.1383    1.3712   23.9415 H   0  0  0  0  0  0  0  0  0  0  0  0
   10.9844   -1.2990   23.1187 C   0  0  1  0  0  0  0  0  0  0  0  0
    7.9234    1.3112   22.9025 H   0  0  0  0  0  0  0  0  0  0  0  0
    9.2529    0.7126   21.9367 H   0  0  0  0  0  0  0  0  0  0  0  0
    9.3957    2.2648   22.7800 H   0  0  0  0  0  0  0  0  0  0  0  0
    9.5331    0.5965   24.1152 C   0  0  0  0  0  0  0  0  0  0  0  0
    8.2310   -0.9217   22.8373 H   0  0  0  0  0  0  0  0  0  0  0  0
   10.8447   -0.7099   25.0584 H   0  0  0  0  0  0  0  0  0  0  0  0
    8.5418   -1.8840   23.2470 C   0  0  0  0  0  0  0  0  0  0  0  0
   10.8307   -0.2274   24.0658 C   0  0  2  0  0  0  0  0  0  0  0  0
   12.1143    0.8719   22.8670 H   0  0  0  0  0  0  0  0  0  0  0  0
   13.1094   -0.5169   24.5255 C   0  0  0  0  0  2  0  0  0  0  0  0
   12.2206    0.7005   23.9711 C   0  0  0  0  0  0  0  0  0  0  0  0
   12.2039   -1.5306   22.5952 O   0  0  0  0  0  0  0  0  0  0  0  0
   13.6754   -1.4750   23.3987 S   0  0  0  0  0  0  0  0  0  0  0  0
   10.1368   -2.7689   21.9607 H   0  0  0  0  0  0  0  0  0  0  0  0
   10.6239   -0.7115   22.2615 H   0  0  0  0  0  0  0  0  0  0  0  0
  8 20  1  0  0  0  0
  7 20  1  0  0  0  0
 19 20  1  0  0  0  0
 18 20  1  0  0  0  0
 17 20  1  0  0  0  0
 19 22  1  0  0  0  0
 21 22  1  0  0  0  0
  6 12  1  0  0  0  0
 15 17  1  0  0  0  0
 13 17  1  0  0  0  0
  9 17  1  0  0  0  0
  9 21  1  0  0  0  0
  3 13  2  0  0  0  0
  6 13  1  0  0  0  0
  6 11  1  0  0  0  0
  6 10  1  0  0  0  0
  2  9  1  0  0  0  0
  1  2  1  0  0  0  0
  2 23  1  0  0  0  0
  2 16  1  0  0  0  0
 14 16  1  0  0  0  0
  5 16  1  0  0  0  0
  4 16  1  0  0  0  0
  9 24  1  0  0  0  0
M  END
> <Chemgauss4>
-5.698779

$$$$
