stable:False satoms:20 tatoms:24 sratio:0.8333333333333334
  -OEChem-08052419473D

 24 24  0     1  0  0  0  0  0999 V2000
   -9.9412   -3.1167  -24.1110 H   0  0  0  0  0  0  0  0  0  0  0  0
   -9.7007   -2.2473  -23.4662 C   0  0  0  0  0  0  0  0  0  0  0  0
   -9.3073    0.7098  -25.8860 O   0  0  0  0  0  0  0  0  0  0  0  0
   -7.6159   -2.3528  -23.6926 H   0  0  0  0  0  0  0  0  0  0  0  0
   -8.4637   -1.6762  -25.1035 H   0  0  0  0  0  0  0  0  0  0  0  0
   -9.0467    1.4124  -23.6227 C   0  0  0  0  0  0  0  0  0  0  0  0
  -12.0446    1.3684  -24.8815 H   0  0  0  0  0  0  0  0  0  0  0  0
  -13.2950    1.1985  -23.9301 H   0  0  0  0  0  0  0  0  0  0  0  0
  -10.8222   -1.2710  -23.4477 C   0  0  1  0  0  0  0  0  0  0  0  0
   -7.9901    1.5630  -23.8685 H   0  0  0  0  0  0  0  0  0  0  0  0
   -9.0703    0.9084  -22.6587 H   0  0  0  0  0  0  0  0  0  0  0  0
   -9.4868    2.4104  -23.5022 H   0  0  0  0  0  0  0  0  0  0  0  0
   -9.7313    0.6836  -24.7444 C   0  0  0  0  0  0  0  0  0  0  0  0
   -8.1023   -0.6819  -23.6884 H   0  0  0  0  0  0  0  0  0  0  0  0
  -11.0845   -0.7527  -25.3949 H   0  0  0  0  0  0  0  0  0  0  0  0
   -8.4049   -1.6803  -24.0082 C   0  0  0  0  0  0  0  0  0  0  0  0
  -10.9288   -0.2304  -24.4349 C   0  0  2  0  0  0  0  0  0  0  0  0
  -12.0565    0.8197  -23.0498 H   0  0  0  0  0  0  0  0  0  0  0  0
  -13.2227   -0.7045  -24.4591 C   0  0  0  0  0  2  0  0  0  0  0  0
  -12.3476    0.5962  -24.1105 C   0  0  0  0  0  0  0  0  0  0  0  0
  -11.9040   -1.5698  -22.7025 O   0  0  0  0  0  0  0  0  0  0  0  0
  -13.4966   -1.6550  -23.2223 S   0  0  0  0  0  0  0  0  0  0  0  0
   -9.6643   -2.6266  -22.4271 H   0  0  0  0  0  0  0  0  0  0  0  0
  -10.3599   -0.6244  -22.6874 H   0  0  0  0  0  0  0  0  0  0  0  0
  8 20  1  0  0  0  0
  7 20  1  0  0  0  0
 19 20  1  0  0  0  0
 18 20  1  0  0  0  0
 17 20  1  0  0  0  0
 19 22  1  0  0  0  0
 21 22  1  0  0  0  0
  6 12  1  0  0  0  0
 15 17  1  0  0  0  0
 13 17  1  0  0  0  0
  9 17  1  0  0  0  0
  9 21  1  0  0  0  0
  3 13  2  0  0  0  0
  6 13  1  0  0  0  0
  6 11  1  0  0  0  0
  6 10  1  0  0  0  0
  2  9  1  0  0  0  0
  1  2  1  0  0  0  0
  2 23  1  0  0  0  0
  2 16  1  0  0  0  0
 14 16  1  0  0  0  0
  5 16  1  0  0  0  0
  4 16  1  0  0  0  0
  9 24  1  0  0  0  0
M  END
> <Chemgauss4>
-5.811494

$$$$
