
 OpenBabel07202414163D

 52 55  0  0  1  0  0  0  0  0999 V2000
   -5.0524    4.4900    4.8437 C   0  0  0  0  0  0  0  0  0  0  0  0
   -3.5657    4.3107    4.9808 C   0  0  0  0  0  0  0  0  0  0  0  0
   -3.0093    4.4098    6.2680 C   0  0  0  0  0  0  0  0  0  0  0  0
   -1.6479    4.2287    6.4373 C   0  0  0  0  0  0  0  0  0  0  0  0
   -0.8080    3.9370    5.4312 N   0  0  0  0  0  0  0  0  0  0  0  0
   -1.3557    3.8440    4.1949 C   0  0  0  0  0  0  0  0  0  0  0  0
   -2.7121    4.0306    3.8979 C   0  0  0  0  0  0  0  0  0  0  0  0
   -3.2300    3.9339    2.5781 N   0  0  0  0  0  0  0  0  0  0  0  0
   -2.4744    3.9378    1.4193 C   0  0  0  0  0  0  0  0  0  0  0  0
   -1.2546    4.1035    1.3781 O   0  0  0  0  0  0  0  0  0  0  0  0
   -3.2094    3.7550    0.1021 C   0  0  0  0  0  0  0  0  0  0  0  0
   -4.6979    3.5363    0.1489 C   0  0  0  0  0  0  0  0  0  0  0  0
   -5.5677    4.6397    0.1863 C   0  0  0  0  0  0  0  0  0  0  0  0
   -6.9658    4.4884    0.1809 C   0  0  0  0  0  0  0  0  0  0  0  0
   -7.4680    3.1736    0.1537 C   0  0  0  0  0  0  0  0  0  0  0  0
   -6.6118    2.0717    0.1456 C   0  0  0  0  0  0  0  0  0  0  0  0
   -5.2321    2.2443    0.1459 C   0  0  0  0  0  0  0  0  0  0  0  0
   -7.2699    0.4811    0.1345 Cl  0  0  0  0  0  0  0  0  0  0  0  0
   -7.8678    5.6640    0.2019 C   0  0  0  0  0  0  0  0  0  0  0  0
   -7.5145    6.8790   -0.4047 C   0  0  0  0  0  0  0  0  0  0  0  0
   -8.3616    7.9955   -0.3600 C   0  0  0  0  0  0  0  0  0  0  0  0
   -9.6134    7.9610    0.2759 C   0  0  0  0  0  0  0  0  0  0  0  0
   -9.9680    6.7313    0.8597 C   0  0  0  0  0  0  0  0  0  0  0  0
   -9.1171    5.6181    0.8367 C   0  0  0  0  0  0  0  0  0  0  0  0
  -10.5633    9.2359    0.3643 C   0  0  3  0  0  0  0  0  0  0  0  0
  -11.9460    9.1431   -0.3253 C   0  0  0  0  0  0  0  0  0  0  0  0
  -11.5894   10.5082   -0.9054 C   0  0  0  0  0  0  0  0  0  0  0  0
  -10.1988   10.3356   -0.5339 O   0  0  0  0  0  0  0  0  0  0  0  0
  -10.6015    9.7569    1.8054 C   0  0  0  0  0  0  0  0  0  0  0  0
   -5.4765    4.9684    5.7350 H   0  0  0  0  0  0  0  0  0  0  0  0
   -5.5394    3.5175    4.7205 H   0  0  0  0  0  0  0  0  0  0  0  0
   -5.2997    5.1365    3.9967 H   0  0  0  0  0  0  0  0  0  0  0  0
   -3.6243    4.6336    7.1340 H   0  0  0  0  0  0  0  0  0  0  0  0
   -1.1837    4.3158    7.4156 H   0  0  0  0  0  0  0  0  0  0  0  0
   -0.6304    3.5724    3.4358 H   0  0  0  0  0  0  0  0  0  0  0  0
   -4.2366    3.9625    2.4842 H   0  0  0  0  0  0  0  0  0  0  0  0
   -2.7399    2.9087   -0.4157 H   0  0  0  0  0  0  0  0  0  0  0  0
   -3.0034    4.6414   -0.5120 H   0  0  0  0  0  0  0  0  0  0  0  0
   -5.1337    5.6397    0.2137 H   0  0  0  0  0  0  0  0  0  0  0  0
   -8.5405    2.9969    0.1221 H   0  0  0  0  0  0  0  0  0  0  0  0
   -4.5764    1.3755    0.1245 H   0  0  0  0  0  0  0  0  0  0  0  0
   -6.5703    6.9865   -0.9342 H   0  0  0  0  0  0  0  0  0  0  0  0
   -8.0344    8.9222   -0.8318 H   0  0  0  0  0  0  0  0  0  0  0  0
  -10.9281    6.6394    1.3651 H   0  0  0  0  0  0  0  0  0  0  0  0
   -9.4512    4.7162    1.3444 H   0  0  0  0  0  0  0  0  0  0  0  0
  -12.8176    9.1223    0.3333 H   0  0  0  0  0  0  0  0  0  0  0  0
  -12.0374    8.3555   -1.0797 H   0  0  0  0  0  0  0  0  0  0  0  0
  -12.0296   11.3691   -0.3924 H   0  0  0  0  0  0  0  0  0  0  0  0
  -11.7205   10.6125   -1.9856 H   0  0  0  0  0  0  0  0  0  0  0  0
  -11.0492    9.0183    2.4790 H   0  0  0  0  0  0  0  0  0  0  0  0
  -11.1922   10.6755    1.8879 H   0  0  0  0  0  0  0  0  0  0  0  0
   -9.5915    9.9812    2.1663 H   0  0  0  0  0  0  0  0  0  0  0  0
  1  2  1  0  0  0  0
  1 30  1  0  0  0  0
  1 31  1  0  0  0  0
  1 32  1  0  0  0  0
  2  3  1  0  0  0  0
  2  7  2  0  0  0  0
  3  4  2  0  0  0  0
  3 33  1  0  0  0  0
  4  5  1  0  0  0  0
  4 34  1  0  0  0  0
  5  6  2  0  0  0  0
  6  7  1  0  0  0  0
  6 35  1  0  0  0  0
  7  8  1  0  0  0  0
  8  9  1  0  0  0  0
  8 36  1  0  0  0  0
  9 10  2  0  0  0  0
  9 11  1  0  0  0  0
 11 12  1  0  0  0  0
 11 37  1  0  0  0  0
 11 38  1  0  0  0  0
 12 13  1  0  0  0  0
 12 17  2  0  0  0  0
 13 14  2  0  0  0  0
 13 39  1  0  0  0  0
 14 15  1  0  0  0  0
 14 19  1  0  0  0  0
 15 16  2  0  0  0  0
 15 40  1  0  0  0  0
 16 17  1  0  0  0  0
 16 18  1  0  0  0  0
 17 41  1  0  0  0  0
 19 20  1  0  0  0  0
 19 24  2  0  0  0  0
 20 21  2  0  0  0  0
 20 42  1  0  0  0  0
 21 22  1  0  0  0  0
 21 43  1  0  0  0  0
 22 23  2  0  0  0  0
 22 25  1  0  0  0  0
 23 24  1  0  0  0  0
 23 44  1  0  0  0  0
 24 45  1  0  0  0  0
 25 26  1  0  0  0  0
 25 28  1  0  0  0  0
 25 29  1  0  0  0  0
 26 27  1  0  0  0  0
 26 46  1  0  0  0  0
 26 47  1  0  0  0  0
 27 28  1  0  0  0  0
 27 48  1  0  0  0  0
 27 49  1  0  0  0  0
 29 50  1  0  0  0  0
 29 51  1  0  0  0  0
 29 52  1  0  0  0  0
M  END
$$$$
