REMARK  2 active torsions:
REMARK  status: ('A' for Active; 'I' for Inactive)
REMARK    1  A    between atoms: N_2  and  C_4 
REMARK    2  A    between atoms: N_7  and  N_9 
ROOT
HETATM    1  C   UNL     1       7.995  -1.516  22.292  1.00  0.00     0.195 C 
HETATM    2  O   UNL     1       9.871   0.104  21.053  1.00  0.00    -0.371 OA
HETATM    3  C   UNL     1       7.458  -0.047  22.410  1.00  0.00     0.050 C 
HETATM    4  N   UNL     1       9.303  -1.438  22.723  1.00  0.00    -0.286 N 
HETATM    5  C   UNL     1      10.271  -0.427  22.203  1.00  0.00     0.312 C 
HETATM    6  C   UNL     1       8.683   0.437  20.329  1.00  0.00     0.170 C 
HETATM    7  C   UNL     1       7.422   0.498  21.076  1.00  0.00     0.030 C 
ENDROOT
BRANCH   1   8
HETATM    8  N   UNL     1       7.349  -2.673  22.917  1.00  0.00    -0.409 N 
HETATM    9  H   UNL     1       7.081  -2.716  23.884  1.00  0.00     0.152 HD
HETATM   10  H   UNL     1       6.729  -3.071  22.197  1.00  0.00     0.152 HD
ENDBRANCH   1   8
BRANCH   4  11
HETATM   11  N   UNL     1       9.944  -2.148  23.727  1.00  0.00    -0.339 N 
HETATM   12  C   UNL     1       9.656  -2.845  24.975  1.00  0.00     0.167 C 
HETATM   13  H   UNL     1      10.961  -2.196  23.562  1.00  0.00     0.179 HD
ENDBRANCH   4  11
TORSDOF 2
