MODEL 1
REMARK VINA RESULT:    -4.518      0.000      0.000
REMARK INTER + INTRA:          -4.946
REMARK INTER:                  -4.914
REMARK INTRA:                  -0.032
REMARK UNBOUND:                -0.032
REMARK  2 active torsions:
REMARK  status: ('A' for Active; 'I' for Inactive)
REMARK    1  A    between atoms: N_2  and  C_4 
REMARK    2  A    between atoms: N_7  and  N_9 
ROOT
HETATM    1  C   UNL     1       9.692  14.992   2.683  1.00  0.00     0.195 C 
HETATM    2  O   UNL     1       6.984  15.575   2.639  1.00  0.00    -0.371 OA
HETATM    3  C   UNL     1       9.364  15.462   1.223  1.00  0.00     0.050 C 
HETATM    4  N   UNL     1       8.729  14.045   2.962  1.00  0.00    -0.286 N 
HETATM    5  C   UNL     1       7.270  14.282   2.747  1.00  0.00     0.312 C 
HETATM    6  C   UNL     1       7.549  16.812   2.197  1.00  0.00     0.170 C 
HETATM    7  C   UNL     1       8.729  16.752   1.327  1.00  0.00     0.030 C 
ENDROOT
BRANCH   1   8
HETATM    8  N   UNL     1      11.002  14.486   3.101  1.00  0.00    -0.409 N 
HETATM    9  H   UNL     1      11.772  14.326   2.476  1.00  0.00     0.152 HD
HETATM   10  H   UNL     1      11.175  14.892   4.032  1.00  0.00     0.152 HD
ENDBRANCH   1   8
BRANCH   4  11
HETATM   11  N   UNL     1       8.879  12.729   3.373  1.00  0.00    -0.339 N 
HETATM   12  C   UNL     1       8.082  11.571   3.760  1.00  0.00     0.167 C 
HETATM   13  H   UNL     1       9.875  12.472   3.452  1.00  0.00     0.179 HD
ENDBRANCH   4  11
TORSDOF 2
ENDMDL
MODEL 2
REMARK VINA RESULT:    -4.266     23.909     25.198
REMARK INTER + INTRA:          -4.671
REMARK INTER:                  -4.619
REMARK INTRA:                  -0.052
REMARK UNBOUND:                -0.032
REMARK  2 active torsions:
REMARK  status: ('A' for Active; 'I' for Inactive)
REMARK    1  A    between atoms: N_2  and  C_4 
REMARK    2  A    between atoms: N_7  and  N_9 
ROOT
HETATM    1  C   UNL     1      10.876   1.091  22.727  1.00  0.00     0.195 C 
HETATM    2  O   UNL     1      12.075  -1.376  23.122  1.00  0.00    -0.371 OA
HETATM    3  C   UNL     1      10.670   0.736  24.241  1.00  0.00     0.050 C 
HETATM    4  N   UNL     1      10.473  -0.042  22.052  1.00  0.00    -0.286 N 
HETATM    5  C   UNL     1      10.964  -1.410  22.395  1.00  0.00     0.312 C 
HETATM    6  C   UNL     1      12.752  -0.571  24.091  1.00  0.00     0.170 C 
HETATM    7  C   UNL     1      11.973   0.457  24.790  1.00  0.00     0.030 C 
ENDROOT
BRANCH   1   8
HETATM    8  N   UNL     1      10.297   2.270  22.079  1.00  0.00    -0.409 N 
HETATM    9  H   UNL     1       9.901   2.270  21.156  1.00  0.00     0.152 HD
HETATM   10  H   UNL     1       9.840   2.807  22.830  1.00  0.00     0.152 HD
ENDBRANCH   1   8
BRANCH   4  11
HETATM   11  N   UNL     1       9.523  -0.182  21.052  1.00  0.00    -0.339 N 
HETATM   12  C   UNL     1       8.085  -0.355  20.879  1.00  0.00     0.167 C 
HETATM   13  H   UNL     1       9.958  -0.179  20.117  1.00  0.00     0.179 HD
ENDBRANCH   4  11
TORSDOF 2
ENDMDL
MODEL 3
REMARK VINA RESULT:    -4.222     23.346     25.133
REMARK INTER + INTRA:          -4.624
REMARK INTER:                  -4.575
REMARK INTRA:                  -0.049
REMARK UNBOUND:                -0.032
REMARK  2 active torsions:
REMARK  status: ('A' for Active; 'I' for Inactive)
REMARK    1  A    between atoms: N_2  and  C_4 
REMARK    2  A    between atoms: N_7  and  N_9 
ROOT
HETATM    1  C   UNL     1      10.105  -1.350  22.752  1.00  0.00     0.195 C 
HETATM    2  O   UNL     1      11.021   1.250  23.037  1.00  0.00    -0.371 OA
HETATM    3  C   UNL     1      11.672  -1.433  22.776  1.00  0.00     0.050 C 
HETATM    4  N   UNL     1       9.828  -0.364  21.828  1.00  0.00    -0.286 N 
HETATM    5  C   UNL     1      10.476   0.981  21.856  1.00  0.00     0.312 C 
HETATM    6  C   UNL     1      11.636   0.606  24.157  1.00  0.00     0.170 C 
HETATM    7  C   UNL     1      12.112  -0.770  23.978  1.00  0.00     0.030 C 
ENDROOT
BRANCH   1   8
HETATM    8  N   UNL     1       9.232  -2.501  22.508  1.00  0.00    -0.409 N 
HETATM    9  H   UNL     1       9.557  -3.445  22.408  1.00  0.00     0.152 HD
HETATM   10  H   UNL     1       8.366  -2.312  23.032  1.00  0.00     0.152 HD
ENDBRANCH   1   8
BRANCH   4  11
HETATM   11  N   UNL     1       9.032  -0.418  20.694  1.00  0.00    -0.339 N 
HETATM   12  C   UNL     1       7.753   0.067  20.190  1.00  0.00     0.167 C 
HETATM   13  H   UNL     1       9.463  -1.002  19.961  1.00  0.00     0.179 HD
ENDBRANCH   4  11
TORSDOF 2
ENDMDL
MODEL 4
REMARK VINA RESULT:    -4.173     21.260     22.314
REMARK INTER + INTRA:          -4.571
REMARK INTER:                  -4.539
REMARK INTRA:                  -0.031
REMARK UNBOUND:                -0.032
REMARK  2 active torsions:
REMARK  status: ('A' for Active; 'I' for Inactive)
REMARK    1  A    between atoms: N_2  and  C_4 
REMARK    2  A    between atoms: N_7  and  N_9 
ROOT
HETATM    1  C   UNL     1       4.591   1.699  19.329  1.00  0.00     0.195 C 
HETATM    2  O   UNL     1       6.353  -0.089  20.503  1.00  0.00    -0.371 OA
HETATM    3  C   UNL     1       5.673   1.367  18.243  1.00  0.00     0.050 C 
HETATM    4  N   UNL     1       5.323   2.015  20.455  1.00  0.00    -0.286 N 
HETATM    5  C   UNL     1       6.420   1.149  20.981  1.00  0.00     0.312 C 
HETATM    6  C   UNL     1       5.932  -0.820  19.347  1.00  0.00     0.170 C 
HETATM    7  C   UNL     1       5.708  -0.068  18.107  1.00  0.00     0.030 C 
ENDROOT
BRANCH   1   8
HETATM    8  N   UNL     1       3.532   2.695  19.147  1.00  0.00    -0.409 N 
HETATM    9  H   UNL     1       2.784   2.849  19.799  1.00  0.00     0.152 HD
HETATM   10  H   UNL     1       3.979   3.499  18.683  1.00  0.00     0.152 HD
ENDBRANCH   1   8
BRANCH   4  11
HETATM   11  N   UNL     1       5.287   3.159  21.237  1.00  0.00    -0.339 N 
HETATM   12  C   UNL     1       6.046   3.833  22.284  1.00  0.00     0.167 C 
HETATM   13  H   UNL     1       4.447   3.723  21.039  1.00  0.00     0.179 HD
ENDBRANCH   4  11
TORSDOF 2
ENDMDL
MODEL 5
REMARK VINA RESULT:    -4.057      1.557      2.169
REMARK INTER + INTRA:          -4.444
REMARK INTER:                  -4.406
REMARK INTRA:                  -0.038
REMARK UNBOUND:                -0.032
REMARK  2 active torsions:
REMARK  status: ('A' for Active; 'I' for Inactive)
REMARK    1  A    between atoms: N_2  and  C_4 
REMARK    2  A    between atoms: N_7  and  N_9 
ROOT
HETATM    1  C   UNL     1       8.558  15.038   1.765  1.00  0.00     0.195 C 
HETATM    2  O   UNL     1       9.970  16.479   3.665  1.00  0.00    -0.371 OA
HETATM    3  C   UNL     1       7.548  16.069   2.378  1.00  0.00     0.050 C 
HETATM    4  N   UNL     1       9.144  14.439   2.860  1.00  0.00    -0.286 N 
HETATM    5  C   UNL     1       9.730  15.214   3.994  1.00  0.00     0.312 C 
HETATM    6  C   UNL     1       9.488  17.523   2.814  1.00  0.00     0.170 C 
HETATM    7  C   UNL     1       8.144  17.375   2.245  1.00  0.00     0.030 C 
ENDROOT
BRANCH   1   8
HETATM    8  N   UNL     1       8.182  14.007   0.794  1.00  0.00    -0.409 N 
HETATM    9  H   UNL     1       7.887  14.197  -0.147  1.00  0.00     0.152 HD
HETATM   10  H   UNL     1       8.801  13.205   0.982  1.00  0.00     0.152 HD
ENDBRANCH   1   8
BRANCH   4  11
HETATM   11  N   UNL     1       9.229  13.095   3.190  1.00  0.00    -0.339 N 
HETATM   12  C   UNL     1       8.414  12.014   3.733  1.00  0.00     0.167 C 
HETATM   13  H   UNL     1      10.175  12.724   3.015  1.00  0.00     0.179 HD
ENDBRANCH   4  11
TORSDOF 2
ENDMDL
MODEL 6
REMARK VINA RESULT:    -4.036     24.562     25.475
REMARK INTER + INTRA:          -4.422
REMARK INTER:                  -4.380
REMARK INTRA:                  -0.041
REMARK UNBOUND:                -0.032
REMARK  2 active torsions:
REMARK  status: ('A' for Active; 'I' for Inactive)
REMARK    1  A    between atoms: N_2  and  C_4 
REMARK    2  A    between atoms: N_7  and  N_9 
ROOT
HETATM    1  C   UNL     1      23.908   0.609  15.646  1.00  0.00     0.195 C 
HETATM    2  O   UNL     1      24.229  -1.972  14.690  1.00  0.00    -0.371 OA
HETATM    3  C   UNL     1      25.451   0.388  15.476  1.00  0.00     0.050 C 
HETATM    4  N   UNL     1      23.479  -0.498  16.349  1.00  0.00    -0.286 N 
HETATM    5  C   UNL     1      23.822  -1.896  15.952  1.00  0.00     0.312 C 
HETATM    6  C   UNL     1      24.902  -1.209  13.684  1.00  0.00     0.170 C 
HETATM    7  C   UNL     1      25.671  -0.037  14.116  1.00  0.00     0.030 C 
ENDROOT
BRANCH   1   8
HETATM    8  N   UNL     1      23.316   1.813  16.234  1.00  0.00    -0.409 N 
HETATM    9  H   UNL     1      23.410   2.075  17.199  1.00  0.00     0.152 HD
HETATM   10  H   UNL     1      23.364   2.536  15.501  1.00  0.00     0.152 HD
ENDBRANCH   1   8
BRANCH   4  11
HETATM   11  N   UNL     1      22.779  -0.566  17.544  1.00  0.00    -0.339 N 
HETATM   12  C   UNL     1      22.865  -1.171  18.868  1.00  0.00     0.167 C 
HETATM   13  H   UNL     1      21.898  -0.033  17.493  1.00  0.00     0.179 HD
ENDBRANCH   4  11
TORSDOF 2
ENDMDL
MODEL 7
REMARK VINA RESULT:    -3.943     34.112     35.455
REMARK INTER + INTRA:          -4.320
REMARK INTER:                  -4.265
REMARK INTRA:                  -0.055
REMARK UNBOUND:                -0.032
REMARK  2 active torsions:
REMARK  status: ('A' for Active; 'I' for Inactive)
REMARK    1  A    between atoms: N_2  and  C_4 
REMARK    2  A    between atoms: N_7  and  N_9 
ROOT
HETATM    1  C   UNL     1       2.716 -18.862   9.072  1.00  0.00     0.195 C 
HETATM    2  O   UNL     1       0.110 -19.632   9.614  1.00  0.00    -0.371 OA
HETATM    3  C   UNL     1       1.814 -18.161   7.997  1.00  0.00     0.050 C 
HETATM    4  N   UNL     1       2.315 -20.182   9.046  1.00  0.00    -0.286 N 
HETATM    5  C   UNL     1       0.884 -20.599   9.133  1.00  0.00     0.312 C 
HETATM    6  C   UNL     1       0.003 -18.207   9.665  1.00  0.00     0.170 C 
HETATM    7  C   UNL     1       0.799 -17.428   8.710  1.00  0.00     0.030 C 
ENDROOT
BRANCH   1   8
HETATM    8  N   UNL     1       4.180 -18.802   9.073  1.00  0.00    -0.409 N 
HETATM    9  H   UNL     1       4.774 -19.512   9.464  1.00  0.00     0.152 HD
HETATM   10  H   UNL     1       4.443 -18.347   8.187  1.00  0.00     0.152 HD
ENDBRANCH   1   8
BRANCH   4  11
HETATM   11  N   UNL     1       3.069 -21.328   8.846  1.00  0.00    -0.339 N 
HETATM   12  C   UNL     1       3.486 -22.232   7.780  1.00  0.00     0.167 C 
HETATM   13  H   UNL     1       3.459 -21.681   9.733  1.00  0.00     0.179 HD
ENDBRANCH   4  11
TORSDOF 2
ENDMDL
MODEL 8
REMARK VINA RESULT:    -3.940      2.561      3.724
REMARK INTER + INTRA:          -4.317
REMARK INTER:                  -4.261
REMARK INTRA:                  -0.055
REMARK UNBOUND:                -0.032
REMARK  2 active torsions:
REMARK  status: ('A' for Active; 'I' for Inactive)
REMARK    1  A    between atoms: N_2  and  C_4 
REMARK    2  A    between atoms: N_7  and  N_9 
ROOT
HETATM    1  C   UNL     1      10.767  15.127   3.989  1.00  0.00     0.195 C 
HETATM    2  O   UNL     1       9.360  16.905   2.396  1.00  0.00    -0.371 OA
HETATM    3  C   UNL     1       9.325  14.532   3.829  1.00  0.00     0.050 C 
HETATM    4  N   UNL     1      10.556  16.440   4.356  1.00  0.00    -0.286 N 
HETATM    5  C   UNL     1       9.635  17.353   3.616  1.00  0.00     0.312 C 
HETATM    6  C   UNL     1       9.222  15.688   1.657  1.00  0.00     0.170 C 
HETATM    7  C   UNL     1       9.059  14.443   2.415  1.00  0.00     0.030 C 
ENDROOT
BRANCH   1   8
HETATM    8  N   UNL     1      11.799  14.545   4.851  1.00  0.00    -0.409 N 
HETATM    9  H   UNL     1      12.714  14.277   4.535  1.00  0.00     0.152 HD
HETATM   10  H   UNL     1      11.688  15.000   5.768  1.00  0.00     0.152 HD
ENDBRANCH   1   8
BRANCH   4  11
HETATM   11  N   UNL     1      11.027  17.133   5.461  1.00  0.00    -0.339 N 
HETATM   12  C   UNL     1      10.637  17.484   6.822  1.00  0.00     0.167 C 
HETATM   13  H   UNL     1      11.947  17.560   5.273  1.00  0.00     0.179 HD
ENDBRANCH   4  11
TORSDOF 2
ENDMDL
MODEL 9
REMARK VINA RESULT:    -3.830     25.005     26.923
REMARK INTER + INTRA:          -4.198
REMARK INTER:                  -4.161
REMARK INTRA:                  -0.037
REMARK UNBOUND:                -0.032
REMARK  2 active torsions:
REMARK  status: ('A' for Active; 'I' for Inactive)
REMARK    1  A    between atoms: N_2  and  C_4 
REMARK    2  A    between atoms: N_7  and  N_9 
ROOT
HETATM    1  C   UNL     1       7.946  -3.432  22.538  1.00  0.00     0.195 C 
HETATM    2  O   UNL     1       5.640  -4.303  21.272  1.00  0.00    -0.371 OA
HETATM    3  C   UNL     1       7.358  -4.581  23.430  1.00  0.00     0.050 C 
HETATM    4  N   UNL     1       6.872  -2.598  22.303  1.00  0.00    -0.286 N 
HETATM    5  C   UNL     1       5.552  -3.092  21.811  1.00  0.00     0.312 C 
HETATM    6  C   UNL     1       6.389  -5.518  21.369  1.00  0.00     0.170 C 
HETATM    7  C   UNL     1       7.191  -5.732  22.579  1.00  0.00     0.030 C 
ENDROOT
BRANCH   1   8
HETATM    8  N   UNL     1       9.111  -2.625  22.910  1.00  0.00    -0.409 N 
HETATM    9  H   UNL     1       9.363  -1.760  22.467  1.00  0.00     0.152 HD
HETATM   10  H   UNL     1       9.205  -2.723  23.931  1.00  0.00     0.152 HD
ENDBRANCH   1   8
BRANCH   4  11
HETATM   11  N   UNL     1       6.742  -1.239  22.546  1.00  0.00    -0.339 N 
HETATM   12  C   UNL     1       6.940   0.048  21.889  1.00  0.00     0.167 C 
HETATM   13  H   UNL     1       6.413  -1.059  23.507  1.00  0.00     0.179 HD
ENDBRANCH   4  11
TORSDOF 2
ENDMDL
