stable:False satoms:23 tatoms:24 sratio:0.9583333333333334
  -OEChem-07092417333D

 24 24  0     1  0  0  0  0  0999 V2000
    7.0812   -2.7165   23.8837 H   0  0  0  0  0  0  0  0  0  0  0  0
   10.3562   -3.6617   25.1808 H   0  0  0  0  0  0  0  0  0  0  0  0
    7.3491   -2.6729   22.9173 N   0  0  0  0  0  0  0  0  0  0  0  0
    9.6557   -2.8452   24.9746 C   0  0  0  0  0  0  0  0  0  0  0  0
    7.9955   -1.5163   22.2922 C   0  0  1  0  0  0  0  0  0  0  0  0
    9.7068   -2.1454   25.8022 H   0  0  0  0  0  0  0  0  0  0  0  0
    8.6620   -3.2988   24.9229 H   0  0  0  0  0  0  0  0  0  0  0  0
    8.1154    0.4836   23.1084 H   0  0  0  0  0  0  0  0  0  0  0  0
    9.8711    0.1044   21.0527 O   0  0  0  0  0  0  0  0  0  0  0  0
   11.2521   -0.9302   22.0444 H   0  0  0  0  0  0  0  0  0  0  0  0
   10.4895    0.3282   22.9794 H   0  0  0  0  0  0  0  0  0  0  0  0
   10.9609   -2.1961   23.5621 H   0  0  0  0  0  0  0  0  0  0  0  0
    9.9445   -2.1477   23.7275 N   0  0  0  0  0  0  0  0  0  0  0  0
    7.4578   -0.0470   22.4102 C   0  0  0  0  0  0  0  0  0  0  0  0
    9.3027   -1.4379   22.7232 N   0  0  3  0  0  0  0  0  0  0  0  0
   10.2709   -0.4266   22.2032 C   0  0  0  0  0  0  0  0  0  0  0  0
    8.9040    1.4036   19.8684 H   0  0  0  0  0  0  0  0  0  0  0  0
    8.6829    0.4372   20.3293 C   0  0  0  0  0  0  0  0  0  0  0  0
    6.5237    0.6619   20.5174 H   0  0  0  0  0  0  0  0  0  0  0  0
    7.8663   -1.6706   21.1689 H   0  0  0  0  0  0  0  0  0  0  0  0
    6.7293   -3.0706   22.1972 H   0  0  0  0  0  0  0  0  0  0  0  0
    6.4392   -0.1117   22.8256 H   0  0  0  0  0  0  0  0  0  0  0  0
    8.5447   -0.3117   19.5285 H   0  0  0  0  0  0  0  0  0  0  0  0
    7.4224    0.4979   21.0765 C   0  5  1  0  0  0  0  0  0  0  0  0
 18 23  1  0  0  0  0
 17 18  1  0  0  0  0
  9 18  1  0  0  0  0
 18 24  1  0  0  0  0
 19 24  1  0  0  0  0
  9 16  1  0  0  0  0
 14 24  1  0  0  0  0
  5 20  1  0  0  0  0
 10 16  1  0  0  0  0
  3 21  1  0  0  0  0
 15 16  1  0  0  0  0
 11 16  1  0  0  0  0
  5 14  1  0  0  0  0
  5 15  1  0  0  0  0
  3  5  1  0  0  0  0
 14 22  1  0  0  0  0
  8 14  1  0  0  0  0
 13 15  1  0  0  0  0
  1  3  1  0  0  0  0
 12 13  1  0  0  0  0
  4 13  1  0  0  0  0
  4  7  1  0  0  0  0
  2  4  1  0  0  0  0
  4  6  1  0  0  0  0
M  CHG  1  24  -1
M  END
> <Shapegauss>
-90.364487

$$$$
