
  -OEChem-07262404523D

 39 42  0     1  0  0  0  0  0999 V2000
  -12.1665    5.1172  -23.1489 Br  0  0  0  0  0  0  0  0  0  0  0  0
  -10.7318    4.0299  -23.7221 C   0  0  0  0  0  0  0  0  0  0  0  0
   -9.7221    4.5798  -24.5113 C   0  0  0  0  0  0  0  0  0  0  0  0
   -8.6530    3.7767  -24.9256 C   0  0  0  0  0  0  0  0  0  0  0  0
   -8.6148    2.4378  -24.5617 C   0  0  0  0  0  0  0  0  0  0  0  0
   -9.6260    1.8756  -23.7722 C   0  0  0  0  0  0  0  0  0  0  0  0
  -10.6888    2.6876  -23.3457 C   0  0  0  0  0  0  0  0  0  0  0  0
   -9.5274    0.4310  -23.3424 C   0  0  3  0  0  0  0  0  0  0  0  0
   -9.0074    0.2666  -21.9057 C   0  0  0  0  0  0  0  0  0  0  0  0
   -9.7007   -0.3060  -21.0640 O   0  0  0  0  0  0  0  0  0  0  0  0
   -7.7447    0.7791  -21.6954 N   0  0  0  0  0  0  0  0  0  0  0  0
   -7.0278    0.8654  -20.4754 C   0  0  0  0  0  0  0  0  0  0  0  0
   -7.5584    0.4660  -19.2508 C   0  0  0  0  0  0  0  0  0  0  0  0
   -6.9857    0.7223  -18.0509 N   0  0  0  0  0  0  0  0  0  0  0  0
   -5.7953    1.3538  -18.0739 C   0  0  0  0  0  0  0  0  0  0  0  0
   -5.0949    1.6783  -19.2348 C   0  0  0  0  0  0  0  0  0  0  0  0
   -3.7920    2.2057  -19.1752 C   0  0  0  0  0  0  0  0  0  0  0  0
   -3.0827    2.4872  -20.3409 C   0  0  0  0  0  0  0  0  0  0  0  0
   -3.6807    2.2767  -21.5750 C   0  0  0  0  0  0  0  0  0  0  0  0
   -4.9787    1.7651  -21.6451 C   0  0  0  0  0  0  0  0  0  0  0  0
   -5.7228    1.4391  -20.4781 C   0  0  0  0  0  0  0  0  0  0  0  0
   -8.7102   -0.4036  -24.3233 C   0  0  0  0  0  0  0  0  0  0  0  0
   -7.4578    0.2913  -24.7901 C   0  0  0  0  0  0  0  0  0  0  0  0
   -6.4215   -0.3081  -25.0735 O   0  0  0  0  0  0  0  0  0  0  0  0
   -7.5302    1.6539  -24.9497 N   0  0  0  0  0  0  0  0  0  0  0  0
   -9.7571    5.6270  -24.8039 H   0  0  0  0  0  0  0  0  0  0  0  0
   -7.8719    4.2222  -25.5400 H   0  0  0  0  0  0  0  0  0  0  0  0
  -11.4743    2.2716  -22.7174 H   0  0  0  0  0  0  0  0  0  0  0  0
  -10.5453    0.0130  -23.3474 H   0  0  0  0  0  0  0  0  0  0  0  0
   -7.3303    1.2819  -22.4669 H   0  0  0  0  0  0  0  0  0  0  0  0
   -8.4981   -0.0713  -19.1669 H   0  0  0  0  0  0  0  0  0  0  0  0
   -5.3958    1.5894  -17.0903 H   0  0  0  0  0  0  0  0  0  0  0  0
   -3.3050    2.3644  -18.2149 H   0  0  0  0  0  0  0  0  0  0  0  0
   -2.0618    2.8553  -20.2842 H   0  0  0  0  0  0  0  0  0  0  0  0
   -3.1304    2.4863  -22.4895 H   0  0  0  0  0  0  0  0  0  0  0  0
   -5.3736    1.5771  -22.6378 H   0  0  0  0  0  0  0  0  0  0  0  0
   -9.3004   -0.6051  -25.2254 H   0  0  0  0  0  0  0  0  0  0  0  0
   -8.4331   -1.3687  -23.8825 H   0  0  0  0  0  0  0  0  0  0  0  0
   -6.7346    2.0799  -25.4125 H   0  0  0  0  0  0  0  0  0  0  0  0
  1  2  1  0  0  0  0
  2  3  1  0  0  0  0
  2  7  2  0  0  0  0
  3  4  2  0  0  0  0
  3 26  1  0  0  0  0
  4  5  1  0  0  0  0
  4 27  1  0  0  0  0
  5  6  2  0  0  0  0
  5 25  1  0  0  0  0
  6  7  1  0  0  0  0
  6  8  1  0  0  0  0
  7 28  1  0  0  0  0
  8  9  1  0  0  0  0
  8 22  1  0  0  0  0
  8 29  1  0  0  0  0
  9 10  2  0  0  0  0
  9 11  1  0  0  0  0
 11 12  1  0  0  0  0
 11 30  1  0  0  0  0
 12 13  1  0  0  0  0
 12 21  2  0  0  0  0
 13 14  2  0  0  0  0
 13 31  1  0  0  0  0
 14 15  1  0  0  0  0
 15 16  2  0  0  0  0
 15 32  1  0  0  0  0
 16 17  1  0  0  0  0
 16 21  1  0  0  0  0
 17 18  2  0  0  0  0
 17 33  1  0  0  0  0
 18 19  1  0  0  0  0
 18 34  1  0  0  0  0
 19 20  2  0  0  0  0
 19 35  1  0  0  0  0
 20 21  1  0  0  0  0
 20 36  1  0  0  0  0
 22 23  1  0  0  0  0
 22 37  1  0  0  0  0
 22 38  1  0  0  0  0
 23 24  2  0  0  0  0
 23 25  1  0  0  0  0
 25 39  1  0  0  0  0
M  END
> <Chemgauss4>
-7.821424

$$$$
