
  -OEChem-07262404523D

 39 42  0     1  0  0  0  0  0999 V2000
   12.3128    5.1648   22.9124 Br  0  0  0  0  0  0  0  0  0  0  0  0
   10.8795    4.1326   23.5825 C   0  0  0  0  0  0  0  0  0  0  0  0
    9.8769    4.7483   24.3312 C   0  0  0  0  0  0  0  0  0  0  0  0
    8.8088    3.9850   24.8171 C   0  0  0  0  0  0  0  0  0  0  0  0
    8.7645    2.6210   24.5640 C   0  0  0  0  0  0  0  0  0  0  0  0
    9.7685    1.9930   23.8161 C   0  0  0  0  0  0  0  0  0  0  0  0
   10.8304    2.7641   23.3172 C   0  0  0  0  0  0  0  0  0  0  0  0
    9.6631    0.5184   23.5063 C   0  0  3  0  0  0  0  0  0  0  0  0
    9.1324    0.2390   22.0916 C   0  0  0  0  0  0  0  0  0  0  0  0
    9.8181   -0.4027   21.2946 O   0  0  0  0  0  0  0  0  0  0  0  0
    7.8695    0.7365   21.8489 N   0  0  0  0  0  0  0  0  0  0  0  0
    7.1441    0.7252   20.6309 C   0  0  0  0  0  0  0  0  0  0  0  0
    7.6648    0.2255   19.4394 C   0  0  0  0  0  0  0  0  0  0  0  0
    7.0841    0.3848   18.2265 N   0  0  0  0  0  0  0  0  0  0  0  0
    5.8955    1.0198   18.2063 C   0  0  0  0  0  0  0  0  0  0  0  0
    5.2044    1.4402   19.3416 C   0  0  0  0  0  0  0  0  0  0  0  0
    3.9025    1.9651   19.2483 C   0  0  0  0  0  0  0  0  0  0  0  0
    3.2023    2.3430   20.3920 C   0  0  0  0  0  0  0  0  0  0  0  0
    3.8086    2.2321   21.6350 C   0  0  0  0  0  0  0  0  0  0  0  0
    5.1058    1.7238   21.7375 C   0  0  0  0  0  0  0  0  0  0  0  0
    5.8406    1.3013   20.5959 C   0  0  0  0  0  0  0  0  0  0  0  0
    8.8509   -0.2306   24.5578 C   0  0  0  0  0  0  0  0  0  0  0  0
    7.6037    0.5040   24.9751 C   0  0  0  0  0  0  0  0  0  0  0  0
    6.5679   -0.0670   25.3137 O   0  0  0  0  0  0  0  0  0  0  0  0
    7.6807    1.8748   25.0223 N   0  0  0  0  0  0  0  0  0  0  0  0
    9.9168    5.8157   24.5370 H   0  0  0  0  0  0  0  0  0  0  0  0
    8.0333    4.4817   25.3984 H   0  0  0  0  0  0  0  0  0  0  0  0
   11.6102    2.2958   22.7195 H   0  0  0  0  0  0  0  0  0  0  0  0
   10.6800    0.0991   23.5384 H   0  0  0  0  0  0  0  0  0  0  0  0
    7.4620    1.3020   22.5797 H   0  0  0  0  0  0  0  0  0  0  0  0
    8.6025   -0.3198   19.3931 H   0  0  0  0  0  0  0  0  0  0  0  0
    5.4896    1.1755   17.2095 H   0  0  0  0  0  0  0  0  0  0  0  0
    3.4089    2.0464   18.2816 H   0  0  0  0  0  0  0  0  0  0  0  0
    2.1819    2.7085   20.3126 H   0  0  0  0  0  0  0  0  0  0  0  0
    3.2655    2.5174   22.5331 H   0  0  0  0  0  0  0  0  0  0  0  0
    5.5074    1.6163   22.7395 H   0  0  0  0  0  0  0  0  0  0  0  0
    9.4471   -0.3597   25.4692 H   0  0  0  0  0  0  0  0  0  0  0  0
    8.5682   -1.2277   24.1993 H   0  0  0  0  0  0  0  0  0  0  0  0
    6.8896    2.3397   25.4543 H   0  0  0  0  0  0  0  0  0  0  0  0
  1  2  1  0  0  0  0
  2  3  1  0  0  0  0
  2  7  2  0  0  0  0
  3  4  2  0  0  0  0
  3 26  1  0  0  0  0
  4  5  1  0  0  0  0
  4 27  1  0  0  0  0
  5  6  2  0  0  0  0
  5 25  1  0  0  0  0
  6  7  1  0  0  0  0
  6  8  1  0  0  0  0
  7 28  1  0  0  0  0
  8  9  1  0  0  0  0
  8 22  1  0  0  0  0
  8 29  1  0  0  0  0
  9 10  2  0  0  0  0
  9 11  1  0  0  0  0
 11 12  1  0  0  0  0
 11 30  1  0  0  0  0
 12 13  1  0  0  0  0
 12 21  2  0  0  0  0
 13 14  2  0  0  0  0
 13 31  1  0  0  0  0
 14 15  1  0  0  0  0
 15 16  2  0  0  0  0
 15 32  1  0  0  0  0
 16 17  1  0  0  0  0
 16 21  1  0  0  0  0
 17 18  2  0  0  0  0
 17 33  1  0  0  0  0
 18 19  1  0  0  0  0
 18 34  1  0  0  0  0
 19 20  2  0  0  0  0
 19 35  1  0  0  0  0
 20 21  1  0  0  0  0
 20 36  1  0  0  0  0
 22 23  1  0  0  0  0
 22 37  1  0  0  0  0
 22 38  1  0  0  0  0
 23 24  2  0  0  0  0
 23 25  1  0  0  0  0
 25 39  1  0  0  0  0
M  END
> <Chemgauss4>
-7.961276

$$$$
