REMARK  5 active torsions:
REMARK  status: ('A' for Active; 'I' for Inactive)
REMARK    1  A    between atoms: O_1  and  C_3 
REMARK    2  A    between atoms: N_2  and  C_3 
REMARK    3  A    between atoms: C_7  and  C_11 
REMARK    4  A    between atoms: C_8  and  C_11 
REMARK    5  A    between atoms: C_8  and  C_14 
ROOT
HETATM    1  N   UNL     1       9.533  -2.322  23.006  1.00  0.00     0.114 NA
HETATM    2  C   UNL     1      10.038  -1.567  24.009  1.00  0.00     0.305 A 
HETATM    3  C   UNL     1      10.239  -2.961  24.020  1.00  0.00     0.305 A 
ENDROOT
BRANCH   1   4
HETATM    4  C   UNL     1       8.577  -3.049  22.448  1.00  0.00     0.440 C 
BRANCH   4   5
HETATM    5  O   UNL     1       7.351  -2.289  22.880  1.00  0.00    -0.367 OA
HETATM    6  C   UNL     1       7.420  -1.861  24.088  1.00  0.00     0.204 C 
ENDBRANCH   4   5
ENDBRANCH   1   4
TORSDOF 5
