FMN(A-150)
  -OEChem-06302419223D

 51 53  0     1  0  0  0  0  0999 V2000
   -3.5080   32.6611   19.4700 P   0  0  0  0  0  0  0  0  0  0  0  0
    0.4779   40.1885   22.1699 N   0  0  0  0  0  0  0  0  0  0  0  0
    1.5745   40.9256   21.7861 C   0  0  0  0  0  0  0  0  0  0  0  0
    1.5230   41.5536   20.5966 O   0  0  0  0  0  0  0  0  0  0  0  0
    2.6643   41.0913   22.5996 N   0  0  0  0  0  0  0  0  0  0  0  0
    2.7370   40.4315   23.8550 C   0  0  0  0  0  0  0  0  0  0  0  0
    3.8707   40.5457   24.6512 O   0  0  0  0  0  0  0  0  0  0  0  0
    1.6885   38.9680   25.4839 N   0  0  0  0  0  0  0  0  0  0  0  0
    0.4786   37.8738   27.3474 C   0  0  0  0  0  0  0  0  0  0  0  0
   -0.7062   37.3111   27.8671 C   0  0  0  0  0  0  0  0  0  0  0  0
   -1.8323   37.2459   27.0335 C   0  0  0  0  0  0  0  0  0  0  0  0
   -1.7930   37.7485   25.6913 C   0  0  0  0  0  0  0  0  0  0  0  0
   -1.7282   38.7431   22.9251 C   0  0  0  0  0  0  0  0  0  0  0  0
    0.5034   39.5316   23.4073 C   0  0  0  0  0  0  0  0  0  0  0  0
   -0.6169   38.7908   23.8000 N   0  3  0  0  0  0  0  0  0  0  0  0
   -2.5590   31.7894   20.5183 O   0  5  0  0  0  0  0  0  0  0  0  0
   -1.9015   37.3697   22.2719 C   0  0  2  0  0  0  0  0  0  0  0  0
   -0.7907   37.0334   21.4441 O   0  0  0  0  0  0  0  0  0  0  0  0
   -3.1809   32.0685   17.9255 O   0  5  0  0  0  0  0  0  0  0  0  0
   -3.1204   37.4720   21.3347 C   0  0  2  0  0  0  0  0  0  0  0  0
   -4.2642   37.3830   22.2050 O   0  0  0  0  0  0  0  0  0  0  0  0
   -5.1016   32.3382   19.7850 O   0  0  0  0  0  0  0  0  0  0  0  0
   -3.1898   36.4765   20.2276 C   0  0  2  0  0  0  0  0  0  0  0  0
   -4.4312   36.7680   19.4776 O   0  0  0  0  0  0  0  0  0  0  0  0
    1.6241   39.6401   24.2619 C   0  0  0  0  0  0  0  0  0  0  0  0
   -3.2299   35.1173   20.6537 C   0  0  0  0  0  0  0  0  0  0  0  0
   -3.2823   34.2934   19.5262 O   0  0  0  0  0  0  0  0  0  0  0  0
    0.5059   38.3781   26.0086 C   0  0  0  0  0  0  0  0  0  0  0  0
   -0.8410   36.7730   29.2118 C   0  0  0  0  0  0  0  0  0  0  0  0
   -3.0796   36.6975   27.4684 C   0  0  0  0  0  0  0  0  0  0  0  0
   -0.6211   38.3341   25.1540 C   0  0  0  0  0  0  0  0  0  0  0  0
    3.4153   41.6827   22.3064 H   0  0  0  0  0  0  0  0  0  0  0  0
    1.3662   37.9236   27.9608 H   0  0  0  0  0  0  0  0  0  0  0  0
   -2.6776   37.6786   25.0759 H   0  0  0  0  0  0  0  0  0  0  0  0
   -2.6377   38.9793   23.4973 H   0  0  0  0  0  0  0  0  0  0  0  0
   -2.3274   34.8869   21.2385 H   0  0  0  0  0  0  0  0  0  0  0  0
   -1.5869   39.4940   22.1343 H   0  0  0  0  0  0  0  0  0  0  0  0
   -4.1223   34.9505   21.2748 H   0  0  0  0  0  0  0  0  0  0  0  0
   -2.0818   36.6041   23.0408 H   0  0  0  0  0  0  0  0  0  0  0  0
    0.0168   37.1720   21.9252 H   0  0  0  0  0  0  0  0  0  0  0  0
   -3.1022   38.4760   20.8849 H   0  0  0  0  0  0  0  0  0  0  0  0
   -5.0463   37.2383   21.6860 H   0  0  0  0  0  0  0  0  0  0  0  0
   -2.3283   36.6295   19.5610 H   0  0  0  0  0  0  0  0  0  0  0  0
   -4.4867   36.1949   18.7225 H   0  0  0  0  0  0  0  0  0  0  0  0
    0.1154   36.8754   29.7455 H   0  0  0  0  0  0  0  0  0  0  0  0
   -3.4521   37.2708   28.3300 H   0  0  0  0  0  0  0  0  0  0  0  0
   -1.6232   37.3266   29.7513 H   0  0  0  0  0  0  0  0  0  0  0  0
   -3.8102   36.7533   26.6484 H   0  0  0  0  0  0  0  0  0  0  0  0
   -1.1175   35.7097   29.1550 H   0  0  0  0  0  0  0  0  0  0  0  0
   -2.9361   35.6471   27.7612 H   0  0  0  0  0  0  0  0  0  0  0  0
   -0.3238   40.1227   21.5758 H   0  0  0  0  0  0  0  0  0  0  0  0
  1 16  1  0  0  0  0
  1 19  1  0  0  0  0
  1 22  2  0  0  0  0
  1 27  1  0  0  0  0
  2  3  1  0  0  0  0
  2 14  1  0  0  0  0
  3  4  2  0  0  0  0
  3  5  1  0  0  0  0
  5  6  1  0  0  0  0
  5 32  1  0  0  0  0
  6  7  2  0  0  0  0
  6 25  1  0  0  0  0
  8 25  2  0  0  0  0
  8 28  1  0  0  0  0
  9 10  2  0  0  0  0
  9 28  1  0  0  0  0
  9 33  1  0  0  0  0
 10 11  1  0  0  0  0
 10 29  1  0  0  0  0
 11 12  2  0  0  0  0
 11 30  1  0  0  0  0
 12 31  1  0  0  0  0
 12 34  1  0  0  0  0
 13 15  1  0  0  0  0
 13 17  1  0  0  0  0
 13 35  1  0  0  0  0
 13 37  1  0  0  0  0
 14 15  2  0  0  0  0
 14 25  1  0  0  0  0
 15 31  1  0  0  0  0
 17 18  1  0  0  0  0
 17 20  1  0  0  0  0
 17 39  1  0  0  0  0
 18 40  1  0  0  0  0
 20 21  1  0  0  0  0
 20 23  1  0  0  0  0
 20 41  1  0  0  0  0
 21 42  1  0  0  0  0
 23 24  1  0  0  0  0
 23 26  1  0  0  0  0
 23 43  1  0  0  0  0
 24 44  1  0  0  0  0
 26 27  1  0  0  0  0
 26 36  1  0  0  0  0
 26 38  1  0  0  0  0
 28 31  2  0  0  0  0
 29 45  1  0  0  0  0
 29 47  1  0  0  0  0
 29 49  1  0  0  0  0
 30 46  1  0  0  0  0
 30 48  1  0  0  0  0
 30 50  1  0  0  0  0
  2 51  1  0  0  0  0
M  CHG  3  15   1  16  -1  19  -1
M  END
> <Chemgauss4>
-19.680712

$$$$
