stable:False satoms:12 tatoms:24 sratio:0.5
  -OEChem-07092417413D

 24 25  0     1  0  0  0  0  0999 V2000
    6.5035   -4.9671   26.5465 Cl  0  0  0  0  0  0  0  0  0  0  0  0
    8.2468   -4.3030   26.2098 S   0  0  0  0  0  0  0  0  0  0  0  0
    9.1081   -5.4721   26.1176 O   0  0  0  0  0  0  0  0  0  0  0  0
    8.6525   -3.3801   27.2240 O   0  0  0  0  0  0  0  0  0  0  0  0
    7.9634   -3.5600   24.7984 N   0  0  0  0  0  0  0  0  0  0  0  0
    8.7590   -2.8109   24.2714 C   0  0  0  0  0  0  0  0  0  0  0  0
    9.2984   -1.9973   23.7346 C   0  0  0  0  0  0  0  0  0  0  0  0
   10.3178   -1.0107   23.4012 C   0  0  1  0  0  0  0  0  0  0  0  0
   10.5158   -0.4331   24.3593 H   0  0  0  0  0  0  0  0  0  0  0  0
   12.5482    0.2785   23.9070 H   0  0  0  0  0  0  0  0  0  0  0  0
   12.7963   -0.4919   23.2109 C   0  3  0  0  0  0  0  0  0  0  0  0
   13.6728   -0.8393   22.9128 H   0  0  0  0  0  0  0  0  0  0  0  0
   11.6138   -1.4709   22.3399 S   0  3  2  0  0  0  0  0  0  0  0  0
   10.1853   -0.6135   22.2983 C   0  0  3  0  0  0  0  0  0  0  0  0
    9.1502    0.1213   21.3612 C   0  0  0  0  0  0  0  0  0  0  0  0
    9.4553    1.1616   20.8375 O   0  0  0  0  0  0  0  0  0  0  0  0
    7.9167   -0.4589   21.1576 N   0  0  0  0  0  0  0  0  0  0  0  0
    7.0802    0.0025   20.1929 C   0  0  0  0  0  0  0  0  0  0  0  0
    7.2773   -0.1054   18.8676 N   0  0  0  0  0  0  0  0  0  0  0  0
    6.5819    0.2362   17.9432 N   0  0  0  0  0  0  0  0  0  0  0  0
    5.4985    0.7822   18.2045 C   0  0  0  0  0  0  0  0  0  0  0  0
    5.2521    0.8743   19.3700 C   0  0  0  0  0  0  0  0  0  0  0  0
    5.7905    0.5473   20.5088 C   0  0  0  0  0  0  0  0  0  0  0  0
    5.3996    0.6204   21.5218 H   0  0  0  0  0  0  0  0  0  0  0  0
 20 21  2  0  0  0  0
 19 20  1  0  0  0  0
 21 22  1  0  0  0  0
 18 19  2  0  0  0  0
 22 23  2  0  0  0  0
 18 23  1  0  0  0  0
 17 18  1  0  0  0  0
 23 24  1  0  0  0  0
 15 16  2  0  0  0  0
 15 17  1  0  0  0  0
 14 15  1  0  0  0  0
 13 14  1  0  0  0  0
  8 14  1  0  0  0  0
 11 13  1  0  0  0  0
  8 13  1  0  0  0  0
 11 12  1  0  0  0  0
 10 11  1  0  0  0  0
  7  8  1  0  0  0  0
  8  9  1  0  0  0  0
  6  7  3  0  0  0  0
  5  6  1  0  0  0  0
  2  5  1  0  0  0  0
  2  3  2  0  0  0  0
  1  2  1  0  0  0  0
  2  4  2  0  0  0  0
M  CHG  2  11   1  13   1
M  END
> <Shapegauss>
-246.977509

$$$$
