MODEL 1
REMARK VINA RESULT:    -5.872      0.000      0.000
REMARK INTER + INTRA:          -9.199
REMARK INTER:                  -7.931
REMARK INTRA:                  -1.268
REMARK UNBOUND:                -1.268
REMARK  6 active torsions:
REMARK  status: ('A' for Active; 'I' for Inactive)
REMARK    1  A    between atoms: S_2  and  N_5 
REMARK    2  A    between atoms: N_5  and  C_7 
REMARK    3  A    between atoms: C_7  and  C_8 
REMARK    4  A    between atoms: C_8  and  C_9 
REMARK    5  A    between atoms: C_12  and  C_13 
REMARK       I    between atoms: C_13  and  N_15 
REMARK    6  A    between atoms: N_15  and  C_17 
ROOT
HETATM    1  C   UNL     1       8.170  14.517   3.079  1.00  0.00     0.171 A 
HETATM    2  C   UNL     1       7.035  12.646   4.367  1.00  0.00     0.059 C 
HETATM    3  S   UNL     1       8.547  12.871   3.486  1.00  0.00    -0.147 SA
HETATM    4  C   UNL     1       9.092  14.413   3.808  1.00  0.00     0.067 A 
ENDROOT
BRANCH   4   5
HETATM    5  C   UNL     1      10.236  15.259   4.489  1.00  0.00     0.261 C 
HETATM    6  O   UNL     1      11.246  14.712   4.855  1.00  0.00    -0.267 OA
HETATM    7  N   UNL     1      10.052  16.616   4.639  1.00  0.00    -0.308 N 
ATOM      8  HN  UNL     1       9.129  17.020   4.474  1.00  0.00     0.170 HD
BRANCH   7   9
HETATM    9  C   UNL     1      11.082  17.423   5.004  1.00  0.00     0.122 A 
HETATM   10  N   UNL     1      12.253  17.541   4.355  1.00  0.00    -0.286 N 
HETATM   11  N   UNL     1      13.203  18.250   4.578  1.00  0.00    -0.310 N 
ATOM     12  HN  UNL     1      12.355  16.931   3.543  1.00  0.00     0.188 HD
HETATM   13  C   UNL     1      13.140  19.013   5.554  1.00  0.00     0.107 A 
ATOM     14  HN  UNL     1      14.031  18.223   3.982  1.00  0.00     0.186 HD
HETATM   15  C   UNL     1      12.105  18.978   6.151  1.00  0.00     0.022 A 
HETATM   16  C   UNL     1      10.958  18.366   6.079  1.00  0.00     0.051 A 
ENDBRANCH   7   9
ENDBRANCH   4   5
BRANCH   1  17
HETATM   17  C   UNL     1       8.579  15.032   1.779  1.00  0.00    -0.062 C 
BRANCH  17  18
HETATM   18  C   UNL     1       8.962  15.727   0.997  1.00  0.00     0.022 C 
BRANCH  18  19
HETATM   19  N   UNL     1       9.326  16.665   0.318  1.00  0.00    -0.230 N 
ATOM     20  HN  UNL     1       9.693  16.476  -0.614  1.00  0.00     0.190 HD
BRANCH  19  21
HETATM   21  S   UNL     1       9.256  18.203   0.824  1.00  0.00     0.327 S 
HETATM   22 CL   UNL     1       7.435  18.255   1.350  1.00  0.00     0.042 Cl
HETATM   23  O   UNL     1      10.026  18.482   2.025  1.00  0.00    -0.188 OA
HETATM   24  O   UNL     1       9.512  19.123  -0.240  1.00  0.00    -0.188 OA
ENDBRANCH  19  21
ENDBRANCH  18  19
ENDBRANCH  17  18
ENDBRANCH   1  17
TORSDOF 6
ENDMDL
MODEL 2
REMARK VINA RESULT:    -5.808     27.639     29.987
REMARK INTER + INTRA:          -9.114
REMARK INTER:                  -8.350
REMARK INTRA:                  -0.763
REMARK UNBOUND:                -1.268
REMARK  6 active torsions:
REMARK  status: ('A' for Active; 'I' for Inactive)
REMARK    1  A    between atoms: S_2  and  N_5 
REMARK    2  A    between atoms: N_5  and  C_7 
REMARK    3  A    between atoms: C_7  and  C_8 
REMARK    4  A    between atoms: C_8  and  C_9 
REMARK    5  A    between atoms: C_12  and  C_13 
REMARK       I    between atoms: C_13  and  N_15 
REMARK    6  A    between atoms: N_15  and  C_17 
ROOT
HETATM    1  C   UNL     1       7.792  -5.034  23.901  1.00  0.00     0.171 A 
HETATM    2  C   UNL     1       6.726  -5.875  21.755  1.00  0.00     0.059 C 
HETATM    3  S   UNL     1       6.311  -4.742  23.042  1.00  0.00    -0.147 SA
HETATM    4  C   UNL     1       7.706  -3.938  23.474  1.00  0.00     0.067 A 
ENDROOT
BRANCH   4   5
HETATM    5  C   UNL     1       8.431  -2.537  23.499  1.00  0.00     0.261 C 
HETATM    6  O   UNL     1       7.786  -1.529  23.356  1.00  0.00    -0.267 OA
HETATM    7  N   UNL     1       9.794  -2.503  23.695  1.00  0.00    -0.308 N 
ATOM      8  HN  UNL     1      10.331  -3.370  23.647  1.00  0.00     0.170 HD
BRANCH   7   9
HETATM    9  C   UNL     1      10.433  -1.332  23.953  1.00  0.00     0.122 A 
HETATM   10  N   UNL     1      10.049  -0.414  24.856  1.00  0.00    -0.286 N 
HETATM   11  N   UNL     1      10.564   0.628  25.180  1.00  0.00    -0.310 N 
ATOM     12  HN  UNL     1       9.182  -0.632  25.346  1.00  0.00     0.188 HD
HETATM   13  C   UNL     1      11.623   0.950  24.616  1.00  0.00     0.107 A 
ATOM     14  HN  UNL     1      10.145   1.224  25.894  1.00  0.00     0.186 HD
HETATM   15  C   UNL     1      12.032   0.152  23.826  1.00  0.00     0.022 A 
HETATM   16  C   UNL     1      11.702  -1.018  23.362  1.00  0.00     0.051 A 
ENDBRANCH   7   9
ENDBRANCH   4   5
BRANCH   1  17
HETATM   17  C   UNL     1       7.773  -5.038  25.358  1.00  0.00    -0.062 C 
BRANCH  17  18
HETATM   18  C   UNL     1       7.755  -5.409  26.408  1.00  0.00     0.022 C 
BRANCH  18  19
HETATM   19  N   UNL     1       7.803  -6.038  27.445  1.00  0.00    -0.230 N 
ATOM     20  HN  UNL     1       8.680  -6.494  27.696  1.00  0.00     0.190 HD
BRANCH  19  21
HETATM   21  S   UNL     1       6.540  -6.186  28.449  1.00  0.00     0.327 S 
HETATM   22 CL   UNL     1       5.184  -6.522  27.166  1.00  0.00     0.042 Cl
HETATM   23  O   UNL     1       6.580  -7.363  29.304  1.00  0.00    -0.188 OA
HETATM   24  O   UNL     1       6.284  -4.975  29.164  1.00  0.00    -0.188 OA
ENDBRANCH  19  21
ENDBRANCH  18  19
ENDBRANCH  17  18
ENDBRANCH   1  17
TORSDOF 6
ENDMDL
MODEL 3
REMARK VINA RESULT:    -5.619     24.242     26.914
REMARK INTER + INTRA:          -8.858
REMARK INTER:                  -7.680
REMARK INTRA:                  -1.178
REMARK UNBOUND:                -1.268
REMARK  6 active torsions:
REMARK  status: ('A' for Active; 'I' for Inactive)
REMARK    1  A    between atoms: S_2  and  N_5 
REMARK    2  A    between atoms: N_5  and  C_7 
REMARK    3  A    between atoms: C_7  and  C_8 
REMARK    4  A    between atoms: C_8  and  C_9 
REMARK    5  A    between atoms: C_12  and  C_13 
REMARK       I    between atoms: C_13  and  N_15 
REMARK    6  A    between atoms: N_15  and  C_17 
ROOT
HETATM    1  C   UNL     1       6.865   0.518  20.480  1.00  0.00     0.171 A 
HETATM    2  C   UNL     1       5.244   1.415  18.744  1.00  0.00     0.059 C 
HETATM    3  S   UNL     1       6.461   0.140  18.834  1.00  0.00    -0.147 SA
HETATM    4  C   UNL     1       6.363  -0.542  20.351  1.00  0.00     0.067 A 
ENDROOT
BRANCH   4   5
HETATM    5  C   UNL     1       6.014  -1.854  21.155  1.00  0.00     0.261 C 
HETATM    6  O   UNL     1       5.576  -2.812  20.570  1.00  0.00    -0.267 OA
HETATM    7  N   UNL     1       6.232  -1.873  22.515  1.00  0.00    -0.308 N 
ATOM      8  HN  UNL     1       6.444  -1.002  23.002  1.00  0.00     0.170 HD
BRANCH   7   9
HETATM    9  C   UNL     1       6.168  -3.035  23.215  1.00  0.00     0.122 A 
HETATM   10  N   UNL     1       7.065  -4.034  23.158  1.00  0.00    -0.286 N 
HETATM   11  N   UNL     1       7.115  -5.076  23.763  1.00  0.00    -0.310 N 
ATOM     12  HN  UNL     1       7.828  -3.887  22.497  1.00  0.00     0.188 HD
HETATM   13  C   UNL     1       6.213  -5.314  24.582  1.00  0.00     0.107 A 
ATOM     14  HN  UNL     1       7.873  -5.741  23.606  1.00  0.00     0.186 HD
HETATM   15  C   UNL     1       5.403  -4.443  24.701  1.00  0.00     0.022 A 
HETATM   16  C   UNL     1       5.172  -3.254  24.225  1.00  0.00     0.051 A 
ENDBRANCH   7   9
ENDBRANCH   4   5
BRANCH   1  17
HETATM   17  C   UNL     1       8.252   0.399  20.911  1.00  0.00    -0.062 C 
BRANCH  17  18
HETATM   18  C   UNL     1       9.255  -0.040  21.112  1.00  0.00     0.022 C 
BRANCH  18  19
HETATM   19  N   UNL     1      10.358  -0.342  21.518  1.00  0.00    -0.230 N 
ATOM     20  HN  UNL     1      11.173   0.054  21.050  1.00  0.00     0.190 HD
BRANCH  19  21
HETATM   21  S   UNL     1      10.598  -1.345  22.769  1.00  0.00     0.327 S 
HETATM   22 CL   UNL     1      10.461  -0.088  24.182  1.00  0.00     0.042 Cl
HETATM   23  O   UNL     1       9.530  -2.308  22.987  1.00  0.00    -0.188 OA
HETATM   24  O   UNL     1      11.898  -1.939  22.732  1.00  0.00    -0.188 OA
ENDBRANCH  19  21
ENDBRANCH  18  19
ENDBRANCH  17  18
ENDBRANCH   1  17
TORSDOF 6
ENDMDL
MODEL 4
REMARK VINA RESULT:    -5.463      2.397      4.103
REMARK INTER + INTRA:          -8.647
REMARK INTER:                  -7.169
REMARK INTRA:                  -1.478
REMARK UNBOUND:                -1.268
REMARK  6 active torsions:
REMARK  status: ('A' for Active; 'I' for Inactive)
REMARK    1  A    between atoms: S_2  and  N_5 
REMARK    2  A    between atoms: N_5  and  C_7 
REMARK    3  A    between atoms: C_7  and  C_8 
REMARK    4  A    between atoms: C_8  and  C_9 
REMARK    5  A    between atoms: C_12  and  C_13 
REMARK       I    between atoms: C_13  and  N_15 
REMARK    6  A    between atoms: N_15  and  C_17 
ROOT
HETATM    1  C   UNL     1       8.986  18.262   0.802  1.00  0.00     0.171 A 
HETATM    2  C   UNL     1       7.573  20.251   0.097  1.00  0.00     0.059 C 
HETATM    3  S   UNL     1       7.679  19.175   1.492  1.00  0.00    -0.147 SA
HETATM    4  C   UNL     1       9.293  18.867   1.768  1.00  0.00     0.067 A 
ENDROOT
BRANCH   4   5
HETATM    5  C   UNL     1      10.489  19.066   2.777  1.00  0.00     0.261 C 
HETATM    6  O   UNL     1      11.527  19.537   2.386  1.00  0.00    -0.267 OA
HETATM    7  N   UNL     1      10.309  18.700   4.093  1.00  0.00    -0.308 N 
ATOM      8  HN  UNL     1       9.488  18.156   4.356  1.00  0.00     0.170 HD
BRANCH   7   9
HETATM    9  C   UNL     1      11.211  19.056   5.045  1.00  0.00     0.122 A 
HETATM   10  N   UNL     1      12.384  18.444   5.280  1.00  0.00    -0.286 N 
HETATM   11  N   UNL     1      13.259  18.705   6.068  1.00  0.00    -0.310 N 
ATOM     12  HN  UNL     1      12.564  17.625   4.698  1.00  0.00     0.188 HD
HETATM   13  C   UNL     1      13.098  19.690   6.807  1.00  0.00     0.107 A 
ATOM     14  HN  UNL     1      14.104  18.136   6.126  1.00  0.00     0.186 HD
HETATM   15  C   UNL     1      12.085  20.296   6.618  1.00  0.00     0.022 A 
HETATM   16  C   UNL     1      11.054  20.250   5.826  1.00  0.00     0.051 A 
ENDBRANCH   7   9
ENDBRANCH   4   5
BRANCH   1  17
HETATM   17  C   UNL     1       9.042  16.825   1.037  1.00  0.00    -0.062 C 
BRANCH  17  18
HETATM   18  C   UNL     1       9.365  15.838   1.439  1.00  0.00     0.022 C 
BRANCH  18  19
HETATM   19  N   UNL     1       9.824  14.903   2.062  1.00  0.00    -0.230 N 
ATOM     20  HN  UNL     1      10.040  14.043   1.558  1.00  0.00     0.190 HD
BRANCH  19  21
HETATM   21  S   UNL     1      10.110  14.957   3.656  1.00  0.00     0.327 S 
HETATM   22 CL   UNL     1       8.493  15.774   4.216  1.00  0.00     0.042 Cl
HETATM   23  O   UNL     1      10.149  13.658   4.309  1.00  0.00    -0.188 OA
HETATM   24  O   UNL     1      11.238  15.780   3.966  1.00  0.00    -0.188 OA
ENDBRANCH  19  21
ENDBRANCH  18  19
ENDBRANCH  17  18
ENDBRANCH   1  17
TORSDOF 6
ENDMDL
MODEL 5
REMARK VINA RESULT:    -5.402     24.086     26.202
REMARK INTER + INTRA:          -8.564
REMARK INTER:                  -7.107
REMARK INTRA:                  -1.458
REMARK UNBOUND:                -1.268
REMARK  6 active torsions:
REMARK  status: ('A' for Active; 'I' for Inactive)
REMARK    1  A    between atoms: S_2  and  N_5 
REMARK    2  A    between atoms: N_5  and  C_7 
REMARK    3  A    between atoms: C_7  and  C_8 
REMARK    4  A    between atoms: C_8  and  C_9 
REMARK    5  A    between atoms: C_12  and  C_13 
REMARK       I    between atoms: C_13  and  N_15 
REMARK    6  A    between atoms: N_15  and  C_17 
ROOT
HETATM    1  C   UNL     1       9.695   1.634  24.402  1.00  0.00     0.171 A 
HETATM    2  C   UNL     1      11.304   3.463  23.688  1.00  0.00     0.059 C 
HETATM    3  S   UNL     1      11.043   1.759  23.313  1.00  0.00    -0.147 SA
HETATM    4  C   UNL     1       9.396   1.501  23.268  1.00  0.00     0.067 A 
ENDROOT
BRANCH   4   5
HETATM    5  C   UNL     1       8.176   1.118  22.344  1.00  0.00     0.261 C 
HETATM    6  O   UNL     1       7.128   1.699  22.469  1.00  0.00    -0.267 OA
HETATM    7  N   UNL     1       8.348   0.126  21.404  1.00  0.00    -0.308 N 
ATOM      8  HN  UNL     1       9.185  -0.457  21.434  1.00  0.00     0.170 HD
BRANCH   7   9
HETATM    9  C   UNL     1       7.417  -0.087  20.438  1.00  0.00     0.122 A 
HETATM   10  N   UNL     1       6.161  -0.518  20.642  1.00  0.00    -0.286 N 
HETATM   11  N   UNL     1       5.259  -0.700  19.862  1.00  0.00    -0.310 N 
ATOM     12  HN  UNL     1       5.932  -0.726  21.615  1.00  0.00     0.188 HD
HETATM   13  C   UNL     1       5.476  -0.467  18.662  1.00  0.00     0.107 A 
ATOM     14  HN  UNL     1       4.348  -1.034  20.178  1.00  0.00     0.186 HD
HETATM   15  C   UNL     1       6.569  -0.046  18.424  1.00  0.00     0.022 A 
HETATM   16  C   UNL     1       7.652   0.275  19.069  1.00  0.00     0.051 A 
ENDBRANCH   7   9
ENDBRANCH   4   5
BRANCH   1  17
HETATM   17  C   UNL     1       9.505   0.396  25.147  1.00  0.00    -0.062 C 
BRANCH  17  18
HETATM   18  C   UNL     1       9.311  -0.678  25.368  1.00  0.00     0.022 C 
BRANCH  18  19
HETATM   19  N   UNL     1       9.082  -1.870  25.354  1.00  0.00    -0.230 N 
ATOM     20  HN  UNL     1       9.173  -2.392  26.225  1.00  0.00     0.190 HD
BRANCH  19  21
HETATM   21  S   UNL     1       8.636  -2.670  24.017  1.00  0.00     0.327 S 
HETATM   22 CL   UNL     1       6.883  -1.971  23.828  1.00  0.00     0.042 Cl
HETATM   23  O   UNL     1       9.352  -2.282  22.811  1.00  0.00    -0.188 OA
HETATM   24  O   UNL     1       8.608  -4.084  24.228  1.00  0.00    -0.188 OA
ENDBRANCH  19  21
ENDBRANCH  18  19
ENDBRANCH  17  18
ENDBRANCH   1  17
TORSDOF 6
ENDMDL
MODEL 6
REMARK VINA RESULT:    -5.314     23.931     26.293
REMARK INTER + INTRA:          -8.447
REMARK INTER:                  -7.725
REMARK INTRA:                  -0.722
REMARK UNBOUND:                -1.268
REMARK  6 active torsions:
REMARK  status: ('A' for Active; 'I' for Inactive)
REMARK    1  A    between atoms: S_2  and  N_5 
REMARK    2  A    between atoms: N_5  and  C_7 
REMARK    3  A    between atoms: C_7  and  C_8 
REMARK    4  A    between atoms: C_8  and  C_9 
REMARK    5  A    between atoms: C_12  and  C_13 
REMARK       I    between atoms: C_13  and  N_15 
REMARK    6  A    between atoms: N_15  and  C_17 
ROOT
HETATM    1  C   UNL     1       6.735  -0.621  20.010  1.00  0.00     0.171 A 
HETATM    2  C   UNL     1       6.003   0.981  18.181  1.00  0.00     0.059 C 
HETATM    3  S   UNL     1       6.037   0.968  19.946  1.00  0.00    -0.147 SA
HETATM    4  C   UNL     1       7.452   0.224  20.416  1.00  0.00     0.067 A 
ENDROOT
BRANCH   4   5
HETATM    5  C   UNL     1       8.839   0.431  21.139  1.00  0.00     0.261 C 
HETATM    6  O   UNL     1       9.305   1.538  21.229  1.00  0.00    -0.267 OA
HETATM    7  N   UNL     1       9.481  -0.670  21.662  1.00  0.00    -0.308 N 
ATOM      8  HN  UNL     1       9.147  -1.606  21.427  1.00  0.00     0.170 HD
BRANCH   7   9
HETATM    9  C   UNL     1      10.551  -0.527  22.486  1.00  0.00     0.122 A 
HETATM   10  N   UNL     1      10.724   0.461  23.380  1.00  0.00    -0.286 N 
HETATM   11  N   UNL     1      11.612   0.651  24.174  1.00  0.00    -0.310 N 
ATOM     12  HN  UNL     1       9.984   1.164  23.390  1.00  0.00     0.188 HD
HETATM   13  C   UNL     1      12.543  -0.169  24.209  1.00  0.00     0.107 A 
ATOM     14  HN  UNL     1      11.599   1.460  24.796  1.00  0.00     0.186 HD
HETATM   15  C   UNL     1      12.425  -1.091  23.458  1.00  0.00     0.022 A 
HETATM   16  C   UNL     1      11.571  -1.532  22.580  1.00  0.00     0.051 A 
ENDBRANCH   7   9
ENDBRANCH   4   5
BRANCH   1  17
HETATM   17  C   UNL     1       6.327  -1.526  21.077  1.00  0.00    -0.062 C 
BRANCH  17  18
HETATM   18  C   UNL     1       6.334  -2.384  21.787  1.00  0.00     0.022 C 
BRANCH  18  19
HETATM   19  N   UNL     1       6.452  -3.150  22.720  1.00  0.00    -0.230 N 
ATOM     20  HN  UNL     1       6.965  -2.837  23.544  1.00  0.00     0.190 HD
BRANCH  19  21
HETATM   21  S   UNL     1       5.834  -4.648  22.720  1.00  0.00     0.327 S 
HETATM   22 CL   UNL     1       4.135  -4.264  23.470  1.00  0.00     0.042 Cl
HETATM   23  O   UNL     1       5.572  -5.196  21.398  1.00  0.00    -0.188 OA
HETATM   24  O   UNL     1       6.581  -5.531  23.561  1.00  0.00    -0.188 OA
ENDBRANCH  19  21
ENDBRANCH  18  19
ENDBRANCH  17  18
ENDBRANCH   1  17
TORSDOF 6
ENDMDL
MODEL 7
REMARK VINA RESULT:    -5.304     26.808     29.425
REMARK INTER + INTRA:          -8.433
REMARK INTER:                  -6.952
REMARK INTRA:                  -1.481
REMARK UNBOUND:                -1.268
REMARK  6 active torsions:
REMARK  status: ('A' for Active; 'I' for Inactive)
REMARK    1  A    between atoms: S_2  and  N_5 
REMARK    2  A    between atoms: N_5  and  C_7 
REMARK    3  A    between atoms: C_7  and  C_8 
REMARK    4  A    between atoms: C_8  and  C_9 
REMARK    5  A    between atoms: C_12  and  C_13 
REMARK       I    between atoms: C_13  and  N_15 
REMARK    6  A    between atoms: N_15  and  C_17 
ROOT
HETATM    1  C   UNL     1       4.033  -6.100  23.919  1.00  0.00     0.171 A 
HETATM    2  C   UNL     1       1.696  -6.355  22.960  1.00  0.00     0.059 C 
HETATM    3  S   UNL     1       2.591  -5.132  23.864  1.00  0.00    -0.147 SA
HETATM    4  C   UNL     1       4.151  -5.116  23.278  1.00  0.00     0.067 A 
ENDROOT
BRANCH   4   5
HETATM    5  C   UNL     1       5.231  -4.260  22.510  1.00  0.00     0.261 C 
HETATM    6  O   UNL     1       5.570  -4.584  21.400  1.00  0.00    -0.267 OA
HETATM    7  N   UNL     1       5.754  -3.147  23.132  1.00  0.00    -0.308 N 
ATOM      8  HN  UNL     1       5.574  -2.994  24.124  1.00  0.00     0.170 HD
BRANCH   7   9
HETATM    9  C   UNL     1       6.506  -2.252  22.441  1.00  0.00     0.122 A 
HETATM   10  N   UNL     1       6.118  -1.588  21.339  1.00  0.00    -0.286 N 
HETATM   11  N   UNL     1       6.694  -0.754  20.684  1.00  0.00    -0.310 N 
ATOM     12  HN  UNL     1       5.185  -1.827  21.002  1.00  0.00     0.188 HD
HETATM   13  C   UNL     1       7.835  -0.422  21.043  1.00  0.00     0.107 A 
ATOM     14  HN  UNL     1       6.258  -0.336  19.862  1.00  0.00     0.186 HD
HETATM   15  C   UNL     1       8.220  -0.956  22.041  1.00  0.00     0.022 A 
HETATM   16  C   UNL     1       7.785  -1.810  22.921  1.00  0.00     0.051 A 
ENDBRANCH   7   9
ENDBRANCH   4   5
BRANCH   1  17
HETATM   17  C   UNL     1       4.865  -6.056  25.115  1.00  0.00    -0.062 C 
BRANCH  17  18
HETATM   18  C   UNL     1       5.766  -6.072  25.769  1.00  0.00     0.022 C 
BRANCH  18  19
HETATM   19  N   UNL     1       6.743  -5.835  26.449  1.00  0.00    -0.230 N 
ATOM     20  HN  UNL     1       6.927  -6.428  27.257  1.00  0.00     0.190 HD
BRANCH  19  21
HETATM   21  S   UNL     1       7.768  -4.621  26.133  1.00  0.00     0.327 S 
HETATM   22 CL   UNL     1       8.338  -5.161  24.407  1.00  0.00     0.042 Cl
HETATM   23  O   UNL     1       7.136  -3.323  25.956  1.00  0.00    -0.188 OA
HETATM   24  O   UNL     1       8.863  -4.597  27.053  1.00  0.00    -0.188 OA
ENDBRANCH  19  21
ENDBRANCH  18  19
ENDBRANCH  17  18
ENDBRANCH   1  17
TORSDOF 6
ENDMDL
MODEL 8
REMARK VINA RESULT:    -5.209     29.777     32.394
REMARK INTER + INTRA:          -8.304
REMARK INTER:                  -7.045
REMARK INTRA:                  -1.259
REMARK UNBOUND:                -1.268
REMARK  6 active torsions:
REMARK  status: ('A' for Active; 'I' for Inactive)
REMARK    1  A    between atoms: S_2  and  N_5 
REMARK    2  A    between atoms: N_5  and  C_7 
REMARK    3  A    between atoms: C_7  and  C_8 
REMARK    4  A    between atoms: C_8  and  C_9 
REMARK    5  A    between atoms: C_12  and  C_13 
REMARK       I    between atoms: C_13  and  N_15 
REMARK    6  A    between atoms: N_15  and  C_17 
ROOT
HETATM    1  C   UNL     1       5.954  -6.173  26.810  1.00  0.00     0.171 A 
HETATM    2  C   UNL     1       5.963  -6.491  29.329  1.00  0.00     0.059 C 
HETATM    3  S   UNL     1       5.319  -5.316  28.181  1.00  0.00    -0.147 SA
HETATM    4  C   UNL     1       4.775  -6.159  26.850  1.00  0.00     0.067 A 
ENDROOT
BRANCH   4   5
HETATM    5  C   UNL     1       3.501  -6.557  26.008  1.00  0.00     0.261 C 
HETATM    6  O   UNL     1       2.668  -5.723  25.759  1.00  0.00    -0.267 OA
HETATM    7  N   UNL     1       3.381  -7.857  25.569  1.00  0.00    -0.308 N 
ATOM      8  HN  UNL     1       4.011  -8.571  25.932  1.00  0.00     0.170 HD
BRANCH   7   9
HETATM    9  C   UNL     1       2.433  -8.199  24.657  1.00  0.00     0.122 A 
HETATM   10  N   UNL     1       2.406  -7.808  23.372  1.00  0.00    -0.286 N 
HETATM   11  N   UNL     1       1.636  -8.086  22.485  1.00  0.00    -0.310 N 
ATOM     12  HN  UNL     1       3.157  -7.173  23.102  1.00  0.00     0.188 HD
HETATM   13  C   UNL     1       0.698  -8.854  22.753  1.00  0.00     0.107 A 
ATOM     14  HN  UNL     1       1.752  -7.703  21.547  1.00  0.00     0.186 HD
HETATM   15  C   UNL     1       0.691  -9.263  23.876  1.00  0.00     0.022 A 
HETATM   16  C   UNL     1       1.410  -9.160  24.956  1.00  0.00     0.051 A 
ENDBRANCH   7   9
ENDBRANCH   4   5
BRANCH   1  17
HETATM   17  C   UNL     1       6.454  -5.411  25.673  1.00  0.00    -0.062 C 
BRANCH  17  18
HETATM   18  C   UNL     1       6.505  -4.938  24.666  1.00  0.00     0.022 C 
BRANCH  18  19
HETATM   19  N   UNL     1       6.364  -4.283  23.654  1.00  0.00    -0.230 N 
ATOM     20  HN  UNL     1       6.735  -3.333  23.636  1.00  0.00     0.190 HD
BRANCH  19  21
HETATM   21  S   UNL     1       5.616  -4.845  22.332  1.00  0.00     0.327 S 
HETATM   22 CL   UNL     1       6.886  -6.153  21.810  1.00  0.00     0.042 Cl
HETATM   23  O   UNL     1       4.382  -5.570  22.595  1.00  0.00    -0.188 OA
HETATM   24  O   UNL     1       5.476  -3.835  21.330  1.00  0.00    -0.188 OA
ENDBRANCH  19  21
ENDBRANCH  18  19
ENDBRANCH  17  18
ENDBRANCH   1  17
TORSDOF 6
ENDMDL
MODEL 9
REMARK VINA RESULT:    -5.094     29.114     30.712
REMARK INTER + INTRA:          -8.148
REMARK INTER:                  -7.424
REMARK INTRA:                  -0.724
REMARK UNBOUND:                -1.268
REMARK  6 active torsions:
REMARK  status: ('A' for Active; 'I' for Inactive)
REMARK    1  A    between atoms: S_2  and  N_5 
REMARK    2  A    between atoms: N_5  and  C_7 
REMARK    3  A    between atoms: C_7  and  C_8 
REMARK    4  A    between atoms: C_8  and  C_9 
REMARK    5  A    between atoms: C_12  and  C_13 
REMARK       I    between atoms: C_13  and  N_15 
REMARK    6  A    between atoms: N_15  and  C_17 
ROOT
HETATM    1  C   UNL     1      24.891  -2.811  19.613  1.00  0.00     0.171 A 
HETATM    2  C   UNL     1      26.023  -0.857  18.453  1.00  0.00     0.059 C 
HETATM    3  S   UNL     1      24.483  -1.710  18.333  1.00  0.00    -0.147 SA
HETATM    4  C   UNL     1      23.997  -2.089  19.882  1.00  0.00     0.067 A 
ENDROOT
BRANCH   4   5
HETATM    5  C   UNL     1      22.908  -1.825  20.993  1.00  0.00     0.261 C 
HETATM    6  O   UNL     1      21.742  -1.799  20.690  1.00  0.00    -0.267 OA
HETATM    7  N   UNL     1      23.324  -1.638  22.293  1.00  0.00    -0.308 N 
ATOM      8  HN  UNL     1      24.316  -1.500  22.489  1.00  0.00     0.170 HD
BRANCH   7   9
HETATM    9  C   UNL     1      22.431  -1.635  23.316  1.00  0.00     0.122 A 
HETATM   10  N   UNL     1      21.172  -1.168  23.256  1.00  0.00    -0.286 N 
HETATM   11  N   UNL     1      20.301  -1.156  24.091  1.00  0.00    -0.310 N 
ATOM     12  HN  UNL     1      20.911  -0.757  22.360  1.00  0.00     0.188 HD
HETATM   13  C   UNL     1      20.560  -1.641  25.204  1.00  0.00     0.107 A 
ATOM     14  HN  UNL     1      19.383  -0.760  23.889  1.00  0.00     0.186 HD
HETATM   15  C   UNL     1      21.657  -2.105  25.306  1.00  0.00     0.022 A 
HETATM   16  C   UNL     1      22.713  -2.282  24.566  1.00  0.00     0.051 A 
ENDBRANCH   7   9
ENDBRANCH   4   5
BRANCH   1  17
HETATM   17  C   UNL     1      24.444  -4.195  19.520  1.00  0.00    -0.062 C 
BRANCH  17  18
HETATM   18  C   UNL     1      24.284  -5.267  19.776  1.00  0.00     0.022 C 
BRANCH  18  19
HETATM   19  N   UNL     1      24.316  -6.402  20.204  1.00  0.00    -0.230 N 
ATOM     20  HN  UNL     1      23.619  -7.067  19.870  1.00  0.00     0.190 HD
BRANCH  19  21
HETATM   21  S   UNL     1      25.415  -6.911  21.281  1.00  0.00     0.327 S 
HETATM   22 CL   UNL     1      25.492  -8.738  20.779  1.00  0.00     0.042 Cl
HETATM   23  O   UNL     1      26.756  -6.385  21.076  1.00  0.00    -0.188 OA
HETATM   24  O   UNL     1      24.949  -6.765  22.625  1.00  0.00    -0.188 OA
ENDBRANCH  19  21
ENDBRANCH  18  19
ENDBRANCH  17  18
ENDBRANCH   1  17
TORSDOF 6
ENDMDL
