stable:False satoms:20 tatoms:24 sratio:0.8333333333333334
  -OEChem-07092417333D

 24 24  0     1  0  0  0  0  0999 V2000
    6.8530   -1.4610   24.5449 H   0  0  0  0  0  0  0  0  0  0  0  0
    7.7341   -0.8252   24.3240 C   0  0  0  0  0  0  0  0  0  0  0  0
   10.2000   -3.1377   22.5002 O   0  0  0  0  0  0  0  0  0  0  0  0
    8.8653   -1.3961   25.9983 H   0  0  0  0  0  0  0  0  0  0  0  0
    8.8241   -2.6156   24.7028 H   0  0  0  0  0  0  0  0  0  0  0  0
   11.0571   -0.9182   22.6522 C   0  0  0  0  0  0  0  0  0  0  0  0
    9.1767   -1.6673   20.1073 H   0  0  0  0  0  0  0  0  0  0  0  0
    8.3601   -0.5320   19.3712 H   0  0  0  0  0  0  0  0  0  0  0  0
    7.8597   -0.5774   22.8631 C   0  0  1  0  0  0  0  0  0  0  0  0
   11.7867   -1.3272   23.3592 H   0  0  0  0  0  0  0  0  0  0  0  0
   10.6960    0.0123   23.0855 H   0  0  0  0  0  0  0  0  0  0  0  0
   11.6084   -0.6810   21.7335 H   0  0  0  0  0  0  0  0  0  0  0  0
    9.9982   -1.9444   22.3628 C   0  0  0  0  0  0  0  0  0  0  0  0
    9.9239   -1.2349   24.6265 H   0  0  0  0  0  0  0  0  0  0  0  0
    8.0040   -2.4289   22.0384 H   0  0  0  0  0  0  0  0  0  0  0  0
    8.9221   -1.5462   24.9265 C   0  0  0  0  0  0  0  0  0  0  0  0
    8.5747   -1.4846   22.0060 C   0  0  2  0  0  0  0  0  0  0  0  0
    8.8392    0.1141   20.7148 H   0  0  0  0  0  0  0  0  0  0  0  0
    6.8383   -1.1529   20.4690 C   0  3  0  0  0  0  0  0  0  0  0  0
    8.4230   -0.8934   20.4474 C   0  0  0  0  0  0  0  0  0  0  0  0
    7.0263    0.3210   22.3036 O   0  0  0  0  0  0  0  0  0  0  0  0
    6.5134   -2.1557   20.4048 H   0  0  0  0  0  0  0  0  0  0  0  0
    5.9866    0.0669   21.0119 S   0  0  0  0  0  0  0  0  0  0  0  0
    7.5134    0.1752   24.7429 H   0  0  0  0  0  0  0  0  0  0  0  0
  8 20  1  0  0  0  0
  7 20  1  0  0  0  0
 19 22  1  0  0  0  0
 19 20  1  0  0  0  0
 18 20  1  0  0  0  0
 17 20  1  0  0  0  0
 19 23  1  0  0  0  0
 21 23  1  0  0  0  0
  6 12  1  0  0  0  0
 15 17  1  0  0  0  0
 13 17  1  0  0  0  0
  9 17  1  0  0  0  0
  9 21  1  0  0  0  0
  3 13  2  0  0  0  0
  6 13  1  0  0  0  0
  6 11  1  0  0  0  0
  6 10  1  0  0  0  0
  2  9  1  0  0  0  0
  1  2  1  0  0  0  0
  2 24  1  0  0  0  0
  2 16  1  0  0  0  0
 14 16  1  0  0  0  0
  5 16  1  0  0  0  0
  4 16  1  0  0  0  0
M  CHG  1  19   1
M  END
> <Shapegauss>
-95.250061

$$$$
