MODEL 1
REMARK VINA RESULT:    -4.165      0.000      0.000
REMARK INTER + INTRA:          -4.899
REMARK INTER:                  -4.652
REMARK INTRA:                  -0.247
REMARK UNBOUND:                -0.247
REMARK  2 active torsions:
REMARK  status: ('A' for Active; 'I' for Inactive)
REMARK    1  A    between atoms: C_1  and  C_4 
REMARK    2  A    between atoms: C_5  and  C_7 
ROOT
HETATM    1  C   UNL     1       9.930   0.452  21.721  1.00  0.00     0.148 C 
HETATM    2  C   UNL     1      10.168  -0.575  22.700  1.00  0.00     0.085 C 
HETATM    3  C   UNL     1       7.905  -1.125  22.441  1.00  0.00     0.045 C 
HETATM    4  C   UNL     1       9.286  -1.913  22.214  1.00  0.00     0.060 C 
HETATM    5  O   UNL     1       8.917   0.294  20.848  1.00  0.00    -0.310 OA
HETATM    6  S   UNL     1       7.394  -0.331  21.170  1.00  0.00     0.012 SA
ENDROOT
BRANCH   2   7
HETATM    7  C   UNL     1      11.597  -0.903  23.161  1.00  0.00     0.129 C 
HETATM    8  O   UNL     1      12.198  -1.793  22.584  1.00  0.00    -0.298 OA
HETATM    9  C   UNL     1      12.161  -0.217  24.373  1.00  0.00     0.091 C 
ENDBRANCH   2   7
BRANCH   1  10
HETATM   10  C   UNL     1      10.515   1.812  21.865  1.00  0.00     0.029 C 
HETATM   11  C   UNL     1       9.982   2.585  23.054  1.00  0.00     0.007 C 
ENDBRANCH   1  10
TORSDOF 2
ENDMDL
MODEL 2
REMARK VINA RESULT:    -3.951      1.928      3.277
REMARK INTER + INTRA:          -4.660
REMARK INTER:                  -4.414
REMARK INTRA:                  -0.246
REMARK UNBOUND:                -0.247
REMARK  2 active torsions:
REMARK  status: ('A' for Active; 'I' for Inactive)
REMARK    1  A    between atoms: C_1  and  C_4 
REMARK    2  A    between atoms: C_5  and  C_7 
ROOT
HETATM    1  C   UNL     1      10.634  -0.718  23.765  1.00  0.00     0.148 C 
HETATM    2  C   UNL     1       9.868   0.243  23.017  1.00  0.00     0.085 C 
HETATM    3  C   UNL     1       8.042  -1.186  23.353  1.00  0.00     0.045 C 
HETATM    4  C   UNL     1       8.366   0.336  23.752  1.00  0.00     0.060 C 
HETATM    5  O   UNL     1       9.993  -1.518  24.640  1.00  0.00    -0.310 OA
HETATM    6  S   UNL     1       8.500  -2.252  24.431  1.00  0.00     0.012 SA
ENDROOT
BRANCH   2   7
HETATM    7  C   UNL     1      10.468   1.610  22.651  1.00  0.00     0.129 C 
HETATM    8  O   UNL     1      10.614   1.876  21.470  1.00  0.00    -0.298 OA
HETATM    9  C   UNL     1      10.966   2.517  23.740  1.00  0.00     0.091 C 
ENDBRANCH   2   7
BRANCH   1  10
HETATM   10  C   UNL     1      12.012  -1.099  23.357  1.00  0.00     0.029 C 
HETATM   11  C   UNL     1      13.097  -0.482  24.216  1.00  0.00     0.007 C 
ENDBRANCH   1  10
TORSDOF 2
ENDMDL
MODEL 3
REMARK VINA RESULT:    -3.942      2.162      2.328
REMARK INTER + INTRA:          -4.649
REMARK INTER:                  -4.386
REMARK INTRA:                  -0.264
REMARK UNBOUND:                -0.247
REMARK  2 active torsions:
REMARK  status: ('A' for Active; 'I' for Inactive)
REMARK    1  A    between atoms: C_1  and  C_4 
REMARK    2  A    between atoms: C_5  and  C_7 
ROOT
HETATM    1  C   UNL     1      10.056   0.791  23.354  1.00  0.00     0.148 C 
HETATM    2  C   UNL     1      10.737   0.013  24.355  1.00  0.00     0.085 C 
HETATM    3  C   UNL     1       8.702   0.019  25.517  1.00  0.00     0.045 C 
HETATM    4  C   UNL     1       9.642  -1.130  24.901  1.00  0.00     0.060 C 
HETATM    5  O   UNL     1       8.717   0.687  23.252  1.00  0.00    -0.310 OA
HETATM    6  S   UNL     1       7.614   0.577  24.511  1.00  0.00     0.012 SA
ENDROOT
BRANCH   2   7
HETATM    7  C   UNL     1      12.143  -0.547  24.090  1.00  0.00     0.129 C 
HETATM    8  O   UNL     1      13.082  -0.052  24.688  1.00  0.00    -0.298 OA
HETATM    9  C   UNL     1      12.337  -1.590  23.026  1.00  0.00     0.091 C 
ENDBRANCH   2   7
BRANCH   1  10
HETATM   10  C   UNL     1      10.715   1.946  22.688  1.00  0.00     0.029 C 
HETATM   11  C   UNL     1      11.208   3.008  23.649  1.00  0.00     0.007 C 
ENDBRANCH   1  10
TORSDOF 2
ENDMDL
MODEL 4
REMARK VINA RESULT:    -3.921     14.194     15.443
REMARK INTER + INTRA:          -4.627
REMARK INTER:                  -4.343
REMARK INTRA:                  -0.284
REMARK UNBOUND:                -0.247
REMARK  2 active torsions:
REMARK  status: ('A' for Active; 'I' for Inactive)
REMARK    1  A    between atoms: C_1  and  C_4 
REMARK    2  A    between atoms: C_5  and  C_7 
ROOT
HETATM    1  C   UNL     1      23.776  -2.441  16.478  1.00  0.00     0.148 C 
HETATM    2  C   UNL     1      23.956  -1.329  17.373  1.00  0.00     0.085 C 
HETATM    3  C   UNL     1      24.973  -0.242  15.564  1.00  0.00     0.045 C 
HETATM    4  C   UNL     1      23.684   0.058  16.475  1.00  0.00     0.060 C 
HETATM    5  O   UNL     1      23.728  -2.206  15.153  1.00  0.00    -0.310 OA
HETATM    6  S   UNL     1      24.673  -1.125  14.285  1.00  0.00     0.012 SA
ENDROOT
BRANCH   2   7
HETATM    7  C   UNL     1      23.284  -1.319  18.756  1.00  0.00     0.129 C 
HETATM    8  O   UNL     1      22.114  -0.985  18.825  1.00  0.00    -0.298 OA
HETATM    9  C   UNL     1      24.108  -1.595  19.982  1.00  0.00     0.091 C 
ENDBRANCH   2   7
BRANCH   1  10
HETATM   10  C   UNL     1      23.997  -3.842  16.926  1.00  0.00     0.029 C 
HETATM   11  C   UNL     1      25.434  -4.147  17.296  1.00  0.00     0.007 C 
ENDBRANCH   1  10
TORSDOF 2
ENDMDL
MODEL 5
REMARK VINA RESULT:    -3.880      1.618      2.651
REMARK INTER + INTRA:          -4.581
REMARK INTER:                  -4.350
REMARK INTRA:                  -0.231
REMARK UNBOUND:                -0.247
REMARK  2 active torsions:
REMARK  status: ('A' for Active; 'I' for Inactive)
REMARK    1  A    between atoms: C_1  and  C_4 
REMARK    2  A    between atoms: C_5  and  C_7 
ROOT
HETATM    1  C   UNL     1       9.276  -0.943  23.532  1.00  0.00     0.148 C 
HETATM    2  C   UNL     1      10.436  -0.821  22.689  1.00  0.00     0.085 C 
HETATM    3  C   UNL     1       8.964  -0.030  21.046  1.00  0.00     0.045 C 
HETATM    4  C   UNL     1      10.239   0.587  21.804  1.00  0.00     0.060 C 
HETATM    5  O   UNL     1       8.206  -0.165  23.278  1.00  0.00    -0.310 OA
HETATM    6  S   UNL     1       7.584   0.238  21.774  1.00  0.00     0.012 SA
ENDROOT
BRANCH   2   7
HETATM    7  C   UNL     1      11.848  -1.001  23.268  1.00  0.00     0.129 C 
HETATM    8  O   UNL     1      12.518  -1.938  22.870  1.00  0.00    -0.298 OA
HETATM    9  C   UNL     1      12.312  -0.107  24.383  1.00  0.00     0.091 C 
ENDBRANCH   2   7
BRANCH   1  10
HETATM   10  C   UNL     1       9.084  -2.119  24.422  1.00  0.00     0.029 C 
HETATM   11  C   UNL     1       8.721  -1.755  25.847  1.00  0.00     0.007 C 
ENDBRANCH   1  10
TORSDOF 2
ENDMDL
MODEL 6
REMARK VINA RESULT:    -3.854     11.910     13.684
REMARK INTER + INTRA:          -4.552
REMARK INTER:                  -4.288
REMARK INTRA:                  -0.264
REMARK UNBOUND:                -0.247
REMARK  2 active torsions:
REMARK  status: ('A' for Active; 'I' for Inactive)
REMARK    1  A    between atoms: C_1  and  C_4 
REMARK    2  A    between atoms: C_5  and  C_7 
ROOT
HETATM    1  C   UNL     1      22.010  -1.423  26.167  1.00  0.00     0.148 C 
HETATM    2  C   UNL     1      23.216  -1.947  25.583  1.00  0.00     0.085 C 
HETATM    3  C   UNL     1      24.251   0.009  26.355  1.00  0.00     0.045 C 
HETATM    4  C   UNL     1      24.463  -1.559  26.632  1.00  0.00     0.060 C 
HETATM    5  O   UNL     1      22.109  -0.544  27.183  1.00  0.00    -0.310 OA
HETATM    6  S   UNL     1      23.217   0.706  27.332  1.00  0.00     0.012 SA
ENDROOT
BRANCH   2   7
HETATM    7  C   UNL     1      23.270  -3.389  25.056  1.00  0.00     0.129 C 
HETATM    8  O   UNL     1      23.237  -3.563  23.850  1.00  0.00    -0.298 OA
HETATM    9  C   UNL     1      23.236  -4.535  26.027  1.00  0.00     0.091 C 
ENDBRANCH   2   7
BRANCH   1  10
HETATM   10  C   UNL     1      20.700  -1.534  25.471  1.00  0.00     0.029 C 
HETATM   11  C   UNL     1      20.677  -0.886  24.102  1.00  0.00     0.007 C 
ENDBRANCH   1  10
TORSDOF 2
ENDMDL
MODEL 7
REMARK VINA RESULT:    -3.853      6.073      7.830
REMARK INTER + INTRA:          -4.550
REMARK INTER:                  -4.314
REMARK INTRA:                  -0.236
REMARK UNBOUND:                -0.247
REMARK  2 active torsions:
REMARK  status: ('A' for Active; 'I' for Inactive)
REMARK    1  A    between atoms: C_1  and  C_4 
REMARK    2  A    between atoms: C_5  and  C_7 
ROOT
HETATM    1  C   UNL     1       5.964  -5.604  25.117  1.00  0.00     0.148 C 
HETATM    2  C   UNL     1       6.421  -4.747  24.056  1.00  0.00     0.085 C 
HETATM    3  C   UNL     1       8.017  -3.968  25.585  1.00  0.00     0.045 C 
HETATM    4  C   UNL     1       8.092  -4.705  24.159  1.00  0.00     0.060 C 
HETATM    5  O   UNL     1       6.828  -5.944  26.093  1.00  0.00    -0.310 OA
HETATM    6  S   UNL     1       7.968  -4.954  26.823  1.00  0.00     0.012 SA
ENDROOT
BRANCH   2   7
HETATM    7  C   UNL     1       5.888  -4.919  22.624  1.00  0.00     0.129 C 
HETATM    8  O   UNL     1       4.946  -4.230  22.274  1.00  0.00    -0.298 OA
HETATM    9  C   UNL     1       6.452  -6.003  21.749  1.00  0.00     0.091 C 
ENDBRANCH   2   7
BRANCH   1  10
HETATM   10  C   UNL     1       4.515  -5.828  25.365  1.00  0.00     0.029 C 
HETATM   11  C   UNL     1       4.019  -7.185  24.909  1.00  0.00     0.007 C 
ENDBRANCH   1  10
TORSDOF 2
ENDMDL
MODEL 8
REMARK VINA RESULT:    -3.825      3.960      5.505
REMARK INTER + INTRA:          -4.519
REMARK INTER:                  -4.330
REMARK INTRA:                  -0.189
REMARK UNBOUND:                -0.247
REMARK  2 active torsions:
REMARK  status: ('A' for Active; 'I' for Inactive)
REMARK    1  A    between atoms: C_1  and  C_4 
REMARK    2  A    between atoms: C_5  and  C_7 
ROOT
HETATM    1  C   UNL     1       7.889  -3.857  23.772  1.00  0.00     0.148 C 
HETATM    2  C   UNL     1       8.571  -3.473  24.980  1.00  0.00     0.085 C 
HETATM    3  C   UNL     1       9.715  -1.919  23.652  1.00  0.00     0.045 C 
HETATM    4  C   UNL     1       8.742  -1.809  24.925  1.00  0.00     0.060 C 
HETATM    5  O   UNL     1       7.787  -2.961  22.772  1.00  0.00    -0.310 OA
HETATM    6  S   UNL     1       8.966  -1.884  22.257  1.00  0.00     0.012 SA
ENDROOT
BRANCH   2   7
HETATM    7  C   UNL     1       8.110  -4.009  26.345  1.00  0.00     0.129 C 
HETATM    8  O   UNL     1       8.902  -4.657  27.006  1.00  0.00    -0.298 OA
HETATM    9  C   UNL     1       6.679  -3.829  26.767  1.00  0.00     0.091 C 
ENDBRANCH   2   7
BRANCH   1  10
HETATM   10  C   UNL     1       7.616  -5.285  23.455  1.00  0.00     0.029 C 
HETATM   11  C   UNL     1       7.077  -5.508  22.057  1.00  0.00     0.007 C 
ENDBRANCH   1  10
TORSDOF 2
ENDMDL
MODEL 9
REMARK VINA RESULT:    -3.763      2.109      3.621
REMARK INTER + INTRA:          -4.450
REMARK INTER:                  -4.166
REMARK INTRA:                  -0.284
REMARK UNBOUND:                -0.247
REMARK  2 active torsions:
REMARK  status: ('A' for Active; 'I' for Inactive)
REMARK    1  A    between atoms: C_1  and  C_4 
REMARK    2  A    between atoms: C_5  and  C_7 
ROOT
HETATM    1  C   UNL     1      10.002   0.579  23.956  1.00  0.00     0.148 C 
HETATM    2  C   UNL     1      10.038   1.737  23.103  1.00  0.00     0.085 C 
HETATM    3  C   UNL     1       9.380   0.293  21.379  1.00  0.00     0.045 C 
HETATM    4  C   UNL     1       8.739   1.602  22.055  1.00  0.00     0.060 C 
HETATM    5  O   UNL     1       9.209  -0.454  23.613  1.00  0.00    -0.310 OA
HETATM    6  S   UNL     1       8.960  -1.068  22.072  1.00  0.00     0.012 SA
ENDROOT
BRANCH   2   7
HETATM    7  C   UNL     1      10.216   3.144  23.698  1.00  0.00     0.129 C 
HETATM    8  O   UNL     1       9.240   3.693  24.177  1.00  0.00    -0.298 OA
HETATM    9  C   UNL     1      11.539   3.843  23.562  1.00  0.00     0.091 C 
ENDBRANCH   2   7
BRANCH   1  10
HETATM   10  C   UNL     1      11.052   0.337  24.981  1.00  0.00     0.029 C 
HETATM   11  C   UNL     1      12.434   0.117  24.402  1.00  0.00     0.007 C 
ENDBRANCH   1  10
TORSDOF 2
ENDMDL
