REMARK  2 active torsions:
REMARK  status: ('A' for Active; 'I' for Inactive)
REMARK    1  A    between atoms: C_1  and  C_4 
REMARK    2  A    between atoms: C_5  and  C_7 
ROOT
HETATM    1  C   UNL     1       7.860  -0.577  22.863  1.00  0.00     0.148 C 
HETATM    2  C   UNL     1       8.575  -1.485  22.006  1.00  0.00     0.085 C 
HETATM    3  C   UNL     1       6.838  -1.153  20.469  1.00  0.00     0.045 C 
HETATM    4  C   UNL     1       8.423  -0.893  20.447  1.00  0.00     0.060 C 
HETATM    5  O   UNL     1       7.026   0.321  22.304  1.00  0.00    -0.310 OA
HETATM    6  S   UNL     1       5.987   0.067  21.012  1.00  0.00     0.012 SA
ENDROOT
BRANCH   2   7
HETATM    7  C   UNL     1       9.998  -1.944  22.363  1.00  0.00     0.129 C 
HETATM    8  O   UNL     1      10.200  -3.138  22.500  1.00  0.00    -0.298 OA
HETATM    9  C   UNL     1      11.057  -0.918  22.652  1.00  0.00     0.091 C 
ENDBRANCH   2   7
BRANCH   1  10
HETATM   10  C   UNL     1       7.734  -0.825  24.324  1.00  0.00     0.029 C 
HETATM   11  C   UNL     1       8.922  -1.546  24.927  1.00  0.00     0.007 C 
ENDBRANCH   1  10
TORSDOF 2
