stable:False satoms:17 tatoms:24 sratio:0.7083333333333334
  -OEChem-07092417343D

 24 25  0     1  0  0  0  0  0999 V2000
    7.2917   -4.4917   26.1155 H   0  0  0  0  0  0  0  0  0  0  0  0
    7.3555   -2.6190   24.6952 S   0  0  0  0  0  0  0  0  0  0  0  0
    8.1227   -3.9188   25.6928 C   0  0  0  0  0  0  0  0  0  0  0  0
    8.7163   -3.4794   26.4854 H   0  0  0  0  0  0  0  0  0  0  0  0
    8.7374   -4.4620   24.9728 H   0  0  0  0  0  0  0  0  0  0  0  0
    9.7937   -2.1496   24.1458 H   0  0  0  0  0  0  0  0  0  0  0  0
    8.0606   -1.6057   23.3959 C   0  0  3  0  0  0  0  0  0  0  0  0
    9.3512   -1.6292   23.3773 N   0  0  0  0  0  0  0  0  0  0  0  0
   10.9296    0.0705   22.8829 C   0  0  0  0  0  0  0  0  0  0  0  0
   11.2333    0.4570   23.8601 H   0  0  0  0  0  0  0  0  0  0  0  0
   12.4908   -0.9342   21.9678 H   0  0  0  0  0  0  0  0  0  0  0  0
   11.9730   -1.9968   23.2738 H   0  0  0  0  0  0  0  0  0  0  0  0
   11.6480   -1.2011   22.6138 C   0  0  0  0  0  0  0  0  0  0  0  0
   10.2442   -1.0912   22.4615 C   0  0  0  0  0  0  0  0  0  0  0  0
    8.7288    0.2045   20.4970 S   0  0  0  0  0  0  0  0  0  0  0  0
   10.7453    0.8907   22.1828 H   0  0  0  0  0  0  0  0  0  0  0  0
    7.2841   -0.2080   21.3128 N   0  0  0  0  0  0  0  0  0  0  0  0
    7.0371   -0.7818   22.4962 C   0  0  0  0  0  0  0  0  0  0  0  0
    7.6927    0.3019   19.0452 C   0  0  0  0  0  0  0  0  0  0  0  0
    8.0870    0.1973   18.0668 H   0  0  0  0  0  0  0  0  0  0  0  0
    5.5974    0.8930   18.7468 H   0  0  0  0  0  0  0  0  0  0  0  0
    6.3869    0.5369   19.4077 C   0  0  0  0  0  0  0  0  0  0  0  0
    6.1539    0.2960   20.6934 N   0  0  0  0  0  0  0  0  0  0  0  0
    5.9230   -0.5693   22.9074 O   0  0  0  0  0  0  0  0  0  0  0  0
 19 20  1  0  0  0  0
 21 22  1  0  0  0  0
 19 22  2  0  0  0  0
 15 19  1  0  0  0  0
 22 23  1  0  0  0  0
 15 17  1  0  0  0  0
 17 23  1  0  0  0  0
 17 18  1  0  0  0  0
 11 13  1  0  0  0  0
  9 16  1  0  0  0  0
 13 14  1  0  0  0  0
  9 14  1  0  0  0  0
  8 14  1  0  0  0  0
 18 24  2  0  0  0  0
  7 18  1  0  0  0  0
  9 13  1  0  0  0  0
 12 13  1  0  0  0  0
  9 10  1  0  0  0  0
  7  8  1  0  0  0  0
  6  8  1  0  0  0  0
  2  7  1  0  0  0  0
  2  3  1  0  0  0  0
  3  5  1  0  0  0  0
  1  3  1  0  0  0  0
  3  4  1  0  0  0  0
M  END
> <Shapegauss>
-150.301559

$$$$
