stable:False satoms:17 tatoms:24 sratio:0.7083333333333334
  -OEChem-08062400493D

 28 29  0     1  0  0  0  0  0999 V2000
    5.1562   -2.8076   24.6148 H   0  0  0  0  0  0  0  0  0  0  0  0
    7.1917   -2.0208   23.7396 S   0  0  0  0  0  0  0  0  0  0  0  0
    5.6115   -1.8127   24.5958 C   0  0  0  0  0  0  0  0  0  0  0  0
    4.9798   -1.1220   24.0504 H   0  0  0  0  0  0  0  0  0  0  0  0
    5.9014   -1.4202   25.5721 H   0  0  0  0  0  0  0  0  0  0  0  0
    7.9223    0.0870   25.0252 H   0  0  0  0  0  0  0  0  0  0  0  0
    8.6336   -0.9565   23.7218 C   0  0  3  0  0  0  0  0  0  0  0  0
    8.3906    0.2353   24.1542 N   0  3  0  0  0  0  0  0  0  0  0  0
    9.2400    2.3407   23.4682 C   0  0  0  0  0  0  0  0  0  0  0  0
    8.4785    2.7373   22.7904 H   0  0  0  0  0  0  0  0  0  0  0  0
    9.3251    3.4494   25.2139 H   0  0  0  0  0  0  0  0  0  0  0  0
    7.8203    2.5410   25.3281 H   0  0  0  0  0  0  0  0  0  0  0  0
    8.8033    2.5496   24.8721 C   0  0  0  0  0  0  0  0  0  0  0  0
    9.2560    1.2890   24.4118 C   0  0  0  0  0  0  0  0  0  0  0  0
   11.8358    0.4111   23.7724 S   0  0  0  0  0  0  0  0  0  0  0  0
   10.2416    2.4902   23.0545 H   0  0  0  0  0  0  0  0  0  0  0  0
   11.2185   -1.1066   23.2842 N   0  0  0  0  0  0  0  0  0  0  0  0
    9.9759   -1.5803   23.1347 C   0  0  0  0  0  0  0  0  0  0  0  0
   13.3634   -0.4754   24.0392 C   0  0  0  0  0  0  0  0  0  0  0  0
   14.1098   -0.1195   24.7025 H   0  0  0  0  0  0  0  0  0  0  0  0
   14.2821   -2.1982   23.0310 H   0  0  0  0  0  0  0  0  0  0  0  0
   13.3938   -1.6135   23.2675 C   0  0  0  0  0  0  0  0  0  0  0  0
   12.1983   -1.9549   22.7990 N   0  0  0  0  0  0  0  0  0  0  0  0
    9.9167   -2.5498   22.4191 O   0  0  0  0  0  0  0  0  0  0  0  0
    8.9060   -1.2875   24.7349 H   0  0  0  0  0  0  0  0  0  0  0  0
   10.2568    1.0007   24.7660 H   0  0  0  0  0  0  0  0  0  0  0  0
   12.2109   -1.9037   21.8004 H   0  0  0  0  0  0  0  0  0  0  0  0
    7.7450    0.6086   23.4879 H   0  0  0  0  0  0  0  0  0  0  0  0
 19 20  1  0  0  0  0
 21 22  1  0  0  0  0
 19 22  2  0  0  0  0
 15 19  1  0  0  0  0
 22 23  1  0  0  0  0
 15 17  1  0  0  0  0
 17 23  1  0  0  0  0
 17 18  1  0  0  0  0
 11 13  1  0  0  0  0
  9 16  1  0  0  0  0
 13 14  1  0  0  0  0
  9 14  1  0  0  0  0
  8 14  1  0  0  0  0
 18 24  2  0  0  0  0
  7 18  1  0  0  0  0
  9 13  1  0  0  0  0
 12 13  1  0  0  0  0
  9 10  1  0  0  0  0
  7  8  1  0  0  0  0
  6  8  1  0  0  0  0
  2  7  1  0  0  0  0
  2  3  1  0  0  0  0
  3  5  1  0  0  0  0
  1  3  1  0  0  0  0
  3  4  1  0  0  0  0
  7 25  1  0  0  0  0
 14 26  1  0  0  0  0
 23 27  1  0  0  0  0
  8 28  1  0  0  0  0
M  CHG  1   8   1
M  END
> <Chemgauss4>
-6.531185

$$$$
