stable:False satoms:17 tatoms:24 sratio:0.7083333333333334
  -OEChem-08062400493D

 28 29  0     1  0  0  0  0  0999 V2000
   -5.1562   -2.8076  -24.9482 H   0  0  0  0  0  0  0  0  0  0  0  0
   -7.1917   -2.0208  -24.0729 S   0  0  0  0  0  0  0  0  0  0  0  0
   -5.6115   -1.8127  -24.9291 C   0  0  0  0  0  0  0  0  0  0  0  0
   -4.9798   -1.1220  -24.3838 H   0  0  0  0  0  0  0  0  0  0  0  0
   -5.9014   -1.4202  -25.9054 H   0  0  0  0  0  0  0  0  0  0  0  0
   -7.9223    0.0870  -25.3586 H   0  0  0  0  0  0  0  0  0  0  0  0
   -8.6336   -0.9565  -24.0552 C   0  0  3  0  0  0  0  0  0  0  0  0
   -8.3906    0.2353  -24.4875 N   0  3  0  0  0  0  0  0  0  0  0  0
   -9.2400    2.3407  -23.8015 C   0  0  0  0  0  0  0  0  0  0  0  0
   -8.4785    2.7373  -23.1237 H   0  0  0  0  0  0  0  0  0  0  0  0
   -9.3251    3.4494  -25.5473 H   0  0  0  0  0  0  0  0  0  0  0  0
   -7.8203    2.5410  -25.6615 H   0  0  0  0  0  0  0  0  0  0  0  0
   -8.8033    2.5496  -25.2055 C   0  0  0  0  0  0  0  0  0  0  0  0
   -9.2560    1.2890  -24.7452 C   0  0  0  0  0  0  0  0  0  0  0  0
  -11.8358    0.4111  -24.1057 S   0  0  0  0  0  0  0  0  0  0  0  0
  -10.2416    2.4902  -23.3878 H   0  0  0  0  0  0  0  0  0  0  0  0
  -11.2185   -1.1066  -23.6175 N   0  0  0  0  0  0  0  0  0  0  0  0
   -9.9759   -1.5803  -23.4680 C   0  0  0  0  0  0  0  0  0  0  0  0
  -13.3634   -0.4754  -24.3726 C   0  0  0  0  0  0  0  0  0  0  0  0
  -14.1098   -0.1195  -25.0358 H   0  0  0  0  0  0  0  0  0  0  0  0
  -14.2821   -2.1982  -23.3643 H   0  0  0  0  0  0  0  0  0  0  0  0
  -13.3938   -1.6135  -23.6009 C   0  0  0  0  0  0  0  0  0  0  0  0
  -12.1983   -1.9549  -23.1324 N   0  0  0  0  0  0  0  0  0  0  0  0
   -9.9167   -2.5498  -22.7524 O   0  0  0  0  0  0  0  0  0  0  0  0
   -8.9060   -1.2875  -25.0682 H   0  0  0  0  0  0  0  0  0  0  0  0
  -10.2568    1.0007  -25.0993 H   0  0  0  0  0  0  0  0  0  0  0  0
  -12.2109   -1.9037  -22.1337 H   0  0  0  0  0  0  0  0  0  0  0  0
   -7.7450    0.6086  -23.8213 H   0  0  0  0  0  0  0  0  0  0  0  0
 19 20  1  0  0  0  0
 21 22  1  0  0  0  0
 19 22  2  0  0  0  0
 15 19  1  0  0  0  0
 22 23  1  0  0  0  0
 15 17  1  0  0  0  0
 17 23  1  0  0  0  0
 17 18  1  0  0  0  0
 11 13  1  0  0  0  0
  9 16  1  0  0  0  0
 13 14  1  0  0  0  0
  9 14  1  0  0  0  0
  8 14  1  0  0  0  0
 18 24  2  0  0  0  0
  7 18  1  0  0  0  0
  9 13  1  0  0  0  0
 12 13  1  0  0  0  0
  9 10  1  0  0  0  0
  7  8  1  0  0  0  0
  6  8  1  0  0  0  0
  2  7  1  0  0  0  0
  2  3  1  0  0  0  0
  3  5  1  0  0  0  0
  1  3  1  0  0  0  0
  3  4  1  0  0  0  0
  7 25  1  0  0  0  0
 14 26  1  0  0  0  0
 23 27  1  0  0  0  0
  8 28  1  0  0  0  0
M  CHG  1   8   1
M  END
> <Chemgauss4>
-6.721202

$$$$
