stable:True satoms:24 tatoms:24 sratio:1.0
  -OEChem-07092417293D

 24 23  0     0  0  0  0  0  0999 V2000
    9.1479   -2.8904   25.3768 C   0  0  0  0  0  0  0  0  0  0  0  0
   10.4200   -0.1561   20.6319 H   0  0  0  0  0  0  0  0  0  0  0  0
    8.8155   -0.5800   20.0803 H   0  0  0  0  0  0  0  0  0  0  0  0
    9.0010   -3.9523   24.4079 C   0  0  0  0  0  0  0  0  0  0  0  0
    8.1974    1.7404   19.3826 C   0  0  0  0  0  0  0  0  0  0  0  0
    7.2247   -3.5530   25.8551 H   0  0  0  0  0  0  0  0  0  0  0  0
    8.0778    2.8217   19.3315 H   0  0  0  0  0  0  0  0  0  0  0  0
    7.2755    1.3078   19.7583 H   0  0  0  0  0  0  0  0  0  0  0  0
    8.3993    1.3556   18.3834 H   0  0  0  0  0  0  0  0  0  0  0  0
    9.2952    1.4472   20.1938 O   0  0  0  0  0  0  0  0  0  0  0  0
    8.5982   -2.0760   22.0303 H   0  0  0  0  0  0  0  0  0  0  0  0
    7.1402   -2.9341   24.1879 H   0  0  0  0  0  0  0  0  0  0  0  0
    8.8932    0.0949   22.1315 C   0  0  0  0  0  0  0  0  0  0  0  0
    8.9683   -4.9867   24.6754 H   0  0  0  0  0  0  0  0  0  0  0  0
    9.4560   -3.8226   23.4434 H   0  0  0  0  0  0  0  0  0  0  0  0
    9.9390   -1.5625   23.0199 H   0  0  0  0  0  0  0  0  0  0  0  0
    9.5037    0.7594   22.7414 H   0  0  0  0  0  0  0  0  0  0  0  0
    8.9286   -1.3073   22.7203 C   0  0  0  0  0  0  0  0  0  0  0  0
    9.6264   -3.2064   26.2980 H   0  0  0  0  0  0  0  0  0  0  0  0
    9.3750    0.1316   20.6857 C   0  0  0  0  0  0  0  0  0  0  0  0
    9.3682   -1.8291   25.2292 H   0  0  0  0  0  0  0  0  0  0  0  0
    7.8803    0.4831   22.1620 H   0  0  0  0  0  0  0  0  0  0  0  0
    8.2699   -1.3171   23.5739 H   0  0  0  0  0  0  0  0  0  0  0  0
    7.7827   -3.2582   24.9962 C   0  0  0  0  0  0  0  0  0  0  0  0
  5  9  1  0  0  0  0
  5  7  1  0  0  0  0
  5  8  1  0  0  0  0
  5 10  1  0  0  0  0
  3 20  1  0  0  0  0
 10 20  1  0  0  0  0
  2 20  1  0  0  0  0
 13 20  1  0  0  0  0
 11 18  1  0  0  0  0
 13 22  1  0  0  0  0
 13 18  1  0  0  0  0
 13 17  1  0  0  0  0
 16 18  1  0  0  0  0
 18 23  1  0  0  0  0
  4 15  1  0  0  0  0
 12 24  1  0  0  0  0
  4 14  1  0  0  0  0
  4 24  1  0  0  0  0
  1  4  1  0  0  0  0
  1 24  1  0  0  0  0
  6 24  1  0  0  0  0
  1 21  1  0  0  0  0
  1 19  1  0  0  0  0
M  END
> <Shapegauss>
-60.486969

$$$$
