REMARK  2 active torsions:
REMARK  status: ('A' for Active; 'I' for Inactive)
REMARK    1  A    between atoms: O_4  and  C_7 
REMARK    2  A    between atoms: C_5  and  C_7 
ROOT
HETATM    1  C   UNL     1       9.148  -2.890  25.377  1.00  0.00     0.000 A 
HETATM    2  C   UNL     1       9.001  -3.952  24.408  1.00  0.00     0.000 A 
HETATM    3  C   UNL     1       7.783  -3.258  24.996  1.00  0.00     0.000 A 
ENDROOT
TORSDOF 2
