stable:False satoms:7 tatoms:24 sratio:0.2916666666666667
  -OEChem-07092417513D

 24 25  0     0  0  0  0  0  0999 V2000
    6.6302   -4.8256   26.4630 C   0  0  0  0  0  0  0  0  0  0  0  0
    8.2157   -4.3014   26.1163 S   0  0  0  0  0  0  0  0  0  0  0  0
    9.0615   -5.4614   26.0621 O   0  0  0  0  0  0  0  0  0  0  0  0
    8.6156   -3.4150   27.1577 O   0  0  0  0  0  0  0  0  0  0  0  0
    8.1243   -3.5734   24.6951 N   0  0  0  0  0  0  0  0  0  0  0  0
    8.9958   -2.9418   24.1546 C   0  0  0  0  0  0  0  0  0  0  0  0
    9.4182   -1.9245   23.4872 C   0  0  0  0  0  0  0  0  0  0  0  0
   10.1888   -0.9901   23.3683 C   0  0  0  0  0  0  0  0  0  0  0  0
   11.0713   -0.0152   24.2900 C   0  0  0  0  0  0  0  0  0  0  0  0
   12.0778    0.2736   24.2524 C   0  0  0  0  0  0  0  0  0  0  0  0
   13.1507   -0.2718   23.3750 C   0  0  0  0  0  0  0  0  0  0  0  0
   12.6872   -1.2839   22.6545 C   0  0  0  0  0  0  0  0  0  0  0  0
   11.9060   -1.8167   22.4257 C   0  0  0  0  0  0  0  0  0  0  0  0
    9.7162   -0.5655   22.3425 C   0  0  0  0  0  0  0  0  0  0  0  0
    9.0570    0.0525   21.3880 C   0  0  0  0  0  0  0  0  0  0  0  0
    9.5352    0.9912   20.9910 O   0  0  0  0  0  0  0  0  0  0  0  0
    7.9127   -0.5553   21.0721 N   0  0  0  0  0  0  0  0  0  0  0  0
    7.2094   -0.1058   20.1945 C   0  0  0  0  0  0  0  0  0  0  0  0
    7.2481    0.0032   18.8241 C   0  0  0  0  0  0  0  0  0  0  0  0
    6.8130    0.3014   17.8249 N   0  0  0  0  0  0  0  0  0  0  0  0
    5.5998    0.9284   18.2574 C   0  0  0  0  0  0  0  0  0  0  0  0
    5.2400    0.9810   19.4182 C   0  0  0  0  0  0  0  0  0  0  0  0
    5.8111    0.5647   20.5658 C   0  0  0  0  0  0  0  0  0  0  0  0
    5.2982    0.6612   21.9164 C   0  0  0  0  0  0  0  0  0  0  0  0
 20 21  2  0  0  0  0
 19 20  1  0  0  0  0
 21 22  1  0  0  0  0
 18 19  2  0  0  0  0
 22 23  2  0  0  0  0
 18 23  1  0  0  0  0
 17 18  1  0  0  0  0
 23 24  1  0  0  0  0
 15 16  2  0  0  0  0
 15 17  1  0  0  0  0
 14 15  1  0  0  0  0
  8 14  2  0  0  0  0
  7 14  1  0  0  0  0
 12 13  2  0  0  0  0
 11 12  1  0  0  0  0
  7  8  1  0  0  0  0
  8  9  1  0  0  0  0
 10 11  1  0  0  0  0
  6  7  2  3  0  0  0
  5  6  1  0  0  0  0
  9 10  2  0  0  0  0
  2  5  1  0  0  0  0
  2  3  2  0  0  0  0
  1  2  1  0  0  0  0
  2  4  2  0  0  0  0
M  END
> <Shapegauss>
-284.231323

$$$$
