REMARK  7 active torsions:
REMARK  status: ('A' for Active; 'I' for Inactive)
REMARK    1  A    between atoms: S_2  and  N_5 
REMARK    2  A    between atoms: N_5  and  C_7 
REMARK    3  A    between atoms: C_9  and  C_10 
REMARK    4  A    between atoms: C_10  and  C_11 
REMARK    5  A    between atoms: C_11  and  C_12 
REMARK    6  A    between atoms: C_15  and  C_16 
REMARK       I    between atoms: C_16  and  N_18 
REMARK    7  A    between atoms: N_18  and  C_20 
ROOT
HETATM    1  C   UNL     1       8.996  -2.942  24.155  1.00  0.00     0.113 C 
HETATM    2  C   UNL     1       9.418  -1.925  23.487  1.00  0.00     0.008 A 
HETATM    3  C   UNL     1      10.189  -0.990  23.368  1.00  0.00    -0.007 A 
HETATM    4  C   UNL     1       9.716  -0.566  22.343  1.00  0.00     0.056 A 
ENDROOT
BRANCH   4   5
HETATM    5  C   UNL     1       9.057   0.052  21.388  1.00  0.00     0.258 C 
HETATM    6  O   UNL     1       9.535   0.991  20.991  1.00  0.00    -0.267 OA
HETATM    7  N   UNL     1       7.913  -0.555  21.072  1.00  0.00    -0.321 N 
ATOM      8  HN  UNL     1       7.630  -1.399  21.570  1.00  0.00     0.169 HD
BRANCH   7   9
HETATM    9  C   UNL     1       7.209  -0.106  20.195  1.00  0.00     0.056 A 
HETATM   10  C   UNL     1       7.248   0.003  18.824  1.00  0.00     0.117 A 
HETATM   11  N   UNL     1       6.813   0.301  17.825  1.00  0.00    -0.373 N 
HETATM   12  C   UNL     1       5.600   0.928  18.257  1.00  0.00     0.088 A 
ATOM     13  HN  UNL     1       7.180   0.163  16.883  1.00  0.00     0.164 HD
HETATM   14  C   UNL     1       5.240   0.981  19.418  1.00  0.00     0.026 A 
HETATM   15  C   UNL     1       5.811   0.565  20.566  1.00  0.00    -0.033 A 
HETATM   16  C   UNL     1       5.298   0.661  21.916  1.00  0.00     0.050 C 
ENDBRANCH   7   9
ENDBRANCH   4   5
BRANCH   3  17
HETATM   17  C   UNL     1      11.071  -0.015  24.290  1.00  0.00     0.013 C 
BRANCH  17  18
HETATM   18  C   UNL     1      12.078   0.274  24.252  1.00  0.00     0.001 C 
BRANCH  18  19
HETATM   19  C   UNL     1      13.151  -0.272  23.375  1.00  0.00    -0.001 C 
HETATM   20  C   UNL     1      12.687  -1.284  22.654  1.00  0.00    -0.010 C 
HETATM   21  C   UNL     1      11.906  -1.817  22.426  1.00  0.00     0.011 C 
ENDBRANCH  18  19
ENDBRANCH  17  18
ENDBRANCH   3  17
BRANCH   1  22
HETATM   22  N   UNL     1       8.124  -3.573  24.695  1.00  0.00    -0.295 N 
ATOM     23  HN  UNL     1       7.238  -3.651  24.196  1.00  0.00     0.177 HD
BRANCH  22  24
HETATM   24  S   UNL     1       8.216  -4.301  26.116  1.00  0.00     0.226 S 
HETATM   25  C   UNL     1       6.630  -4.826  26.463  1.00  0.00     0.186 C 
HETATM   26  O   UNL     1       9.062  -5.461  26.062  1.00  0.00    -0.206 OA
HETATM   27  O   UNL     1       8.616  -3.415  27.158  1.00  0.00    -0.206 OA
ENDBRANCH  22  24
ENDBRANCH   1  22
TORSDOF 7
