stable:False satoms:22 tatoms:24 sratio:0.9166666666666666
  -OEChem-07092417273D

 24 24  0     0  0  0  0  0  0999 V2000
    6.7859   -1.4600   23.2552 N   0  3  0  0  0  0  0  0  0  0  0  0
    9.1946   -2.2647   18.8419 H   0  0  0  0  0  0  0  0  0  0  0  0
   11.4059   -2.9855   17.8334 H   0  0  0  0  0  0  0  0  0  0  0  0
   10.2743   -1.4570   20.5820 C   0  0  0  0  0  0  0  0  0  0  0  0
    7.8668   -1.6333   21.2341 C   0  3  0  0  0  0  0  0  0  0  0  0
    8.9747   -0.4672   25.3352 H   0  0  0  0  0  0  0  0  0  0  0  0
    7.9514   -0.7928   25.2642 C   0  0  0  0  0  0  0  0  0  0  0  0
    6.8226   -1.6477   21.9647 N   0  0  0  0  0  0  0  0  0  0  0  0
    7.1067    0.0142   26.2567 C   0  0  0  0  0  0  0  0  0  0  0  0
    9.4269   -0.2670   22.3802 O   0  0  0  0  0  0  0  0  0  0  0  0
    7.2192    1.3089   26.0173 F   0  0  0  0  0  0  0  0  0  0  0  0
    7.7451   -2.1571   20.3044 H   0  0  0  0  0  0  0  0  0  0  0  0
    7.3957   -0.4129   23.8937 C   0  0  0  0  0  0  0  0  0  0  0  0
    7.8597   -1.8547   25.5099 H   0  0  0  0  0  0  0  0  0  0  0  0
    7.4524   -0.1773   27.5044 F   0  0  0  0  0  0  0  0  0  0  0  0
   11.5695   -1.2664   20.8960 N   0  3  0  0  0  0  0  0  0  0  0  0
    7.3866    0.7093   23.4666 O   0  0  0  0  0  0  0  0  0  0  0  0
    5.8228   -0.3301   26.1454 F   0  0  0  0  0  0  0  0  0  0  0  0
   11.2911   -2.4136   18.7374 C   0  0  0  0  0  0  0  0  0  0  0  0
   12.5849   -1.7559   19.5904 S   0  0  0  0  0  0  0  0  0  0  0  0
    9.2017   -1.0344   21.4821 C   0  0  0  0  0  0  0  0  0  0  0  0
   10.1310   -2.0908   19.3354 C   0  0  0  0  0  0  0  0  0  0  0  0
    6.2160   -2.1088   23.7790 H   0  0  0  0  0  0  0  0  0  0  0  0
   11.8985   -0.7455   21.6870 H   0  0  0  0  0  0  0  0  0  0  0  0
  3 19  1  0  0  0  0
 19 22  2  0  0  0  0
 19 20  1  0  0  0  0
  2 22  1  0  0  0  0
  4 22  1  0  0  0  0
 16 20  1  0  0  0  0
  5 12  1  0  0  0  0
  4 16  2  0  0  0  0
  4 21  1  0  0  0  0
 16 24  1  0  0  0  0
  5 21  1  0  0  0  0
  5  8  1  0  0  0  0
 10 21  2  0  0  0  0
  1  8  2  3  0  0  0
  1 23  1  0  0  0  0
  1 13  1  0  0  0  0
 13 17  2  0  0  0  0
  7 13  1  0  0  0  0
  6  7  1  0  0  0  0
  7 14  1  0  0  0  0
  7  9  1  0  0  0  0
  9 11  1  0  0  0  0
  9 18  1  0  0  0  0
  9 15  1  0  0  0  0
M  CHG  3   1   1   5   1  16   1
M  END
> <Shapegauss>
-79.014900

$$$$
