stable:False satoms:22 tatoms:24 sratio:0.9166666666666666
  -OEChem-08052413473D

 21 21  0     0  0  0  0  0  0999 V2000
    9.3355   -1.2692   25.5039 N   0  0  0  0  0  0  0  0  0  0  0  0
    5.6589   -4.6655   24.5685 H   0  0  0  0  0  0  0  0  0  0  0  0
    5.2221   -6.9931   23.6641 H   0  0  0  0  0  0  0  0  0  0  0  0
    7.3991   -4.4942   23.2312 C   0  0  0  0  0  0  0  0  0  0  0  0
    7.6132   -2.6845   24.9433 C   0  0  0  0  0  2  0  0  0  0  0  0
   11.5776   -1.7017   23.2929 H   0  0  0  0  0  0  0  0  0  0  0  0
   11.3763   -1.1808   24.2128 C   0  0  0  0  0  0  0  0  0  0  0  0
    8.1280   -1.7455   25.6345 N   0  0  0  0  0  0  0  0  0  0  0  0
   12.0364    0.2014   24.1520 C   0  0  0  0  0  0  0  0  0  0  0  0
    8.7699   -2.6606   22.8756 O   0  0  0  0  0  0  0  0  0  0  0  0
   11.5975    0.8802   23.1067 F   0  0  0  0  0  0  0  0  0  0  0  0
    9.8813   -0.8854   24.3078 C   0  0  0  0  0  0  0  0  0  0  0  0
   11.7840   -1.7254   25.0693 H   0  0  0  0  0  0  0  0  0  0  0  0
   13.3404    0.1471   24.0550 F   0  0  0  0  0  0  0  0  0  0  0  0
    7.9096   -5.2368   22.2310 N   0  0  0  0  0  0  0  0  0  0  0  0
    9.2688   -0.2754   23.4743 O   0  0  0  0  0  0  0  0  0  0  0  0
   11.7510    0.8900   25.2582 F   0  0  0  0  0  0  0  0  0  0  0  0
    5.9737   -6.3149   23.3001 C   0  0  0  0  0  0  0  0  0  0  0  0
    6.9226   -6.6219   21.9439 S   0  0  0  0  0  0  0  0  0  0  0  0
    7.9953   -3.2136   23.6106 C   0  0  0  0  0  0  0  0  0  0  0  0
    6.2792   -5.1113   23.8155 C   0  0  0  0  0  0  0  0  0  0  0  0
  3 18  1  0  0  0  0
 18 21  2  0  0  0  0
 18 19  1  0  0  0  0
  2 21  1  0  0  0  0
  4 21  1  0  0  0  0
 15 19  1  0  0  0  0
  4 15  2  0  0  0  0
  4 20  1  0  0  0  0
  5 20  1  0  0  0  0
  5  8  1  0  0  0  0
 10 20  2  0  0  0  0
  1  8  2  3  0  0  0
  1 12  1  0  0  0  0
 12 16  2  0  0  0  0
  7 12  1  0  0  0  0
  6  7  1  0  0  0  0
  7 13  1  0  0  0  0
  7  9  1  0  0  0  0
  9 11  1  0  0  0  0
  9 17  1  0  0  0  0
  9 14  1  0  0  0  0
M  END
> <Chemgauss4>
-7.328246

$$$$
