stable:False satoms:22 tatoms:24 sratio:0.9166666666666666
  -OEChem-08052413473D

 21 21  0     0  0  0  0  0  0999 V2000
   -9.6679   -1.5145  -25.2861 N   0  0  0  0  0  0  0  0  0  0  0  0
   -5.6212   -4.5298  -24.6090 H   0  0  0  0  0  0  0  0  0  0  0  0
   -4.9054   -6.8209  -23.7935 H   0  0  0  0  0  0  0  0  0  0  0  0
   -7.3074   -4.5752  -23.1944 C   0  0  0  0  0  0  0  0  0  0  0  0
   -7.7849   -2.7553  -24.8414 C   0  0  0  0  0  2  0  0  0  0  0  0
  -11.7508   -2.2347  -22.9957 H   0  0  0  0  0  0  0  0  0  0  0  0
  -11.6464   -1.6726  -23.9075 C   0  0  0  0  0  0  0  0  0  0  0  0
   -8.4248   -1.8583  -25.4820 N   0  0  0  0  0  0  0  0  0  0  0  0
  -12.4424   -0.3690  -23.7777 C   0  0  0  0  0  0  0  0  0  0  0  0
   -8.8430   -2.9046  -22.7266 O   0  0  0  0  0  0  0  0  0  0  0  0
  -12.0292    0.3255  -22.7322 F   0  0  0  0  0  0  0  0  0  0  0  0
  -10.1958   -1.2200  -24.0570 C   0  0  0  0  0  0  0  0  0  0  0  0
  -12.0340   -2.2351  -24.7617 H   0  0  0  0  0  0  0  0  0  0  0  0
  -13.7282   -0.5618  -23.6271 F   0  0  0  0  0  0  0  0  0  0  0  0
   -7.6926   -5.3920  -22.1960 N   0  0  0  0  0  0  0  0  0  0  0  0
   -9.6125   -0.5705  -23.2325 O   0  0  0  0  0  0  0  0  0  0  0  0
  -12.2802    0.3733  -24.8740 F   0  0  0  0  0  0  0  0  0  0  0  0
   -5.7059   -6.2344  -23.3779 C   0  0  0  0  0  0  0  0  0  0  0  0
   -6.5556   -6.6730  -21.9923 S   0  0  0  0  0  0  0  0  0  0  0  0
   -8.0495   -3.3549  -23.5100 C   0  0  0  0  0  0  0  0  0  0  0  0
   -6.1574   -5.0568  -23.8438 C   0  0  0  0  0  0  0  0  0  0  0  0
  3 18  1  0  0  0  0
 18 21  2  0  0  0  0
 18 19  1  0  0  0  0
  2 21  1  0  0  0  0
  4 21  1  0  0  0  0
 15 19  1  0  0  0  0
  4 15  2  0  0  0  0
  4 20  1  0  0  0  0
  5 20  1  0  0  0  0
  5  8  1  0  0  0  0
 10 20  2  0  0  0  0
  1  8  2  3  0  0  0
  1 12  1  0  0  0  0
 12 16  2  0  0  0  0
  7 12  1  0  0  0  0
  6  7  1  0  0  0  0
  7 13  1  0  0  0  0
  7  9  1  0  0  0  0
  9 11  1  0  0  0  0
  9 17  1  0  0  0  0
  9 14  1  0  0  0  0
M  END
> <Chemgauss4>
-7.140984

$$$$
