stable:False satoms:10 tatoms:24 sratio:0.4166666666666667
  -OEChem-08062415343D

 43 45  0     1  0  0  0  0  0999 V2000
   -6.3656   -5.3538  -26.2864 C   0  0  0  0  0  0  0  0  0  0  0  0
   -7.9986   -4.7147  -26.0322 S   0  0  0  0  0  0  0  0  0  0  0  0
   -8.8976   -5.8491  -26.0021 O   0  0  0  0  0  0  0  0  0  0  0  0
   -8.2753   -3.8586  -27.1474 O   0  0  0  0  0  0  0  0  0  0  0  0
   -7.9011   -3.9195  -24.6467 N   0  0  0  0  0  0  0  0  0  0  0  0
   -8.7886   -3.2266  -24.1731 C   0  0  0  0  0  0  0  0  0  0  0  0
   -9.2041   -2.2166  -23.5949 C   0  0  0  0  0  0  0  0  0  0  0  0
  -10.1064   -1.3205  -23.4301 C   0  0  1  0  0  0  0  0  0  0  0  0
  -10.7071   -0.1813  -24.6028 C   0  0  0  0  0  0  0  0  0  0  0  0
  -11.6784    0.1550  -24.6207 C   0  0  0  0  0  0  0  0  0  0  0  0
  -12.9002   -0.2692  -23.8511 C   0  0  0  0  0  0  0  0  0  0  0  0
  -12.5437   -1.3235  -23.0069 C   0  0  0  0  0  0  0  0  0  0  0  0
  -11.6597   -1.8427  -22.7649 C   0  0  0  0  0  0  0  0  0  0  0  0
   -9.5344   -0.7848  -22.5572 C   0  0  2  0  0  0  0  0  0  0  0  0
   -8.8756   -0.1123  -21.5526 C   0  0  0  0  0  0  0  0  0  0  0  0
   -9.2840    0.8961  -21.2401 O   0  0  0  0  0  0  0  0  0  0  0  0
   -7.8430   -0.7956  -21.1478 N   0  0  0  0  0  0  0  0  0  0  0  0
   -7.1239   -0.3086  -20.2112 C   0  0  0  0  0  0  0  0  0  0  0  0
   -7.1967   -0.1530  -18.9699 C   0  0  0  0  0  0  0  0  0  0  0  0
   -6.7184    0.2459  -17.8235 N   0  0  0  0  0  0  0  0  0  0  0  0
   -5.6105    0.6670  -18.2978 C   0  0  0  0  0  0  0  0  0  0  0  0
   -5.1209    0.7262  -19.4791 C   0  0  0  0  0  0  0  0  0  0  0  0
   -5.6540    0.3054  -20.5568 C   0  0  0  0  0  0  0  0  0  0  0  0
   -5.1447    0.3305  -22.0236 C   0  0  0  0  0  0  0  0  0  0  0  0
   -6.3362   -5.9224  -27.2276 H   0  0  0  0  0  0  0  0  0  0  0  0
   -5.6498   -4.5201  -26.3394 H   0  0  0  0  0  0  0  0  0  0  0  0
   -6.0966   -6.0154  -25.4498 H   0  0  0  0  0  0  0  0  0  0  0  0
   -7.1116   -3.3133  -24.7421 H   0  0  0  0  0  0  0  0  0  0  0  0
   -9.6847   -3.8007  -24.3570 H   0  0  0  0  0  0  0  0  0  0  0  0
  -10.0229    0.1914  -25.3508 H   0  0  0  0  0  0  0  0  0  0  0  0
  -11.8541    0.9597  -25.3193 H   0  0  0  0  0  0  0  0  0  0  0  0
  -13.8845    0.1669  -23.9369 H   0  0  0  0  0  0  0  0  0  0  0  0
  -13.3942   -1.7048  -22.4612 H   0  0  0  0  0  0  0  0  0  0  0  0
  -11.5623   -1.8074  -21.6698 H   0  0  0  0  0  0  0  0  0  0  0  0
  -11.8070   -2.8842  -23.0866 H   0  0  0  0  0  0  0  0  0  0  0  0
  -10.0353   -1.4254  -21.8165 H   0  0  0  0  0  0  0  0  0  0  0  0
   -7.6191   -1.6789  -21.5597 H   0  0  0  0  0  0  0  0  0  0  0  0
   -8.1618   -0.5658  -18.7157 H   0  0  0  0  0  0  0  0  0  0  0  0
   -4.9448    1.0562  -17.5416 H   0  0  0  0  0  0  0  0  0  0  0  0
   -4.1472    1.1839  -19.5725 H   0  0  0  0  0  0  0  0  0  0  0  0
   -4.5917   -0.5963  -22.2362 H   0  0  0  0  0  0  0  0  0  0  0  0
   -6.0021    0.4109  -22.7080 H   0  0  0  0  0  0  0  0  0  0  0  0
   -4.4797    1.1951  -22.1659 H   0  0  0  0  0  0  0  0  0  0  0  0
 20 21  2  0  0  0  0
 19 20  1  0  0  0  0
 21 22  1  0  0  0  0
 18 19  2  0  0  0  0
 22 23  2  0  0  0  0
 18 23  1  0  0  0  0
 17 18  1  0  0  0  0
 23 24  1  0  0  0  0
 15 16  2  0  0  0  0
 15 17  1  0  0  0  0
 14 15  1  0  0  0  0
  8 14  1  0  0  0  0
  7 14  1  0  0  0  0
 12 13  1  0  0  0  0
  8 13  1  0  0  0  0
 11 12  2  0  0  0  0
  7  8  1  0  0  0  0
  8  9  1  0  0  0  0
 10 11  1  0  0  0  0
  6  7  2  3  0  0  0
  5  6  1  0  0  0  0
  9 10  2  0  0  0  0
  2  5  1  0  0  0  0
  2  3  2  0  0  0  0
  1  2  1  0  0  0  0
  2  4  2  0  0  0  0
  1 25  1  0  0  0  0
  1 26  1  0  0  0  0
  1 27  1  0  0  0  0
  5 28  1  0  0  0  0
  6 29  1  0  0  0  0
  9 30  1  0  0  0  0
 10 31  1  0  0  0  0
 11 32  1  0  0  0  0
 12 33  1  0  0  0  0
 13 34  1  0  0  0  0
 13 35  1  0  0  0  0
 14 36  1  0  0  0  0
 17 37  1  0  0  0  0
 19 38  1  0  0  0  0
 21 39  1  0  0  0  0
 22 40  1  0  0  0  0
 24 41  1  0  0  0  0
 24 42  1  0  0  0  0
 24 43  1  0  0  0  0
M  END
> <Chemgauss4>
-12.674529

$$$$
