stable:False satoms:10 tatoms:24 sratio:0.4166666666666667
  -OEChem-08062415343D

 43 45  0     1  0  0  0  0  0999 V2000
    6.4861   -5.1106   26.2564 C   0  0  0  0  0  0  0  0  0  0  0  0
    8.1239   -4.4533   26.0976 S   0  0  0  0  0  0  0  0  0  0  0  0
    9.0379   -5.5746   26.1549 O   0  0  0  0  0  0  0  0  0  0  0  0
    8.3132   -3.5680   27.2082 O   0  0  0  0  0  0  0  0  0  0  0  0
    8.1098   -3.6914   24.6902 N   0  0  0  0  0  0  0  0  0  0  0  0
    9.0180   -2.9963   24.2610 C   0  0  0  0  0  0  0  0  0  0  0  0
    9.4582   -1.9937   23.6884 C   0  0  0  0  0  0  0  0  0  0  0  0
   10.3576   -1.0882   23.5635 C   0  0  1  0  0  0  0  0  0  0  0  0
   10.8623    0.0861   24.7466 C   0  0  0  0  0  0  0  0  0  0  0  0
   11.8257    0.4372   24.8218 C   0  0  0  0  0  0  0  0  0  0  0  0
   13.1023    0.0138   24.1465 C   0  0  0  0  0  0  0  0  0  0  0  0
   12.8177   -1.0646   23.3054 C   0  0  0  0  0  0  0  0  0  0  0  0
   11.9591   -1.6023   23.0169 C   0  0  0  0  0  0  0  0  0  0  0  0
    9.8388   -0.5811   22.6416 C   0  0  2  0  0  0  0  0  0  0  0  0
    9.2406    0.0584   21.5793 C   0  0  0  0  0  0  0  0  0  0  0  0
    9.6557    1.0654   21.2712 O   0  0  0  0  0  0  0  0  0  0  0  0
    8.2469   -0.6491   21.1222 N   0  0  0  0  0  0  0  0  0  0  0  0
    7.5864   -0.1943   20.1280 C   0  0  0  0  0  0  0  0  0  0  0  0
    7.7408   -0.0660   18.8911 C   0  0  0  0  0  0  0  0  0  0  0  0
    7.3359    0.2996   17.7060 N   0  0  0  0  0  0  0  0  0  0  0  0
    6.1930    0.7149   18.0945 C   0  0  0  0  0  0  0  0  0  0  0  0
    5.6239    0.7936   19.2385 C   0  0  0  0  0  0  0  0  0  0  0  0
    6.0885    0.4055   20.3593 C   0  0  0  0  0  0  0  0  0  0  0  0
    5.4808    0.4564   21.7875 C   0  0  0  0  0  0  0  0  0  0  0  0
    6.4007   -5.6581   27.2066 H   0  0  0  0  0  0  0  0  0  0  0  0
    5.7574   -4.2867   26.2413 H   0  0  0  0  0  0  0  0  0  0  0  0
    6.2831   -5.7951   25.4195 H   0  0  0  0  0  0  0  0  0  0  0  0
    7.3076   -3.0949   24.7178 H   0  0  0  0  0  0  0  0  0  0  0  0
    9.9072   -3.5527   24.5184 H   0  0  0  0  0  0  0  0  0  0  0  0
   10.1243    0.4656   25.4377 H   0  0  0  0  0  0  0  0  0  0  0  0
   11.9431    1.2601   25.5113 H   0  0  0  0  0  0  0  0  0  0  0  0
   14.0727    0.4663   24.2879 H   0  0  0  0  0  0  0  0  0  0  0  0
   13.7081   -1.4455   22.8274 H   0  0  0  0  0  0  0  0  0  0  0  0
   11.9355   -1.5934   21.9172 H   0  0  0  0  0  0  0  0  0  0  0  0
   12.0981   -2.6339   23.3724 H   0  0  0  0  0  0  0  0  0  0  0  0
   10.3972   -1.2309   21.9517 H   0  0  0  0  0  0  0  0  0  0  0  0
    8.0074   -1.5260   21.5389 H   0  0  0  0  0  0  0  0  0  0  0  0
    8.7263   -0.4700   18.7123 H   0  0  0  0  0  0  0  0  0  0  0  0
    5.5748    1.0768   17.2863 H   0  0  0  0  0  0  0  0  0  0  0  0
    4.6401    1.2388   19.2552 H   0  0  0  0  0  0  0  0  0  0  0  0
    4.9271   -0.4734   21.9843 H   0  0  0  0  0  0  0  0  0  0  0  0
    6.2888    0.5651   22.5259 H   0  0  0  0  0  0  0  0  0  0  0  0
    4.7962    1.3140   21.8642 H   0  0  0  0  0  0  0  0  0  0  0  0
 20 21  2  0  0  0  0
 19 20  1  0  0  0  0
 21 22  1  0  0  0  0
 18 19  2  0  0  0  0
 22 23  2  0  0  0  0
 18 23  1  0  0  0  0
 17 18  1  0  0  0  0
 23 24  1  0  0  0  0
 15 16  2  0  0  0  0
 15 17  1  0  0  0  0
 14 15  1  0  0  0  0
  8 14  1  0  0  0  0
  7 14  1  0  0  0  0
 12 13  1  0  0  0  0
  8 13  1  0  0  0  0
 11 12  2  0  0  0  0
  7  8  1  0  0  0  0
  8  9  1  0  0  0  0
 10 11  1  0  0  0  0
  6  7  2  3  0  0  0
  5  6  1  0  0  0  0
  9 10  2  0  0  0  0
  2  5  1  0  0  0  0
  2  3  2  0  0  0  0
  1  2  1  0  0  0  0
  2  4  2  0  0  0  0
  1 25  1  0  0  0  0
  1 26  1  0  0  0  0
  1 27  1  0  0  0  0
  5 28  1  0  0  0  0
  6 29  1  0  0  0  0
  9 30  1  0  0  0  0
 10 31  1  0  0  0  0
 11 32  1  0  0  0  0
 12 33  1  0  0  0  0
 13 34  1  0  0  0  0
 13 35  1  0  0  0  0
 14 36  1  0  0  0  0
 17 37  1  0  0  0  0
 19 38  1  0  0  0  0
 21 39  1  0  0  0  0
 22 40  1  0  0  0  0
 24 41  1  0  0  0  0
 24 42  1  0  0  0  0
 24 43  1  0  0  0  0
M  END
> <Chemgauss4>
-12.665528

$$$$
