stable:False satoms:18 tatoms:24 sratio:0.75
  -OEChem-07092417353D

 24 24  0     1  0  0  0  0  0999 V2000
    6.8678   -3.5643   25.6259 H   0  0  0  0  0  0  0  0  0  0  0  0
    7.9434   -3.5472   25.6257 C   0  0  0  0  0  0  0  0  0  0  0  0
    8.3240   -4.2274   24.9093 H   0  0  0  0  0  0  0  0  0  0  0  0
    8.2705   -3.8307   26.5912 H   0  0  0  0  0  0  0  0  0  0  0  0
    7.2231   -2.0930   23.2272 S   0  0  0  0  0  0  0  0  0  0  0  0
    8.3145   -2.5651   25.3696 H   0  0  0  0  0  0  0  0  0  0  0  0
    9.5727   -0.7405   22.4245 C   0  0  0  0  0  0  0  0  0  0  0  0
   11.7569   -1.0802   24.6652 H   0  0  0  0  0  0  0  0  0  0  0  0
   11.3443   -0.8826   23.7412 C   0  5  3  0  0  0  0  0  0  0  0  0
   10.1718   -0.8847   23.5211 C   0  0  2  0  0  0  0  0  0  0  0  0
   12.7701   -0.0875   22.5719 H   0  0  0  0  0  0  0  0  0  0  0  0
   11.8974   -0.7445   22.5007 C   0  0  0  0  0  0  0  0  0  0  0  0
   12.1618   -1.6464   22.0542 H   0  0  0  0  0  0  0  0  0  0  0  0
    8.5333   -1.2207   22.9117 C   0  0  0  0  0  0  0  0  0  0  0  0
   10.5875   -0.2665   21.5350 C   0  5  3  0  0  0  0  0  0  0  0  0
   10.4694    0.2490   20.6811 H   0  0  0  0  0  0  0  0  0  0  0  0
    7.0652    0.0339   21.0307 N   0  0  0  0  0  0  0  0  0  0  0  0
    6.4557   -0.8417   21.8268 C   0  0  0  0  0  0  0  0  0  0  0  0
    7.8975    0.1342   19.1296 H   0  0  0  0  0  0  0  0  0  0  0  0
    6.3422   -0.6645   19.1892 H   0  0  0  0  0  0  0  0  0  0  0  0
    6.4162    1.0514   19.2445 H   0  0  0  0  0  0  0  0  0  0  0  0
    6.9056    0.1536   19.5716 C   0  0  0  0  0  0  0  0  0  0  0  0
    7.0124    0.9587   21.4337 H   0  0  0  0  0  0  0  0  0  0  0  0
    5.2808   -0.9836   21.9153 O   0  0  0  0  0  0  0  0  0  0  0  0
 19 22  1  0  0  0  0
 20 22  1  0  0  0  0
 21 22  1  0  0  0  0
 17 22  1  0  0  0  0
 15 16  1  0  0  0  0
 17 23  1  0  0  0  0
 17 18  1  0  0  0  0
  7 15  1  0  0  0  0
 12 15  1  0  0  0  0
 18 24  2  0  0  0  0
  5 18  1  0  0  0  0
 12 13  1  0  0  0  0
  7 14  2  0  0  0  0
  7 10  1  0  0  0  0
 11 12  1  0  0  0  0
  9 12  1  0  0  0  0
  5 14  1  0  0  0  0
 10 14  1  0  0  0  0
  9 10  1  0  0  0  0
  8  9  1  0  0  0  0
  2  3  1  0  0  0  0
  2  6  1  0  0  0  0
  1  2  1  0  0  0  0
  2  4  1  0  0  0  0
M  CHG  2   9  -1  15  -1
M  END
> <Shapegauss>
-121.650314

$$$$
