MODEL 1
REMARK VINA RESULT:    -5.907      0.000      0.000
REMARK INTER + INTRA:          -5.907
REMARK INTER:                  -5.907
REMARK INTRA:                   0.000
REMARK UNBOUND:                 0.000
REMARK  0 active torsions:
REMARK  status: ('A' for Active; 'I' for Inactive)
ROOT
HETATM    1  C   UNL     1       8.873  -1.646  24.757  1.00  0.00     0.106 C 
HETATM    2  C   UNL     1      12.458  -0.345  24.395  1.00  0.00     0.131 C 
HETATM    3  C   UNL     1      10.737   1.358  23.951  1.00  0.00     0.003 C 
HETATM    4  C   UNL     1      12.003  -1.367  23.256  1.00  0.00     0.224 C 
HETATM    5  C   UNL     1       9.727  -1.265  22.110  1.00  0.00     0.091 C 
HETATM    6 CL   UNL     1       8.888  -2.803  26.025  1.00  0.00    -0.064 Cl
HETATM    7  N   UNL     1      10.711  -1.630  22.904  1.00  0.00    -0.337 N 
ATOM      8  HN  UNL     1      10.381  -2.408  23.475  1.00  0.00     0.168 HD
HETATM    9  C   UNL     1       8.360  -1.445  22.421  1.00  0.00     0.020 C 
HETATM   10  C   UNL     1       9.631   0.664  24.678  1.00  0.00     0.252 C 
HETATM   11  N   UNL     1       9.716  -0.673  24.895  1.00  0.00    -0.314 N 
ATOM     12  HN  UNL     1      10.629  -0.972  25.235  1.00  0.00     0.170 HD
HETATM   13  C   UNL     1       8.010  -1.882  23.672  1.00  0.00     0.044 C 
HETATM   14  C   UNL     1      10.168   2.545  23.242  1.00  0.00     0.054 C 
HETATM   15  O   UNL     1       8.686   1.310  25.106  1.00  0.00    -0.268 OA
HETATM   16  C   UNL     1      12.044   1.015  24.048  1.00  0.00    -0.005 C 
HETATM   17  O   UNL     1      12.918  -1.999  22.798  1.00  0.00    -0.273 OA
ENDROOT
TORSDOF 0
ENDMDL
MODEL 2
REMARK VINA RESULT:    -5.806      2.411      3.903
REMARK INTER + INTRA:          -5.806
REMARK INTER:                  -5.806
REMARK INTRA:                   0.000
REMARK UNBOUND:                 0.000
REMARK  0 active torsions:
REMARK  status: ('A' for Active; 'I' for Inactive)
ROOT
HETATM    1  C   UNL     1      11.852  -0.705  23.396  1.00  0.00     0.106 C 
HETATM    2  C   UNL     1       8.604  -2.498  22.440  1.00  0.00     0.131 C 
HETATM    3  C   UNL     1       8.542  -0.066  22.062  1.00  0.00     0.003 C 
HETATM    4  C   UNL     1       8.892  -2.432  24.009  1.00  0.00     0.224 C 
HETATM    5  C   UNL     1       9.729  -0.334  25.193  1.00  0.00     0.091 C 
HETATM    6 CL   UNL     1      13.141  -1.780  23.034  1.00  0.00    -0.064 Cl
HETATM    7  N   UNL     1       9.700  -1.520  24.625  1.00  0.00    -0.337 N 
ATOM      8  HN  UNL     1      10.643  -1.907  24.656  1.00  0.00     0.168 HD
HETATM    9  C   UNL     1      10.879   0.487  25.237  1.00  0.00     0.020 C 
HETATM   10  C   UNL     1      10.022   0.131  22.027  1.00  0.00     0.252 C 
HETATM   11  N   UNL     1      10.829  -0.794  22.608  1.00  0.00    -0.314 N 
ATOM     12  HN  UNL     1      10.577  -1.755  22.377  1.00  0.00     0.170 HD
HETATM   13  C   UNL     1      11.991   0.119  24.527  1.00  0.00     0.044 C 
HETATM   14  C   UNL     1       7.883   1.276  22.032  1.00  0.00     0.054 C 
HETATM   15  O   UNL     1      10.494   1.095  21.444  1.00  0.00    -0.268 OA
HETATM   16  C   UNL     1       7.933  -1.275  21.997  1.00  0.00    -0.005 C 
HETATM   17  O   UNL     1       8.416  -3.357  24.613  1.00  0.00    -0.273 OA
ENDROOT
TORSDOF 0
ENDMDL
MODEL 3
REMARK VINA RESULT:    -5.421      1.615      3.581
REMARK INTER + INTRA:          -5.421
REMARK INTER:                  -5.421
REMARK INTRA:                   0.000
REMARK UNBOUND:                 0.000
REMARK  0 active torsions:
REMARK  status: ('A' for Active; 'I' for Inactive)
ROOT
HETATM    1  C   UNL     1       8.901  -1.282  22.560  1.00  0.00     0.106 C 
HETATM    2  C   UNL     1      10.381   2.078  23.654  1.00  0.00     0.131 C 
HETATM    3  C   UNL     1      11.973   0.205  23.786  1.00  0.00     0.003 C 
HETATM    4  C   UNL     1       9.298   1.469  24.657  1.00  0.00     0.224 C 
HETATM    5  C   UNL     1       9.238  -0.989  25.331  1.00  0.00     0.091 C 
HETATM    6 CL   UNL     1       7.791  -0.949  21.294  1.00  0.00    -0.064 Cl
HETATM    7  N   UNL     1       8.954   0.151  24.740  1.00  0.00    -0.337 N 
ATOM      8  HN  UNL     1       8.179  -0.013  24.097  1.00  0.00     0.168 HD
HETATM    9  C   UNL     1       8.995  -2.255  24.751  1.00  0.00     0.020 C 
HETATM   10  C   UNL     1      11.245  -0.693  22.839  1.00  0.00     0.252 C 
HETATM   11  N   UNL     1       9.923  -0.488  22.613  1.00  0.00    -0.314 N 
ATOM     12  HN  UNL     1       9.685   0.491  22.454  1.00  0.00     0.170 HD
HETATM   13  C   UNL     1       8.583  -2.326  23.446  1.00  0.00     0.044 C 
HETATM   14  C   UNL     1      13.103  -0.562  24.394  1.00  0.00     0.054 C 
HETATM   15  O   UNL     1      11.853  -1.573  22.247  1.00  0.00    -0.268 OA
HETATM   16  C   UNL     1      11.704   1.524  23.942  1.00  0.00    -0.005 C 
HETATM   17  O   UNL     1       8.702   2.313  25.273  1.00  0.00    -0.273 OA
ENDROOT
TORSDOF 0
ENDMDL
MODEL 4
REMARK VINA RESULT:    -5.376      2.426      4.005
REMARK INTER + INTRA:          -5.376
REMARK INTER:                  -5.376
REMARK INTRA:                   0.000
REMARK UNBOUND:                 0.000
REMARK  0 active torsions:
REMARK  status: ('A' for Active; 'I' for Inactive)
ROOT
HETATM    1  C   UNL     1      11.092   0.885  23.994  1.00  0.00     0.106 C 
HETATM    2  C   UNL     1       7.724   0.281  22.271  1.00  0.00     0.131 C 
HETATM    3  C   UNL     1       8.155  -1.235  24.162  1.00  0.00     0.003 C 
HETATM    4  C   UNL     1       8.999  -0.138  21.406  1.00  0.00     0.224 C 
HETATM    5  C   UNL     1      10.992  -1.402  22.370  1.00  0.00     0.091 C 
HETATM    6 CL   UNL     1      11.390   2.574  23.927  1.00  0.00    -0.064 Cl
HETATM    7  N   UNL     1      10.232  -0.432  21.911  1.00  0.00    -0.337 N 
ATOM      8  HN  UNL     1      10.772   0.434  21.947  1.00  0.00     0.168 HD
HETATM    9  C   UNL     1      12.041  -1.206  23.297  1.00  0.00     0.020 C 
HETATM   10  C   UNL     1       9.186  -0.379  24.823  1.00  0.00     0.252 C 
HETATM   11  N   UNL     1       9.844   0.554  24.090  1.00  0.00    -0.314 N 
ATOM     12  HN  UNL     1       9.230   1.108  23.493  1.00  0.00     0.170 HD
HETATM   13  C   UNL     1      12.198   0.025  23.880  1.00  0.00     0.044 C 
HETATM   14  C   UNL     1       8.095  -2.546  24.878  1.00  0.00     0.054 C 
HETATM   15  O   UNL     1       9.397  -0.498  26.021  1.00  0.00    -0.268 OA
HETATM   16  C   UNL     1       7.340  -0.811  23.166  1.00  0.00    -0.005 C 
HETATM   17  O   UNL     1       8.811  -0.055  20.221  1.00  0.00    -0.273 OA
ENDROOT
TORSDOF 0
ENDMDL
MODEL 5
REMARK VINA RESULT:    -5.300      2.360      3.803
REMARK INTER + INTRA:          -5.300
REMARK INTER:                  -5.300
REMARK INTRA:                   0.000
REMARK UNBOUND:                 0.000
REMARK  0 active torsions:
REMARK  status: ('A' for Active; 'I' for Inactive)
ROOT
HETATM    1  C   UNL     1       9.055   1.823  24.443  1.00  0.00     0.106 C 
HETATM    2  C   UNL     1       9.336  -1.248  22.170  1.00  0.00     0.131 C 
HETATM    3  C   UNL     1      11.355  -0.821  23.511  1.00  0.00     0.003 C 
HETATM    4  C   UNL     1       9.326   0.151  21.401  1.00  0.00     0.224 C 
HETATM    5  C   UNL     1      10.662   2.182  22.171  1.00  0.00     0.091 C 
HETATM    6 CL   UNL     1       7.422   1.908  24.967  1.00  0.00    -0.064 Cl
HETATM    7  N   UNL     1       9.664   1.354  21.950  1.00  0.00    -0.337 N 
ATOM      8  HN  UNL     1       8.818   1.773  22.337  1.00  0.00     0.168 HD
HETATM    9  C   UNL     1      10.699   3.097  23.247  1.00  0.00     0.020 C 
HETATM   10  C   UNL     1      10.685   0.020  24.548  1.00  0.00     0.252 C 
HETATM   11  N   UNL     1       9.506   0.624  24.254  1.00  0.00    -0.314 N 
ATOM     12  HN  UNL     1       8.840   0.008  23.789  1.00  0.00     0.170 HD
HETATM   13  C   UNL     1       9.727   3.036  24.212  1.00  0.00     0.044 C 
HETATM   14  C   UNL     1      12.830  -0.785  23.750  1.00  0.00     0.054 C 
HETATM   15  O   UNL     1      11.181   0.123  25.661  1.00  0.00    -0.268 OA
HETATM   16  C   UNL     1      10.694  -1.578  22.602  1.00  0.00    -0.005 C 
HETATM   17  O   UNL     1       8.867   0.075  20.292  1.00  0.00    -0.273 OA
ENDROOT
TORSDOF 0
ENDMDL
MODEL 6
REMARK VINA RESULT:    -5.292      6.008      7.136
REMARK INTER + INTRA:          -5.292
REMARK INTER:                  -5.292
REMARK INTRA:                   0.000
REMARK UNBOUND:                 0.000
REMARK  0 active torsions:
REMARK  status: ('A' for Active; 'I' for Inactive)
ROOT
HETATM    1  C   UNL     1       3.859  -4.159  24.872  1.00  0.00     0.106 C 
HETATM    2  C   UNL     1       7.647  -4.561  25.276  1.00  0.00     0.131 C 
HETATM    3  C   UNL     1       6.820  -5.168  23.039  1.00  0.00     0.003 C 
HETATM    4  C   UNL     1       6.774  -5.623  26.089  1.00  0.00     0.224 C 
HETATM    5  C   UNL     1       4.744  -6.812  25.107  1.00  0.00     0.091 C 
HETATM    6 CL   UNL     1       3.397  -2.803  25.817  1.00  0.00    -0.064 Cl
HETATM    7  N   UNL     1       5.489  -5.975  25.796  1.00  0.00    -0.337 N 
ATOM      8  HN  UNL     1       4.866  -5.350  26.308  1.00  0.00     0.168 HD
HETATM    9  C   UNL     1       3.439  -6.512  24.654  1.00  0.00     0.020 C 
HETATM   10  C   UNL     1       5.538  -4.407  23.128  1.00  0.00     0.252 C 
HETATM   11  N   UNL     1       5.041  -4.084  24.349  1.00  0.00    -0.314 N 
ATOM     12  HN  UNL     1       5.743  -3.705  24.985  1.00  0.00     0.170 HD
HETATM   13  C   UNL     1       2.958  -5.236  24.797  1.00  0.00     0.044 C 
HETATM   14  C   UNL     1       6.805  -5.978  21.782  1.00  0.00     0.054 C 
HETATM   15  O   UNL     1       4.971  -4.048  22.106  1.00  0.00    -0.268 OA
HETATM   16  C   UNL     1       7.854  -5.021  23.903  1.00  0.00    -0.005 C 
HETATM   17  O   UNL     1       7.319  -6.014  27.087  1.00  0.00    -0.273 OA
ENDROOT
TORSDOF 0
ENDMDL
MODEL 7
REMARK VINA RESULT:    -5.223     12.319     13.823
REMARK INTER + INTRA:          -5.223
REMARK INTER:                  -5.223
REMARK INTRA:                   0.000
REMARK UNBOUND:                 0.000
REMARK  0 active torsions:
REMARK  status: ('A' for Active; 'I' for Inactive)
ROOT
HETATM    1  C   UNL     1      21.941  -1.345  25.324  1.00  0.00     0.106 C 
HETATM    2  C   UNL     1      23.396  -4.758  26.275  1.00  0.00     0.131 C 
HETATM    3  C   UNL     1      24.574  -2.858  27.305  1.00  0.00     0.003 C 
HETATM    4  C   UNL     1      23.644  -4.328  24.758  1.00  0.00     0.224 C 
HETATM    5  C   UNL     1      24.368  -1.982  24.067  1.00  0.00     0.091 C 
HETATM    6 CL   UNL     1      20.244  -1.552  25.165  1.00  0.00    -0.064 Cl
HETATM    7  N   UNL     1      23.627  -3.046  24.289  1.00  0.00    -0.337 N 
ATOM      8  HN  UNL     1      22.672  -2.830  24.000  1.00  0.00     0.168 HD
HETATM    9  C   UNL     1      23.863  -0.662  24.061  1.00  0.00     0.020 C 
HETATM   10  C   UNL     1      23.461  -1.874  27.148  1.00  0.00     0.252 C 
HETATM   11  N   UNL     1      22.502  -2.099  26.215  1.00  0.00    -0.314 N 
ATOM     12  HN  UNL     1      22.153  -3.056  26.214  1.00  0.00     0.170 HD
HETATM   13  C   UNL     1      22.569  -0.438  24.453  1.00  0.00     0.044 C 
HETATM   14  C   UNL     1      25.782  -2.134  27.805  1.00  0.00     0.054 C 
HETATM   15  O   UNL     1      23.402  -0.901  27.887  1.00  0.00    -0.268 OA
HETATM   16  C   UNL     1      24.436  -4.196  27.137  1.00  0.00    -0.005 C 
HETATM   17  O   UNL     1      23.733  -5.267  24.011  1.00  0.00    -0.273 OA
ENDROOT
TORSDOF 0
ENDMDL
MODEL 8
REMARK VINA RESULT:    -5.089      3.906      5.186
REMARK INTER + INTRA:          -5.089
REMARK INTER:                  -5.089
REMARK INTRA:                   0.000
REMARK UNBOUND:                 0.000
REMARK  0 active torsions:
REMARK  status: ('A' for Active; 'I' for Inactive)
ROOT
HETATM    1  C   UNL     1       6.604  -5.363  23.077  1.00  0.00     0.106 C 
HETATM    2  C   UNL     1       8.674  -2.210  22.405  1.00  0.00     0.131 C 
HETATM    3  C   UNL     1       8.582  -2.846  24.781  1.00  0.00     0.003 C 
HETATM    4  C   UNL     1       7.101  -2.029  22.202  1.00  0.00     0.224 C 
HETATM    5  C   UNL     1       5.364  -2.958  23.822  1.00  0.00     0.091 C 
HETATM    6 CL   UNL     1       6.828  -6.404  21.731  1.00  0.00    -0.064 Cl
HETATM    7  N   UNL     1       6.138  -2.814  22.768  1.00  0.00    -0.337 N 
ATOM      8  HN  UNL     1       5.944  -3.585  22.129  1.00  0.00     0.168 HD
HETATM    9  C   UNL     1       4.874  -4.205  24.272  1.00  0.00     0.020 C 
HETATM   10  C   UNL     1       8.203  -4.273  24.552  1.00  0.00     0.252 C 
HETATM   11  N   UNL     1       7.626  -4.626  23.375  1.00  0.00    -0.314 N 
ATOM     12  HN  UNL     1       8.093  -4.231  22.559  1.00  0.00     0.170 HD
HETATM   13  C   UNL     1       5.338  -5.355  23.689  1.00  0.00     0.044 C 
HETATM   14  C   UNL     1       8.519  -2.567  26.248  1.00  0.00     0.054 C 
HETATM   15  O   UNL     1       8.452  -5.113  25.405  1.00  0.00    -0.268 OA
HETATM   16  C   UNL     1       9.029  -2.013  23.810  1.00  0.00    -0.005 C 
HETATM   17  O   UNL     1       6.825  -1.190  21.386  1.00  0.00    -0.273 OA
ENDROOT
TORSDOF 0
ENDMDL
MODEL 9
REMARK VINA RESULT:    -4.904      5.875      7.023
REMARK INTER + INTRA:          -4.904
REMARK INTER:                  -4.904
REMARK INTRA:                   0.000
REMARK UNBOUND:                 0.000
REMARK  0 active torsions:
REMARK  status: ('A' for Active; 'I' for Inactive)
ROOT
HETATM    1  C   UNL     1       4.262  -6.114  25.633  1.00  0.00     0.106 C 
HETATM    2  C   UNL     1       6.842  -5.285  22.925  1.00  0.00     0.131 C 
HETATM    3  C   UNL     1       7.584  -4.724  25.204  1.00  0.00     0.003 C 
HETATM    4  C   UNL     1       5.547  -4.352  22.918  1.00  0.00     0.224 C 
HETATM    5  C   UNL     1       4.508  -3.383  25.036  1.00  0.00     0.091 C 
HETATM    6 CL   UNL     1       3.447  -7.537  25.126  1.00  0.00    -0.064 Cl
HETATM    7  N   UNL     1       4.720  -4.144  23.984  1.00  0.00    -0.337 N 
ATOM      8  HN  UNL     1       3.984  -4.849  23.953  1.00  0.00     0.168 HD
HETATM    9  C   UNL     1       3.836  -3.821  26.199  1.00  0.00     0.020 C 
HETATM   10  C   UNL     1       6.630  -5.631  25.912  1.00  0.00     0.252 C 
HETATM   11  N   UNL     1       5.504  -6.039  25.274  1.00  0.00    -0.314 N 
ATOM     12  HN  UNL     1       5.670  -6.349  24.317  1.00  0.00     0.170 HD
HETATM   13  C   UNL     1       3.513  -5.147  26.326  1.00  0.00     0.044 C 
HETATM   14  C   UNL     1       8.293  -3.891  26.223  1.00  0.00     0.054 C 
HETATM   15  O   UNL     1       6.891  -6.028  27.038  1.00  0.00    -0.268 OA
HETATM   16  C   UNL     1       7.831  -4.771  23.872  1.00  0.00    -0.005 C 
HETATM   17  O   UNL     1       5.281  -3.924  21.826  1.00  0.00    -0.273 OA
ENDROOT
TORSDOF 0
ENDMDL
