REMARK  0 active torsions:
REMARK  status: ('A' for Active; 'I' for Inactive)
ROOT
HETATM    1  C   UNL     1       8.496  -0.070  24.589  1.00  0.00     0.106 C 
HETATM    2  C   UNL     1       7.727  -3.247  22.591  1.00  0.00     0.131 C 
HETATM    3  C   UNL     1       9.828  -2.147  21.932  1.00  0.00     0.003 C 
HETATM    4  C   UNL     1       6.766  -2.012  22.274  1.00  0.00     0.224 C 
HETATM    5  C   UNL     1       7.608   0.375  21.964  1.00  0.00     0.091 C 
HETATM    6 CL   UNL     1       7.915  -0.330  26.183  1.00  0.00    -0.064 Cl
HETATM    7  N   UNL     1       7.069  -0.700  22.497  1.00  0.00    -0.337 N 
ATOM      8  HN  UNL     1       6.758  -0.461  23.439  1.00  0.00     0.168 HD
HETATM    9  C   UNL     1       8.213   1.406  22.718  1.00  0.00     0.020 C 
HETATM   10  C   UNL     1      10.008  -1.371  23.196  1.00  0.00     0.252 C 
HETATM   11  N   UNL     1       8.931  -1.130  23.986  1.00  0.00    -0.314 N 
ATOM     12  HN  UNL     1       8.345  -1.951  24.135  1.00  0.00     0.170 HD
HETATM   13  C   UNL     1       8.396   1.231  24.065  1.00  0.00     0.044 C 
HETATM   14  C   UNL     1      10.869  -1.708  20.953  1.00  0.00     0.054 C 
HETATM   15  O   UNL     1      11.124  -0.998  23.527  1.00  0.00    -0.268 OA
HETATM   16  C   UNL     1       8.943  -3.162  21.782  1.00  0.00    -0.005 C 
HETATM   17  O   UNL     1       5.667  -2.350  21.920  1.00  0.00    -0.273 OA
ENDROOT
TORSDOF 0
